lig.pdb
 OpenBabel11021811503D
libRbt.so/2013.1/901 2013/11/27
 18 19  0  0  0  0  0  0  0  0999 V2000
  -13.6330   14.8943    3.4616 C   0  0  0  0  0  0  0  0  0  0  0  0
  -10.4623   11.4703    2.1368 N   0  0  0  0  0  0  0  0  0  0  0  0
   -6.1283   14.0952    3.8011 C   0  0  0  0  0  0  0  0  0  0  0  0
   -1.7465   16.3757    2.6467 O   0  0  0  0  0  0  0  0  0  0  0  0
   -2.8984   15.8272    2.0211 C   0  0  0  0  0  0  0  0  0  0  0  0
   -4.1731   16.2860    2.7556 C   0  0  0  0  0  0  0  0  0  0  0  0
   -7.2897   14.9738    0.3527 C   0  0  0  0  0  0  0  0  0  0  0  0
   -5.9519   16.0745    0.4064 S   0  0  0  0  0  0  0  0  0  0  0  0
   -5.3628   15.6871    2.0384 C   0  0  0  0  0  0  0  0  0  0  0  0
   -6.2641   14.7265    2.4256 C   0  0  0  0  0  0  0  0  0  0  0  0
   -7.2464   14.3798    1.5384 N   0  0  0  0  0  0  0  0  0  0  0  0
   -8.2655   13.3217    1.8701 C   0  0  0  0  0  0  0  0  0  0  0  0
  -10.7178   12.8165    2.3974 C   0  0  0  0  0  0  0  0  0  0  0  0
  -11.9728   13.2098    2.7743 N   0  0  0  0  0  0  0  0  0  0  0  0
  -12.2423   14.4924    3.0316 C   0  0  0  0  0  0  0  0  0  0  0  0
  -11.2895   15.4228    2.9230 N   0  0  0  0  0  0  0  0  0  0  0  0
  -10.0200   15.1069    2.5571 C   0  0  0  0  0  0  0  0  0  0  0  0
   -9.6745   13.7794    2.2807 C   0  0  0  0  0  0  0  0  0  0  0  0
  5  4  1  0  0  0  0
  5  6  1  0  0  0  0
  7  8  2  0  0  0  0
  7 11  1  0  0  0  0
  8  9  1  0  0  0  0
  9 10  2  0  0  0  0
  9  6  1  0  0  0  0
 10  3  1  0  0  0  0
 11 12  1  0  0  0  0
 11 10  1  0  0  0  0
 12 18  1  0  0  0  0
 13  2  1  0  0  0  0
 13 14  2  0  0  0  0
 15 14  1  0  0  0  0
 15  1  1  0  0  0  0
 16 15  2  0  0  0  0
 17 18  2  0  0  0  0
 17 16  1  0  0  0  0
 18 13  1  0  0  0  0
M  END
>  <CHROM.1>
179.34160016,-67.76325098,-78.42648274,170.23027014,-7.85976405,14.72980431
2.18496903,2.87714396,-0.06386390,3.00088190

>  <Name>
lig.pdb

>  <RI>
0

>  <Rbt.Current_Directory>
/home/itssahil/PROJECTS/Mol_Feturizer/New_Systems/rnas/4nyg

>  <Rbt.Executable>
rbdock ($Id: //depot/dev/client3/rdock/2013.1/src/exe/rbdock.cxx#4 $)

>  <Rbt.Library>
libRbt.so (2013.1, Build901 2013/11/27)

>  <Rbt.Parameter_File>
/export/apps/rDock/src/rDock_2013.1_src/data/scripts/dock_solv.prm

>  <Rbt.Receptor>
prm/pocket_docking_2.prm

>  <SCORE>
-13.1376

>  <SCORE.INTER>
-12.688

>  <SCORE.INTER.CONST>
1

>  <SCORE.INTER.POLAR>
0

>  <SCORE.INTER.ROT>
4

>  <SCORE.INTER.SOLV>
8.89196

>  <SCORE.INTER.VDW>
-17.6893

>  <SCORE.INTER.norm>
-0.704891

>  <SCORE.INTRA>
-0.482548

>  <SCORE.INTRA.DIHEDRAL>
-0.0165559

>  <SCORE.INTRA.DIHEDRAL.0>
3.20029

>  <SCORE.INTRA.POLAR>
0

>  <SCORE.INTRA.POLAR.0>
0

>  <SCORE.INTRA.REPUL>
0

>  <SCORE.INTRA.REPUL.0>
0

>  <SCORE.INTRA.SOLV>
-0.0272082

>  <SCORE.INTRA.SOLV.lig_0>
-19.3885

>  <SCORE.INTRA.VDW>
-0.460666

>  <SCORE.INTRA.VDW.0>
-1.12705

>  <SCORE.INTRA.norm>
-0.0268082

>  <SCORE.RESTR>
0.0330045

>  <SCORE.RESTR.CAVITY>
0.0330045

>  <SCORE.RESTR.norm>
0.00183358

>  <SCORE.SYSTEM>
0

>  <SCORE.SYSTEM.CONST>
0

>  <SCORE.SYSTEM.DIHEDRAL>
0

>  <SCORE.SYSTEM.SOLV>
0

>  <SCORE.SYSTEM.norm>
0

>  <SCORE.heavy>
18

>  <SCORE.norm>
-0.729865

>  <RMSD>
1.446

$$$$
lig.pdb
 OpenBabel11021811503D
libRbt.so/2013.1/901 2013/11/27
 18 19  0  0  0  0  0  0  0  0999 V2000
  -13.6156   14.6234    3.4357 C   0  0  0  0  0  0  0  0  0  0  0  0
  -10.3238   11.3509    2.0262 N   0  0  0  0  0  0  0  0  0  0  0  0
   -6.1306   13.9978    3.7172 C   0  0  0  0  0  0  0  0  0  0  0  0
   -1.8030   16.5258    2.7420 O   0  0  0  0  0  0  0  0  0  0  0  0
   -2.9375   16.0380    2.0390 C   0  0  0  0  0  0  0  0  0  0  0  0
   -4.2212   16.3035    2.8492 C   0  0  0  0  0  0  0  0  0  0  0  0
   -7.2718   15.0775    0.3196 C   0  0  0  0  0  0  0  0  0  0  0  0
   -5.9643   16.2058    0.4661 S   0  0  0  0  0  0  0  0  0  0  0  0
   -5.3856   15.7242    2.0766 C   0  0  0  0  0  0  0  0  0  0  0  0
   -6.2659   14.7169    2.3855 C   0  0  0  0  0  0  0  0  0  0  0  0
   -7.2275   14.4060    1.4632 N   0  0  0  0  0  0  0  0  0  0  0  0
   -8.2223   13.3022    1.7085 C   0  0  0  0  0  0  0  0  0  0  0  0
  -10.6348   12.6836    2.2956 C   0  0  0  0  0  0  0  0  0  0  0  0
  -11.8969   13.0181    2.7043 N   0  0  0  0  0  0  0  0  0  0  0  0
  -12.2189   14.2867    2.9706 C   0  0  0  0  0  0  0  0  0  0  0  0
  -11.3132   15.2603    2.8400 N   0  0  0  0  0  0  0  0  0  0  0  0
  -10.0400   15.0038    2.4422 C   0  0  0  0  0  0  0  0  0  0  0  0
   -9.6404   13.6939    2.1548 C   0  0  0  0  0  0  0  0  0  0  0  0
  5  4  1  0  0  0  0
  5  6  1  0  0  0  0
  7  8  2  0  0  0  0
  7 11  1  0  0  0  0
  8  9  1  0  0  0  0
  9 10  2  0  0  0  0
  9  6  1  0  0  0  0
 10  3  1  0  0  0  0
 11 12  1  0  0  0  0
 11 10  1  0  0  0  0
 12 18  1  0  0  0  0
 13  2  1  0  0  0  0
 13 14  2  0  0  0  0
 15 14  1  0  0  0  0
 15  1  1  0  0  0  0
 16 15  2  0  0  0  0
 17 18  2  0  0  0  0
 17 16  1  0  0  0  0
 18 13  1  0  0  0  0
M  END
>  <CHROM.1>
-178.14410406,-62.75601829,-79.56905123,175.18189327,-7.84981162,14.70304760
2.15037020,2.84026779,-0.03528645,2.97397448

>  <Name>
lig.pdb

>  <RI>
0

>  <Rbt.Current_Directory>
/home/itssahil/PROJECTS/Mol_Feturizer/New_Systems/rnas/4nyg

>  <Rbt.Executable>
rbdock ($Id: //depot/dev/client3/rdock/2013.1/src/exe/rbdock.cxx#4 $)

>  <Rbt.Library>
libRbt.so (2013.1, Build901 2013/11/27)

>  <Rbt.Parameter_File>
/export/apps/rDock/src/rDock_2013.1_src/data/scripts/dock_solv.prm

>  <Rbt.Receptor>
prm/pocket_docking_2.prm

>  <SCORE>
-12.9918

>  <SCORE.INTER>
-12.4925

>  <SCORE.INTER.CONST>
1

>  <SCORE.INTER.POLAR>
0

>  <SCORE.INTER.ROT>
4

>  <SCORE.INTER.SOLV>
8.88147

>  <SCORE.INTER.VDW>
-17.5555

>  <SCORE.INTER.norm>
-0.694026

>  <SCORE.INTRA>
-0.514878

>  <SCORE.INTRA.DIHEDRAL>
-0.106295

>  <SCORE.INTRA.DIHEDRAL.0>
3.20029

>  <SCORE.INTRA.POLAR>
0

>  <SCORE.INTRA.POLAR.0>
0

>  <SCORE.INTRA.REPUL>
0

>  <SCORE.INTRA.REPUL.0>
0

>  <SCORE.INTRA.SOLV>
-0.0280537

>  <SCORE.INTRA.SOLV.lig_0>
-19.3885

>  <SCORE.INTRA.VDW>
-0.447704

>  <SCORE.INTRA.VDW.0>
-1.12705

>  <SCORE.INTRA.norm>
-0.0286043

>  <SCORE.RESTR>
0.0155911

>  <SCORE.RESTR.CAVITY>
0.0155911

>  <SCORE.RESTR.norm>
0.000866171

>  <SCORE.SYSTEM>
0

>  <SCORE.SYSTEM.CONST>
0

>  <SCORE.SYSTEM.DIHEDRAL>
0

>  <SCORE.SYSTEM.SOLV>
0

>  <SCORE.SYSTEM.norm>
0

>  <SCORE.heavy>
18

>  <SCORE.norm>
-0.721764

>  <RMSD>
1.450

$$$$
lig.pdb
 OpenBabel11021811503D
libRbt.so/2013.1/901 2013/11/27
 18 19  0  0  0  0  0  0  0  0999 V2000
  -13.6489   14.8837    3.4242 C   0  0  0  0  0  0  0  0  0  0  0  0
  -10.4431   11.4471    2.2223 N   0  0  0  0  0  0  0  0  0  0  0  0
   -6.1621   14.0540    3.7874 C   0  0  0  0  0  0  0  0  0  0  0  0
   -1.7628   16.3436    2.7076 O   0  0  0  0  0  0  0  0  0  0  0  0
   -2.9123   15.8447    2.0378 C   0  0  0  0  0  0  0  0  0  0  0  0
   -4.1903   16.2547    2.7952 C   0  0  0  0  0  0  0  0  0  0  0  0
   -7.2868   14.9895    0.3418 C   0  0  0  0  0  0  0  0  0  0  0  0
   -5.9464   16.0850    0.4257 S   0  0  0  0  0  0  0  0  0  0  0  0
   -5.3746   15.6706    2.0572 C   0  0  0  0  0  0  0  0  0  0  0  0
   -6.2824   14.7069    2.4205 C   0  0  0  0  0  0  0  0  0  0  0  0
   -7.2569   14.3770    1.5185 N   0  0  0  0  0  0  0  0  0  0  0  0
   -8.2824   13.3171    1.8237 C   0  0  0  0  0  0  0  0  0  0  0  0
  -10.7170   12.8006    2.4181 C   0  0  0  0  0  0  0  0  0  0  0  0
  -11.9721   13.1927    2.7957 N   0  0  0  0  0  0  0  0  0  0  0  0
  -12.2588   14.4824    2.9916 C   0  0  0  0  0  0  0  0  0  0  0  0
  -11.3237   15.4211    2.8193 N   0  0  0  0  0  0  0  0  0  0  0  0
  -10.0552   15.1071    2.4484 C   0  0  0  0  0  0  0  0  0  0  0  0
   -9.6920   13.7728    2.2344 C   0  0  0  0  0  0  0  0  0  0  0  0
  5  4  1  0  0  0  0
  5  6  1  0  0  0  0
  7  8  2  0  0  0  0
  7 11  1  0  0  0  0
  8  9  1  0  0  0  0
  9 10  2  0  0  0  0
  9  6  1  0  0  0  0
 10  3  1  0  0  0  0
 11 12  1  0  0  0  0
 11 10  1  0  0  0  0
 12 18  1  0  0  0  0
 13  2  1  0  0  0  0
 13 14  2  0  0  0  0
 15 14  1  0  0  0  0
 15  1  1  0  0  0  0
 16 15  2  0  0  0  0
 17 18  2  0  0  0  0
 17 16  1  0  0  0  0
 18 13  1  0  0  0  0
M  END
>  <CHROM.1>
-178.68403914,-65.79839789,-78.73083617,174.62855964,-7.87131660,14.72044983
2.17943923,2.87308400,-0.02676561,2.88632673

>  <Name>
lig.pdb

>  <RI>
0

>  <Rbt.Current_Directory>
/home/itssahil/PROJECTS/Mol_Feturizer/New_Systems/rnas/4nyg

>  <Rbt.Executable>
rbdock ($Id: //depot/dev/client3/rdock/2013.1/src/exe/rbdock.cxx#4 $)

>  <Rbt.Library>
libRbt.so (2013.1, Build901 2013/11/27)

>  <Rbt.Parameter_File>
/export/apps/rDock/src/rDock_2013.1_src/data/scripts/dock_solv.prm

>  <Rbt.Receptor>
prm/pocket_docking_2.prm

>  <SCORE>
-13.2165

>  <SCORE.INTER>
-12.7602

>  <SCORE.INTER.CONST>
1

>  <SCORE.INTER.POLAR>
0

>  <SCORE.INTER.ROT>
4

>  <SCORE.INTER.SOLV>
8.8856

>  <SCORE.INTER.VDW>
-17.7353

>  <SCORE.INTER.norm>
-0.708899

>  <SCORE.INTRA>
-0.505904

>  <SCORE.INTRA.DIHEDRAL>
-0.0617024

>  <SCORE.INTRA.DIHEDRAL.0>
3.20029

>  <SCORE.INTRA.POLAR>
0

>  <SCORE.INTRA.POLAR.0>
0

>  <SCORE.INTRA.REPUL>
0

>  <SCORE.INTRA.REPUL.0>
0

>  <SCORE.INTRA.SOLV>
-0.0268645

>  <SCORE.INTRA.SOLV.lig_0>
-19.3885

>  <SCORE.INTRA.VDW>
-0.46162

>  <SCORE.INTRA.VDW.0>
-1.12705

>  <SCORE.INTRA.norm>
-0.0281058

>  <SCORE.RESTR>
0.0495704

>  <SCORE.RESTR.CAVITY>
0.0495704

>  <SCORE.RESTR.norm>
0.00275391

>  <SCORE.SYSTEM>
0

>  <SCORE.SYSTEM.CONST>
0

>  <SCORE.SYSTEM.DIHEDRAL>
0

>  <SCORE.SYSTEM.SOLV>
0

>  <SCORE.SYSTEM.norm>
0

>  <SCORE.heavy>
18

>  <SCORE.norm>
-0.734251

>  <RMSD>
1.456

$$$$
lig.pdb
 OpenBabel11021811503D
libRbt.so/2013.1/901 2013/11/27
 18 19  0  0  0  0  0  0  0  0999 V2000
  -13.6330   15.1227    3.3959 C   0  0  0  0  0  0  0  0  0  0  0  0
  -10.3080   11.7556    2.3285 N   0  0  0  0  0  0  0  0  0  0  0  0
   -6.0821   14.2371    3.6471 C   0  0  0  0  0  0  0  0  0  0  0  0
   -2.7144   15.0387    1.5016 O   0  0  0  0  0  0  0  0  0  0  0  0
   -2.9101   16.3951    1.8770 C   0  0  0  0  0  0  0  0  0  0  0  0
   -4.1339   16.5199    2.8053 C   0  0  0  0  0  0  0  0  0  0  0  0
   -7.3067   15.4902    0.3392 C   0  0  0  0  0  0  0  0  0  0  0  0
   -5.9609   16.5726    0.4843 S   0  0  0  0  0  0  0  0  0  0  0  0
   -5.3417   16.0077    2.0521 C   0  0  0  0  0  0  0  0  0  0  0  0
   -6.2413   15.0146    2.3513 C   0  0  0  0  0  0  0  0  0  0  0  0
   -7.2435   14.7707    1.4523 N   0  0  0  0  0  0  0  0  0  0  0  0
   -8.2627   13.6873    1.6883 C   0  0  0  0  0  0  0  0  0  0  0  0
  -10.6421   13.1060    2.4287 C   0  0  0  0  0  0  0  0  0  0  0  0
  -11.8992   13.4676    2.8294 N   0  0  0  0  0  0  0  0  0  0  0  0
  -12.2428   14.7539    2.9353 C   0  0  0  0  0  0  0  0  0  0  0  0
  -11.3642   15.7188    2.6482 N   0  0  0  0  0  0  0  0  0  0  0  0
  -10.0975   15.4361    2.2475 C   0  0  0  0  0  0  0  0  0  0  0  0
   -9.6760   14.1076    2.1236 C   0  0  0  0  0  0  0  0  0  0  0  0
  5  4  1  0  0  0  0
  5  6  1  0  0  0  0
  7  8  2  0  0  0  0
  7 11  1  0  0  0  0
  8  9  1  0  0  0  0
  9 10  2  0  0  0  0
  9  6  1  0  0  0  0
 10  3  1  0  0  0  0
 11 12  1  0  0  0  0
 11 10  1  0  0  0  0
 12 18  1  0  0  0  0
 13  2  1  0  0  0  0
 13 14  2  0  0  0  0
 15 14  1  0  0  0  0
 15  1  1  0  0  0  0
 16 15  2  0  0  0  0
 17 18  2  0  0  0  0
 17 16  1  0  0  0  0
 18 13  1  0  0  0  0
M  END
>  <CHROM.1>
-59.68408712,-56.55136355,-76.14667905,-176.45629705,-7.90659337,14.96855433
2.06221268,2.88826187,-0.07198364,2.85025524

>  <Name>
lig.pdb

>  <RI>
0

>  <Rbt.Current_Directory>
/home/itssahil/PROJECTS/Mol_Feturizer/New_Systems/rnas/4nyg

>  <Rbt.Executable>
rbdock ($Id: //depot/dev/client3/rdock/2013.1/src/exe/rbdock.cxx#4 $)

>  <Rbt.Library>
libRbt.so (2013.1, Build901 2013/11/27)

>  <Rbt.Parameter_File>
/export/apps/rDock/src/rDock_2013.1_src/data/scripts/dock_solv.prm

>  <Rbt.Receptor>
prm/pocket_docking_2.prm

>  <SCORE>
-12.7639

>  <SCORE.INTER>
-12.4572

>  <SCORE.INTER.CONST>
1

>  <SCORE.INTER.POLAR>
0

>  <SCORE.INTER.ROT>
4

>  <SCORE.INTER.SOLV>
8.37277

>  <SCORE.INTER.VDW>
-17.3624

>  <SCORE.INTER.norm>
-0.692067

>  <SCORE.INTRA>
-0.339652

>  <SCORE.INTRA.DIHEDRAL>
-0.108065

>  <SCORE.INTRA.DIHEDRAL.0>
3.20029

>  <SCORE.INTRA.POLAR>
0

>  <SCORE.INTRA.POLAR.0>
0

>  <SCORE.INTRA.REPUL>
0

>  <SCORE.INTRA.REPUL.0>
0

>  <SCORE.INTRA.SOLV>
0.480376

>  <SCORE.INTRA.SOLV.lig_0>
-19.3885

>  <SCORE.INTRA.VDW>
-0.525808

>  <SCORE.INTRA.VDW.0>
-1.12705

>  <SCORE.INTRA.norm>
-0.0188696

>  <SCORE.RESTR>
0.0329673

>  <SCORE.RESTR.CAVITY>
0.0329673

>  <SCORE.RESTR.norm>
0.00183152

>  <SCORE.SYSTEM>
0

>  <SCORE.SYSTEM.CONST>
0

>  <SCORE.SYSTEM.DIHEDRAL>
0

>  <SCORE.SYSTEM.SOLV>
0

>  <SCORE.SYSTEM.norm>
0

>  <SCORE.heavy>
18

>  <SCORE.norm>
-0.709105

>  <RMSD>
1.483

$$$$
lig.pdb
 OpenBabel11021811503D
libRbt.so/2013.1/901 2013/11/27
 18 19  0  0  0  0  0  0  0  0999 V2000
  -13.6006   15.2426    3.4316 C   0  0  0  0  0  0  0  0  0  0  0  0
  -10.3748   11.8369    2.1957 N   0  0  0  0  0  0  0  0  0  0  0  0
   -6.1554   14.2302    3.6512 C   0  0  0  0  0  0  0  0  0  0  0  0
   -2.7026   14.9569    1.6531 O   0  0  0  0  0  0  0  0  0  0  0  0
   -2.8845   16.3211    2.0067 C   0  0  0  0  0  0  0  0  0  0  0  0
   -4.1369   16.4801    2.8904 C   0  0  0  0  0  0  0  0  0  0  0  0
   -7.2497   15.5331    0.3171 C   0  0  0  0  0  0  0  0  0  0  0  0
   -5.8880   16.5873    0.5136 S   0  0  0  0  0  0  0  0  0  0  0  0
   -5.3301   15.9979    2.0953 C   0  0  0  0  0  0  0  0  0  0  0  0
   -6.2581   15.0208    2.3576 C   0  0  0  0  0  0  0  0  0  0  0  0
   -7.2359   14.8038    1.4255 N   0  0  0  0  0  0  0  0  0  0  0  0
   -8.2833   13.7393    1.6201 C   0  0  0  0  0  0  0  0  0  0  0  0
  -10.6718   13.1903    2.3554 C   0  0  0  0  0  0  0  0  0  0  0  0
  -11.9160   13.5677    2.7814 N   0  0  0  0  0  0  0  0  0  0  0  0
  -12.2243   14.8570    2.9442 C   0  0  0  0  0  0  0  0  0  0  0  0
  -11.3223   15.8096    2.6905 N   0  0  0  0  0  0  0  0  0  0  0  0
  -10.0665   15.5107    2.2677 C   0  0  0  0  0  0  0  0  0  0  0  0
   -9.6816   14.1779    2.0846 C   0  0  0  0  0  0  0  0  0  0  0  0
  5  4  1  0  0  0  0
  5  6  1  0  0  0  0
  7  8  2  0  0  0  0
  7 11  1  0  0  0  0
  8  9  1  0  0  0  0
  9 10  2  0  0  0  0
  9  6  1  0  0  0  0
 10  3  1  0  0  0  0
 11 12  1  0  0  0  0
 11 10  1  0  0  0  0
 12 18  1  0  0  0  0
 13  2  1  0  0  0  0
 13 14  2  0  0  0  0
 15 14  1  0  0  0  0
 15  1  1  0  0  0  0
 16 15  2  0  0  0  0
 17 18  2  0  0  0  0
 17 16  1  0  0  0  0
 18 13  1  0  0  0  0
M  END
>  <CHROM.1>
-60.34477137,-57.27268697,-79.24115247,-176.26787618,-7.89765252,15.00227670
2.07377108,2.91013790,-0.07533005,2.89320769

>  <Name>
lig.pdb

>  <RI>
0

>  <Rbt.Current_Directory>
/home/itssahil/PROJECTS/Mol_Feturizer/New_Systems/rnas/4nyg

>  <Rbt.Executable>
rbdock ($Id: //depot/dev/client3/rdock/2013.1/src/exe/rbdock.cxx#4 $)

>  <Rbt.Library>
libRbt.so (2013.1, Build901 2013/11/27)

>  <Rbt.Parameter_File>
/export/apps/rDock/src/rDock_2013.1_src/data/scripts/dock_solv.prm

>  <Rbt.Receptor>
prm/pocket_docking_2.prm

>  <SCORE>
-12.7817

>  <SCORE.INTER>
-12.397

>  <SCORE.INTER.CONST>
1

>  <SCORE.INTER.POLAR>
0

>  <SCORE.INTER.ROT>
4

>  <SCORE.INTER.SOLV>
8.37973

>  <SCORE.INTER.VDW>
-17.3246

>  <SCORE.INTER.norm>
-0.68872

>  <SCORE.INTRA>
-0.387999

>  <SCORE.INTRA.DIHEDRAL>
-0.122336

>  <SCORE.INTRA.DIHEDRAL.0>
3.20029

>  <SCORE.INTRA.POLAR>
0

>  <SCORE.INTRA.POLAR.0>
0

>  <SCORE.INTRA.REPUL>
0

>  <SCORE.INTRA.REPUL.0>
0

>  <SCORE.INTRA.SOLV>
0.47794

>  <SCORE.INTRA.SOLV.lig_0>
-19.3885

>  <SCORE.INTRA.VDW>
-0.565801

>  <SCORE.INTRA.VDW.0>
-1.12705

>  <SCORE.INTRA.norm>
-0.0215555

>  <SCORE.RESTR>
0.00325163

>  <SCORE.RESTR.CAVITY>
0.00325163

>  <SCORE.RESTR.norm>
0.000180646

>  <SCORE.SYSTEM>
0

>  <SCORE.SYSTEM.CONST>
0

>  <SCORE.SYSTEM.DIHEDRAL>
0

>  <SCORE.SYSTEM.SOLV>
0

>  <SCORE.SYSTEM.norm>
0

>  <SCORE.heavy>
18

>  <SCORE.norm>
-0.710095

>  <RMSD>
1.486

$$$$
lig.pdb
 OpenBabel11021811503D
libRbt.so/2013.1/901 2013/11/27
 18 19  0  0  0  0  0  0  0  0999 V2000
  -13.5859   14.9566    3.2879 C   0  0  0  0  0  0  0  0  0  0  0  0
  -10.3693   11.5082    2.1504 N   0  0  0  0  0  0  0  0  0  0  0  0
   -6.4947   13.9656    3.5684 C   0  0  0  0  0  0  0  0  0  0  0  0
   -1.9267   16.3820    3.0666 O   0  0  0  0  0  0  0  0  0  0  0  0
   -2.9895   15.9121    2.2489 C   0  0  0  0  0  0  0  0  0  0  0  0
   -4.3421   16.1343    2.9531 C   0  0  0  0  0  0  0  0  0  0  0  0
   -7.1124   15.0833    0.0498 C   0  0  0  0  0  0  0  0  0  0  0  0
   -5.7640   16.1261    0.3636 S   0  0  0  0  0  0  0  0  0  0  0  0
   -5.4318   15.6240    2.0364 C   0  0  0  0  0  0  0  0  0  0  0  0
   -6.4087   14.6788    2.2294 C   0  0  0  0  0  0  0  0  0  0  0  0
   -7.2609   14.4217    1.1903 N   0  0  0  0  0  0  0  0  0  0  0  0
   -8.3492   13.3870    1.3056 C   0  0  0  0  0  0  0  0  0  0  0  0
  -10.6826   12.8656    2.2168 C   0  0  0  0  0  0  0  0  0  0  0  0
  -11.9082   13.2587    2.6808 N   0  0  0  0  0  0  0  0  0  0  0  0
  -12.2315   14.5524    2.7561 C   0  0  0  0  0  0  0  0  0  0  0  0
  -11.3631   15.4939    2.3757 N   0  0  0  0  0  0  0  0  0  0  0  0
  -10.1271   15.1797    1.9079 C   0  0  0  0  0  0  0  0  0  0  0  0
   -9.7277   13.8420    1.8116 C   0  0  0  0  0  0  0  0  0  0  0  0
  5  4  1  0  0  0  0
  5  6  1  0  0  0  0
  7  8  2  0  0  0  0
  7 11  1  0  0  0  0
  8  9  1  0  0  0  0
  9 10  2  0  0  0  0
  9  6  1  0  0  0  0
 10  3  1  0  0  0  0
 11 12  1  0  0  0  0
 11 10  1  0  0  0  0
 12 18  1  0  0  0  0
 13  2  1  0  0  0  0
 13 14  2  0  0  0  0
 15 14  1  0  0  0  0
 15  1  1  0  0  0  0
 16 15  2  0  0  0  0
 17 18  2  0  0  0  0
 17 16  1  0  0  0  0
 18 13  1  0  0  0  0
M  END
>  <CHROM.1>
179.70102625,-56.88907051,-90.42926277,-166.04827377,-7.88739185,14.75507329
2.02385962,2.89101490,0.05949808,2.69246068

>  <Name>
lig.pdb

>  <RI>
0

>  <Rbt.Current_Directory>
/home/itssahil/PROJECTS/Mol_Feturizer/New_Systems/rnas/4nyg

>  <Rbt.Executable>
rbdock ($Id: //depot/dev/client3/rdock/2013.1/src/exe/rbdock.cxx#4 $)

>  <Rbt.Library>
libRbt.so (2013.1, Build901 2013/11/27)

>  <Rbt.Parameter_File>
/export/apps/rDock/src/rDock_2013.1_src/data/scripts/dock_solv.prm

>  <Rbt.Receptor>
prm/pocket_docking_2.prm

>  <SCORE>
-13.376

>  <SCORE.INTER>
-12.8254

>  <SCORE.INTER.CONST>
1

>  <SCORE.INTER.POLAR>
0

>  <SCORE.INTER.ROT>
4

>  <SCORE.INTER.SOLV>
9.02684

>  <SCORE.INTER.VDW>
-17.8259

>  <SCORE.INTER.norm>
-0.712523

>  <SCORE.INTRA>
-0.55179

>  <SCORE.INTRA.DIHEDRAL>
-0.130059

>  <SCORE.INTRA.DIHEDRAL.0>
3.20029

>  <SCORE.INTRA.POLAR>
0

>  <SCORE.INTRA.POLAR.0>
0

>  <SCORE.INTRA.REPUL>
0

>  <SCORE.INTRA.REPUL.0>
0

>  <SCORE.INTRA.SOLV>
-0.0425479

>  <SCORE.INTRA.SOLV.lig_0>
-19.3885

>  <SCORE.INTRA.VDW>
-0.465486

>  <SCORE.INTRA.VDW.0>
-1.12705

>  <SCORE.INTRA.norm>
-0.030655

>  <SCORE.RESTR>
0.00123369

>  <SCORE.RESTR.CAVITY>
0.00123369

>  <SCORE.RESTR.norm>
6.85382e-05

>  <SCORE.SYSTEM>
0

>  <SCORE.SYSTEM.CONST>
0

>  <SCORE.SYSTEM.DIHEDRAL>
0

>  <SCORE.SYSTEM.SOLV>
0

>  <SCORE.SYSTEM.norm>
0

>  <SCORE.heavy>
18

>  <SCORE.norm>
-0.74311

>  <RMSD>
1.512

$$$$
lig.pdb
 OpenBabel11021811503D
libRbt.so/2013.1/901 2013/11/27
 18 19  0  0  0  0  0  0  0  0999 V2000
  -13.6037   15.0010    3.3598 C   0  0  0  0  0  0  0  0  0  0  0  0
  -10.5984   11.3621    2.2381 N   0  0  0  0  0  0  0  0  0  0  0  0
   -5.9982   13.9095    3.8714 C   0  0  0  0  0  0  0  0  0  0  0  0
   -1.5803   15.8798    2.2349 O   0  0  0  0  0  0  0  0  0  0  0  0
   -2.7934   15.3971    1.6742 C   0  0  0  0  0  0  0  0  0  0  0  0
   -3.9950   15.8736    2.5132 C   0  0  0  0  0  0  0  0  0  0  0  0
   -7.2871   14.4862    0.4047 C   0  0  0  0  0  0  0  0  0  0  0  0
   -5.8971   15.5142    0.2816 S   0  0  0  0  0  0  0  0  0  0  0  0
   -5.2464   15.2674    1.9175 C   0  0  0  0  0  0  0  0  0  0  0  0
   -6.1721   14.4011    2.4441 C   0  0  0  0  0  0  0  0  0  0  0  0
   -7.2130   14.0168    1.6436 N   0  0  0  0  0  0  0  0  0  0  0  0
   -8.2638   13.0542    2.1308 C   0  0  0  0  0  0  0  0  0  0  0  0
  -10.7759   12.7229    2.4871 C   0  0  0  0  0  0  0  0  0  0  0  0
  -12.0230   13.2037    2.7794 N   0  0  0  0  0  0  0  0  0  0  0  0
  -12.2185   14.5021    3.0238 C   0  0  0  0  0  0  0  0  0  0  0  0
  -11.1975   15.3631    2.9849 N   0  0  0  0  0  0  0  0  0  0  0  0
   -9.9314   14.9586    2.7050 C   0  0  0  0  0  0  0  0  0  0  0  0
   -9.6619   13.6100    2.4465 C   0  0  0  0  0  0  0  0  0  0  0  0
  5  4  1  0  0  0  0
  5  6  1  0  0  0  0
  7  8  2  0  0  0  0
  7 11  1  0  0  0  0
  8  9  1  0  0  0  0
  9 10  2  0  0  0  0
  9  6  1  0  0  0  0
 10  3  1  0  0  0  0
 11 12  1  0  0  0  0
 11 10  1  0  0  0  0
 12 18  1  0  0  0  0
 13  2  1  0  0  0  0
 13 14  2  0  0  0  0
 15 14  1  0  0  0  0
 15  1  1  0  0  0  0
 16 15  2  0  0  0  0
 17 18  2  0  0  0  0
 17 16  1  0  0  0  0
 18 13  1  0  0  0  0
M  END
>  <CHROM.1>
-176.83796885,-61.53553375,-73.64040806,159.88651974,-7.80872456,14.46126369
2.15639454,2.93546224,-0.11327267,3.05491931

>  <Name>
lig.pdb

>  <RI>
0

>  <Rbt.Current_Directory>
/home/itssahil/PROJECTS/Mol_Feturizer/New_Systems/rnas/4nyg

>  <Rbt.Executable>
rbdock ($Id: //depot/dev/client3/rdock/2013.1/src/exe/rbdock.cxx#4 $)

>  <Rbt.Library>
libRbt.so (2013.1, Build901 2013/11/27)

>  <Rbt.Parameter_File>
/export/apps/rDock/src/rDock_2013.1_src/data/scripts/dock_solv.prm

>  <Rbt.Receptor>
prm/pocket_docking_2.prm

>  <SCORE>
-13.2647

>  <SCORE.INTER>
-12.7832

>  <SCORE.INTER.CONST>
1

>  <SCORE.INTER.POLAR>
0

>  <SCORE.INTER.ROT>
4

>  <SCORE.INTER.SOLV>
8.93736

>  <SCORE.INTER.VDW>
-17.7679

>  <SCORE.INTER.norm>
-0.71018

>  <SCORE.INTRA>
-0.485203

>  <SCORE.INTRA.DIHEDRAL>
-0.077981

>  <SCORE.INTRA.DIHEDRAL.0>
3.20029

>  <SCORE.INTRA.POLAR>
0

>  <SCORE.INTRA.POLAR.0>
0

>  <SCORE.INTRA.REPUL>
0

>  <SCORE.INTRA.REPUL.0>
0

>  <SCORE.INTRA.SOLV>
-0.0346484

>  <SCORE.INTRA.SOLV.lig_0>
-19.3885

>  <SCORE.INTRA.VDW>
-0.428888

>  <SCORE.INTRA.VDW.0>
-1.12705

>  <SCORE.INTRA.norm>
-0.0269557

>  <SCORE.RESTR>
0.00373797

>  <SCORE.RESTR.CAVITY>
0.00373797

>  <SCORE.RESTR.norm>
0.000207665

>  <SCORE.SYSTEM>
0

>  <SCORE.SYSTEM.CONST>
0

>  <SCORE.SYSTEM.DIHEDRAL>
0

>  <SCORE.SYSTEM.SOLV>
0

>  <SCORE.SYSTEM.norm>
0

>  <SCORE.heavy>
18

>  <SCORE.norm>
-0.736928

>  <RMSD>
1.513

$$$$
lig.pdb
 OpenBabel11021811503D
libRbt.so/2013.1/901 2013/11/27
 18 19  0  0  0  0  0  0  0  0999 V2000
  -13.6075   14.9853    3.3859 C   0  0  0  0  0  0  0  0  0  0  0  0
  -10.5970   11.3529    2.2565 N   0  0  0  0  0  0  0  0  0  0  0  0
   -6.1027   14.0209    3.9395 C   0  0  0  0  0  0  0  0  0  0  0  0
   -1.6570   16.0233    2.4400 O   0  0  0  0  0  0  0  0  0  0  0  0
   -2.8301   15.4674    1.8622 C   0  0  0  0  0  0  0  0  0  0  0  0
   -4.0821   15.9801    2.6002 C   0  0  0  0  0  0  0  0  0  0  0  0
   -7.2448   14.4427    0.3998 C   0  0  0  0  0  0  0  0  0  0  0  0
   -5.8728   15.4970    0.3007 S   0  0  0  0  0  0  0  0  0  0  0  0
   -5.2920   15.3244    1.9721 C   0  0  0  0  0  0  0  0  0  0  0  0
   -6.2221   14.4566    2.4887 C   0  0  0  0  0  0  0  0  0  0  0  0
   -7.2171   14.0200    1.6573 N   0  0  0  0  0  0  0  0  0  0  0  0
   -8.2683   13.0518    2.1324 C   0  0  0  0  0  0  0  0  0  0  0  0
  -10.7774   12.7138    2.5032 C   0  0  0  0  0  0  0  0  0  0  0  0
  -12.0244   13.1914    2.8011 N   0  0  0  0  0  0  0  0  0  0  0  0
  -12.2226   14.4898    3.0435 C   0  0  0  0  0  0  0  0  0  0  0  0
  -11.2044   15.3538    2.9970 N   0  0  0  0  0  0  0  0  0  0  0  0
   -9.9386   14.9525    2.7112 C   0  0  0  0  0  0  0  0  0  0  0  0
   -9.6664   13.6041    2.4544 C   0  0  0  0  0  0  0  0  0  0  0  0
  5  4  1  0  0  0  0
  5  6  1  0  0  0  0
  7  8  2  0  0  0  0
  7 11  1  0  0  0  0
  8  9  1  0  0  0  0
  9 10  2  0  0  0  0
  9  6  1  0  0  0  0
 10  3  1  0  0  0  0
 11 12  1  0  0  0  0
 11 10  1  0  0  0  0
 12 18  1  0  0  0  0
 13  2  1  0  0  0  0
 13 14  2  0  0  0  0
 15 14  1  0  0  0  0
 15  1  1  0  0  0  0
 16 15  2  0  0  0  0
 17 18  2  0  0  0  0
 17 16  1  0  0  0  0
 18 13  1  0  0  0  0
M  END
>  <CHROM.1>
-178.26838760,-63.26604872,-77.63880551,160.80112189,-7.82719231,14.48270321
2.20155974,2.95478212,-0.15256971,-2.98107449

>  <Name>
lig.pdb

>  <RI>
0

>  <Rbt.Current_Directory>
/home/itssahil/PROJECTS/Mol_Feturizer/New_Systems/rnas/4nyg

>  <Rbt.Executable>
rbdock ($Id: //depot/dev/client3/rdock/2013.1/src/exe/rbdock.cxx#4 $)

>  <Rbt.Library>
libRbt.so (2013.1, Build901 2013/11/27)

>  <Rbt.Parameter_File>
/export/apps/rDock/src/rDock_2013.1_src/data/scripts/dock_solv.prm

>  <Rbt.Receptor>
prm/pocket_docking_2.prm

>  <SCORE>
-13.3904

>  <SCORE.INTER>
-12.8658

>  <SCORE.INTER.CONST>
1

>  <SCORE.INTER.POLAR>
0

>  <SCORE.INTER.ROT>
4

>  <SCORE.INTER.SOLV>
9.15632

>  <SCORE.INTER.VDW>
-17.896

>  <SCORE.INTER.norm>
-0.714767

>  <SCORE.INTRA>
-0.532311

>  <SCORE.INTRA.DIHEDRAL>
-0.0976662

>  <SCORE.INTRA.DIHEDRAL.0>
3.20029

>  <SCORE.INTRA.POLAR>
0

>  <SCORE.INTRA.POLAR.0>
0

>  <SCORE.INTRA.REPUL>
0

>  <SCORE.INTRA.REPUL.0>
0

>  <SCORE.INTRA.SOLV>
-0.0325972

>  <SCORE.INTRA.SOLV.lig_0>
-19.3885

>  <SCORE.INTRA.VDW>
-0.46718

>  <SCORE.INTRA.VDW.0>
-1.12705

>  <SCORE.INTRA.norm>
-0.0295729

>  <SCORE.RESTR>
0.00767156

>  <SCORE.RESTR.CAVITY>
0.00767156

>  <SCORE.RESTR.norm>
0.000426198

>  <SCORE.SYSTEM>
0

>  <SCORE.SYSTEM.CONST>
0

>  <SCORE.SYSTEM.DIHEDRAL>
0

>  <SCORE.SYSTEM.SOLV>
0

>  <SCORE.SYSTEM.norm>
0

>  <SCORE.heavy>
18

>  <SCORE.norm>
-0.743914

>  <RMSD>
1.528

$$$$
lig.pdb
 OpenBabel11021811503D
libRbt.so/2013.1/901 2013/11/27
 18 19  0  0  0  0  0  0  0  0999 V2000
  -13.6000   14.6595    3.3951 C   0  0  0  0  0  0  0  0  0  0  0  0
  -10.3177   11.3330    2.0937 N   0  0  0  0  0  0  0  0  0  0  0  0
   -6.1049   14.2519    3.9290 C   0  0  0  0  0  0  0  0  0  0  0  0
   -2.6030   14.9395    1.7546 O   0  0  0  0  0  0  0  0  0  0  0  0
   -2.9630   16.3078    1.8863 C   0  0  0  0  0  0  0  0  0  0  0  0
   -4.2208   16.4456    2.7659 C   0  0  0  0  0  0  0  0  0  0  0  0
   -7.1921   14.7941    0.3885 C   0  0  0  0  0  0  0  0  0  0  0  0
   -5.9096   15.9600    0.3912 S   0  0  0  0  0  0  0  0  0  0  0  0
   -5.3570   15.7336    2.0657 C   0  0  0  0  0  0  0  0  0  0  0  0
   -6.2247   14.7638    2.5034 C   0  0  0  0  0  0  0  0  0  0  0  0
   -7.1600   14.2995    1.6193 N   0  0  0  0  0  0  0  0  0  0  0  0
   -8.1390   13.2225    2.0063 C   0  0  0  0  0  0  0  0  0  0  0  0
  -10.6059   12.6643    2.3938 C   0  0  0  0  0  0  0  0  0  0  0  0
  -11.8834   13.0257    2.7243 N   0  0  0  0  0  0  0  0  0  0  0  0
  -12.1843   14.2934    3.0178 C   0  0  0  0  0  0  0  0  0  0  0  0
  -11.2416   15.2400    2.9919 N   0  0  0  0  0  0  0  0  0  0  0  0
   -9.9514   14.9557    2.6761 C   0  0  0  0  0  0  0  0  0  0  0  0
   -9.5729   13.6448    2.3654 C   0  0  0  0  0  0  0  0  0  0  0  0
  5  4  1  0  0  0  0
  5  6  1  0  0  0  0
  7  8  2  0  0  0  0
  7 11  1  0  0  0  0
  8  9  1  0  0  0  0
  9 10  2  0  0  0  0
  9  6  1  0  0  0  0
 10  3  1  0  0  0  0
 11 12  1  0  0  0  0
 11 10  1  0  0  0  0
 12 18  1  0  0  0  0
 13  2  1  0  0  0  0
 13 14  2  0  0  0  0
 15 14  1  0  0  0  0
 15  1  1  0  0  0  0
 16 15  2  0  0  0  0
 17 18  2  0  0  0  0
 17 16  1  0  0  0  0
 18 13  1  0  0  0  0
M  END
>  <CHROM.1>
-62.53533745,-52.48046278,-79.66662368,163.68386259,-7.86042795,14.58663665
2.15145047,2.88725224,-0.14052662,3.13313232

>  <Name>
lig.pdb

>  <RI>
0

>  <Rbt.Current_Directory>
/home/itssahil/PROJECTS/Mol_Feturizer/New_Systems/rnas/4nyg

>  <Rbt.Executable>
rbdock ($Id: //depot/dev/client3/rdock/2013.1/src/exe/rbdock.cxx#4 $)

>  <Rbt.Library>
libRbt.so (2013.1, Build901 2013/11/27)

>  <Rbt.Parameter_File>
/export/apps/rDock/src/rDock_2013.1_src/data/scripts/dock_solv.prm

>  <Rbt.Receptor>
prm/pocket_docking_2.prm

>  <SCORE>
-12.9495

>  <SCORE.INTER>
-12.5938

>  <SCORE.INTER.CONST>
1

>  <SCORE.INTER.POLAR>
0

>  <SCORE.INTER.ROT>
4

>  <SCORE.INTER.SOLV>
9.07438

>  <SCORE.INTER.VDW>
-17.6873

>  <SCORE.INTER.norm>
-0.699655

>  <SCORE.INTRA>
-0.360402

>  <SCORE.INTRA.DIHEDRAL>
-0.0121487

>  <SCORE.INTRA.DIHEDRAL.0>
3.20029

>  <SCORE.INTRA.POLAR>
0

>  <SCORE.INTRA.POLAR.0>
0

>  <SCORE.INTRA.REPUL>
0

>  <SCORE.INTRA.REPUL.0>
0

>  <SCORE.INTRA.SOLV>
0.448393

>  <SCORE.INTRA.SOLV.lig_0>
-19.3885

>  <SCORE.INTRA.VDW>
-0.578524

>  <SCORE.INTRA.VDW.0>
-1.12705

>  <SCORE.INTRA.norm>
-0.0200224

>  <SCORE.RESTR>
0.00467009

>  <SCORE.RESTR.CAVITY>
0.00467009

>  <SCORE.RESTR.norm>
0.000259449

>  <SCORE.SYSTEM>
0

>  <SCORE.SYSTEM.CONST>
0

>  <SCORE.SYSTEM.DIHEDRAL>
0

>  <SCORE.SYSTEM.SOLV>
0

>  <SCORE.SYSTEM.norm>
0

>  <SCORE.heavy>
18

>  <SCORE.norm>
-0.719418

>  <RMSD>
1.554

$$$$
lig.pdb
 OpenBabel11021811503D
libRbt.so/2013.1/901 2013/11/27
 18 19  0  0  0  0  0  0  0  0999 V2000
  -13.5861   14.9577    3.2989 C   0  0  0  0  0  0  0  0  0  0  0  0
  -10.4117   11.4855    2.1162 N   0  0  0  0  0  0  0  0  0  0  0  0
   -6.5024   13.9975    3.5956 C   0  0  0  0  0  0  0  0  0  0  0  0
   -2.7526   16.0833    1.0944 O   0  0  0  0  0  0  0  0  0  0  0  0
   -3.0012   15.6135    2.4122 C   0  0  0  0  0  0  0  0  0  0  0  0
   -4.3517   16.1512    2.9238 C   0  0  0  0  0  0  0  0  0  0  0  0
   -7.1125   15.0124    0.0447 C   0  0  0  0  0  0  0  0  0  0  0  0
   -5.7667   16.0661    0.3319 S   0  0  0  0  0  0  0  0  0  0  0  0
   -5.4382   15.6129    2.0193 C   0  0  0  0  0  0  0  0  0  0  0  0
   -6.4140   14.6720    2.2369 C   0  0  0  0  0  0  0  0  0  0  0  0
   -7.2630   14.3836    1.2034 N   0  0  0  0  0  0  0  0  0  0  0  0
   -8.3499   13.3509    1.3455 C   0  0  0  0  0  0  0  0  0  0  0  0
  -10.7036   12.8459    2.2129 C   0  0  0  0  0  0  0  0  0  0  0  0
  -11.9286   13.2476    2.6708 N   0  0  0  0  0  0  0  0  0  0  0  0
  -12.2315   14.5443    2.7747 C   0  0  0  0  0  0  0  0  0  0  0  0
  -11.3428   15.4804    2.4295 N   0  0  0  0  0  0  0  0  0  0  0  0
  -10.1060   15.1573    1.9700 C   0  0  0  0  0  0  0  0  0  0  0  0
   -9.7274   13.8160    1.8450 C   0  0  0  0  0  0  0  0  0  0  0  0
  5  4  1  0  0  0  0
  5  6  1  0  0  0  0
  7  8  2  0  0  0  0
  7 11  1  0  0  0  0
  8  9  1  0  0  0  0
  9 10  2  0  0  0  0
  9  6  1  0  0  0  0
 10  3  1  0  0  0  0
 11 12  1  0  0  0  0
 11 10  1  0  0  0  0
 12 18  1  0  0  0  0
 13  2  1  0  0  0  0
 13 14  2  0  0  0  0
 15 14  1  0  0  0  0
 15  1  1  0  0  0  0
 16 15  2  0  0  0  0
 17 18  2  0  0  0  0
 17 16  1  0  0  0  0
 18 13  1  0  0  0  0
M  END
>  <CHROM.1>
62.14341855,-70.55958492,-90.89244599,-169.12822387,-7.94253519,14.70195047
1.91697803,2.87723265,-0.06865003,2.89243465

>  <Name>
lig.pdb

>  <RI>
0

>  <Rbt.Current_Directory>
/home/itssahil/PROJECTS/Mol_Feturizer/New_Systems/rnas/4nyg

>  <Rbt.Executable>
rbdock ($Id: //depot/dev/client3/rdock/2013.1/src/exe/rbdock.cxx#4 $)

>  <Rbt.Library>
libRbt.so (2013.1, Build901 2013/11/27)

>  <Rbt.Parameter_File>
/export/apps/rDock/src/rDock_2013.1_src/data/scripts/dock_solv.prm

>  <Rbt.Receptor>
prm/pocket_docking_2.prm

>  <SCORE>
-13.369

>  <SCORE.INTER>
-12.9369

>  <SCORE.INTER.CONST>
1

>  <SCORE.INTER.POLAR>
0

>  <SCORE.INTER.ROT>
4

>  <SCORE.INTER.SOLV>
9.11437

>  <SCORE.INTER.VDW>
-17.9294

>  <SCORE.INTER.norm>
-0.718716

>  <SCORE.INTRA>
-0.434621

>  <SCORE.INTRA.DIHEDRAL>
0.0780532

>  <SCORE.INTRA.DIHEDRAL.0>
3.20029

>  <SCORE.INTRA.POLAR>
0

>  <SCORE.INTRA.POLAR.0>
0

>  <SCORE.INTRA.REPUL>
0

>  <SCORE.INTRA.REPUL.0>
0

>  <SCORE.INTRA.SOLV>
0.404797

>  <SCORE.INTRA.SOLV.lig_0>
-19.3885

>  <SCORE.INTRA.VDW>
-0.676046

>  <SCORE.INTRA.VDW.0>
-1.12705

>  <SCORE.INTRA.norm>
-0.0241456

>  <SCORE.RESTR>
0.00249097

>  <SCORE.RESTR.CAVITY>
0.00249097

>  <SCORE.RESTR.norm>
0.000138387

>  <SCORE.SYSTEM>
0

>  <SCORE.SYSTEM.CONST>
0

>  <SCORE.SYSTEM.DIHEDRAL>
0

>  <SCORE.SYSTEM.SOLV>
0

>  <SCORE.SYSTEM.norm>
0

>  <SCORE.heavy>
18

>  <SCORE.norm>
-0.742723

>  <RMSD>
1.600

$$$$
lig.pdb
 OpenBabel11021811503D
libRbt.so/2013.1/901 2013/11/27
 18 19  0  0  0  0  0  0  0  0999 V2000
  -13.6039   15.2113    3.2996 C   0  0  0  0  0  0  0  0  0  0  0  0
  -10.3221   11.8003    2.2381 N   0  0  0  0  0  0  0  0  0  0  0  0
   -6.3973   14.0604    3.5103 C   0  0  0  0  0  0  0  0  0  0  0  0
   -2.9034   14.5030    2.0065 O   0  0  0  0  0  0  0  0  0  0  0  0
   -2.9341   15.8944    2.2929 C   0  0  0  0  0  0  0  0  0  0  0  0
   -4.2575   16.2661    2.9895 C   0  0  0  0  0  0  0  0  0  0  0  0
   -7.1691   15.4906    0.1383 C   0  0  0  0  0  0  0  0  0  0  0  0
   -5.7988   16.4954    0.4797 S   0  0  0  0  0  0  0  0  0  0  0  0
   -5.3931   15.8444    2.0835 C   0  0  0  0  0  0  0  0  0  0  0  0
   -6.3679   14.8900    2.2376 C   0  0  0  0  0  0  0  0  0  0  0  0
   -7.2698   14.7303    1.2211 N   0  0  0  0  0  0  0  0  0  0  0  0
   -8.3602   13.6942    1.2951 C   0  0  0  0  0  0  0  0  0  0  0  0
  -10.6670   13.1515    2.2603 C   0  0  0  0  0  0  0  0  0  0  0  0
  -11.8949   13.5323    2.7285 N   0  0  0  0  0  0  0  0  0  0  0  0
  -12.2480   14.8199    2.7621 C   0  0  0  0  0  0  0  0  0  0  0  0
  -11.4081   15.7672    2.3346 N   0  0  0  0  0  0  0  0  0  0  0  0
  -10.1718   15.4652    1.8596 C   0  0  0  0  0  0  0  0  0  0  0  0
   -9.7418   14.1347    1.8054 C   0  0  0  0  0  0  0  0  0  0  0  0
  5  4  1  0  0  0  0
  5  6  1  0  0  0  0
  7  8  2  0  0  0  0
  7 11  1  0  0  0  0
  8  9  1  0  0  0  0
  9 10  2  0  0  0  0
  9  6  1  0  0  0  0
 10  3  1  0  0  0  0
 11 12  1  0  0  0  0
 11 10  1  0  0  0  0
 12 18  1  0  0  0  0
 13  2  1  0  0  0  0
 13 14  2  0  0  0  0
 15 14  1  0  0  0  0
 15  1  1  0  0  0  0
 16 15  2  0  0  0  0
 17 18  2  0  0  0  0
 17 16  1  0  0  0  0
 18 13  1  0  0  0  0
M  END
>  <CHROM.1>
-57.21549896,-65.70272563,-85.90333870,-161.67886420,-7.94147848,14.88230798
1.98764955,2.94037062,-0.02380627,2.76084624

>  <Name>
lig.pdb

>  <RI>
0

>  <Rbt.Current_Directory>
/home/itssahil/PROJECTS/Mol_Feturizer/New_Systems/rnas/4nyg

>  <Rbt.Executable>
rbdock ($Id: //depot/dev/client3/rdock/2013.1/src/exe/rbdock.cxx#4 $)

>  <Rbt.Library>
libRbt.so (2013.1, Build901 2013/11/27)

>  <Rbt.Parameter_File>
/export/apps/rDock/src/rDock_2013.1_src/data/scripts/dock_solv.prm

>  <Rbt.Receptor>
prm/pocket_docking_2.prm

>  <SCORE>
-12.7454

>  <SCORE.INTER>
-12.3734

>  <SCORE.INTER.CONST>
1

>  <SCORE.INTER.POLAR>
0

>  <SCORE.INTER.ROT>
4

>  <SCORE.INTER.SOLV>
8.49466

>  <SCORE.INTER.VDW>
-17.3472

>  <SCORE.INTER.norm>
-0.687412

>  <SCORE.INTRA>
-0.433627

>  <SCORE.INTRA.DIHEDRAL>
-0.0521126

>  <SCORE.INTRA.DIHEDRAL.0>
3.20029

>  <SCORE.INTRA.POLAR>
0

>  <SCORE.INTRA.POLAR.0>
0

>  <SCORE.INTRA.REPUL>
0

>  <SCORE.INTRA.REPUL.0>
0

>  <SCORE.INTRA.SOLV>
0.527641

>  <SCORE.INTRA.SOLV.lig_0>
-19.3885

>  <SCORE.INTRA.VDW>
-0.671391

>  <SCORE.INTRA.VDW.0>
-1.12705

>  <SCORE.INTRA.norm>
-0.0240904

>  <SCORE.RESTR>
0.061613

>  <SCORE.RESTR.CAVITY>
0.061613

>  <SCORE.RESTR.norm>
0.00342295

>  <SCORE.SYSTEM>
0

>  <SCORE.SYSTEM.CONST>
0

>  <SCORE.SYSTEM.DIHEDRAL>
0

>  <SCORE.SYSTEM.SOLV>
0

>  <SCORE.SYSTEM.norm>
0

>  <SCORE.heavy>
18

>  <SCORE.norm>
-0.70808

>  <RMSD>
1.607

$$$$
lig.pdb
 OpenBabel11021811503D
libRbt.so/2013.1/901 2013/11/27
 18 19  0  0  0  0  0  0  0  0999 V2000
  -13.5843   14.9680    3.2530 C   0  0  0  0  0  0  0  0  0  0  0  0
  -10.3737   11.4974    2.1671 N   0  0  0  0  0  0  0  0  0  0  0  0
   -6.5428   13.9966    3.5603 C   0  0  0  0  0  0  0  0  0  0  0  0
   -2.7265   15.9126    1.1530 O   0  0  0  0  0  0  0  0  0  0  0  0
   -3.0282   15.5318    2.4883 C   0  0  0  0  0  0  0  0  0  0  0  0
   -4.3735   16.1430    2.9257 C   0  0  0  0  0  0  0  0  0  0  0  0
   -7.0917   15.0176    0.0011 C   0  0  0  0  0  0  0  0  0  0  0  0
   -5.7468   16.0659    0.3112 S   0  0  0  0  0  0  0  0  0  0  0  0
   -5.4472   15.6097    2.0032 C   0  0  0  0  0  0  0  0  0  0  0  0
   -6.4300   14.6722    2.2039 C   0  0  0  0  0  0  0  0  0  0  0  0
   -7.2632   14.3881    1.1565 N   0  0  0  0  0  0  0  0  0  0  0  0
   -8.3560   13.3593    1.2799 C   0  0  0  0  0  0  0  0  0  0  0  0
  -10.6862   12.8560    2.2096 C   0  0  0  0  0  0  0  0  0  0  0  0
  -11.9098   13.2582    2.6709 N   0  0  0  0  0  0  0  0  0  0  0  0
  -12.2322   14.5533    2.7236 C   0  0  0  0  0  0  0  0  0  0  0  0
  -11.3648   15.4872    2.3225 N   0  0  0  0  0  0  0  0  0  0  0  0
  -10.1308   15.1636    1.8559 C   0  0  0  0  0  0  0  0  0  0  0  0
   -9.7324   13.8242    1.7827 C   0  0  0  0  0  0  0  0  0  0  0  0
  5  4  1  0  0  0  0
  5  6  1  0  0  0  0
  7  8  2  0  0  0  0
  7 11  1  0  0  0  0
  8  9  1  0  0  0  0
  9 10  2  0  0  0  0
  9  6  1  0  0  0  0
 10  3  1  0  0  0  0
 11 12  1  0  0  0  0
 11 10  1  0  0  0  0
 12 18  1  0  0  0  0
 13  2  1  0  0  0  0
 13 14  2  0  0  0  0
 15 14  1  0  0  0  0
 15  1  1  0  0  0  0
 16 15  2  0  0  0  0
 17 18  2  0  0  0  0
 17 16  1  0  0  0  0
 18 13  1  0  0  0  0
M  END
>  <CHROM.1>
60.92418815,-73.98427424,-92.01569721,-165.35527672,-7.94262571,14.69117779
1.89312501,2.88271634,-0.03929807,2.79481633

>  <Name>
lig.pdb

>  <RI>
0

>  <Rbt.Current_Directory>
/home/itssahil/PROJECTS/Mol_Feturizer/New_Systems/rnas/4nyg

>  <Rbt.Executable>
rbdock ($Id: //depot/dev/client3/rdock/2013.1/src/exe/rbdock.cxx#4 $)

>  <Rbt.Library>
libRbt.so (2013.1, Build901 2013/11/27)

>  <Rbt.Parameter_File>
/export/apps/rDock/src/rDock_2013.1_src/data/scripts/dock_solv.prm

>  <Rbt.Receptor>
prm/pocket_docking_2.prm

>  <SCORE>
-13.2934

>  <SCORE.INTER>
-12.9008

>  <SCORE.INTER.CONST>
1

>  <SCORE.INTER.POLAR>
0

>  <SCORE.INTER.ROT>
4

>  <SCORE.INTER.SOLV>
9.16945

>  <SCORE.INTER.VDW>
-17.9237

>  <SCORE.INTER.norm>
-0.71671

>  <SCORE.INTRA>
-0.395417

>  <SCORE.INTRA.DIHEDRAL>
0.210132

>  <SCORE.INTRA.DIHEDRAL.0>
3.20029

>  <SCORE.INTRA.POLAR>
0

>  <SCORE.INTRA.POLAR.0>
0

>  <SCORE.INTRA.REPUL>
0

>  <SCORE.INTRA.REPUL.0>
0

>  <SCORE.INTRA.SOLV>
0.40725

>  <SCORE.INTRA.SOLV.lig_0>
-19.3885

>  <SCORE.INTRA.VDW>
-0.704109

>  <SCORE.INTRA.VDW.0>
-1.12705

>  <SCORE.INTRA.norm>
-0.0219676

>  <SCORE.RESTR>
0.00278684

>  <SCORE.RESTR.CAVITY>
0.00278684

>  <SCORE.RESTR.norm>
0.000154825

>  <SCORE.SYSTEM>
0

>  <SCORE.SYSTEM.CONST>
0

>  <SCORE.SYSTEM.DIHEDRAL>
0

>  <SCORE.SYSTEM.SOLV>
0

>  <SCORE.SYSTEM.norm>
0

>  <SCORE.heavy>
18

>  <SCORE.norm>
-0.738523

>  <RMSD>
1.614

$$$$
lig.pdb
 OpenBabel11021811503D
libRbt.so/2013.1/901 2013/11/27
 18 19  0  0  0  0  0  0  0  0999 V2000
  -13.5546   14.9303    3.3609 C   0  0  0  0  0  0  0  0  0  0  0  0
  -10.3616   11.4885    2.1396 N   0  0  0  0  0  0  0  0  0  0  0  0
   -6.5351   13.9918    3.5547 C   0  0  0  0  0  0  0  0  0  0  0  0
   -2.7063   14.8822    1.7000 O   0  0  0  0  0  0  0  0  0  0  0  0
   -3.0498   16.1871    2.1455 C   0  0  0  0  0  0  0  0  0  0  0  0
   -4.3734   16.1498    2.9338 C   0  0  0  0  0  0  0  0  0  0  0  0
   -7.0992   15.0466    0.0078 C   0  0  0  0  0  0  0  0  0  0  0  0
   -5.7558   16.0952    0.3235 S   0  0  0  0  0  0  0  0  0  0  0  0
   -5.4491   15.6229    2.0098 C   0  0  0  0  0  0  0  0  0  0  0  0
   -6.4288   14.6811    2.2047 C   0  0  0  0  0  0  0  0  0  0  0  0
   -7.2650   14.4053    1.1575 N   0  0  0  0  0  0  0  0  0  0  0  0
   -8.3549   13.3726    1.2746 C   0  0  0  0  0  0  0  0  0  0  0  0
  -10.6725   12.8457    2.2224 C   0  0  0  0  0  0  0  0  0  0  0  0
  -11.8894   13.2359    2.7109 N   0  0  0  0  0  0  0  0  0  0  0  0
  -12.2101   14.5293    2.8022 C   0  0  0  0  0  0  0  0  0  0  0  0
  -11.3476   15.4731    2.4142 N   0  0  0  0  0  0  0  0  0  0  0  0
  -10.1203   15.1617    1.9223 C   0  0  0  0  0  0  0  0  0  0  0  0
   -9.7240   13.8245    1.8083 C   0  0  0  0  0  0  0  0  0  0  0  0
  5  4  1  0  0  0  0
  5  6  1  0  0  0  0
  7  8  2  0  0  0  0
  7 11  1  0  0  0  0
  8  9  1  0  0  0  0
  9 10  2  0  0  0  0
  9  6  1  0  0  0  0
 10  3  1  0  0  0  0
 11 12  1  0  0  0  0
 11 10  1  0  0  0  0
 12 18  1  0  0  0  0
 13  2  1  0  0  0  0
 13 14  2  0  0  0  0
 15 14  1  0  0  0  0
 15  1  1  0  0  0  0
 16 15  2  0  0  0  0
 17 18  2  0  0  0  0
 17 16  1  0  0  0  0
 18 13  1  0  0  0  0
M  END
>  <CHROM.1>
-60.07571321,-45.33651813,-92.98639977,-165.63436693,-7.93673756,14.66487943
1.93060566,2.90220262,-0.07864656,2.94399085

>  <Name>
lig.pdb

>  <RI>
0

>  <Rbt.Current_Directory>
/home/itssahil/PROJECTS/Mol_Feturizer/New_Systems/rnas/4nyg

>  <Rbt.Executable>
rbdock ($Id: //depot/dev/client3/rdock/2013.1/src/exe/rbdock.cxx#4 $)

>  <Rbt.Library>
libRbt.so (2013.1, Build901 2013/11/27)

>  <Rbt.Parameter_File>
/export/apps/rDock/src/rDock_2013.1_src/data/scripts/dock_solv.prm

>  <Rbt.Receptor>
prm/pocket_docking_2.prm

>  <SCORE>
-13.0366

>  <SCORE.INTER>
-12.848

>  <SCORE.INTER.CONST>
1

>  <SCORE.INTER.POLAR>
0

>  <SCORE.INTER.ROT>
4

>  <SCORE.INTER.SOLV>
9.14274

>  <SCORE.INTER.VDW>
-17.8796

>  <SCORE.INTER.norm>
-0.713778

>  <SCORE.INTRA>
-0.188563

>  <SCORE.INTRA.DIHEDRAL>
0.223528

>  <SCORE.INTRA.DIHEDRAL.0>
3.20029

>  <SCORE.INTRA.POLAR>
0

>  <SCORE.INTRA.POLAR.0>
0

>  <SCORE.INTRA.REPUL>
0

>  <SCORE.INTRA.REPUL.0>
0

>  <SCORE.INTRA.SOLV>
0.433558

>  <SCORE.INTRA.SOLV.lig_0>
-19.3885

>  <SCORE.INTRA.VDW>
-0.517106

>  <SCORE.INTRA.VDW.0>
-1.12705

>  <SCORE.INTRA.norm>
-0.0104757

>  <SCORE.RESTR>
0

>  <SCORE.RESTR.CAVITY>
0

>  <SCORE.RESTR.norm>
0

>  <SCORE.SYSTEM>
0

>  <SCORE.SYSTEM.CONST>
0

>  <SCORE.SYSTEM.DIHEDRAL>
0

>  <SCORE.SYSTEM.SOLV>
0

>  <SCORE.SYSTEM.norm>
0

>  <SCORE.heavy>
18

>  <SCORE.norm>
-0.724254

>  <RMSD>
1.627

$$$$
lig.pdb
 OpenBabel11021811503D
libRbt.so/2013.1/901 2013/11/27
 18 19  0  0  0  0  0  0  0  0999 V2000
  -13.6147   14.5927    3.3665 C   0  0  0  0  0  0  0  0  0  0  0  0
  -10.5817   11.0665    1.9881 N   0  0  0  0  0  0  0  0  0  0  0  0
   -5.7956   13.4369    3.6699 C   0  0  0  0  0  0  0  0  0  0  0  0
   -1.5102   15.4116    1.7714 O   0  0  0  0  0  0  0  0  0  0  0  0
   -2.7801   14.9651    1.3163 C   0  0  0  0  0  0  0  0  0  0  0  0
   -3.8903   15.4626    2.2623 C   0  0  0  0  0  0  0  0  0  0  0  0
   -7.4088   14.2925    0.4023 C   0  0  0  0  0  0  0  0  0  0  0  0
   -6.0133   15.3031    0.2142 S   0  0  0  0  0  0  0  0  0  0  0  0
   -5.2092   14.9239    1.7537 C   0  0  0  0  0  0  0  0  0  0  0  0
   -6.0988   14.0365    2.3070 C   0  0  0  0  0  0  0  0  0  0  0  0
   -7.2232   13.7308    1.5900 N   0  0  0  0  0  0  0  0  0  0  0  0
   -8.2434   12.7525    2.1097 C   0  0  0  0  0  0  0  0  0  0  0  0
  -10.7651   12.3980    2.3610 C   0  0  0  0  0  0  0  0  0  0  0  0
  -12.0196   12.8532    2.6622 N   0  0  0  0  0  0  0  0  0  0  0  0
  -12.2209   14.1231    3.0239 C   0  0  0  0  0  0  0  0  0  0  0  0
  -11.1984   14.9801    3.0967 N   0  0  0  0  0  0  0  0  0  0  0  0
   -9.9250   14.5995    2.8156 C   0  0  0  0  0  0  0  0  0  0  0  0
   -9.6496   13.2808    2.4371 C   0  0  0  0  0  0  0  0  0  0  0  0
  5  4  1  0  0  0  0
  5  6  1  0  0  0  0
  7  8  2  0  0  0  0
  7 11  1  0  0  0  0
  8  9  1  0  0  0  0
  9 10  2  0  0  0  0
  9  6  1  0  0  0  0
 10  3  1  0  0  0  0
 11 12  1  0  0  0  0
 11 10  1  0  0  0  0
 12 18  1  0  0  0  0
 13  2  1  0  0  0  0
 13 14  2  0  0  0  0
 15 14  1  0  0  0  0
 15  1  1  0  0  0  0
 16 15  2  0  0  0  0
 17 18  2  0  0  0  0
 17 16  1  0  0  0  0
 18 13  1  0  0  0  0
M  END
>  <CHROM.1>
-178.30731428,-64.58461901,-66.03839812,152.77538596,-7.79951579,14.11784530
2.04393832,2.92849423,-0.12008330,2.96281856

>  <Name>
lig.pdb

>  <RI>
0

>  <Rbt.Current_Directory>
/home/itssahil/PROJECTS/Mol_Feturizer/New_Systems/rnas/4nyg

>  <Rbt.Executable>
rbdock ($Id: //depot/dev/client3/rdock/2013.1/src/exe/rbdock.cxx#4 $)

>  <Rbt.Library>
libRbt.so (2013.1, Build901 2013/11/27)

>  <Rbt.Parameter_File>
/export/apps/rDock/src/rDock_2013.1_src/data/scripts/dock_solv.prm

>  <Rbt.Receptor>
prm/pocket_docking_2.prm

>  <SCORE>
-13.1772

>  <SCORE.INTER>
-12.7416

>  <SCORE.INTER.CONST>
1

>  <SCORE.INTER.POLAR>
0

>  <SCORE.INTER.ROT>
4

>  <SCORE.INTER.SOLV>
9.24293

>  <SCORE.INTER.VDW>
-17.842

>  <SCORE.INTER.norm>
-0.707867

>  <SCORE.INTRA>
-0.450274

>  <SCORE.INTRA.DIHEDRAL>
-0.0457654

>  <SCORE.INTRA.DIHEDRAL.0>
3.20029

>  <SCORE.INTRA.POLAR>
0

>  <SCORE.INTRA.POLAR.0>
0

>  <SCORE.INTRA.REPUL>
0

>  <SCORE.INTRA.REPUL.0>
0

>  <SCORE.INTRA.SOLV>
-0.0402818

>  <SCORE.INTRA.SOLV.lig_0>
-19.3885

>  <SCORE.INTRA.VDW>
-0.40725

>  <SCORE.INTRA.VDW.0>
-1.12705

>  <SCORE.INTRA.norm>
-0.0250152

>  <SCORE.RESTR>
0.0146935

>  <SCORE.RESTR.CAVITY>
0.0146935

>  <SCORE.RESTR.norm>
0.000816306

>  <SCORE.SYSTEM>
0

>  <SCORE.SYSTEM.CONST>
0

>  <SCORE.SYSTEM.DIHEDRAL>
0

>  <SCORE.SYSTEM.SOLV>
0

>  <SCORE.SYSTEM.norm>
0

>  <SCORE.heavy>
18

>  <SCORE.norm>
-0.732066

>  <RMSD>
1.699

$$$$
lig.pdb
 OpenBabel11021811503D
libRbt.so/2013.1/901 2013/11/27
 18 19  0  0  0  0  0  0  0  0999 V2000
  -13.6076   14.8175    3.2734 C   0  0  0  0  0  0  0  0  0  0  0  0
  -10.5984   11.1632    2.2137 N   0  0  0  0  0  0  0  0  0  0  0  0
   -5.6731   13.1050    3.3264 C   0  0  0  0  0  0  0  0  0  0  0  0
   -2.4303   17.0353    3.0008 O   0  0  0  0  0  0  0  0  0  0  0  0
   -3.7293   16.6519    2.5711 C   0  0  0  0  0  0  0  0  0  0  0  0
   -3.7192   15.1905    2.0821 C   0  0  0  0  0  0  0  0  0  0  0  0
   -7.4723   14.6144    0.4115 C   0  0  0  0  0  0  0  0  0  0  0  0
   -6.0127   15.5354    0.2522 S   0  0  0  0  0  0  0  0  0  0  0  0
   -5.1191   14.8445    1.6251 C   0  0  0  0  0  0  0  0  0  0  0  0
   -6.0349   13.9457    2.1134 C   0  0  0  0  0  0  0  0  0  0  0  0
   -7.2385   13.8491    1.4700 N   0  0  0  0  0  0  0  0  0  0  0  0
   -8.2949   12.8762    1.9235 C   0  0  0  0  0  0  0  0  0  0  0  0
  -10.7852   12.5327    2.4005 C   0  0  0  0  0  0  0  0  0  0  0  0
  -12.0262   13.0125    2.7197 N   0  0  0  0  0  0  0  0  0  0  0  0
  -12.2303   14.3192    2.9058 C   0  0  0  0  0  0  0  0  0  0  0  0
  -11.2243   15.1896    2.7808 N   0  0  0  0  0  0  0  0  0  0  0  0
   -9.9649   14.7869    2.4693 C   0  0  0  0  0  0  0  0  0  0  0  0
   -9.6869   13.4302    2.2685 C   0  0  0  0  0  0  0  0  0  0  0  0
  5  4  1  0  0  0  0
  5  6  1  0  0  0  0
  7  8  2  0  0  0  0
  7 11  1  0  0  0  0
  8  9  1  0  0  0  0
  9 10  2  0  0  0  0
  9  6  1  0  0  0  0
 10  3  1  0  0  0  0
 11 12  1  0  0  0  0
 11 10  1  0  0  0  0
 12 18  1  0  0  0  0
 13  2  1  0  0  0  0
 13 14  2  0  0  0  0
 15 14  1  0  0  0  0
 15  1  1  0  0  0  0
 16 15  2  0  0  0  0
 17 18  2  0  0  0  0
 17 16  1  0  0  0  0
 18 13  1  0  0  0  0
M  END
>  <CHROM.1>
-179.39241274,65.43408222,-57.09759437,165.65229157,-7.89707475,14.39202464
2.09510620,2.88161469,-0.11659144,-3.05077366

>  <Name>
lig.pdb

>  <RI>
0

>  <Rbt.Current_Directory>
/home/itssahil/PROJECTS/Mol_Feturizer/New_Systems/rnas/4nyg

>  <Rbt.Executable>
rbdock ($Id: //depot/dev/client3/rdock/2013.1/src/exe/rbdock.cxx#4 $)

>  <Rbt.Library>
libRbt.so (2013.1, Build901 2013/11/27)

>  <Rbt.Parameter_File>
/export/apps/rDock/src/rDock_2013.1_src/data/scripts/dock_solv.prm

>  <Rbt.Receptor>
prm/pocket_docking_2.prm

>  <SCORE>
-13.2265

>  <SCORE.INTER>
-12.9891

>  <SCORE.INTER.CONST>
1

>  <SCORE.INTER.POLAR>
0

>  <SCORE.INTER.ROT>
4

>  <SCORE.INTER.SOLV>
9.10134

>  <SCORE.INTER.VDW>
-17.9599

>  <SCORE.INTER.norm>
-0.721619

>  <SCORE.INTRA>
-0.245721

>  <SCORE.INTRA.DIHEDRAL>
-0.0158038

>  <SCORE.INTRA.DIHEDRAL.0>
3.20029

>  <SCORE.INTRA.POLAR>
0

>  <SCORE.INTRA.POLAR.0>
0

>  <SCORE.INTRA.REPUL>
0

>  <SCORE.INTRA.REPUL.0>
0

>  <SCORE.INTRA.SOLV>
-0.0181755

>  <SCORE.INTRA.SOLV.lig_0>
-19.3885

>  <SCORE.INTRA.VDW>
-0.228731

>  <SCORE.INTRA.VDW.0>
-1.12705

>  <SCORE.INTRA.norm>
-0.0136512

>  <SCORE.RESTR>
0.00832407

>  <SCORE.RESTR.CAVITY>
0.00832407

>  <SCORE.RESTR.norm>
0.000462448

>  <SCORE.SYSTEM>
0

>  <SCORE.SYSTEM.CONST>
0

>  <SCORE.SYSTEM.DIHEDRAL>
0

>  <SCORE.SYSTEM.SOLV>
0

>  <SCORE.SYSTEM.norm>
0

>  <SCORE.heavy>
18

>  <SCORE.norm>
-0.734808

>  <RMSD>
1.705

$$$$
lig.pdb
 OpenBabel11021811503D
libRbt.so/2013.1/901 2013/11/27
 18 19  0  0  0  0  0  0  0  0999 V2000
  -13.6010   14.5993    3.3584 C   0  0  0  0  0  0  0  0  0  0  0  0
  -10.5919   11.0447    2.0010 N   0  0  0  0  0  0  0  0  0  0  0  0
   -5.6628   13.0870    3.3710 C   0  0  0  0  0  0  0  0  0  0  0  0
   -2.5374   17.0848    3.0131 O   0  0  0  0  0  0  0  0  0  0  0  0
   -3.8288   16.6421    2.6189 C   0  0  0  0  0  0  0  0  0  0  0  0
   -3.7582   15.1962    2.0907 C   0  0  0  0  0  0  0  0  0  0  0  0
   -7.4823   14.4782    0.4103 C   0  0  0  0  0  0  0  0  0  0  0  0
   -6.0475   15.4351    0.2388 S   0  0  0  0  0  0  0  0  0  0  0  0
   -5.1449   14.8012    1.6331 C   0  0  0  0  0  0  0  0  0  0  0  0
   -6.0391   13.8890    2.1364 C   0  0  0  0  0  0  0  0  0  0  0  0
   -7.2351   13.7444    1.4879 N   0  0  0  0  0  0  0  0  0  0  0  0
   -8.2675   12.7536    1.9573 C   0  0  0  0  0  0  0  0  0  0  0  0
  -10.7731   12.3888    2.3266 C   0  0  0  0  0  0  0  0  0  0  0  0
  -12.0188   12.8456    2.6604 N   0  0  0  0  0  0  0  0  0  0  0  0
  -12.2178   14.1275    2.9781 C   0  0  0  0  0  0  0  0  0  0  0  0
  -11.2017   14.9953    2.9737 N   0  0  0  0  0  0  0  0  0  0  0  0
   -9.9372   14.6140    2.6561 C   0  0  0  0  0  0  0  0  0  0  0  0
   -9.6643   13.2832    2.3206 C   0  0  0  0  0  0  0  0  0  0  0  0
  5  4  1  0  0  0  0
  5  6  1  0  0  0  0
  7  8  2  0  0  0  0
  7 11  1  0  0  0  0
  8  9  1  0  0  0  0
  9 10  2  0  0  0  0
  9  6  1  0  0  0  0
 10  3  1  0  0  0  0
 11 12  1  0  0  0  0
 11 10  1  0  0  0  0
 12 18  1  0  0  0  0
 13  2  1  0  0  0  0
 13 14  2  0  0  0  0
 15 14  1  0  0  0  0
 15  1  1  0  0  0  0
 16 15  2  0  0  0  0
 17 18  2  0  0  0  0
 17 16  1  0  0  0  0
 18 13  1  0  0  0  0
M  END
>  <CHROM.1>
-177.63025175,68.54927686,-58.88876079,158.85712953,-7.90902710,14.28926005
2.11613660,2.88134244,-0.16336784,-2.89571998

>  <Name>
lig.pdb

>  <RI>
0

>  <Rbt.Current_Directory>
/home/itssahil/PROJECTS/Mol_Feturizer/New_Systems/rnas/4nyg

>  <Rbt.Executable>
rbdock ($Id: //depot/dev/client3/rdock/2013.1/src/exe/rbdock.cxx#4 $)

>  <Rbt.Library>
libRbt.so (2013.1, Build901 2013/11/27)

>  <Rbt.Parameter_File>
/export/apps/rDock/src/rDock_2013.1_src/data/scripts/dock_solv.prm

>  <Rbt.Receptor>
prm/pocket_docking_2.prm

>  <SCORE>
-13.4789

>  <SCORE.INTER>
-13.1783

>  <SCORE.INTER.CONST>
1

>  <SCORE.INTER.POLAR>
0

>  <SCORE.INTER.ROT>
4

>  <SCORE.INTER.SOLV>
9.50927

>  <SCORE.INTER.VDW>
-18.222

>  <SCORE.INTER.norm>
-0.73213

>  <SCORE.INTRA>
-0.301565

>  <SCORE.INTRA.DIHEDRAL>
0.0747698

>  <SCORE.INTRA.DIHEDRAL.0>
3.20029

>  <SCORE.INTRA.POLAR>
0

>  <SCORE.INTRA.POLAR.0>
0

>  <SCORE.INTRA.REPUL>
0

>  <SCORE.INTRA.REPUL.0>
0

>  <SCORE.INTRA.SOLV>
-0.0364022

>  <SCORE.INTRA.SOLV.lig_0>
-19.3885

>  <SCORE.INTRA.VDW>
-0.320749

>  <SCORE.INTRA.VDW.0>
-1.12705

>  <SCORE.INTRA.norm>
-0.0167536

>  <SCORE.RESTR>
0.00104406

>  <SCORE.RESTR.CAVITY>
0.00104406

>  <SCORE.RESTR.norm>
5.80036e-05

>  <SCORE.SYSTEM>
0

>  <SCORE.SYSTEM.CONST>
0

>  <SCORE.SYSTEM.DIHEDRAL>
0

>  <SCORE.SYSTEM.SOLV>
0

>  <SCORE.SYSTEM.norm>
0

>  <SCORE.heavy>
18

>  <SCORE.norm>
-0.748825

>  <RMSD>
1.783

$$$$
lig.pdb
 OpenBabel11021811503D
libRbt.so/2013.1/901 2013/11/27
 18 19  0  0  0  0  0  0  0  0999 V2000
  -13.6145   14.5677    3.3600 C   0  0  0  0  0  0  0  0  0  0  0  0
  -10.5966   11.0145    2.0186 N   0  0  0  0  0  0  0  0  0  0  0  0
   -5.6257   13.0864    3.4415 C   0  0  0  0  0  0  0  0  0  0  0  0
   -2.5077   17.0715    2.8631 O   0  0  0  0  0  0  0  0  0  0  0  0
   -3.7825   16.6447    2.4029 C   0  0  0  0  0  0  0  0  0  0  0  0
   -3.7464   15.1456    2.0476 C   0  0  0  0  0  0  0  0  0  0  0  0
   -7.5004   14.3650    0.4646 C   0  0  0  0  0  0  0  0  0  0  0  0
   -6.0696   15.3147    0.2306 S   0  0  0  0  0  0  0  0  0  0  0  0
   -5.1410   14.7337    1.6309 C   0  0  0  0  0  0  0  0  0  0  0  0
   -6.0252   13.8413    2.1847 C   0  0  0  0  0  0  0  0  0  0  0  0
   -7.2329   13.6724    1.5643 N   0  0  0  0  0  0  0  0  0  0  0  0
   -8.2559   12.7001    2.0897 C   0  0  0  0  0  0  0  0  0  0  0  0
  -10.7755   12.3526    2.3692 C   0  0  0  0  0  0  0  0  0  0  0  0
  -12.0270   12.8144    2.6731 N   0  0  0  0  0  0  0  0  0  0  0  0
  -12.2241   14.0907    3.0138 C   0  0  0  0  0  0  0  0  0  0  0  0
  -11.2003   14.9479    3.0624 N   0  0  0  0  0  0  0  0  0  0  0  0
   -9.9298   14.5610    2.7771 C   0  0  0  0  0  0  0  0  0  0  0  0
   -9.6587   13.2355    2.4198 C   0  0  0  0  0  0  0  0  0  0  0  0
  5  4  1  0  0  0  0
  5  6  1  0  0  0  0
  7  8  2  0  0  0  0
  7 11  1  0  0  0  0
  8  9  1  0  0  0  0
  9 10  2  0  0  0  0
  9  6  1  0  0  0  0
 10  3  1  0  0  0  0
 11 12  1  0  0  0  0
 11 10  1  0  0  0  0
 12 18  1  0  0  0  0
 13  2  1  0  0  0  0
 13 14  2  0  0  0  0
 15 14  1  0  0  0  0
 15  1  1  0  0  0  0
 16 15  2  0  0  0  0
 17 18  2  0  0  0  0
 17 16  1  0  0  0  0
 18 13  1  0  0  0  0
M  END
>  <CHROM.1>
177.26349249,63.60083342,-57.14038447,153.72360458,-7.90519076,14.23775196
2.13270195,2.88201578,-0.16813189,-2.92677808

>  <Name>
lig.pdb

>  <RI>
0

>  <Rbt.Current_Directory>
/home/itssahil/PROJECTS/Mol_Feturizer/New_Systems/rnas/4nyg

>  <Rbt.Executable>
rbdock ($Id: //depot/dev/client3/rdock/2013.1/src/exe/rbdock.cxx#4 $)

>  <Rbt.Library>
libRbt.so (2013.1, Build901 2013/11/27)

>  <Rbt.Parameter_File>
/export/apps/rDock/src/rDock_2013.1_src/data/scripts/dock_solv.prm

>  <Rbt.Receptor>
prm/pocket_docking_2.prm

>  <SCORE>
-13.5036

>  <SCORE.INTER>
-13.1902

>  <SCORE.INTER.CONST>
1

>  <SCORE.INTER.POLAR>
0

>  <SCORE.INTER.ROT>
4

>  <SCORE.INTER.SOLV>
9.42036

>  <SCORE.INTER.VDW>
-18.2002

>  <SCORE.INTER.norm>
-0.732788

>  <SCORE.INTRA>
-0.327949

>  <SCORE.INTRA.DIHEDRAL>
-0.0179602

>  <SCORE.INTRA.DIHEDRAL.0>
3.20029

>  <SCORE.INTRA.POLAR>
0

>  <SCORE.INTRA.POLAR.0>
0

>  <SCORE.INTRA.REPUL>
0

>  <SCORE.INTRA.REPUL.0>
0

>  <SCORE.INTRA.SOLV>
-0.0423238

>  <SCORE.INTRA.SOLV.lig_0>
-19.3885

>  <SCORE.INTRA.VDW>
-0.297807

>  <SCORE.INTRA.VDW.0>
-1.12705

>  <SCORE.INTRA.norm>
-0.0182194

>  <SCORE.RESTR>
0.0144792

>  <SCORE.RESTR.CAVITY>
0.0144792

>  <SCORE.RESTR.norm>
0.000804401

>  <SCORE.SYSTEM>
0

>  <SCORE.SYSTEM.CONST>
0

>  <SCORE.SYSTEM.DIHEDRAL>
0

>  <SCORE.SYSTEM.SOLV>
0

>  <SCORE.SYSTEM.norm>
0

>  <SCORE.heavy>
18

>  <SCORE.norm>
-0.750203

>  <RMSD>
1.800

$$$$
lig.pdb
 OpenBabel11021811503D
libRbt.so/2013.1/901 2013/11/27
 18 19  0  0  0  0  0  0  0  0999 V2000
  -13.6011   14.8342    3.3782 C   0  0  0  0  0  0  0  0  0  0  0  0
  -10.6010   11.2049    2.2120 N   0  0  0  0  0  0  0  0  0  0  0  0
   -5.3879   12.9113    2.8519 C   0  0  0  0  0  0  0  0  0  0  0  0
   -4.0029   16.5955    2.9737 O   0  0  0  0  0  0  0  0  0  0  0  0
   -3.4271   16.3867    1.6916 C   0  0  0  0  0  0  0  0  0  0  0  0
   -3.6321   14.9255    1.2469 C   0  0  0  0  0  0  0  0  0  0  0  0
   -7.6985   14.6490    0.4742 C   0  0  0  0  0  0  0  0  0  0  0  0
   -6.2543   15.4858    0.0070 S   0  0  0  0  0  0  0  0  0  0  0  0
   -5.1199   14.6846    1.1167 C   0  0  0  0  0  0  0  0  0  0  0  0
   -5.9591   13.8230    1.7788 C   0  0  0  0  0  0  0  0  0  0  0  0
   -7.2818   13.8269    1.4287 N   0  0  0  0  0  0  0  0  0  0  0  0
   -8.2705   12.9015    2.0875 C   0  0  0  0  0  0  0  0  0  0  0  0
  -10.7783   12.5644    2.4680 C   0  0  0  0  0  0  0  0  0  0  0  0
  -12.0232   13.0419    2.7748 N   0  0  0  0  0  0  0  0  0  0  0  0
  -12.2185   14.3390    3.0262 C   0  0  0  0  0  0  0  0  0  0  0  0
  -11.1994   15.2020    2.9803 N   0  0  0  0  0  0  0  0  0  0  0  0
   -9.9355   14.8007    2.6860 C   0  0  0  0  0  0  0  0  0  0  0  0
   -9.6664   13.4536    2.4195 C   0  0  0  0  0  0  0  0  0  0  0  0
  5  4  1  0  0  0  0
  5  6  1  0  0  0  0
  7  8  2  0  0  0  0
  7 11  1  0  0  0  0
  8  9  1  0  0  0  0
  9 10  2  0  0  0  0
  9  6  1  0  0  0  0
 10  3  1  0  0  0  0
 11 12  1  0  0  0  0
 11 10  1  0  0  0  0
 12 18  1  0  0  0  0
 13  2  1  0  0  0  0
 13 14  2  0  0  0  0
 15 14  1  0  0  0  0
 15  1  1  0  0  0  0
 16 15  2  0  0  0  0
 17 18  2  0  0  0  0
 17 16  1  0  0  0  0
 18 13  1  0  0  0  0
M  END
>  <CHROM.1>
63.13212944,62.42828572,-40.86554936,152.19077894,-7.98918144,14.31816787
1.96145258,2.92305079,-0.19076453,-3.12099940

>  <Name>
lig.pdb

>  <RI>
0

>  <Rbt.Current_Directory>
/home/itssahil/PROJECTS/Mol_Feturizer/New_Systems/rnas/4nyg

>  <Rbt.Executable>
rbdock ($Id: //depot/dev/client3/rdock/2013.1/src/exe/rbdock.cxx#4 $)

>  <Rbt.Library>
libRbt.so (2013.1, Build901 2013/11/27)

>  <Rbt.Parameter_File>
/export/apps/rDock/src/rDock_2013.1_src/data/scripts/dock_solv.prm

>  <Rbt.Receptor>
prm/pocket_docking_2.prm

>  <SCORE>
-12.3825

>  <SCORE.INTER>
-12.4413

>  <SCORE.INTER.CONST>
1

>  <SCORE.INTER.POLAR>
0

>  <SCORE.INTER.ROT>
4

>  <SCORE.INTER.SOLV>
9.41344

>  <SCORE.INTER.VDW>
-17.6987

>  <SCORE.INTER.norm>
-0.691184

>  <SCORE.INTRA>
0.0567051

>  <SCORE.INTRA.DIHEDRAL>
0.0231554

>  <SCORE.INTRA.DIHEDRAL.0>
3.20029

>  <SCORE.INTRA.POLAR>
0

>  <SCORE.INTRA.POLAR.0>
0

>  <SCORE.INTRA.REPUL>
0

>  <SCORE.INTRA.REPUL.0>
0

>  <SCORE.INTRA.SOLV>
0.509388

>  <SCORE.INTRA.SOLV.lig_0>
-19.3885

>  <SCORE.INTRA.VDW>
-0.209566

>  <SCORE.INTRA.VDW.0>
-1.12705

>  <SCORE.INTRA.norm>
0.00315028

>  <SCORE.RESTR>
0.00208444

>  <SCORE.RESTR.CAVITY>
0.00208444

>  <SCORE.RESTR.norm>
0.000115802

>  <SCORE.SYSTEM>
0

>  <SCORE.SYSTEM.CONST>
0

>  <SCORE.SYSTEM.DIHEDRAL>
0

>  <SCORE.SYSTEM.SOLV>
0

>  <SCORE.SYSTEM.norm>
0

>  <SCORE.heavy>
18

>  <SCORE.norm>
-0.687918

>  <RMSD>
1.907

$$$$
lig.pdb
 OpenBabel11021811503D
libRbt.so/2013.1/901 2013/11/27
 18 19  0  0  0  0  0  0  0  0999 V2000
  -13.6032   14.6491    3.3506 C   0  0  0  0  0  0  0  0  0  0  0  0
  -10.5201   11.1392    2.0439 N   0  0  0  0  0  0  0  0  0  0  0  0
   -5.3359   12.9063    2.7138 C   0  0  0  0  0  0  0  0  0  0  0  0
   -4.0166   16.5390    3.0506 O   0  0  0  0  0  0  0  0  0  0  0  0
   -3.4425   16.4454    1.7542 C   0  0  0  0  0  0  0  0  0  0  0  0
   -3.6327   15.0247    1.1884 C   0  0  0  0  0  0  0  0  0  0  0  0
   -7.7057   14.7274    0.4601 C   0  0  0  0  0  0  0  0  0  0  0  0
   -6.2806   15.6080    0.0156 S   0  0  0  0  0  0  0  0  0  0  0  0
   -5.1187   14.7686    1.0672 C   0  0  0  0  0  0  0  0  0  0  0  0
   -5.9358   13.8624    1.6965 C   0  0  0  0  0  0  0  0  0  0  0  0
   -7.2634   13.8643    1.3657 N   0  0  0  0  0  0  0  0  0  0  0  0
   -8.2292   12.8923    1.9906 C   0  0  0  0  0  0  0  0  0  0  0  0
  -10.7287   12.4829    2.3540 C   0  0  0  0  0  0  0  0  0  0  0  0
  -11.9844   12.9191    2.6779 N   0  0  0  0  0  0  0  0  0  0  0  0
  -12.2095   14.2002    2.9809 C   0  0  0  0  0  0  0  0  0  0  0  0
  -11.2104   15.0875    2.9710 N   0  0  0  0  0  0  0  0  0  0  0  0
   -9.9375   14.7274    2.6625 C   0  0  0  0  0  0  0  0  0  0  0  0
   -9.6375   13.3986    2.3426 C   0  0  0  0  0  0  0  0  0  0  0  0
  5  4  1  0  0  0  0
  5  6  1  0  0  0  0
  7  8  2  0  0  0  0
  7 11  1  0  0  0  0
  8  9  1  0  0  0  0
  9 10  2  0  0  0  0
  9  6  1  0  0  0  0
 10  3  1  0  0  0  0
 11 12  1  0  0  0  0
 11 10  1  0  0  0  0
 12 18  1  0  0  0  0
 13  2  1  0  0  0  0
 13 14  2  0  0  0  0
 15 14  1  0  0  0  0
 15  1  1  0  0  0  0
 16 15  2  0  0  0  0
 17 18  2  0  0  0  0
 17 16  1  0  0  0  0
 18 13  1  0  0  0  0
M  END
>  <CHROM.1>
62.04218343,64.53818716,-39.60179987,151.94989309,-7.97755315,14.30581413
1.91600653,2.90388852,-0.18842766,-3.09793451

>  <Name>
lig.pdb

>  <RI>
0

>  <Rbt.Current_Directory>
/home/itssahil/PROJECTS/Mol_Feturizer/New_Systems/rnas/4nyg

>  <Rbt.Executable>
rbdock ($Id: //depot/dev/client3/rdock/2013.1/src/exe/rbdock.cxx#4 $)

>  <Rbt.Library>
libRbt.so (2013.1, Build901 2013/11/27)

>  <Rbt.Parameter_File>
/export/apps/rDock/src/rDock_2013.1_src/data/scripts/dock_solv.prm

>  <Rbt.Receptor>
prm/pocket_docking_2.prm

>  <SCORE>
-12.4281

>  <SCORE.INTER>
-12.5191

>  <SCORE.INTER.CONST>
1

>  <SCORE.INTER.POLAR>
0

>  <SCORE.INTER.ROT>
4

>  <SCORE.INTER.SOLV>
9.48

>  <SCORE.INTER.VDW>
-17.7727

>  <SCORE.INTER.norm>
-0.695504

>  <SCORE.INTRA>
0.0860462

>  <SCORE.INTRA.DIHEDRAL>
0.0296482

>  <SCORE.INTRA.DIHEDRAL.0>
3.20029

>  <SCORE.INTRA.POLAR>
0

>  <SCORE.INTRA.POLAR.0>
0

>  <SCORE.INTRA.REPUL>
0

>  <SCORE.INTRA.REPUL.0>
0

>  <SCORE.INTRA.SOLV>
0.527686

>  <SCORE.INTRA.SOLV.lig_0>
-19.3885

>  <SCORE.INTRA.VDW>
-0.192621

>  <SCORE.INTRA.VDW.0>
-1.12705

>  <SCORE.INTRA.norm>
0.00478035

>  <SCORE.RESTR>
0.00492529

>  <SCORE.RESTR.CAVITY>
0.00492529

>  <SCORE.RESTR.norm>
0.000273627

>  <SCORE.SYSTEM>
0

>  <SCORE.SYSTEM.CONST>
0

>  <SCORE.SYSTEM.DIHEDRAL>
0

>  <SCORE.SYSTEM.SOLV>
0

>  <SCORE.SYSTEM.norm>
0

>  <SCORE.heavy>
18

>  <SCORE.norm>
-0.69045

>  <RMSD>
1.909

$$$$
lig.pdb
 OpenBabel11021811503D
libRbt.so/2013.1/901 2013/11/27
 18 19  0  0  0  0  0  0  0  0999 V2000
  -13.7879   16.0113    2.9956 C   0  0  0  0  0  0  0  0  0  0  0  0
  -11.0416   12.0358    2.5655 N   0  0  0  0  0  0  0  0  0  0  0  0
   -5.7064   13.6407    3.5079 C   0  0  0  0  0  0  0  0  0  0  0  0
   -4.1617   17.0887    2.5102 O   0  0  0  0  0  0  0  0  0  0  0  0
   -3.5170   16.4622    1.4098 C   0  0  0  0  0  0  0  0  0  0  0  0
   -3.7847   14.9447    1.4289 C   0  0  0  0  0  0  0  0  0  0  0  0
   -7.8296   14.5966    0.5770 C   0  0  0  0  0  0  0  0  0  0  0  0
   -6.3253   15.1746   -0.0610 S   0  0  0  0  0  0  0  0  0  0  0  0
   -5.2779   14.7353    1.3067 C   0  0  0  0  0  0  0  0  0  0  0  0
   -6.1870   14.1731    2.1683 C   0  0  0  0  0  0  0  0  0  0  0  0
   -7.4940   14.1161    1.7674 N   0  0  0  0  0  0  0  0  0  0  0  0
   -8.5558   13.4987    2.6388 C   0  0  0  0  0  0  0  0  0  0  0  0
  -11.1131   13.4237    2.6834 C   0  0  0  0  0  0  0  0  0  0  0  0
  -12.3331   14.0369    2.7699 N   0  0  0  0  0  0  0  0  0  0  0  0
  -12.4279   15.3641    2.8856 C   0  0  0  0  0  0  0  0  0  0  0  0
  -11.3298   16.1246    2.9163 N   0  0  0  0  0  0  0  0  0  0  0  0
  -10.0850   15.5865    2.8387 C   0  0  0  0  0  0  0  0  0  0  0  0
   -9.9204   14.2018    2.7227 C   0  0  0  0  0  0  0  0  0  0  0  0
  5  4  1  0  0  0  0
  5  6  1  0  0  0  0
  7  8  2  0  0  0  0
  7 11  1  0  0  0  0
  8  9  1  0  0  0  0
  9 10  2  0  0  0  0
  9  6  1  0  0  0  0
 10  3  1  0  0  0  0
 11 12  1  0  0  0  0
 11 10  1  0  0  0  0
 12 18  1  0  0  0  0
 13  2  1  0  0  0  0
 13 14  2  0  0  0  0
 15 14  1  0  0  0  0
 15  1  1  0  0  0  0
 16 15  2  0  0  0  0
 17 18  2  0  0  0  0
 17 16  1  0  0  0  0
 18 13  1  0  0  0  0
M  END
>  <CHROM.1>
61.19263188,63.43551302,-42.11292724,137.55429148,-8.19122683,14.79396259
2.05449047,3.02904130,-0.17834394,3.09334525

>  <Name>
lig.pdb

>  <RI>
0

>  <Rbt.Current_Directory>
/home/itssahil/PROJECTS/Mol_Feturizer/New_Systems/rnas/4nyg

>  <Rbt.Executable>
rbdock ($Id: //depot/dev/client3/rdock/2013.1/src/exe/rbdock.cxx#4 $)

>  <Rbt.Library>
libRbt.so (2013.1, Build901 2013/11/27)

>  <Rbt.Parameter_File>
/export/apps/rDock/src/rDock_2013.1_src/data/scripts/dock_solv.prm

>  <Rbt.Receptor>
prm/pocket_docking_2.prm

>  <SCORE>
-12.8601

>  <SCORE.INTER>
-12.9321

>  <SCORE.INTER.CONST>
1

>  <SCORE.INTER.POLAR>
0

>  <SCORE.INTER.ROT>
4

>  <SCORE.INTER.SOLV>
9.28148

>  <SCORE.INTER.VDW>
-17.9819

>  <SCORE.INTER.norm>
-0.718451

>  <SCORE.INTRA>
-0.123471

>  <SCORE.INTRA.DIHEDRAL>
-0.00075829

>  <SCORE.INTRA.DIHEDRAL.0>
3.20029

>  <SCORE.INTRA.POLAR>
0

>  <SCORE.INTRA.POLAR.0>
0

>  <SCORE.INTRA.REPUL>
0

>  <SCORE.INTRA.REPUL.0>
0

>  <SCORE.INTRA.SOLV>
0.514225

>  <SCORE.INTRA.SOLV.lig_0>
-19.3885

>  <SCORE.INTRA.VDW>
-0.380205

>  <SCORE.INTRA.VDW.0>
-1.12705

>  <SCORE.INTRA.norm>
-0.00685951

>  <SCORE.RESTR>
0.195441

>  <SCORE.RESTR.CAVITY>
0.195441

>  <SCORE.RESTR.norm>
0.0108578

>  <SCORE.SYSTEM>
0

>  <SCORE.SYSTEM.CONST>
0

>  <SCORE.SYSTEM.DIHEDRAL>
0

>  <SCORE.SYSTEM.SOLV>
0

>  <SCORE.SYSTEM.norm>
0

>  <SCORE.heavy>
18

>  <SCORE.norm>
-0.714452

>  <RMSD>
1.962

$$$$
lig.pdb
 OpenBabel11021811503D
libRbt.so/2013.1/901 2013/11/27
 18 19  0  0  0  0  0  0  0  0999 V2000
  -13.5913   14.6427    3.2949 C   0  0  0  0  0  0  0  0  0  0  0  0
  -10.6298   11.0127    2.0359 N   0  0  0  0  0  0  0  0  0  0  0  0
   -6.0020   13.5241    3.9210 C   0  0  0  0  0  0  0  0  0  0  0  0
   -4.5149   17.5619    1.4774 O   0  0  0  0  0  0  0  0  0  0  0  0
   -3.5030   16.5720    1.6007 C   0  0  0  0  0  0  0  0  0  0  0  0
   -3.9718   15.4452    2.5417 C   0  0  0  0  0  0  0  0  0  0  0  0
   -7.2435   14.0226    0.4251 C   0  0  0  0  0  0  0  0  0  0  0  0
   -5.8469   15.0407    0.2950 S   0  0  0  0  0  0  0  0  0  0  0  0
   -5.2185   14.8306    1.9447 C   0  0  0  0  0  0  0  0  0  0  0  0
   -6.1552   13.9817    2.4802 C   0  0  0  0  0  0  0  0  0  0  0  0
   -7.1877   13.5830    1.6758 N   0  0  0  0  0  0  0  0  0  0  0  0
   -8.2495   12.6375    2.1725 C   0  0  0  0  0  0  0  0  0  0  0  0
  -10.7840   12.3550    2.3820 C   0  0  0  0  0  0  0  0  0  0  0  0
  -12.0311   12.8490    2.6514 N   0  0  0  0  0  0  0  0  0  0  0  0
  -12.2046   14.1300    2.9871 C   0  0  0  0  0  0  0  0  0  0  0  0
  -11.1608   14.9605    3.0643 N   0  0  0  0  0  0  0  0  0  0  0  0
   -9.8933   14.5411    2.8141 C   0  0  0  0  0  0  0  0  0  0  0  0
   -9.6466   13.2089    2.4639 C   0  0  0  0  0  0  0  0  0  0  0  0
  5  4  1  0  0  0  0
  5  6  1  0  0  0  0
  7  8  2  0  0  0  0
  7 11  1  0  0  0  0
  8  9  1  0  0  0  0
  9 10  2  0  0  0  0
  9  6  1  0  0  0  0
 10  3  1  0  0  0  0
 11 12  1  0  0  0  0
 11 10  1  0  0  0  0
 12 18  1  0  0  0  0
 13  2  1  0  0  0  0
 13 14  2  0  0  0  0
 15 14  1  0  0  0  0
 15  1  1  0  0  0  0
 16 15  2  0  0  0  0
 17 18  2  0  0  0  0
 17 16  1  0  0  0  0
 18 13  1  0  0  0  0
M  END
>  <CHROM.1>
60.17888982,13.89146257,-73.96978594,153.71585526,-8.00876440,14.26356909
2.10274199,2.84166808,-0.18876554,-3.08397954

>  <Name>
lig.pdb

>  <RI>
0

>  <Rbt.Current_Directory>
/home/itssahil/PROJECTS/Mol_Feturizer/New_Systems/rnas/4nyg

>  <Rbt.Executable>
rbdock ($Id: //depot/dev/client3/rdock/2013.1/src/exe/rbdock.cxx#4 $)

>  <Rbt.Library>
libRbt.so (2013.1, Build901 2013/11/27)

>  <Rbt.Parameter_File>
/export/apps/rDock/src/rDock_2013.1_src/data/scripts/dock_solv.prm

>  <Rbt.Receptor>
prm/pocket_docking_2.prm

>  <SCORE>
-11.5164

>  <SCORE.INTER>
-13.0103

>  <SCORE.INTER.CONST>
1

>  <SCORE.INTER.POLAR>
0

>  <SCORE.INTER.ROT>
4

>  <SCORE.INTER.SOLV>
9.90858

>  <SCORE.INTER.VDW>
-18.2431

>  <SCORE.INTER.norm>
-0.722796

>  <SCORE.INTRA>
1.46413

>  <SCORE.INTRA.DIHEDRAL>
2.23748

>  <SCORE.INTRA.DIHEDRAL.0>
3.20029

>  <SCORE.INTRA.POLAR>
0

>  <SCORE.INTRA.POLAR.0>
0

>  <SCORE.INTRA.REPUL>
0

>  <SCORE.INTRA.REPUL.0>
0

>  <SCORE.INTRA.SOLV>
0.412155

>  <SCORE.INTRA.SOLV.lig_0>
-19.3885

>  <SCORE.INTRA.VDW>
0.139313

>  <SCORE.INTRA.VDW.0>
-1.12705

>  <SCORE.INTRA.norm>
0.0813407

>  <SCORE.RESTR>
0.0298463

>  <SCORE.RESTR.CAVITY>
0.0298463

>  <SCORE.RESTR.norm>
0.00165813

>  <SCORE.SYSTEM>
0

>  <SCORE.SYSTEM.CONST>
0

>  <SCORE.SYSTEM.DIHEDRAL>
0

>  <SCORE.SYSTEM.SOLV>
0

>  <SCORE.SYSTEM.norm>
0

>  <SCORE.heavy>
18

>  <SCORE.norm>
-0.639798

>  <RMSD>
1.963

$$$$
lig.pdb
 OpenBabel11021811503D
libRbt.so/2013.1/901 2013/11/27
 18 19  0  0  0  0  0  0  0  0999 V2000
  -13.6487   14.6133    3.3397 C   0  0  0  0  0  0  0  0  0  0  0  0
  -10.5732   11.0834    2.0695 N   0  0  0  0  0  0  0  0  0  0  0  0
   -5.3739   12.9519    2.9372 C   0  0  0  0  0  0  0  0  0  0  0  0
   -4.1683   16.8785    2.5907 O   0  0  0  0  0  0  0  0  0  0  0  0
   -3.5262   16.4529    1.3968 C   0  0  0  0  0  0  0  0  0  0  0  0
   -3.6851   14.9303    1.2199 C   0  0  0  0  0  0  0  0  0  0  0  0
   -7.7357   14.4625    0.4570 C   0  0  0  0  0  0  0  0  0  0  0  0
   -6.3207   15.3219   -0.0559 S   0  0  0  0  0  0  0  0  0  0  0  0
   -5.1627   14.6286    1.1012 C   0  0  0  0  0  0  0  0  0  0  0  0
   -5.9731   13.7777    1.8112 C   0  0  0  0  0  0  0  0  0  0  0  0
   -7.2937   13.7133    1.4590 N   0  0  0  0  0  0  0  0  0  0  0  0
   -8.2512   12.7931    2.1691 C   0  0  0  0  0  0  0  0  0  0  0  0
  -10.7715   12.4216    2.4091 C   0  0  0  0  0  0  0  0  0  0  0  0
  -12.0325   12.8723    2.6896 N   0  0  0  0  0  0  0  0  0  0  0  0
  -12.2480   14.1485    3.0194 C   0  0  0  0  0  0  0  0  0  0  0  0
  -11.2339   15.0163    3.0796 N   0  0  0  0  0  0  0  0  0  0  0  0
   -9.9550   14.6409    2.8177 C   0  0  0  0  0  0  0  0  0  0  0  0
   -9.6647   13.3161    2.4728 C   0  0  0  0  0  0  0  0  0  0  0  0
  5  4  1  0  0  0  0
  5  6  1  0  0  0  0
  7  8  2  0  0  0  0
  7 11  1  0  0  0  0
  8  9  1  0  0  0  0
  9 10  2  0  0  0  0
  9  6  1  0  0  0  0
 10  3  1  0  0  0  0
 11 12  1  0  0  0  0
 11 10  1  0  0  0  0
 12 18  1  0  0  0  0
 13  2  1  0  0  0  0
 13 14  2  0  0  0  0
 15 14  1  0  0  0  0
 15  1  1  0  0  0  0
 16 15  2  0  0  0  0
 17 18  2  0  0  0  0
 17 16  1  0  0  0  0
 18 13  1  0  0  0  0
M  END
>  <CHROM.1>
61.81619978,55.22221095,-41.22355559,144.47241813,-8.02426944,14.22816444
1.92088728,2.89901402,-0.21242539,-3.10305720

>  <Name>
lig.pdb

>  <RI>
0

>  <Rbt.Current_Directory>
/home/itssahil/PROJECTS/Mol_Feturizer/New_Systems/rnas/4nyg

>  <Rbt.Executable>
rbdock ($Id: //depot/dev/client3/rdock/2013.1/src/exe/rbdock.cxx#4 $)

>  <Rbt.Library>
libRbt.so (2013.1, Build901 2013/11/27)

>  <Rbt.Parameter_File>
/export/apps/rDock/src/rDock_2013.1_src/data/scripts/dock_solv.prm

>  <Rbt.Receptor>
prm/pocket_docking_2.prm

>  <SCORE>
-12.7252

>  <SCORE.INTER>
-12.7966

>  <SCORE.INTER.CONST>
1

>  <SCORE.INTER.POLAR>
0

>  <SCORE.INTER.ROT>
4

>  <SCORE.INTER.SOLV>
9.61274

>  <SCORE.INTER.VDW>
-18.002

>  <SCORE.INTER.norm>
-0.710922

>  <SCORE.INTRA>
0.0226854

>  <SCORE.INTRA.DIHEDRAL>
0.0334491

>  <SCORE.INTRA.DIHEDRAL.0>
3.20029

>  <SCORE.INTRA.POLAR>
0

>  <SCORE.INTRA.POLAR.0>
0

>  <SCORE.INTRA.REPUL>
0

>  <SCORE.INTRA.REPUL.0>
0

>  <SCORE.INTRA.SOLV>
0.486224

>  <SCORE.INTRA.SOLV.lig_0>
-19.3885

>  <SCORE.INTRA.VDW>
-0.237151

>  <SCORE.INTRA.VDW.0>
-1.12705

>  <SCORE.INTRA.norm>
0.0012603

>  <SCORE.RESTR>
0.0487171

>  <SCORE.RESTR.CAVITY>
0.0487171

>  <SCORE.RESTR.norm>
0.00270651

>  <SCORE.SYSTEM>
0

>  <SCORE.SYSTEM.CONST>
0

>  <SCORE.SYSTEM.DIHEDRAL>
0

>  <SCORE.SYSTEM.SOLV>
0

>  <SCORE.SYSTEM.norm>
0

>  <SCORE.heavy>
18

>  <SCORE.norm>
-0.706955

>  <RMSD>
1.985

$$$$
lig.pdb
 OpenBabel11021811503D
libRbt.so/2013.1/901 2013/11/27
 18 19  0  0  0  0  0  0  0  0999 V2000
  -13.6421   15.0264    3.4480 C   0  0  0  0  0  0  0  0  0  0  0  0
  -10.1386   11.9862    2.0286 N   0  0  0  0  0  0  0  0  0  0  0  0
   -6.5779   16.4212    0.6203 C   0  0  0  0  0  0  0  0  0  0  0  0
   -1.8129   17.0474    2.4926 O   0  0  0  0  0  0  0  0  0  0  0  0
   -2.8540   16.0804    2.5037 C   0  0  0  0  0  0  0  0  0  0  0  0
   -4.2241   16.7739    2.6328 C   0  0  0  0  0  0  0  0  0  0  0  0
   -6.8989   13.6382    3.1029 C   0  0  0  0  0  0  0  0  0  0  0  0
   -5.4793   14.3609    3.7857 S   0  0  0  0  0  0  0  0  0  0  0  0
   -5.2896   15.7001    2.6320 C   0  0  0  0  0  0  0  0  0  0  0  0
   -6.3510   15.4781    1.7899 C   0  0  0  0  0  0  0  0  0  0  0  0
   -7.1621   14.4087    2.0552 N   0  0  0  0  0  0  0  0  0  0  0  0
   -8.3608   14.1010    1.1969 C   0  0  0  0  0  0  0  0  0  0  0  0
  -10.5871   13.2992    2.1705 C   0  0  0  0  0  0  0  0  0  0  0  0
  -11.8258   13.5413    2.6986 N   0  0  0  0  0  0  0  0  0  0  0  0
  -12.2772   14.7895    2.8468 C   0  0  0  0  0  0  0  0  0  0  0  0
  -11.5275   15.8324    2.4784 N   0  0  0  0  0  0  0  0  0  0  0  0
  -10.2868   15.6698    1.9498 C   0  0  0  0  0  0  0  0  0  0  0  0
   -9.7561   14.3868    1.7756 C   0  0  0  0  0  0  0  0  0  0  0  0
  5  4  1  0  0  0  0
  5  6  1  0  0  0  0
  7  8  2  0  0  0  0
  7 11  1  0  0  0  0
  8  9  1  0  0  0  0
  9 10  2  0  0  0  0
  9  6  1  0  0  0  0
 10  3  1  0  0  0  0
 11 12  1  0  0  0  0
 11 10  1  0  0  0  0
 12 18  1  0  0  0  0
 13  2  1  0  0  0  0
 13 14  2  0  0  0  0
 15 14  1  0  0  0  0
 15  1  1  0  0  0  0
 16 15  2  0  0  0  0
 17 18  2  0  0  0  0
 17 16  1  0  0  0  0
 18 13  1  0  0  0  0
M  END
>  <CHROM.1>
179.71356020,60.04949338,71.90424668,-107.50476397,-7.81467655,14.91236518
2.44519885,2.93898544,0.05774530,2.89044775

>  <Name>
lig.pdb

>  <RI>
0

>  <Rbt.Current_Directory>
/home/itssahil/PROJECTS/Mol_Feturizer/New_Systems/rnas/4nyg

>  <Rbt.Executable>
rbdock ($Id: //depot/dev/client3/rdock/2013.1/src/exe/rbdock.cxx#4 $)

>  <Rbt.Library>
libRbt.so (2013.1, Build901 2013/11/27)

>  <Rbt.Parameter_File>
/export/apps/rDock/src/rDock_2013.1_src/data/scripts/dock_solv.prm

>  <Rbt.Receptor>
prm/pocket_docking_2.prm

>  <SCORE>
-11.9811

>  <SCORE.INTER>
-11.6056

>  <SCORE.INTER.CONST>
1

>  <SCORE.INTER.POLAR>
0

>  <SCORE.INTER.ROT>
4

>  <SCORE.INTER.SOLV>
8.18353

>  <SCORE.INTER.VDW>
-16.7316

>  <SCORE.INTER.norm>
-0.644757

>  <SCORE.INTRA>
-0.417605

>  <SCORE.INTRA.DIHEDRAL>
-0.0397121

>  <SCORE.INTRA.DIHEDRAL.0>
3.20029

>  <SCORE.INTRA.POLAR>
0

>  <SCORE.INTRA.POLAR.0>
0

>  <SCORE.INTRA.REPUL>
0

>  <SCORE.INTRA.REPUL.0>
0

>  <SCORE.INTRA.SOLV>
0.256518

>  <SCORE.INTRA.SOLV.lig_0>
-19.3885

>  <SCORE.INTRA.VDW>
-0.526008

>  <SCORE.INTRA.VDW.0>
-1.12705

>  <SCORE.INTRA.norm>
-0.0232003

>  <SCORE.RESTR>
0.0421138

>  <SCORE.RESTR.CAVITY>
0.0421138

>  <SCORE.RESTR.norm>
0.00233965

>  <SCORE.SYSTEM>
0

>  <SCORE.SYSTEM.CONST>
0

>  <SCORE.SYSTEM.DIHEDRAL>
0

>  <SCORE.SYSTEM.SOLV>
0

>  <SCORE.SYSTEM.norm>
0

>  <SCORE.heavy>
18

>  <SCORE.norm>
-0.665617

>  <RMSD>
2.060

$$$$
lig.pdb
 OpenBabel11021811503D
libRbt.so/2013.1/901 2013/11/27
 18 19  0  0  0  0  0  0  0  0999 V2000
  -13.6317   15.0289    3.4455 C   0  0  0  0  0  0  0  0  0  0  0  0
  -10.2734   11.7645    2.1816 N   0  0  0  0  0  0  0  0  0  0  0  0
   -7.1182   16.3974    0.7339 C   0  0  0  0  0  0  0  0  0  0  0  0
   -2.6320   15.8491    3.0677 O   0  0  0  0  0  0  0  0  0  0  0  0
   -3.2326   16.6794    2.0833 C   0  0  0  0  0  0  0  0  0  0  0  0
   -4.6558   17.0787    2.5192 C   0  0  0  0  0  0  0  0  0  0  0  0
   -6.6460   13.4741    3.0237 C   0  0  0  0  0  0  0  0  0  0  0  0
   -5.3134   14.4137    3.6114 S   0  0  0  0  0  0  0  0  0  0  0  0
   -5.5016   15.8249    2.5465 C   0  0  0  0  0  0  0  0  0  0  0  0
   -6.5932   15.4524    1.8017 C   0  0  0  0  0  0  0  0  0  0  0  0
   -7.1613   14.2365    2.0677 N   0  0  0  0  0  0  0  0  0  0  0  0
   -8.3732   13.7550    1.3144 C   0  0  0  0  0  0  0  0  0  0  0  0
  -10.6536   13.1032    2.2748 C   0  0  0  0  0  0  0  0  0  0  0  0
  -11.8856   13.4270    2.7739 N   0  0  0  0  0  0  0  0  0  0  0  0
  -12.2722   14.7014    2.8753 C   0  0  0  0  0  0  0  0  0  0  0  0
  -11.4626   15.6910    2.4871 N   0  0  0  0  0  0  0  0  0  0  0  0
  -10.2244   15.4464    1.9850 C   0  0  0  0  0  0  0  0  0  0  0  0
   -9.7601   14.1323    1.8601 C   0  0  0  0  0  0  0  0  0  0  0  0
  5  4  1  0  0  0  0
  5  6  1  0  0  0  0
  7  8  2  0  0  0  0
  7 11  1  0  0  0  0
  8  9  1  0  0  0  0
  9 10  2  0  0  0  0
  9  6  1  0  0  0  0
 10  3  1  0  0  0  0
 11 12  1  0  0  0  0
 11 10  1  0  0  0  0
 12 18  1  0  0  0  0
 13  2  1  0  0  0  0
 13 14  2  0  0  0  0
 15 14  1  0  0  0  0
 15  1  1  0  0  0  0
 16 15  2  0  0  0  0
 17 18  2  0  0  0  0
 17 16  1  0  0  0  0
 18 13  1  0  0  0  0
M  END
>  <CHROM.1>
-65.76555273,64.82530619,90.42517889,-117.84742006,-7.93376386,14.80029966
2.46078549,2.93575219,0.04564243,2.96179764

>  <Name>
lig.pdb

>  <RI>
0

>  <Rbt.Current_Directory>
/home/itssahil/PROJECTS/Mol_Feturizer/New_Systems/rnas/4nyg

>  <Rbt.Executable>
rbdock ($Id: //depot/dev/client3/rdock/2013.1/src/exe/rbdock.cxx#4 $)

>  <Rbt.Library>
libRbt.so (2013.1, Build901 2013/11/27)

>  <Rbt.Parameter_File>
/export/apps/rDock/src/rDock_2013.1_src/data/scripts/dock_solv.prm

>  <Rbt.Receptor>
prm/pocket_docking_2.prm

>  <SCORE>
-12.2978

>  <SCORE.INTER>
-12.0272

>  <SCORE.INTER.CONST>
1

>  <SCORE.INTER.POLAR>
0

>  <SCORE.INTER.ROT>
4

>  <SCORE.INTER.SOLV>
8.54987

>  <SCORE.INTER.VDW>
-17.1348

>  <SCORE.INTER.norm>
-0.668179

>  <SCORE.INTRA>
-0.302231

>  <SCORE.INTRA.DIHEDRAL>
0.149899

>  <SCORE.INTRA.DIHEDRAL.0>
3.20029

>  <SCORE.INTRA.POLAR>
0

>  <SCORE.INTRA.POLAR.0>
0

>  <SCORE.INTRA.REPUL>
0

>  <SCORE.INTRA.REPUL.0>
0

>  <SCORE.INTRA.SOLV>
0.582393

>  <SCORE.INTRA.SOLV.lig_0>
-19.3885

>  <SCORE.INTRA.VDW>
-0.668377

>  <SCORE.INTRA.VDW.0>
-1.12705

>  <SCORE.INTRA.norm>
-0.0167906

>  <SCORE.RESTR>
0.0316719

>  <SCORE.RESTR.CAVITY>
0.0316719

>  <SCORE.RESTR.norm>
0.00175955

>  <SCORE.SYSTEM>
0

>  <SCORE.SYSTEM.CONST>
0

>  <SCORE.SYSTEM.DIHEDRAL>
0

>  <SCORE.SYSTEM.SOLV>
0

>  <SCORE.SYSTEM.norm>
0

>  <SCORE.heavy>
18

>  <SCORE.norm>
-0.683211

>  <RMSD>
2.178

$$$$
lig.pdb
 OpenBabel11021811503D
libRbt.so/2013.1/901 2013/11/27
 18 19  0  0  0  0  0  0  0  0999 V2000
  -13.5995   15.0124    3.3642 C   0  0  0  0  0  0  0  0  0  0  0  0
  -10.5574   11.4216    2.1876 N   0  0  0  0  0  0  0  0  0  0  0  0
   -7.1074   15.0010    0.0111 C   0  0  0  0  0  0  0  0  0  0  0  0
   -2.6011   15.9604    2.0198 O   0  0  0  0  0  0  0  0  0  0  0  0
   -3.2742   16.1281    0.7797 C   0  0  0  0  0  0  0  0  0  0  0  0
   -4.6889   16.6927    1.0133 C   0  0  0  0  0  0  0  0  0  0  0  0
   -6.5238   13.9869    3.5667 C   0  0  0  0  0  0  0  0  0  0  0  0
   -5.2374   15.1442    3.4686 S   0  0  0  0  0  0  0  0  0  0  0  0
   -5.4796   15.6589    1.7843 C   0  0  0  0  0  0  0  0  0  0  0  0
   -6.5489   14.8792    1.4190 C   0  0  0  0  0  0  0  0  0  0  0  0
   -7.0654   14.0264    2.3560 N   0  0  0  0  0  0  0  0  0  0  0  0
   -8.2502   13.1486    2.0499 C   0  0  0  0  0  0  0  0  0  0  0  0
  -10.7514   12.7790    2.4430 C   0  0  0  0  0  0  0  0  0  0  0  0
  -12.0010   13.2403    2.7552 N   0  0  0  0  0  0  0  0  0  0  0  0
  -12.2122   14.5350    3.0061 C   0  0  0  0  0  0  0  0  0  0  0  0
  -11.2048   15.4113    2.9543 N   0  0  0  0  0  0  0  0  0  0  0  0
   -9.9371   15.0264    2.6543 C   0  0  0  0  0  0  0  0  0  0  0  0
   -9.6516   13.6827    2.3880 C   0  0  0  0  0  0  0  0  0  0  0  0
  5  4  1  0  0  0  0
  5  6  1  0  0  0  0
  7  8  2  0  0  0  0
  7 11  1  0  0  0  0
  8  9  1  0  0  0  0
  9 10  2  0  0  0  0
  9  6  1  0  0  0  0
 10  3  1  0  0  0  0
 11 12  1  0  0  0  0
 11 10  1  0  0  0  0
 12 18  1  0  0  0  0
 13  2  1  0  0  0  0
 13 14  2  0  0  0  0
 15 14  1  0  0  0  0
 15  1  1  0  0  0  0
 16 15  2  0  0  0  0
 17 18  2  0  0  0  0
 17 16  1  0  0  0  0
 18 13  1  0  0  0  0
M  END
>  <CHROM.1>
-64.53844434,68.66459686,86.41426650,-163.83997892,-7.89339030,14.60613273
2.30769967,2.89679195,-0.11464163,3.09406177

>  <Name>
lig.pdb

>  <RI>
0

>  <Rbt.Current_Directory>
/home/itssahil/PROJECTS/Mol_Feturizer/New_Systems/rnas/4nyg

>  <Rbt.Executable>
rbdock ($Id: //depot/dev/client3/rdock/2013.1/src/exe/rbdock.cxx#4 $)

>  <Rbt.Library>
libRbt.so (2013.1, Build901 2013/11/27)

>  <Rbt.Parameter_File>
/export/apps/rDock/src/rDock_2013.1_src/data/scripts/dock_solv.prm

>  <Rbt.Receptor>
prm/pocket_docking_2.prm

>  <SCORE>
-12.7649

>  <SCORE.INTER>
-12.3766

>  <SCORE.INTER.CONST>
1

>  <SCORE.INTER.POLAR>
0

>  <SCORE.INTER.ROT>
4

>  <SCORE.INTER.SOLV>
9.14291

>  <SCORE.INTER.VDW>
-17.5654

>  <SCORE.INTER.norm>
-0.687589

>  <SCORE.INTRA>
-0.393303

>  <SCORE.INTRA.DIHEDRAL>
0.192344

>  <SCORE.INTRA.DIHEDRAL.0>
3.20029

>  <SCORE.INTRA.POLAR>
0

>  <SCORE.INTRA.POLAR.0>
0

>  <SCORE.INTRA.REPUL>
0

>  <SCORE.INTRA.REPUL.0>
0

>  <SCORE.INTRA.SOLV>
0.398998

>  <SCORE.INTRA.SOLV.lig_0>
-19.3885

>  <SCORE.INTRA.VDW>
-0.688974

>  <SCORE.INTRA.VDW.0>
-1.12705

>  <SCORE.INTRA.norm>
-0.0218502

>  <SCORE.RESTR>
0.00503269

>  <SCORE.RESTR.CAVITY>
0.00503269

>  <SCORE.RESTR.norm>
0.000279594

>  <SCORE.SYSTEM>
0

>  <SCORE.SYSTEM.CONST>
0

>  <SCORE.SYSTEM.DIHEDRAL>
0

>  <SCORE.SYSTEM.SOLV>
0

>  <SCORE.SYSTEM.norm>
0

>  <SCORE.heavy>
18

>  <SCORE.norm>
-0.709159

>  <RMSD>
2.193

$$$$
lig.pdb
 OpenBabel11021811503D
libRbt.so/2013.1/901 2013/11/27
 18 19  0  0  0  0  0  0  0  0999 V2000
  -13.6259   14.9078    3.4391 C   0  0  0  0  0  0  0  0  0  0  0  0
  -10.1951   11.7571    2.0845 N   0  0  0  0  0  0  0  0  0  0  0  0
   -7.0324   16.4303    0.6960 C   0  0  0  0  0  0  0  0  0  0  0  0
   -3.1754   16.1007    0.8150 O   0  0  0  0  0  0  0  0  0  0  0  0
   -3.1722   16.6401    2.1295 C   0  0  0  0  0  0  0  0  0  0  0  0
   -4.5967   17.0672    2.5337 C   0  0  0  0  0  0  0  0  0  0  0  0
   -6.6660   13.5021    2.9988 C   0  0  0  0  0  0  0  0  0  0  0  0
   -5.3287   14.4169    3.6143 S   0  0  0  0  0  0  0  0  0  0  0  0
   -5.4668   15.8298    2.5440 C   0  0  0  0  0  0  0  0  0  0  0  0
   -6.5488   15.4771    1.7761 C   0  0  0  0  0  0  0  0  0  0  0  0
   -7.1458   14.2727    2.0310 N   0  0  0  0  0  0  0  0  0  0  0  0
   -8.3500   13.8133    1.2520 C   0  0  0  0  0  0  0  0  0  0  0  0
  -10.6079   13.0836    2.2096 C   0  0  0  0  0  0  0  0  0  0  0  0
  -11.8446   13.3653    2.7224 N   0  0  0  0  0  0  0  0  0  0  0  0
  -12.2621   14.6271    2.8544 C   0  0  0  0  0  0  0  0  0  0  0  0
  -11.4796   15.6450    2.4842 N   0  0  0  0  0  0  0  0  0  0  0  0
  -10.2386   15.4426    1.9702 C   0  0  0  0  0  0  0  0  0  0  0  0
   -9.7426   14.1436    1.8135 C   0  0  0  0  0  0  0  0  0  0  0  0
  5  4  1  0  0  0  0
  5  6  1  0  0  0  0
  7  8  2  0  0  0  0
  7 11  1  0  0  0  0
  8  9  1  0  0  0  0
  9 10  2  0  0  0  0
  9  6  1  0  0  0  0
 10  3  1  0  0  0  0
 11 12  1  0  0  0  0
 11 10  1  0  0  0  0
 12 18  1  0  0  0  0
 13  2  1  0  0  0  0
 13 14  2  0  0  0  0
 15 14  1  0  0  0  0
 15  1  1  0  0  0  0
 16 15  2  0  0  0  0
 17 18  2  0  0  0  0
 17 16  1  0  0  0  0
 18 13  1  0  0  0  0
M  END
>  <CHROM.1>
62.55965097,64.81548505,86.72922167,-116.06789973,-7.94431211,14.80594897
2.30173576,2.90230440,-0.00698427,2.90898670

>  <Name>
lig.pdb

>  <RI>
0

>  <Rbt.Current_Directory>
/home/itssahil/PROJECTS/Mol_Feturizer/New_Systems/rnas/4nyg

>  <Rbt.Executable>
rbdock ($Id: //depot/dev/client3/rdock/2013.1/src/exe/rbdock.cxx#4 $)

>  <Rbt.Library>
libRbt.so (2013.1, Build901 2013/11/27)

>  <Rbt.Parameter_File>
/export/apps/rDock/src/rDock_2013.1_src/data/scripts/dock_solv.prm

>  <Rbt.Receptor>
prm/pocket_docking_2.prm

>  <SCORE>
-12.3102

>  <SCORE.INTER>
-11.9281

>  <SCORE.INTER.CONST>
1

>  <SCORE.INTER.POLAR>
0

>  <SCORE.INTER.ROT>
4

>  <SCORE.INTER.SOLV>
8.50227

>  <SCORE.INTER.VDW>
-17.0528

>  <SCORE.INTER.norm>
-0.662673

>  <SCORE.INTRA>
-0.407971

>  <SCORE.INTRA.DIHEDRAL>
0.0491482

>  <SCORE.INTRA.DIHEDRAL.0>
3.20029

>  <SCORE.INTRA.POLAR>
0

>  <SCORE.INTRA.POLAR.0>
0

>  <SCORE.INTRA.REPUL>
0

>  <SCORE.INTRA.REPUL.0>
0

>  <SCORE.INTRA.SOLV>
0.694306

>  <SCORE.INTRA.SOLV.lig_0>
-19.3885

>  <SCORE.INTRA.VDW>
-0.779698

>  <SCORE.INTRA.VDW.0>
-1.12705

>  <SCORE.INTRA.norm>
-0.022665

>  <SCORE.RESTR>
0.0258907

>  <SCORE.RESTR.CAVITY>
0.0258907

>  <SCORE.RESTR.norm>
0.00143837

>  <SCORE.SYSTEM>
0

>  <SCORE.SYSTEM.CONST>
0

>  <SCORE.SYSTEM.DIHEDRAL>
0

>  <SCORE.SYSTEM.SOLV>
0

>  <SCORE.SYSTEM.norm>
0

>  <SCORE.heavy>
18

>  <SCORE.norm>
-0.6839

>  <RMSD>
2.200

$$$$
lig.pdb
 OpenBabel11021811503D
libRbt.so/2013.1/901 2013/11/27
 18 19  0  0  0  0  0  0  0  0999 V2000
  -13.6342   14.6719    3.4862 C   0  0  0  0  0  0  0  0  0  0  0  0
  -10.5826   11.1820    2.0574 N   0  0  0  0  0  0  0  0  0  0  0  0
   -7.1768   15.5070    0.3684 C   0  0  0  0  0  0  0  0  0  0  0  0
   -2.4108   17.0190    1.1935 O   0  0  0  0  0  0  0  0  0  0  0  0
   -3.2645   15.9156    1.4631 C   0  0  0  0  0  0  0  0  0  0  0  0
   -4.6427   16.4124    1.9412 C   0  0  0  0  0  0  0  0  0  0  0  0
   -6.6781   12.9847    3.0889 C   0  0  0  0  0  0  0  0  0  0  0  0
   -5.3096   13.9763    3.4736 S   0  0  0  0  0  0  0  0  0  0  0  0
   -5.5092   15.1995    2.1991 C   0  0  0  0  0  0  0  0  0  0  0  0
   -6.6322   14.7363    1.5593 C   0  0  0  0  0  0  0  0  0  0  0  0
   -7.2124   13.5933    2.0378 N   0  0  0  0  0  0  0  0  0  0  0  0
   -8.4578   13.0239    1.4111 C   0  0  0  0  0  0  0  0  0  0  0  0
  -10.8272   12.5418    2.2486 C   0  0  0  0  0  0  0  0  0  0  0  0
  -12.0373   12.9531    2.7367 N   0  0  0  0  0  0  0  0  0  0  0  0
  -12.2950   14.2491    2.9307 C   0  0  0  0  0  0  0  0  0  0  0  0
  -11.3746   15.1756    2.6483 N   0  0  0  0  0  0  0  0  0  0  0  0
  -10.1500   14.8425    2.1640 C   0  0  0  0  0  0  0  0  0  0  0  0
   -9.8182   13.5007    1.9455 C   0  0  0  0  0  0  0  0  0  0  0  0
  5  4  1  0  0  0  0
  5  6  1  0  0  0  0
  7  8  2  0  0  0  0
  7 11  1  0  0  0  0
  8  9  1  0  0  0  0
  9 10  2  0  0  0  0
  9  6  1  0  0  0  0
 10  3  1  0  0  0  0
 11 12  1  0  0  0  0
 11 10  1  0  0  0  0
 12 18  1  0  0  0  0
 13  2  1  0  0  0  0
 13 14  2  0  0  0  0
 15 14  1  0  0  0  0
 15  1  1  0  0  0  0
 16 15  2  0  0  0  0
 17 18  2  0  0  0  0
 17 16  1  0  0  0  0
 18 13  1  0  0  0  0
M  END
>  <CHROM.1>
179.47417790,67.66287874,89.50313743,-132.63862817,-7.96315678,14.32187972
2.24087459,2.86538578,-0.04033879,2.92506632

>  <Name>
lig.pdb

>  <RI>
0

>  <Rbt.Current_Directory>
/home/itssahil/PROJECTS/Mol_Feturizer/New_Systems/rnas/4nyg

>  <Rbt.Executable>
rbdock ($Id: //depot/dev/client3/rdock/2013.1/src/exe/rbdock.cxx#4 $)

>  <Rbt.Library>
libRbt.so (2013.1, Build901 2013/11/27)

>  <Rbt.Parameter_File>
/export/apps/rDock/src/rDock_2013.1_src/data/scripts/dock_solv.prm

>  <Rbt.Receptor>
prm/pocket_docking_2.prm

>  <SCORE>
-12.1354

>  <SCORE.INTER>
-11.6639

>  <SCORE.INTER.CONST>
1

>  <SCORE.INTER.POLAR>
0

>  <SCORE.INTER.ROT>
4

>  <SCORE.INTER.SOLV>
8.9552

>  <SCORE.INTER.VDW>
-17.0276

>  <SCORE.INTER.norm>
-0.647993

>  <SCORE.INTRA>
-0.505748

>  <SCORE.INTRA.DIHEDRAL>
0.0880905

>  <SCORE.INTRA.DIHEDRAL.0>
3.20029

>  <SCORE.INTRA.POLAR>
0

>  <SCORE.INTRA.POLAR.0>
0

>  <SCORE.INTRA.REPUL>
0

>  <SCORE.INTRA.REPUL.0>
0

>  <SCORE.INTRA.SOLV>
0.0363156

>  <SCORE.INTRA.SOLV.lig_0>
-19.3885

>  <SCORE.INTRA.VDW>
-0.567951

>  <SCORE.INTRA.VDW.0>
-1.12705

>  <SCORE.INTRA.norm>
-0.0280971

>  <SCORE.RESTR>
0.0341795

>  <SCORE.RESTR.CAVITY>
0.0341795

>  <SCORE.RESTR.norm>
0.00189886

>  <SCORE.SYSTEM>
0

>  <SCORE.SYSTEM.CONST>
0

>  <SCORE.SYSTEM.DIHEDRAL>
0

>  <SCORE.SYSTEM.SOLV>
0

>  <SCORE.SYSTEM.norm>
0

>  <SCORE.heavy>
18

>  <SCORE.norm>
-0.674191

>  <RMSD>
2.305

$$$$
lig.pdb
 OpenBabel11021811503D
libRbt.so/2013.1/901 2013/11/27
 18 19  0  0  0  0  0  0  0  0999 V2000
  -13.5993   14.5815    3.2700 C   0  0  0  0  0  0  0  0  0  0  0  0
   -8.7863   15.1318    3.0156 N   0  0  0  0  0  0  0  0  0  0  0  0
   -5.8038   13.0391    3.7353 C   0  0  0  0  0  0  0  0  0  0  0  0
   -2.7929   17.0693    2.9241 O   0  0  0  0  0  0  0  0  0  0  0  0
   -4.0344   16.5286    2.4934 C   0  0  0  0  0  0  0  0  0  0  0  0
   -3.9004   15.0124    2.2526 C   0  0  0  0  0  0  0  0  0  0  0  0
   -7.4947   13.8967    0.5077 C   0  0  0  0  0  0  0  0  0  0  0  0
   -6.0853   14.8768    0.2689 S   0  0  0  0  0  0  0  0  0  0  0  0
   -5.2441   14.4958    1.7881 C   0  0  0  0  0  0  0  0  0  0  0  0
   -6.1347   13.6320    2.3759 C   0  0  0  0  0  0  0  0  0  0  0  0
   -7.2856   13.3424    1.6950 N   0  0  0  0  0  0  0  0  0  0  0  0
   -8.3096   12.3900    2.2541 C   0  0  0  0  0  0  0  0  0  0  0  0
   -9.8944   14.2930    2.8977 C   0  0  0  0  0  0  0  0  0  0  0  0
  -11.1488   14.7867    3.1310 N   0  0  0  0  0  0  0  0  0  0  0  0
  -12.2259   14.0044    3.0225 C   0  0  0  0  0  0  0  0  0  0  0  0
  -12.1009   12.7174    2.6858 N   0  0  0  0  0  0  0  0  0  0  0  0
  -10.8884   12.1582    2.4361 C   0  0  0  0  0  0  0  0  0  0  0  0
   -9.7235   12.9281    2.5271 C   0  0  0  0  0  0  0  0  0  0  0  0
  5  4  1  0  0  0  0
  5  6  1  0  0  0  0
  7  8  2  0  0  0  0
  7 11  1  0  0  0  0
  8  9  1  0  0  0  0
  9 10  2  0  0  0  0
  9  6  1  0  0  0  0
 10  3  1  0  0  0  0
 11 12  1  0  0  0  0
 11 10  1  0  0  0  0
 12 18  1  0  0  0  0
 13  2  1  0  0  0  0
 13 14  2  0  0  0  0
 15 14  1  0  0  0  0
 15  1  1  0  0  0  0
 16 15  2  0  0  0  0
 17 18  2  0  0  0  0
 17 16  1  0  0  0  0
 18 13  1  0  0  0  0
M  END
>  <CHROM.1>
-179.58788121,66.12493577,-61.94758582,-30.97760321,-7.88550846,14.24856925
2.27261181,2.97222989,-0.20231822,-2.69726578

>  <Name>
lig.pdb

>  <RI>
0

>  <Rbt.Current_Directory>
/home/itssahil/PROJECTS/Mol_Feturizer/New_Systems/rnas/4nyg

>  <Rbt.Executable>
rbdock ($Id: //depot/dev/client3/rdock/2013.1/src/exe/rbdock.cxx#4 $)

>  <Rbt.Library>
libRbt.so (2013.1, Build901 2013/11/27)

>  <Rbt.Parameter_File>
/export/apps/rDock/src/rDock_2013.1_src/data/scripts/dock_solv.prm

>  <Rbt.Receptor>
prm/pocket_docking_2.prm

>  <SCORE>
-13.5087

>  <SCORE.INTER>
-13.5323

>  <SCORE.INTER.CONST>
1

>  <SCORE.INTER.POLAR>
0

>  <SCORE.INTER.ROT>
4

>  <SCORE.INTER.SOLV>
8.46816

>  <SCORE.INTER.VDW>
-18.1109

>  <SCORE.INTER.norm>
-0.751796

>  <SCORE.INTRA>
0.0227696

>  <SCORE.INTRA.DIHEDRAL>
-0.0204126

>  <SCORE.INTRA.DIHEDRAL.0>
3.20029

>  <SCORE.INTRA.POLAR>
0

>  <SCORE.INTRA.POLAR.0>
0

>  <SCORE.INTRA.REPUL>
0

>  <SCORE.INTRA.REPUL.0>
0

>  <SCORE.INTRA.SOLV>
1.55863

>  <SCORE.INTRA.SOLV.lig_0>
-19.3885

>  <SCORE.INTRA.VDW>
-0.746338

>  <SCORE.INTRA.VDW.0>
-1.12705

>  <SCORE.INTRA.norm>
0.00126498

>  <SCORE.RESTR>
0.000904604

>  <SCORE.RESTR.CAVITY>
0.000904604

>  <SCORE.RESTR.norm>
5.02558e-05

>  <SCORE.SYSTEM>
0

>  <SCORE.SYSTEM.CONST>
0

>  <SCORE.SYSTEM.DIHEDRAL>
0

>  <SCORE.SYSTEM.SOLV>
0

>  <SCORE.SYSTEM.norm>
0

>  <SCORE.heavy>
18

>  <SCORE.norm>
-0.750481

>  <RMSD>
2.360

$$$$
lig.pdb
 OpenBabel11021811503D
libRbt.so/2013.1/901 2013/11/27
 18 19  0  0  0  0  0  0  0  0999 V2000
  -13.7770   14.9578    3.4672 C   0  0  0  0  0  0  0  0  0  0  0  0
  -10.5650   11.5553    2.1872 N   0  0  0  0  0  0  0  0  0  0  0  0
   -7.3886   16.0728    0.5532 C   0  0  0  0  0  0  0  0  0  0  0  0
   -3.4561   15.8883    0.5427 O   0  0  0  0  0  0  0  0  0  0  0  0
   -3.4510   16.5895    1.7785 C   0  0  0  0  0  0  0  0  0  0  0  0
   -4.8865   16.9916    2.1690 C   0  0  0  0  0  0  0  0  0  0  0  0
   -6.7432   13.3985    3.0916 C   0  0  0  0  0  0  0  0  0  0  0  0
   -5.4207   14.4272    3.5351 S   0  0  0  0  0  0  0  0  0  0  0  0
   -5.6911   15.7232    2.3485 C   0  0  0  0  0  0  0  0  0  0  0  0
   -6.7963   15.2503    1.6853 C   0  0  0  0  0  0  0  0  0  0  0  0
   -7.3161   14.0504    2.0879 N   0  0  0  0  0  0  0  0  0  0  0  0
   -8.5385   13.4649    1.4313 C   0  0  0  0  0  0  0  0  0  0  0  0
  -10.8755   12.9093    2.3126 C   0  0  0  0  0  0  0  0  0  0  0  0
  -12.1015   13.2843    2.7902 N   0  0  0  0  0  0  0  0  0  0  0  0
  -12.4221   14.5742    2.9216 C   0  0  0  0  0  0  0  0  0  0  0  0
  -11.5506   15.5296    2.5853 N   0  0  0  0  0  0  0  0  0  0  0  0
  -10.3141   15.2334    2.1074 C   0  0  0  0  0  0  0  0  0  0  0  0
   -9.9174   13.9003    1.9532 C   0  0  0  0  0  0  0  0  0  0  0  0
  5  4  1  0  0  0  0
  5  6  1  0  0  0  0
  7  8  2  0  0  0  0
  7 11  1  0  0  0  0
  8  9  1  0  0  0  0
  9 10  2  0  0  0  0
  9  6  1  0  0  0  0
 10  3  1  0  0  0  0
 11 12  1  0  0  0  0
 11 10  1  0  0  0  0
 12 18  1  0  0  0  0
 13  2  1  0  0  0  0
 13 14  2  0  0  0  0
 15 14  1  0  0  0  0
 15  1  1  0  0  0  0
 16 15  2  0  0  0  0
 17 18  2  0  0  0  0
 17 16  1  0  0  0  0
 18 13  1  0  0  0  0
M  END
>  <CHROM.1>
62.05099136,62.39166257,92.95516931,-128.19992821,-8.14535014,14.66579495
2.27024150,2.89263641,-0.04484578,2.90902497

>  <Name>
lig.pdb

>  <RI>
0

>  <Rbt.Current_Directory>
/home/itssahil/PROJECTS/Mol_Feturizer/New_Systems/rnas/4nyg

>  <Rbt.Executable>
rbdock ($Id: //depot/dev/client3/rdock/2013.1/src/exe/rbdock.cxx#4 $)

>  <Rbt.Library>
libRbt.so (2013.1, Build901 2013/11/27)

>  <Rbt.Parameter_File>
/export/apps/rDock/src/rDock_2013.1_src/data/scripts/dock_solv.prm

>  <Rbt.Receptor>
prm/pocket_docking_2.prm

>  <SCORE>
-13.0184

>  <SCORE.INTER>
-12.802

>  <SCORE.INTER.CONST>
1

>  <SCORE.INTER.POLAR>
0

>  <SCORE.INTER.ROT>
4

>  <SCORE.INTER.SOLV>
9.14754

>  <SCORE.INTER.VDW>
-17.8505

>  <SCORE.INTER.norm>
-0.711222

>  <SCORE.INTRA>
-0.393394

>  <SCORE.INTRA.DIHEDRAL>
0.00886542

>  <SCORE.INTRA.DIHEDRAL.0>
3.20029

>  <SCORE.INTRA.POLAR>
0

>  <SCORE.INTRA.POLAR.0>
0

>  <SCORE.INTRA.REPUL>
0

>  <SCORE.INTRA.REPUL.0>
0

>  <SCORE.INTRA.SOLV>
0.599029

>  <SCORE.INTRA.SOLV.lig_0>
-19.3885

>  <SCORE.INTRA.VDW>
-0.697342

>  <SCORE.INTRA.VDW.0>
-1.12705

>  <SCORE.INTRA.norm>
-0.0218552

>  <SCORE.RESTR>
0.177035

>  <SCORE.RESTR.CAVITY>
0.177035

>  <SCORE.RESTR.norm>
0.00983528

>  <SCORE.SYSTEM>
0

>  <SCORE.SYSTEM.CONST>
0

>  <SCORE.SYSTEM.DIHEDRAL>
0

>  <SCORE.SYSTEM.SOLV>
0

>  <SCORE.SYSTEM.norm>
0

>  <SCORE.heavy>
18

>  <SCORE.norm>
-0.723242

>  <RMSD>
2.373

$$$$
lig.pdb
 OpenBabel11021811503D
libRbt.so/2013.1/901 2013/11/27
 18 19  0  0  0  0  0  0  0  0999 V2000
  -12.5907   13.1915    3.2360 C   0  0  0  0  0  0  0  0  0  0  0  0
   -8.5361   13.5120    0.5923 N   0  0  0  0  0  0  0  0  0  0  0  0
   -5.7560   15.5103    0.3317 C   0  0  0  0  0  0  0  0  0  0  0  0
   -2.1483   16.3886    3.7672 O   0  0  0  0  0  0  0  0  0  0  0  0
   -3.5349   16.6443    3.5913 C   0  0  0  0  0  0  0  0  0  0  0  0
   -3.8098   17.1256    2.1533 C   0  0  0  0  0  0  0  0  0  0  0  0
   -7.8521   18.0558    2.1032 C   0  0  0  0  0  0  0  0  0  0  0  0
   -6.3388   18.4976    2.8233 S   0  0  0  0  0  0  0  0  0  0  0  0
   -5.3039   17.3076    2.0026 C   0  0  0  0  0  0  0  0  0  0  0  0
   -6.2234   16.6448    1.2279 C   0  0  0  0  0  0  0  0  0  0  0  0
   -7.5282   17.0500    1.3006 N   0  0  0  0  0  0  0  0  0  0  0  0
   -8.6009   16.3940    0.4718 C   0  0  0  0  0  0  0  0  0  0  0  0
   -9.5944   14.1607    1.2283 C   0  0  0  0  0  0  0  0  0  0  0  0
  -10.5445   13.4280    1.8858 N   0  0  0  0  0  0  0  0  0  0  0  0
  -11.5662   14.0256    2.5044 C   0  0  0  0  0  0  0  0  0  0  0  0
  -11.6849   15.3565    2.4918 N   0  0  0  0  0  0  0  0  0  0  0  0
  -10.7788   16.1491    1.8625 C   0  0  0  0  0  0  0  0  0  0  0  0
   -9.6831   15.5822    1.2021 C   0  0  0  0  0  0  0  0  0  0  0  0
  5  4  1  0  0  0  0
  5  6  1  0  0  0  0
  7  8  2  0  0  0  0
  7 11  1  0  0  0  0
  8  9  1  0  0  0  0
  9 10  2  0  0  0  0
  9  6  1  0  0  0  0
 10  3  1  0  0  0  0
 11 12  1  0  0  0  0
 11 10  1  0  0  0  0
 12 18  1  0  0  0  0
 13  2  1  0  0  0  0
 13 14  2  0  0  0  0
 15 14  1  0  0  0  0
 15  1  1  0  0  0  0
 16 15  2  0  0  0  0
 17 18  2  0  0  0  0
 17 16  1  0  0  0  0
 18 13  1  0  0  0  0
M  END
>  <CHROM.1>
176.92724866,66.17422504,-67.96835942,-101.18804173,-7.71907123,16.01221985
2.01715737,-2.73893361,-0.03033874,0.13821259

>  <Name>
lig.pdb

>  <RI>
0

>  <Rbt.Current_Directory>
/home/itssahil/PROJECTS/Mol_Feturizer/New_Systems/rnas/4nyg

>  <Rbt.Executable>
rbdock ($Id: //depot/dev/client3/rdock/2013.1/src/exe/rbdock.cxx#4 $)

>  <Rbt.Library>
libRbt.so (2013.1, Build901 2013/11/27)

>  <Rbt.Parameter_File>
/export/apps/rDock/src/rDock_2013.1_src/data/scripts/dock_solv.prm

>  <Rbt.Receptor>
prm/pocket_docking_8.prm

>  <SCORE>
-13.5349

>  <SCORE.INTER>
-13.1994

>  <SCORE.INTER.CONST>
1

>  <SCORE.INTER.POLAR>
0

>  <SCORE.INTER.ROT>
4

>  <SCORE.INTER.SOLV>
11.559

>  <SCORE.INTER.VDW>
-18.9193

>  <SCORE.INTER.norm>
-0.733301

>  <SCORE.INTRA>
-0.339213

>  <SCORE.INTRA.DIHEDRAL>
-0.00286766

>  <SCORE.INTRA.DIHEDRAL.0>
3.20029

>  <SCORE.INTRA.POLAR>
0

>  <SCORE.INTRA.POLAR.0>
0

>  <SCORE.INTRA.REPUL>
0

>  <SCORE.INTRA.REPUL.0>
0

>  <SCORE.INTRA.SOLV>
0.526752

>  <SCORE.INTRA.SOLV.lig_0>
-19.3885

>  <SCORE.INTRA.VDW>
-0.601155

>  <SCORE.INTRA.VDW.0>
-1.12705

>  <SCORE.INTRA.norm>
-0.0188452

>  <SCORE.RESTR>
0.00377662

>  <SCORE.RESTR.CAVITY>
0.00377662

>  <SCORE.RESTR.norm>
0.000209812

>  <SCORE.SYSTEM>
0

>  <SCORE.SYSTEM.CONST>
0

>  <SCORE.SYSTEM.DIHEDRAL>
0

>  <SCORE.SYSTEM.SOLV>
0

>  <SCORE.SYSTEM.norm>
0

>  <SCORE.heavy>
18

>  <SCORE.norm>
-0.751936

>  <RMSD>
2.421

$$$$
lig.pdb
 OpenBabel11021811503D
libRbt.so/2013.1/901 2013/11/27
 18 19  0  0  0  0  0  0  0  0999 V2000
  -13.6026   14.7807    3.2637 C   0  0  0  0  0  0  0  0  0  0  0  0
   -8.7951   15.3585    2.9685 N   0  0  0  0  0  0  0  0  0  0  0  0
   -5.5919   13.1394    3.6190 C   0  0  0  0  0  0  0  0  0  0  0  0
   -4.5047   17.2688    1.6764 O   0  0  0  0  0  0  0  0  0  0  0  0
   -3.5983   16.3144    1.1412 C   0  0  0  0  0  0  0  0  0  0  0  0
   -3.7915   14.9504    1.8318 C   0  0  0  0  0  0  0  0  0  0  0  0
   -7.6179   13.9525    0.5783 C   0  0  0  0  0  0  0  0  0  0  0  0
   -6.2036   14.8481    0.1292 S   0  0  0  0  0  0  0  0  0  0  0  0
   -5.2040   14.4856    1.5540 C   0  0  0  0  0  0  0  0  0  0  0  0
   -6.0564   13.6933    2.2825 C   0  0  0  0  0  0  0  0  0  0  0  0
   -7.2932   13.4364    1.7568 N   0  0  0  0  0  0  0  0  0  0  0  0
   -8.2855   12.5615    2.4766 C   0  0  0  0  0  0  0  0  0  0  0  0
   -9.8934   14.4997    2.9297 C   0  0  0  0  0  0  0  0  0  0  0  0
  -11.1541   14.9993    3.1112 N   0  0  0  0  0  0  0  0  0  0  0  0
  -12.2220   14.1980    3.0763 C   0  0  0  0  0  0  0  0  0  0  0  0
  -12.0816   12.8860    2.8658 N   0  0  0  0  0  0  0  0  0  0  0  0
  -10.8622   12.3191    2.6741 C   0  0  0  0  0  0  0  0  0  0  0  0
   -9.7062   13.1074    2.6931 C   0  0  0  0  0  0  0  0  0  0  0  0
  5  4  1  0  0  0  0
  5  6  1  0  0  0  0
  7  8  2  0  0  0  0
  7 11  1  0  0  0  0
  8  9  1  0  0  0  0
  9 10  2  0  0  0  0
  9  6  1  0  0  0  0
 10  3  1  0  0  0  0
 11 12  1  0  0  0  0
 11 10  1  0  0  0  0
 12 18  1  0  0  0  0
 13  2  1  0  0  0  0
 13 14  2  0  0  0  0
 15 14  1  0  0  0  0
 15  1  1  0  0  0  0
 16 15  2  0  0  0  0
 17 18  2  0  0  0  0
 17 16  1  0  0  0  0
 18 13  1  0  0  0  0
M  END
>  <CHROM.1>
61.49236242,29.60657108,-52.46732458,-34.55887988,-7.96049287,14.34589746
2.11068344,2.90844859,-0.18946092,2.97337122

>  <Name>
lig.pdb

>  <RI>
0

>  <Rbt.Current_Directory>
/home/itssahil/PROJECTS/Mol_Feturizer/New_Systems/rnas/4nyg

>  <Rbt.Executable>
rbdock ($Id: //depot/dev/client3/rdock/2013.1/src/exe/rbdock.cxx#4 $)

>  <Rbt.Library>
libRbt.so (2013.1, Build901 2013/11/27)

>  <Rbt.Parameter_File>
/export/apps/rDock/src/rDock_2013.1_src/data/scripts/dock_solv.prm

>  <Rbt.Receptor>
prm/pocket_docking_2.prm

>  <SCORE>
-11.629

>  <SCORE.INTER>
-12.914

>  <SCORE.INTER.CONST>
1

>  <SCORE.INTER.POLAR>
0

>  <SCORE.INTER.ROT>
4

>  <SCORE.INTER.SOLV>
8.2023

>  <SCORE.INTER.VDW>
-17.6101

>  <SCORE.INTER.norm>
-0.717445

>  <SCORE.INTRA>
1.26982

>  <SCORE.INTRA.DIHEDRAL>
1.33989

>  <SCORE.INTRA.DIHEDRAL.0>
3.20029

>  <SCORE.INTRA.POLAR>
0

>  <SCORE.INTRA.POLAR.0>
0

>  <SCORE.INTRA.REPUL>
0

>  <SCORE.INTRA.REPUL.0>
0

>  <SCORE.INTRA.SOLV>
1.894

>  <SCORE.INTRA.SOLV.lig_0>
-19.3885

>  <SCORE.INTRA.VDW>
-0.347125

>  <SCORE.INTRA.VDW.0>
-1.12705

>  <SCORE.INTRA.norm>
0.0705455

>  <SCORE.RESTR>
0.015235

>  <SCORE.RESTR.CAVITY>
0.015235

>  <SCORE.RESTR.norm>
0.000846389

>  <SCORE.SYSTEM>
0

>  <SCORE.SYSTEM.CONST>
0

>  <SCORE.SYSTEM.DIHEDRAL>
0

>  <SCORE.SYSTEM.SOLV>
0

>  <SCORE.SYSTEM.norm>
0

>  <SCORE.heavy>
18

>  <SCORE.norm>
-0.646053

>  <RMSD>
2.447

$$$$
lig.pdb
 OpenBabel11021811503D
libRbt.so/2013.1/901 2013/11/27
 18 19  0  0  0  0  0  0  0  0999 V2000
  -13.7167   14.5201    3.3241 C   0  0  0  0  0  0  0  0  0  0  0  0
   -9.0012   15.5751    2.8962 N   0  0  0  0  0  0  0  0  0  0  0  0
   -5.2820   13.1370    3.0048 C   0  0  0  0  0  0  0  0  0  0  0  0
   -3.9718   16.3315    2.9722 O   0  0  0  0  0  0  0  0  0  0  0  0
   -3.6608   16.3788    1.5865 C   0  0  0  0  0  0  0  0  0  0  0  0
   -3.8355   14.9848    0.9533 C   0  0  0  0  0  0  0  0  0  0  0  0
   -7.9195   14.3316    0.6325 C   0  0  0  0  0  0  0  0  0  0  0  0
   -6.5914   15.1762   -0.0935 S   0  0  0  0  0  0  0  0  0  0  0  0
   -5.3055   14.6318    1.0068 C   0  0  0  0  0  0  0  0  0  0  0  0
   -6.0139   13.8319    1.8689 C   0  0  0  0  0  0  0  0  0  0  0  0
   -7.3583   13.6965    1.6534 N   0  0  0  0  0  0  0  0  0  0  0  0
   -8.2106   12.8236    2.5364 C   0  0  0  0  0  0  0  0  0  0  0  0
  -10.0044   14.6065    2.9249 C   0  0  0  0  0  0  0  0  0  0  0  0
  -11.3072   14.9821    3.1079 N   0  0  0  0  0  0  0  0  0  0  0  0
  -12.2861   14.0740    3.1368 C   0  0  0  0  0  0  0  0  0  0  0  0
  -12.0131   12.7743    2.9904 N   0  0  0  0  0  0  0  0  0  0  0  0
  -10.7444   12.3271    2.8015 C   0  0  0  0  0  0  0  0  0  0  0  0
   -9.6768   13.2305    2.7554 C   0  0  0  0  0  0  0  0  0  0  0  0
  5  4  1  0  0  0  0
  5  6  1  0  0  0  0
  7  8  2  0  0  0  0
  7 11  1  0  0  0  0
  8  9  1  0  0  0  0
  9 10  2  0  0  0  0
  9  6  1  0  0  0  0
 10  3  1  0  0  0  0
 11 12  1  0  0  0  0
 11 10  1  0  0  0  0
 12 18  1  0  0  0  0
 13  2  1  0  0  0  0
 13 14  2  0  0  0  0
 15 14  1  0  0  0  0
 15  1  1  0  0  0  0
 16 15  2  0  0  0  0
 17 18  2  0  0  0  0
 17 16  1  0  0  0  0
 18 13  1  0  0  0  0
M  END
>  <CHROM.1>
66.15676172,80.26267262,-32.35949495,-39.72352586,-8.00333722,14.38872473
2.07832837,2.90319391,-0.16150930,2.86453405

>  <Name>
lig.pdb

>  <RI>
0

>  <Rbt.Current_Directory>
/home/itssahil/PROJECTS/Mol_Feturizer/New_Systems/rnas/4nyg

>  <Rbt.Executable>
rbdock ($Id: //depot/dev/client3/rdock/2013.1/src/exe/rbdock.cxx#4 $)

>  <Rbt.Library>
libRbt.so (2013.1, Build901 2013/11/27)

>  <Rbt.Parameter_File>
/export/apps/rDock/src/rDock_2013.1_src/data/scripts/dock_solv.prm

>  <Rbt.Receptor>
prm/pocket_docking_2.prm

>  <SCORE>
-12.0896

>  <SCORE.INTER>
-13.2779

>  <SCORE.INTER.CONST>
1

>  <SCORE.INTER.POLAR>
0

>  <SCORE.INTER.ROT>
4

>  <SCORE.INTER.SOLV>
8.46383

>  <SCORE.INTER.VDW>
-17.9399

>  <SCORE.INTER.norm>
-0.737664

>  <SCORE.INTRA>
1.06776

>  <SCORE.INTRA.DIHEDRAL>
0.805064

>  <SCORE.INTRA.DIHEDRAL.0>
3.20029

>  <SCORE.INTRA.POLAR>
0

>  <SCORE.INTRA.POLAR.0>
0

>  <SCORE.INTRA.REPUL>
0

>  <SCORE.INTRA.REPUL.0>
0

>  <SCORE.INTRA.SOLV>
1.88558

>  <SCORE.INTRA.SOLV.lig_0>
-19.3885

>  <SCORE.INTRA.VDW>
-0.277563

>  <SCORE.INTRA.VDW.0>
-1.12705

>  <SCORE.INTRA.norm>
0.0593199

>  <SCORE.RESTR>
0.120542

>  <SCORE.RESTR.CAVITY>
0.120542

>  <SCORE.RESTR.norm>
0.00669677

>  <SCORE.SYSTEM>
0

>  <SCORE.SYSTEM.CONST>
0

>  <SCORE.SYSTEM.DIHEDRAL>
0

>  <SCORE.SYSTEM.SOLV>
0

>  <SCORE.SYSTEM.norm>
0

>  <SCORE.heavy>
18

>  <SCORE.norm>
-0.671647

>  <RMSD>
2.460

$$$$
lig.pdb
 OpenBabel11021811503D
libRbt.so/2013.1/901 2013/11/27
 18 19  0  0  0  0  0  0  0  0999 V2000
  -12.7732   14.9044    3.3366 C   0  0  0  0  0  0  0  0  0  0  0  0
   -9.5174   17.1876    0.5583 N   0  0  0  0  0  0  0  0  0  0  0  0
   -5.6467   13.0278    0.5005 C   0  0  0  0  0  0  0  0  0  0  0  0
   -2.3803   15.0167   -0.5717 O   0  0  0  0  0  0  0  0  0  0  0  0
   -2.0908   15.1947    0.8080 C   0  0  0  0  0  0  0  0  0  0  0  0
   -3.1544   14.4883    1.6711 C   0  0  0  0  0  0  0  0  0  0  0  0
   -6.6263   16.6196    0.8888 C   0  0  0  0  0  0  0  0  0  0  0  0
   -5.0113   16.7794    1.4975 S   0  0  0  0  0  0  0  0  0  0  0  0
   -4.5015   15.0848    1.3276 C   0  0  0  0  0  0  0  0  0  0  0  0
   -5.6391   14.5150    0.8119 C   0  0  0  0  0  0  0  0  0  0  0  0
   -6.7183   15.3284    0.5974 N   0  0  0  0  0  0  0  0  0  0  0  0
   -8.0006   14.7938    0.0161 C   0  0  0  0  0  0  0  0  0  0  0  0
   -9.9585   15.9988    1.1393 C   0  0  0  0  0  0  0  0  0  0  0  0
  -11.0796   16.0003    1.9236 N   0  0  0  0  0  0  0  0  0  0  0  0
  -11.5235   14.8748    2.4893 C   0  0  0  0  0  0  0  0  0  0  0  0
  -10.8784   13.7196    2.3035 N   0  0  0  0  0  0  0  0  0  0  0  0
   -9.7608   13.6402    1.5353 C   0  0  0  0  0  0  0  0  0  0  0  0
   -9.2506   14.7839    0.9110 C   0  0  0  0  0  0  0  0  0  0  0  0
  5  4  1  0  0  0  0
  5  6  1  0  0  0  0
  7  8  2  0  0  0  0
  7 11  1  0  0  0  0
  8  9  1  0  0  0  0
  9 10  2  0  0  0  0
  9  6  1  0  0  0  0
 10  3  1  0  0  0  0
 11 12  1  0  0  0  0
 11 10  1  0  0  0  0
 12 18  1  0  0  0  0
 13  2  1  0  0  0  0
 13 14  2  0  0  0  0
 15 14  1  0  0  0  0
 15  1  1  0  0  0  0
 16 15  2  0  0  0  0
 17 18  2  0  0  0  0
 17 16  1  0  0  0  0
 18 13  1  0  0  0  0
M  END
>  <CHROM.1>
-59.10578694,-60.42521103,-67.46521487,77.02569331,-7.24554661,15.21605195
1.21500506,-3.11777159,0.17548164,-0.01445520

>  <Name>
lig.pdb

>  <RI>
0

>  <Rbt.Current_Directory>
/home/itssahil/PROJECTS/Mol_Feturizer/New_Systems/rnas/4nyg

>  <Rbt.Executable>
rbdock ($Id: //depot/dev/client3/rdock/2013.1/src/exe/rbdock.cxx#4 $)

>  <Rbt.Library>
libRbt.so (2013.1, Build901 2013/11/27)

>  <Rbt.Parameter_File>
/export/apps/rDock/src/rDock_2013.1_src/data/scripts/dock_solv.prm

>  <Rbt.Receptor>
prm/pocket_docking_6.prm

>  <SCORE>
-9.52036

>  <SCORE.INTER>
-9.37864

>  <SCORE.INTER.CONST>
1

>  <SCORE.INTER.POLAR>
0

>  <SCORE.INTER.ROT>
4

>  <SCORE.INTER.SOLV>
9.26602

>  <SCORE.INTER.VDW>
-15.6078

>  <SCORE.INTER.norm>
-0.521036

>  <SCORE.INTRA>
-0.141717

>  <SCORE.INTRA.DIHEDRAL>
-0.1005

>  <SCORE.INTRA.DIHEDRAL.0>
3.20029

>  <SCORE.INTRA.POLAR>
0

>  <SCORE.INTRA.POLAR.0>
0

>  <SCORE.INTRA.REPUL>
0

>  <SCORE.INTRA.REPUL.0>
0

>  <SCORE.INTRA.SOLV>
1.1094

>  <SCORE.INTRA.SOLV.lig_0>
-19.3885

>  <SCORE.INTRA.VDW>
-0.646167

>  <SCORE.INTRA.VDW.0>
-1.12705

>  <SCORE.INTRA.norm>
-0.00787319

>  <SCORE.RESTR>
0

>  <SCORE.RESTR.CAVITY>
0

>  <SCORE.RESTR.norm>
0

>  <SCORE.SYSTEM>
0

>  <SCORE.SYSTEM.CONST>
0

>  <SCORE.SYSTEM.DIHEDRAL>
0

>  <SCORE.SYSTEM.SOLV>
0

>  <SCORE.SYSTEM.norm>
0

>  <SCORE.heavy>
18

>  <SCORE.norm>
-0.528909

>  <RMSD>
2.487

$$$$
lig.pdb
 OpenBabel11021811503D
libRbt.so/2013.1/901 2013/11/27
 18 19  0  0  0  0  0  0  0  0999 V2000
  -13.6013   14.5837    3.3527 C   0  0  0  0  0  0  0  0  0  0  0  0
   -8.8205   15.1763    2.7828 N   0  0  0  0  0  0  0  0  0  0  0  0
   -5.9971   13.2286    3.9145 C   0  0  0  0  0  0  0  0  0  0  0  0
   -4.4856   17.3021    1.3560 O   0  0  0  0  0  0  0  0  0  0  0  0
   -4.2669   16.7119    2.6299 C   0  0  0  0  0  0  0  0  0  0  0  0
   -4.0466   15.1938    2.4831 C   0  0  0  0  0  0  0  0  0  0  0  0
   -7.4215   13.8160    0.5031 C   0  0  0  0  0  0  0  0  0  0  0  0
   -6.0361   14.8426    0.3276 S   0  0  0  0  0  0  0  0  0  0  0  0
   -5.3215   14.5907    1.9359 C   0  0  0  0  0  0  0  0  0  0  0  0
   -6.2268   13.7242    2.4966 C   0  0  0  0  0  0  0  0  0  0  0  0
   -7.2991   13.3433    1.7369 N   0  0  0  0  0  0  0  0  0  0  0  0
   -8.3311   12.3808    2.2629 C   0  0  0  0  0  0  0  0  0  0  0  0
   -9.9166   14.3140    2.8070 C   0  0  0  0  0  0  0  0  0  0  0  0
  -11.1663   14.8098    3.0603 N   0  0  0  0  0  0  0  0  0  0  0  0
  -12.2320   14.0052    3.0867 C   0  0  0  0  0  0  0  0  0  0  0  0
  -12.0998   12.6935    2.8687 N   0  0  0  0  0  0  0  0  0  0  0  0
  -10.8915   12.1304    2.6076 C   0  0  0  0  0  0  0  0  0  0  0  0
   -9.7388   12.9223    2.5603 C   0  0  0  0  0  0  0  0  0  0  0  0
  5  4  1  0  0  0  0
  5  6  1  0  0  0  0
  7  8  2  0  0  0  0
  7 11  1  0  0  0  0
  8  9  1  0  0  0  0
  9 10  2  0  0  0  0
  9  6  1  0  0  0  0
 10  3  1  0  0  0  0
 11 12  1  0  0  0  0
 11 10  1  0  0  0  0
 12 18  1  0  0  0  0
 13  2  1  0  0  0  0
 13 14  2  0  0  0  0
 15 14  1  0  0  0  0
 15  1  1  0  0  0  0
 16 15  2  0  0  0  0
 17 18  2  0  0  0  0
 17 16  1  0  0  0  0
 18 13  1  0  0  0  0
M  END
>  <CHROM.1>
-63.78625887,66.75295698,-70.26028915,-22.59884374,-8.02502869,14.29487300
2.23592647,2.88593956,-0.18207989,-3.12487759

>  <Name>
lig.pdb

>  <RI>
0

>  <Rbt.Current_Directory>
/home/itssahil/PROJECTS/Mol_Feturizer/New_Systems/rnas/4nyg

>  <Rbt.Executable>
rbdock ($Id: //depot/dev/client3/rdock/2013.1/src/exe/rbdock.cxx#4 $)

>  <Rbt.Library>
libRbt.so (2013.1, Build901 2013/11/27)

>  <Rbt.Parameter_File>
/export/apps/rDock/src/rDock_2013.1_src/data/scripts/dock_solv.prm

>  <Rbt.Receptor>
prm/pocket_docking_2.prm

>  <SCORE>
-13.5433

>  <SCORE.INTER>
-13.9066

>  <SCORE.INTER.CONST>
1

>  <SCORE.INTER.POLAR>
0

>  <SCORE.INTER.ROT>
4

>  <SCORE.INTER.SOLV>
8.72313

>  <SCORE.INTER.VDW>
-18.4454

>  <SCORE.INTER.norm>
-0.772589

>  <SCORE.INTRA>
0.361972

>  <SCORE.INTRA.DIHEDRAL>
0.0202305

>  <SCORE.INTRA.DIHEDRAL.0>
3.20029

>  <SCORE.INTRA.POLAR>
0

>  <SCORE.INTRA.POLAR.0>
0

>  <SCORE.INTRA.REPUL>
0

>  <SCORE.INTRA.REPUL.0>
0

>  <SCORE.INTRA.SOLV>
2.13096

>  <SCORE.INTRA.SOLV.lig_0>
-19.3885

>  <SCORE.INTRA.VDW>
-0.713624

>  <SCORE.INTRA.VDW.0>
-1.12705

>  <SCORE.INTRA.norm>
0.0201096

>  <SCORE.RESTR>
0.00132005

>  <SCORE.RESTR.CAVITY>
0.00132005

>  <SCORE.RESTR.norm>
7.33362e-05

>  <SCORE.SYSTEM>
0

>  <SCORE.SYSTEM.CONST>
0

>  <SCORE.SYSTEM.DIHEDRAL>
0

>  <SCORE.SYSTEM.SOLV>
0

>  <SCORE.SYSTEM.norm>
0

>  <SCORE.heavy>
18

>  <SCORE.norm>
-0.752406

>  <RMSD>
2.515

$$$$
lig.pdb
 OpenBabel11021811503D
libRbt.so/2013.1/901 2013/11/27
 18 19  0  0  0  0  0  0  0  0999 V2000
  -13.7062   14.6441    3.4479 C   0  0  0  0  0  0  0  0  0  0  0  0
   -9.7264   16.4471    1.3403 N   0  0  0  0  0  0  0  0  0  0  0  0
   -6.5577   16.1602    0.6204 C   0  0  0  0  0  0  0  0  0  0  0  0
   -1.7961   16.6618    2.6548 O   0  0  0  0  0  0  0  0  0  0  0  0
   -2.8626   15.7243    2.6040 C   0  0  0  0  0  0  0  0  0  0  0  0
   -4.2180   16.4555    2.6585 C   0  0  0  0  0  0  0  0  0  0  0  0
   -6.9769   13.3896    3.1023 C   0  0  0  0  0  0  0  0  0  0  0  0
   -5.5469   14.0769    3.8001 S   0  0  0  0  0  0  0  0  0  0  0  0
   -5.3104   15.4092    2.6470 C   0  0  0  0  0  0  0  0  0  0  0  0
   -6.3678   15.2132    1.7935 C   0  0  0  0  0  0  0  0  0  0  0  0
   -7.2088   14.1652    2.0510 N   0  0  0  0  0  0  0  0  0  0  0  0
   -8.4054   13.8870    1.1798 C   0  0  0  0  0  0  0  0  0  0  0  0
  -10.4039   15.3386    1.8478 C   0  0  0  0  0  0  0  0  0  0  0  0
  -11.6526   15.4923    2.3854 N   0  0  0  0  0  0  0  0  0  0  0  0
  -12.3228   14.4463    2.8757 C   0  0  0  0  0  0  0  0  0  0  0  0
  -11.7851   13.2232    2.8547 N   0  0  0  0  0  0  0  0  0  0  0  0
  -10.5517   12.9933    2.3341 C   0  0  0  0  0  0  0  0  0  0  0  0
   -9.8031   14.0478    1.7995 C   0  0  0  0  0  0  0  0  0  0  0  0
  5  4  1  0  0  0  0
  5  6  1  0  0  0  0
  7  8  2  0  0  0  0
  7 11  1  0  0  0  0
  8  9  1  0  0  0  0
  9 10  2  0  0  0  0
  9  6  1  0  0  0  0
 10  3  1  0  0  0  0
 11 12  1  0  0  0  0
 11 10  1  0  0  0  0
 12 18  1  0  0  0  0
 13  2  1  0  0  0  0
 13 14  2  0  0  0  0
 15 14  1  0  0  0  0
 15  1  1  0  0  0  0
 16 15  2  0  0  0  0
 17 18  2  0  0  0  0
 17 16  1  0  0  0  0
 18 13  1  0  0  0  0
M  END
>  <CHROM.1>
-178.17649321,57.75010875,64.68088245,83.80223777,-7.82654593,14.85133341
2.43659693,-3.01752004,-0.09869145,-0.58345964

>  <Name>
lig.pdb

>  <RI>
0

>  <Rbt.Current_Directory>
/home/itssahil/PROJECTS/Mol_Feturizer/New_Systems/rnas/4nyg

>  <Rbt.Executable>
rbdock ($Id: //depot/dev/client3/rdock/2013.1/src/exe/rbdock.cxx#4 $)

>  <Rbt.Library>
libRbt.so (2013.1, Build901 2013/11/27)

>  <Rbt.Parameter_File>
/export/apps/rDock/src/rDock_2013.1_src/data/scripts/dock_solv.prm

>  <Rbt.Receptor>
prm/pocket_docking_2.prm

>  <SCORE>
-11.5295

>  <SCORE.INTER>
-11.4291

>  <SCORE.INTER.CONST>
1

>  <SCORE.INTER.POLAR>
0

>  <SCORE.INTER.ROT>
4

>  <SCORE.INTER.SOLV>
8.07301

>  <SCORE.INTER.VDW>
-16.5771

>  <SCORE.INTER.norm>
-0.63495

>  <SCORE.INTRA>
-0.20901

>  <SCORE.INTRA.DIHEDRAL>
-0.0400162

>  <SCORE.INTRA.DIHEDRAL.0>
3.20029

>  <SCORE.INTRA.POLAR>
0

>  <SCORE.INTRA.POLAR.0>
0

>  <SCORE.INTRA.REPUL>
0

>  <SCORE.INTRA.REPUL.0>
0

>  <SCORE.INTRA.SOLV>
0.742698

>  <SCORE.INTRA.SOLV.lig_0>
-19.3885

>  <SCORE.INTRA.VDW>
-0.56035

>  <SCORE.INTRA.VDW.0>
-1.12705

>  <SCORE.INTRA.norm>
-0.0116116

>  <SCORE.RESTR>
0.108579

>  <SCORE.RESTR.CAVITY>
0.108579

>  <SCORE.RESTR.norm>
0.00603219

>  <SCORE.SYSTEM>
0

>  <SCORE.SYSTEM.CONST>
0

>  <SCORE.SYSTEM.DIHEDRAL>
0

>  <SCORE.SYSTEM.SOLV>
0

>  <SCORE.SYSTEM.norm>
0

>  <SCORE.heavy>
18

>  <SCORE.norm>
-0.640529

>  <RMSD>
2.626

$$$$
lig.pdb
 OpenBabel11021811503D
libRbt.so/2013.1/901 2013/11/27
 18 19  0  0  0  0  0  0  0  0999 V2000
  -13.7147   14.6537    3.4419 C   0  0  0  0  0  0  0  0  0  0  0  0
   -9.6988   16.3938    1.3497 N   0  0  0  0  0  0  0  0  0  0  0  0
   -6.6029   16.1056    0.6156 C   0  0  0  0  0  0  0  0  0  0  0  0
   -1.8445   16.6704    2.4344 O   0  0  0  0  0  0  0  0  0  0  0  0
   -2.9059   15.7272    2.3811 C   0  0  0  0  0  0  0  0  0  0  0  0
   -4.2543   16.4271    2.6396 C   0  0  0  0  0  0  0  0  0  0  0  0
   -6.9759   13.3304    3.0997 C   0  0  0  0  0  0  0  0  0  0  0  0
   -5.5495   14.0336    3.7889 S   0  0  0  0  0  0  0  0  0  0  0  0
   -5.3350   15.3686    2.6346 C   0  0  0  0  0  0  0  0  0  0  0  0
   -6.3952   15.1608    1.7874 C   0  0  0  0  0  0  0  0  0  0  0  0
   -7.2229   14.1033    2.0499 N   0  0  0  0  0  0  0  0  0  0  0  0
   -8.4215   13.8118    1.1859 C   0  0  0  0  0  0  0  0  0  0  0  0
  -10.3966   15.2957    1.8524 C   0  0  0  0  0  0  0  0  0  0  0  0
  -11.6440   15.4694    2.3871 N   0  0  0  0  0  0  0  0  0  0  0  0
  -12.3333   14.4337    2.8728 C   0  0  0  0  0  0  0  0  0  0  0  0
  -11.8166   13.2017    2.8499 N   0  0  0  0  0  0  0  0  0  0  0  0
  -10.5859   12.9520    2.3321 C   0  0  0  0  0  0  0  0  0  0  0  0
   -9.8179   13.9950    1.8023 C   0  0  0  0  0  0  0  0  0  0  0  0
  5  4  1  0  0  0  0
  5  6  1  0  0  0  0
  7  8  2  0  0  0  0
  7 11  1  0  0  0  0
  8  9  1  0  0  0  0
  9 10  2  0  0  0  0
  9  6  1  0  0  0  0
 10  3  1  0  0  0  0
 11 12  1  0  0  0  0
 11 10  1  0  0  0  0
 12 18  1  0  0  0  0
 13  2  1  0  0  0  0
 13 14  2  0  0  0  0
 15 14  1  0  0  0  0
 15  1  1  0  0  0  0
 16 15  2  0  0  0  0
 17 18  2  0  0  0  0
 17 16  1  0  0  0  0
 18 13  1  0  0  0  0
M  END
>  <CHROM.1>
-177.41561063,65.44842164,66.36451755,82.16786498,-7.84336255,14.81586495
2.40798206,3.00733355,0.08602540,2.57114309

>  <Name>
lig.pdb

>  <RI>
0

>  <Rbt.Current_Directory>
/home/itssahil/PROJECTS/Mol_Feturizer/New_Systems/rnas/4nyg

>  <Rbt.Executable>
rbdock ($Id: //depot/dev/client3/rdock/2013.1/src/exe/rbdock.cxx#4 $)

>  <Rbt.Library>
libRbt.so (2013.1, Build901 2013/11/27)

>  <Rbt.Parameter_File>
/export/apps/rDock/src/rDock_2013.1_src/data/scripts/dock_solv.prm

>  <Rbt.Receptor>
prm/pocket_docking_2.prm

>  <SCORE>
-11.584

>  <SCORE.INTER>
-11.4966

>  <SCORE.INTER.CONST>
1

>  <SCORE.INTER.POLAR>
0

>  <SCORE.INTER.ROT>
4

>  <SCORE.INTER.SOLV>
8.03358

>  <SCORE.INTER.VDW>
-16.6089

>  <SCORE.INTER.norm>
-0.638697

>  <SCORE.INTRA>
-0.202165

>  <SCORE.INTRA.DIHEDRAL>
0.0184338

>  <SCORE.INTRA.DIHEDRAL.0>
3.20029

>  <SCORE.INTRA.POLAR>
0

>  <SCORE.INTRA.POLAR.0>
0

>  <SCORE.INTRA.REPUL>
0

>  <SCORE.INTRA.REPUL.0>
0

>  <SCORE.INTRA.SOLV>
0.7856

>  <SCORE.INTRA.SOLV.lig_0>
-19.3885

>  <SCORE.INTRA.VDW>
-0.604182

>  <SCORE.INTRA.VDW.0>
-1.12705

>  <SCORE.INTRA.norm>
-0.0112314

>  <SCORE.RESTR>
0.114711

>  <SCORE.RESTR.CAVITY>
0.114711

>  <SCORE.RESTR.norm>
0.00637282

>  <SCORE.SYSTEM>
0

>  <SCORE.SYSTEM.CONST>
0

>  <SCORE.SYSTEM.DIHEDRAL>
0

>  <SCORE.SYSTEM.SOLV>
0

>  <SCORE.SYSTEM.norm>
0

>  <SCORE.heavy>
18

>  <SCORE.norm>
-0.643556

>  <RMSD>
2.630

$$$$
lig.pdb
 OpenBabel11021811503D
libRbt.so/2013.1/901 2013/11/27
 18 19  0  0  0  0  0  0  0  0999 V2000
  -14.1394   16.2550    3.4577 C   0  0  0  0  0  0  0  0  0  0  0  0
  -12.0276   12.0501    2.2784 N   0  0  0  0  0  0  0  0  0  0  0  0
   -6.5841   12.3988    2.5168 C   0  0  0  0  0  0  0  0  0  0  0  0
   -4.0954   16.4316    0.6861 O   0  0  0  0  0  0  0  0  0  0  0  0
   -3.8410   15.3265    1.5423 C   0  0  0  0  0  0  0  0  0  0  0  0
   -4.4491   14.0411    0.9484 C   0  0  0  0  0  0  0  0  0  0  0  0
   -8.4793   14.9098    0.4883 C   0  0  0  0  0  0  0  0  0  0  0  0
   -6.8933   15.3863   -0.0232 S   0  0  0  0  0  0  0  0  0  0  0  0
   -5.9522   14.2091    0.9198 C   0  0  0  0  0  0  0  0  0  0  0  0
   -6.9517   13.5320    1.5736 C   0  0  0  0  0  0  0  0  0  0  0  0
   -8.2433   13.9147    1.3337 N   0  0  0  0  0  0  0  0  0  0  0  0
   -9.4039   13.2154    1.9910 C   0  0  0  0  0  0  0  0  0  0  0  0
  -11.9037   13.4221    2.4965 C   0  0  0  0  0  0  0  0  0  0  0  0
  -13.0039   14.1576    2.8435 N   0  0  0  0  0  0  0  0  0  0  0  0
  -12.9108   15.4722    3.0599 C   0  0  0  0  0  0  0  0  0  0  0  0
  -11.7377   16.1004    2.9387 N   0  0  0  0  0  0  0  0  0  0  0  0
  -10.6023   15.4356    2.6007 C   0  0  0  0  0  0  0  0  0  0  0  0
  -10.6346   14.0562    2.3676 C   0  0  0  0  0  0  0  0  0  0  0  0
  5  4  1  0  0  0  0
  5  6  1  0  0  0  0
  7  8  2  0  0  0  0
  7 11  1  0  0  0  0
  8  9  1  0  0  0  0
  9 10  2  0  0  0  0
  9  6  1  0  0  0  0
 10  3  1  0  0  0  0
 11 12  1  0  0  0  0
 11 10  1  0  0  0  0
 12 18  1  0  0  0  0
 13  2  1  0  0  0  0
 13 14  2  0  0  0  0
 15 14  1  0  0  0  0
 15  1  1  0  0  0  0
 16 15  2  0  0  0  0
 17 18  2  0  0  0  0
 17 16  1  0  0  0  0
 18 13  1  0  0  0  0
M  END
>  <CHROM.1>
-64.69585255,64.41006307,-35.54794326,155.91046253,-8.79031466,14.54632031
1.75293428,3.09019523,-0.25474908,3.02136653

>  <Name>
lig.pdb

>  <RI>
0

>  <Rbt.Current_Directory>
/home/itssahil/PROJECTS/Mol_Feturizer/New_Systems/rnas/4nyg

>  <Rbt.Executable>
rbdock ($Id: //depot/dev/client3/rdock/2013.1/src/exe/rbdock.cxx#4 $)

>  <Rbt.Library>
libRbt.so (2013.1, Build901 2013/11/27)

>  <Rbt.Parameter_File>
/export/apps/rDock/src/rDock_2013.1_src/data/scripts/dock_solv.prm

>  <Rbt.Receptor>
prm/pocket_docking_2.prm

>  <SCORE>
-15.6641

>  <SCORE.INTER>
-17.2075

>  <SCORE.INTER.CONST>
1

>  <SCORE.INTER.POLAR>
0

>  <SCORE.INTER.ROT>
4

>  <SCORE.INTER.SOLV>
11.0571

>  <SCORE.INTER.VDW>
-21.424

>  <SCORE.INTER.norm>
-0.955969

>  <SCORE.INTRA>
0.384912

>  <SCORE.INTRA.DIHEDRAL>
0.099852

>  <SCORE.INTRA.DIHEDRAL.0>
3.20029

>  <SCORE.INTRA.POLAR>
0

>  <SCORE.INTRA.POLAR.0>
0

>  <SCORE.INTRA.REPUL>
0

>  <SCORE.INTRA.REPUL.0>
0

>  <SCORE.INTRA.SOLV>
0.454755

>  <SCORE.INTRA.SOLV.lig_0>
-19.3885

>  <SCORE.INTRA.VDW>
0.107608

>  <SCORE.INTRA.VDW.0>
-1.12705

>  <SCORE.INTRA.norm>
0.021384

>  <SCORE.RESTR>
1.15846

>  <SCORE.RESTR.CAVITY>
1.15846

>  <SCORE.RESTR.norm>
0.064359

>  <SCORE.SYSTEM>
0

>  <SCORE.SYSTEM.CONST>
0

>  <SCORE.SYSTEM.DIHEDRAL>
0

>  <SCORE.SYSTEM.SOLV>
0

>  <SCORE.SYSTEM.norm>
0

>  <SCORE.heavy>
18

>  <SCORE.norm>
-0.870227

>  <RMSD>
2.655

$$$$
lig.pdb
 OpenBabel11021811503D
libRbt.so/2013.1/901 2013/11/27
 18 19  0  0  0  0  0  0  0  0999 V2000
  -14.1834   16.2375    3.4972 C   0  0  0  0  0  0  0  0  0  0  0  0
  -12.0229   12.0722    2.2661 N   0  0  0  0  0  0  0  0  0  0  0  0
   -6.5500   12.4753    2.5846 C   0  0  0  0  0  0  0  0  0  0  0  0
   -4.1704   16.5026    0.6915 O   0  0  0  0  0  0  0  0  0  0  0  0
   -3.8701   15.3868    1.5185 C   0  0  0  0  0  0  0  0  0  0  0  0
   -4.4762   14.1021    0.9208 C   0  0  0  0  0  0  0  0  0  0  0  0
   -8.5270   14.9138    0.5457 C   0  0  0  0  0  0  0  0  0  0  0  0
   -6.9606   15.3952   -0.0188 S   0  0  0  0  0  0  0  0  0  0  0  0
   -5.9814   14.2525    0.9277 C   0  0  0  0  0  0  0  0  0  0  0  0
   -6.9555   13.5806    1.6239 C   0  0  0  0  0  0  0  0  0  0  0  0
   -8.2573   13.9427    1.4088 N   0  0  0  0  0  0  0  0  0  0  0  0
   -9.3920   13.2469    2.1133 C   0  0  0  0  0  0  0  0  0  0  0  0
  -11.9092   13.4368    2.5316 C   0  0  0  0  0  0  0  0  0  0  0  0
  -13.0227   14.1607    2.8602 N   0  0  0  0  0  0  0  0  0  0  0  0
  -12.9396   15.4679    3.1211 C   0  0  0  0  0  0  0  0  0  0  0  0
  -11.7638   16.0999    3.0633 N   0  0  0  0  0  0  0  0  0  0  0  0
  -10.6156   15.4465    2.7472 C   0  0  0  0  0  0  0  0  0  0  0  0
  -10.6371   14.0751    2.4699 C   0  0  0  0  0  0  0  0  0  0  0  0
  5  4  1  0  0  0  0
  5  6  1  0  0  0  0
  7  8  2  0  0  0  0
  7 11  1  0  0  0  0
  8  9  1  0  0  0  0
  9 10  2  0  0  0  0
  9  6  1  0  0  0  0
 10  3  1  0  0  0  0
 11 12  1  0  0  0  0
 11 10  1  0  0  0  0
 12 18  1  0  0  0  0
 13  2  1  0  0  0  0
 13 14  2  0  0  0  0
 15 14  1  0  0  0  0
 15  1  1  0  0  0  0
 16 15  2  0  0  0  0
 17 18  2  0  0  0  0
 17 16  1  0  0  0  0
 18 13  1  0  0  0  0
M  END
>  <CHROM.1>
-63.98031619,66.59770754,-34.04569466,150.50330672,-8.81516051,14.57240641
1.79651530,3.08441110,-0.26080404,3.01937385

>  <Name>
lig.pdb

>  <RI>
0

>  <Rbt.Current_Directory>
/home/itssahil/PROJECTS/Mol_Feturizer/New_Systems/rnas/4nyg

>  <Rbt.Executable>
rbdock ($Id: //depot/dev/client3/rdock/2013.1/src/exe/rbdock.cxx#4 $)

>  <Rbt.Library>
libRbt.so (2013.1, Build901 2013/11/27)

>  <Rbt.Parameter_File>
/export/apps/rDock/src/rDock_2013.1_src/data/scripts/dock_solv.prm

>  <Rbt.Receptor>
prm/pocket_docking_2.prm

>  <SCORE>
-15.7661

>  <SCORE.INTER>
-17.2358

>  <SCORE.INTER.CONST>
1

>  <SCORE.INTER.POLAR>
0

>  <SCORE.INTER.ROT>
4

>  <SCORE.INTER.SOLV>
11.0673

>  <SCORE.INTER.VDW>
-21.4463

>  <SCORE.INTER.norm>
-0.957547

>  <SCORE.INTRA>
0.306793

>  <SCORE.INTRA.DIHEDRAL>
0.120223

>  <SCORE.INTRA.DIHEDRAL.0>
3.20029

>  <SCORE.INTRA.POLAR>
0

>  <SCORE.INTRA.POLAR.0>
0

>  <SCORE.INTRA.REPUL>
0

>  <SCORE.INTRA.REPUL.0>
0

>  <SCORE.INTRA.SOLV>
0.451861

>  <SCORE.INTRA.SOLV.lig_0>
-19.3885

>  <SCORE.INTRA.VDW>
0.0207508

>  <SCORE.INTRA.VDW.0>
-1.12705

>  <SCORE.INTRA.norm>
0.017044

>  <SCORE.RESTR>
1.16293

>  <SCORE.RESTR.CAVITY>
1.16293

>  <SCORE.RESTR.norm>
0.0646071

>  <SCORE.SYSTEM>
0

>  <SCORE.SYSTEM.CONST>
0

>  <SCORE.SYSTEM.DIHEDRAL>
0

>  <SCORE.SYSTEM.SOLV>
0

>  <SCORE.SYSTEM.norm>
0

>  <SCORE.heavy>
18

>  <SCORE.norm>
-0.875896

>  <RMSD>
2.664

$$$$
lig.pdb
 OpenBabel11021811503D
libRbt.so/2013.1/901 2013/11/27
 18 19  0  0  0  0  0  0  0  0999 V2000
  -13.7351   14.6001    3.4689 C   0  0  0  0  0  0  0  0  0  0  0  0
   -9.7774   16.4637    1.3724 N   0  0  0  0  0  0  0  0  0  0  0  0
   -6.7954   16.3497    0.6170 C   0  0  0  0  0  0  0  0  0  0  0  0
   -2.9178   15.5121    1.2367 O   0  0  0  0  0  0  0  0  0  0  0  0
   -3.0305   16.2187    2.4643 C   0  0  0  0  0  0  0  0  0  0  0  0
   -4.4395   16.8276    2.6012 C   0  0  0  0  0  0  0  0  0  0  0  0
   -6.9124   13.5311    3.0775 C   0  0  0  0  0  0  0  0  0  0  0  0
   -5.5299   14.3330    3.7481 S   0  0  0  0  0  0  0  0  0  0  0  0
   -5.4378   15.6910    2.6045 C   0  0  0  0  0  0  0  0  0  0  0  0
   -6.4954   15.4122    1.7746 C   0  0  0  0  0  0  0  0  0  0  0  0
   -7.2364   14.2932    2.0407 N   0  0  0  0  0  0  0  0  0  0  0  0
   -8.4260   13.9206    1.1956 C   0  0  0  0  0  0  0  0  0  0  0  0
  -10.4416   15.3440    1.8729 C   0  0  0  0  0  0  0  0  0  0  0  0
  -11.6919   15.4795    2.4116 N   0  0  0  0  0  0  0  0  0  0  0  0
  -12.3495   14.4224    2.8953 C   0  0  0  0  0  0  0  0  0  0  0  0
  -11.7972   13.2060    2.8665 N   0  0  0  0  0  0  0  0  0  0  0  0
  -10.5612   12.9941    2.3444 C   0  0  0  0  0  0  0  0  0  0  0  0
   -9.8254   14.0609    1.8165 C   0  0  0  0  0  0  0  0  0  0  0  0
  5  4  1  0  0  0  0
  5  6  1  0  0  0  0
  7  8  2  0  0  0  0
  7 11  1  0  0  0  0
  8  9  1  0  0  0  0
  9 10  2  0  0  0  0
  9  6  1  0  0  0  0
 10  3  1  0  0  0  0
 11 12  1  0  0  0  0
 11 10  1  0  0  0  0
 12 18  1  0  0  0  0
 13  2  1  0  0  0  0
 13 14  2  0  0  0  0
 15 14  1  0  0  0  0
 15  1  1  0  0  0  0
 16 15  2  0  0  0  0
 17 18  2  0  0  0  0
 17 16  1  0  0  0  0
 18 13  1  0  0  0  0
M  END
>  <CHROM.1>
61.54983968,59.38275309,69.40982509,79.91599123,-7.94993141,14.90392052,2.33757277
-2.99065506,-0.05890111,-0.61755877

>  <Name>
lig.pdb

>  <RI>
0

>  <Rbt.Current_Directory>
/home/itssahil/PROJECTS/Mol_Feturizer/New_Systems/rnas/4nyg

>  <Rbt.Executable>
rbdock ($Id: //depot/dev/client3/rdock/2013.1/src/exe/rbdock.cxx#4 $)

>  <Rbt.Library>
libRbt.so (2013.1, Build901 2013/11/27)

>  <Rbt.Parameter_File>
/export/apps/rDock/src/rDock_2013.1_src/data/scripts/dock_solv.prm

>  <Rbt.Receptor>
prm/pocket_docking_2.prm

>  <SCORE>
-11.7201

>  <SCORE.INTER>
-11.7864

>  <SCORE.INTER.CONST>
1

>  <SCORE.INTER.POLAR>
0

>  <SCORE.INTER.ROT>
4

>  <SCORE.INTER.SOLV>
8.35716

>  <SCORE.INTER.VDW>
-16.91

>  <SCORE.INTER.norm>
-0.654799

>  <SCORE.INTRA>
-0.0688657

>  <SCORE.INTRA.DIHEDRAL>
-0.0381527

>  <SCORE.INTRA.DIHEDRAL.0>
3.20029

>  <SCORE.INTRA.POLAR>
0

>  <SCORE.INTRA.POLAR.0>
0

>  <SCORE.INTRA.REPUL>
0

>  <SCORE.INTRA.REPUL.0>
0

>  <SCORE.INTRA.SOLV>
1.35223

>  <SCORE.INTRA.SOLV.lig_0>
-19.3885

>  <SCORE.INTRA.VDW>
-0.725904

>  <SCORE.INTRA.VDW.0>
-1.12705

>  <SCORE.INTRA.norm>
-0.00382587

>  <SCORE.RESTR>
0.135105

>  <SCORE.RESTR.CAVITY>
0.135105

>  <SCORE.RESTR.norm>
0.00750585

>  <SCORE.SYSTEM>
0

>  <SCORE.SYSTEM.CONST>
0

>  <SCORE.SYSTEM.DIHEDRAL>
0

>  <SCORE.SYSTEM.SOLV>
0

>  <SCORE.SYSTEM.norm>
0

>  <SCORE.heavy>
18

>  <SCORE.norm>
-0.651119

>  <RMSD>
2.708

$$$$
lig.pdb
 OpenBabel11021811503D
libRbt.so/2013.1/901 2013/11/27
 18 19  0  0  0  0  0  0  0  0999 V2000
  -13.7422   14.6101    3.4800 C   0  0  0  0  0  0  0  0  0  0  0  0
   -9.8321   16.4977    1.3166 N   0  0  0  0  0  0  0  0  0  0  0  0
   -6.6975   16.3239    0.5900 C   0  0  0  0  0  0  0  0  0  0  0  0
   -2.9733   15.4228    1.0831 O   0  0  0  0  0  0  0  0  0  0  0  0
   -2.9790   16.0758    2.3451 C   0  0  0  0  0  0  0  0  0  0  0  0
   -4.3493   16.7341    2.5982 C   0  0  0  0  0  0  0  0  0  0  0  0
   -6.9657   13.5531    3.0925 C   0  0  0  0  0  0  0  0  0  0  0  0
   -5.5592   14.3066    3.7691 S   0  0  0  0  0  0  0  0  0  0  0  0
   -5.3948   15.6409    2.6058 C   0  0  0  0  0  0  0  0  0  0  0  0
   -6.4525   15.3935    1.7661 C   0  0  0  0  0  0  0  0  0  0  0  0
   -7.2437   14.3113    2.0396 N   0  0  0  0  0  0  0  0  0  0  0  0
   -8.4371   13.9756    1.1845 C   0  0  0  0  0  0  0  0  0  0  0  0
  -10.4730   15.3775    1.8454 C   0  0  0  0  0  0  0  0  0  0  0  0
  -11.7219   15.5025    2.3898 N   0  0  0  0  0  0  0  0  0  0  0  0
  -12.3574   14.4446    2.9006 C   0  0  0  0  0  0  0  0  0  0  0  0
  -11.7839   13.2378    2.8938 N   0  0  0  0  0  0  0  0  0  0  0  0
  -10.5479   13.0365    2.3676 C   0  0  0  0  0  0  0  0  0  0  0  0
   -9.8346   14.1044    1.8120 C   0  0  0  0  0  0  0  0  0  0  0  0
  5  4  1  0  0  0  0
  5  6  1  0  0  0  0
  7  8  2  0  0  0  0
  7 11  1  0  0  0  0
  8  9  1  0  0  0  0
  9 10  2  0  0  0  0
  9  6  1  0  0  0  0
 10  3  1  0  0  0  0
 11 12  1  0  0  0  0
 11 10  1  0  0  0  0
 12 18  1  0  0  0  0
 13  2  1  0  0  0  0
 13 14  2  0  0  0  0
 15 14  1  0  0  0  0
 15  1  1  0  0  0  0
 16 15  2  0  0  0  0
 17 18  2  0  0  0  0
 17 16  1  0  0  0  0
 18 13  1  0  0  0  0
M  END
>  <CHROM.1>
61.15047502,65.08619987,65.81341637,83.38232053,-7.94917659,14.89493671,2.32032131
-2.99955429,-0.05262188,-0.67725111

>  <Name>
lig.pdb

>  <RI>
0

>  <Rbt.Current_Directory>
/home/itssahil/PROJECTS/Mol_Feturizer/New_Systems/rnas/4nyg

>  <Rbt.Executable>
rbdock ($Id: //depot/dev/client3/rdock/2013.1/src/exe/rbdock.cxx#4 $)

>  <Rbt.Library>
libRbt.so (2013.1, Build901 2013/11/27)

>  <Rbt.Parameter_File>
/export/apps/rDock/src/rDock_2013.1_src/data/scripts/dock_solv.prm

>  <Rbt.Receptor>
prm/pocket_docking_2.prm

>  <SCORE>
-11.7748

>  <SCORE.INTER>
-11.7451

>  <SCORE.INTER.CONST>
1

>  <SCORE.INTER.POLAR>
0

>  <SCORE.INTER.ROT>
4

>  <SCORE.INTER.SOLV>
8.38911

>  <SCORE.INTER.VDW>
-16.8931

>  <SCORE.INTER.norm>
-0.652506

>  <SCORE.INTRA>
-0.171832

>  <SCORE.INTRA.DIHEDRAL>
-0.0103206

>  <SCORE.INTRA.DIHEDRAL.0>
3.20029

>  <SCORE.INTRA.POLAR>
0

>  <SCORE.INTRA.POLAR.0>
0

>  <SCORE.INTRA.REPUL>
0

>  <SCORE.INTRA.REPUL.0>
0

>  <SCORE.INTRA.SOLV>
1.28968

>  <SCORE.INTRA.SOLV.lig_0>
-19.3885

>  <SCORE.INTRA.VDW>
-0.811514

>  <SCORE.INTRA.VDW.0>
-1.12705

>  <SCORE.INTRA.norm>
-0.00954624

>  <SCORE.RESTR>
0.142153

>  <SCORE.RESTR.CAVITY>
0.142153

>  <SCORE.RESTR.norm>
0.0078974

>  <SCORE.SYSTEM>
0

>  <SCORE.SYSTEM.CONST>
0

>  <SCORE.SYSTEM.DIHEDRAL>
0

>  <SCORE.SYSTEM.SOLV>
0

>  <SCORE.SYSTEM.norm>
0

>  <SCORE.heavy>
18

>  <SCORE.norm>
-0.654155

>  <RMSD>
2.713

$$$$
lig.pdb
 OpenBabel11021811503D
libRbt.so/2013.1/901 2013/11/27
 18 19  0  0  0  0  0  0  0  0999 V2000
  -13.7680   14.5806    3.4226 C   0  0  0  0  0  0  0  0  0  0  0  0
   -9.7634   16.4228    1.3974 N   0  0  0  0  0  0  0  0  0  0  0  0
   -6.8590   16.3232    0.6013 C   0  0  0  0  0  0  0  0  0  0  0  0
   -3.0010   15.6712    1.1224 O   0  0  0  0  0  0  0  0  0  0  0  0
   -3.1030   16.3079    2.3886 C   0  0  0  0  0  0  0  0  0  0  0  0
   -4.5194   16.8831    2.5832 C   0  0  0  0  0  0  0  0  0  0  0  0
   -6.9195   13.5399    3.1036 C   0  0  0  0  0  0  0  0  0  0  0  0
   -5.5568   14.3823    3.7651 S   0  0  0  0  0  0  0  0  0  0  0  0
   -5.4921   15.7248    2.6015 C   0  0  0  0  0  0  0  0  0  0  0  0
   -6.5411   15.4100    1.7735 C   0  0  0  0  0  0  0  0  0  0  0  0
   -7.2577   14.2789    2.0547 N   0  0  0  0  0  0  0  0  0  0  0  0
   -8.4366   13.8673    1.2128 C   0  0  0  0  0  0  0  0  0  0  0  0
  -10.4459   15.3053    1.8778 C   0  0  0  0  0  0  0  0  0  0  0  0
  -11.7018   15.4487    2.4012 N   0  0  0  0  0  0  0  0  0  0  0  0
  -12.3768   14.3939    2.8656 C   0  0  0  0  0  0  0  0  0  0  0  0
  -11.8371   13.1721    2.8318 N   0  0  0  0  0  0  0  0  0  0  0  0
  -10.5966   12.9522    2.3239 C   0  0  0  0  0  0  0  0  0  0  0  0
   -9.8426   14.0163    1.8165 C   0  0  0  0  0  0  0  0  0  0  0  0
  5  4  1  0  0  0  0
  5  6  1  0  0  0  0
  7  8  2  0  0  0  0
  7 11  1  0  0  0  0
  8  9  1  0  0  0  0
  9 10  2  0  0  0  0
  9  6  1  0  0  0  0
 10  3  1  0  0  0  0
 11 12  1  0  0  0  0
 11 10  1  0  0  0  0
 12 18  1  0  0  0  0
 13  2  1  0  0  0  0
 13 14  2  0  0  0  0
 15 14  1  0  0  0  0
 15  1  1  0  0  0  0
 16 15  2  0  0  0  0
 17 18  2  0  0  0  0
 17 16  1  0  0  0  0
 18 13  1  0  0  0  0
M  END
>  <CHROM.1>
63.94745486,62.13201816,70.79982222,77.14587277,-7.98451671,14.91017990,2.32366086
2.97622384,0.06646978,2.52037403

>  <Name>
lig.pdb

>  <RI>
0

>  <Rbt.Current_Directory>
/home/itssahil/PROJECTS/Mol_Feturizer/New_Systems/rnas/4nyg

>  <Rbt.Executable>
rbdock ($Id: //depot/dev/client3/rdock/2013.1/src/exe/rbdock.cxx#4 $)

>  <Rbt.Library>
libRbt.so (2013.1, Build901 2013/11/27)

>  <Rbt.Parameter_File>
/export/apps/rDock/src/rDock_2013.1_src/data/scripts/dock_solv.prm

>  <Rbt.Receptor>
prm/pocket_docking_2.prm

>  <SCORE>
-11.8743

>  <SCORE.INTER>
-12.0999

>  <SCORE.INTER.CONST>
1

>  <SCORE.INTER.POLAR>
0

>  <SCORE.INTER.ROT>
4

>  <SCORE.INTER.SOLV>
8.47212

>  <SCORE.INTER.VDW>
-17.1573

>  <SCORE.INTER.norm>
-0.672217

>  <SCORE.INTRA>
0.0553422

>  <SCORE.INTRA.DIHEDRAL>
0.0215734

>  <SCORE.INTRA.DIHEDRAL.0>
3.20029

>  <SCORE.INTRA.POLAR>
0

>  <SCORE.INTRA.POLAR.0>
0

>  <SCORE.INTRA.REPUL>
0

>  <SCORE.INTRA.REPUL.0>
0

>  <SCORE.INTRA.SOLV>
1.40312

>  <SCORE.INTRA.SOLV.lig_0>
-19.3885

>  <SCORE.INTRA.VDW>
-0.657006

>  <SCORE.INTRA.VDW.0>
-1.12705

>  <SCORE.INTRA.norm>
0.00307457

>  <SCORE.RESTR>
0.170268

>  <SCORE.RESTR.CAVITY>
0.170268

>  <SCORE.RESTR.norm>
0.00945934

>  <SCORE.SYSTEM>
0

>  <SCORE.SYSTEM.CONST>
0

>  <SCORE.SYSTEM.DIHEDRAL>
0

>  <SCORE.SYSTEM.SOLV>
0

>  <SCORE.SYSTEM.norm>
0

>  <SCORE.heavy>
18

>  <SCORE.norm>
-0.659683

>  <RMSD>
2.722

$$$$
lig.pdb
 OpenBabel11021811503D
libRbt.so/2013.1/901 2013/11/27
 18 19  0  0  0  0  0  0  0  0999 V2000
  -13.7650   14.6080    3.4719 C   0  0  0  0  0  0  0  0  0  0  0  0
   -9.7319   16.4474    1.5014 N   0  0  0  0  0  0  0  0  0  0  0  0
   -6.8226   16.2969    0.6170 C   0  0  0  0  0  0  0  0  0  0  0  0
   -3.0711   15.5977    1.0002 O   0  0  0  0  0  0  0  0  0  0  0  0
   -3.0796   16.1838    2.2946 C   0  0  0  0  0  0  0  0  0  0  0  0
   -4.4672   16.7803    2.6004 C   0  0  0  0  0  0  0  0  0  0  0  0
   -6.9480   13.4922    3.0928 C   0  0  0  0  0  0  0  0  0  0  0  0
   -5.5642   14.2945    3.7601 S   0  0  0  0  0  0  0  0  0  0  0  0
   -5.4681   15.6460    2.6092 C   0  0  0  0  0  0  0  0  0  0  0  0
   -6.5257   15.3650    1.7799 C   0  0  0  0  0  0  0  0  0  0  0  0
   -7.2695   14.2492    2.0515 N   0  0  0  0  0  0  0  0  0  0  0  0
   -8.4592   13.8747    1.2076 C   0  0  0  0  0  0  0  0  0  0  0  0
  -10.4354   15.3258    1.9402 C   0  0  0  0  0  0  0  0  0  0  0  0
  -11.6857   15.4738    2.4755 N   0  0  0  0  0  0  0  0  0  0  0  0
  -12.3804   14.4153    2.9006 C   0  0  0  0  0  0  0  0  0  0  0  0
  -11.8663   13.1850    2.8151 N   0  0  0  0  0  0  0  0  0  0  0  0
  -10.6328   12.9603    2.2923 C   0  0  0  0  0  0  0  0  0  0  0  0
   -9.8592   14.0282    1.8241 C   0  0  0  0  0  0  0  0  0  0  0  0
  5  4  1  0  0  0  0
  5  6  1  0  0  0  0
  7  8  2  0  0  0  0
  7 11  1  0  0  0  0
  8  9  1  0  0  0  0
  9 10  2  0  0  0  0
  9  6  1  0  0  0  0
 10  3  1  0  0  0  0
 11 12  1  0  0  0  0
 11 10  1  0  0  0  0
 12 18  1  0  0  0  0
 13  2  1  0  0  0  0
 13 14  2  0  0  0  0
 15 14  1  0  0  0  0
 15  1  1  0  0  0  0
 16 15  2  0  0  0  0
 17 18  2  0  0  0  0
 17 16  1  0  0  0  0
 18 13  1  0  0  0  0
M  END
>  <CHROM.1>
62.95298122,66.23285970,69.70511717,76.16463784,-7.98609911,14.87988711,2.32673788
2.98025608,0.04917985,2.52453749

>  <Name>
lig.pdb

>  <RI>
0

>  <Rbt.Current_Directory>
/home/itssahil/PROJECTS/Mol_Feturizer/New_Systems/rnas/4nyg

>  <Rbt.Executable>
rbdock ($Id: //depot/dev/client3/rdock/2013.1/src/exe/rbdock.cxx#4 $)

>  <Rbt.Library>
libRbt.so (2013.1, Build901 2013/11/27)

>  <Rbt.Parameter_File>
/export/apps/rDock/src/rDock_2013.1_src/data/scripts/dock_solv.prm

>  <Rbt.Receptor>
prm/pocket_docking_2.prm

>  <SCORE>
-11.9184

>  <SCORE.INTER>
-12.0925

>  <SCORE.INTER.CONST>
1

>  <SCORE.INTER.POLAR>
0

>  <SCORE.INTER.ROT>
4

>  <SCORE.INTER.SOLV>
8.36147

>  <SCORE.INTER.VDW>
-17.1155

>  <SCORE.INTER.norm>
-0.671804

>  <SCORE.INTRA>
0.009065

>  <SCORE.INTRA.DIHEDRAL>
0.0527564

>  <SCORE.INTRA.DIHEDRAL.0>
3.20029

>  <SCORE.INTRA.POLAR>
0

>  <SCORE.INTRA.POLAR.0>
0

>  <SCORE.INTRA.REPUL>
0

>  <SCORE.INTRA.REPUL.0>
0

>  <SCORE.INTRA.SOLV>
1.43072

>  <SCORE.INTRA.SOLV.lig_0>
-19.3885

>  <SCORE.INTRA.VDW>
-0.732673

>  <SCORE.INTRA.VDW.0>
-1.12705

>  <SCORE.INTRA.norm>
0.000503611

>  <SCORE.RESTR>
0.164992

>  <SCORE.RESTR.CAVITY>
0.164992

>  <SCORE.RESTR.norm>
0.0091662

>  <SCORE.SYSTEM>
0

>  <SCORE.SYSTEM.CONST>
0

>  <SCORE.SYSTEM.DIHEDRAL>
0

>  <SCORE.SYSTEM.SOLV>
0

>  <SCORE.SYSTEM.norm>
0

>  <SCORE.heavy>
18

>  <SCORE.norm>
-0.662135

>  <RMSD>
2.731

$$$$
lig.pdb
 OpenBabel11021811503D
libRbt.so/2013.1/901 2013/11/27
 18 19  0  0  0  0  0  0  0  0999 V2000
  -14.8303   15.6433    3.9811 C   0  0  0  0  0  0  0  0  0  0  0  0
  -11.3419   12.5188    2.7159 N   0  0  0  0  0  0  0  0  0  0  0  0
   -7.4363   15.2460    3.6703 C   0  0  0  0  0  0  0  0  0  0  0  0
   -3.2127   17.8678    2.6868 O   0  0  0  0  0  0  0  0  0  0  0  0
   -4.3588   17.3837    2.0004 C   0  0  0  0  0  0  0  0  0  0  0  0
   -5.6286   17.6436    2.8341 C   0  0  0  0  0  0  0  0  0  0  0  0
   -8.7387   16.4360    0.3689 C   0  0  0  0  0  0  0  0  0  0  0  0
   -7.4593   17.5959    0.5160 S   0  0  0  0  0  0  0  0  0  0  0  0
   -6.8051   17.0632    2.0808 C   0  0  0  0  0  0  0  0  0  0  0  0
   -7.6436   16.0174    2.3776 C   0  0  0  0  0  0  0  0  0  0  0  0
   -8.6310   15.7175    1.4792 N   0  0  0  0  0  0  0  0  0  0  0  0
   -9.5836   14.5747    1.7126 C   0  0  0  0  0  0  0  0  0  0  0  0
  -11.7917   13.8377    2.7750 C   0  0  0  0  0  0  0  0  0  0  0  0
  -13.0223   14.1134    3.3055 N   0  0  0  0  0  0  0  0  0  0  0  0
  -13.4747   15.3681    3.3753 C   0  0  0  0  0  0  0  0  0  0  0  0
  -12.7339   16.3845    2.9243 N   0  0  0  0  0  0  0  0  0  0  0  0
  -11.5014   16.1882    2.3879 C   0  0  0  0  0  0  0  0  0  0  0  0
  -10.9702   14.8971    2.2932 C   0  0  0  0  0  0  0  0  0  0  0  0
  5  4  1  0  0  0  0
  5  6  1  0  0  0  0
  7  8  2  0  0  0  0
  7 11  1  0  0  0  0
  8  9  1  0  0  0  0
  9 10  2  0  0  0  0
  9  6  1  0  0  0  0
 10  3  1  0  0  0  0
 11 12  1  0  0  0  0
 11 10  1  0  0  0  0
 12 18  1  0  0  0  0
 13  2  1  0  0  0  0
 13 14  2  0  0  0  0
 15 14  1  0  0  0  0
 15  1  1  0  0  0  0
 16 15  2  0  0  0  0
 17 18  2  0  0  0  0
 17 16  1  0  0  0  0
 18 13  1  0  0  0  0
M  END
>  <CHROM.1>
-177.90719565,-65.79339461,-82.48622294,-167.52319136,-9.19699264,15.95181551
2.29970081,2.78762969,0.02345140,2.66030932

>  <Name>
lig.pdb

>  <RI>
0

>  <Rbt.Current_Directory>
/home/itssahil/PROJECTS/Mol_Feturizer/New_Systems/rnas/4nyg

>  <Rbt.Executable>
rbdock ($Id: //depot/dev/client3/rdock/2013.1/src/exe/rbdock.cxx#4 $)

>  <Rbt.Library>
libRbt.so (2013.1, Build901 2013/11/27)

>  <Rbt.Parameter_File>
/export/apps/rDock/src/rDock_2013.1_src/data/scripts/dock_solv.prm

>  <Rbt.Receptor>
prm/pocket_docking_3.prm

>  <SCORE>
-20.3638

>  <SCORE.INTER>
-19.8377

>  <SCORE.INTER.CONST>
1

>  <SCORE.INTER.POLAR>
0

>  <SCORE.INTER.ROT>
4

>  <SCORE.INTER.SOLV>
12.7138

>  <SCORE.INTER.VDW>
-23.7297

>  <SCORE.INTER.norm>
-1.10209

>  <SCORE.INTRA>
-0.52614

>  <SCORE.INTRA.DIHEDRAL>
-0.0589111

>  <SCORE.INTRA.DIHEDRAL.0>
3.20029

>  <SCORE.INTRA.POLAR>
0

>  <SCORE.INTRA.POLAR.0>
0

>  <SCORE.INTRA.REPUL>
0

>  <SCORE.INTRA.REPUL.0>
0

>  <SCORE.INTRA.SOLV>
-0.0367516

>  <SCORE.INTRA.SOLV.lig_0>
-19.3885

>  <SCORE.INTRA.VDW>
-0.478309

>  <SCORE.INTRA.VDW.0>
-1.12705

>  <SCORE.INTRA.norm>
-0.02923

>  <SCORE.RESTR>
0

>  <SCORE.RESTR.CAVITY>
0

>  <SCORE.RESTR.norm>
0

>  <SCORE.SYSTEM>
0

>  <SCORE.SYSTEM.CONST>
0

>  <SCORE.SYSTEM.DIHEDRAL>
0

>  <SCORE.SYSTEM.SOLV>
0

>  <SCORE.SYSTEM.norm>
0

>  <SCORE.heavy>
18

>  <SCORE.norm>
-1.13132

>  <RMSD>
2.795

$$$$
lig.pdb
 OpenBabel11021811503D
libRbt.so/2013.1/901 2013/11/27
 18 19  0  0  0  0  0  0  0  0999 V2000
  -14.7940   15.5937    3.9948 C   0  0  0  0  0  0  0  0  0  0  0  0
  -11.3974   12.4916    2.4547 N   0  0  0  0  0  0  0  0  0  0  0  0
   -7.4453   15.2187    3.6224 C   0  0  0  0  0  0  0  0  0  0  0  0
   -4.1574   16.0832    1.6662 O   0  0  0  0  0  0  0  0  0  0  0  0
   -4.3654   17.4560    1.9681 C   0  0  0  0  0  0  0  0  0  0  0  0
   -5.6290   17.6258    2.8337 C   0  0  0  0  0  0  0  0  0  0  0  0
   -8.7189   16.4537    0.3263 C   0  0  0  0  0  0  0  0  0  0  0  0
   -7.4401   17.6106    0.4998 S   0  0  0  0  0  0  0  0  0  0  0  0
   -6.7994   17.0565    2.0628 C   0  0  0  0  0  0  0  0  0  0  0  0
   -7.6411   16.0074    2.3385 C   0  0  0  0  0  0  0  0  0  0  0  0
   -8.6211   15.7204    1.4278 N   0  0  0  0  0  0  0  0  0  0  0  0
   -9.5764   14.5753    1.6378 C   0  0  0  0  0  0  0  0  0  0  0  0
  -11.8078   13.8129    2.6313 C   0  0  0  0  0  0  0  0  0  0  0  0
  -13.0309   14.0768    3.1847 N   0  0  0  0  0  0  0  0  0  0  0  0
  -13.4458   15.3332    3.3663 C   0  0  0  0  0  0  0  0  0  0  0  0
  -12.6741   16.3632    3.0072 N   0  0  0  0  0  0  0  0  0  0  0  0
  -11.4468   16.1787    2.4549 C   0  0  0  0  0  0  0  0  0  0  0  0
  -10.9540   14.8859    2.2454 C   0  0  0  0  0  0  0  0  0  0  0  0
  5  4  1  0  0  0  0
  5  6  1  0  0  0  0
  7  8  2  0  0  0  0
  7 11  1  0  0  0  0
  8  9  1  0  0  0  0
  9 10  2  0  0  0  0
  9  6  1  0  0  0  0
 10  3  1  0  0  0  0
 11 12  1  0  0  0  0
 11 10  1  0  0  0  0
 12 18  1  0  0  0  0
 13  2  1  0  0  0  0
 13 14  2  0  0  0  0
 15 14  1  0  0  0  0
 15  1  1  0  0  0  0
 16 15  2  0  0  0  0
 17 18  2  0  0  0  0
 17 16  1  0  0  0  0
 18 13  1  0  0  0  0
M  END
>  <CHROM.1>
-58.64398170,-62.27959055,-84.06611597,-171.24097902,-9.24498062,15.83532261
2.19846694,2.81398755,-0.10324073,2.85813327

>  <Name>
lig.pdb

>  <RI>
0

>  <Rbt.Current_Directory>
/home/itssahil/PROJECTS/Mol_Feturizer/New_Systems/rnas/4nyg

>  <Rbt.Executable>
rbdock ($Id: //depot/dev/client3/rdock/2013.1/src/exe/rbdock.cxx#4 $)

>  <Rbt.Library>
libRbt.so (2013.1, Build901 2013/11/27)

>  <Rbt.Parameter_File>
/export/apps/rDock/src/rDock_2013.1_src/data/scripts/dock_solv.prm

>  <Rbt.Receptor>
prm/pocket_docking_3.prm

>  <SCORE>
-19.8684

>  <SCORE.INTER>
-19.4207

>  <SCORE.INTER.CONST>
1

>  <SCORE.INTER.POLAR>
0

>  <SCORE.INTER.ROT>
4

>  <SCORE.INTER.SOLV>
12.4153

>  <SCORE.INTER.VDW>
-23.3522

>  <SCORE.INTER.norm>
-1.07893

>  <SCORE.INTRA>
-0.447683

>  <SCORE.INTRA.DIHEDRAL>
-0.124414

>  <SCORE.INTRA.DIHEDRAL.0>
3.20029

>  <SCORE.INTRA.POLAR>
0

>  <SCORE.INTRA.POLAR.0>
0

>  <SCORE.INTRA.REPUL>
0

>  <SCORE.INTRA.REPUL.0>
0

>  <SCORE.INTRA.SOLV>
0.502793

>  <SCORE.INTRA.SOLV.lig_0>
-19.3885

>  <SCORE.INTRA.VDW>
-0.636873

>  <SCORE.INTRA.VDW.0>
-1.12705

>  <SCORE.INTRA.norm>
-0.0248713

>  <SCORE.RESTR>
0

>  <SCORE.RESTR.CAVITY>
0

>  <SCORE.RESTR.norm>
0

>  <SCORE.SYSTEM>
0

>  <SCORE.SYSTEM.CONST>
0

>  <SCORE.SYSTEM.DIHEDRAL>
0

>  <SCORE.SYSTEM.SOLV>
0

>  <SCORE.SYSTEM.norm>
0

>  <SCORE.heavy>
18

>  <SCORE.norm>
-1.1038

>  <RMSD>
2.842

$$$$
lig.pdb
 OpenBabel11021811503D
libRbt.so/2013.1/901 2013/11/27
 18 19  0  0  0  0  0  0  0  0999 V2000
  -14.6022   15.3598    3.7340 C   0  0  0  0  0  0  0  0  0  0  0  0
  -12.0992   11.5395    2.0994 N   0  0  0  0  0  0  0  0  0  0  0  0
   -6.9659   13.3912    3.4569 C   0  0  0  0  0  0  0  0  0  0  0  0
   -4.2938   15.8308   -0.3707 O   0  0  0  0  0  0  0  0  0  0  0  0
   -4.0352   14.9094    0.6796 C   0  0  0  0  0  0  0  0  0  0  0  0
   -4.9695   15.1863    1.8735 C   0  0  0  0  0  0  0  0  0  0  0  0
   -8.7140   14.3591    0.2916 C   0  0  0  0  0  0  0  0  0  0  0  0
   -7.2396   15.2163   -0.0168 S   0  0  0  0  0  0  0  0  0  0  0  0
   -6.3698   14.7795    1.4709 C   0  0  0  0  0  0  0  0  0  0  0  0
   -7.3034   13.9980    2.1052 C   0  0  0  0  0  0  0  0  0  0  0  0
   -8.5020   13.7995    1.4759 N   0  0  0  0  0  0  0  0  0  0  0  0
   -9.5769   12.9405    2.0880 C   0  0  0  0  0  0  0  0  0  0  0  0
  -12.1008   12.8742    2.5042 C   0  0  0  0  0  0  0  0  0  0  0  0
  -13.2710   13.4644    2.8966 N   0  0  0  0  0  0  0  0  0  0  0  0
  -13.2983   14.7403    3.2906 C   0  0  0  0  0  0  0  0  0  0  0  0
  -12.1801   15.4714    3.3070 N   0  0  0  0  0  0  0  0  0  0  0  0
  -10.9812   14.9527    2.9345 C   0  0  0  0  0  0  0  0  0  0  0  0
  -10.8872   13.6201    2.5180 C   0  0  0  0  0  0  0  0  0  0  0  0
  5  4  1  0  0  0  0
  5  6  1  0  0  0  0
  7  8  2  0  0  0  0
  7 11  1  0  0  0  0
  8  9  1  0  0  0  0
  9 10  2  0  0  0  0
  9  6  1  0  0  0  0
 10  3  1  0  0  0  0
 11 12  1  0  0  0  0
 11 10  1  0  0  0  0
 12 18  1  0  0  0  0
 13  2  1  0  0  0  0
 13 14  2  0  0  0  0
 15 14  1  0  0  0  0
 15  1  1  0  0  0  0
 16 15  2  0  0  0  0
 17 18  2  0  0  0  0
 17 16  1  0  0  0  0
 18 13  1  0  0  0  0
M  END
>  <CHROM.1>
70.58119103,-49.05215308,-66.83300156,150.91456487,-9.10011657,14.33229432
1.86221644,2.94989176,-0.26483448,2.90288919

>  <Name>
lig.pdb

>  <RI>
0

>  <Rbt.Current_Directory>
/home/itssahil/PROJECTS/Mol_Feturizer/New_Systems/rnas/4nyg

>  <Rbt.Executable>
rbdock ($Id: //depot/dev/client3/rdock/2013.1/src/exe/rbdock.cxx#4 $)

>  <Rbt.Library>
libRbt.so (2013.1, Build901 2013/11/27)

>  <Rbt.Parameter_File>
/export/apps/rDock/src/rDock_2013.1_src/data/scripts/dock_solv.prm

>  <Rbt.Receptor>
prm/pocket_docking_8.prm

>  <SCORE>
-18.2773

>  <SCORE.INTER>
-18.3607

>  <SCORE.INTER.CONST>
1

>  <SCORE.INTER.POLAR>
0

>  <SCORE.INTER.ROT>
4

>  <SCORE.INTER.SOLV>
13.2692

>  <SCORE.INTER.VDW>
-22.9302

>  <SCORE.INTER.norm>
-1.02004

>  <SCORE.INTRA>
0.0834251

>  <SCORE.INTRA.DIHEDRAL>
0.52085

>  <SCORE.INTRA.DIHEDRAL.0>
3.20029

>  <SCORE.INTRA.POLAR>
0

>  <SCORE.INTRA.POLAR.0>
0

>  <SCORE.INTRA.REPUL>
0

>  <SCORE.INTRA.REPUL.0>
0

>  <SCORE.INTRA.SOLV>
0.359703

>  <SCORE.INTRA.SOLV.lig_0>
-19.3885

>  <SCORE.INTRA.VDW>
-0.356851

>  <SCORE.INTRA.VDW.0>
-1.12705

>  <SCORE.INTRA.norm>
0.00463473

>  <SCORE.RESTR>
0

>  <SCORE.RESTR.CAVITY>
0

>  <SCORE.RESTR.norm>
0

>  <SCORE.SYSTEM>
0

>  <SCORE.SYSTEM.CONST>
0

>  <SCORE.SYSTEM.DIHEDRAL>
0

>  <SCORE.SYSTEM.SOLV>
0

>  <SCORE.SYSTEM.norm>
0

>  <SCORE.heavy>
18

>  <SCORE.norm>
-1.01541

>  <RMSD>
2.862

$$$$
lig.pdb
 OpenBabel11021811503D
libRbt.so/2013.1/901 2013/11/27
 18 19  0  0  0  0  0  0  0  0999 V2000
  -14.7218   15.9413    3.7469 C   0  0  0  0  0  0  0  0  0  0  0  0
  -11.6846   12.1611    3.6120 N   0  0  0  0  0  0  0  0  0  0  0  0
   -8.1787   15.7868    3.7521 C   0  0  0  0  0  0  0  0  0  0  0  0
   -3.7246   17.8350    2.5317 O   0  0  0  0  0  0  0  0  0  0  0  0
   -4.6062   16.8231    2.0651 C   0  0  0  0  0  0  0  0  0  0  0  0
   -6.0591   17.3368    2.0729 C   0  0  0  0  0  0  0  0  0  0  0  0
   -8.2496   14.2767    0.3278 C   0  0  0  0  0  0  0  0  0  0  0  0
   -7.0242   15.4595    0.0062 S   0  0  0  0  0  0  0  0  0  0  0  0
   -6.9540   16.2050    1.6186 C   0  0  0  0  0  0  0  0  0  0  0  0
   -7.9033   15.4755    2.2905 C   0  0  0  0  0  0  0  0  0  0  0  0
   -8.5557   14.4901    1.6011 N   0  0  0  0  0  0  0  0  0  0  0  0
   -9.5974   13.6271    2.2631 C   0  0  0  0  0  0  0  0  0  0  0  0
  -11.9353   13.4960    3.2948 C   0  0  0  0  0  0  0  0  0  0  0  0
  -13.1334   14.0623    3.6349 N   0  0  0  0  0  0  0  0  0  0  0  0
  -13.3967   15.3390    3.3444 C   0  0  0  0  0  0  0  0  0  0  0  0
  -12.4938   16.0927    2.7102 N   0  0  0  0  0  0  0  0  0  0  0  0
  -11.2818   15.6004    2.3443 C   0  0  0  0  0  0  0  0  0  0  0  0
  -10.9448   14.2719    2.6267 C   0  0  0  0  0  0  0  0  0  0  0  0
  5  4  1  0  0  0  0
  5  6  1  0  0  0  0
  7  8  2  0  0  0  0
  7 11  1  0  0  0  0
  8  9  1  0  0  0  0
  9 10  2  0  0  0  0
  9  6  1  0  0  0  0
 10  3  1  0  0  0  0
 11 12  1  0  0  0  0
 11 10  1  0  0  0  0
 12 18  1  0  0  0  0
 13  2  1  0  0  0  0
 13 14  2  0  0  0  0
 15 14  1  0  0  0  0
 15  1  1  0  0  0  0
 16 15  2  0  0  0  0
 17 18  2  0  0  0  0
 17 16  1  0  0  0  0
 18 13  1  0  0  0  0
M  END
>  <CHROM.1>
-177.88898084,-67.05751873,-110.27421274,-177.87517476,-9.24111763,15.29076746
2.28019696,3.03027556,-0.32525939,-2.61796823

>  <Name>
lig.pdb

>  <RI>
0

>  <Rbt.Current_Directory>
/home/itssahil/PROJECTS/Mol_Feturizer/New_Systems/rnas/4nyg

>  <Rbt.Executable>
rbdock ($Id: //depot/dev/client3/rdock/2013.1/src/exe/rbdock.cxx#4 $)

>  <Rbt.Library>
libRbt.so (2013.1, Build901 2013/11/27)

>  <Rbt.Parameter_File>
/export/apps/rDock/src/rDock_2013.1_src/data/scripts/dock_solv.prm

>  <Rbt.Receptor>
prm/pocket_docking_3.prm

>  <SCORE>
-19.408

>  <SCORE.INTER>
-18.922

>  <SCORE.INTER.CONST>
1

>  <SCORE.INTER.POLAR>
0

>  <SCORE.INTER.ROT>
4

>  <SCORE.INTER.SOLV>
13.4349

>  <SCORE.INTER.VDW>
-23.3596

>  <SCORE.INTER.norm>
-1.05122

>  <SCORE.INTRA>
-0.486072

>  <SCORE.INTRA.DIHEDRAL>
-0.00174226

>  <SCORE.INTRA.DIHEDRAL.0>
3.20029

>  <SCORE.INTRA.POLAR>
0

>  <SCORE.INTRA.POLAR.0>
0

>  <SCORE.INTRA.REPUL>
0

>  <SCORE.INTRA.REPUL.0>
0

>  <SCORE.INTRA.SOLV>
0.0232116

>  <SCORE.INTRA.SOLV.lig_0>
-19.3885

>  <SCORE.INTRA.VDW>
-0.496806

>  <SCORE.INTRA.VDW.0>
-1.12705

>  <SCORE.INTRA.norm>
-0.027004

>  <SCORE.RESTR>
0

>  <SCORE.RESTR.CAVITY>
0

>  <SCORE.RESTR.norm>
0

>  <SCORE.SYSTEM>
0

>  <SCORE.SYSTEM.CONST>
0

>  <SCORE.SYSTEM.DIHEDRAL>
0

>  <SCORE.SYSTEM.SOLV>
0

>  <SCORE.SYSTEM.norm>
0

>  <SCORE.heavy>
18

>  <SCORE.norm>
-1.07822

>  <RMSD>
2.903

$$$$
lig.pdb
 OpenBabel11021811503D
libRbt.so/2013.1/901 2013/11/27
 18 19  0  0  0  0  0  0  0  0999 V2000
  -14.8852   15.6240    3.9893 C   0  0  0  0  0  0  0  0  0  0  0  0
  -11.4255   12.4447    2.7830 N   0  0  0  0  0  0  0  0  0  0  0  0
   -7.5117   15.1924    3.6339 C   0  0  0  0  0  0  0  0  0  0  0  0
   -4.2453   15.8019    1.8511 O   0  0  0  0  0  0  0  0  0  0  0  0
   -4.4230   17.2103    1.9131 C   0  0  0  0  0  0  0  0  0  0  0  0
   -5.6966   17.5522    2.7105 C   0  0  0  0  0  0  0  0  0  0  0  0
   -8.8163   16.2706    0.2952 C   0  0  0  0  0  0  0  0  0  0  0  0
   -7.5322   17.4301    0.3990 S   0  0  0  0  0  0  0  0  0  0  0  0
   -6.8768   16.9502    1.9804 C   0  0  0  0  0  0  0  0  0  0  0  0
   -7.7187   15.9187    2.3153 C   0  0  0  0  0  0  0  0  0  0  0  0
   -8.7090   15.5912    1.4298 N   0  0  0  0  0  0  0  0  0  0  0  0
   -9.6655   14.4609    1.7051 C   0  0  0  0  0  0  0  0  0  0  0  0
  -11.8676   13.7673    2.8082 C   0  0  0  0  0  0  0  0  0  0  0  0
  -13.0918   14.0651    3.3416 N   0  0  0  0  0  0  0  0  0  0  0  0
  -13.5367   15.3239    3.3794 C   0  0  0  0  0  0  0  0  0  0  0  0
  -12.7946   16.3227    2.8925 N   0  0  0  0  0  0  0  0  0  0  0  0
  -11.5682   16.1040    2.3509 C   0  0  0  0  0  0  0  0  0  0  0  0
  -11.0448   14.8078    2.2886 C   0  0  0  0  0  0  0  0  0  0  0  0
  5  4  1  0  0  0  0
  5  6  1  0  0  0  0
  7  8  2  0  0  0  0
  7 11  1  0  0  0  0
  8  9  1  0  0  0  0
  9 10  2  0  0  0  0
  9  6  1  0  0  0  0
 10  3  1  0  0  0  0
 11 12  1  0  0  0  0
 11 10  1  0  0  0  0
 12 18  1  0  0  0  0
 13  2  1  0  0  0  0
 13 14  2  0  0  0  0
 15 14  1  0  0  0  0
 15  1  1  0  0  0  0
 16 15  2  0  0  0  0
 17 18  2  0  0  0  0
 17 16  1  0  0  0  0
 18 13  1  0  0  0  0
M  END
>  <CHROM.1>
-61.65807814,-67.99844810,-83.03643973,-167.53938578,-9.32698515,15.73314424
2.21085853,2.81926632,-0.07440695,2.71701147

>  <Name>
lig.pdb

>  <RI>
0

>  <Rbt.Current_Directory>
/home/itssahil/PROJECTS/Mol_Feturizer/New_Systems/rnas/4nyg

>  <Rbt.Executable>
rbdock ($Id: //depot/dev/client3/rdock/2013.1/src/exe/rbdock.cxx#4 $)

>  <Rbt.Library>
libRbt.so (2013.1, Build901 2013/11/27)

>  <Rbt.Parameter_File>
/export/apps/rDock/src/rDock_2013.1_src/data/scripts/dock_solv.prm

>  <Rbt.Receptor>
prm/pocket_docking_3.prm

>  <SCORE>
-19.8292

>  <SCORE.INTER>
-19.3877

>  <SCORE.INTER.CONST>
1

>  <SCORE.INTER.POLAR>
0

>  <SCORE.INTER.ROT>
4

>  <SCORE.INTER.SOLV>
12.1819

>  <SCORE.INTER.VDW>
-23.2524

>  <SCORE.INTER.norm>
-1.07709

>  <SCORE.INTRA>
-0.441563

>  <SCORE.INTRA.DIHEDRAL>
-0.00965363

>  <SCORE.INTRA.DIHEDRAL.0>
3.20029

>  <SCORE.INTRA.POLAR>
0

>  <SCORE.INTRA.POLAR.0>
0

>  <SCORE.INTRA.REPUL>
0

>  <SCORE.INTRA.REPUL.0>
0

>  <SCORE.INTRA.SOLV>
0.504622

>  <SCORE.INTRA.SOLV.lig_0>
-19.3885

>  <SCORE.INTRA.VDW>
-0.689048

>  <SCORE.INTRA.VDW.0>
-1.12705

>  <SCORE.INTRA.norm>
-0.0245313

>  <SCORE.RESTR>
0

>  <SCORE.RESTR.CAVITY>
0

>  <SCORE.RESTR.norm>
0

>  <SCORE.SYSTEM>
0

>  <SCORE.SYSTEM.CONST>
0

>  <SCORE.SYSTEM.DIHEDRAL>
0

>  <SCORE.SYSTEM.SOLV>
0

>  <SCORE.SYSTEM.norm>
0

>  <SCORE.heavy>
18

>  <SCORE.norm>
-1.10162

>  <RMSD>
2.905

$$$$
lig.pdb
 OpenBabel11021811503D
libRbt.so/2013.1/901 2013/11/27
 18 19  0  0  0  0  0  0  0  0999 V2000
  -14.4740   16.2656    3.3724 C   0  0  0  0  0  0  0  0  0  0  0  0
  -12.1732   12.0941    2.4574 N   0  0  0  0  0  0  0  0  0  0  0  0
   -6.6701   13.7448    3.1190 C   0  0  0  0  0  0  0  0  0  0  0  0
   -3.3911   16.4927    0.2383 O   0  0  0  0  0  0  0  0  0  0  0  0
   -4.7714   16.1579    0.2783 C   0  0  0  0  0  0  0  0  0  0  0  0
   -4.9506   14.6851    0.6952 C   0  0  0  0  0  0  0  0  0  0  0  0
   -9.0103   13.9853    0.2075 C   0  0  0  0  0  0  0  0  0  0  0  0
   -7.5816   14.4898   -0.6342 S   0  0  0  0  0  0  0  0  0  0  0  0
   -6.4335   14.3869    0.7193 C   0  0  0  0  0  0  0  0  0  0  0  0
   -7.2571   13.9706    1.7358 C   0  0  0  0  0  0  0  0  0  0  0  0
   -8.5793   13.7732    1.4443 N   0  0  0  0  0  0  0  0  0  0  0  0
   -9.5513   13.2979    2.4919 C   0  0  0  0  0  0  0  0  0  0  0  0
  -12.0968   13.4673    2.6895 C   0  0  0  0  0  0  0  0  0  0  0  0
  -13.2417   14.1861    2.9002 N   0  0  0  0  0  0  0  0  0  0  0  0
  -13.1948   15.5015    3.1268 C   0  0  0  0  0  0  0  0  0  0  0  0
  -12.0250   16.1468    3.1495 N   0  0  0  0  0  0  0  0  0  0  0  0
  -10.8473   15.4993    2.9520 C   0  0  0  0  0  0  0  0  0  0  0  0
  -10.8308   14.1200    2.7162 C   0  0  0  0  0  0  0  0  0  0  0  0
  5  4  1  0  0  0  0
  5  6  1  0  0  0  0
  7  8  2  0  0  0  0
  7 11  1  0  0  0  0
  8  9  1  0  0  0  0
  9 10  2  0  0  0  0
  9  6  1  0  0  0  0
 10  3  1  0  0  0  0
 11 12  1  0  0  0  0
 11 10  1  0  0  0  0
 12 18  1  0  0  0  0
 13  2  1  0  0  0  0
 13 14  2  0  0  0  0
 15 14  1  0  0  0  0
 15  1  1  0  0  0  0
 16 15  2  0  0  0  0
 17 18  2  0  0  0  0
 17 16  1  0  0  0  0
 18 13  1  0  0  0  0
M  END
>  <CHROM.1>
-179.95093440,60.36009556,-54.25453580,128.07606424,-9.09912066,14.59217226
1.68558954,3.12144289,-0.33457984,-3.03729865

>  <Name>
lig.pdb

>  <RI>
0

>  <Rbt.Current_Directory>
/home/itssahil/PROJECTS/Mol_Feturizer/New_Systems/rnas/4nyg

>  <Rbt.Executable>
rbdock ($Id: //depot/dev/client3/rdock/2013.1/src/exe/rbdock.cxx#4 $)

>  <Rbt.Library>
libRbt.so (2013.1, Build901 2013/11/27)

>  <Rbt.Parameter_File>
/export/apps/rDock/src/rDock_2013.1_src/data/scripts/dock_solv.prm

>  <Rbt.Receptor>
prm/pocket_docking_4.prm

>  <SCORE>
-20.4893

>  <SCORE.INTER>
-20.1529

>  <SCORE.INTER.CONST>
1

>  <SCORE.INTER.POLAR>
0

>  <SCORE.INTER.ROT>
4

>  <SCORE.INTER.SOLV>
13.1633

>  <SCORE.INTER.VDW>
-24.0897

>  <SCORE.INTER.norm>
-1.1196

>  <SCORE.INTRA>
-0.336466

>  <SCORE.INTRA.DIHEDRAL>
-0.0587082

>  <SCORE.INTRA.DIHEDRAL.0>
3.20029

>  <SCORE.INTRA.POLAR>
0

>  <SCORE.INTRA.POLAR.0>
0

>  <SCORE.INTRA.REPUL>
0

>  <SCORE.INTRA.REPUL.0>
0

>  <SCORE.INTRA.SOLV>
0.0558518

>  <SCORE.INTRA.SOLV.lig_0>
-19.3885

>  <SCORE.INTRA.VDW>
-0.335038

>  <SCORE.INTRA.VDW.0>
-1.12705

>  <SCORE.INTRA.norm>
-0.0186926

>  <SCORE.RESTR>
0

>  <SCORE.RESTR.CAVITY>
0

>  <SCORE.RESTR.norm>
0

>  <SCORE.SYSTEM>
0

>  <SCORE.SYSTEM.CONST>
0

>  <SCORE.SYSTEM.DIHEDRAL>
0

>  <SCORE.SYSTEM.SOLV>
0

>  <SCORE.SYSTEM.norm>
0

>  <SCORE.heavy>
18

>  <SCORE.norm>
-1.1383

>  <RMSD>
2.911

$$$$
lig.pdb
 OpenBabel11021811503D
libRbt.so/2013.1/901 2013/11/27
 18 19  0  0  0  0  0  0  0  0999 V2000
  -14.4250   15.1008    3.6819 C   0  0  0  0  0  0  0  0  0  0  0  0
  -12.1394   11.2133    1.8944 N   0  0  0  0  0  0  0  0  0  0  0  0
   -6.9515   12.6530    3.3617 C   0  0  0  0  0  0  0  0  0  0  0  0
   -4.0173   15.2074   -0.1977 O   0  0  0  0  0  0  0  0  0  0  0  0
   -3.8544   14.1840    0.7745 C   0  0  0  0  0  0  0  0  0  0  0  0
   -4.8007   14.4258    1.9665 C   0  0  0  0  0  0  0  0  0  0  0  0
   -8.5459   13.9703    0.2417 C   0  0  0  0  0  0  0  0  0  0  0  0
   -7.0113   14.7486    0.0335 S   0  0  0  0  0  0  0  0  0  0  0  0
   -6.2127   14.1443    1.5024 C   0  0  0  0  0  0  0  0  0  0  0  0
   -7.2119   13.3809    2.0535 C   0  0  0  0  0  0  0  0  0  0  0  0
   -8.4030   13.3103    1.3839 N   0  0  0  0  0  0  0  0  0  0  0  0
   -9.5475   12.4809    1.9038 C   0  0  0  0  0  0  0  0  0  0  0  0
  -12.0676   12.5318    2.3436 C   0  0  0  0  0  0  0  0  0  0  0  0
  -13.2020   13.1683    2.7678 N   0  0  0  0  0  0  0  0  0  0  0  0
  -13.1592   14.4298    3.2046 C   0  0  0  0  0  0  0  0  0  0  0  0
  -12.0041   15.1008    3.2338 N   0  0  0  0  0  0  0  0  0  0  0  0
  -10.8372   14.5335    2.8317 C   0  0  0  0  0  0  0  0  0  0  0  0
  -10.8166   13.2127    2.3699 C   0  0  0  0  0  0  0  0  0  0  0  0
  5  4  1  0  0  0  0
  5  6  1  0  0  0  0
  7  8  2  0  0  0  0
  7 11  1  0  0  0  0
  8  9  1  0  0  0  0
  9 10  2  0  0  0  0
  9  6  1  0  0  0  0
 10  3  1  0  0  0  0
 11 12  1  0  0  0  0
 11 10  1  0  0  0  0
 12 18  1  0  0  0  0
 13  2  1  0  0  0  0
 13 14  2  0  0  0  0
 15 14  1  0  0  0  0
 15  1  1  0  0  0  0
 16 15  2  0  0  0  0
 17 18  2  0  0  0  0
 17 16  1  0  0  0  0
 18 13  1  0  0  0  0
M  END
>  <CHROM.1>
71.11902566,-48.81731389,-67.50171911,154.40349006,-8.96989575,13.85083158
1.81744751,3.01152249,-0.25724231,2.97173423

>  <Name>
lig.pdb

>  <RI>
0

>  <Rbt.Current_Directory>
/home/itssahil/PROJECTS/Mol_Feturizer/New_Systems/rnas/4nyg

>  <Rbt.Executable>
rbdock ($Id: //depot/dev/client3/rdock/2013.1/src/exe/rbdock.cxx#4 $)

>  <Rbt.Library>
libRbt.so (2013.1, Build901 2013/11/27)

>  <Rbt.Parameter_File>
/export/apps/rDock/src/rDock_2013.1_src/data/scripts/dock_solv.prm

>  <Rbt.Receptor>
prm/pocket_docking_4.prm

>  <SCORE>
-18.498

>  <SCORE.INTER>
-18.6031

>  <SCORE.INTER.CONST>
1

>  <SCORE.INTER.POLAR>
0

>  <SCORE.INTER.ROT>
4

>  <SCORE.INTER.SOLV>
14.0669

>  <SCORE.INTER.VDW>
-23.3577

>  <SCORE.INTER.norm>
-1.03351

>  <SCORE.INTRA>
0.105056

>  <SCORE.INTRA.DIHEDRAL>
0.569427

>  <SCORE.INTRA.DIHEDRAL.0>
3.20029

>  <SCORE.INTRA.POLAR>
0

>  <SCORE.INTRA.POLAR.0>
0

>  <SCORE.INTRA.REPUL>
0

>  <SCORE.INTRA.REPUL.0>
0

>  <SCORE.INTRA.SOLV>
0.356971

>  <SCORE.INTRA.SOLV.lig_0>
-19.3885

>  <SCORE.INTRA.VDW>
-0.358143

>  <SCORE.INTRA.VDW.0>
-1.12705

>  <SCORE.INTRA.norm>
0.00583645

>  <SCORE.RESTR>
0

>  <SCORE.RESTR.CAVITY>
0

>  <SCORE.RESTR.norm>
0

>  <SCORE.SYSTEM>
0

>  <SCORE.SYSTEM.CONST>
0

>  <SCORE.SYSTEM.DIHEDRAL>
0

>  <SCORE.SYSTEM.SOLV>
0

>  <SCORE.SYSTEM.norm>
0

>  <SCORE.heavy>
18

>  <SCORE.norm>
-1.02767

>  <RMSD>
2.944

$$$$
lig.pdb
 OpenBabel11021811503D
libRbt.so/2013.1/901 2013/11/27
 18 19  0  0  0  0  0  0  0  0999 V2000
  -14.9250   15.5986    3.9844 C   0  0  0  0  0  0  0  0  0  0  0  0
  -11.7972   12.2807    2.3288 N   0  0  0  0  0  0  0  0  0  0  0  0
   -7.0983   14.2744    2.9568 C   0  0  0  0  0  0  0  0  0  0  0  0
   -4.0700   18.0979    3.6225 O   0  0  0  0  0  0  0  0  0  0  0  0
   -5.3395   17.8728    3.0253 C   0  0  0  0  0  0  0  0  0  0  0  0
   -5.2785   16.6510    2.0880 C   0  0  0  0  0  0  0  0  0  0  0  0
   -9.0901   16.2712    0.4958 C   0  0  0  0  0  0  0  0  0  0  0  0
   -7.6712   17.2661    0.4682 S   0  0  0  0  0  0  0  0  0  0  0  0
   -6.6876   16.3471    1.6295 C   0  0  0  0  0  0  0  0  0  0  0  0
   -7.5479   15.3295    1.9601 C   0  0  0  0  0  0  0  0  0  0  0  0
   -8.7786   15.3160    1.3625 N   0  0  0  0  0  0  0  0  0  0  0  0
   -9.7786   14.2272    1.6499 C   0  0  0  0  0  0  0  0  0  0  0  0
  -12.0886   13.6232    2.5699 C   0  0  0  0  0  0  0  0  0  0  0  0
  -13.2927   13.9697    3.1194 N   0  0  0  0  0  0  0  0  0  0  0  0
  -13.5945   15.2479    3.3619 C   0  0  0  0  0  0  0  0  0  0  0  0
  -12.7254   16.2196    3.0691 N   0  0  0  0  0  0  0  0  0  0  0  0
  -11.5099   15.9517    2.5251 C   0  0  0  0  0  0  0  0  0  0  0  0
  -11.1333   14.6316    2.2538 C   0  0  0  0  0  0  0  0  0  0  0  0
  5  4  1  0  0  0  0
  5  6  1  0  0  0  0
  7  8  2  0  0  0  0
  7 11  1  0  0  0  0
  8  9  1  0  0  0  0
  9 10  2  0  0  0  0
  9  6  1  0  0  0  0
 10  3  1  0  0  0  0
 11 12  1  0  0  0  0
 11 10  1  0  0  0  0
 12 18  1  0  0  0  0
 13  2  1  0  0  0  0
 13 14  2  0  0  0  0
 15 14  1  0  0  0  0
 15  1  1  0  0  0  0
 16 15  2  0  0  0  0
 17 18  2  0  0  0  0
 17 16  1  0  0  0  0
 18 13  1  0  0  0  0
M  END
>  <CHROM.1>
172.50113183,72.93659258,-61.31218986,-178.38990321,-9.38619044,15.65949409
2.25417661,2.84860596,-0.17890110,-2.93592846

>  <Name>
lig.pdb

>  <RI>
0

>  <Rbt.Current_Directory>
/home/itssahil/PROJECTS/Mol_Feturizer/New_Systems/rnas/4nyg

>  <Rbt.Executable>
rbdock ($Id: //depot/dev/client3/rdock/2013.1/src/exe/rbdock.cxx#4 $)

>  <Rbt.Library>
libRbt.so (2013.1, Build901 2013/11/27)

>  <Rbt.Parameter_File>
/export/apps/rDock/src/rDock_2013.1_src/data/scripts/dock_solv.prm

>  <Rbt.Receptor>
prm/pocket_docking_3.prm

>  <SCORE>
-18.9639

>  <SCORE.INTER>
-18.9296

>  <SCORE.INTER.CONST>
1

>  <SCORE.INTER.POLAR>
0

>  <SCORE.INTER.ROT>
4

>  <SCORE.INTER.SOLV>
14.5618

>  <SCORE.INTER.VDW>
-23.7404

>  <SCORE.INTER.norm>
-1.05165

>  <SCORE.INTRA>
-0.0343254

>  <SCORE.INTRA.DIHEDRAL>
0.416668

>  <SCORE.INTRA.DIHEDRAL.0>
3.20029

>  <SCORE.INTRA.POLAR>
0

>  <SCORE.INTRA.POLAR.0>
0

>  <SCORE.INTRA.REPUL>
0

>  <SCORE.INTRA.REPUL.0>
0

>  <SCORE.INTRA.SOLV>
-0.00676036

>  <SCORE.INTRA.SOLV.lig_0>
-19.3885

>  <SCORE.INTRA.VDW>
-0.239279

>  <SCORE.INTRA.VDW.0>
-1.12705

>  <SCORE.INTRA.norm>
-0.00190697

>  <SCORE.RESTR>
0

>  <SCORE.RESTR.CAVITY>
0

>  <SCORE.RESTR.norm>
0

>  <SCORE.SYSTEM>
0

>  <SCORE.SYSTEM.CONST>
0

>  <SCORE.SYSTEM.DIHEDRAL>
0

>  <SCORE.SYSTEM.SOLV>
0

>  <SCORE.SYSTEM.norm>
0

>  <SCORE.heavy>
18

>  <SCORE.norm>
-1.05355

>  <RMSD>
2.979

$$$$
lig.pdb
 OpenBabel11021811503D
libRbt.so/2013.1/901 2013/11/27
 18 19  0  0  0  0  0  0  0  0999 V2000
  -14.3983   15.3846    3.6430 C   0  0  0  0  0  0  0  0  0  0  0  0
  -12.1602   11.4062    2.0010 N   0  0  0  0  0  0  0  0  0  0  0  0
   -6.6046   12.3680    2.6430 C   0  0  0  0  0  0  0  0  0  0  0  0
   -2.9952   15.5272    0.6699 O   0  0  0  0  0  0  0  0  0  0  0  0
   -4.4100   15.3953    0.6761 C   0  0  0  0  0  0  0  0  0  0  0  0
   -4.8068   13.9075    0.6149 C   0  0  0  0  0  0  0  0  0  0  0  0
   -8.9345   14.0075    0.2150 C   0  0  0  0  0  0  0  0  0  0  0  0
   -7.4612   14.5910   -0.4870 S   0  0  0  0  0  0  0  0  0  0  0  0
   -6.3172   13.8287    0.6403 C   0  0  0  0  0  0  0  0  0  0  0  0
   -7.1759   13.1771    1.4906 C   0  0  0  0  0  0  0  0  0  0  0  0
   -8.5181   13.2876    1.2489 N   0  0  0  0  0  0  0  0  0  0  0  0
   -9.5318   12.5906    2.1175 C   0  0  0  0  0  0  0  0  0  0  0  0
  -12.0665   12.7268    2.4401 C   0  0  0  0  0  0  0  0  0  0  0  0
  -13.1980   13.4038    2.8052 N   0  0  0  0  0  0  0  0  0  0  0  0
  -13.1343   14.6681    3.2311 C   0  0  0  0  0  0  0  0  0  0  0  0
  -11.9607   15.3023    3.3070 N   0  0  0  0  0  0  0  0  0  0  0  0
  -10.7956   14.6935    2.9647 C   0  0  0  0  0  0  0  0  0  0  0  0
  -10.7967   13.3677    2.5173 C   0  0  0  0  0  0  0  0  0  0  0  0
  5  4  1  0  0  0  0
  5  6  1  0  0  0  0
  7  8  2  0  0  0  0
  7 11  1  0  0  0  0
  8  9  1  0  0  0  0
  9 10  2  0  0  0  0
  9  6  1  0  0  0  0
 10  3  1  0  0  0  0
 11 12  1  0  0  0  0
 11 10  1  0  0  0  0
 12 18  1  0  0  0  0
 13  2  1  0  0  0  0
 13 14  2  0  0  0  0
 15 14  1  0  0  0  0
 15  1  1  0  0  0  0
 16 15  2  0  0  0  0
 17 18  2  0  0  0  0
 17 16  1  0  0  0  0
 18 13  1  0  0  0  0
M  END
>  <CHROM.1>
179.36232623,57.08030595,-43.36490301,135.25949802,-8.99330999,13.93928285
1.65401916,3.07749938,-0.30305560,-3.12385844

>  <Name>
lig.pdb

>  <RI>
0

>  <Rbt.Current_Directory>
/home/itssahil/PROJECTS/Mol_Feturizer/New_Systems/rnas/4nyg

>  <Rbt.Executable>
rbdock ($Id: //depot/dev/client3/rdock/2013.1/src/exe/rbdock.cxx#4 $)

>  <Rbt.Library>
libRbt.so (2013.1, Build901 2013/11/27)

>  <Rbt.Parameter_File>
/export/apps/rDock/src/rDock_2013.1_src/data/scripts/dock_solv.prm

>  <Rbt.Receptor>
prm/pocket_docking_3.prm

>  <SCORE>
-20.8146

>  <SCORE.INTER>
-20.6298

>  <SCORE.INTER.CONST>
1

>  <SCORE.INTER.POLAR>
0

>  <SCORE.INTER.ROT>
4

>  <SCORE.INTER.SOLV>
14.3759

>  <SCORE.INTER.VDW>
-24.8118

>  <SCORE.INTER.norm>
-1.1461

>  <SCORE.INTRA>
-0.184748

>  <SCORE.INTRA.DIHEDRAL>
-0.0092695

>  <SCORE.INTRA.DIHEDRAL.0>
3.20029

>  <SCORE.INTRA.POLAR>
0

>  <SCORE.INTRA.POLAR.0>
0

>  <SCORE.INTRA.REPUL>
0

>  <SCORE.INTRA.REPUL.0>
0

>  <SCORE.INTRA.SOLV>
-0.00654209

>  <SCORE.INTRA.SOLV.lig_0>
-19.3885

>  <SCORE.INTRA.VDW>
-0.176842

>  <SCORE.INTRA.VDW.0>
-1.12705

>  <SCORE.INTRA.norm>
-0.0102638

>  <SCORE.RESTR>
0

>  <SCORE.RESTR.CAVITY>
0

>  <SCORE.RESTR.norm>
0

>  <SCORE.SYSTEM>
0

>  <SCORE.SYSTEM.CONST>
0

>  <SCORE.SYSTEM.DIHEDRAL>
0

>  <SCORE.SYSTEM.SOLV>
0

>  <SCORE.SYSTEM.norm>
0

>  <SCORE.heavy>
18

>  <SCORE.norm>
-1.15636

>  <RMSD>
2.980

$$$$
lig.pdb
 OpenBabel11021811503D
libRbt.so/2013.1/901 2013/11/27
 18 19  0  0  0  0  0  0  0  0999 V2000
  -14.2376   14.5147    3.3638 C   0  0  0  0  0  0  0  0  0  0  0  0
  -11.1156   11.0687    1.9814 N   0  0  0  0  0  0  0  0  0  0  0  0
   -7.7646   14.7303    3.6044 C   0  0  0  0  0  0  0  0  0  0  0  0
   -7.0035   18.4618    1.3813 O   0  0  0  0  0  0  0  0  0  0  0  0
   -6.5633   18.0063    2.6532 C   0  0  0  0  0  0  0  0  0  0  0  0
   -5.6741   16.7578    2.4936 C   0  0  0  0  0  0  0  0  0  0  0  0
   -7.5488   14.0974   -0.0786 C   0  0  0  0  0  0  0  0  0  0  0  0
   -6.3946   15.3892   -0.0234 S   0  0  0  0  0  0  0  0  0  0  0  0
   -6.4619   15.7226    1.7216 C   0  0  0  0  0  0  0  0  0  0  0  0
   -7.3915   14.7999    2.1331 C   0  0  0  0  0  0  0  0  0  0  0  0
   -7.9357   13.9772    1.1850 N   0  0  0  0  0  0  0  0  0  0  0  0
   -8.9475   12.9225    1.5485 C   0  0  0  0  0  0  0  0  0  0  0  0
  -11.3665   12.4208    2.2147 C   0  0  0  0  0  0  0  0  0  0  0  0
  -12.6034   12.8188    2.6432 N   0  0  0  0  0  0  0  0  0  0  0  0
  -12.8678   14.1072    2.8757 C   0  0  0  0  0  0  0  0  0  0  0  0
  -11.9279   15.0388    2.6912 N   0  0  0  0  0  0  0  0  0  0  0  0
  -10.6766   14.7185    2.2707 C   0  0  0  0  0  0  0  0  0  0  0  0
  -10.3368   13.3851    2.0165 C   0  0  0  0  0  0  0  0  0  0  0  0
  5  4  1  0  0  0  0
  5  6  1  0  0  0  0
  7  8  2  0  0  0  0
  7 11  1  0  0  0  0
  8  9  1  0  0  0  0
  9 10  2  0  0  0  0
  9  6  1  0  0  0  0
 10  3  1  0  0  0  0
 11 12  1  0  0  0  0
 11 10  1  0  0  0  0
 12 18  1  0  0  0  0
 13  2  1  0  0  0  0
 13 14  2  0  0  0  0
 15 14  1  0  0  0  0
 15  1  1  0  0  0  0
 16 15  2  0  0  0  0
 17 18  2  0  0  0  0
 17 16  1  0  0  0  0
 18 13  1  0  0  0  0
M  END
>  <CHROM.1>
-55.58136373,96.73220613,-112.63428902,172.54832481,-9.05110930,14.71242808
1.90332942,2.77293354,-0.36420545,-2.78487177

>  <Name>
lig.pdb

>  <RI>
0

>  <Rbt.Current_Directory>
/home/itssahil/PROJECTS/Mol_Feturizer/New_Systems/rnas/4nyg

>  <Rbt.Executable>
rbdock ($Id: //depot/dev/client3/rdock/2013.1/src/exe/rbdock.cxx#4 $)

>  <Rbt.Library>
libRbt.so (2013.1, Build901 2013/11/27)

>  <Rbt.Parameter_File>
/export/apps/rDock/src/rDock_2013.1_src/data/scripts/dock_solv.prm

>  <Rbt.Receptor>
prm/blind_docking_20.prm

>  <SCORE>
-15.1413

>  <SCORE.INTER>
-17.1712

>  <SCORE.INTER.CONST>
1

>  <SCORE.INTER.POLAR>
0

>  <SCORE.INTER.ROT>
4

>  <SCORE.INTER.SOLV>
14.571

>  <SCORE.INTER.VDW>
-22.5711

>  <SCORE.INTER.norm>
-0.953955

>  <SCORE.INTRA>
0.823692

>  <SCORE.INTRA.DIHEDRAL>
1.76664

>  <SCORE.INTRA.DIHEDRAL.0>
3.20029

>  <SCORE.INTRA.POLAR>
0

>  <SCORE.INTRA.POLAR.0>
0

>  <SCORE.INTRA.REPUL>
0

>  <SCORE.INTRA.REPUL.0>
0

>  <SCORE.INTRA.SOLV>
0.568744

>  <SCORE.INTRA.SOLV.lig_0>
-19.3885

>  <SCORE.INTRA.VDW>
-0.344001

>  <SCORE.INTRA.VDW.0>
-1.12705

>  <SCORE.INTRA.norm>
0.0457607

>  <SCORE.RESTR>
1.20614

>  <SCORE.RESTR.CAVITY>
1.20614

>  <SCORE.RESTR.norm>
0.067008

>  <SCORE.SYSTEM>
0

>  <SCORE.SYSTEM.CONST>
0

>  <SCORE.SYSTEM.DIHEDRAL>
0

>  <SCORE.SYSTEM.SOLV>
0

>  <SCORE.SYSTEM.norm>
0

>  <SCORE.heavy>
18

>  <SCORE.norm>
-0.841186

>  <RMSD>
3.026

$$$$
lig.pdb
 OpenBabel11021811503D
libRbt.so/2013.1/901 2013/11/27
 18 19  0  0  0  0  0  0  0  0999 V2000
  -15.0627   15.9801    4.1068 C   0  0  0  0  0  0  0  0  0  0  0  0
  -11.6850   12.5877    3.3223 N   0  0  0  0  0  0  0  0  0  0  0  0
   -7.2852   13.0334    2.6580 C   0  0  0  0  0  0  0  0  0  0  0  0
   -4.1152   17.1141    2.9143 O   0  0  0  0  0  0  0  0  0  0  0  0
   -4.0263   15.7252    2.6279 C   0  0  0  0  0  0  0  0  0  0  0  0
   -4.9763   14.9302    3.5447 C   0  0  0  0  0  0  0  0  0  0  0  0
   -8.7079   16.4956    2.6318 C   0  0  0  0  0  0  0  0  0  0  0  0
   -7.1143   16.9315    3.1558 S   0  0  0  0  0  0  0  0  0  0  0  0
   -6.3955   15.3056    3.1797 C   0  0  0  0  0  0  0  0  0  0  0  0
   -7.4614   14.5376    2.7812 C   0  0  0  0  0  0  0  0  0  0  0  0
   -8.6400   15.1763    2.5071 N   0  0  0  0  0  0  0  0  0  0  0  0
   -9.8552   14.4164    2.0446 C   0  0  0  0  0  0  0  0  0  0  0  0
  -12.0884   13.9162    3.1892 C   0  0  0  0  0  0  0  0  0  0  0  0
  -13.3090   14.3075    3.6676 N   0  0  0  0  0  0  0  0  0  0  0  0
  -13.7171   15.5741    3.5543 C   0  0  0  0  0  0  0  0  0  0  0  0
  -12.9410   16.4891    2.9664 N   0  0  0  0  0  0  0  0  0  0  0  0
  -11.7158   16.1754    2.4707 C   0  0  0  0  0  0  0  0  0  0  0  0
  -11.2300   14.8665    2.5651 C   0  0  0  0  0  0  0  0  0  0  0  0
  5  4  1  0  0  0  0
  5  6  1  0  0  0  0
  7  8  2  0  0  0  0
  7 11  1  0  0  0  0
  8  9  1  0  0  0  0
  9 10  2  0  0  0  0
  9  6  1  0  0  0  0
 10  3  1  0  0  0  0
 11 12  1  0  0  0  0
 11 10  1  0  0  0  0
 12 18  1  0  0  0  0
 13  2  1  0  0  0  0
 13 14  2  0  0  0  0
 15 14  1  0  0  0  0
 15  1  1  0  0  0  0
 16 15  2  0  0  0  0
 17 18  2  0  0  0  0
 17 16  1  0  0  0  0
 18 13  1  0  0  0  0
M  END
>  <CHROM.1>
66.32258622,-56.41143490,-38.97278739,-126.49765168,-9.24014505,15.33136325
3.00833449,3.04680054,-0.05753699,-3.09070607

>  <Name>
lig.pdb

>  <RI>
0

>  <Rbt.Current_Directory>
/home/itssahil/PROJECTS/Mol_Feturizer/New_Systems/rnas/4nyg

>  <Rbt.Executable>
rbdock ($Id: //depot/dev/client3/rdock/2013.1/src/exe/rbdock.cxx#4 $)

>  <Rbt.Library>
libRbt.so (2013.1, Build901 2013/11/27)

>  <Rbt.Parameter_File>
/export/apps/rDock/src/rDock_2013.1_src/data/scripts/dock_solv.prm

>  <Rbt.Receptor>
prm/pocket_docking_6.prm

>  <SCORE>
-17.4715

>  <SCORE.INTER>
-17.9495

>  <SCORE.INTER.CONST>
1

>  <SCORE.INTER.POLAR>
0

>  <SCORE.INTER.ROT>
4

>  <SCORE.INTER.SOLV>
12.8027

>  <SCORE.INTER.VDW>
-22.5006

>  <SCORE.INTER.norm>
-0.997195

>  <SCORE.INTRA>
0.478017

>  <SCORE.INTRA.DIHEDRAL>
0.150073

>  <SCORE.INTRA.DIHEDRAL.0>
3.20029

>  <SCORE.INTRA.POLAR>
0

>  <SCORE.INTRA.POLAR.0>
0

>  <SCORE.INTRA.REPUL>
0

>  <SCORE.INTRA.REPUL.0>
0

>  <SCORE.INTRA.SOLV>
0.553967

>  <SCORE.INTRA.SOLV.lig_0>
-19.3885

>  <SCORE.INTRA.VDW>
0.125997

>  <SCORE.INTRA.VDW.0>
-1.12705

>  <SCORE.INTRA.norm>
0.0265565

>  <SCORE.RESTR>
0

>  <SCORE.RESTR.CAVITY>
0

>  <SCORE.RESTR.norm>
0

>  <SCORE.SYSTEM>
0

>  <SCORE.SYSTEM.CONST>
0

>  <SCORE.SYSTEM.DIHEDRAL>
0

>  <SCORE.SYSTEM.SOLV>
0

>  <SCORE.SYSTEM.norm>
0

>  <SCORE.heavy>
18

>  <SCORE.norm>
-0.970638

>  <RMSD>
3.027

$$$$
lig.pdb
 OpenBabel11021811503D
libRbt.so/2013.1/901 2013/11/27
 18 19  0  0  0  0  0  0  0  0999 V2000
  -14.5704   16.1641    3.4904 C   0  0  0  0  0  0  0  0  0  0  0  0
  -12.1677   12.0819    2.4441 N   0  0  0  0  0  0  0  0  0  0  0  0
   -7.1192   14.8287    3.2731 C   0  0  0  0  0  0  0  0  0  0  0  0
   -4.3531   17.9417    0.3192 O   0  0  0  0  0  0  0  0  0  0  0  0
   -5.5626   17.1965    0.2947 C   0  0  0  0  0  0  0  0  0  0  0  0
   -5.3400   15.7990    0.9049 C   0  0  0  0  0  0  0  0  0  0  0  0
   -8.8613   13.7428    0.1430 C   0  0  0  0  0  0  0  0  0  0  0  0
   -7.5141   14.5141   -0.6279 S   0  0  0  0  0  0  0  0  0  0  0  0
   -6.6503   15.0467    0.8319 C   0  0  0  0  0  0  0  0  0  0  0  0
   -7.4865   14.5862    1.8187 C   0  0  0  0  0  0  0  0  0  0  0  0
   -8.6182   13.9197    1.4353 N   0  0  0  0  0  0  0  0  0  0  0  0
   -9.5821   13.3624    2.4494 C   0  0  0  0  0  0  0  0  0  0  0  0
  -12.1268   13.4519    2.7024 C   0  0  0  0  0  0  0  0  0  0  0  0
  -13.2876   14.1320    2.9511 N   0  0  0  0  0  0  0  0  0  0  0  0
  -13.2747   15.4435    3.2032 C   0  0  0  0  0  0  0  0  0  0  0  0
  -12.1242   16.1228    3.2151 N   0  0  0  0  0  0  0  0  0  0  0  0
  -10.9324   15.5147    2.9804 C   0  0  0  0  0  0  0  0  0  0  0  0
  -10.8803   14.1415    2.7164 C   0  0  0  0  0  0  0  0  0  0  0  0
  5  4  1  0  0  0  0
  5  6  1  0  0  0  0
  7  8  2  0  0  0  0
  7 11  1  0  0  0  0
  8  9  1  0  0  0  0
  9 10  2  0  0  0  0
  9  6  1  0  0  0  0
 10  3  1  0  0  0  0
 11 12  1  0  0  0  0
 11 10  1  0  0  0  0
 12 18  1  0  0  0  0
 13  2  1  0  0  0  0
 13 14  2  0  0  0  0
 15 14  1  0  0  0  0
 15  1  1  0  0  0  0
 16 15  2  0  0  0  0
 17 18  2  0  0  0  0
 17 16  1  0  0  0  0
 18 13  1  0  0  0  0
M  END
>  <CHROM.1>
-179.10613229,65.68800538,-78.92676590,130.72220856,-9.27967499,14.90612581
1.73299262,3.06925340,-0.39188240,-2.84040731

>  <Name>
lig.pdb

>  <RI>
0

>  <Rbt.Current_Directory>
/home/itssahil/PROJECTS/Mol_Feturizer/New_Systems/rnas/4nyg

>  <Rbt.Executable>
rbdock ($Id: //depot/dev/client3/rdock/2013.1/src/exe/rbdock.cxx#4 $)

>  <Rbt.Library>
libRbt.so (2013.1, Build901 2013/11/27)

>  <Rbt.Parameter_File>
/export/apps/rDock/src/rDock_2013.1_src/data/scripts/dock_solv.prm

>  <Rbt.Receptor>
prm/pocket_docking_5.prm

>  <SCORE>
-20.7912

>  <SCORE.INTER>
-20.2309

>  <SCORE.INTER.CONST>
1

>  <SCORE.INTER.POLAR>
0

>  <SCORE.INTER.ROT>
4

>  <SCORE.INTER.SOLV>
13.8316

>  <SCORE.INTER.VDW>
-24.3644

>  <SCORE.INTER.norm>
-1.12394

>  <SCORE.INTRA>
-0.560304

>  <SCORE.INTRA.DIHEDRAL>
-0.0748293

>  <SCORE.INTRA.DIHEDRAL.0>
3.20029

>  <SCORE.INTRA.POLAR>
0

>  <SCORE.INTRA.POLAR.0>
0

>  <SCORE.INTRA.REPUL>
0

>  <SCORE.INTRA.REPUL.0>
0

>  <SCORE.INTRA.SOLV>
0.0512014

>  <SCORE.INTRA.SOLV.lig_0>
-19.3885

>  <SCORE.INTRA.VDW>
-0.54849

>  <SCORE.INTRA.VDW.0>
-1.12705

>  <SCORE.INTRA.norm>
-0.031128

>  <SCORE.RESTR>
0

>  <SCORE.RESTR.CAVITY>
0

>  <SCORE.RESTR.norm>
0

>  <SCORE.SYSTEM>
0

>  <SCORE.SYSTEM.CONST>
0

>  <SCORE.SYSTEM.DIHEDRAL>
0

>  <SCORE.SYSTEM.SOLV>
0

>  <SCORE.SYSTEM.norm>
0

>  <SCORE.heavy>
18

>  <SCORE.norm>
-1.15506

>  <RMSD>
3.050

$$$$
lig.pdb
 OpenBabel11021811503D
libRbt.so/2013.1/901 2013/11/27
 18 19  0  0  0  0  0  0  0  0999 V2000
  -14.5157   16.0931    3.5725 C   0  0  0  0  0  0  0  0  0  0  0  0
  -12.3352   11.9618    2.2650 N   0  0  0  0  0  0  0  0  0  0  0  0
   -7.0853   14.0051    3.4369 C   0  0  0  0  0  0  0  0  0  0  0  0
   -5.5692   17.2376    0.0495 O   0  0  0  0  0  0  0  0  0  0  0  0
   -5.1855   16.7822    1.3396 C   0  0  0  0  0  0  0  0  0  0  0  0
   -5.1156   15.2429    1.3624 C   0  0  0  0  0  0  0  0  0  0  0  0
   -8.8480   13.9111    0.1360 C   0  0  0  0  0  0  0  0  0  0  0  0
   -7.3863   14.6494   -0.4318 S   0  0  0  0  0  0  0  0  0  0  0  0
   -6.5099   14.7114    1.1137 C   0  0  0  0  0  0  0  0  0  0  0  0
   -7.4319   14.1543    1.9650 C   0  0  0  0  0  0  0  0  0  0  0  0
   -8.6275   13.7526    1.4348 N   0  0  0  0  0  0  0  0  0  0  0  0
   -9.6897   13.1131    2.2898 C   0  0  0  0  0  0  0  0  0  0  0  0
  -12.2223   13.3122    2.5951 C   0  0  0  0  0  0  0  0  0  0  0  0
  -13.3439   14.0333    2.9015 N   0  0  0  0  0  0  0  0  0  0  0  0
  -13.2620   15.3271    3.2230 C   0  0  0  0  0  0  0  0  0  0  0  0
  -12.0793   15.9481    3.2493 N   0  0  0  0  0  0  0  0  0  0  0  0
  -10.9230   15.2965    2.9601 C   0  0  0  0  0  0  0  0  0  0  0  0
  -10.9432   13.9387    2.6224 C   0  0  0  0  0  0  0  0  0  0  0  0
  5  4  1  0  0  0  0
  5  6  1  0  0  0  0
  7  8  2  0  0  0  0
  7 11  1  0  0  0  0
  8  9  1  0  0  0  0
  9 10  2  0  0  0  0
  9  6  1  0  0  0  0
 10  3  1  0  0  0  0
 11 12  1  0  0  0  0
 11 10  1  0  0  0  0
 12 18  1  0  0  0  0
 13  2  1  0  0  0  0
 13 14  2  0  0  0  0
 15 14  1  0  0  0  0
 15  1  1  0  0  0  0
 16 15  2  0  0  0  0
 17 18  2  0  0  0  0
 17 16  1  0  0  0  0
 18 13  1  0  0  0  0
M  END
>  <CHROM.1>
-63.99123391,75.62907322,-73.56954128,138.77044707,-9.31340153,14.67466379
1.82592525,3.07123616,-0.34035513,-2.94940131

>  <Name>
lig.pdb

>  <RI>
0

>  <Rbt.Current_Directory>
/home/itssahil/PROJECTS/Mol_Feturizer/New_Systems/rnas/4nyg

>  <Rbt.Executable>
rbdock ($Id: //depot/dev/client3/rdock/2013.1/src/exe/rbdock.cxx#4 $)

>  <Rbt.Library>
libRbt.so (2013.1, Build901 2013/11/27)

>  <Rbt.Parameter_File>
/export/apps/rDock/src/rDock_2013.1_src/data/scripts/dock_solv.prm

>  <Rbt.Receptor>
prm/pocket_docking_3.prm

>  <SCORE>
-20.1022

>  <SCORE.INTER>
-19.7941

>  <SCORE.INTER.CONST>
1

>  <SCORE.INTER.POLAR>
0

>  <SCORE.INTER.ROT>
4

>  <SCORE.INTER.SOLV>
13.6361

>  <SCORE.INTER.VDW>
-24.0081

>  <SCORE.INTER.norm>
-1.09967

>  <SCORE.INTRA>
-0.308106

>  <SCORE.INTRA.DIHEDRAL>
0.356464

>  <SCORE.INTRA.DIHEDRAL.0>
3.20029

>  <SCORE.INTRA.POLAR>
0

>  <SCORE.INTRA.POLAR.0>
0

>  <SCORE.INTRA.REPUL>
0

>  <SCORE.INTRA.REPUL.0>
0

>  <SCORE.INTRA.SOLV>
0.415115

>  <SCORE.INTRA.SOLV.lig_0>
-19.3885

>  <SCORE.INTRA.VDW>
-0.693895

>  <SCORE.INTRA.VDW.0>
-1.12705

>  <SCORE.INTRA.norm>
-0.017117

>  <SCORE.RESTR>
0

>  <SCORE.RESTR.CAVITY>
0

>  <SCORE.RESTR.norm>
0

>  <SCORE.SYSTEM>
0

>  <SCORE.SYSTEM.CONST>
0

>  <SCORE.SYSTEM.DIHEDRAL>
0

>  <SCORE.SYSTEM.SOLV>
0

>  <SCORE.SYSTEM.norm>
0

>  <SCORE.heavy>
18

>  <SCORE.norm>
-1.11679

>  <RMSD>
3.089

$$$$
lig.pdb
 OpenBabel11021811503D
libRbt.so/2013.1/901 2013/11/27
 18 19  0  0  0  0  0  0  0  0999 V2000
  -14.7346   15.7790    3.8447 C   0  0  0  0  0  0  0  0  0  0  0  0
  -11.6414   12.1069    3.1519 N   0  0  0  0  0  0  0  0  0  0  0  0
   -8.1311   14.7323   -0.4027 C   0  0  0  0  0  0  0  0  0  0  0  0
   -3.7815   15.9937    1.5439 O   0  0  0  0  0  0  0  0  0  0  0  0
   -4.3523   15.8659    0.2490 C   0  0  0  0  0  0  0  0  0  0  0  0
   -5.7063   16.5993    0.1888 C   0  0  0  0  0  0  0  0  0  0  0  0
   -7.9534   15.0674    3.3212 C   0  0  0  0  0  0  0  0  0  0  0  0
   -6.5869   16.0699    2.9585 S   0  0  0  0  0  0  0  0  0  0  0  0
   -6.6347   15.9421    1.1860 C   0  0  0  0  0  0  0  0  0  0  0  0
   -7.7163   15.1154    1.0080 C   0  0  0  0  0  0  0  0  0  0  0  0
   -8.3755   14.6791    2.1247 N   0  0  0  0  0  0  0  0  0  0  0  0
   -9.5840   13.7861    2.0238 C   0  0  0  0  0  0  0  0  0  0  0  0
  -11.9140   13.4696    3.0330 C   0  0  0  0  0  0  0  0  0  0  0  0
  -13.1187   13.9615    3.4556 N   0  0  0  0  0  0  0  0  0  0  0  0
  -13.4028   15.2626    3.3546 C   0  0  0  0  0  0  0  0  0  0  0  0
  -12.5148   16.1145    2.8339 N   0  0  0  0  0  0  0  0  0  0  0  0
  -11.2976   15.6998    2.3964 C   0  0  0  0  0  0  0  0  0  0  0  0
  -10.9390   14.3499    2.4816 C   0  0  0  0  0  0  0  0  0  0  0  0
  5  4  1  0  0  0  0
  5  6  1  0  0  0  0
  7  8  2  0  0  0  0
  7 11  1  0  0  0  0
  8  9  1  0  0  0  0
  9 10  2  0  0  0  0
  9  6  1  0  0  0  0
 10  3  1  0  0  0  0
 11 12  1  0  0  0  0
 11 10  1  0  0  0  0
 12 18  1  0  0  0  0
 13  2  1  0  0  0  0
 13 14  2  0  0  0  0
 15 14  1  0  0  0  0
 15  1  1  0  0  0  0
 16 15  2  0  0  0  0
 17 18  2  0  0  0  0
 17 16  1  0  0  0  0
 18 13  1  0  0  0  0
M  END
>  <CHROM.1>
-61.86055033,73.41235073,65.00087218,-148.96010249,-9.10632839,15.11870771
2.19246750,3.07765184,-0.30311081,-2.79398376

>  <Name>
lig.pdb

>  <RI>
0

>  <Rbt.Current_Directory>
/home/itssahil/PROJECTS/Mol_Feturizer/New_Systems/rnas/4nyg

>  <Rbt.Executable>
rbdock ($Id: //depot/dev/client3/rdock/2013.1/src/exe/rbdock.cxx#4 $)

>  <Rbt.Library>
libRbt.so (2013.1, Build901 2013/11/27)

>  <Rbt.Parameter_File>
/export/apps/rDock/src/rDock_2013.1_src/data/scripts/dock_solv.prm

>  <Rbt.Receptor>
prm/pocket_docking_3.prm

>  <SCORE>
-19.1961

>  <SCORE.INTER>
-18.9507

>  <SCORE.INTER.CONST>
1

>  <SCORE.INTER.POLAR>
0

>  <SCORE.INTER.ROT>
4

>  <SCORE.INTER.SOLV>
12.1336

>  <SCORE.INTER.VDW>
-22.945

>  <SCORE.INTER.norm>
-1.05282

>  <SCORE.INTRA>
-0.245463

>  <SCORE.INTRA.DIHEDRAL>
0.261481

>  <SCORE.INTRA.DIHEDRAL.0>
3.20029

>  <SCORE.INTRA.POLAR>
0

>  <SCORE.INTRA.POLAR.0>
0

>  <SCORE.INTRA.REPUL>
0

>  <SCORE.INTRA.REPUL.0>
0

>  <SCORE.INTRA.SOLV>
0.405769

>  <SCORE.INTRA.SOLV.lig_0>
-19.3885

>  <SCORE.INTRA.VDW>
-0.579088

>  <SCORE.INTRA.VDW.0>
-1.12705

>  <SCORE.INTRA.norm>
-0.0136369

>  <SCORE.RESTR>
0

>  <SCORE.RESTR.CAVITY>
0

>  <SCORE.RESTR.norm>
0

>  <SCORE.SYSTEM>
0

>  <SCORE.SYSTEM.CONST>
0

>  <SCORE.SYSTEM.DIHEDRAL>
0

>  <SCORE.SYSTEM.SOLV>
0

>  <SCORE.SYSTEM.norm>
0

>  <SCORE.heavy>
18

>  <SCORE.norm>
-1.06645

>  <RMSD>
3.092

$$$$
lig.pdb
 OpenBabel11021811503D
libRbt.so/2013.1/901 2013/11/27
 18 19  0  0  0  0  0  0  0  0999 V2000
  -11.3494   11.7635    2.2117 C   0  0  0  0  0  0  0  0  0  0  0  0
  -11.2634   16.5263    3.1285 N   0  0  0  0  0  0  0  0  0  0  0  0
   -5.6050   15.9224    2.2397 C   0  0  0  0  0  0  0  0  0  0  0  0
   -2.5740   18.5976   -1.1060 O   0  0  0  0  0  0  0  0  0  0  0  0
   -3.8470   18.7135   -0.4854 C   0  0  0  0  0  0  0  0  0  0  0  0
   -4.4831   17.3208   -0.3101 C   0  0  0  0  0  0  0  0  0  0  0  0
   -8.3178   18.1904    1.0117 C   0  0  0  0  0  0  0  0  0  0  0  0
   -7.1570   18.5734   -0.2170 S   0  0  0  0  0  0  0  0  0  0  0  0
   -5.8419   17.5083    0.3277 C   0  0  0  0  0  0  0  0  0  0  0  0
   -6.4075   16.9346    1.4394 C   0  0  0  0  0  0  0  0  0  0  0  0
   -7.6826   17.3052    1.7690 N   0  0  0  0  0  0  0  0  0  0  0  0
   -8.3891   16.7125    2.9597 C   0  0  0  0  0  0  0  0  0  0  0  0
  -10.5555   15.3544    2.8619 C   0  0  0  0  0  0  0  0  0  0  0  0
  -11.2307   14.1783    2.6813 N   0  0  0  0  0  0  0  0  0  0  0  0
  -10.5760   13.0433    2.4226 C   0  0  0  0  0  0  0  0  0  0  0  0
   -9.2426   13.0312    2.3376 N   0  0  0  0  0  0  0  0  0  0  0  0
   -8.5054   14.1602    2.5019 C   0  0  0  0  0  0  0  0  0  0  0  0
   -9.1343   15.3814    2.7687 C   0  0  0  0  0  0  0  0  0  0  0  0
  5  4  1  0  0  0  0
  5  6  1  0  0  0  0
  7  8  2  0  0  0  0
  7 11  1  0  0  0  0
  8  9  1  0  0  0  0
  9 10  2  0  0  0  0
  9  6  1  0  0  0  0
 10  3  1  0  0  0  0
 11 12  1  0  0  0  0
 11 10  1  0  0  0  0
 12 18  1  0  0  0  0
 13  2  1  0  0  0  0
 13 14  2  0  0  0  0
 15 14  1  0  0  0  0
 15  1  1  0  0  0  0
 16 15  2  0  0  0  0
 17 18  2  0  0  0  0
 17 16  1  0  0  0  0
 18 13  1  0  0  0  0
M  END
>  <CHROM.1>
-178.90703504,52.63572048,93.33749186,-112.65756179,-7.78359139,16.25748038
1.43034217,-2.47947834,0.33794494,-0.17948279

>  <Name>
lig.pdb

>  <RI>
0

>  <Rbt.Current_Directory>
/home/itssahil/PROJECTS/Mol_Feturizer/New_Systems/rnas/4nyg

>  <Rbt.Executable>
rbdock ($Id: //depot/dev/client3/rdock/2013.1/src/exe/rbdock.cxx#4 $)

>  <Rbt.Library>
libRbt.so (2013.1, Build901 2013/11/27)

>  <Rbt.Parameter_File>
/export/apps/rDock/src/rDock_2013.1_src/data/scripts/dock_solv.prm

>  <Rbt.Receptor>
prm/pocket_docking_8.prm

>  <SCORE>
-11.9625

>  <SCORE.INTER>
-11.7089

>  <SCORE.INTER.CONST>
1

>  <SCORE.INTER.POLAR>
0

>  <SCORE.INTER.ROT>
4

>  <SCORE.INTER.SOLV>
9.7266

>  <SCORE.INTER.VDW>
-17.3148

>  <SCORE.INTER.norm>
-0.650497

>  <SCORE.INTRA>
-0.253529

>  <SCORE.INTRA.DIHEDRAL>
0.0921796

>  <SCORE.INTRA.DIHEDRAL.0>
3.20029

>  <SCORE.INTRA.POLAR>
0

>  <SCORE.INTRA.POLAR.0>
0

>  <SCORE.INTRA.REPUL>
0

>  <SCORE.INTRA.REPUL.0>
0

>  <SCORE.INTRA.SOLV>
0.219965

>  <SCORE.INTRA.SOLV.lig_0>
-19.3885

>  <SCORE.INTRA.VDW>
-0.409601

>  <SCORE.INTRA.VDW.0>
-1.12705

>  <SCORE.INTRA.norm>
-0.0140849

>  <SCORE.RESTR>
0

>  <SCORE.RESTR.CAVITY>
0

>  <SCORE.RESTR.norm>
0

>  <SCORE.SYSTEM>
0

>  <SCORE.SYSTEM.CONST>
0

>  <SCORE.SYSTEM.DIHEDRAL>
0

>  <SCORE.SYSTEM.SOLV>
0

>  <SCORE.SYSTEM.norm>
0

>  <SCORE.heavy>
18

>  <SCORE.norm>
-0.664581

>  <RMSD>
3.096

$$$$
lig.pdb
 OpenBabel11021811503D
libRbt.so/2013.1/901 2013/11/27
 18 19  0  0  0  0  0  0  0  0999 V2000
  -14.7433   15.9535    3.6514 C   0  0  0  0  0  0  0  0  0  0  0  0
  -12.3258   11.9740    2.2905 N   0  0  0  0  0  0  0  0  0  0  0  0
   -7.8374   15.2215    3.5015 C   0  0  0  0  0  0  0  0  0  0  0  0
   -4.3620   15.5243   -0.1935 O   0  0  0  0  0  0  0  0  0  0  0  0
   -4.4849   15.8046    1.1941 C   0  0  0  0  0  0  0  0  0  0  0  0
   -5.8334   16.4932    1.4812 C   0  0  0  0  0  0  0  0  0  0  0  0
   -8.6705   13.7747    0.1512 C   0  0  0  0  0  0  0  0  0  0  0  0
   -7.3670   14.7864   -0.3794 S   0  0  0  0  0  0  0  0  0  0  0  0
   -6.9341   15.4968    1.1917 C   0  0  0  0  0  0  0  0  0  0  0  0
   -7.8496   14.8932    2.0179 C   0  0  0  0  0  0  0  0  0  0  0  0
   -8.7323   14.0122    1.4552 N   0  0  0  0  0  0  0  0  0  0  0  0
   -9.7576   13.2889    2.2881 C   0  0  0  0  0  0  0  0  0  0  0  0
  -12.2934   13.3271    2.6274 C   0  0  0  0  0  0  0  0  0  0  0  0
  -13.4538   13.9748    2.9527 N   0  0  0  0  0  0  0  0  0  0  0  0
  -13.4489   15.2694    3.2810 C   0  0  0  0  0  0  0  0  0  0  0  0
  -12.3071   15.9632    3.2958 N   0  0  0  0  0  0  0  0  0  0  0  0
  -11.1162   15.3869    2.9877 C   0  0  0  0  0  0  0  0  0  0  0  0
  -11.0558   14.0324    2.6419 C   0  0  0  0  0  0  0  0  0  0  0  0
  5  4  1  0  0  0  0
  5  6  1  0  0  0  0
  7  8  2  0  0  0  0
  7 11  1  0  0  0  0
  8  9  1  0  0  0  0
  9 10  2  0  0  0  0
  9  6  1  0  0  0  0
 10  3  1  0  0  0  0
 11 12  1  0  0  0  0
 11 10  1  0  0  0  0
 12 18  1  0  0  0  0
 13  2  1  0  0  0  0
 13 14  2  0  0  0  0
 15 14  1  0  0  0  0
 15  1  1  0  0  0  0
 16 15  2  0  0  0  0
 17 18  2  0  0  0  0
 17 16  1  0  0  0  0
 18 13  1  0  0  0  0
M  END
>  <CHROM.1>
66.23319349,-65.14801174,-99.13542155,140.43452066,-9.37753995,14.75463340
1.84501321,-3.05332921,-0.33811957,-2.55446701

>  <Name>
lig.pdb

>  <RI>
0

>  <Rbt.Current_Directory>
/home/itssahil/PROJECTS/Mol_Feturizer/New_Systems/rnas/4nyg

>  <Rbt.Executable>
rbdock ($Id: //depot/dev/client3/rdock/2013.1/src/exe/rbdock.cxx#4 $)

>  <Rbt.Library>
libRbt.so (2013.1, Build901 2013/11/27)

>  <Rbt.Parameter_File>
/export/apps/rDock/src/rDock_2013.1_src/data/scripts/dock_solv.prm

>  <Rbt.Receptor>
prm/pocket_docking_3.prm

>  <SCORE>
-19.8739

>  <SCORE.INTER>
-19.5863

>  <SCORE.INTER.CONST>
1

>  <SCORE.INTER.POLAR>
0

>  <SCORE.INTER.ROT>
4

>  <SCORE.INTER.SOLV>
14.1113

>  <SCORE.INTER.VDW>
-24.028

>  <SCORE.INTER.norm>
-1.08813

>  <SCORE.INTRA>
-0.287513

>  <SCORE.INTRA.DIHEDRAL>
0.0590383

>  <SCORE.INTRA.DIHEDRAL.0>
3.20029

>  <SCORE.INTRA.POLAR>
0

>  <SCORE.INTRA.POLAR.0>
0

>  <SCORE.INTRA.REPUL>
0

>  <SCORE.INTRA.REPUL.0>
0

>  <SCORE.INTRA.SOLV>
0.453188

>  <SCORE.INTRA.SOLV.lig_0>
-19.3885

>  <SCORE.INTRA.VDW>
-0.543626

>  <SCORE.INTRA.VDW.0>
-1.12705

>  <SCORE.INTRA.norm>
-0.015973

>  <SCORE.RESTR>
0

>  <SCORE.RESTR.CAVITY>
0

>  <SCORE.RESTR.norm>
0

>  <SCORE.SYSTEM>
0

>  <SCORE.SYSTEM.CONST>
0

>  <SCORE.SYSTEM.DIHEDRAL>
0

>  <SCORE.SYSTEM.SOLV>
0

>  <SCORE.SYSTEM.norm>
0

>  <SCORE.heavy>
18

>  <SCORE.norm>
-1.1041

>  <RMSD>
3.099

$$$$
lig.pdb
 OpenBabel11021811503D
libRbt.so/2013.1/901 2013/11/27
 18 19  0  0  0  0  0  0  0  0999 V2000
  -14.6175   16.1872    3.4703 C   0  0  0  0  0  0  0  0  0  0  0  0
  -12.2251   12.0935    2.4458 N   0  0  0  0  0  0  0  0  0  0  0  0
   -7.1997   14.8777    3.2816 C   0  0  0  0  0  0  0  0  0  0  0  0
   -4.4237   17.9441    0.2505 O   0  0  0  0  0  0  0  0  0  0  0  0
   -5.6245   17.1849    0.2293 C   0  0  0  0  0  0  0  0  0  0  0  0
   -5.4054   15.8219    0.9142 C   0  0  0  0  0  0  0  0  0  0  0  0
   -8.8923   13.7068    0.1550 C   0  0  0  0  0  0  0  0  0  0  0  0
   -7.5459   14.4791   -0.6163 S   0  0  0  0  0  0  0  0  0  0  0  0
   -6.7055   15.0519    0.8419 C   0  0  0  0  0  0  0  0  0  0  0  0
   -7.5472   14.6012    1.8284 C   0  0  0  0  0  0  0  0  0  0  0  0
   -8.6662   13.9130    1.4461 N   0  0  0  0  0  0  0  0  0  0  0  0
   -9.6348   13.3644    2.4605 C   0  0  0  0  0  0  0  0  0  0  0  0
  -12.1803   13.4640    2.7009 C   0  0  0  0  0  0  0  0  0  0  0  0
  -13.3398   14.1490    2.9422 N   0  0  0  0  0  0  0  0  0  0  0  0
  -13.3232   15.4610    3.1913 C   0  0  0  0  0  0  0  0  0  0  0  0
  -12.1702   16.1361    3.2070 N   0  0  0  0  0  0  0  0  0  0  0  0
  -10.9796   15.5229    2.9796 C   0  0  0  0  0  0  0  0  0  0  0  0
  -10.9313   14.1489    2.7193 C   0  0  0  0  0  0  0  0  0  0  0  0
  5  4  1  0  0  0  0
  5  6  1  0  0  0  0
  7  8  2  0  0  0  0
  7 11  1  0  0  0  0
  8  9  1  0  0  0  0
  9 10  2  0  0  0  0
  9  6  1  0  0  0  0
 10  3  1  0  0  0  0
 11 12  1  0  0  0  0
 11 10  1  0  0  0  0
 12 18  1  0  0  0  0
 13  2  1  0  0  0  0
 13 14  2  0  0  0  0
 15 14  1  0  0  0  0
 15  1  1  0  0  0  0
 16 15  2  0  0  0  0
 17 18  2  0  0  0  0
 17 16  1  0  0  0  0
 18 13  1  0  0  0  0
M  END
>  <CHROM.1>
-179.09923001,63.74978518,-80.24316568,130.50552433,-9.33186448,14.90994088
1.72789139,3.06790359,-0.39330788,-2.85135867

>  <Name>
lig.pdb

>  <RI>
0

>  <Rbt.Current_Directory>
/home/itssahil/PROJECTS/Mol_Feturizer/New_Systems/rnas/4nyg

>  <Rbt.Executable>
rbdock ($Id: //depot/dev/client3/rdock/2013.1/src/exe/rbdock.cxx#4 $)

>  <Rbt.Library>
libRbt.so (2013.1, Build901 2013/11/27)

>  <Rbt.Parameter_File>
/export/apps/rDock/src/rDock_2013.1_src/data/scripts/dock_solv.prm

>  <Rbt.Receptor>
prm/pocket_docking_4.prm

>  <SCORE>
-20.7876

>  <SCORE.INTER>
-20.2346

>  <SCORE.INTER.CONST>
1

>  <SCORE.INTER.POLAR>
0

>  <SCORE.INTER.ROT>
4

>  <SCORE.INTER.SOLV>
13.9264

>  <SCORE.INTER.VDW>
-24.3986

>  <SCORE.INTER.norm>
-1.12415

>  <SCORE.INTRA>
-0.55294

>  <SCORE.INTRA.DIHEDRAL>
-0.109448

>  <SCORE.INTRA.DIHEDRAL.0>
3.20029

>  <SCORE.INTRA.POLAR>
0

>  <SCORE.INTRA.POLAR.0>
0

>  <SCORE.INTRA.REPUL>
0

>  <SCORE.INTRA.REPUL.0>
0

>  <SCORE.INTRA.SOLV>
0.0525957

>  <SCORE.INTRA.SOLV.lig_0>
-19.3885

>  <SCORE.INTRA.VDW>
-0.524514

>  <SCORE.INTRA.VDW.0>
-1.12705

>  <SCORE.INTRA.norm>
-0.0307189

>  <SCORE.RESTR>
0

>  <SCORE.RESTR.CAVITY>
0

>  <SCORE.RESTR.norm>
0

>  <SCORE.SYSTEM>
0

>  <SCORE.SYSTEM.CONST>
0

>  <SCORE.SYSTEM.DIHEDRAL>
0

>  <SCORE.SYSTEM.SOLV>
0

>  <SCORE.SYSTEM.norm>
0

>  <SCORE.heavy>
18

>  <SCORE.norm>
-1.15487

>  <RMSD>
3.104

$$$$
lig.pdb
 OpenBabel11021811503D
libRbt.so/2013.1/901 2013/11/27
 18 19  0  0  0  0  0  0  0  0999 V2000
  -14.3887   15.4330    3.6701 C   0  0  0  0  0  0  0  0  0  0  0  0
  -12.2354   11.4145    2.0126 N   0  0  0  0  0  0  0  0  0  0  0  0
   -6.6758   12.3558    2.7018 C   0  0  0  0  0  0  0  0  0  0  0  0
   -4.9163   15.8394    2.1514 O   0  0  0  0  0  0  0  0  0  0  0  0
   -4.4404   15.3632    0.9000 C   0  0  0  0  0  0  0  0  0  0  0  0
   -4.8272   13.8835    0.7108 C   0  0  0  0  0  0  0  0  0  0  0  0
   -8.9420   13.9584    0.1903 C   0  0  0  0  0  0  0  0  0  0  0  0
   -7.4517   14.5421   -0.4747 S   0  0  0  0  0  0  0  0  0  0  0  0
   -6.3373   13.7973    0.6932 C   0  0  0  0  0  0  0  0  0  0  0  0
   -7.2172   13.1501    1.5250 C   0  0  0  0  0  0  0  0  0  0  0  0
   -8.5523   13.2512    1.2433 N   0  0  0  0  0  0  0  0  0  0  0  0
   -9.5875   12.5580    2.0893 C   0  0  0  0  0  0  0  0  0  0  0  0
  -12.1152   12.7349    2.4456 C   0  0  0  0  0  0  0  0  0  0  0  0
  -13.2308   13.4309    2.8235 N   0  0  0  0  0  0  0  0  0  0  0  0
  -13.1417   14.6955    3.2438 C   0  0  0  0  0  0  0  0  0  0  0  0
  -11.9575   15.3115    3.3016 N   0  0  0  0  0  0  0  0  0  0  0  0
  -10.8067   14.6834    2.9458 C   0  0  0  0  0  0  0  0  0  0  0  0
  -10.8345   13.3561    2.5033 C   0  0  0  0  0  0  0  0  0  0  0  0
  5  4  1  0  0  0  0
  5  6  1  0  0  0  0
  7  8  2  0  0  0  0
  7 11  1  0  0  0  0
  8  9  1  0  0  0  0
  9 10  2  0  0  0  0
  9  6  1  0  0  0  0
 10  3  1  0  0  0  0
 11 12  1  0  0  0  0
 11 10  1  0  0  0  0
 12 18  1  0  0  0  0
 13  2  1  0  0  0  0
 13 14  2  0  0  0  0
 15 14  1  0  0  0  0
 15  1  1  0  0  0  0
 16 15  2  0  0  0  0
 17 18  2  0  0  0  0
 17 16  1  0  0  0  0
 18 13  1  0  0  0  0
M  END
>  <CHROM.1>
62.59649954,62.25744560,-46.38417982,137.29747383,-9.13398870,13.94559353
1.76943276,-3.12431680,-0.28957261,-2.87055031

>  <Name>
lig.pdb

>  <RI>
0

>  <Rbt.Current_Directory>
/home/itssahil/PROJECTS/Mol_Feturizer/New_Systems/rnas/4nyg

>  <Rbt.Executable>
rbdock ($Id: //depot/dev/client3/rdock/2013.1/src/exe/rbdock.cxx#4 $)

>  <Rbt.Library>
libRbt.so (2013.1, Build901 2013/11/27)

>  <Rbt.Parameter_File>
/export/apps/rDock/src/rDock_2013.1_src/data/scripts/dock_solv.prm

>  <Rbt.Receptor>
prm/pocket_docking_3.prm

>  <SCORE>
-20.7178

>  <SCORE.INTER>
-20.5227

>  <SCORE.INTER.CONST>
1

>  <SCORE.INTER.POLAR>
0

>  <SCORE.INTER.ROT>
4

>  <SCORE.INTER.SOLV>
14.362

>  <SCORE.INTER.VDW>
-24.7358

>  <SCORE.INTER.norm>
-1.14015

>  <SCORE.INTRA>
-0.195063

>  <SCORE.INTRA.DIHEDRAL>
-0.00190062

>  <SCORE.INTRA.DIHEDRAL.0>
3.20029

>  <SCORE.INTRA.POLAR>
0

>  <SCORE.INTRA.POLAR.0>
0

>  <SCORE.INTRA.REPUL>
0

>  <SCORE.INTRA.REPUL.0>
0

>  <SCORE.INTRA.SOLV>
0.489777

>  <SCORE.INTRA.SOLV.lig_0>
-19.3885

>  <SCORE.INTRA.VDW>
-0.439001

>  <SCORE.INTRA.VDW.0>
-1.12705

>  <SCORE.INTRA.norm>
-0.0108368

>  <SCORE.RESTR>
0

>  <SCORE.RESTR.CAVITY>
0

>  <SCORE.RESTR.norm>
0

>  <SCORE.SYSTEM>
0

>  <SCORE.SYSTEM.CONST>
0

>  <SCORE.SYSTEM.DIHEDRAL>
0

>  <SCORE.SYSTEM.SOLV>
0

>  <SCORE.SYSTEM.norm>
0

>  <SCORE.heavy>
18

>  <SCORE.norm>
-1.15099

>  <RMSD>
3.106

$$$$
lig.pdb
 OpenBabel11021811503D
libRbt.so/2013.1/901 2013/11/27
 18 19  0  0  0  0  0  0  0  0999 V2000
  -14.4187   15.3761    3.6512 C   0  0  0  0  0  0  0  0  0  0  0  0
  -12.2418   11.4012    1.9208 N   0  0  0  0  0  0  0  0  0  0  0  0
   -6.6889   12.3074    2.6908 C   0  0  0  0  0  0  0  0  0  0  0  0
   -4.8994   15.7328    2.3346 O   0  0  0  0  0  0  0  0  0  0  0  0
   -4.4278   15.3456    1.0514 C   0  0  0  0  0  0  0  0  0  0  0  0
   -4.8195   13.8842    0.7584 C   0  0  0  0  0  0  0  0  0  0  0  0
   -8.9302   13.9941    0.2123 C   0  0  0  0  0  0  0  0  0  0  0  0
   -7.4326   14.5900   -0.4251 S   0  0  0  0  0  0  0  0  0  0  0  0
   -6.3298   13.8058    0.7279 C   0  0  0  0  0  0  0  0  0  0  0  0
   -7.2185   13.1386    1.5343 C   0  0  0  0  0  0  0  0  0  0  0  0
   -8.5511   13.2544    1.2466 N   0  0  0  0  0  0  0  0  0  0  0  0
   -9.5953   12.5416    2.0647 C   0  0  0  0  0  0  0  0  0  0  0  0
  -12.1278   12.7099    2.3895 C   0  0  0  0  0  0  0  0  0  0  0  0
  -13.2488   13.3962    2.7694 N   0  0  0  0  0  0  0  0  0  0  0  0
  -13.1657   14.6494    3.2237 C   0  0  0  0  0  0  0  0  0  0  0  0
  -11.9824   15.2634    3.3142 N   0  0  0  0  0  0  0  0  0  0  0  0
  -10.8267   14.6444    2.9587 C   0  0  0  0  0  0  0  0  0  0  0  0
  -10.8481   13.3291    2.4816 C   0  0  0  0  0  0  0  0  0  0  0  0
  5  4  1  0  0  0  0
  5  6  1  0  0  0  0
  7  8  2  0  0  0  0
  7 11  1  0  0  0  0
  8  9  1  0  0  0  0
  9 10  2  0  0  0  0
  9  6  1  0  0  0  0
 10  3  1  0  0  0  0
 11 12  1  0  0  0  0
 11 10  1  0  0  0  0
 12 18  1  0  0  0  0
 13  2  1  0  0  0  0
 13 14  2  0  0  0  0
 15 14  1  0  0  0  0
 15  1  1  0  0  0  0
 16 15  2  0  0  0  0
 17 18  2  0  0  0  0
 17 16  1  0  0  0  0
 18 13  1  0  0  0  0
M  END
>  <CHROM.1>
63.02582851,64.54436707,-45.77779763,137.03169851,-9.13741991,13.92739560
1.78660706,-3.12048461,-0.27354629,-2.83115970

>  <Name>
lig.pdb

>  <RI>
0

>  <Rbt.Current_Directory>
/home/itssahil/PROJECTS/Mol_Feturizer/New_Systems/rnas/4nyg

>  <Rbt.Executable>
rbdock ($Id: //depot/dev/client3/rdock/2013.1/src/exe/rbdock.cxx#4 $)

>  <Rbt.Library>
libRbt.so (2013.1, Build901 2013/11/27)

>  <Rbt.Parameter_File>
/export/apps/rDock/src/rDock_2013.1_src/data/scripts/dock_solv.prm

>  <Rbt.Receptor>
prm/pocket_docking_3.prm

>  <SCORE>
-20.6334

>  <SCORE.INTER>
-20.4481

>  <SCORE.INTER.CONST>
1

>  <SCORE.INTER.POLAR>
0

>  <SCORE.INTER.ROT>
4

>  <SCORE.INTER.SOLV>
14.3482

>  <SCORE.INTER.VDW>
-24.6815

>  <SCORE.INTER.norm>
-1.13601

>  <SCORE.INTRA>
-0.185263

>  <SCORE.INTRA.DIHEDRAL>
0.0358202

>  <SCORE.INTRA.DIHEDRAL.0>
3.20029

>  <SCORE.INTRA.POLAR>
0

>  <SCORE.INTRA.POLAR.0>
0

>  <SCORE.INTRA.REPUL>
0

>  <SCORE.INTRA.REPUL.0>
0

>  <SCORE.INTRA.SOLV>
0.498586

>  <SCORE.INTRA.SOLV.lig_0>
-19.3885

>  <SCORE.INTRA.VDW>
-0.452466

>  <SCORE.INTRA.VDW.0>
-1.12705

>  <SCORE.INTRA.norm>
-0.0102924

>  <SCORE.RESTR>
0

>  <SCORE.RESTR.CAVITY>
0

>  <SCORE.RESTR.norm>
0

>  <SCORE.SYSTEM>
0

>  <SCORE.SYSTEM.CONST>
0

>  <SCORE.SYSTEM.DIHEDRAL>
0

>  <SCORE.SYSTEM.SOLV>
0

>  <SCORE.SYSTEM.norm>
0

>  <SCORE.heavy>
18

>  <SCORE.norm>
-1.1463

>  <RMSD>
3.107

$$$$
lig.pdb
 OpenBabel11021811503D
libRbt.so/2013.1/901 2013/11/27
 18 19  0  0  0  0  0  0  0  0999 V2000
  -14.5553   16.0531    3.5794 C   0  0  0  0  0  0  0  0  0  0  0  0
  -11.7286   12.1142    3.4149 N   0  0  0  0  0  0  0  0  0  0  0  0
   -6.7713   14.9701    3.2074 C   0  0  0  0  0  0  0  0  0  0  0  0
   -6.2863   17.9745    0.9932 O   0  0  0  0  0  0  0  0  0  0  0  0
   -5.4535   17.2438    0.1035 C   0  0  0  0  0  0  0  0  0  0  0  0
   -5.2135   15.8213    0.6454 C   0  0  0  0  0  0  0  0  0  0  0  0
   -8.8744   13.9010    0.3013 C   0  0  0  0  0  0  0  0  0  0  0  0
   -7.5860   14.6009   -0.6230 S   0  0  0  0  0  0  0  0  0  0  0  0
   -6.5531   15.1234    0.7263 C   0  0  0  0  0  0  0  0  0  0  0  0
   -7.2986   14.7166    1.8051 C   0  0  0  0  0  0  0  0  0  0  0  0
   -8.4900   14.0913    1.5570 N   0  0  0  0  0  0  0  0  0  0  0  0
   -9.3635   13.5936    2.6783 C   0  0  0  0  0  0  0  0  0  0  0  0
  -11.8534   13.4947    3.2597 C   0  0  0  0  0  0  0  0  0  0  0  0
  -13.0648   14.0955    3.4674 N   0  0  0  0  0  0  0  0  0  0  0  0
  -13.2095   15.4159    3.3275 C   0  0  0  0  0  0  0  0  0  0  0  0
  -12.1715   16.1808    2.9772 N   0  0  0  0  0  0  0  0  0  0  0  0
  -10.9382   15.6555    2.7576 C   0  0  0  0  0  0  0  0  0  0  0  0
  -10.7221   14.2798    2.8948 C   0  0  0  0  0  0  0  0  0  0  0  0
  5  4  1  0  0  0  0
  5  6  1  0  0  0  0
  7  8  2  0  0  0  0
  7 11  1  0  0  0  0
  8  9  1  0  0  0  0
  9 10  2  0  0  0  0
  9  6  1  0  0  0  0
 10  3  1  0  0  0  0
 11 12  1  0  0  0  0
 11 10  1  0  0  0  0
 12 18  1  0  0  0  0
 13  2  1  0  0  0  0
 13 14  2  0  0  0  0
 15 14  1  0  0  0  0
 15  1  1  0  0  0  0
 16 15  2  0  0  0  0
 17 18  2  0  0  0  0
 17 16  1  0  0  0  0
 18 13  1  0  0  0  0
M  END
>  <CHROM.1>
61.84753823,68.78487735,-67.98047019,141.60195132,-9.28676939,14.97992581
1.86810216,2.98868921,-0.41726405,-3.10477816

>  <Name>
lig.pdb

>  <RI>
0

>  <Rbt.Current_Directory>
/home/itssahil/PROJECTS/Mol_Feturizer/New_Systems/rnas/4nyg

>  <Rbt.Executable>
rbdock ($Id: //depot/dev/client3/rdock/2013.1/src/exe/rbdock.cxx#4 $)

>  <Rbt.Library>
libRbt.so (2013.1, Build901 2013/11/27)

>  <Rbt.Parameter_File>
/export/apps/rDock/src/rDock_2013.1_src/data/scripts/dock_solv.prm

>  <Rbt.Receptor>
prm/pocket_docking_3.prm

>  <SCORE>
-20.1368

>  <SCORE.INTER>
-19.746

>  <SCORE.INTER.CONST>
1

>  <SCORE.INTER.POLAR>
0

>  <SCORE.INTER.ROT>
4

>  <SCORE.INTER.SOLV>
13.7081

>  <SCORE.INTER.VDW>
-24

>  <SCORE.INTER.norm>
-1.097

>  <SCORE.INTRA>
-0.390867

>  <SCORE.INTRA.DIHEDRAL>
0.0430628

>  <SCORE.INTRA.DIHEDRAL.0>
3.20029

>  <SCORE.INTRA.POLAR>
0

>  <SCORE.INTRA.POLAR.0>
0

>  <SCORE.INTRA.REPUL>
0

>  <SCORE.INTRA.REPUL.0>
0

>  <SCORE.INTRA.SOLV>
0.514387

>  <SCORE.INTRA.SOLV.lig_0>
-19.3885

>  <SCORE.INTRA.VDW>
-0.669592

>  <SCORE.INTRA.VDW.0>
-1.12705

>  <SCORE.INTRA.norm>
-0.0217148

>  <SCORE.RESTR>
0

>  <SCORE.RESTR.CAVITY>
0

>  <SCORE.RESTR.norm>
0

>  <SCORE.SYSTEM>
0

>  <SCORE.SYSTEM.CONST>
0

>  <SCORE.SYSTEM.DIHEDRAL>
0

>  <SCORE.SYSTEM.SOLV>
0

>  <SCORE.SYSTEM.norm>
0

>  <SCORE.heavy>
18

>  <SCORE.norm>
-1.11871

>  <RMSD>
3.123

$$$$
lig.pdb
 OpenBabel11021811503D
libRbt.so/2013.1/901 2013/11/27
 18 19  0  0  0  0  0  0  0  0999 V2000
  -14.4048   15.3882    3.6503 C   0  0  0  0  0  0  0  0  0  0  0  0
  -12.1702   11.4093    2.0049 N   0  0  0  0  0  0  0  0  0  0  0  0
   -6.6131   12.3573    2.6133 C   0  0  0  0  0  0  0  0  0  0  0  0
   -4.8287   16.1668   -0.2990 O   0  0  0  0  0  0  0  0  0  0  0  0
   -4.4127   15.3723    0.8032 C   0  0  0  0  0  0  0  0  0  0  0  0
   -4.8208   13.9024    0.5846 C   0  0  0  0  0  0  0  0  0  0  0  0
   -8.9504   14.0237    0.2109 C   0  0  0  0  0  0  0  0  0  0  0  0
   -7.4788   14.6053   -0.4963 S   0  0  0  0  0  0  0  0  0  0  0  0
   -6.3314   13.8303    0.6188 C   0  0  0  0  0  0  0  0  0  0  0  0
   -7.1878   13.1768    1.4700 C   0  0  0  0  0  0  0  0  0  0  0  0
   -8.5309   13.2949    1.2372 N   0  0  0  0  0  0  0  0  0  0  0  0
   -9.5425   12.5966    2.1073 C   0  0  0  0  0  0  0  0  0  0  0  0
  -12.0758   12.7307    2.4413 C   0  0  0  0  0  0  0  0  0  0  0  0
  -13.2062   13.4073    2.8105 N   0  0  0  0  0  0  0  0  0  0  0  0
  -13.1419   14.6724    3.2339 C   0  0  0  0  0  0  0  0  0  0  0  0
  -11.9686   15.3079    3.3034 N   0  0  0  0  0  0  0  0  0  0  0  0
  -10.8045   14.6997    2.9568 C   0  0  0  0  0  0  0  0  0  0  0  0
  -10.8062   13.3731    2.5116 C   0  0  0  0  0  0  0  0  0  0  0  0
  5  4  1  0  0  0  0
  5  6  1  0  0  0  0
  7  8  2  0  0  0  0
  7 11  1  0  0  0  0
  8  9  1  0  0  0  0
  9 10  2  0  0  0  0
  9  6  1  0  0  0  0
 10  3  1  0  0  0  0
 11 12  1  0  0  0  0
 11 10  1  0  0  0  0
 12 18  1  0  0  0  0
 13  2  1  0  0  0  0
 13 14  2  0  0  0  0
 15 14  1  0  0  0  0
 15  1  1  0  0  0  0
 16 15  2  0  0  0  0
 17 18  2  0  0  0  0
 17 16  1  0  0  0  0
 18 13  1  0  0  0  0
M  END
>  <CHROM.1>
-66.63280158,62.96744769,-42.92007220,135.48826679,-9.11532841,13.98128923
1.59422902,3.00913952,-0.33626609,2.98986749

>  <Name>
lig.pdb

>  <RI>
0

>  <Rbt.Current_Directory>
/home/itssahil/PROJECTS/Mol_Feturizer/New_Systems/rnas/4nyg

>  <Rbt.Executable>
rbdock ($Id: //depot/dev/client3/rdock/2013.1/src/exe/rbdock.cxx#4 $)

>  <Rbt.Library>
libRbt.so (2013.1, Build901 2013/11/27)

>  <Rbt.Parameter_File>
/export/apps/rDock/src/rDock_2013.1_src/data/scripts/dock_solv.prm

>  <Rbt.Receptor>
prm/pocket_docking_3.prm

>  <SCORE>
-20.863

>  <SCORE.INTER>
-20.8025

>  <SCORE.INTER.CONST>
1

>  <SCORE.INTER.POLAR>
0

>  <SCORE.INTER.ROT>
4

>  <SCORE.INTER.SOLV>
14.9968

>  <SCORE.INTER.VDW>
-25.1339

>  <SCORE.INTER.norm>
-1.15569

>  <SCORE.INTRA>
-0.0604589

>  <SCORE.INTRA.DIHEDRAL>
0.151743

>  <SCORE.INTRA.DIHEDRAL.0>
3.20029

>  <SCORE.INTRA.POLAR>
0

>  <SCORE.INTRA.POLAR.0>
0

>  <SCORE.INTRA.REPUL>
0

>  <SCORE.INTRA.REPUL.0>
0

>  <SCORE.INTRA.SOLV>
0.413537

>  <SCORE.INTRA.SOLV.lig_0>
-19.3885

>  <SCORE.INTRA.VDW>
-0.343099

>  <SCORE.INTRA.VDW.0>
-1.12705

>  <SCORE.INTRA.norm>
-0.00335883

>  <SCORE.RESTR>
0

>  <SCORE.RESTR.CAVITY>
0

>  <SCORE.RESTR.norm>
0

>  <SCORE.SYSTEM>
0

>  <SCORE.SYSTEM.CONST>
0

>  <SCORE.SYSTEM.DIHEDRAL>
0

>  <SCORE.SYSTEM.SOLV>
0

>  <SCORE.SYSTEM.norm>
0

>  <SCORE.heavy>
18

>  <SCORE.norm>
-1.15905

>  <RMSD>
3.129

$$$$
lig.pdb
 OpenBabel11021811503D
libRbt.so/2013.1/901 2013/11/27
 18 19  0  0  0  0  0  0  0  0999 V2000
  -11.1048   11.7791    2.2089 C   0  0  0  0  0  0  0  0  0  0  0  0
  -11.2955   16.5313    3.1642 N   0  0  0  0  0  0  0  0  0  0  0  0
   -5.4566   16.8818    2.8652 C   0  0  0  0  0  0  0  0  0  0  0  0
   -2.7002   17.4232   -1.3532 O   0  0  0  0  0  0  0  0  0  0  0  0
   -4.0605   17.3366   -0.9520 C   0  0  0  0  0  0  0  0  0  0  0  0
   -4.3060   18.2123    0.2921 C   0  0  0  0  0  0  0  0  0  0  0  0
   -8.4091   18.0448    0.8797 C   0  0  0  0  0  0  0  0  0  0  0  0
   -7.1897   18.5988   -0.2204 S   0  0  0  0  0  0  0  0  0  0  0  0
   -5.7585   18.0609    0.6868 C   0  0  0  0  0  0  0  0  0  0  0  0
   -6.3421   17.4916    1.7914 C   0  0  0  0  0  0  0  0  0  0  0  0
   -7.7083   17.4987    1.8652 N   0  0  0  0  0  0  0  0  0  0  0  0
   -8.4344   16.8791    3.0302 C   0  0  0  0  0  0  0  0  0  0  0  0
  -10.5202   15.4031    2.8965 C   0  0  0  0  0  0  0  0  0  0  0  0
  -11.1266   14.1927    2.6988 N   0  0  0  0  0  0  0  0  0  0  0  0
  -10.4065   13.0982    2.4389 C   0  0  0  0  0  0  0  0  0  0  0  0
   -9.0737   13.1613    2.3692 N   0  0  0  0  0  0  0  0  0  0  0  0
   -8.4027   14.3283    2.5510 C   0  0  0  0  0  0  0  0  0  0  0  0
   -9.1018   15.5102    2.8200 C   0  0  0  0  0  0  0  0  0  0  0  0
  5  4  1  0  0  0  0
  5  6  1  0  0  0  0
  7  8  2  0  0  0  0
  7 11  1  0  0  0  0
  8  9  1  0  0  0  0
  9 10  2  0  0  0  0
  9  6  1  0  0  0  0
 10  3  1  0  0  0  0
 11 12  1  0  0  0  0
 11 10  1  0  0  0  0
 12 18  1  0  0  0  0
 13  2  1  0  0  0  0
 13 14  2  0  0  0  0
 15 14  1  0  0  0  0
 15  1  1  0  0  0  0
 16 15  2  0  0  0  0
 17 18  2  0  0  0  0
 17 16  1  0  0  0  0
 18 13  1  0  0  0  0
M  END
>  <CHROM.1>
-178.97264287,-66.67746730,75.39280820,-114.71969083,-7.74738221,16.30866864
1.50434596,-2.55541006,0.42660980,-0.05754820

>  <Name>
lig.pdb

>  <RI>
0

>  <Rbt.Current_Directory>
/home/itssahil/PROJECTS/Mol_Feturizer/New_Systems/rnas/4nyg

>  <Rbt.Executable>
rbdock ($Id: //depot/dev/client3/rdock/2013.1/src/exe/rbdock.cxx#4 $)

>  <Rbt.Library>
libRbt.so (2013.1, Build901 2013/11/27)

>  <Rbt.Parameter_File>
/export/apps/rDock/src/rDock_2013.1_src/data/scripts/dock_solv.prm

>  <Rbt.Receptor>
prm/pocket_docking_8.prm

>  <SCORE>
-12.7387

>  <SCORE.INTER>
-12.2856

>  <SCORE.INTER.CONST>
1

>  <SCORE.INTER.POLAR>
0

>  <SCORE.INTER.ROT>
4

>  <SCORE.INTER.SOLV>
11.3512

>  <SCORE.INTER.VDW>
-18.2408

>  <SCORE.INTER.norm>
-0.682531

>  <SCORE.INTRA>
-0.453125

>  <SCORE.INTRA.DIHEDRAL>
0.0580766

>  <SCORE.INTRA.DIHEDRAL.0>
3.20029

>  <SCORE.INTRA.POLAR>
0

>  <SCORE.INTRA.POLAR.0>
0

>  <SCORE.INTRA.REPUL>
0

>  <SCORE.INTRA.REPUL.0>
0

>  <SCORE.INTRA.SOLV>
0.191051

>  <SCORE.INTRA.SOLV.lig_0>
-19.3885

>  <SCORE.INTRA.VDW>
-0.577689

>  <SCORE.INTRA.VDW.0>
-1.12705

>  <SCORE.INTRA.norm>
-0.0251736

>  <SCORE.RESTR>
0

>  <SCORE.RESTR.CAVITY>
0

>  <SCORE.RESTR.norm>
0

>  <SCORE.SYSTEM>
0

>  <SCORE.SYSTEM.CONST>
0

>  <SCORE.SYSTEM.DIHEDRAL>
0

>  <SCORE.SYSTEM.SOLV>
0

>  <SCORE.SYSTEM.norm>
0

>  <SCORE.heavy>
18

>  <SCORE.norm>
-0.707705

>  <RMSD>
3.131

$$$$
lig.pdb
 OpenBabel11021811503D
libRbt.so/2013.1/901 2013/11/27
 18 19  0  0  0  0  0  0  0  0999 V2000
  -14.4422   15.3583    3.6508 C   0  0  0  0  0  0  0  0  0  0  0  0
  -12.1724   11.3979    2.0088 N   0  0  0  0  0  0  0  0  0  0  0  0
   -6.6170   12.3768    2.5986 C   0  0  0  0  0  0  0  0  0  0  0  0
   -4.9276   16.2462   -0.1509 O   0  0  0  0  0  0  0  0  0  0  0  0
   -4.4455   15.3675    0.8563 C   0  0  0  0  0  0  0  0  0  0  0  0
   -4.8558   13.9165    0.5387 C   0  0  0  0  0  0  0  0  0  0  0  0
   -8.9902   14.0204    0.2157 C   0  0  0  0  0  0  0  0  0  0  0  0
   -7.5297   14.6032   -0.5131 S   0  0  0  0  0  0  0  0  0  0  0  0
   -6.3656   13.8390    0.5921 C   0  0  0  0  0  0  0  0  0  0  0  0
   -7.2089   13.1874    1.4577 C   0  0  0  0  0  0  0  0  0  0  0  0
   -8.5552   13.2993    1.2411 N   0  0  0  0  0  0  0  0  0  0  0  0
   -9.5533   12.6024    2.1278 C   0  0  0  0  0  0  0  0  0  0  0  0
  -12.0892   12.7190    2.4486 C   0  0  0  0  0  0  0  0  0  0  0  0
  -13.2260   13.3872    2.8131 N   0  0  0  0  0  0  0  0  0  0  0  0
  -13.1724   14.6517    3.2396 C   0  0  0  0  0  0  0  0  0  0  0  0
  -12.0038   15.2949    3.3167 N   0  0  0  0  0  0  0  0  0  0  0  0
  -10.8338   14.6952    2.9750 C   0  0  0  0  0  0  0  0  0  0  0  0
  -10.8243   13.3696    2.5270 C   0  0  0  0  0  0  0  0  0  0  0  0
  5  4  1  0  0  0  0
  5  6  1  0  0  0  0
  7  8  2  0  0  0  0
  7 11  1  0  0  0  0
  8  9  1  0  0  0  0
  9 10  2  0  0  0  0
  9  6  1  0  0  0  0
 10  3  1  0  0  0  0
 11 12  1  0  0  0  0
 11 10  1  0  0  0  0
 12 18  1  0  0  0  0
 13  2  1  0  0  0  0
 13 14  2  0  0  0  0
 15 14  1  0  0  0  0
 15  1  1  0  0  0  0
 16 15  2  0  0  0  0
 17 18  2  0  0  0  0
 17 16  1  0  0  0  0
 18 13  1  0  0  0  0
M  END
>  <CHROM.1>
-64.24954705,67.45802031,-42.07139898,134.24148230,-9.14728658,13.98278498
1.60379240,3.01265346,-0.33640373,3.00993989

>  <Name>
lig.pdb

>  <RI>
0

>  <Rbt.Current_Directory>
/home/itssahil/PROJECTS/Mol_Feturizer/New_Systems/rnas/4nyg

>  <Rbt.Executable>
rbdock ($Id: //depot/dev/client3/rdock/2013.1/src/exe/rbdock.cxx#4 $)

>  <Rbt.Library>
libRbt.so (2013.1, Build901 2013/11/27)

>  <Rbt.Parameter_File>
/export/apps/rDock/src/rDock_2013.1_src/data/scripts/dock_solv.prm

>  <Rbt.Receptor>
prm/pocket_docking_3.prm

>  <SCORE>
-20.848

>  <SCORE.INTER>
-20.7726

>  <SCORE.INTER.CONST>
1

>  <SCORE.INTER.POLAR>
0

>  <SCORE.INTER.ROT>
4

>  <SCORE.INTER.SOLV>
14.9668

>  <SCORE.INTER.VDW>
-25.104

>  <SCORE.INTER.norm>
-1.15403

>  <SCORE.INTRA>
-0.0774727

>  <SCORE.INTRA.DIHEDRAL>
0.13907

>  <SCORE.INTRA.DIHEDRAL.0>
3.20029

>  <SCORE.INTRA.POLAR>
0

>  <SCORE.INTRA.POLAR.0>
0

>  <SCORE.INTRA.REPUL>
0

>  <SCORE.INTRA.REPUL.0>
0

>  <SCORE.INTRA.SOLV>
0.434558

>  <SCORE.INTRA.SOLV.lig_0>
-19.3885

>  <SCORE.INTRA.VDW>
-0.364287

>  <SCORE.INTRA.VDW.0>
-1.12705

>  <SCORE.INTRA.norm>
-0.00430404

>  <SCORE.RESTR>
0.00206698

>  <SCORE.RESTR.CAVITY>
0.00206698

>  <SCORE.RESTR.norm>
0.000114832

>  <SCORE.SYSTEM>
0

>  <SCORE.SYSTEM.CONST>
0

>  <SCORE.SYSTEM.DIHEDRAL>
0

>  <SCORE.SYSTEM.SOLV>
0

>  <SCORE.SYSTEM.norm>
0

>  <SCORE.heavy>
18

>  <SCORE.norm>
-1.15822

>  <RMSD>
3.151

$$$$
lig.pdb
 OpenBabel11021811503D
libRbt.so/2013.1/901 2013/11/27
 18 19  0  0  0  0  0  0  0  0999 V2000
  -14.5449   15.9489    3.6590 C   0  0  0  0  0  0  0  0  0  0  0  0
   -9.8002   15.9407    2.6489 N   0  0  0  0  0  0  0  0  0  0  0  0
   -7.0794   14.2516    3.4780 C   0  0  0  0  0  0  0  0  0  0  0  0
   -2.9637   15.2234    0.6760 O   0  0  0  0  0  0  0  0  0  0  0  0
   -4.2532   14.6371    0.5642 C   0  0  0  0  0  0  0  0  0  0  0  0
   -5.3048   15.5266    1.2553 C   0  0  0  0  0  0  0  0  0  0  0  0
   -8.9431   13.7982    0.2635 C   0  0  0  0  0  0  0  0  0  0  0  0
   -7.5752   14.6255   -0.4062 S   0  0  0  0  0  0  0  0  0  0  0  0
   -6.6534   14.8602    1.0957 C   0  0  0  0  0  0  0  0  0  0  0  0
   -7.4904   14.2781    2.0153 C   0  0  0  0  0  0  0  0  0  0  0  0
   -8.6630   13.7406    1.5592 N   0  0  0  0  0  0  0  0  0  0  0  0
   -9.6319   13.0645    2.4931 C   0  0  0  0  0  0  0  0  0  0  0  0
  -10.9677   15.2128    2.8779 C   0  0  0  0  0  0  0  0  0  0  0  0
  -12.1358   15.8699    3.1531 N   0  0  0  0  0  0  0  0  0  0  0  0
  -13.2674   15.1957    3.3738 C   0  0  0  0  0  0  0  0  0  0  0  0
  -13.2827   13.8602    3.3337 N   0  0  0  0  0  0  0  0  0  0  0  0
  -12.1630   13.1402    3.0635 C   0  0  0  0  0  0  0  0  0  0  0  0
  -10.9482   13.7896    2.8173 C   0  0  0  0  0  0  0  0  0  0  0  0
  5  4  1  0  0  0  0
  5  6  1  0  0  0  0
  7  8  2  0  0  0  0
  7 11  1  0  0  0  0
  8  9  1  0  0  0  0
  9 10  2  0  0  0  0
  9  6  1  0  0  0  0
 10  3  1  0  0  0  0
 11 12  1  0  0  0  0
 11 10  1  0  0  0  0
 12 18  1  0  0  0  0
 13  2  1  0  0  0  0
 13 14  2  0  0  0  0
 15 14  1  0  0  0  0
 15  1  1  0  0  0  0
 16 15  2  0  0  0  0
 17 18  2  0  0  0  0
 17 16  1  0  0  0  0
 18 13  1  0  0  0  0
M  END
>  <CHROM.1>
179.58489590,-67.54293614,-72.99755499,-33.02173101,-9.02092208,14.62506993
1.92505069,-2.86764127,-0.16613821,-2.10077318

>  <Name>
lig.pdb

>  <RI>
0

>  <Rbt.Current_Directory>
/home/itssahil/PROJECTS/Mol_Feturizer/New_Systems/rnas/4nyg

>  <Rbt.Executable>
rbdock ($Id: //depot/dev/client3/rdock/2013.1/src/exe/rbdock.cxx#4 $)

>  <Rbt.Library>
libRbt.so (2013.1, Build901 2013/11/27)

>  <Rbt.Parameter_File>
/export/apps/rDock/src/rDock_2013.1_src/data/scripts/dock_solv.prm

>  <Rbt.Receptor>
prm/pocket_docking_8.prm

>  <SCORE>
-19.7458

>  <SCORE.INTER>
-19.7335

>  <SCORE.INTER.CONST>
1

>  <SCORE.INTER.POLAR>
0

>  <SCORE.INTER.ROT>
4

>  <SCORE.INTER.SOLV>
11.4174

>  <SCORE.INTER.VDW>
-23.2281

>  <SCORE.INTER.norm>
-1.0963

>  <SCORE.INTRA>
-0.0123051

>  <SCORE.INTRA.DIHEDRAL>
-0.0119373

>  <SCORE.INTRA.DIHEDRAL.0>
3.20029

>  <SCORE.INTRA.POLAR>
0

>  <SCORE.INTRA.POLAR.0>
0

>  <SCORE.INTRA.REPUL>
0

>  <SCORE.INTRA.REPUL.0>
0

>  <SCORE.INTRA.SOLV>
1.62114

>  <SCORE.INTRA.SOLV.lig_0>
-19.3885

>  <SCORE.INTRA.VDW>
-0.816906

>  <SCORE.INTRA.VDW.0>
-1.12705

>  <SCORE.INTRA.norm>
-0.000683615

>  <SCORE.RESTR>
0

>  <SCORE.RESTR.CAVITY>
0

>  <SCORE.RESTR.norm>
0

>  <SCORE.SYSTEM>
0

>  <SCORE.SYSTEM.CONST>
0

>  <SCORE.SYSTEM.DIHEDRAL>
0

>  <SCORE.SYSTEM.SOLV>
0

>  <SCORE.SYSTEM.norm>
0

>  <SCORE.heavy>
18

>  <SCORE.norm>
-1.09699

>  <RMSD>
3.173

$$$$
lig.pdb
 OpenBabel11021811503D
libRbt.so/2013.1/901 2013/11/27
 18 19  0  0  0  0  0  0  0  0999 V2000
  -14.4949   15.3948    3.6494 C   0  0  0  0  0  0  0  0  0  0  0  0
  -12.2492   11.4249    1.9974 N   0  0  0  0  0  0  0  0  0  0  0  0
   -6.6948   12.3486    2.6277 C   0  0  0  0  0  0  0  0  0  0  0  0
   -4.8930   16.2017   -0.1827 O   0  0  0  0  0  0  0  0  0  0  0  0
   -4.4742   15.3655    0.8871 C   0  0  0  0  0  0  0  0  0  0  0  0
   -4.8921   13.9067    0.6183 C   0  0  0  0  0  0  0  0  0  0  0  0
   -9.0207   14.0576    0.2441 C   0  0  0  0  0  0  0  0  0  0  0  0
   -7.5451   14.6385   -0.4555 S   0  0  0  0  0  0  0  0  0  0  0  0
   -6.4031   13.8434    0.6509 C   0  0  0  0  0  0  0  0  0  0  0  0
   -7.2639   13.1851    1.4939 C   0  0  0  0  0  0  0  0  0  0  0  0
   -8.6061   13.3142    1.2619 N   0  0  0  0  0  0  0  0  0  0  0  0
   -9.6224   12.6117    2.1233 C   0  0  0  0  0  0  0  0  0  0  0  0
  -12.1579   12.7439    2.4415 C   0  0  0  0  0  0  0  0  0  0  0  0
  -13.2907   13.4184    2.8069 N   0  0  0  0  0  0  0  0  0  0  0  0
  -13.2293   14.6812    3.2374 C   0  0  0  0  0  0  0  0  0  0  0  0
  -12.0566   15.3164    3.3179 N   0  0  0  0  0  0  0  0  0  0  0  0
  -10.8901   14.7102    2.9756 C   0  0  0  0  0  0  0  0  0  0  0  0
  -10.8888   13.3860    2.5235 C   0  0  0  0  0  0  0  0  0  0  0  0
  5  4  1  0  0  0  0
  5  6  1  0  0  0  0
  7  8  2  0  0  0  0
  7 11  1  0  0  0  0
  8  9  1  0  0  0  0
  9 10  2  0  0  0  0
  9  6  1  0  0  0  0
 10  3  1  0  0  0  0
 11 12  1  0  0  0  0
 11 10  1  0  0  0  0
 12 18  1  0  0  0  0
 13  2  1  0  0  0  0
 13 14  2  0  0  0  0
 15 14  1  0  0  0  0
 15  1  1  0  0  0  0
 16 15  2  0  0  0  0
 17 18  2  0  0  0  0
 17 16  1  0  0  0  0
 18 13  1  0  0  0  0
M  END
>  <CHROM.1>
-66.25499741,64.26466284,-42.26660532,135.40713749,-9.19206558,13.99572421
1.62156464,3.01411957,-0.32957004,3.00219368

>  <Name>
lig.pdb

>  <RI>
0

>  <Rbt.Current_Directory>
/home/itssahil/PROJECTS/Mol_Feturizer/New_Systems/rnas/4nyg

>  <Rbt.Executable>
rbdock ($Id: //depot/dev/client3/rdock/2013.1/src/exe/rbdock.cxx#4 $)

>  <Rbt.Library>
libRbt.so (2013.1, Build901 2013/11/27)

>  <Rbt.Parameter_File>
/export/apps/rDock/src/rDock_2013.1_src/data/scripts/dock_solv.prm

>  <Rbt.Receptor>
prm/pocket_docking_3.prm

>  <SCORE>
-20.847

>  <SCORE.INTER>
-20.7843

>  <SCORE.INTER.CONST>
1

>  <SCORE.INTER.POLAR>
0

>  <SCORE.INTER.ROT>
4

>  <SCORE.INTER.SOLV>
14.9367

>  <SCORE.INTER.VDW>
-25.1018

>  <SCORE.INTER.norm>
-1.15468

>  <SCORE.INTRA>
-0.0626865

>  <SCORE.INTRA.DIHEDRAL>
0.151393

>  <SCORE.INTRA.DIHEDRAL.0>
3.20029

>  <SCORE.INTRA.POLAR>
0

>  <SCORE.INTRA.POLAR.0>
0

>  <SCORE.INTRA.REPUL>
0

>  <SCORE.INTRA.REPUL.0>
0

>  <SCORE.INTRA.SOLV>
0.416944

>  <SCORE.INTRA.SOLV.lig_0>
-19.3885

>  <SCORE.INTRA.VDW>
-0.346855

>  <SCORE.INTRA.VDW.0>
-1.12705

>  <SCORE.INTRA.norm>
-0.00348258

>  <SCORE.RESTR>
0

>  <SCORE.RESTR.CAVITY>
0

>  <SCORE.RESTR.norm>
0

>  <SCORE.SYSTEM>
0

>  <SCORE.SYSTEM.CONST>
0

>  <SCORE.SYSTEM.DIHEDRAL>
0

>  <SCORE.SYSTEM.SOLV>
0

>  <SCORE.SYSTEM.norm>
0

>  <SCORE.heavy>
18

>  <SCORE.norm>
-1.15817

>  <RMSD>
3.178

$$$$
lig.pdb
 OpenBabel11021811503D
libRbt.so/2013.1/901 2013/11/27
 18 19  0  0  0  0  0  0  0  0999 V2000
  -14.9268   15.5709    4.0029 C   0  0  0  0  0  0  0  0  0  0  0  0
  -11.7164   12.3653    2.2855 N   0  0  0  0  0  0  0  0  0  0  0  0
   -6.7844   14.1641    1.4123 C   0  0  0  0  0  0  0  0  0  0  0  0
   -5.1431   17.5611    2.3564 O   0  0  0  0  0  0  0  0  0  0  0  0
   -4.9290   17.8321    0.9781 C   0  0  0  0  0  0  0  0  0  0  0  0
   -5.4064   16.6438    0.1209 C   0  0  0  0  0  0  0  0  0  0  0  0
   -9.5241   16.5887    0.6205 C   0  0  0  0  0  0  0  0  0  0  0  0
   -8.2134   17.5607    0.0362 S   0  0  0  0  0  0  0  0  0  0  0  0
   -6.8806   16.4391    0.3914 C   0  0  0  0  0  0  0  0  0  0  0  0
   -7.5611   15.3855    0.9499 C   0  0  0  0  0  0  0  0  0  0  0  0
   -8.9211   15.4902    1.0567 N   0  0  0  0  0  0  0  0  0  0  0  0
   -9.7507   14.3755    1.6375 C   0  0  0  0  0  0  0  0  0  0  0  0
  -12.0423   13.6954    2.5502 C   0  0  0  0  0  0  0  0  0  0  0  0
  -13.2540   14.0006    3.1074 N   0  0  0  0  0  0  0  0  0  0  0  0
  -13.5888   15.2661    3.3725 C   0  0  0  0  0  0  0  0  0  0  0  0
  -12.7459   16.2652    3.0954 N   0  0  0  0  0  0  0  0  0  0  0  0
  -11.5249   16.0386    2.5450 C   0  0  0  0  0  0  0  0  0  0  0  0
  -11.1144   14.7338    2.2503 C   0  0  0  0  0  0  0  0  0  0  0  0
  5  4  1  0  0  0  0
  5  6  1  0  0  0  0
  7  8  2  0  0  0  0
  7 11  1  0  0  0  0
  8  9  1  0  0  0  0
  9 10  2  0  0  0  0
  9  6  1  0  0  0  0
 10  3  1  0  0  0  0
 11 12  1  0  0  0  0
 11 10  1  0  0  0  0
 12 18  1  0  0  0  0
 13  2  1  0  0  0  0
 13 14  2  0  0  0  0
 15 14  1  0  0  0  0
 15  1  1  0  0  0  0
 16 15  2  0  0  0  0
 17 18  2  0  0  0  0
 17 16  1  0  0  0  0
 18 13  1  0  0  0  0
M  END
>  <CHROM.1>
59.57638102,64.06377175,-25.50144470,166.85241440,-9.51420612,15.71376952
1.70719111,2.83059200,-0.29926584,3.07970330

>  <Name>
lig.pdb

>  <RI>
0

>  <Rbt.Current_Directory>
/home/itssahil/PROJECTS/Mol_Feturizer/New_Systems/rnas/4nyg

>  <Rbt.Executable>
rbdock ($Id: //depot/dev/client3/rdock/2013.1/src/exe/rbdock.cxx#4 $)

>  <Rbt.Library>
libRbt.so (2013.1, Build901 2013/11/27)

>  <Rbt.Parameter_File>
/export/apps/rDock/src/rDock_2013.1_src/data/scripts/dock_solv.prm

>  <Rbt.Receptor>
prm/pocket_docking_3.prm

>  <SCORE>
-18.6684

>  <SCORE.INTER>
-19.9091

>  <SCORE.INTER.CONST>
1

>  <SCORE.INTER.POLAR>
0

>  <SCORE.INTER.ROT>
4

>  <SCORE.INTER.SOLV>
12.6259

>  <SCORE.INTER.VDW>
-23.748

>  <SCORE.INTER.norm>
-1.10606

>  <SCORE.INTRA>
1.24072

>  <SCORE.INTRA.DIHEDRAL>
0.0121138

>  <SCORE.INTRA.DIHEDRAL.0>
3.20029

>  <SCORE.INTRA.POLAR>
0

>  <SCORE.INTRA.POLAR.0>
0

>  <SCORE.INTRA.REPUL>
0

>  <SCORE.INTRA.REPUL.0>
0

>  <SCORE.INTRA.SOLV>
0.604701

>  <SCORE.INTRA.SOLV.lig_0>
-19.3885

>  <SCORE.INTRA.VDW>
0.932308

>  <SCORE.INTRA.VDW.0>
-1.12705

>  <SCORE.INTRA.norm>
0.0689287

>  <SCORE.RESTR>
0

>  <SCORE.RESTR.CAVITY>
0

>  <SCORE.RESTR.norm>
0

>  <SCORE.SYSTEM>
0

>  <SCORE.SYSTEM.CONST>
0

>  <SCORE.SYSTEM.DIHEDRAL>
0

>  <SCORE.SYSTEM.SOLV>
0

>  <SCORE.SYSTEM.norm>
0

>  <SCORE.heavy>
18

>  <SCORE.norm>
-1.03713

>  <RMSD>
3.205

$$$$
lig.pdb
 OpenBabel11021811503D
libRbt.so/2013.1/901 2013/11/27
 18 19  0  0  0  0  0  0  0  0999 V2000
  -14.6541   15.9679    3.6724 C   0  0  0  0  0  0  0  0  0  0  0  0
  -12.3199   11.9442    2.2963 N   0  0  0  0  0  0  0  0  0  0  0  0
   -7.3724   14.5423    3.5629 C   0  0  0  0  0  0  0  0  0  0  0  0
   -5.9585   17.6467   -0.0118 O   0  0  0  0  0  0  0  0  0  0  0  0
   -5.6683   17.3642    1.3502 C   0  0  0  0  0  0  0  0  0  0  0  0
   -5.4025   15.8578    1.5370 C   0  0  0  0  0  0  0  0  0  0  0  0
   -8.8025   13.9209    0.1599 C   0  0  0  0  0  0  0  0  0  0  0  0
   -7.4047   14.8029   -0.3618 S   0  0  0  0  0  0  0  0  0  0  0  0
   -6.6871   15.1188    1.2337 C   0  0  0  0  0  0  0  0  0  0  0  0
   -7.6013   14.5147    2.0610 C   0  0  0  0  0  0  0  0  0  0  0  0
   -8.6813   13.9070    1.4812 N   0  0  0  0  0  0  0  0  0  0  0  0
   -9.7235   13.2026    2.3092 C   0  0  0  0  0  0  0  0  0  0  0  0
  -12.2590   13.2944    2.6410 C   0  0  0  0  0  0  0  0  0  0  0  0
  -13.4060   13.9655    2.9664 N   0  0  0  0  0  0  0  0  0  0  0  0
  -13.3738   15.2578    3.3021 C   0  0  0  0  0  0  0  0  0  0  0  0
  -12.2172   15.9264    3.3243 N   0  0  0  0  0  0  0  0  0  0  0  0
  -11.0382   15.3259    3.0166 C   0  0  0  0  0  0  0  0  0  0  0  0
  -11.0063   13.9723    2.6633 C   0  0  0  0  0  0  0  0  0  0  0  0
  5  4  1  0  0  0  0
  5  6  1  0  0  0  0
  7  8  2  0  0  0  0
  7 11  1  0  0  0  0
  8  9  1  0  0  0  0
  9 10  2  0  0  0  0
  9  6  1  0  0  0  0
 10  3  1  0  0  0  0
 11 12  1  0  0  0  0
 11 10  1  0  0  0  0
 12 18  1  0  0  0  0
 13  2  1  0  0  0  0
 13 14  2  0  0  0  0
 15 14  1  0  0  0  0
 15  1  1  0  0  0  0
 16 15  2  0  0  0  0
 17 18  2  0  0  0  0
 17 16  1  0  0  0  0
 18 13  1  0  0  0  0
M  END
>  <CHROM.1>
-65.20394852,75.27747119,-83.88582787,140.30711988,-9.44851352,14.84796449
1.88771922,3.03011424,-0.37491915,-2.88449684

>  <Name>
lig.pdb

>  <RI>
0

>  <Rbt.Current_Directory>
/home/itssahil/PROJECTS/Mol_Feturizer/New_Systems/rnas/4nyg

>  <Rbt.Executable>
rbdock ($Id: //depot/dev/client3/rdock/2013.1/src/exe/rbdock.cxx#4 $)

>  <Rbt.Library>
libRbt.so (2013.1, Build901 2013/11/27)

>  <Rbt.Parameter_File>
/export/apps/rDock/src/rDock_2013.1_src/data/scripts/dock_solv.prm

>  <Rbt.Receptor>
prm/pocket_docking_3.prm

>  <SCORE>
-20.2722

>  <SCORE.INTER>
-19.9015

>  <SCORE.INTER.CONST>
1

>  <SCORE.INTER.POLAR>
0

>  <SCORE.INTER.ROT>
4

>  <SCORE.INTER.SOLV>
14.0487

>  <SCORE.INTER.VDW>
-24.2173

>  <SCORE.INTER.norm>
-1.10564

>  <SCORE.INTRA>
-0.370657

>  <SCORE.INTRA.DIHEDRAL>
0.360246

>  <SCORE.INTRA.DIHEDRAL.0>
3.20029

>  <SCORE.INTRA.POLAR>
0

>  <SCORE.INTRA.POLAR.0>
0

>  <SCORE.INTRA.REPUL>
0

>  <SCORE.INTRA.REPUL.0>
0

>  <SCORE.INTRA.SOLV>
0.403362

>  <SCORE.INTRA.SOLV.lig_0>
-19.3885

>  <SCORE.INTRA.VDW>
-0.75246

>  <SCORE.INTRA.VDW.0>
-1.12705

>  <SCORE.INTRA.norm>
-0.020592

>  <SCORE.RESTR>
0

>  <SCORE.RESTR.CAVITY>
0

>  <SCORE.RESTR.norm>
0

>  <SCORE.SYSTEM>
0

>  <SCORE.SYSTEM.CONST>
0

>  <SCORE.SYSTEM.DIHEDRAL>
0

>  <SCORE.SYSTEM.SOLV>
0

>  <SCORE.SYSTEM.norm>
0

>  <SCORE.heavy>
18

>  <SCORE.norm>
-1.12623

>  <RMSD>
3.205

$$$$
lig.pdb
 OpenBabel11021811503D
libRbt.so/2013.1/901 2013/11/27
 18 19  0  0  0  0  0  0  0  0999 V2000
  -14.7993   15.9537    3.6825 C   0  0  0  0  0  0  0  0  0  0  0  0
  -12.2268   12.0362    2.4304 N   0  0  0  0  0  0  0  0  0  0  0  0
   -7.8063   15.6266    3.1407 C   0  0  0  0  0  0  0  0  0  0  0  0
   -4.3540   14.9630    1.0784 O   0  0  0  0  0  0  0  0  0  0  0  0
   -4.7570   16.0403    0.2441 C   0  0  0  0  0  0  0  0  0  0  0  0
   -6.0703   16.6555    0.7652 C   0  0  0  0  0  0  0  0  0  0  0  0
   -8.8457   13.6352    0.1464 C   0  0  0  0  0  0  0  0  0  0  0  0
   -7.6580   14.6094   -0.6561 S   0  0  0  0  0  0  0  0  0  0  0  0
   -7.1305   15.5768    0.7391 C   0  0  0  0  0  0  0  0  0  0  0  0
   -7.9307   15.0692    1.7326 C   0  0  0  0  0  0  0  0  0  0  0  0
   -8.8054   14.0714    1.3989 N   0  0  0  0  0  0  0  0  0  0  0  0
   -9.7070   13.4417    2.4278 C   0  0  0  0  0  0  0  0  0  0  0  0
  -12.2463   13.3962    2.7394 C   0  0  0  0  0  0  0  0  0  0  0  0
  -13.4326   14.0085    3.0388 N   0  0  0  0  0  0  0  0  0  0  0  0
  -13.4773   15.3089    3.3401 C   0  0  0  0  0  0  0  0  0  0  0  0
  -12.3612   16.0433    3.3526 N   0  0  0  0  0  0  0  0  0  0  0  0
  -11.1471   15.5038    3.0692 C   0  0  0  0  0  0  0  0  0  0  0  0
  -11.0348   14.1454    2.7523 C   0  0  0  0  0  0  0  0  0  0  0  0
  5  4  1  0  0  0  0
  5  6  1  0  0  0  0
  7  8  2  0  0  0  0
  7 11  1  0  0  0  0
  8  9  1  0  0  0  0
  9 10  2  0  0  0  0
  9  6  1  0  0  0  0
 10  3  1  0  0  0  0
 11 12  1  0  0  0  0
 11 10  1  0  0  0  0
 12 18  1  0  0  0  0
 13  2  1  0  0  0  0
 13 14  2  0  0  0  0
 15 14  1  0  0  0  0
 15  1  1  0  0  0  0
 16 15  2  0  0  0  0
 17 18  2  0  0  0  0
 17 16  1  0  0  0  0
 18 13  1  0  0  0  0
M  END
>  <CHROM.1>
-60.64256671,-56.47659437,-96.98397193,129.77622336,-9.46003604,14.78477301
1.78326837,-3.04275068,-0.36070545,-2.61180713

>  <Name>
lig.pdb

>  <RI>
0

>  <Rbt.Current_Directory>
/home/itssahil/PROJECTS/Mol_Feturizer/New_Systems/rnas/4nyg

>  <Rbt.Executable>
rbdock ($Id: //depot/dev/client3/rdock/2013.1/src/exe/rbdock.cxx#4 $)

>  <Rbt.Library>
libRbt.so (2013.1, Build901 2013/11/27)

>  <Rbt.Parameter_File>
/export/apps/rDock/src/rDock_2013.1_src/data/scripts/dock_solv.prm

>  <Rbt.Receptor>
prm/pocket_docking_3.prm

>  <SCORE>
-20.5198

>  <SCORE.INTER>
-20.1816

>  <SCORE.INTER.CONST>
1

>  <SCORE.INTER.POLAR>
0

>  <SCORE.INTER.ROT>
4

>  <SCORE.INTER.SOLV>
13.8758

>  <SCORE.INTER.VDW>
-24.3463

>  <SCORE.INTER.norm>
-1.1212

>  <SCORE.INTRA>
-0.338211

>  <SCORE.INTRA.DIHEDRAL>
-0.119409

>  <SCORE.INTRA.DIHEDRAL.0>
3.20029

>  <SCORE.INTRA.POLAR>
0

>  <SCORE.INTRA.POLAR.0>
0

>  <SCORE.INTRA.REPUL>
0

>  <SCORE.INTRA.REPUL.0>
0

>  <SCORE.INTRA.SOLV>
0.593783

>  <SCORE.INTRA.SOLV.lig_0>
-19.3885

>  <SCORE.INTRA.VDW>
-0.575398

>  <SCORE.INTRA.VDW.0>
-1.12705

>  <SCORE.INTRA.norm>
-0.0187895

>  <SCORE.RESTR>
0

>  <SCORE.RESTR.CAVITY>
0

>  <SCORE.RESTR.norm>
0

>  <SCORE.SYSTEM>
0

>  <SCORE.SYSTEM.CONST>
0

>  <SCORE.SYSTEM.DIHEDRAL>
0

>  <SCORE.SYSTEM.SOLV>
0

>  <SCORE.SYSTEM.norm>
0

>  <SCORE.heavy>
18

>  <SCORE.norm>
-1.13999

>  <RMSD>
3.214

$$$$
lig.pdb
 OpenBabel11021811503D
libRbt.so/2013.1/901 2013/11/27
 18 19  0  0  0  0  0  0  0  0999 V2000
  -14.4665   14.5531    3.3758 C   0  0  0  0  0  0  0  0  0  0  0  0
  -11.2653   11.1415    2.0928 N   0  0  0  0  0  0  0  0  0  0  0  0
   -7.7388   15.2502    3.6342 C   0  0  0  0  0  0  0  0  0  0  0  0
   -7.4106   18.0804    0.3394 O   0  0  0  0  0  0  0  0  0  0  0  0
   -6.7476   18.1795    1.5923 C   0  0  0  0  0  0  0  0  0  0  0  0
   -5.8535   16.9454    1.8212 C   0  0  0  0  0  0  0  0  0  0  0  0
   -7.8009   13.6324    0.2592 C   0  0  0  0  0  0  0  0  0  0  0  0
   -6.7126   14.9182   -0.1485 S   0  0  0  0  0  0  0  0  0  0  0  0
   -6.6501   15.7178    1.4381 C   0  0  0  0  0  0  0  0  0  0  0  0
   -7.4943   14.9210    2.1711 C   0  0  0  0  0  0  0  0  0  0  0  0
   -8.0740   13.8553    1.5385 N   0  0  0  0  0  0  0  0  0  0  0  0
   -8.9973   12.9163    2.2692 C   0  0  0  0  0  0  0  0  0  0  0  0
  -11.5093   12.4661    2.4551 C   0  0  0  0  0  0  0  0  0  0  0  0
  -12.7879   12.8739    2.7212 N   0  0  0  0  0  0  0  0  0  0  0  0
  -13.0472   14.1362    3.0722 C   0  0  0  0  0  0  0  0  0  0  0  0
  -12.0605   15.0320    3.1684 N   0  0  0  0  0  0  0  0  0  0  0  0
  -10.7665   14.6996    2.9227 C   0  0  0  0  0  0  0  0  0  0  0  0
  -10.4308   13.3913    2.5571 C   0  0  0  0  0  0  0  0  0  0  0  0
  5  4  1  0  0  0  0
  5  6  1  0  0  0  0
  7  8  2  0  0  0  0
  7 11  1  0  0  0  0
  8  9  1  0  0  0  0
  9 10  2  0  0  0  0
  9  6  1  0  0  0  0
 10  3  1  0  0  0  0
 11 12  1  0  0  0  0
 11 10  1  0  0  0  0
 12 18  1  0  0  0  0
 13  2  1  0  0  0  0
 13 14  2  0  0  0  0
 15 14  1  0  0  0  0
 15  1  1  0  0  0  0
 16 15  2  0  0  0  0
 17 18  2  0  0  0  0
 17 16  1  0  0  0  0
 18 13  1  0  0  0  0
M  END
>  <CHROM.1>
-44.98092736,91.54023340,-104.62988408,141.70487436,-9.23022238,14.66751204
1.90984088,2.76909467,-0.39254323,-2.95522534

>  <Name>
lig.pdb

>  <RI>
0

>  <Rbt.Current_Directory>
/home/itssahil/PROJECTS/Mol_Feturizer/New_Systems/rnas/4nyg

>  <Rbt.Executable>
rbdock ($Id: //depot/dev/client3/rdock/2013.1/src/exe/rbdock.cxx#4 $)

>  <Rbt.Library>
libRbt.so (2013.1, Build901 2013/11/27)

>  <Rbt.Parameter_File>
/export/apps/rDock/src/rDock_2013.1_src/data/scripts/dock_solv.prm

>  <Rbt.Receptor>
prm/blind_docking_20.prm

>  <SCORE>
-14.7458

>  <SCORE.INTER>
-17.0977

>  <SCORE.INTER.CONST>
1

>  <SCORE.INTER.POLAR>
0

>  <SCORE.INTER.ROT>
4

>  <SCORE.INTER.SOLV>
14.0823

>  <SCORE.INTER.VDW>
-22.3592

>  <SCORE.INTER.norm>
-0.949871

>  <SCORE.INTRA>
1.19281

>  <SCORE.INTRA.DIHEDRAL>
2.12478

>  <SCORE.INTRA.DIHEDRAL.0>
3.20029

>  <SCORE.INTRA.POLAR>
0

>  <SCORE.INTRA.POLAR.0>
0

>  <SCORE.INTRA.REPUL>
0

>  <SCORE.INTRA.REPUL.0>
0

>  <SCORE.INTRA.SOLV>
0.647726

>  <SCORE.INTRA.SOLV.lig_0>
-19.3885

>  <SCORE.INTRA.VDW>
-0.193444

>  <SCORE.INTRA.VDW.0>
-1.12705

>  <SCORE.INTRA.norm>
0.0662672

>  <SCORE.RESTR>
1.15911

>  <SCORE.RESTR.CAVITY>
1.15911

>  <SCORE.RESTR.norm>
0.0643952

>  <SCORE.SYSTEM>
0

>  <SCORE.SYSTEM.CONST>
0

>  <SCORE.SYSTEM.DIHEDRAL>
0

>  <SCORE.SYSTEM.SOLV>
0

>  <SCORE.SYSTEM.norm>
0

>  <SCORE.heavy>
18

>  <SCORE.norm>
-0.819208

>  <RMSD>
3.237

$$$$
lig.pdb
 OpenBabel11021811503D
libRbt.so/2013.1/901 2013/11/27
 18 19  0  0  0  0  0  0  0  0999 V2000
  -14.3793   15.3311    3.6756 C   0  0  0  0  0  0  0  0  0  0  0  0
   -9.5778   15.2202    2.9928 N   0  0  0  0  0  0  0  0  0  0  0  0
   -6.6116   12.2991    2.6277 C   0  0  0  0  0  0  0  0  0  0  0  0
   -3.1205   15.5560    0.8181 O   0  0  0  0  0  0  0  0  0  0  0  0
   -4.5322   15.3949    0.8170 C   0  0  0  0  0  0  0  0  0  0  0  0
   -4.8997   13.9163    0.5858 C   0  0  0  0  0  0  0  0  0  0  0  0
   -9.0366   13.9163    0.2792 C   0  0  0  0  0  0  0  0  0  0  0  0
   -7.5948   14.5485   -0.4456 S   0  0  0  0  0  0  0  0  0  0  0  0
   -6.4067   13.7982    0.6434 C   0  0  0  0  0  0  0  0  0  0  0  0
   -7.2291   13.1114    1.5017 C   0  0  0  0  0  0  0  0  0  0  0  0
   -8.5787   13.1911    1.2917 N   0  0  0  0  0  0  0  0  0  0  0  0
   -9.5546   12.4545    2.1710 C   0  0  0  0  0  0  0  0  0  0  0  0
  -10.7975   14.5440    2.9689 C   0  0  0  0  0  0  0  0  0  0  0  0
  -11.9459   15.2005    3.3179 N   0  0  0  0  0  0  0  0  0  0  0  0
  -13.1263   14.5758    3.3011 C   0  0  0  0  0  0  0  0  0  0  0  0
  -13.2110   13.2908    2.9449 N   0  0  0  0  0  0  0  0  0  0  0  0
  -12.1145   12.5754    2.5828 C   0  0  0  0  0  0  0  0  0  0  0  0
  -10.8507   13.1762    2.5743 C   0  0  0  0  0  0  0  0  0  0  0  0
  5  4  1  0  0  0  0
  5  6  1  0  0  0  0
  7  8  2  0  0  0  0
  7 11  1  0  0  0  0
  8  9  1  0  0  0  0
  9 10  2  0  0  0  0
  9  6  1  0  0  0  0
 10  3  1  0  0  0  0
 11 12  1  0  0  0  0
 11 10  1  0  0  0  0
 12 18  1  0  0  0  0
 13  2  1  0  0  0  0
 13 14  2  0  0  0  0
 15 14  1  0  0  0  0
 15  1  1  0  0  0  0
 16 15  2  0  0  0  0
 17 18  2  0  0  0  0
 17 16  1  0  0  0  0
 18 13  1  0  0  0  0
M  END
>  <CHROM.1>
178.03172635,63.16280685,-41.43092536,-42.87907178,-8.91562212,14.06518689
1.75614197,3.10245788,-0.31892974,3.12826098

>  <Name>
lig.pdb

>  <RI>
0

>  <Rbt.Current_Directory>
/home/itssahil/PROJECTS/Mol_Feturizer/New_Systems/rnas/4nyg

>  <Rbt.Executable>
rbdock ($Id: //depot/dev/client3/rdock/2013.1/src/exe/rbdock.cxx#4 $)

>  <Rbt.Library>
libRbt.so (2013.1, Build901 2013/11/27)

>  <Rbt.Parameter_File>
/export/apps/rDock/src/rDock_2013.1_src/data/scripts/dock_solv.prm

>  <Rbt.Receptor>
prm/pocket_docking_3.prm

>  <SCORE>
-20.7056

>  <SCORE.INTER>
-20.788

>  <SCORE.INTER.CONST>
1

>  <SCORE.INTER.POLAR>
0

>  <SCORE.INTER.ROT>
4

>  <SCORE.INTER.SOLV>
12.0817

>  <SCORE.INTER.VDW>
-24.1526

>  <SCORE.INTER.norm>
-1.15489

>  <SCORE.INTRA>
0.0824311

>  <SCORE.INTRA.DIHEDRAL>
0.0053865

>  <SCORE.INTRA.DIHEDRAL.0>
3.20029

>  <SCORE.INTRA.POLAR>
0

>  <SCORE.INTRA.POLAR.0>
0

>  <SCORE.INTRA.REPUL>
0

>  <SCORE.INTRA.REPUL.0>
0

>  <SCORE.INTRA.SOLV>
1.2719

>  <SCORE.INTRA.SOLV.lig_0>
-19.3885

>  <SCORE.INTRA.VDW>
-0.556213

>  <SCORE.INTRA.VDW.0>
-1.12705

>  <SCORE.INTRA.norm>
0.00457951

>  <SCORE.RESTR>
0

>  <SCORE.RESTR.CAVITY>
0

>  <SCORE.RESTR.norm>
0

>  <SCORE.SYSTEM>
0

>  <SCORE.SYSTEM.CONST>
0

>  <SCORE.SYSTEM.DIHEDRAL>
0

>  <SCORE.SYSTEM.SOLV>
0

>  <SCORE.SYSTEM.norm>
0

>  <SCORE.heavy>
18

>  <SCORE.norm>
-1.15031

>  <RMSD>
3.239

$$$$
lig.pdb
 OpenBabel11021811503D
libRbt.so/2013.1/901 2013/11/27
 18 19  0  0  0  0  0  0  0  0999 V2000
  -14.3947   15.3744    3.6523 C   0  0  0  0  0  0  0  0  0  0  0  0
   -9.5886   15.2523    3.0055 N   0  0  0  0  0  0  0  0  0  0  0  0
   -6.6205   12.3540    2.6729 C   0  0  0  0  0  0  0  0  0  0  0  0
   -3.1470   15.5992    0.7107 O   0  0  0  0  0  0  0  0  0  0  0  0
   -4.5568   15.4246    0.7423 C   0  0  0  0  0  0  0  0  0  0  0  0
   -4.9123   13.9321    0.5976 C   0  0  0  0  0  0  0  0  0  0  0  0
   -9.0482   13.8997    0.2794 C   0  0  0  0  0  0  0  0  0  0  0  0
   -7.6081   14.5231   -0.4563 S   0  0  0  0  0  0  0  0  0  0  0  0
   -6.4187   13.8063    0.6537 C   0  0  0  0  0  0  0  0  0  0  0  0
   -7.2396   13.1353    1.5260 C   0  0  0  0  0  0  0  0  0  0  0  0
   -8.5890   13.2018    1.3103 N   0  0  0  0  0  0  0  0  0  0  0  0
   -9.5631   12.4806    2.2043 C   0  0  0  0  0  0  0  0  0  0  0  0
  -10.8089   14.5775    2.9777 C   0  0  0  0  0  0  0  0  0  0  0  0
  -11.9590   15.2381    3.3135 N   0  0  0  0  0  0  0  0  0  0  0  0
  -13.1401   14.6148    3.2925 C   0  0  0  0  0  0  0  0  0  0  0  0
  -13.2239   13.3273    2.9451 N   0  0  0  0  0  0  0  0  0  0  0  0
  -12.1258   12.6079    2.5964 C   0  0  0  0  0  0  0  0  0  0  0  0
  -10.8611   13.2069    2.5928 C   0  0  0  0  0  0  0  0  0  0  0  0
  5  4  1  0  0  0  0
  5  6  1  0  0  0  0
  7  8  2  0  0  0  0
  7 11  1  0  0  0  0
  8  9  1  0  0  0  0
  9 10  2  0  0  0  0
  9  6  1  0  0  0  0
 10  3  1  0  0  0  0
 11 12  1  0  0  0  0
 11 10  1  0  0  0  0
 12 18  1  0  0  0  0
 13  2  1  0  0  0  0
 13 14  2  0  0  0  0
 15 14  1  0  0  0  0
 15  1  1  0  0  0  0
 16 15  2  0  0  0  0
 17 18  2  0  0  0  0
 17 16  1  0  0  0  0
 18 13  1  0  0  0  0
M  END
>  <CHROM.1>
179.37150928,61.11628265,-41.75914308,-43.75773284,-8.92901349,14.08737841
1.75252831,3.09623315,-0.32239102,3.10287657

>  <Name>
lig.pdb

>  <RI>
0

>  <Rbt.Current_Directory>
/home/itssahil/PROJECTS/Mol_Feturizer/New_Systems/rnas/4nyg

>  <Rbt.Executable>
rbdock ($Id: //depot/dev/client3/rdock/2013.1/src/exe/rbdock.cxx#4 $)

>  <Rbt.Library>
libRbt.so (2013.1, Build901 2013/11/27)

>  <Rbt.Parameter_File>
/export/apps/rDock/src/rDock_2013.1_src/data/scripts/dock_solv.prm

>  <Rbt.Receptor>
prm/pocket_docking_3.prm

>  <SCORE>
-20.7325

>  <SCORE.INTER>
-20.7982

>  <SCORE.INTER.CONST>
1

>  <SCORE.INTER.POLAR>
0

>  <SCORE.INTER.ROT>
4

>  <SCORE.INTER.SOLV>
12.1067

>  <SCORE.INTER.VDW>
-24.1677

>  <SCORE.INTER.norm>
-1.15545

>  <SCORE.INTRA>
0.065657

>  <SCORE.INTRA.DIHEDRAL>
-0.0231927

>  <SCORE.INTRA.DIHEDRAL.0>
3.20029

>  <SCORE.INTRA.POLAR>
0

>  <SCORE.INTRA.POLAR.0>
0

>  <SCORE.INTRA.REPUL>
0

>  <SCORE.INTRA.REPUL.0>
0

>  <SCORE.INTRA.SOLV>
1.253

>  <SCORE.INTRA.SOLV.lig_0>
-19.3885

>  <SCORE.INTRA.VDW>
-0.549246

>  <SCORE.INTRA.VDW.0>
-1.12705

>  <SCORE.INTRA.norm>
0.00364761

>  <SCORE.RESTR>
0

>  <SCORE.RESTR.CAVITY>
0

>  <SCORE.RESTR.norm>
0

>  <SCORE.SYSTEM>
0

>  <SCORE.SYSTEM.CONST>
0

>  <SCORE.SYSTEM.DIHEDRAL>
0

>  <SCORE.SYSTEM.SOLV>
0

>  <SCORE.SYSTEM.norm>
0

>  <SCORE.heavy>
18

>  <SCORE.norm>
-1.15181

>  <RMSD>
3.245

$$$$
lig.pdb
 OpenBabel11021811503D
libRbt.so/2013.1/901 2013/11/27
 18 19  0  0  0  0  0  0  0  0999 V2000
  -14.5189   15.9839    3.5776 C   0  0  0  0  0  0  0  0  0  0  0  0
   -9.7458   15.9999    2.7118 N   0  0  0  0  0  0  0  0  0  0  0  0
   -7.0060   14.4068    3.4323 C   0  0  0  0  0  0  0  0  0  0  0  0
   -4.1864   17.6397    0.5100 O   0  0  0  0  0  0  0  0  0  0  0  0
   -5.4307   16.9542    0.4779 C   0  0  0  0  0  0  0  0  0  0  0  0
   -5.2831   15.5526    1.1011 C   0  0  0  0  0  0  0  0  0  0  0  0
   -8.9121   13.7156    0.2858 C   0  0  0  0  0  0  0  0  0  0  0  0
   -7.5660   14.5134   -0.4596 S   0  0  0  0  0  0  0  0  0  0  0  0
   -6.6247   14.8599    1.0082 C   0  0  0  0  0  0  0  0  0  0  0  0
   -7.4395   14.3301    1.9780 C   0  0  0  0  0  0  0  0  0  0  0  0
   -8.6115   13.7485    1.5778 N   0  0  0  0  0  0  0  0  0  0  0  0
   -9.5567   13.1243    2.5703 C   0  0  0  0  0  0  0  0  0  0  0  0
  -10.9156   15.2660    2.9076 C   0  0  0  0  0  0  0  0  0  0  0  0
  -12.0951   15.9172    3.1452 N   0  0  0  0  0  0  0  0  0  0  0  0
  -13.2291   15.2372    3.3337 C   0  0  0  0  0  0  0  0  0  0  0  0
  -13.2357   13.9015    3.2973 N   0  0  0  0  0  0  0  0  0  0  0  0
  -12.1042   13.1871    3.0635 C   0  0  0  0  0  0  0  0  0  0  0  0
  -10.8862   13.8428    2.8521 C   0  0  0  0  0  0  0  0  0  0  0  0
  5  4  1  0  0  0  0
  5  6  1  0  0  0  0
  7  8  2  0  0  0  0
  7 11  1  0  0  0  0
  8  9  1  0  0  0  0
  9 10  2  0  0  0  0
  9  6  1  0  0  0  0
 10  3  1  0  0  0  0
 11 12  1  0  0  0  0
 11 10  1  0  0  0  0
 12 18  1  0  0  0  0
 13  2  1  0  0  0  0
 13 14  2  0  0  0  0
 15 14  1  0  0  0  0
 15  1  1  0  0  0  0
 16 15  2  0  0  0  0
 17 18  2  0  0  0  0
 17 16  1  0  0  0  0
 18 13  1  0  0  0  0
M  END
>  <CHROM.1>
-178.60753109,58.49508598,-72.17427443,-37.87961841,-9.12105049,14.91381763
1.89087763,3.10168467,-0.37898748,-2.87754109

>  <Name>
lig.pdb

>  <RI>
0

>  <Rbt.Current_Directory>
/home/itssahil/PROJECTS/Mol_Feturizer/New_Systems/rnas/4nyg

>  <Rbt.Executable>
rbdock ($Id: //depot/dev/client3/rdock/2013.1/src/exe/rbdock.cxx#4 $)

>  <Rbt.Library>
libRbt.so (2013.1, Build901 2013/11/27)

>  <Rbt.Parameter_File>
/export/apps/rDock/src/rDock_2013.1_src/data/scripts/dock_solv.prm

>  <Rbt.Receptor>
prm/pocket_docking_4.prm

>  <SCORE>
-20.3473

>  <SCORE.INTER>
-20.2795

>  <SCORE.INTER.CONST>
1

>  <SCORE.INTER.POLAR>
0

>  <SCORE.INTER.ROT>
4

>  <SCORE.INTER.SOLV>
11.4891

>  <SCORE.INTER.VDW>
-23.6161

>  <SCORE.INTER.norm>
-1.12664

>  <SCORE.INTRA>
-0.0677262

>  <SCORE.INTRA.DIHEDRAL>
-0.106029

>  <SCORE.INTRA.DIHEDRAL.0>
3.20029

>  <SCORE.INTRA.POLAR>
0

>  <SCORE.INTRA.POLAR.0>
0

>  <SCORE.INTRA.REPUL>
0

>  <SCORE.INTRA.REPUL.0>
0

>  <SCORE.INTRA.SOLV>
1.54816

>  <SCORE.INTRA.SOLV.lig_0>
-19.3885

>  <SCORE.INTRA.VDW>
-0.788793

>  <SCORE.INTRA.VDW.0>
-1.12705

>  <SCORE.INTRA.norm>
-0.00376257

>  <SCORE.RESTR>
0

>  <SCORE.RESTR.CAVITY>
0

>  <SCORE.RESTR.norm>
0

>  <SCORE.SYSTEM>
0

>  <SCORE.SYSTEM.CONST>
0

>  <SCORE.SYSTEM.DIHEDRAL>
0

>  <SCORE.SYSTEM.SOLV>
0

>  <SCORE.SYSTEM.norm>
0

>  <SCORE.heavy>
18

>  <SCORE.norm>
-1.1304

>  <RMSD>
3.255

$$$$
lig.pdb
 OpenBabel11021811503D
libRbt.so/2013.1/901 2013/11/27
 18 19  0  0  0  0  0  0  0  0999 V2000
  -14.4579   14.5815    3.4745 C   0  0  0  0  0  0  0  0  0  0  0  0
  -11.4376   11.1033    1.9540 N   0  0  0  0  0  0  0  0  0  0  0  0
   -7.8117   14.8972    3.6188 C   0  0  0  0  0  0  0  0  0  0  0  0
   -7.8562   18.0997    1.9848 O   0  0  0  0  0  0  0  0  0  0  0  0
   -6.4724   18.0928    1.6621 C   0  0  0  0  0  0  0  0  0  0  0  0
   -5.8305   16.7608    2.0966 C   0  0  0  0  0  0  0  0  0  0  0  0
   -7.8755   13.7929    0.0428 C   0  0  0  0  0  0  0  0  0  0  0  0
   -6.7315   15.0792   -0.1590 S   0  0  0  0  0  0  0  0  0  0  0  0
   -6.6667   15.6356    1.5282 C   0  0  0  0  0  0  0  0  0  0  0  0
   -7.5539   14.7753    2.1263 C   0  0  0  0  0  0  0  0  0  0  0  0
   -8.1627   13.8377    1.3375 N   0  0  0  0  0  0  0  0  0  0  0  0
   -9.1342   12.8404    1.9116 C   0  0  0  0  0  0  0  0  0  0  0  0
  -11.6272   12.4353    2.3216 C   0  0  0  0  0  0  0  0  0  0  0  0
  -12.8708   12.8675    2.6940 N   0  0  0  0  0  0  0  0  0  0  0  0
  -13.0776   14.1374    3.0525 C   0  0  0  0  0  0  0  0  0  0  0  0
  -12.0719   15.0170    3.0520 N   0  0  0  0  0  0  0  0  0  0  0  0
  -10.8100   14.6601    2.6977 C   0  0  0  0  0  0  0  0  0  0  0  0
  -10.5291   13.3427    2.3185 C   0  0  0  0  0  0  0  0  0  0  0  0
  5  4  1  0  0  0  0
  5  6  1  0  0  0  0
  7  8  2  0  0  0  0
  7 11  1  0  0  0  0
  8  9  1  0  0  0  0
  9 10  2  0  0  0  0
  9  6  1  0  0  0  0
 10  3  1  0  0  0  0
 11 12  1  0  0  0  0
 11 10  1  0  0  0  0
 12 18  1  0  0  0  0
 13  2  1  0  0  0  0
 13 14  2  0  0  0  0
 15 14  1  0  0  0  0
 15  1  1  0  0  0  0
 16 15  2  0  0  0  0
 17 18  2  0  0  0  0
 17 16  1  0  0  0  0
 18 13  1  0  0  0  0
M  END
>  <CHROM.1>
51.54486055,74.69091050,-107.83492085,153.66842242,-9.29437373,14.63908859
1.94944203,2.81930696,-0.38891447,-2.79826828

>  <Name>
lig.pdb

>  <RI>
0

>  <Rbt.Current_Directory>
/home/itssahil/PROJECTS/Mol_Feturizer/New_Systems/rnas/4nyg

>  <Rbt.Executable>
rbdock ($Id: //depot/dev/client3/rdock/2013.1/src/exe/rbdock.cxx#4 $)

>  <Rbt.Library>
libRbt.so (2013.1, Build901 2013/11/27)

>  <Rbt.Parameter_File>
/export/apps/rDock/src/rDock_2013.1_src/data/scripts/dock_solv.prm

>  <Rbt.Receptor>
prm/blind_docking_20.prm

>  <SCORE>
-15.4301

>  <SCORE.INTER>
-17.0039

>  <SCORE.INTER.CONST>
1

>  <SCORE.INTER.POLAR>
0

>  <SCORE.INTER.ROT>
4

>  <SCORE.INTER.SOLV>
14.6095

>  <SCORE.INTER.VDW>
-22.4724

>  <SCORE.INTER.norm>
-0.944662

>  <SCORE.INTRA>
0.325014

>  <SCORE.INTRA.DIHEDRAL>
0.516866

>  <SCORE.INTRA.DIHEDRAL.0>
3.20029

>  <SCORE.INTRA.POLAR>
0

>  <SCORE.INTRA.POLAR.0>
0

>  <SCORE.INTRA.REPUL>
0

>  <SCORE.INTRA.REPUL.0>
0

>  <SCORE.INTRA.SOLV>
0.681957

>  <SCORE.INTRA.SOLV.lig_0>
-19.3885

>  <SCORE.INTRA.VDW>
-0.274398

>  <SCORE.INTRA.VDW.0>
-1.12705

>  <SCORE.INTRA.norm>
0.0180563

>  <SCORE.RESTR>
1.24878

>  <SCORE.RESTR.CAVITY>
1.24878

>  <SCORE.RESTR.norm>
0.0693769

>  <SCORE.SYSTEM>
0

>  <SCORE.SYSTEM.CONST>
0

>  <SCORE.SYSTEM.DIHEDRAL>
0

>  <SCORE.SYSTEM.SOLV>
0

>  <SCORE.SYSTEM.norm>
0

>  <SCORE.heavy>
18

>  <SCORE.norm>
-0.857229

>  <RMSD>
3.263

$$$$
lig.pdb
 OpenBabel11021811503D
libRbt.so/2013.1/901 2013/11/27
 18 19  0  0  0  0  0  0  0  0999 V2000
  -14.7920   16.1147    3.7483 C   0  0  0  0  0  0  0  0  0  0  0  0
  -11.8690   12.2579    3.4117 N   0  0  0  0  0  0  0  0  0  0  0  0
   -7.9902   16.3325    3.0108 C   0  0  0  0  0  0  0  0  0  0  0  0
   -4.5293   15.7485   -0.2951 O   0  0  0  0  0  0  0  0  0  0  0  0
   -4.8770   16.6945    0.7065 C   0  0  0  0  0  0  0  0  0  0  0  0
   -6.3297   17.1697    0.5094 C   0  0  0  0  0  0  0  0  0  0  0  0
   -8.6572   13.7377    0.3966 C   0  0  0  0  0  0  0  0  0  0  0  0
   -7.5839   14.7143   -0.5513 S   0  0  0  0  0  0  0  0  0  0  0  0
   -7.2356   15.9677    0.6604 C   0  0  0  0  0  0  0  0  0  0  0  0
   -7.9933   15.5321    1.7192 C   0  0  0  0  0  0  0  0  0  0  0  0
   -8.7162   14.3821    1.5550 N   0  0  0  0  0  0  0  0  0  0  0  0
   -9.5592   13.8194    2.6689 C   0  0  0  0  0  0  0  0  0  0  0  0
  -12.0326   13.6385    3.2990 C   0  0  0  0  0  0  0  0  0  0  0  0
  -13.2544   14.2011    3.5490 N   0  0  0  0  0  0  0  0  0  0  0  0
  -13.4360   15.5206    3.4501 C   0  0  0  0  0  0  0  0  0  0  0  0
  -12.4258   16.3222    3.1005 N   0  0  0  0  0  0  0  0  0  0  0  0
  -11.1844   15.8360    2.8403 C   0  0  0  0  0  0  0  0  0  0  0  0
  -10.9301   14.4631    2.9333 C   0  0  0  0  0  0  0  0  0  0  0  0
  5  4  1  0  0  0  0
  5  6  1  0  0  0  0
  7  8  2  0  0  0  0
  7 11  1  0  0  0  0
  8  9  1  0  0  0  0
  9 10  2  0  0  0  0
  9  6  1  0  0  0  0
 10  3  1  0  0  0  0
 11 12  1  0  0  0  0
 11 10  1  0  0  0  0
 12 18  1  0  0  0  0
 13  2  1  0  0  0  0
 13 14  2  0  0  0  0
 15 14  1  0  0  0  0
 15  1  1  0  0  0  0
 16 15  2  0  0  0  0
 17 18  2  0  0  0  0
 17 16  1  0  0  0  0
 18 13  1  0  0  0  0
M  END
>  <CHROM.1>
62.08164067,-79.88757284,-102.23883766,142.31930861,-9.43795887,15.12744656
1.84287947,3.11655474,-0.45414144,-2.90623072

>  <Name>
lig.pdb

>  <RI>
0

>  <Rbt.Current_Directory>
/home/itssahil/PROJECTS/Mol_Feturizer/New_Systems/rnas/4nyg

>  <Rbt.Executable>
rbdock ($Id: //depot/dev/client3/rdock/2013.1/src/exe/rbdock.cxx#4 $)

>  <Rbt.Library>
libRbt.so (2013.1, Build901 2013/11/27)

>  <Rbt.Parameter_File>
/export/apps/rDock/src/rDock_2013.1_src/data/scripts/dock_solv.prm

>  <Rbt.Receptor>
prm/pocket_docking_5.prm

>  <SCORE>
-20.2251

>  <SCORE.INTER>
-20.2148

>  <SCORE.INTER.CONST>
1

>  <SCORE.INTER.POLAR>
0

>  <SCORE.INTER.ROT>
4

>  <SCORE.INTER.SOLV>
13.9462

>  <SCORE.INTER.VDW>
-24.392

>  <SCORE.INTER.norm>
-1.12305

>  <SCORE.INTRA>
-0.0102679

>  <SCORE.INTRA.DIHEDRAL>
0.559823

>  <SCORE.INTRA.DIHEDRAL.0>
3.20029

>  <SCORE.INTRA.POLAR>
0

>  <SCORE.INTRA.POLAR.0>
0

>  <SCORE.INTRA.REPUL>
0

>  <SCORE.INTRA.REPUL.0>
0

>  <SCORE.INTRA.SOLV>
0.486366

>  <SCORE.INTRA.SOLV.lig_0>
-19.3885

>  <SCORE.INTRA.VDW>
-0.533362

>  <SCORE.INTRA.VDW.0>
-1.12705

>  <SCORE.INTRA.norm>
-0.000570439

>  <SCORE.RESTR>
0

>  <SCORE.RESTR.CAVITY>
0

>  <SCORE.RESTR.norm>
0

>  <SCORE.SYSTEM>
0

>  <SCORE.SYSTEM.CONST>
0

>  <SCORE.SYSTEM.DIHEDRAL>
0

>  <SCORE.SYSTEM.SOLV>
0

>  <SCORE.SYSTEM.norm>
0

>  <SCORE.heavy>
18

>  <SCORE.norm>
-1.12362

>  <RMSD>
3.267

$$$$
lig.pdb
 OpenBabel11021811503D
libRbt.so/2013.1/901 2013/11/27
 18 19  0  0  0  0  0  0  0  0999 V2000
  -14.4756   14.5628    3.4682 C   0  0  0  0  0  0  0  0  0  0  0  0
  -11.4104   11.1094    1.9813 N   0  0  0  0  0  0  0  0  0  0  0  0
   -7.7837   14.9865    3.6621 C   0  0  0  0  0  0  0  0  0  0  0  0
   -7.8862   18.0999    1.9407 O   0  0  0  0  0  0  0  0  0  0  0  0
   -6.5149   18.0993    1.5685 C   0  0  0  0  0  0  0  0  0  0  0  0
   -5.8374   16.7952    2.0324 C   0  0  0  0  0  0  0  0  0  0  0  0
   -7.8716   13.7125    0.1434 C   0  0  0  0  0  0  0  0  0  0  0  0
   -6.7432   14.9991   -0.1312 S   0  0  0  0  0  0  0  0  0  0  0  0
   -6.6674   15.6359    1.5269 C   0  0  0  0  0  0  0  0  0  0  0  0
   -7.5395   14.7962    2.1744 C   0  0  0  0  0  0  0  0  0  0  0  0
   -8.1462   13.8161    1.4374 N   0  0  0  0  0  0  0  0  0  0  0  0
   -9.1015   12.8376    2.0684 C   0  0  0  0  0  0  0  0  0  0  0  0
  -11.6097   12.4331    2.3732 C   0  0  0  0  0  0  0  0  0  0  0  0
  -12.8652   12.8614    2.7081 N   0  0  0  0  0  0  0  0  0  0  0  0
  -13.0816   14.1232    3.0886 C   0  0  0  0  0  0  0  0  0  0  0  0
  -12.0737   14.9985    3.1476 N   0  0  0  0  0  0  0  0  0  0  0  0
  -10.8004   14.6449    2.8333 C   0  0  0  0  0  0  0  0  0  0  0  0
  -10.5093   13.3358    2.4337 C   0  0  0  0  0  0  0  0  0  0  0  0
  5  4  1  0  0  0  0
  5  6  1  0  0  0  0
  7  8  2  0  0  0  0
  7 11  1  0  0  0  0
  8  9  1  0  0  0  0
  9 10  2  0  0  0  0
  9  6  1  0  0  0  0
 10  3  1  0  0  0  0
 11 12  1  0  0  0  0
 11 10  1  0  0  0  0
 12 18  1  0  0  0  0
 13  2  1  0  0  0  0
 13 14  2  0  0  0  0
 15 14  1  0  0  0  0
 15  1  1  0  0  0  0
 16 15  2  0  0  0  0
 17 18  2  0  0  0  0
 17 16  1  0  0  0  0
 18 13  1  0  0  0  0
M  END
>  <CHROM.1>
52.17640628,75.93680329,-106.34934628,148.13483664,-9.29256525,14.62839442
1.98802108,2.81468645,-0.38872064,-2.82108622

>  <Name>
lig.pdb

>  <RI>
0

>  <Rbt.Current_Directory>
/home/itssahil/PROJECTS/Mol_Feturizer/New_Systems/rnas/4nyg

>  <Rbt.Executable>
rbdock ($Id: //depot/dev/client3/rdock/2013.1/src/exe/rbdock.cxx#4 $)

>  <Rbt.Library>
libRbt.so (2013.1, Build901 2013/11/27)

>  <Rbt.Parameter_File>
/export/apps/rDock/src/rDock_2013.1_src/data/scripts/dock_solv.prm

>  <Rbt.Receptor>
prm/blind_docking_20.prm

>  <SCORE>
-15.3941

>  <SCORE.INTER>
-16.9331

>  <SCORE.INTER.CONST>
1

>  <SCORE.INTER.POLAR>
0

>  <SCORE.INTER.ROT>
4

>  <SCORE.INTER.SOLV>
14.5209

>  <SCORE.INTER.VDW>
-22.3957

>  <SCORE.INTER.norm>
-0.94073

>  <SCORE.INTRA>
0.305288

>  <SCORE.INTRA.DIHEDRAL>
0.537801

>  <SCORE.INTRA.DIHEDRAL.0>
3.20029

>  <SCORE.INTRA.POLAR>
0

>  <SCORE.INTRA.POLAR.0>
0

>  <SCORE.INTRA.REPUL>
0

>  <SCORE.INTRA.REPUL.0>
0

>  <SCORE.INTRA.SOLV>
0.686215

>  <SCORE.INTRA.SOLV.lig_0>
-19.3885

>  <SCORE.INTRA.VDW>
-0.30672

>  <SCORE.INTRA.VDW.0>
-1.12705

>  <SCORE.INTRA.norm>
0.0169604

>  <SCORE.RESTR>
1.23371

>  <SCORE.RESTR.CAVITY>
1.23371

>  <SCORE.RESTR.norm>
0.0685394

>  <SCORE.SYSTEM>
0

>  <SCORE.SYSTEM.CONST>
0

>  <SCORE.SYSTEM.DIHEDRAL>
0

>  <SCORE.SYSTEM.SOLV>
0

>  <SCORE.SYSTEM.norm>
0

>  <SCORE.heavy>
18

>  <SCORE.norm>
-0.85523

>  <RMSD>
3.274

$$$$
lig.pdb
 OpenBabel11021811503D
libRbt.so/2013.1/901 2013/11/27
 18 19  0  0  0  0  0  0  0  0999 V2000
  -14.6456   16.0784    3.5300 C   0  0  0  0  0  0  0  0  0  0  0  0
  -12.2492   12.0235    2.3695 N   0  0  0  0  0  0  0  0  0  0  0  0
   -7.2213   14.7617    3.3037 C   0  0  0  0  0  0  0  0  0  0  0  0
   -6.5910   17.9404    0.9885 O   0  0  0  0  0  0  0  0  0  0  0  0
   -5.6108   17.1767    0.2993 C   0  0  0  0  0  0  0  0  0  0  0  0
   -5.4204   15.8102    0.9857 C   0  0  0  0  0  0  0  0  0  0  0  0
   -8.9154   13.7486    0.1233 C   0  0  0  0  0  0  0  0  0  0  0  0
   -7.5649   14.5510   -0.6090 S   0  0  0  0  0  0  0  0  0  0  0  0
   -6.7237   15.0500    0.8755 C   0  0  0  0  0  0  0  0  0  0  0  0
   -7.5684   14.5564    1.8387 C   0  0  0  0  0  0  0  0  0  0  0  0
   -8.6898   13.8919    1.4230 N   0  0  0  0  0  0  0  0  0  0  0  0
   -9.6618   13.2997    2.4092 C   0  0  0  0  0  0  0  0  0  0  0  0
  -12.2063   13.3857    2.6658 C   0  0  0  0  0  0  0  0  0  0  0  0
  -13.3660   14.0602    2.9338 N   0  0  0  0  0  0  0  0  0  0  0  0
  -13.3511   15.3642    3.2223 C   0  0  0  0  0  0  0  0  0  0  0  0
  -12.1996   16.0413    3.2525 N   0  0  0  0  0  0  0  0  0  0  0  0
  -11.0088   15.4382    3.0005 C   0  0  0  0  0  0  0  0  0  0  0  0
  -10.9588   14.0728    2.6983 C   0  0  0  0  0  0  0  0  0  0  0  0
  5  4  1  0  0  0  0
  5  6  1  0  0  0  0
  7  8  2  0  0  0  0
  7 11  1  0  0  0  0
  8  9  1  0  0  0  0
  9 10  2  0  0  0  0
  9  6  1  0  0  0  0
 10  3  1  0  0  0  0
 11 12  1  0  0  0  0
 11 10  1  0  0  0  0
 12 18  1  0  0  0  0
 13  2  1  0  0  0  0
 13 14  2  0  0  0  0
 15 14  1  0  0  0  0
 15  1  1  0  0  0  0
 16 15  2  0  0  0  0
 17 18  2  0  0  0  0
 17 16  1  0  0  0  0
 18 13  1  0  0  0  0
M  END
>  <CHROM.1>
63.75037959,60.77176662,-79.92567933,131.44935115,-9.48439197,14.87067614
1.78029326,3.07362030,-0.39316680,-2.86911284

>  <Name>
lig.pdb

>  <RI>
0

>  <Rbt.Current_Directory>
/home/itssahil/PROJECTS/Mol_Feturizer/New_Systems/rnas/4nyg

>  <Rbt.Executable>
rbdock ($Id: //depot/dev/client3/rdock/2013.1/src/exe/rbdock.cxx#4 $)

>  <Rbt.Library>
libRbt.so (2013.1, Build901 2013/11/27)

>  <Rbt.Parameter_File>
/export/apps/rDock/src/rDock_2013.1_src/data/scripts/dock_solv.prm

>  <Rbt.Receptor>
prm/pocket_docking_3.prm

>  <SCORE>
-20.7095

>  <SCORE.INTER>
-20.2288

>  <SCORE.INTER.CONST>
1

>  <SCORE.INTER.POLAR>
0

>  <SCORE.INTER.ROT>
4

>  <SCORE.INTER.SOLV>
14.1877

>  <SCORE.INTER.VDW>
-24.4817

>  <SCORE.INTER.norm>
-1.12382

>  <SCORE.INTRA>
-0.480695

>  <SCORE.INTRA.DIHEDRAL>
-0.0817747

>  <SCORE.INTRA.DIHEDRAL.0>
3.20029

>  <SCORE.INTRA.POLAR>
0

>  <SCORE.INTRA.POLAR.0>
0

>  <SCORE.INTRA.REPUL>
0

>  <SCORE.INTRA.REPUL.0>
0

>  <SCORE.INTRA.SOLV>
0.541412

>  <SCORE.INTRA.SOLV.lig_0>
-19.3885

>  <SCORE.INTRA.VDW>
-0.710514

>  <SCORE.INTRA.VDW.0>
-1.12705

>  <SCORE.INTRA.norm>
-0.0267053

>  <SCORE.RESTR>
0

>  <SCORE.RESTR.CAVITY>
0

>  <SCORE.RESTR.norm>
0

>  <SCORE.SYSTEM>
0

>  <SCORE.SYSTEM.CONST>
0

>  <SCORE.SYSTEM.DIHEDRAL>
0

>  <SCORE.SYSTEM.SOLV>
0

>  <SCORE.SYSTEM.norm>
0

>  <SCORE.heavy>
18

>  <SCORE.norm>
-1.15053

>  <RMSD>
3.287

$$$$
lig.pdb
 OpenBabel11021811503D
libRbt.so/2013.1/901 2013/11/27
 18 19  0  0  0  0  0  0  0  0999 V2000
  -14.3388   16.4361    3.3811 C   0  0  0  0  0  0  0  0  0  0  0  0
  -12.6022   12.0463    2.2647 N   0  0  0  0  0  0  0  0  0  0  0  0
   -7.0866   11.7801    2.5143 C   0  0  0  0  0  0  0  0  0  0  0  0
   -2.8702   13.9045    0.4718 O   0  0  0  0  0  0  0  0  0  0  0  0
   -4.2504   14.1830    0.6625 C   0  0  0  0  0  0  0  0  0  0  0  0
   -5.0900   12.9161    0.4076 C   0  0  0  0  0  0  0  0  0  0  0  0
   -9.0159   14.2544    0.4729 C   0  0  0  0  0  0  0  0  0  0  0  0
   -7.5011   14.4474   -0.3468 S   0  0  0  0  0  0  0  0  0  0  0  0
   -6.5465   13.2795    0.5941 C   0  0  0  0  0  0  0  0  0  0  0  0
   -7.4852   12.8279    1.4885 C   0  0  0  0  0  0  0  0  0  0  0  0
   -8.7478   13.3480    1.4042 N   0  0  0  0  0  0  0  0  0  0  0  0
   -9.8459   12.8967    2.3308 C   0  0  0  0  0  0  0  0  0  0  0  0
  -12.3473   13.3862    2.5564 C   0  0  0  0  0  0  0  0  0  0  0  0
  -13.3885   14.2374    2.8078 N   0  0  0  0  0  0  0  0  0  0  0  0
  -13.1704   15.5241    3.0917 C   0  0  0  0  0  0  0  0  0  0  0  0
  -11.9265   16.0104    3.1332 N   0  0  0  0  0  0  0  0  0  0  0  0
  -10.8436   15.2249    2.8978 C   0  0  0  0  0  0  0  0  0  0  0  0
  -11.0071   13.8672    2.6014 C   0  0  0  0  0  0  0  0  0  0  0  0
  5  4  1  0  0  0  0
  5  6  1  0  0  0  0
  7  8  2  0  0  0  0
  7 11  1  0  0  0  0
  8  9  1  0  0  0  0
  9 10  2  0  0  0  0
  9  6  1  0  0  0  0
 10  3  1  0  0  0  0
 11 12  1  0  0  0  0
 11 10  1  0  0  0  0
 12 18  1  0  0  0  0
 13  2  1  0  0  0  0
 13 14  2  0  0  0  0
 15 14  1  0  0  0  0
 15  1  1  0  0  0  0
 16 15  2  0  0  0  0
 17 18  2  0  0  0  0
 17 16  1  0  0  0  0
 18 13  1  0  0  0  0
M  END
>  <CHROM.1>
-178.74225131,62.62193228,-26.30839036,134.27091905,-9.13760619,13.95733145
1.65957918,-3.04563349,-0.32088247,2.96391285

>  <Name>
lig.pdb

>  <RI>
0

>  <Rbt.Current_Directory>
/home/itssahil/PROJECTS/Mol_Feturizer/New_Systems/rnas/4nyg

>  <Rbt.Executable>
rbdock ($Id: //depot/dev/client3/rdock/2013.1/src/exe/rbdock.cxx#4 $)

>  <Rbt.Library>
libRbt.so (2013.1, Build901 2013/11/27)

>  <Rbt.Parameter_File>
/export/apps/rDock/src/rDock_2013.1_src/data/scripts/dock_solv.prm

>  <Rbt.Receptor>
prm/pocket_docking_8.prm

>  <SCORE>
-21.1437

>  <SCORE.INTER>
-21.2229

>  <SCORE.INTER.CONST>
1

>  <SCORE.INTER.POLAR>
0

>  <SCORE.INTER.ROT>
4

>  <SCORE.INTER.SOLV>
14.8062

>  <SCORE.INTER.VDW>
-25.3507

>  <SCORE.INTER.norm>
-1.17905

>  <SCORE.INTRA>
0.0792289

>  <SCORE.INTRA.DIHEDRAL>
0.00131836

>  <SCORE.INTRA.DIHEDRAL.0>
3.20029

>  <SCORE.INTRA.POLAR>
0

>  <SCORE.INTRA.POLAR.0>
0

>  <SCORE.INTRA.REPUL>
0

>  <SCORE.INTRA.REPUL.0>
0

>  <SCORE.INTRA.SOLV>
0.0296168

>  <SCORE.INTRA.SOLV.lig_0>
-19.3885

>  <SCORE.INTRA.VDW>
0.0637614

>  <SCORE.INTRA.VDW.0>
-1.12705

>  <SCORE.INTRA.norm>
0.00440161

>  <SCORE.RESTR>
0

>  <SCORE.RESTR.CAVITY>
0

>  <SCORE.RESTR.norm>
0

>  <SCORE.SYSTEM>
0

>  <SCORE.SYSTEM.CONST>
0

>  <SCORE.SYSTEM.DIHEDRAL>
0

>  <SCORE.SYSTEM.SOLV>
0

>  <SCORE.SYSTEM.norm>
0

>  <SCORE.heavy>
18

>  <SCORE.norm>
-1.17465

>  <RMSD>
3.317

$$$$
lig.pdb
 OpenBabel11021811503D
libRbt.so/2013.1/901 2013/11/27
 18 19  0  0  0  0  0  0  0  0999 V2000
  -14.3362   15.1622    3.6147 C   0  0  0  0  0  0  0  0  0  0  0  0
   -9.5232   15.1497    3.0084 N   0  0  0  0  0  0  0  0  0  0  0  0
   -6.4869   12.2313    2.5502 C   0  0  0  0  0  0  0  0  0  0  0  0
   -4.9351   16.2135   -0.2069 O   0  0  0  0  0  0  0  0  0  0  0  0
   -4.4300   15.3662    0.8158 C   0  0  0  0  0  0  0  0  0  0  0  0
   -4.8037   13.8996    0.5256 C   0  0  0  0  0  0  0  0  0  0  0  0
   -8.9447   13.9091    0.2795 C   0  0  0  0  0  0  0  0  0  0  0  0
   -7.5131   14.5591   -0.4498 S   0  0  0  0  0  0  0  0  0  0  0  0
   -6.3098   13.7807    0.6021 C   0  0  0  0  0  0  0  0  0  0  0  0
   -7.1202   13.0724    1.4545 C   0  0  0  0  0  0  0  0  0  0  0  0
   -8.4727   13.1579    1.2663 N   0  0  0  0  0  0  0  0  0  0  0  0
   -9.4362   12.3995    2.1406 C   0  0  0  0  0  0  0  0  0  0  0  0
  -10.7297   14.4521    2.9533 C   0  0  0  0  0  0  0  0  0  0  0  0
  -11.8955   15.0818    3.2946 N   0  0  0  0  0  0  0  0  0  0  0  0
  -13.0638   14.4362    3.2479 C   0  0  0  0  0  0  0  0  0  0  0  0
  -13.1192   13.1562    2.8687 N   0  0  0  0  0  0  0  0  0  0  0  0
  -12.0041   12.4671    2.5126 C   0  0  0  0  0  0  0  0  0  0  0  0
  -10.7516   13.0906    2.5348 C   0  0  0  0  0  0  0  0  0  0  0  0
  5  4  1  0  0  0  0
  5  6  1  0  0  0  0
  7  8  2  0  0  0  0
  7 11  1  0  0  0  0
  8  9  1  0  0  0  0
  9 10  2  0  0  0  0
  9  6  1  0  0  0  0
 10  3  1  0  0  0  0
 11 12  1  0  0  0  0
 11 10  1  0  0  0  0
 12 18  1  0  0  0  0
 13  2  1  0  0  0  0
 13 14  2  0  0  0  0
 15 14  1  0  0  0  0
 15  1  1  0  0  0  0
 16 15  2  0  0  0  0
 17 18  2  0  0  0  0
 17 16  1  0  0  0  0
 18 13  1  0  0  0  0
M  END
>  <CHROM.1>
-65.05148944,64.22345252,-39.03057659,-44.11853430,-8.94362834,14.04574084
1.66195754,2.98653533,-0.34248301,2.86914605

>  <Name>
lig.pdb

>  <RI>
0

>  <Rbt.Current_Directory>
/home/itssahil/PROJECTS/Mol_Feturizer/New_Systems/rnas/4nyg

>  <Rbt.Executable>
rbdock ($Id: //depot/dev/client3/rdock/2013.1/src/exe/rbdock.cxx#4 $)

>  <Rbt.Library>
libRbt.so (2013.1, Build901 2013/11/27)

>  <Rbt.Parameter_File>
/export/apps/rDock/src/rDock_2013.1_src/data/scripts/dock_solv.prm

>  <Rbt.Receptor>
prm/pocket_docking_3.prm

>  <SCORE>
-20.8479

>  <SCORE.INTER>
-21.1106

>  <SCORE.INTER.CONST>
1

>  <SCORE.INTER.POLAR>
0

>  <SCORE.INTER.ROT>
4

>  <SCORE.INTER.SOLV>
12.6208

>  <SCORE.INTER.VDW>
-24.5473

>  <SCORE.INTER.norm>
-1.17281

>  <SCORE.INTRA>
0.262709

>  <SCORE.INTRA.DIHEDRAL>
0.104471

>  <SCORE.INTRA.DIHEDRAL.0>
3.20029

>  <SCORE.INTRA.POLAR>
0

>  <SCORE.INTRA.POLAR.0>
0

>  <SCORE.INTRA.REPUL>
0

>  <SCORE.INTRA.REPUL.0>
0

>  <SCORE.INTRA.SOLV>
1.66559

>  <SCORE.INTRA.SOLV.lig_0>
-19.3885

>  <SCORE.INTRA.VDW>
-0.62232

>  <SCORE.INTRA.VDW.0>
-1.12705

>  <SCORE.INTRA.norm>
0.014595

>  <SCORE.RESTR>
0

>  <SCORE.RESTR.CAVITY>
0

>  <SCORE.RESTR.norm>
0

>  <SCORE.SYSTEM>
0

>  <SCORE.SYSTEM.CONST>
0

>  <SCORE.SYSTEM.DIHEDRAL>
0

>  <SCORE.SYSTEM.SOLV>
0

>  <SCORE.SYSTEM.norm>
0

>  <SCORE.heavy>
18

>  <SCORE.norm>
-1.15821

>  <RMSD>
3.328

$$$$
lig.pdb
 OpenBabel11021811503D
libRbt.so/2013.1/901 2013/11/27
 18 19  0  0  0  0  0  0  0  0999 V2000
  -14.2701   15.1785    3.5929 C   0  0  0  0  0  0  0  0  0  0  0  0
  -12.2995   11.1086    1.8364 N   0  0  0  0  0  0  0  0  0  0  0  0
   -6.7817   11.1222    2.1506 C   0  0  0  0  0  0  0  0  0  0  0  0
   -2.6234   13.8317    0.7211 O   0  0  0  0  0  0  0  0  0  0  0  0
   -4.0277   14.0095    0.8448 C   0  0  0  0  0  0  0  0  0  0  0  0
   -4.7677   12.7330    0.4000 C   0  0  0  0  0  0  0  0  0  0  0  0
   -8.7705   13.8187    0.4817 C   0  0  0  0  0  0  0  0  0  0  0  0
   -7.2352   14.2416   -0.2023 S   0  0  0  0  0  0  0  0  0  0  0  0
   -6.2516   12.9754    0.5657 C   0  0  0  0  0  0  0  0  0  0  0  0
   -7.1993   12.3167    1.3093 C   0  0  0  0  0  0  0  0  0  0  0  0
   -8.4877   12.7732    1.2483 N   0  0  0  0  0  0  0  0  0  0  0  0
   -9.5958   12.1002    2.0145 C   0  0  0  0  0  0  0  0  0  0  0  0
  -12.1180   12.4040    2.3205 C   0  0  0  0  0  0  0  0  0  0  0  0
  -13.2029   13.1468    2.6988 N   0  0  0  0  0  0  0  0  0  0  0  0
  -13.0552   14.3887    3.1676 C   0  0  0  0  0  0  0  0  0  0  0  0
  -11.8408   14.9356    3.2745 N   0  0  0  0  0  0  0  0  0  0  0  0
  -10.7178   14.2579    2.9216 C   0  0  0  0  0  0  0  0  0  0  0  0
  -10.8071   12.9509    2.4298 C   0  0  0  0  0  0  0  0  0  0  0  0
  5  4  1  0  0  0  0
  5  6  1  0  0  0  0
  7  8  2  0  0  0  0
  7 11  1  0  0  0  0
  8  9  1  0  0  0  0
  9 10  2  0  0  0  0
  9  6  1  0  0  0  0
 10  3  1  0  0  0  0
 11 12  1  0  0  0  0
 11 10  1  0  0  0  0
 12 18  1  0  0  0  0
 13  2  1  0  0  0  0
 13 14  2  0  0  0  0
 15 14  1  0  0  0  0
 15  1  1  0  0  0  0
 16 15  2  0  0  0  0
 17 18  2  0  0  0  0
 17 16  1  0  0  0  0
 18 13  1  0  0  0  0
M  END
>  <CHROM.1>
179.45387866,59.17765790,-28.31324392,138.82360947,-8.91164881,13.31406646
1.62362678,-3.10538048,-0.28350348,3.12349768

>  <Name>
lig.pdb

>  <RI>
0

>  <Rbt.Current_Directory>
/home/itssahil/PROJECTS/Mol_Feturizer/New_Systems/rnas/4nyg

>  <Rbt.Executable>
rbdock ($Id: //depot/dev/client3/rdock/2013.1/src/exe/rbdock.cxx#4 $)

>  <Rbt.Library>
libRbt.so (2013.1, Build901 2013/11/27)

>  <Rbt.Parameter_File>
/export/apps/rDock/src/rDock_2013.1_src/data/scripts/dock_solv.prm

>  <Rbt.Receptor>
prm/pocket_docking_5.prm

>  <SCORE>
-21.7143

>  <SCORE.INTER>
-21.8345

>  <SCORE.INTER.CONST>
1

>  <SCORE.INTER.POLAR>
0

>  <SCORE.INTER.ROT>
4

>  <SCORE.INTER.SOLV>
16.2915

>  <SCORE.INTER.VDW>
-26.2535

>  <SCORE.INTER.norm>
-1.21303

>  <SCORE.INTRA>
0.120254

>  <SCORE.INTRA.DIHEDRAL>
-0.0115145

>  <SCORE.INTRA.DIHEDRAL.0>
3.20029

>  <SCORE.INTRA.POLAR>
0

>  <SCORE.INTRA.POLAR.0>
0

>  <SCORE.INTRA.REPUL>
0

>  <SCORE.INTRA.REPUL.0>
0

>  <SCORE.INTRA.SOLV>
0.0252811

>  <SCORE.INTRA.SOLV.lig_0>
-19.3885

>  <SCORE.INTRA.VDW>
0.113371

>  <SCORE.INTRA.VDW.0>
-1.12705

>  <SCORE.INTRA.norm>
0.00668078

>  <SCORE.RESTR>
0

>  <SCORE.RESTR.CAVITY>
0

>  <SCORE.RESTR.norm>
0

>  <SCORE.SYSTEM>
0

>  <SCORE.SYSTEM.CONST>
0

>  <SCORE.SYSTEM.DIHEDRAL>
0

>  <SCORE.SYSTEM.SOLV>
0

>  <SCORE.SYSTEM.norm>
0

>  <SCORE.heavy>
18

>  <SCORE.norm>
-1.20635

>  <RMSD>
3.332

$$$$
lig.pdb
 OpenBabel11021811503D
libRbt.so/2013.1/901 2013/11/27
 18 19  0  0  0  0  0  0  0  0999 V2000
  -14.2687   15.1783    3.5797 C   0  0  0  0  0  0  0  0  0  0  0  0
  -12.2896   11.1081    1.8336 N   0  0  0  0  0  0  0  0  0  0  0  0
   -6.7718   11.1269    2.1469 C   0  0  0  0  0  0  0  0  0  0  0  0
   -2.6205   13.8206    0.7158 O   0  0  0  0  0  0  0  0  0  0  0  0
   -4.0233   13.9889    0.8677 C   0  0  0  0  0  0  0  0  0  0  0  0
   -4.7670   12.7306    0.3794 C   0  0  0  0  0  0  0  0  0  0  0  0
   -8.7703   13.8137    0.4739 C   0  0  0  0  0  0  0  0  0  0  0  0
   -7.2383   14.2344   -0.2191 S   0  0  0  0  0  0  0  0  0  0  0  0
   -6.2503   12.9726    0.5506 C   0  0  0  0  0  0  0  0  0  0  0  0
   -7.1942   12.3169    1.3017 C   0  0  0  0  0  0  0  0  0  0  0  0
   -8.4831   12.7722    1.2443 N   0  0  0  0  0  0  0  0  0  0  0  0
   -9.5873   12.1020    2.0188 C   0  0  0  0  0  0  0  0  0  0  0  0
  -12.1106   12.4042    2.3168 C   0  0  0  0  0  0  0  0  0  0  0  0
  -13.1972   13.1465    2.6911 N   0  0  0  0  0  0  0  0  0  0  0  0
  -13.0519   14.3890    3.1589 C   0  0  0  0  0  0  0  0  0  0  0  0
  -11.8383   14.9370    3.2690 N   0  0  0  0  0  0  0  0  0  0  0  0
  -10.7137   14.2598    2.9202 C   0  0  0  0  0  0  0  0  0  0  0  0
  -10.8005   12.9522    2.4295 C   0  0  0  0  0  0  0  0  0  0  0  0
  5  4  1  0  0  0  0
  5  6  1  0  0  0  0
  7  8  2  0  0  0  0
  7 11  1  0  0  0  0
  8  9  1  0  0  0  0
  9 10  2  0  0  0  0
  9  6  1  0  0  0  0
 10  3  1  0  0  0  0
 11 12  1  0  0  0  0
 11 10  1  0  0  0  0
 12 18  1  0  0  0  0
 13  2  1  0  0  0  0
 13 14  2  0  0  0  0
 15 14  1  0  0  0  0
 15  1  1  0  0  0  0
 16 15  2  0  0  0  0
 17 18  2  0  0  0  0
 17 16  1  0  0  0  0
 18 13  1  0  0  0  0
M  END
>  <CHROM.1>
-179.39565962,61.41208080,-28.02343597,138.27546876,-8.90797728,13.31141001
1.61748374,-3.10470688,-0.28354651,3.12074107

>  <Name>
lig.pdb

>  <RI>
0

>  <Rbt.Current_Directory>
/home/itssahil/PROJECTS/Mol_Feturizer/New_Systems/rnas/4nyg

>  <Rbt.Executable>
rbdock ($Id: //depot/dev/client3/rdock/2013.1/src/exe/rbdock.cxx#4 $)

>  <Rbt.Library>
libRbt.so (2013.1, Build901 2013/11/27)

>  <Rbt.Parameter_File>
/export/apps/rDock/src/rDock_2013.1_src/data/scripts/dock_solv.prm

>  <Rbt.Receptor>
prm/pocket_docking_6.prm

>  <SCORE>
-21.7237

>  <SCORE.INTER>
-21.8257

>  <SCORE.INTER.CONST>
1

>  <SCORE.INTER.POLAR>
0

>  <SCORE.INTER.ROT>
4

>  <SCORE.INTER.SOLV>
16.3256

>  <SCORE.INTER.VDW>
-26.259

>  <SCORE.INTER.norm>
-1.21254

>  <SCORE.INTRA>
0.102018

>  <SCORE.INTRA.DIHEDRAL>
-0.0103713

>  <SCORE.INTRA.DIHEDRAL.0>
3.20029

>  <SCORE.INTRA.POLAR>
0

>  <SCORE.INTRA.POLAR.0>
0

>  <SCORE.INTRA.REPUL>
0

>  <SCORE.INTRA.REPUL.0>
0

>  <SCORE.INTRA.SOLV>
0.0264348

>  <SCORE.INTRA.SOLV.lig_0>
-19.3885

>  <SCORE.INTRA.VDW>
0.0939865

>  <SCORE.INTRA.VDW.0>
-1.12705

>  <SCORE.INTRA.norm>
0.00566768

>  <SCORE.RESTR>
0

>  <SCORE.RESTR.CAVITY>
0

>  <SCORE.RESTR.norm>
0

>  <SCORE.SYSTEM>
0

>  <SCORE.SYSTEM.CONST>
0

>  <SCORE.SYSTEM.DIHEDRAL>
0

>  <SCORE.SYSTEM.SOLV>
0

>  <SCORE.SYSTEM.norm>
0

>  <SCORE.heavy>
18

>  <SCORE.norm>
-1.20687

>  <RMSD>
3.332

$$$$
lig.pdb
 OpenBabel11021811503D
libRbt.so/2013.1/901 2013/11/27
 18 19  0  0  0  0  0  0  0  0999 V2000
  -14.6821   16.0278    3.7051 C   0  0  0  0  0  0  0  0  0  0  0  0
  -11.8191   12.1362    3.2677 N   0  0  0  0  0  0  0  0  0  0  0  0
   -7.5443   15.9045    3.2418 C   0  0  0  0  0  0  0  0  0  0  0  0
   -5.5026   19.0690   -0.0680 O   0  0  0  0  0  0  0  0  0  0  0  0
   -6.4848   18.0551    0.0934 C   0  0  0  0  0  0  0  0  0  0  0  0
   -5.8683   16.8200    0.7785 C   0  0  0  0  0  0  0  0  0  0  0  0
   -8.6531   13.7724    0.3719 C   0  0  0  0  0  0  0  0  0  0  0  0
   -7.4869   14.7080   -0.5048 S   0  0  0  0  0  0  0  0  0  0  0  0
   -6.9271   15.7408    0.8295 C   0  0  0  0  0  0  0  0  0  0  0  0
   -7.7021   15.2807    1.8652 C   0  0  0  0  0  0  0  0  0  0  0  0
   -8.5830   14.2678    1.6008 N   0  0  0  0  0  0  0  0  0  0  0  0
   -9.4583   13.6874    2.6802 C   0  0  0  0  0  0  0  0  0  0  0  0
  -11.9541   13.5236    3.2200 C   0  0  0  0  0  0  0  0  0  0  0  0
  -13.1733   14.0968    3.4587 N   0  0  0  0  0  0  0  0  0  0  0  0
  -13.3278   15.4229    3.4212 C   0  0  0  0  0  0  0  0  0  0  0  0
  -12.2924   16.2211    3.1455 N   0  0  0  0  0  0  0  0  0  0  0  0
  -11.0519   15.7243    2.9012 C   0  0  0  0  0  0  0  0  0  0  0  0
  -10.8254   14.3438    2.9325 C   0  0  0  0  0  0  0  0  0  0  0  0
  5  4  1  0  0  0  0
  5  6  1  0  0  0  0
  7  8  2  0  0  0  0
  7 11  1  0  0  0  0
  8  9  1  0  0  0  0
  9 10  2  0  0  0  0
  9  6  1  0  0  0  0
 10  3  1  0  0  0  0
 11 12  1  0  0  0  0
 11 10  1  0  0  0  0
 12 18  1  0  0  0  0
 13  2  1  0  0  0  0
 13 14  2  0  0  0  0
 15 14  1  0  0  0  0
 15  1  1  0  0  0  0
 16 15  2  0  0  0  0
 17 18  2  0  0  0  0
 17 16  1  0  0  0  0
 18 13  1  0  0  0  0
M  END
>  <CHROM.1>
-175.82665383,76.11770122,-92.56961012,140.83929142,-9.44071256,15.28219263
1.85897101,2.88146029,-0.47176808,-3.06643618

>  <Name>
lig.pdb

>  <RI>
0

>  <Rbt.Current_Directory>
/home/itssahil/PROJECTS/Mol_Feturizer/New_Systems/rnas/4nyg

>  <Rbt.Executable>
rbdock ($Id: //depot/dev/client3/rdock/2013.1/src/exe/rbdock.cxx#4 $)

>  <Rbt.Library>
libRbt.so (2013.1, Build901 2013/11/27)

>  <Rbt.Parameter_File>
/export/apps/rDock/src/rDock_2013.1_src/data/scripts/dock_solv.prm

>  <Rbt.Receptor>
prm/pocket_docking_3.prm

>  <SCORE>
-20.2501

>  <SCORE.INTER>
-19.8279

>  <SCORE.INTER.CONST>
1

>  <SCORE.INTER.POLAR>
0

>  <SCORE.INTER.ROT>
4

>  <SCORE.INTER.SOLV>
14.8481

>  <SCORE.INTER.VDW>
-24.4346

>  <SCORE.INTER.norm>
-1.10155

>  <SCORE.INTRA>
-0.422244

>  <SCORE.INTRA.DIHEDRAL>
0.363531

>  <SCORE.INTRA.DIHEDRAL.0>
3.20029

>  <SCORE.INTRA.POLAR>
0

>  <SCORE.INTRA.POLAR.0>
0

>  <SCORE.INTRA.REPUL>
0

>  <SCORE.INTRA.REPUL.0>
0

>  <SCORE.INTRA.SOLV>
-0.0106902

>  <SCORE.INTRA.SOLV.lig_0>
-19.3885

>  <SCORE.INTRA.VDW>
-0.598664

>  <SCORE.INTRA.VDW.0>
-1.12705

>  <SCORE.INTRA.norm>
-0.023458

>  <SCORE.RESTR>
4.64916e-05

>  <SCORE.RESTR.CAVITY>
4.64916e-05

>  <SCORE.RESTR.norm>
2.58287e-06

>  <SCORE.SYSTEM>
0

>  <SCORE.SYSTEM.CONST>
0

>  <SCORE.SYSTEM.DIHEDRAL>
0

>  <SCORE.SYSTEM.SOLV>
0

>  <SCORE.SYSTEM.norm>
0

>  <SCORE.heavy>
18

>  <SCORE.norm>
-1.12501

>  <RMSD>
3.335

$$$$
lig.pdb
 OpenBabel11021811503D
libRbt.so/2013.1/901 2013/11/27
 18 19  0  0  0  0  0  0  0  0999 V2000
  -14.6994   15.8093    3.8893 C   0  0  0  0  0  0  0  0  0  0  0  0
  -12.0800   12.0212    2.3658 N   0  0  0  0  0  0  0  0  0  0  0  0
   -8.2582   14.7580   -0.4090 C   0  0  0  0  0  0  0  0  0  0  0  0
   -5.2411   18.0550    2.0049 O   0  0  0  0  0  0  0  0  0  0  0  0
   -5.7208   17.8522    0.6829 C   0  0  0  0  0  0  0  0  0  0  0  0
   -5.6835   16.3533    0.3265 C   0  0  0  0  0  0  0  0  0  0  0  0
   -7.9339   14.5609    3.3150 C   0  0  0  0  0  0  0  0  0  0  0  0
   -6.5094   15.5073    3.0338 S   0  0  0  0  0  0  0  0  0  0  0  0
   -6.6249   15.6300    1.2640 C   0  0  0  0  0  0  0  0  0  0  0  0
   -7.7700   14.9125    1.0217 C   0  0  0  0  0  0  0  0  0  0  0  0
   -8.4227   14.3721    2.0959 N   0  0  0  0  0  0  0  0  0  0  0  0
   -9.6968   13.5872    1.9264 C   0  0  0  0  0  0  0  0  0  0  0  0
  -12.1479   13.3883    2.6336 C   0  0  0  0  0  0  0  0  0  0  0  0
  -13.3141   13.9333    3.0971 N   0  0  0  0  0  0  0  0  0  0  0  0
  -13.4038   15.2391    3.3631 C   0  0  0  0  0  0  0  0  0  0  0  0
  -12.3539   16.0448    3.1785 N   0  0  0  0  0  0  0  0  0  0  0  0
  -11.1631   15.5748    2.7244 C   0  0  0  0  0  0  0  0  0  0  0  0
  -11.0050   14.2151    2.4342 C   0  0  0  0  0  0  0  0  0  0  0  0
  5  4  1  0  0  0  0
  5  6  1  0  0  0  0
  7  8  2  0  0  0  0
  7 11  1  0  0  0  0
  8  9  1  0  0  0  0
  9 10  2  0  0  0  0
  9  6  1  0  0  0  0
 10  3  1  0  0  0  0
 11 12  1  0  0  0  0
 11 10  1  0  0  0  0
 12 18  1  0  0  0  0
 13  2  1  0  0  0  0
 13 14  2  0  0  0  0
 15 14  1  0  0  0  0
 15  1  1  0  0  0  0
 16 15  2  0  0  0  0
 17 18  2  0  0  0  0
 17 16  1  0  0  0  0
 18 13  1  0  0  0  0
M  END
>  <CHROM.1>
63.07812205,-62.49427785,68.83936891,-162.82125075,-9.30507501,15.16921643
2.21317654,2.95194491,-0.30063810,-2.83029892

>  <Name>
lig.pdb

>  <RI>
0

>  <Rbt.Current_Directory>
/home/itssahil/PROJECTS/Mol_Feturizer/New_Systems/rnas/4nyg

>  <Rbt.Executable>
rbdock ($Id: //depot/dev/client3/rdock/2013.1/src/exe/rbdock.cxx#4 $)

>  <Rbt.Library>
libRbt.so (2013.1, Build901 2013/11/27)

>  <Rbt.Parameter_File>
/export/apps/rDock/src/rDock_2013.1_src/data/scripts/dock_solv.prm

>  <Rbt.Receptor>
prm/pocket_docking_3.prm

>  <SCORE>
-19.6616

>  <SCORE.INTER>
-19.4269

>  <SCORE.INTER.CONST>
1

>  <SCORE.INTER.POLAR>
0

>  <SCORE.INTER.ROT>
4

>  <SCORE.INTER.SOLV>
13.9992

>  <SCORE.INTER.VDW>
-23.8843

>  <SCORE.INTER.norm>
-1.07927

>  <SCORE.INTRA>
-0.234683

>  <SCORE.INTRA.DIHEDRAL>
-0.00117818

>  <SCORE.INTRA.DIHEDRAL.0>
3.20029

>  <SCORE.INTRA.POLAR>
0

>  <SCORE.INTRA.POLAR.0>
0

>  <SCORE.INTRA.REPUL>
0

>  <SCORE.INTRA.REPUL.0>
0

>  <SCORE.INTRA.SOLV>
0.411091

>  <SCORE.INTRA.SOLV.lig_0>
-19.3885

>  <SCORE.INTRA.VDW>
-0.439639

>  <SCORE.INTRA.VDW.0>
-1.12705

>  <SCORE.INTRA.norm>
-0.0130379

>  <SCORE.RESTR>
0

>  <SCORE.RESTR.CAVITY>
0

>  <SCORE.RESTR.norm>
0

>  <SCORE.SYSTEM>
0

>  <SCORE.SYSTEM.CONST>
0

>  <SCORE.SYSTEM.DIHEDRAL>
0

>  <SCORE.SYSTEM.SOLV>
0

>  <SCORE.SYSTEM.norm>
0

>  <SCORE.heavy>
18

>  <SCORE.norm>
-1.09231

>  <RMSD>
3.342

$$$$
lig.pdb
 OpenBabel11021811503D
libRbt.so/2013.1/901 2013/11/27
 18 19  0  0  0  0  0  0  0  0999 V2000
  -14.7489   15.7437    3.8917 C   0  0  0  0  0  0  0  0  0  0  0  0
  -11.4907   12.3844    2.6144 N   0  0  0  0  0  0  0  0  0  0  0  0
   -8.9587   16.3212   -0.0491 C   0  0  0  0  0  0  0  0  0  0  0  0
   -4.2876   17.8112    1.0275 O   0  0  0  0  0  0  0  0  0  0  0  0
   -5.2104   17.9279   -0.0467 C   0  0  0  0  0  0  0  0  0  0  0  0
   -6.6078   18.2958    0.4888 C   0  0  0  0  0  0  0  0  0  0  0  0
   -7.5079   15.3431    3.2600 C   0  0  0  0  0  0  0  0  0  0  0  0
   -6.4240   16.6571    2.9400 S   0  0  0  0  0  0  0  0  0  0  0  0
   -7.0823   17.1589    1.3667 C   0  0  0  0  0  0  0  0  0  0  0  0
   -8.1012   16.2533    1.2035 C   0  0  0  0  0  0  0  0  0  0  0  0
   -8.2967   15.3289    2.1931 N   0  0  0  0  0  0  0  0  0  0  0  0
   -9.4028   14.3104    2.1082 C   0  0  0  0  0  0  0  0  0  0  0  0
  -11.7969   13.7321    2.8022 C   0  0  0  0  0  0  0  0  0  0  0  0
  -13.0479   14.0931    3.2223 N   0  0  0  0  0  0  0  0  0  0  0  0
  -13.3649   15.3767    3.4116 C   0  0  0  0  0  0  0  0  0  0  0  0
  -12.4652   16.3395    3.1910 N   0  0  0  0  0  0  0  0  0  0  0  0
  -11.2029   16.0571    2.7761 C   0  0  0  0  0  0  0  0  0  0  0  0
  -10.8088   14.7309    2.5663 C   0  0  0  0  0  0  0  0  0  0  0  0
  5  4  1  0  0  0  0
  5  6  1  0  0  0  0
  7  8  2  0  0  0  0
  7 11  1  0  0  0  0
  8  9  1  0  0  0  0
  9 10  2  0  0  0  0
  9  6  1  0  0  0  0
 10  3  1  0  0  0  0
 11 12  1  0  0  0  0
 11 10  1  0  0  0  0
 12 18  1  0  0  0  0
 13  2  1  0  0  0  0
 13 14  2  0  0  0  0
 15 14  1  0  0  0  0
 15  1  1  0  0  0  0
 16 15  2  0  0  0  0
 17 18  2  0  0  0  0
 17 16  1  0  0  0  0
 18 13  1  0  0  0  0
M  END
>  <CHROM.1>
-63.19519882,68.00559696,95.31024455,-165.20734479,-9.22952973,15.86182374
2.19692306,2.72913904,-0.15356878,2.83308526

>  <Name>
lig.pdb

>  <RI>
0

>  <Rbt.Current_Directory>
/home/itssahil/PROJECTS/Mol_Feturizer/New_Systems/rnas/4nyg

>  <Rbt.Executable>
rbdock ($Id: //depot/dev/client3/rdock/2013.1/src/exe/rbdock.cxx#4 $)

>  <Rbt.Library>
libRbt.so (2013.1, Build901 2013/11/27)

>  <Rbt.Parameter_File>
/export/apps/rDock/src/rDock_2013.1_src/data/scripts/dock_solv.prm

>  <Rbt.Receptor>
prm/pocket_docking_3.prm

>  <SCORE>
-20.2225

>  <SCORE.INTER>
-19.8464

>  <SCORE.INTER.CONST>
1

>  <SCORE.INTER.POLAR>
0

>  <SCORE.INTER.ROT>
4

>  <SCORE.INTER.SOLV>
12.6836

>  <SCORE.INTER.VDW>
-23.7255

>  <SCORE.INTER.norm>
-1.10258

>  <SCORE.INTRA>
-0.393336

>  <SCORE.INTRA.DIHEDRAL>
0.131914

>  <SCORE.INTRA.DIHEDRAL.0>
3.20029

>  <SCORE.INTRA.POLAR>
0

>  <SCORE.INTRA.POLAR.0>
0

>  <SCORE.INTRA.REPUL>
0

>  <SCORE.INTRA.REPUL.0>
0

>  <SCORE.INTRA.SOLV>
0.405142

>  <SCORE.INTRA.SOLV.lig_0>
-19.3885

>  <SCORE.INTRA.VDW>
-0.661864

>  <SCORE.INTRA.VDW.0>
-1.12705

>  <SCORE.INTRA.norm>
-0.021852

>  <SCORE.RESTR>
0.0172566

>  <SCORE.RESTR.CAVITY>
0.0172566

>  <SCORE.RESTR.norm>
0.000958701

>  <SCORE.SYSTEM>
0

>  <SCORE.SYSTEM.CONST>
0

>  <SCORE.SYSTEM.DIHEDRAL>
0

>  <SCORE.SYSTEM.SOLV>
0

>  <SCORE.SYSTEM.norm>
0

>  <SCORE.heavy>
18

>  <SCORE.norm>
-1.12347

>  <RMSD>
3.346

$$$$
lig.pdb
 OpenBabel11021811503D
libRbt.so/2013.1/901 2013/11/27
 18 19  0  0  0  0  0  0  0  0999 V2000
  -14.3075   15.5467    3.6489 C   0  0  0  0  0  0  0  0  0  0  0  0
   -9.5156   15.1359    3.0160 N   0  0  0  0  0  0  0  0  0  0  0  0
   -6.7431   11.8402    2.4831 C   0  0  0  0  0  0  0  0  0  0  0  0
   -2.9530   14.8110    0.6231 O   0  0  0  0  0  0  0  0  0  0  0  0
   -4.3689   14.8047    0.7429 C   0  0  0  0  0  0  0  0  0  0  0  0
   -4.9192   13.3885    0.4852 C   0  0  0  0  0  0  0  0  0  0  0  0
   -9.0331   13.9078    0.3634 C   0  0  0  0  0  0  0  0  0  0  0  0
   -7.5512   14.4149   -0.3788 S   0  0  0  0  0  0  0  0  0  0  0  0
   -6.4263   13.4481    0.6013 C   0  0  0  0  0  0  0  0  0  0  0  0
   -7.2958   12.8026    1.4452 C   0  0  0  0  0  0  0  0  0  0  0  0
   -8.6321   13.0592    1.3013 N   0  0  0  0  0  0  0  0  0  0  0  0
   -9.6591   12.3813    2.1695 C   0  0  0  0  0  0  0  0  0  0  0  0
  -10.7754   14.5389    2.9731 C   0  0  0  0  0  0  0  0  0  0  0  0
  -11.8836   15.2644    3.3159 N   0  0  0  0  0  0  0  0  0  0  0  0
  -13.1011   14.7163    3.2809 C   0  0  0  0  0  0  0  0  0  0  0  0
  -13.2634   13.4423    2.9122 N   0  0  0  0  0  0  0  0  0  0  0  0
  -12.2106   12.6616    2.5553 C   0  0  0  0  0  0  0  0  0  0  0  0
  -10.9111   13.1807    2.5656 C   0  0  0  0  0  0  0  0  0  0  0  0
  5  4  1  0  0  0  0
  5  6  1  0  0  0  0
  7  8  2  0  0  0  0
  7 11  1  0  0  0  0
  8  9  1  0  0  0  0
  9 10  2  0  0  0  0
  9  6  1  0  0  0  0
 10  3  1  0  0  0  0
 11 12  1  0  0  0  0
 11 10  1  0  0  0  0
 12 18  1  0  0  0  0
 13  2  1  0  0  0  0
 13 14  2  0  0  0  0
 15 14  1  0  0  0  0
 15  1  1  0  0  0  0
 16 15  2  0  0  0  0
 17 18  2  0  0  0  0
 17 16  1  0  0  0  0
 18 13  1  0  0  0  0
M  END
>  <CHROM.1>
-179.00101674,60.76350909,-35.54101945,-43.19066373,-8.90954204,13.90582033
1.73023762,-3.13425234,-0.32678584,3.03068652

>  <Name>
lig.pdb

>  <RI>
0

>  <Rbt.Current_Directory>
/home/itssahil/PROJECTS/Mol_Feturizer/New_Systems/rnas/4nyg

>  <Rbt.Executable>
rbdock ($Id: //depot/dev/client3/rdock/2013.1/src/exe/rbdock.cxx#4 $)

>  <Rbt.Library>
libRbt.so (2013.1, Build901 2013/11/27)

>  <Rbt.Parameter_File>
/export/apps/rDock/src/rDock_2013.1_src/data/scripts/dock_solv.prm

>  <Rbt.Receptor>
prm/pocket_docking_5.prm

>  <SCORE>
-21.074

>  <SCORE.INTER>
-21.3434

>  <SCORE.INTER.CONST>
1

>  <SCORE.INTER.POLAR>
0

>  <SCORE.INTER.ROT>
4

>  <SCORE.INTER.SOLV>
12.7208

>  <SCORE.INTER.VDW>
-24.7359

>  <SCORE.INTER.norm>
-1.18575

>  <SCORE.INTRA>
0.269414

>  <SCORE.INTRA.DIHEDRAL>
-0.0131586

>  <SCORE.INTRA.DIHEDRAL.0>
3.20029

>  <SCORE.INTRA.POLAR>
0

>  <SCORE.INTRA.POLAR.0>
0

>  <SCORE.INTRA.REPUL>
0

>  <SCORE.INTRA.REPUL.0>
0

>  <SCORE.INTRA.SOLV>
1.25026

>  <SCORE.INTRA.SOLV.lig_0>
-19.3885

>  <SCORE.INTRA.VDW>
-0.349136

>  <SCORE.INTRA.VDW.0>
-1.12705

>  <SCORE.INTRA.norm>
0.0149675

>  <SCORE.RESTR>
0

>  <SCORE.RESTR.CAVITY>
0

>  <SCORE.RESTR.norm>
0

>  <SCORE.SYSTEM>
0

>  <SCORE.SYSTEM.CONST>
0

>  <SCORE.SYSTEM.DIHEDRAL>
0

>  <SCORE.SYSTEM.SOLV>
0

>  <SCORE.SYSTEM.norm>
0

>  <SCORE.heavy>
18

>  <SCORE.norm>
-1.17078

>  <RMSD>
3.354

$$$$
lig.pdb
 OpenBabel11021811503D
libRbt.so/2013.1/901 2013/11/27
 18 19  0  0  0  0  0  0  0  0999 V2000
  -14.7211   16.2877    3.6329 C   0  0  0  0  0  0  0  0  0  0  0  0
  -12.3899   12.2050    2.4371 N   0  0  0  0  0  0  0  0  0  0  0  0
   -7.7531   15.4304    3.3251 C   0  0  0  0  0  0  0  0  0  0  0  0
   -5.1694   18.6807    0.3643 O   0  0  0  0  0  0  0  0  0  0  0  0
   -6.2478   17.7555    0.3558 C   0  0  0  0  0  0  0  0  0  0  0  0
   -5.8443   16.4601    1.0865 C   0  0  0  0  0  0  0  0  0  0  0  0
   -8.8247   13.7240    0.1705 C   0  0  0  0  0  0  0  0  0  0  0  0
   -7.5309   14.6456   -0.5229 S   0  0  0  0  0  0  0  0  0  0  0  0
   -6.9854   15.4763    0.9512 C   0  0  0  0  0  0  0  0  0  0  0  0
   -7.8638   14.9750    1.8797 C   0  0  0  0  0  0  0  0  0  0  0  0
   -8.8011   14.0757    1.4497 N   0  0  0  0  0  0  0  0  0  0  0  0
   -9.7917   13.4591    2.4018 C   0  0  0  0  0  0  0  0  0  0  0  0
  -12.3278   13.5687    2.7234 C   0  0  0  0  0  0  0  0  0  0  0  0
  -13.4745   14.2548    3.0169 N   0  0  0  0  0  0  0  0  0  0  0  0
  -13.4411   15.5604    3.2965 C   0  0  0  0  0  0  0  0  0  0  0  0
  -12.2835   16.2277    3.2926 N   0  0  0  0  0  0  0  0  0  0  0  0
  -11.1047   15.6128    3.0138 C   0  0  0  0  0  0  0  0  0  0  0  0
  -11.0741   14.2452    2.7193 C   0  0  0  0  0  0  0  0  0  0  0  0
  5  4  1  0  0  0  0
  5  6  1  0  0  0  0
  7  8  2  0  0  0  0
  7 11  1  0  0  0  0
  8  9  1  0  0  0  0
  9 10  2  0  0  0  0
  9  6  1  0  0  0  0
 10  3  1  0  0  0  0
 11 12  1  0  0  0  0
 11 10  1  0  0  0  0
 12 18  1  0  0  0  0
 13  2  1  0  0  0  0
 13 14  2  0  0  0  0
 15 14  1  0  0  0  0
 15  1  1  0  0  0  0
 16 15  2  0  0  0  0
 17 18  2  0  0  0  0
 17 16  1  0  0  0  0
 18 13  1  0  0  0  0
M  END
>  <CHROM.1>
-175.59598769,69.22024694,-96.70743839,135.05496576,-9.55645195,15.16315171
1.79483885,3.01434630,-0.42529350,-2.85560737

>  <Name>
lig.pdb

>  <RI>
0

>  <Rbt.Current_Directory>
/home/itssahil/PROJECTS/Mol_Feturizer/New_Systems/rnas/4nyg

>  <Rbt.Executable>
rbdock ($Id: //depot/dev/client3/rdock/2013.1/src/exe/rbdock.cxx#4 $)

>  <Rbt.Library>
libRbt.so (2013.1, Build901 2013/11/27)

>  <Rbt.Parameter_File>
/export/apps/rDock/src/rDock_2013.1_src/data/scripts/dock_solv.prm

>  <Rbt.Receptor>
prm/pocket_docking_7.prm

>  <SCORE>
-20.7228

>  <SCORE.INTER>
-20.2843

>  <SCORE.INTER.CONST>
1

>  <SCORE.INTER.POLAR>
0

>  <SCORE.INTER.ROT>
4

>  <SCORE.INTER.SOLV>
15.187

>  <SCORE.INTER.VDW>
-24.8519

>  <SCORE.INTER.norm>
-1.12691

>  <SCORE.INTRA>
-0.438477

>  <SCORE.INTRA.DIHEDRAL>
0.0795625

>  <SCORE.INTRA.DIHEDRAL.0>
3.20029

>  <SCORE.INTRA.POLAR>
0

>  <SCORE.INTRA.POLAR.0>
0

>  <SCORE.INTRA.REPUL>
0

>  <SCORE.INTRA.REPUL.0>
0

>  <SCORE.INTRA.SOLV>
0.0465011

>  <SCORE.INTRA.SOLV.lig_0>
-19.3885

>  <SCORE.INTRA.VDW>
-0.501509

>  <SCORE.INTRA.VDW.0>
-1.12705

>  <SCORE.INTRA.norm>
-0.0243598

>  <SCORE.RESTR>
0

>  <SCORE.RESTR.CAVITY>
0

>  <SCORE.RESTR.norm>
0

>  <SCORE.SYSTEM>
0

>  <SCORE.SYSTEM.CONST>
0

>  <SCORE.SYSTEM.DIHEDRAL>
0

>  <SCORE.SYSTEM.SOLV>
0

>  <SCORE.SYSTEM.norm>
0

>  <SCORE.heavy>
18

>  <SCORE.norm>
-1.15127

>  <RMSD>
3.354

$$$$
lig.pdb
 OpenBabel11021811503D
libRbt.so/2013.1/901 2013/11/27
 18 19  0  0  0  0  0  0  0  0999 V2000
  -14.7210   16.2995    3.6418 C   0  0  0  0  0  0  0  0  0  0  0  0
  -12.4142   12.2036    2.4440 N   0  0  0  0  0  0  0  0  0  0  0  0
   -7.7799   15.4127    3.3247 C   0  0  0  0  0  0  0  0  0  0  0  0
   -5.1756   18.6892    0.4187 O   0  0  0  0  0  0  0  0  0  0  0  0
   -6.2455   17.7553    0.3712 C   0  0  0  0  0  0  0  0  0  0  0  0
   -5.8548   16.4594    1.1080 C   0  0  0  0  0  0  0  0  0  0  0  0
   -8.8307   13.7332    0.1488 C   0  0  0  0  0  0  0  0  0  0  0  0
   -7.5315   14.6595   -0.5279 S   0  0  0  0  0  0  0  0  0  0  0  0
   -6.9957   15.4776    0.9567 C   0  0  0  0  0  0  0  0  0  0  0  0
   -7.8808   14.9693    1.8748 C   0  0  0  0  0  0  0  0  0  0  0  0
   -8.8157   14.0744    1.4310 N   0  0  0  0  0  0  0  0  0  0  0  0
   -9.8133   13.4506    2.3711 C   0  0  0  0  0  0  0  0  0  0  0  0
  -12.3453   13.5688    2.7213 C   0  0  0  0  0  0  0  0  0  0  0  0
  -13.4867   14.2598    3.0238 N   0  0  0  0  0  0  0  0  0  0  0  0
  -13.4467   15.5669    3.2951 C   0  0  0  0  0  0  0  0  0  0  0  0
  -12.2876   16.2311    3.2738 N   0  0  0  0  0  0  0  0  0  0  0  0
  -11.1137   15.6115    2.9852 C   0  0  0  0  0  0  0  0  0  0  0  0
  -11.0900   14.2420    2.6987 C   0  0  0  0  0  0  0  0  0  0  0  0
  5  4  1  0  0  0  0
  5  6  1  0  0  0  0
  7  8  2  0  0  0  0
  7 11  1  0  0  0  0
  8  9  1  0  0  0  0
  9 10  2  0  0  0  0
  9  6  1  0  0  0  0
 10  3  1  0  0  0  0
 11 12  1  0  0  0  0
 11 10  1  0  0  0  0
 12 18  1  0  0  0  0
 13  2  1  0  0  0  0
 13 14  2  0  0  0  0
 15 14  1  0  0  0  0
 15  1  1  0  0  0  0
 16 15  2  0  0  0  0
 17 18  2  0  0  0  0
 17 16  1  0  0  0  0
 18 13  1  0  0  0  0
M  END
>  <CHROM.1>
-176.79469646,68.57200583,-97.38496214,136.57483259,-9.56675901,15.16518179
1.79352027,3.01588289,-0.42385803,-2.84937566

>  <Name>
lig.pdb

>  <RI>
0

>  <Rbt.Current_Directory>
/home/itssahil/PROJECTS/Mol_Feturizer/New_Systems/rnas/4nyg

>  <Rbt.Executable>
rbdock ($Id: //depot/dev/client3/rdock/2013.1/src/exe/rbdock.cxx#4 $)

>  <Rbt.Library>
libRbt.so (2013.1, Build901 2013/11/27)

>  <Rbt.Parameter_File>
/export/apps/rDock/src/rDock_2013.1_src/data/scripts/dock_solv.prm

>  <Rbt.Receptor>
prm/pocket_docking_6.prm

>  <SCORE>
-20.7066

>  <SCORE.INTER>
-20.2552

>  <SCORE.INTER.CONST>
1

>  <SCORE.INTER.POLAR>
0

>  <SCORE.INTER.ROT>
4

>  <SCORE.INTER.SOLV>
15.2413

>  <SCORE.INTER.VDW>
-24.8505

>  <SCORE.INTER.norm>
-1.12529

>  <SCORE.INTRA>
-0.451442

>  <SCORE.INTRA.DIHEDRAL>
0.0259572

>  <SCORE.INTRA.DIHEDRAL.0>
3.20029

>  <SCORE.INTRA.POLAR>
0

>  <SCORE.INTRA.POLAR.0>
0

>  <SCORE.INTRA.REPUL>
0

>  <SCORE.INTRA.REPUL.0>
0

>  <SCORE.INTRA.SOLV>
0.0384526

>  <SCORE.INTRA.SOLV.lig_0>
-19.3885

>  <SCORE.INTRA.VDW>
-0.483647

>  <SCORE.INTRA.VDW.0>
-1.12705

>  <SCORE.INTRA.norm>
-0.0250801

>  <SCORE.RESTR>
0

>  <SCORE.RESTR.CAVITY>
0

>  <SCORE.RESTR.norm>
0

>  <SCORE.SYSTEM>
0

>  <SCORE.SYSTEM.CONST>
0

>  <SCORE.SYSTEM.DIHEDRAL>
0

>  <SCORE.SYSTEM.SOLV>
0

>  <SCORE.SYSTEM.norm>
0

>  <SCORE.heavy>
18

>  <SCORE.norm>
-1.15037

>  <RMSD>
3.360

$$$$
lig.pdb
 OpenBabel11021811503D
libRbt.so/2013.1/901 2013/11/27
 18 19  0  0  0  0  0  0  0  0999 V2000
  -14.0642   17.0542    3.5662 C   0  0  0  0  0  0  0  0  0  0  0  0
  -12.7870   12.4986    2.4953 N   0  0  0  0  0  0  0  0  0  0  0  0
   -7.2249   12.6989    3.1743 C   0  0  0  0  0  0  0  0  0  0  0  0
   -3.0369   12.4112    0.5244 O   0  0  0  0  0  0  0  0  0  0  0  0
   -4.4381   12.5634    0.3441 C   0  0  0  0  0  0  0  0  0  0  0  0
   -4.9741   13.6839    1.2563 C   0  0  0  0  0  0  0  0  0  0  0  0
   -8.9558   14.1586    0.1936 C   0  0  0  0  0  0  0  0  0  0  0  0
   -7.3349   14.4579   -0.3422 S   0  0  0  0  0  0  0  0  0  0  0  0
   -6.4704   13.7725    1.0519 C   0  0  0  0  0  0  0  0  0  0  0  0
   -7.5178   13.3648    1.8403 C   0  0  0  0  0  0  0  0  0  0  0  0
   -8.7865   13.5773    1.3743 N   0  0  0  0  0  0  0  0  0  0  0  0
   -9.9947   13.1446    2.1624 C   0  0  0  0  0  0  0  0  0  0  0  0
  -12.4067   13.8285    2.6741 C   0  0  0  0  0  0  0  0  0  0  0  0
  -13.3466   14.7658    3.0057 N   0  0  0  0  0  0  0  0  0  0  0  0
  -13.0074   16.0451    3.1845 C   0  0  0  0  0  0  0  0  0  0  0  0
  -11.7390   16.4394    3.0400 N   0  0  0  0  0  0  0  0  0  0  0  0
  -10.7512   15.5653    2.7153 C   0  0  0  0  0  0  0  0  0  0  0  0
  -11.0429   14.2105    2.5212 C   0  0  0  0  0  0  0  0  0  0  0  0
  5  4  1  0  0  0  0
  5  6  1  0  0  0  0
  7  8  2  0  0  0  0
  7 11  1  0  0  0  0
  8  9  1  0  0  0  0
  9 10  2  0  0  0  0
  9  6  1  0  0  0  0
 10  3  1  0  0  0  0
 11 12  1  0  0  0  0
 11 10  1  0  0  0  0
 12 18  1  0  0  0  0
 13  2  1  0  0  0  0
 13 14  2  0  0  0  0
 15 14  1  0  0  0  0
 15  1  1  0  0  0  0
 16 15  2  0  0  0  0
 17 18  2  0  0  0  0
 17 16  1  0  0  0  0
 18 13  1  0  0  0  0
M  END
>  <CHROM.1>
-178.37631392,-74.50441471,-57.56490459,150.68429286,-9.11846065,14.12995443
1.76755841,-2.99637027,-0.36735924,2.78711401

>  <Name>
lig.pdb

>  <RI>
0

>  <Rbt.Current_Directory>
/home/itssahil/PROJECTS/Mol_Feturizer/New_Systems/rnas/4nyg

>  <Rbt.Executable>
rbdock ($Id: //depot/dev/client3/rdock/2013.1/src/exe/rbdock.cxx#4 $)

>  <Rbt.Library>
libRbt.so (2013.1, Build901 2013/11/27)

>  <Rbt.Parameter_File>
/export/apps/rDock/src/rDock_2013.1_src/data/scripts/dock_solv.prm

>  <Rbt.Receptor>
prm/pocket_docking_4.prm

>  <SCORE>
-20.4415

>  <SCORE.INTER>
-20.2102

>  <SCORE.INTER.CONST>
1

>  <SCORE.INTER.POLAR>
0

>  <SCORE.INTER.ROT>
4

>  <SCORE.INTER.SOLV>
14.0702

>  <SCORE.INTER.VDW>
-24.4302

>  <SCORE.INTER.norm>
-1.12279

>  <SCORE.INTRA>
-0.231312

>  <SCORE.INTRA.DIHEDRAL>
0.318805

>  <SCORE.INTRA.DIHEDRAL.0>
3.20029

>  <SCORE.INTRA.POLAR>
0

>  <SCORE.INTRA.POLAR.0>
0

>  <SCORE.INTRA.REPUL>
0

>  <SCORE.INTRA.REPUL.0>
0

>  <SCORE.INTRA.SOLV>
-0.0374679

>  <SCORE.INTRA.SOLV.lig_0>
-19.3885

>  <SCORE.INTRA.VDW>
-0.37198

>  <SCORE.INTRA.VDW.0>
-1.12705

>  <SCORE.INTRA.norm>
-0.0128506

>  <SCORE.RESTR>
0

>  <SCORE.RESTR.CAVITY>
0

>  <SCORE.RESTR.norm>
0

>  <SCORE.SYSTEM>
0

>  <SCORE.SYSTEM.CONST>
0

>  <SCORE.SYSTEM.DIHEDRAL>
0

>  <SCORE.SYSTEM.SOLV>
0

>  <SCORE.SYSTEM.norm>
0

>  <SCORE.heavy>
18

>  <SCORE.norm>
-1.13564

>  <RMSD>
3.375

$$$$
lig.pdb
 OpenBabel11021811503D
libRbt.so/2013.1/901 2013/11/27
 18 19  0  0  0  0  0  0  0  0999 V2000
  -14.8172   16.0862    4.0595 C   0  0  0  0  0  0  0  0  0  0  0  0
  -12.2634   12.2953    2.4349 N   0  0  0  0  0  0  0  0  0  0  0  0
   -8.1288   14.5366   -0.4315 C   0  0  0  0  0  0  0  0  0  0  0  0
   -4.9666   17.9227    1.8586 O   0  0  0  0  0  0  0  0  0  0  0  0
   -5.4315   17.6337    0.5474 C   0  0  0  0  0  0  0  0  0  0  0  0
   -5.5541   16.1103    0.3491 C   0  0  0  0  0  0  0  0  0  0  0  0
   -8.2617   14.9827    3.2827 C   0  0  0  0  0  0  0  0  0  0  0  0
   -6.7514   15.7950    3.0313 S   0  0  0  0  0  0  0  0  0  0  0  0
   -6.6479   15.6096    1.2663 C   0  0  0  0  0  0  0  0  0  0  0  0
   -7.8037   14.9168    1.0033 C   0  0  0  0  0  0  0  0  0  0  0  0
   -8.6149   14.6061    2.0604 N   0  0  0  0  0  0  0  0  0  0  0  0
   -9.9117   13.8661    1.8633 C   0  0  0  0  0  0  0  0  0  0  0  0
  -12.3230   13.6642    2.6952 C   0  0  0  0  0  0  0  0  0  0  0  0
  -13.4664   14.2088    3.2129 N   0  0  0  0  0  0  0  0  0  0  0  0
  -13.5477   15.5163    3.4729 C   0  0  0  0  0  0  0  0  0  0  0  0
  -12.5117   16.3242    3.2292 N   0  0  0  0  0  0  0  0  0  0  0  0
  -11.3435   15.8548    2.7190 C   0  0  0  0  0  0  0  0  0  0  0  0
  -11.1950   14.4934    2.4317 C   0  0  0  0  0  0  0  0  0  0  0  0
  5  4  1  0  0  0  0
  5  6  1  0  0  0  0
  7  8  2  0  0  0  0
  7 11  1  0  0  0  0
  8  9  1  0  0  0  0
  9 10  2  0  0  0  0
  9  6  1  0  0  0  0
 10  3  1  0  0  0  0
 11 12  1  0  0  0  0
 11 10  1  0  0  0  0
 12 18  1  0  0  0  0
 13  2  1  0  0  0  0
 13 14  2  0  0  0  0
 15 14  1  0  0  0  0
 15  1  1  0  0  0  0
 16 15  2  0  0  0  0
 17 18  2  0  0  0  0
 17 16  1  0  0  0  0
 18 13  1  0  0  0  0
M  END
>  <CHROM.1>
66.11164932,-56.80236502,52.93013829,-157.98269363,-9.39407694,15.31865259
2.21881747,3.06133587,-0.32086683,-2.65842109

>  <Name>
lig.pdb

>  <RI>
0

>  <Rbt.Current_Directory>
/home/itssahil/PROJECTS/Mol_Feturizer/New_Systems/rnas/4nyg

>  <Rbt.Executable>
rbdock ($Id: //depot/dev/client3/rdock/2013.1/src/exe/rbdock.cxx#4 $)

>  <Rbt.Library>
libRbt.so (2013.1, Build901 2013/11/27)

>  <Rbt.Parameter_File>
/export/apps/rDock/src/rDock_2013.1_src/data/scripts/dock_solv.prm

>  <Rbt.Receptor>
prm/pocket_docking_5.prm

>  <SCORE>
-19.865

>  <SCORE.INTER>
-19.889

>  <SCORE.INTER.CONST>
1

>  <SCORE.INTER.POLAR>
0

>  <SCORE.INTER.ROT>
4

>  <SCORE.INTER.SOLV>
13.9321

>  <SCORE.INTER.VDW>
-24.17

>  <SCORE.INTER.norm>
-1.10494

>  <SCORE.INTRA>
0.0239553

>  <SCORE.INTRA.DIHEDRAL>
0.0539696

>  <SCORE.INTRA.DIHEDRAL.0>
3.20029

>  <SCORE.INTRA.POLAR>
0

>  <SCORE.INTRA.POLAR.0>
0

>  <SCORE.INTRA.REPUL>
0

>  <SCORE.INTRA.REPUL.0>
0

>  <SCORE.INTRA.SOLV>
0.409661

>  <SCORE.INTRA.SOLV.lig_0>
-19.3885

>  <SCORE.INTRA.VDW>
-0.20786

>  <SCORE.INTRA.VDW.0>
-1.12705

>  <SCORE.INTRA.norm>
0.00133085

>  <SCORE.RESTR>
0

>  <SCORE.RESTR.CAVITY>
0

>  <SCORE.RESTR.norm>
0

>  <SCORE.SYSTEM>
0

>  <SCORE.SYSTEM.CONST>
0

>  <SCORE.SYSTEM.DIHEDRAL>
0

>  <SCORE.SYSTEM.SOLV>
0

>  <SCORE.SYSTEM.norm>
0

>  <SCORE.heavy>
18

>  <SCORE.norm>
-1.10361

>  <RMSD>
3.381

$$$$
lig.pdb
 OpenBabel11021811503D
libRbt.so/2013.1/901 2013/11/27
 18 19  0  0  0  0  0  0  0  0999 V2000
  -15.2415   16.0116    4.2096 C   0  0  0  0  0  0  0  0  0  0  0  0
  -11.8505   12.9032    2.6696 N   0  0  0  0  0  0  0  0  0  0  0  0
   -7.9391   15.7536    3.7451 C   0  0  0  0  0  0  0  0  0  0  0  0
   -3.7311   18.1056    2.9405 O   0  0  0  0  0  0  0  0  0  0  0  0
   -4.8551   17.6235    2.2172 C   0  0  0  0  0  0  0  0  0  0  0  0
   -6.1596   18.1497    2.8467 C   0  0  0  0  0  0  0  0  0  0  0  0
   -9.2243   16.8112    0.3923 C   0  0  0  0  0  0  0  0  0  0  0  0
   -7.9645   17.9954    0.5131 S   0  0  0  0  0  0  0  0  0  0  0  0
   -7.3189   17.5259    2.1016 C   0  0  0  0  0  0  0  0  0  0  0  0
   -8.1444   16.4777    2.4250 C   0  0  0  0  0  0  0  0  0  0  0  0
   -9.1174   16.1322    1.5273 N   0  0  0  0  0  0  0  0  0  0  0  0
  -10.0548   14.9831    1.7895 C   0  0  0  0  0  0  0  0  0  0  0  0
  -12.2661   14.2250    2.8302 C   0  0  0  0  0  0  0  0  0  0  0  0
  -13.4820   14.4912    3.3980 N   0  0  0  0  0  0  0  0  0  0  0  0
  -13.9016   15.7482    3.5648 C   0  0  0  0  0  0  0  0  0  0  0  0
  -13.1417   16.7764    3.1765 N   0  0  0  0  0  0  0  0  0  0  0  0
  -11.9220   16.5895    2.6084 C   0  0  0  0  0  0  0  0  0  0  0  0
  -11.4248   15.2962    2.4131 C   0  0  0  0  0  0  0  0  0  0  0  0
  5  4  1  0  0  0  0
  5  6  1  0  0  0  0
  7  8  2  0  0  0  0
  7 11  1  0  0  0  0
  8  9  1  0  0  0  0
  9 10  2  0  0  0  0
  9  6  1  0  0  0  0
 10  3  1  0  0  0  0
 11 12  1  0  0  0  0
 11 10  1  0  0  0  0
 12 18  1  0  0  0  0
 13  2  1  0  0  0  0
 13 14  2  0  0  0  0
 15 14  1  0  0  0  0
 15  1  1  0  0  0  0
 16 15  2  0  0  0  0
 17 18  2  0  0  0  0
 17 16  1  0  0  0  0
 18 13  1  0  0  0  0
M  END
>  <CHROM.1>
-175.92682327,-78.19725170,-85.61027082,-172.09735988,-9.67581555,16.34504013
2.39899548,2.78683701,0.04620787,2.58341994

>  <Name>
lig.pdb

>  <RI>
0

>  <Rbt.Current_Directory>
/home/itssahil/PROJECTS/Mol_Feturizer/New_Systems/rnas/4nyg

>  <Rbt.Executable>
rbdock ($Id: //depot/dev/client3/rdock/2013.1/src/exe/rbdock.cxx#4 $)

>  <Rbt.Library>
libRbt.so (2013.1, Build901 2013/11/27)

>  <Rbt.Parameter_File>
/export/apps/rDock/src/rDock_2013.1_src/data/scripts/dock_solv.prm

>  <Rbt.Receptor>
prm/pocket_docking_5.prm

>  <SCORE>
-21.4749

>  <SCORE.INTER>
-21.1593

>  <SCORE.INTER.CONST>
1

>  <SCORE.INTER.POLAR>
0

>  <SCORE.INTER.ROT>
4

>  <SCORE.INTER.SOLV>
15.7542

>  <SCORE.INTER.VDW>
-25.6243

>  <SCORE.INTER.norm>
-1.17552

>  <SCORE.INTRA>
-0.315559

>  <SCORE.INTRA.DIHEDRAL>
0.494512

>  <SCORE.INTRA.DIHEDRAL.0>
3.20029

>  <SCORE.INTRA.POLAR>
0

>  <SCORE.INTRA.POLAR.0>
0

>  <SCORE.INTRA.REPUL>
0

>  <SCORE.INTRA.REPUL.0>
0

>  <SCORE.INTRA.SOLV>
-0.0296188

>  <SCORE.INTRA.SOLV.lig_0>
-19.3885

>  <SCORE.INTRA.VDW>
-0.548005

>  <SCORE.INTRA.VDW.0>
-1.12705

>  <SCORE.INTRA.norm>
-0.017531

>  <SCORE.RESTR>
0

>  <SCORE.RESTR.CAVITY>
0

>  <SCORE.RESTR.norm>
0

>  <SCORE.SYSTEM>
0

>  <SCORE.SYSTEM.CONST>
0

>  <SCORE.SYSTEM.DIHEDRAL>
0

>  <SCORE.SYSTEM.SOLV>
0

>  <SCORE.SYSTEM.norm>
0

>  <SCORE.heavy>
18

>  <SCORE.norm>
-1.19305

>  <RMSD>
3.381

$$$$
lig.pdb
 OpenBabel11021811503D
libRbt.so/2013.1/901 2013/11/27
 18 19  0  0  0  0  0  0  0  0999 V2000
  -14.3450   15.1464    3.6417 C   0  0  0  0  0  0  0  0  0  0  0  0
  -12.3255   11.1224    1.8358 N   0  0  0  0  0  0  0  0  0  0  0  0
   -6.7941   11.2835    2.1238 C   0  0  0  0  0  0  0  0  0  0  0  0
   -4.4921   15.3398    0.2059 O   0  0  0  0  0  0  0  0  0  0  0  0
   -4.1277   14.1776    0.9377 C   0  0  0  0  0  0  0  0  0  0  0  0
   -4.8325   12.9376    0.3542 C   0  0  0  0  0  0  0  0  0  0  0  0
   -8.8693   13.8910    0.4189 C   0  0  0  0  0  0  0  0  0  0  0  0
   -7.3479   14.3557   -0.2693 S   0  0  0  0  0  0  0  0  0  0  0  0
   -6.3239   13.1327    0.5156 C   0  0  0  0  0  0  0  0  0  0  0  0
   -7.2501   12.4526    1.2669 C   0  0  0  0  0  0  0  0  0  0  0  0
   -8.5528   12.8653    1.1990 N   0  0  0  0  0  0  0  0  0  0  0  0
   -9.6390   12.1658    1.9730 C   0  0  0  0  0  0  0  0  0  0  0  0
  -12.1611   12.4193    2.3222 C   0  0  0  0  0  0  0  0  0  0  0  0
  -13.2537   13.1393    2.7216 N   0  0  0  0  0  0  0  0  0  0  0  0
  -13.1223   14.3820    3.1930 C   0  0  0  0  0  0  0  0  0  0  0  0
  -11.9172   14.9521    3.2820 N   0  0  0  0  0  0  0  0  0  0  0  0
  -10.7873   14.2977    2.9076 C   0  0  0  0  0  0  0  0  0  0  0  0
  -10.8595   12.9911    2.4119 C   0  0  0  0  0  0  0  0  0  0  0  0
  5  4  1  0  0  0  0
  5  6  1  0  0  0  0
  7  8  2  0  0  0  0
  7 11  1  0  0  0  0
  8  9  1  0  0  0  0
  9 10  2  0  0  0  0
  9  6  1  0  0  0  0
 10  3  1  0  0  0  0
 11 12  1  0  0  0  0
 11 10  1  0  0  0  0
 12 18  1  0  0  0  0
 13  2  1  0  0  0  0
 13 14  2  0  0  0  0
 15 14  1  0  0  0  0
 15  1  1  0  0  0  0
 16 15  2  0  0  0  0
 17 18  2  0  0  0  0
 17 16  1  0  0  0  0
 18 13  1  0  0  0  0
M  END
>  <CHROM.1>
-62.70837177,65.75056437,-30.06464021,139.21758573,-9.08862325,13.47819642
1.57691244,3.11622332,-0.32328457,3.09803160

>  <Name>
lig.pdb

>  <RI>
0

>  <Rbt.Current_Directory>
/home/itssahil/PROJECTS/Mol_Feturizer/New_Systems/rnas/4nyg

>  <Rbt.Executable>
rbdock ($Id: //depot/dev/client3/rdock/2013.1/src/exe/rbdock.cxx#4 $)

>  <Rbt.Library>
libRbt.so (2013.1, Build901 2013/11/27)

>  <Rbt.Parameter_File>
/export/apps/rDock/src/rDock_2013.1_src/data/scripts/dock_solv.prm

>  <Rbt.Receptor>
prm/pocket_docking_6.prm

>  <SCORE>
-21.7645

>  <SCORE.INTER>
-21.978

>  <SCORE.INTER.CONST>
1

>  <SCORE.INTER.POLAR>
0

>  <SCORE.INTER.ROT>
4

>  <SCORE.INTER.SOLV>
16.6737

>  <SCORE.INTER.VDW>
-26.4765

>  <SCORE.INTER.norm>
-1.221

>  <SCORE.INTRA>
0.213462

>  <SCORE.INTRA.DIHEDRAL>
0.0707141

>  <SCORE.INTRA.DIHEDRAL.0>
3.20029

>  <SCORE.INTRA.POLAR>
0

>  <SCORE.INTRA.POLAR.0>
0

>  <SCORE.INTRA.REPUL>
0

>  <SCORE.INTRA.REPUL.0>
0

>  <SCORE.INTRA.SOLV>
0.465144

>  <SCORE.INTRA.SOLV.lig_0>
-19.3885

>  <SCORE.INTRA.VDW>
-0.0544667

>  <SCORE.INTRA.VDW.0>
-1.12705

>  <SCORE.INTRA.norm>
0.011859

>  <SCORE.RESTR>
0

>  <SCORE.RESTR.CAVITY>
0

>  <SCORE.RESTR.norm>
0

>  <SCORE.SYSTEM>
0

>  <SCORE.SYSTEM.CONST>
0

>  <SCORE.SYSTEM.DIHEDRAL>
0

>  <SCORE.SYSTEM.SOLV>
0

>  <SCORE.SYSTEM.norm>
0

>  <SCORE.heavy>
18

>  <SCORE.norm>
-1.20914

>  <RMSD>
3.381

$$$$
lig.pdb
 OpenBabel11021811503D
libRbt.so/2013.1/901 2013/11/27
 18 19  0  0  0  0  0  0  0  0999 V2000
  -14.6763   15.8304    3.8184 C   0  0  0  0  0  0  0  0  0  0  0  0
  -12.1386   11.9807    2.3111 N   0  0  0  0  0  0  0  0  0  0  0  0
   -8.4241   14.9754   -0.3566 C   0  0  0  0  0  0  0  0  0  0  0  0
   -5.3629   17.9831    2.2477 O   0  0  0  0  0  0  0  0  0  0  0  0
   -5.8615   17.8944    0.9201 C   0  0  0  0  0  0  0  0  0  0  0  0
   -5.7837   16.4395    0.4178 C   0  0  0  0  0  0  0  0  0  0  0  0
   -7.8509   14.2493    3.2705 C   0  0  0  0  0  0  0  0  0  0  0  0
   -6.4359   15.2204    3.0285 S   0  0  0  0  0  0  0  0  0  0  0  0
   -6.6692   15.5940    1.3062 C   0  0  0  0  0  0  0  0  0  0  0  0
   -7.8380   14.9228    1.0443 C   0  0  0  0  0  0  0  0  0  0  0  0
   -8.4238   14.2378    2.0737 N   0  0  0  0  0  0  0  0  0  0  0  0
   -9.7171   13.4901    1.8831 C   0  0  0  0  0  0  0  0  0  0  0  0
  -12.1758   13.3493    2.5776 C   0  0  0  0  0  0  0  0  0  0  0  0
  -13.3313   13.9218    3.0347 N   0  0  0  0  0  0  0  0  0  0  0  0
  -13.3917   15.2296    3.2993 C   0  0  0  0  0  0  0  0  0  0  0  0
  -12.3224   16.0103    3.1197 N   0  0  0  0  0  0  0  0  0  0  0  0
  -11.1406   15.5122    2.6720 C   0  0  0  0  0  0  0  0  0  0  0  0
  -11.0129   14.1489    2.3836 C   0  0  0  0  0  0  0  0  0  0  0  0
  5  4  1  0  0  0  0
  5  6  1  0  0  0  0
  7  8  2  0  0  0  0
  7 11  1  0  0  0  0
  8  9  1  0  0  0  0
  9 10  2  0  0  0  0
  9  6  1  0  0  0  0
 10  3  1  0  0  0  0
 11 12  1  0  0  0  0
 11 10  1  0  0  0  0
 12 18  1  0  0  0  0
 13  2  1  0  0  0  0
 13 14  2  0  0  0  0
 15 14  1  0  0  0  0
 15  1  1  0  0  0  0
 16 15  2  0  0  0  0
 17 18  2  0  0  0  0
 17 16  1  0  0  0  0
 18 13  1  0  0  0  0
M  END
>  <CHROM.1>
62.35275161,-66.75995416,77.74846789,-162.09711753,-9.32907520,15.10830810
2.22131219,2.91592611,-0.25044828,-2.94678356

>  <Name>
lig.pdb

>  <RI>
0

>  <Rbt.Current_Directory>
/home/itssahil/PROJECTS/Mol_Feturizer/New_Systems/rnas/4nyg

>  <Rbt.Executable>
rbdock ($Id: //depot/dev/client3/rdock/2013.1/src/exe/rbdock.cxx#4 $)

>  <Rbt.Library>
libRbt.so (2013.1, Build901 2013/11/27)

>  <Rbt.Parameter_File>
/export/apps/rDock/src/rDock_2013.1_src/data/scripts/dock_solv.prm

>  <Rbt.Receptor>
prm/pocket_docking_3.prm

>  <SCORE>
-19.4726

>  <SCORE.INTER>
-19.1315

>  <SCORE.INTER.CONST>
1

>  <SCORE.INTER.POLAR>
0

>  <SCORE.INTER.ROT>
4

>  <SCORE.INTER.SOLV>
13.8456

>  <SCORE.INTER.VDW>
-23.6362

>  <SCORE.INTER.norm>
-1.06286

>  <SCORE.INTRA>
-0.341069

>  <SCORE.INTRA.DIHEDRAL>
0.0812262

>  <SCORE.INTRA.DIHEDRAL.0>
3.20029

>  <SCORE.INTRA.POLAR>
0

>  <SCORE.INTRA.POLAR.0>
0

>  <SCORE.INTRA.REPUL>
0

>  <SCORE.INTRA.REPUL.0>
0

>  <SCORE.INTRA.SOLV>
0.414464

>  <SCORE.INTRA.SOLV.lig_0>
-19.3885

>  <SCORE.INTRA.VDW>
-0.588914

>  <SCORE.INTRA.VDW.0>
-1.12705

>  <SCORE.INTRA.norm>
-0.0189483

>  <SCORE.RESTR>
0

>  <SCORE.RESTR.CAVITY>
0

>  <SCORE.RESTR.norm>
0

>  <SCORE.SYSTEM>
0

>  <SCORE.SYSTEM.CONST>
0

>  <SCORE.SYSTEM.DIHEDRAL>
0

>  <SCORE.SYSTEM.SOLV>
0

>  <SCORE.SYSTEM.norm>
0

>  <SCORE.heavy>
18

>  <SCORE.norm>
-1.08181

>  <RMSD>
3.382

$$$$
lig.pdb
 OpenBabel11021811503D
libRbt.so/2013.1/901 2013/11/27
 18 19  0  0  0  0  0  0  0  0999 V2000
  -14.1475   16.8870    3.5861 C   0  0  0  0  0  0  0  0  0  0  0  0
  -12.6406   12.4084    2.4889 N   0  0  0  0  0  0  0  0  0  0  0  0
   -7.0751   13.2030    3.2603 C   0  0  0  0  0  0  0  0  0  0  0  0
   -4.7135   11.7905    0.9994 O   0  0  0  0  0  0  0  0  0  0  0  0
   -4.2808   13.0320    0.4605 C   0  0  0  0  0  0  0  0  0  0  0  0
   -4.9497   14.2005    1.2102 C   0  0  0  0  0  0  0  0  0  0  0  0
   -8.9547   14.0592    0.1385 C   0  0  0  0  0  0  0  0  0  0  0  0
   -7.3789   14.4802   -0.4476 S   0  0  0  0  0  0  0  0  0  0  0  0
   -6.4449   14.0836    1.0121 C   0  0  0  0  0  0  0  0  0  0  0  0
   -7.4395   13.6561    1.8564 C   0  0  0  0  0  0  0  0  0  0  0  0
   -8.7225   13.6554    1.3809 N   0  0  0  0  0  0  0  0  0  0  0  0
   -9.8737   13.1842    2.2299 C   0  0  0  0  0  0  0  0  0  0  0  0
  -12.3253   13.7516    2.6932 C   0  0  0  0  0  0  0  0  0  0  0  0
  -13.3142   14.6410    3.0142 N   0  0  0  0  0  0  0  0  0  0  0  0
  -13.0376   15.9318    3.2169 C   0  0  0  0  0  0  0  0  0  0  0  0
  -11.7854   16.3848    3.1071 N   0  0  0  0  0  0  0  0  0  0  0  0
  -10.7517   15.5606    2.7948 C   0  0  0  0  0  0  0  0  0  0  0  0
  -10.9771   14.1968    2.5771 C   0  0  0  0  0  0  0  0  0  0  0  0
  5  4  1  0  0  0  0
  5  6  1  0  0  0  0
  7  8  2  0  0  0  0
  7 11  1  0  0  0  0
  8  9  1  0  0  0  0
  9 10  2  0  0  0  0
  9  6  1  0  0  0  0
 10  3  1  0  0  0  0
 11 12  1  0  0  0  0
 11 10  1  0  0  0  0
 12 18  1  0  0  0  0
 13  2  1  0  0  0  0
 13 14  2  0  0  0  0
 15 14  1  0  0  0  0
 15  1  1  0  0  0  0
 16 15  2  0  0  0  0
 17 18  2  0  0  0  0
 17 16  1  0  0  0  0
 18 13  1  0  0  0  0
M  END
>  <CHROM.1>
-61.59033234,-75.47727950,-63.42028305,145.85183479,-9.18548301,14.17177400
1.80617017,-3.00563205,-0.36971476,2.81006469

>  <Name>
lig.pdb

>  <RI>
0

>  <Rbt.Current_Directory>
/home/itssahil/PROJECTS/Mol_Feturizer/New_Systems/rnas/4nyg

>  <Rbt.Executable>
rbdock ($Id: //depot/dev/client3/rdock/2013.1/src/exe/rbdock.cxx#4 $)

>  <Rbt.Library>
libRbt.so (2013.1, Build901 2013/11/27)

>  <Rbt.Parameter_File>
/export/apps/rDock/src/rDock_2013.1_src/data/scripts/dock_solv.prm

>  <Rbt.Receptor>
prm/pocket_docking_4.prm

>  <SCORE>
-20.1199

>  <SCORE.INTER>
-19.9111

>  <SCORE.INTER.CONST>
1

>  <SCORE.INTER.POLAR>
0

>  <SCORE.INTER.ROT>
4

>  <SCORE.INTER.SOLV>
14.1035

>  <SCORE.INTER.VDW>
-24.2419

>  <SCORE.INTER.norm>
-1.10617

>  <SCORE.INTRA>
-0.2088

>  <SCORE.INTRA.DIHEDRAL>
0.34725

>  <SCORE.INTRA.DIHEDRAL.0>
3.20029

>  <SCORE.INTRA.POLAR>
0

>  <SCORE.INTRA.POLAR.0>
0

>  <SCORE.INTRA.REPUL>
0

>  <SCORE.INTRA.REPUL.0>
0

>  <SCORE.INTRA.SOLV>
0.541665

>  <SCORE.INTRA.SOLV.lig_0>
-19.3885

>  <SCORE.INTRA.VDW>
-0.653258

>  <SCORE.INTRA.VDW.0>
-1.12705

>  <SCORE.INTRA.norm>
-0.0116

>  <SCORE.RESTR>
0

>  <SCORE.RESTR.CAVITY>
0

>  <SCORE.RESTR.norm>
0

>  <SCORE.SYSTEM>
0

>  <SCORE.SYSTEM.CONST>
0

>  <SCORE.SYSTEM.DIHEDRAL>
0

>  <SCORE.SYSTEM.SOLV>
0

>  <SCORE.SYSTEM.norm>
0

>  <SCORE.heavy>
18

>  <SCORE.norm>
-1.11777

>  <RMSD>
3.387

$$$$
lig.pdb
 OpenBabel11021811503D
libRbt.so/2013.1/901 2013/11/27
 18 19  0  0  0  0  0  0  0  0999 V2000
  -14.4046   16.5692    3.4564 C   0  0  0  0  0  0  0  0  0  0  0  0
  -12.5773   12.2071    2.3771 N   0  0  0  0  0  0  0  0  0  0  0  0
   -7.0097   13.1719    3.2641 C   0  0  0  0  0  0  0  0  0  0  0  0
   -4.6748   11.8292    1.1082 O   0  0  0  0  0  0  0  0  0  0  0  0
   -4.3275   13.0372    0.4455 C   0  0  0  0  0  0  0  0  0  0  0  0
   -4.9787   14.2404    1.1549 C   0  0  0  0  0  0  0  0  0  0  0  0
   -9.0201   14.0657    0.2358 C   0  0  0  0  0  0  0  0  0  0  0  0
   -7.4738   14.5203   -0.4017 S   0  0  0  0  0  0  0  0  0  0  0  0
   -6.4787   14.1069    1.0123 C   0  0  0  0  0  0  0  0  0  0  0  0
   -7.4342   13.6485    1.8852 C   0  0  0  0  0  0  0  0  0  0  0  0
   -8.7345   13.6398    1.4596 N   0  0  0  0  0  0  0  0  0  0  0  0
   -9.8457   13.1355    2.3422 C   0  0  0  0  0  0  0  0  0  0  0  0
  -12.3522   13.5594    2.6336 C   0  0  0  0  0  0  0  0  0  0  0  0
  -13.4093   14.3863    2.8993 N   0  0  0  0  0  0  0  0  0  0  0  0
  -13.2198   15.6843    3.1503 C   0  0  0  0  0  0  0  0  0  0  0  0
  -11.9897   16.2060    3.1441 N   0  0  0  0  0  0  0  0  0  0  0  0
  -10.8922   15.4463    2.8919 C   0  0  0  0  0  0  0  0  0  0  0  0
  -11.0256   14.0786    2.6282 C   0  0  0  0  0  0  0  0  0  0  0  0
  5  4  1  0  0  0  0
  5  6  1  0  0  0  0
  7  8  2  0  0  0  0
  7 11  1  0  0  0  0
  8  9  1  0  0  0  0
  9 10  2  0  0  0  0
  9  6  1  0  0  0  0
 10  3  1  0  0  0  0
 11 12  1  0  0  0  0
 11 10  1  0  0  0  0
 12 18  1  0  0  0  0
 13  2  1  0  0  0  0
 13 14  2  0  0  0  0
 15 14  1  0  0  0  0
 15  1  1  0  0  0  0
 16 15  2  0  0  0  0
 17 18  2  0  0  0  0
 17 16  1  0  0  0  0
 18 13  1  0  0  0  0
M  END
>  <CHROM.1>
-64.85234794,-79.69411054,-56.90562455,139.02099774,-9.24481295,14.09395046
1.81504710,-3.05485655,-0.34951552,2.73587397

>  <Name>
lig.pdb

>  <RI>
0

>  <Rbt.Current_Directory>
/home/itssahil/PROJECTS/Mol_Feturizer/New_Systems/rnas/4nyg

>  <Rbt.Executable>
rbdock ($Id: //depot/dev/client3/rdock/2013.1/src/exe/rbdock.cxx#4 $)

>  <Rbt.Library>
libRbt.so (2013.1, Build901 2013/11/27)

>  <Rbt.Parameter_File>
/export/apps/rDock/src/rDock_2013.1_src/data/scripts/dock_solv.prm

>  <Rbt.Receptor>
prm/pocket_docking_6.prm

>  <SCORE>
-20.1127

>  <SCORE.INTER>
-20.0999

>  <SCORE.INTER.CONST>
1

>  <SCORE.INTER.POLAR>
0

>  <SCORE.INTER.ROT>
4

>  <SCORE.INTER.SOLV>
14.0321

>  <SCORE.INTER.VDW>
-24.344

>  <SCORE.INTER.norm>
-1.11666

>  <SCORE.INTRA>
-0.012761

>  <SCORE.INTRA.DIHEDRAL>
0.686105

>  <SCORE.INTRA.DIHEDRAL.0>
3.20029

>  <SCORE.INTRA.POLAR>
0

>  <SCORE.INTRA.POLAR.0>
0

>  <SCORE.INTRA.REPUL>
0

>  <SCORE.INTRA.REPUL.0>
0

>  <SCORE.INTRA.SOLV>
0.551078

>  <SCORE.INTRA.SOLV.lig_0>
-19.3885

>  <SCORE.INTRA.VDW>
-0.631352

>  <SCORE.INTRA.VDW.0>
-1.12705

>  <SCORE.INTRA.norm>
-0.000708946

>  <SCORE.RESTR>
0

>  <SCORE.RESTR.CAVITY>
0

>  <SCORE.RESTR.norm>
0

>  <SCORE.SYSTEM>
0

>  <SCORE.SYSTEM.CONST>
0

>  <SCORE.SYSTEM.DIHEDRAL>
0

>  <SCORE.SYSTEM.SOLV>
0

>  <SCORE.SYSTEM.norm>
0

>  <SCORE.heavy>
18

>  <SCORE.norm>
-1.11737

>  <RMSD>
3.392

$$$$
lig.pdb
 OpenBabel11021811503D
libRbt.so/2013.1/901 2013/11/27
 18 19  0  0  0  0  0  0  0  0999 V2000
  -14.1354   16.9354    3.5956 C   0  0  0  0  0  0  0  0  0  0  0  0
  -12.6684   12.4494    2.4748 N   0  0  0  0  0  0  0  0  0  0  0  0
   -7.1022   13.2290    3.2696 C   0  0  0  0  0  0  0  0  0  0  0  0
   -4.7179   11.8062    0.9866 O   0  0  0  0  0  0  0  0  0  0  0  0
   -4.2884   13.0558    0.4641 C   0  0  0  0  0  0  0  0  0  0  0  0
   -4.9645   14.2125    1.2256 C   0  0  0  0  0  0  0  0  0  0  0  0
   -8.9627   14.0617    0.1300 C   0  0  0  0  0  0  0  0  0  0  0  0
   -7.3834   14.4790   -0.4493 S   0  0  0  0  0  0  0  0  0  0  0  0
   -6.4583   14.0935    1.0191 C   0  0  0  0  0  0  0  0  0  0  0  0
   -7.4581   13.6717    1.8603 C   0  0  0  0  0  0  0  0  0  0  0  0
   -8.7380   13.6670    1.3768 N   0  0  0  0  0  0  0  0  0  0  0  0
   -9.8943   13.2014    2.2219 C   0  0  0  0  0  0  0  0  0  0  0  0
  -12.3411   13.7886    2.6867 C   0  0  0  0  0  0  0  0  0  0  0  0
  -13.3221   14.6851    3.0119 N   0  0  0  0  0  0  0  0  0  0  0  0
  -13.0339   15.9722    3.2219 C   0  0  0  0  0  0  0  0  0  0  0  0
  -11.7775   16.4144    3.1155 N   0  0  0  0  0  0  0  0  0  0  0  0
  -10.7512   15.5825    2.7994 C   0  0  0  0  0  0  0  0  0  0  0  0
  -10.9888   14.2221    2.5740 C   0  0  0  0  0  0  0  0  0  0  0  0
  5  4  1  0  0  0  0
  5  6  1  0  0  0  0
  7  8  2  0  0  0  0
  7 11  1  0  0  0  0
  8  9  1  0  0  0  0
  9 10  2  0  0  0  0
  9  6  1  0  0  0  0
 10  3  1  0  0  0  0
 11 12  1  0  0  0  0
 11 10  1  0  0  0  0
 12 18  1  0  0  0  0
 13  2  1  0  0  0  0
 13 14  2  0  0  0  0
 15 14  1  0  0  0  0
 15  1  1  0  0  0  0
 16 15  2  0  0  0  0
 17 18  2  0  0  0  0
 17 16  1  0  0  0  0
 18 13  1  0  0  0  0
M  END
>  <CHROM.1>
-61.69155735,-74.31095098,-64.39575909,145.87112702,-9.19468791,14.19351827
1.80629651,-2.99423864,-0.36828944,2.83364046

>  <Name>
lig.pdb

>  <RI>
0

>  <Rbt.Current_Directory>
/home/itssahil/PROJECTS/Mol_Feturizer/New_Systems/rnas/4nyg

>  <Rbt.Executable>
rbdock ($Id: //depot/dev/client3/rdock/2013.1/src/exe/rbdock.cxx#4 $)

>  <Rbt.Library>
libRbt.so (2013.1, Build901 2013/11/27)

>  <Rbt.Parameter_File>
/export/apps/rDock/src/rDock_2013.1_src/data/scripts/dock_solv.prm

>  <Rbt.Receptor>
prm/pocket_docking_6.prm

>  <SCORE>
-20.0581

>  <SCORE.INTER>
-19.8104

>  <SCORE.INTER.CONST>
1

>  <SCORE.INTER.POLAR>
0

>  <SCORE.INTER.ROT>
4

>  <SCORE.INTER.SOLV>
14.1411

>  <SCORE.INTER.VDW>
-24.1873

>  <SCORE.INTER.norm>
-1.10058

>  <SCORE.INTRA>
-0.247647

>  <SCORE.INTRA.DIHEDRAL>
0.286903

>  <SCORE.INTRA.DIHEDRAL.0>
3.20029

>  <SCORE.INTRA.POLAR>
0

>  <SCORE.INTRA.POLAR.0>
0

>  <SCORE.INTRA.REPUL>
0

>  <SCORE.INTRA.REPUL.0>
0

>  <SCORE.INTRA.SOLV>
0.535966

>  <SCORE.INTRA.SOLV.lig_0>
-19.3885

>  <SCORE.INTRA.VDW>
-0.659081

>  <SCORE.INTRA.VDW.0>
-1.12705

>  <SCORE.INTRA.norm>
-0.0137582

>  <SCORE.RESTR>
0

>  <SCORE.RESTR.CAVITY>
0

>  <SCORE.RESTR.norm>
0

>  <SCORE.SYSTEM>
0

>  <SCORE.SYSTEM.CONST>
0

>  <SCORE.SYSTEM.DIHEDRAL>
0

>  <SCORE.SYSTEM.SOLV>
0

>  <SCORE.SYSTEM.norm>
0

>  <SCORE.heavy>
18

>  <SCORE.norm>
-1.11434

>  <RMSD>
3.394

$$$$
lig.pdb
 OpenBabel11021811503D
libRbt.so/2013.1/901 2013/11/27
 18 19  0  0  0  0  0  0  0  0999 V2000
  -15.2333   16.0700    4.2619 C   0  0  0  0  0  0  0  0  0  0  0  0
  -11.9404   12.9265    2.5862 N   0  0  0  0  0  0  0  0  0  0  0  0
   -7.9796   15.7666    3.7861 C   0  0  0  0  0  0  0  0  0  0  0  0
   -3.7388   18.1126    2.9684 O   0  0  0  0  0  0  0  0  0  0  0  0
   -4.8588   17.6538    2.2240 C   0  0  0  0  0  0  0  0  0  0  0  0
   -6.1678   18.1353    2.8795 C   0  0  0  0  0  0  0  0  0  0  0  0
   -9.2072   16.7856    0.3998 C   0  0  0  0  0  0  0  0  0  0  0  0
   -7.9397   17.9614    0.5221 S   0  0  0  0  0  0  0  0  0  0  0  0
   -7.3211   17.5099    2.1265 C   0  0  0  0  0  0  0  0  0  0  0  0
   -8.1598   16.4731    2.4528 C   0  0  0  0  0  0  0  0  0  0  0  0
   -9.1224   16.1224    1.5460 N   0  0  0  0  0  0  0  0  0  0  0  0
  -10.0728   14.9846    1.8109 C   0  0  0  0  0  0  0  0  0  0  0  0
  -12.3126   14.2523    2.8081 C   0  0  0  0  0  0  0  0  0  0  0  0
  -13.5216   14.5318    3.3843 N   0  0  0  0  0  0  0  0  0  0  0  0
  -13.9000   15.7928    3.6092 C   0  0  0  0  0  0  0  0  0  0  0  0
  -13.1047   16.8122    3.2722 N   0  0  0  0  0  0  0  0  0  0  0  0
  -11.8893   16.6119    2.6995 C   0  0  0  0  0  0  0  0  0  0  0  0
  -11.4344   15.3134    2.4446 C   0  0  0  0  0  0  0  0  0  0  0  0
  5  4  1  0  0  0  0
  5  6  1  0  0  0  0
  7  8  2  0  0  0  0
  7 11  1  0  0  0  0
  8  9  1  0  0  0  0
  9 10  2  0  0  0  0
  9  6  1  0  0  0  0
 10  3  1  0  0  0  0
 11 12  1  0  0  0  0
 11 10  1  0  0  0  0
 12 18  1  0  0  0  0
 13  2  1  0  0  0  0
 13 14  2  0  0  0  0
 15 14  1  0  0  0  0
 15  1  1  0  0  0  0
 16 15  2  0  0  0  0
 17 18  2  0  0  0  0
 17 16  1  0  0  0  0
 18 13  1  0  0  0  0
M  END
>  <CHROM.1>
-174.63102837,-74.94878910,-87.21881914,-174.94684378,-9.68273274,16.35411134
2.42109083,2.78878795,0.03308184,2.61107625

>  <Name>
lig.pdb

>  <RI>
0

>  <Rbt.Current_Directory>
/home/itssahil/PROJECTS/Mol_Feturizer/New_Systems/rnas/4nyg

>  <Rbt.Executable>
rbdock ($Id: //depot/dev/client3/rdock/2013.1/src/exe/rbdock.cxx#4 $)

>  <Rbt.Library>
libRbt.so (2013.1, Build901 2013/11/27)

>  <Rbt.Parameter_File>
/export/apps/rDock/src/rDock_2013.1_src/data/scripts/dock_solv.prm

>  <Rbt.Receptor>
prm/pocket_docking_7.prm

>  <SCORE>
-21.496

>  <SCORE.INTER>
-21.0936

>  <SCORE.INTER.CONST>
1

>  <SCORE.INTER.POLAR>
0

>  <SCORE.INTER.ROT>
4

>  <SCORE.INTER.SOLV>
15.9973

>  <SCORE.INTER.VDW>
-25.6615

>  <SCORE.INTER.norm>
-1.17187

>  <SCORE.INTRA>
-0.402376

>  <SCORE.INTRA.DIHEDRAL>
0.363511

>  <SCORE.INTRA.DIHEDRAL.0>
3.20029

>  <SCORE.INTRA.POLAR>
0

>  <SCORE.INTRA.POLAR.0>
0

>  <SCORE.INTRA.REPUL>
0

>  <SCORE.INTRA.REPUL.0>
0

>  <SCORE.INTRA.SOLV>
-0.0296862

>  <SCORE.INTRA.SOLV.lig_0>
-19.3885

>  <SCORE.INTRA.VDW>
-0.569288

>  <SCORE.INTRA.VDW.0>
-1.12705

>  <SCORE.INTRA.norm>
-0.0223542

>  <SCORE.RESTR>
0

>  <SCORE.RESTR.CAVITY>
0

>  <SCORE.RESTR.norm>
0

>  <SCORE.SYSTEM>
0

>  <SCORE.SYSTEM.CONST>
0

>  <SCORE.SYSTEM.DIHEDRAL>
0

>  <SCORE.SYSTEM.SOLV>
0

>  <SCORE.SYSTEM.norm>
0

>  <SCORE.heavy>
18

>  <SCORE.norm>
-1.19422

>  <RMSD>
3.396

$$$$
lig.pdb
 OpenBabel11021811503D
libRbt.so/2013.1/901 2013/11/27
 18 19  0  0  0  0  0  0  0  0999 V2000
  -14.2925   15.1762    3.5688 C   0  0  0  0  0  0  0  0  0  0  0  0
  -12.2965   11.1119    1.8283 N   0  0  0  0  0  0  0  0  0  0  0  0
   -6.8004   11.0696    2.0901 C   0  0  0  0  0  0  0  0  0  0  0  0
   -4.2441   14.1936    2.1601 O   0  0  0  0  0  0  0  0  0  0  0  0
   -4.0177   13.9395    0.7806 C   0  0  0  0  0  0  0  0  0  0  0  0
   -4.7919   12.6834    0.3360 C   0  0  0  0  0  0  0  0  0  0  0  0
   -8.7691   13.8460    0.5321 C   0  0  0  0  0  0  0  0  0  0  0  0
   -7.2404   14.2553   -0.1748 S   0  0  0  0  0  0  0  0  0  0  0  0
   -6.2667   12.9510    0.5401 C   0  0  0  0  0  0  0  0  0  0  0  0
   -7.2115   12.2928    1.2878 C   0  0  0  0  0  0  0  0  0  0  0  0
   -8.4913   12.7763    1.2663 N   0  0  0  0  0  0  0  0  0  0  0  0
   -9.5963   12.1064    2.0399 C   0  0  0  0  0  0  0  0  0  0  0  0
  -12.1222   12.4067    2.3168 C   0  0  0  0  0  0  0  0  0  0  0  0
  -13.2124   13.1474    2.6837 N   0  0  0  0  0  0  0  0  0  0  0  0
  -13.0717   14.3887    3.1564 C   0  0  0  0  0  0  0  0  0  0  0  0
  -11.8594   14.9369    3.2786 N   0  0  0  0  0  0  0  0  0  0  0  0
  -10.7314   14.2611    2.9376 C   0  0  0  0  0  0  0  0  0  0  0  0
  -10.8134   12.9549    2.4424 C   0  0  0  0  0  0  0  0  0  0  0  0
  5  4  1  0  0  0  0
  5  6  1  0  0  0  0
  7  8  2  0  0  0  0
  7 11  1  0  0  0  0
  8  9  1  0  0  0  0
  9 10  2  0  0  0  0
  9  6  1  0  0  0  0
 10  3  1  0  0  0  0
 11 12  1  0  0  0  0
 11 10  1  0  0  0  0
 12 18  1  0  0  0  0
 13  2  1  0  0  0  0
 13 14  2  0  0  0  0
 15 14  1  0  0  0  0
 15  1  1  0  0  0  0
 16 15  2  0  0  0  0
 17 18  2  0  0  0  0
 17 16  1  0  0  0  0
 18 13  1  0  0  0  0
M  END
>  <CHROM.1>
61.65400782,58.53769637,-25.35889480,137.74485849,-9.01891332,13.32866258
1.70538063,-3.07112838,-0.26555554,-3.05563928

>  <Name>
lig.pdb

>  <RI>
0

>  <Rbt.Current_Directory>
/home/itssahil/PROJECTS/Mol_Feturizer/New_Systems/rnas/4nyg

>  <Rbt.Executable>
rbdock ($Id: //depot/dev/client3/rdock/2013.1/src/exe/rbdock.cxx#4 $)

>  <Rbt.Library>
libRbt.so (2013.1, Build901 2013/11/27)

>  <Rbt.Parameter_File>
/export/apps/rDock/src/rDock_2013.1_src/data/scripts/dock_solv.prm

>  <Rbt.Receptor>
prm/pocket_docking_4.prm

>  <SCORE>
-21.581

>  <SCORE.INTER>
-21.8207

>  <SCORE.INTER.CONST>
1

>  <SCORE.INTER.POLAR>
0

>  <SCORE.INTER.ROT>
4

>  <SCORE.INTER.SOLV>
16.165

>  <SCORE.INTER.VDW>
-26.2021

>  <SCORE.INTER.norm>
-1.21226

>  <SCORE.INTRA>
0.239677

>  <SCORE.INTRA.DIHEDRAL>
-0.00117036

>  <SCORE.INTRA.DIHEDRAL.0>
3.20029

>  <SCORE.INTRA.POLAR>
0

>  <SCORE.INTRA.POLAR.0>
0

>  <SCORE.INTRA.REPUL>
0

>  <SCORE.INTRA.REPUL.0>
0

>  <SCORE.INTRA.SOLV>
0.536347

>  <SCORE.INTRA.SOLV.lig_0>
-19.3885

>  <SCORE.INTRA.VDW>
-0.0279119

>  <SCORE.INTRA.VDW.0>
-1.12705

>  <SCORE.INTRA.norm>
0.0133154

>  <SCORE.RESTR>
0

>  <SCORE.RESTR.CAVITY>
0

>  <SCORE.RESTR.norm>
0

>  <SCORE.SYSTEM>
0

>  <SCORE.SYSTEM.CONST>
0

>  <SCORE.SYSTEM.DIHEDRAL>
0

>  <SCORE.SYSTEM.SOLV>
0

>  <SCORE.SYSTEM.norm>
0

>  <SCORE.heavy>
18

>  <SCORE.norm>
-1.19894

>  <RMSD>
3.403

$$$$
lig.pdb
 OpenBabel11021811503D
libRbt.so/2013.1/901 2013/11/27
 18 19  0  0  0  0  0  0  0  0999 V2000
  -14.2770   15.1707    3.5947 C   0  0  0  0  0  0  0  0  0  0  0  0
  -12.3054   11.1076    1.8237 N   0  0  0  0  0  0  0  0  0  0  0  0
   -6.8028   11.0666    2.0964 C   0  0  0  0  0  0  0  0  0  0  0  0
   -4.2625   14.0657    2.3096 O   0  0  0  0  0  0  0  0  0  0  0  0
   -4.0092   13.9097    0.9202 C   0  0  0  0  0  0  0  0  0  0  0  0
   -4.7786   12.6923    0.3716 C   0  0  0  0  0  0  0  0  0  0  0  0
   -8.7615   13.8420    0.5241 C   0  0  0  0  0  0  0  0  0  0  0  0
   -7.2258   14.2584   -0.1631 S   0  0  0  0  0  0  0  0  0  0  0  0
   -6.2566   12.9547    0.5590 C   0  0  0  0  0  0  0  0  0  0  0  0
   -7.2082   12.2912    1.2933 C   0  0  0  0  0  0  0  0  0  0  0  0
   -8.4891   12.7707    1.2581 N   0  0  0  0  0  0  0  0  0  0  0  0
   -9.6011   12.0948    2.0162 C   0  0  0  0  0  0  0  0  0  0  0  0
  -12.1240   12.4002    2.3152 C   0  0  0  0  0  0  0  0  0  0  0  0
  -13.2092   13.1424    2.6937 N   0  0  0  0  0  0  0  0  0  0  0  0
  -13.0616   14.3816    3.1694 C   0  0  0  0  0  0  0  0  0  0  0  0
  -11.8469   14.9265    3.2833 N   0  0  0  0  0  0  0  0  0  0  0  0
  -10.7235   14.2492    2.9307 C   0  0  0  0  0  0  0  0  0  0  0  0
  -10.8128   12.9449    2.4318 C   0  0  0  0  0  0  0  0  0  0  0  0
  5  4  1  0  0  0  0
  5  6  1  0  0  0  0
  7  8  2  0  0  0  0
  7 11  1  0  0  0  0
  8  9  1  0  0  0  0
  9 10  2  0  0  0  0
  9  6  1  0  0  0  0
 10  3  1  0  0  0  0
 11 12  1  0  0  0  0
 11 10  1  0  0  0  0
 12 18  1  0  0  0  0
 13  2  1  0  0  0  0
 13 14  2  0  0  0  0
 15 14  1  0  0  0  0
 15  1  1  0  0  0  0
 16 15  2  0  0  0  0
 17 18  2  0  0  0  0
 17 16  1  0  0  0  0
 18 13  1  0  0  0  0
M  END
>  <CHROM.1>
61.92373336,62.40693822,-26.57002160,138.86546968,-9.01432845,13.31589764
1.72638603,-3.06522519,-0.25726708,-3.04279268

>  <Name>
lig.pdb

>  <RI>
0

>  <Rbt.Current_Directory>
/home/itssahil/PROJECTS/Mol_Feturizer/New_Systems/rnas/4nyg

>  <Rbt.Executable>
rbdock ($Id: //depot/dev/client3/rdock/2013.1/src/exe/rbdock.cxx#4 $)

>  <Rbt.Library>
libRbt.so (2013.1, Build901 2013/11/27)

>  <Rbt.Parameter_File>
/export/apps/rDock/src/rDock_2013.1_src/data/scripts/dock_solv.prm

>  <Rbt.Receptor>
prm/pocket_docking_4.prm

>  <SCORE>
-21.6018

>  <SCORE.INTER>
-21.806

>  <SCORE.INTER.CONST>
1

>  <SCORE.INTER.POLAR>
0

>  <SCORE.INTER.ROT>
4

>  <SCORE.INTER.SOLV>
16.1137

>  <SCORE.INTER.VDW>
-26.1752

>  <SCORE.INTER.norm>
-1.21144

>  <SCORE.INTRA>
0.204159

>  <SCORE.INTRA.DIHEDRAL>
0.00778736

>  <SCORE.INTRA.DIHEDRAL.0>
3.20029

>  <SCORE.INTRA.POLAR>
0

>  <SCORE.INTRA.POLAR.0>
0

>  <SCORE.INTRA.REPUL>
0

>  <SCORE.INTRA.REPUL.0>
0

>  <SCORE.INTRA.SOLV>
0.546784

>  <SCORE.INTRA.SOLV.lig_0>
-19.3885

>  <SCORE.INTRA.VDW>
-0.0731265

>  <SCORE.INTRA.VDW.0>
-1.12705

>  <SCORE.INTRA.norm>
0.0113422

>  <SCORE.RESTR>
0

>  <SCORE.RESTR.CAVITY>
0

>  <SCORE.RESTR.norm>
0

>  <SCORE.SYSTEM>
0

>  <SCORE.SYSTEM.CONST>
0

>  <SCORE.SYSTEM.DIHEDRAL>
0

>  <SCORE.SYSTEM.SOLV>
0

>  <SCORE.SYSTEM.norm>
0

>  <SCORE.heavy>
18

>  <SCORE.norm>
-1.2001

>  <RMSD>
3.406

$$$$
lig.pdb
 OpenBabel11021811503D
libRbt.so/2013.1/901 2013/11/27
 18 19  0  0  0  0  0  0  0  0999 V2000
  -14.4523   14.5122    3.3860 C   0  0  0  0  0  0  0  0  0  0  0  0
  -11.1504   11.2031    2.0898 N   0  0  0  0  0  0  0  0  0  0  0  0
   -8.2122   14.6342   -0.2461 C   0  0  0  0  0  0  0  0  0  0  0  0
   -6.9853   18.5268    1.5582 O   0  0  0  0  0  0  0  0  0  0  0  0
   -6.8412   18.0440    0.2296 C   0  0  0  0  0  0  0  0  0  0  0  0
   -5.9838   16.7635    0.2180 C   0  0  0  0  0  0  0  0  0  0  0  0
   -7.2540   14.3754    3.3631 C   0  0  0  0  0  0  0  0  0  0  0  0
   -6.1469   15.6421    2.9462 S   0  0  0  0  0  0  0  0  0  0  0  0
   -6.5717   15.8023    1.2273 C   0  0  0  0  0  0  0  0  0  0  0  0
   -7.5473   14.8443    1.1040 C   0  0  0  0  0  0  0  0  0  0  0  0
   -7.8775   14.1237    2.2192 N   0  0  0  0  0  0  0  0  0  0  0  0
   -8.9499   13.0669    2.1816 C   0  0  0  0  0  0  0  0  0  0  0  0
  -11.4376   12.5239    2.4340 C   0  0  0  0  0  0  0  0  0  0  0  0
  -12.7247   12.8870    2.7224 N   0  0  0  0  0  0  0  0  0  0  0  0
  -13.0250   14.1447    3.0569 C   0  0  0  0  0  0  0  0  0  0  0  0
  -12.0720   15.0795    3.1141 N   0  0  0  0  0  0  0  0  0  0  0  0
  -10.7720   14.7927    2.8443 C   0  0  0  0  0  0  0  0  0  0  0  0
  -10.3939   13.4916    2.4943 C   0  0  0  0  0  0  0  0  0  0  0  0
  5  4  1  0  0  0  0
  5  6  1  0  0  0  0
  7  8  2  0  0  0  0
  7 11  1  0  0  0  0
  8  9  1  0  0  0  0
  9 10  2  0  0  0  0
  9  6  1  0  0  0  0
 10  3  1  0  0  0  0
 11 12  1  0  0  0  0
 11 10  1  0  0  0  0
 12 18  1  0  0  0  0
 13  2  1  0  0  0  0
 13 14  2  0  0  0  0
 15 14  1  0  0  0  0
 15  1  1  0  0  0  0
 16 15  2  0  0  0  0
 17 18  2  0  0  0  0
 17 16  1  0  0  0  0
 18 13  1  0  0  0  0
M  END
>  <CHROM.1>
51.70164051,-91.02949149,88.79138228,178.40352591,-9.11748905,14.80697889
2.09775782,2.64785438,-0.17668137,3.02363631

>  <Name>
lig.pdb

>  <RI>
0

>  <Rbt.Current_Directory>
/home/itssahil/PROJECTS/Mol_Feturizer/New_Systems/rnas/4nyg

>  <Rbt.Executable>
rbdock ($Id: //depot/dev/client3/rdock/2013.1/src/exe/rbdock.cxx#4 $)

>  <Rbt.Library>
libRbt.so (2013.1, Build901 2013/11/27)

>  <Rbt.Parameter_File>
/export/apps/rDock/src/rDock_2013.1_src/data/scripts/dock_solv.prm

>  <Rbt.Receptor>
prm/blind_docking_20.prm

>  <SCORE>
-14.1562

>  <SCORE.INTER>
-16.2335

>  <SCORE.INTER.CONST>
1

>  <SCORE.INTER.POLAR>
0

>  <SCORE.INTER.ROT>
4

>  <SCORE.INTER.SOLV>
13.7631

>  <SCORE.INTER.VDW>
-21.6767

>  <SCORE.INTER.norm>
-0.901862

>  <SCORE.INTRA>
0.420703

>  <SCORE.INTRA.DIHEDRAL>
1.67224

>  <SCORE.INTRA.DIHEDRAL.0>
3.20029

>  <SCORE.INTRA.POLAR>
0

>  <SCORE.INTRA.POLAR.0>
0

>  <SCORE.INTRA.REPUL>
0

>  <SCORE.INTRA.REPUL.0>
0

>  <SCORE.INTRA.SOLV>
0.495703

>  <SCORE.INTRA.SOLV.lig_0>
-19.3885

>  <SCORE.INTRA.VDW>
-0.663267

>  <SCORE.INTRA.VDW.0>
-1.12705

>  <SCORE.INTRA.norm>
0.0233724

>  <SCORE.RESTR>
1.65659

>  <SCORE.RESTR.CAVITY>
1.65659

>  <SCORE.RESTR.norm>
0.0920326

>  <SCORE.SYSTEM>
0

>  <SCORE.SYSTEM.CONST>
0

>  <SCORE.SYSTEM.DIHEDRAL>
0

>  <SCORE.SYSTEM.SOLV>
0

>  <SCORE.SYSTEM.norm>
0

>  <SCORE.heavy>
18

>  <SCORE.norm>
-0.786457

>  <RMSD>
3.412

$$$$
lig.pdb
 OpenBabel11021811503D
libRbt.so/2013.1/901 2013/11/27
 18 19  0  0  0  0  0  0  0  0999 V2000
  -15.2389   16.1394    4.2863 C   0  0  0  0  0  0  0  0  0  0  0  0
  -11.7326   12.9750    3.1799 N   0  0  0  0  0  0  0  0  0  0  0  0
   -8.0744   15.8024    3.7960 C   0  0  0  0  0  0  0  0  0  0  0  0
   -3.8080   18.0820    2.9971 O   0  0  0  0  0  0  0  0  0  0  0  0
   -4.9088   17.5854    2.2484 C   0  0  0  0  0  0  0  0  0  0  0  0
   -6.2324   18.1225    2.8269 C   0  0  0  0  0  0  0  0  0  0  0  0
   -9.2120   16.6649    0.3357 C   0  0  0  0  0  0  0  0  0  0  0  0
   -7.9442   17.8425    0.4355 S   0  0  0  0  0  0  0  0  0  0  0  0
   -7.3682   17.4651    2.0745 C   0  0  0  0  0  0  0  0  0  0  0  0
   -8.2182   16.4463    2.4272 C   0  0  0  0  0  0  0  0  0  0  0  0
   -9.1586   16.0557    1.5133 N   0  0  0  0  0  0  0  0  0  0  0  0
  -10.1191   14.9334    1.8065 C   0  0  0  0  0  0  0  0  0  0  0  0
  -12.2243   14.2781    3.1051 C   0  0  0  0  0  0  0  0  0  0  0  0
  -13.4261   14.5855    3.6820 N   0  0  0  0  0  0  0  0  0  0  0  0
  -13.9174   15.8263    3.6260 C   0  0  0  0  0  0  0  0  0  0  0  0
  -13.2449   16.7967    3.0004 N   0  0  0  0  0  0  0  0  0  0  0  0
  -12.0444   16.5672    2.4076 C   0  0  0  0  0  0  0  0  0  0  0  0
  -11.4748   15.2894    2.4381 C   0  0  0  0  0  0  0  0  0  0  0  0
  5  4  1  0  0  0  0
  5  6  1  0  0  0  0
  7  8  2  0  0  0  0
  7 11  1  0  0  0  0
  8  9  1  0  0  0  0
  9 10  2  0  0  0  0
  9  6  1  0  0  0  0
 10  3  1  0  0  0  0
 11 12  1  0  0  0  0
 11 10  1  0  0  0  0
 12 18  1  0  0  0  0
 13  2  1  0  0  0  0
 13 14  2  0  0  0  0
 15 14  1  0  0  0  0
 15  1  1  0  0  0  0
 16 15  2  0  0  0  0
 17 18  2  0  0  0  0
 17 16  1  0  0  0  0
 18 13  1  0  0  0  0
M  END
>  <CHROM.1>
-174.93381446,-76.13897951,-89.46961053,-160.52798138,-9.70647082,16.32786258
2.43667774,2.80320232,0.10176398,2.35561971

>  <Name>
lig.pdb

>  <RI>
0

>  <Rbt.Current_Directory>
/home/itssahil/PROJECTS/Mol_Feturizer/New_Systems/rnas/4nyg

>  <Rbt.Executable>
rbdock ($Id: //depot/dev/client3/rdock/2013.1/src/exe/rbdock.cxx#4 $)

>  <Rbt.Library>
libRbt.so (2013.1, Build901 2013/11/27)

>  <Rbt.Parameter_File>
/export/apps/rDock/src/rDock_2013.1_src/data/scripts/dock_solv.prm

>  <Rbt.Receptor>
prm/pocket_docking_7.prm

>  <SCORE>
-21.718

>  <SCORE.INTER>
-21.3206

>  <SCORE.INTER.CONST>
1

>  <SCORE.INTER.POLAR>
0

>  <SCORE.INTER.ROT>
4

>  <SCORE.INTER.SOLV>
15.734

>  <SCORE.INTER.VDW>
-25.7251

>  <SCORE.INTER.norm>
-1.18448

>  <SCORE.INTRA>
-0.397413

>  <SCORE.INTRA.DIHEDRAL>
0.411821

>  <SCORE.INTRA.DIHEDRAL.0>
3.20029

>  <SCORE.INTRA.POLAR>
0

>  <SCORE.INTRA.POLAR.0>
0

>  <SCORE.INTRA.REPUL>
0

>  <SCORE.INTRA.REPUL.0>
0

>  <SCORE.INTRA.SOLV>
-0.0194255

>  <SCORE.INTRA.SOLV.lig_0>
-19.3885

>  <SCORE.INTRA.VDW>
-0.59361

>  <SCORE.INTRA.VDW.0>
-1.12705

>  <SCORE.INTRA.norm>
-0.0220785

>  <SCORE.RESTR>
0

>  <SCORE.RESTR.CAVITY>
0

>  <SCORE.RESTR.norm>
0

>  <SCORE.SYSTEM>
0

>  <SCORE.SYSTEM.CONST>
0

>  <SCORE.SYSTEM.DIHEDRAL>
0

>  <SCORE.SYSTEM.SOLV>
0

>  <SCORE.SYSTEM.norm>
0

>  <SCORE.heavy>
18

>  <SCORE.norm>
-1.20655

>  <RMSD>
3.424

$$$$
lig.pdb
 OpenBabel11021811503D
libRbt.so/2013.1/901 2013/11/27
 18 19  0  0  0  0  0  0  0  0999 V2000
  -14.9513   15.6647    4.0282 C   0  0  0  0  0  0  0  0  0  0  0  0
  -11.2629   12.8610    2.5904 N   0  0  0  0  0  0  0  0  0  0  0  0
   -6.8927   15.7113    2.2451 C   0  0  0  0  0  0  0  0  0  0  0  0
   -3.9005   18.9999   -0.5191 O   0  0  0  0  0  0  0  0  0  0  0  0
   -5.1844   18.3933   -0.5701 C   0  0  0  0  0  0  0  0  0  0  0  0
   -5.7685   18.2618    0.8499 C   0  0  0  0  0  0  0  0  0  0  0  0
   -9.6796   17.0705    0.1482 C   0  0  0  0  0  0  0  0  0  0  0  0
   -8.5100   18.2858   -0.2506 S   0  0  0  0  0  0  0  0  0  0  0  0
   -7.1573   17.6747    0.7279 C   0  0  0  0  0  0  0  0  0  0  0  0
   -7.7249   16.5645    1.3025 C   0  0  0  0  0  0  0  0  0  0  0  0
   -9.0251   16.2781    0.9874 N   0  0  0  0  0  0  0  0  0  0  0  0
   -9.7221   15.0696    1.5548 C   0  0  0  0  0  0  0  0  0  0  0  0
  -11.8192   14.1364    2.6856 C   0  0  0  0  0  0  0  0  0  0  0  0
  -13.0479   14.3010    3.2645 N   0  0  0  0  0  0  0  0  0  0  0  0
  -13.6010   15.5121    3.3695 C   0  0  0  0  0  0  0  0  0  0  0  0
  -12.9655   16.5927    2.9070 N   0  0  0  0  0  0  0  0  0  0  0  0
  -11.7419   16.5074    2.3233 C   0  0  0  0  0  0  0  0  0  0  0  0
  -11.1081   15.2670    2.1901 C   0  0  0  0  0  0  0  0  0  0  0  0
  5  4  1  0  0  0  0
  5  6  1  0  0  0  0
  7  8  2  0  0  0  0
  7 11  1  0  0  0  0
  8  9  1  0  0  0  0
  9 10  2  0  0  0  0
  9  6  1  0  0  0  0
 10  3  1  0  0  0  0
 11 12  1  0  0  0  0
 11 10  1  0  0  0  0
 12 18  1  0  0  0  0
 13  2  1  0  0  0  0
 13 14  2  0  0  0  0
 15 14  1  0  0  0  0
 15  1  1  0  0  0  0
 16 15  2  0  0  0  0
 17 18  2  0  0  0  0
 17 16  1  0  0  0  0
 18 13  1  0  0  0  0
M  END
>  <CHROM.1>
177.27733556,-54.79029331,-50.48518089,177.37944633,-9.52455332,16.45350466
1.50903045,2.62634364,-0.21855524,2.73282824

>  <Name>
lig.pdb

>  <RI>
0

>  <Rbt.Current_Directory>
/home/itssahil/PROJECTS/Mol_Feturizer/New_Systems/rnas/4nyg

>  <Rbt.Executable>
rbdock ($Id: //depot/dev/client3/rdock/2013.1/src/exe/rbdock.cxx#4 $)

>  <Rbt.Library>
libRbt.so (2013.1, Build901 2013/11/27)

>  <Rbt.Parameter_File>
/export/apps/rDock/src/rDock_2013.1_src/data/scripts/dock_solv.prm

>  <Rbt.Receptor>
prm/blind_docking_60.prm

>  <SCORE>
-20.238

>  <SCORE.INTER>
-20.426

>  <SCORE.INTER.CONST>
1

>  <SCORE.INTER.POLAR>
0

>  <SCORE.INTER.ROT>
4

>  <SCORE.INTER.SOLV>
13.7296

>  <SCORE.INTER.VDW>
-24.4606

>  <SCORE.INTER.norm>
-1.13478

>  <SCORE.INTRA>
0.187992

>  <SCORE.INTRA.DIHEDRAL>
0.0273286

>  <SCORE.INTRA.DIHEDRAL.0>
3.20029

>  <SCORE.INTRA.POLAR>
0

>  <SCORE.INTRA.POLAR.0>
0

>  <SCORE.INTRA.REPUL>
0

>  <SCORE.INTRA.REPUL.0>
0

>  <SCORE.INTRA.SOLV>
0.0177133

>  <SCORE.INTRA.SOLV.lig_0>
-19.3885

>  <SCORE.INTRA.VDW>
0.165471

>  <SCORE.INTRA.VDW.0>
-1.12705

>  <SCORE.INTRA.norm>
0.010444

>  <SCORE.RESTR>
0

>  <SCORE.RESTR.CAVITY>
0

>  <SCORE.RESTR.norm>
0

>  <SCORE.SYSTEM>
0

>  <SCORE.SYSTEM.CONST>
0

>  <SCORE.SYSTEM.DIHEDRAL>
0

>  <SCORE.SYSTEM.SOLV>
0

>  <SCORE.SYSTEM.norm>
0

>  <SCORE.heavy>
18

>  <SCORE.norm>
-1.12434

>  <RMSD>
3.427

$$$$
lig.pdb
 OpenBabel11021811503D
libRbt.so/2013.1/901 2013/11/27
 18 19  0  0  0  0  0  0  0  0999 V2000
  -14.5549   15.9462    3.6470 C   0  0  0  0  0  0  0  0  0  0  0  0
   -9.8031   15.9731    2.6713 N   0  0  0  0  0  0  0  0  0  0  0  0
   -7.0460   14.3269    3.4408 C   0  0  0  0  0  0  0  0  0  0  0  0
   -6.3324   17.5910    1.9910 O   0  0  0  0  0  0  0  0  0  0  0  0
   -5.5324   17.0596    0.9438 C   0  0  0  0  0  0  0  0  0  0  0  0
   -5.3194   15.5474    1.1507 C   0  0  0  0  0  0  0  0  0  0  0  0
   -8.9642   13.7706    0.2750 C   0  0  0  0  0  0  0  0  0  0  0  0
   -7.6137   14.5859   -0.4428 S   0  0  0  0  0  0  0  0  0  0  0  0
   -6.6665   14.8690    1.0348 C   0  0  0  0  0  0  0  0  0  0  0  0
   -7.4832   14.3089    1.9857 C   0  0  0  0  0  0  0  0  0  0  0  0
   -8.6606   13.7519    1.5666 N   0  0  0  0  0  0  0  0  0  0  0  0
   -9.6084   13.0975    2.5369 C   0  0  0  0  0  0  0  0  0  0  0  0
  -10.9658   15.2365    2.8970 C   0  0  0  0  0  0  0  0  0  0  0  0
  -12.1416   15.8851    3.1591 N   0  0  0  0  0  0  0  0  0  0  0  0
  -13.2688   15.2024    3.3764 C   0  0  0  0  0  0  0  0  0  0  0  0
  -13.2720   13.8666    3.3455 N   0  0  0  0  0  0  0  0  0  0  0  0
  -12.1441   13.1547    3.0885 C   0  0  0  0  0  0  0  0  0  0  0  0
  -10.9333   13.8132    2.8465 C   0  0  0  0  0  0  0  0  0  0  0  0
  5  4  1  0  0  0  0
  5  6  1  0  0  0  0
  7  8  2  0  0  0  0
  7 11  1  0  0  0  0
  8  9  1  0  0  0  0
  9 10  2  0  0  0  0
  9  6  1  0  0  0  0
 10  3  1  0  0  0  0
 11 12  1  0  0  0  0
 11 10  1  0  0  0  0
 12 18  1  0  0  0  0
 13  2  1  0  0  0  0
 13 14  2  0  0  0  0
 15 14  1  0  0  0  0
 15  1  1  0  0  0  0
 16 15  2  0  0  0  0
 17 18  2  0  0  0  0
 17 16  1  0  0  0  0
 18 13  1  0  0  0  0
M  END
>  <CHROM.1>
64.58748486,73.37305908,-72.02209419,-35.19500145,-9.29711634,14.90832362
2.01754068,-3.11443367,-0.35689581,-2.74435306

>  <Name>
lig.pdb

>  <RI>
0

>  <Rbt.Current_Directory>
/home/itssahil/PROJECTS/Mol_Feturizer/New_Systems/rnas/4nyg

>  <Rbt.Executable>
rbdock ($Id: //depot/dev/client3/rdock/2013.1/src/exe/rbdock.cxx#4 $)

>  <Rbt.Library>
libRbt.so (2013.1, Build901 2013/11/27)

>  <Rbt.Parameter_File>
/export/apps/rDock/src/rDock_2013.1_src/data/scripts/dock_solv.prm

>  <Rbt.Receptor>
prm/pocket_docking_8.prm

>  <SCORE>
-20.1694

>  <SCORE.INTER>
-20.288

>  <SCORE.INTER.CONST>
1

>  <SCORE.INTER.POLAR>
0

>  <SCORE.INTER.ROT>
4

>  <SCORE.INTER.SOLV>
11.7448

>  <SCORE.INTER.VDW>
-23.7069

>  <SCORE.INTER.norm>
-1.12711

>  <SCORE.INTRA>
0.118584

>  <SCORE.INTRA.DIHEDRAL>
0.270086

>  <SCORE.INTRA.DIHEDRAL.0>
3.20029

>  <SCORE.INTRA.POLAR>
0

>  <SCORE.INTRA.POLAR.0>
0

>  <SCORE.INTRA.REPUL>
0

>  <SCORE.INTRA.REPUL.0>
0

>  <SCORE.INTRA.SOLV>
2.23672

>  <SCORE.INTRA.SOLV.lig_0>
-19.3885

>  <SCORE.INTRA.VDW>
-1.13482

>  <SCORE.INTRA.VDW.0>
-1.12705

>  <SCORE.INTRA.norm>
0.00658799

>  <SCORE.RESTR>
0

>  <SCORE.RESTR.CAVITY>
0

>  <SCORE.RESTR.norm>
0

>  <SCORE.SYSTEM>
0

>  <SCORE.SYSTEM.CONST>
0

>  <SCORE.SYSTEM.DIHEDRAL>
0

>  <SCORE.SYSTEM.SOLV>
0

>  <SCORE.SYSTEM.norm>
0

>  <SCORE.heavy>
18

>  <SCORE.norm>
-1.12052

>  <RMSD>
3.434

$$$$
lig.pdb
 OpenBabel11021811503D
libRbt.so/2013.1/901 2013/11/27
 18 19  0  0  0  0  0  0  0  0999 V2000
  -15.0743   15.9995    4.1447 C   0  0  0  0  0  0  0  0  0  0  0  0
  -12.0919   12.5468    2.4964 N   0  0  0  0  0  0  0  0  0  0  0  0
   -7.0700   13.9715    1.5064 C   0  0  0  0  0  0  0  0  0  0  0  0
   -5.5064   18.7573    0.2997 O   0  0  0  0  0  0  0  0  0  0  0  0
   -4.9807   17.5772    0.8912 C   0  0  0  0  0  0  0  0  0  0  0  0
   -5.5303   16.3301    0.1716 C   0  0  0  0  0  0  0  0  0  0  0  0
   -9.6320   16.5892    0.7348 C   0  0  0  0  0  0  0  0  0  0  0  0
   -8.2614   17.4551    0.1217 S   0  0  0  0  0  0  0  0  0  0  0  0
   -7.0112   16.2392    0.4666 C   0  0  0  0  0  0  0  0  0  0  0  0
   -7.7599   15.2443    1.0450 C   0  0  0  0  0  0  0  0  0  0  0  0
   -9.1064   15.4519    1.1717 N   0  0  0  0  0  0  0  0  0  0  0  0
  -10.0080   14.4075    1.7753 C   0  0  0  0  0  0  0  0  0  0  0  0
  -12.3296   13.9021    2.7249 C   0  0  0  0  0  0  0  0  0  0  0  0
  -13.5140   14.3002    3.2823 N   0  0  0  0  0  0  0  0  0  0  0  0
  -13.7646   15.5916    3.5131 C   0  0  0  0  0  0  0  0  0  0  0  0
  -12.8623   16.5262    3.2006 N   0  0  0  0  0  0  0  0  0  0  0  0
  -11.6635   16.2062    2.6477 C   0  0  0  0  0  0  0  0  0  0  0  0
  -11.3401   14.8698    2.3878 C   0  0  0  0  0  0  0  0  0  0  0  0
  5  4  1  0  0  0  0
  5  6  1  0  0  0  0
  7  8  2  0  0  0  0
  7 11  1  0  0  0  0
  8  9  1  0  0  0  0
  9 10  2  0  0  0  0
  9  6  1  0  0  0  0
 10  3  1  0  0  0  0
 11 12  1  0  0  0  0
 11 10  1  0  0  0  0
 12 18  1  0  0  0  0
 13  2  1  0  0  0  0
 13 14  2  0  0  0  0
 15 14  1  0  0  0  0
 15  1  1  0  0  0  0
 16 15  2  0  0  0  0
 17 18  2  0  0  0  0
 17 16  1  0  0  0  0
 18 13  1  0  0  0  0
M  END
>  <CHROM.1>
-67.82063962,58.07641565,-24.65063636,167.62135976,-9.69908875,15.81956469
1.68281593,2.83957296,-0.35555382,3.05055780

>  <Name>
lig.pdb

>  <RI>
0

>  <Rbt.Current_Directory>
/home/itssahil/PROJECTS/Mol_Feturizer/New_Systems/rnas/4nyg

>  <Rbt.Executable>
rbdock ($Id: //depot/dev/client3/rdock/2013.1/src/exe/rbdock.cxx#4 $)

>  <Rbt.Library>
libRbt.so (2013.1, Build901 2013/11/27)

>  <Rbt.Parameter_File>
/export/apps/rDock/src/rDock_2013.1_src/data/scripts/dock_solv.prm

>  <Rbt.Receptor>
prm/pocket_docking_4.prm

>  <SCORE>
-18.8051

>  <SCORE.INTER>
-20.3145

>  <SCORE.INTER.CONST>
1

>  <SCORE.INTER.POLAR>
0

>  <SCORE.INTER.ROT>
4

>  <SCORE.INTER.SOLV>
13.4164

>  <SCORE.INTER.VDW>
-24.2818

>  <SCORE.INTER.norm>
-1.12858

>  <SCORE.INTRA>
1.50944

>  <SCORE.INTRA.DIHEDRAL>
0.218984

>  <SCORE.INTRA.DIHEDRAL.0>
3.20029

>  <SCORE.INTRA.POLAR>
0

>  <SCORE.INTRA.POLAR.0>
0

>  <SCORE.INTRA.REPUL>
0

>  <SCORE.INTRA.REPUL.0>
0

>  <SCORE.INTRA.SOLV>
0.483038

>  <SCORE.INTRA.SOLV.lig_0>
-19.3885

>  <SCORE.INTRA.VDW>
1.15843

>  <SCORE.INTRA.VDW.0>
-1.12705

>  <SCORE.INTRA.norm>
0.083858

>  <SCORE.RESTR>
0

>  <SCORE.RESTR.CAVITY>
0

>  <SCORE.RESTR.norm>
0

>  <SCORE.SYSTEM>
0

>  <SCORE.SYSTEM.CONST>
0

>  <SCORE.SYSTEM.DIHEDRAL>
0

>  <SCORE.SYSTEM.SOLV>
0

>  <SCORE.SYSTEM.norm>
0

>  <SCORE.heavy>
18

>  <SCORE.norm>
-1.04473

>  <RMSD>
3.441

$$$$
lig.pdb
 OpenBabel11021811503D
libRbt.so/2013.1/901 2013/11/27
 18 19  0  0  0  0  0  0  0  0999 V2000
  -14.3768   16.5878    3.3822 C   0  0  0  0  0  0  0  0  0  0  0  0
  -12.5221   12.2171    2.3875 N   0  0  0  0  0  0  0  0  0  0  0  0
   -6.9225   13.0217    3.1740 C   0  0  0  0  0  0  0  0  0  0  0  0
   -4.8789   12.1508   -0.5010 O   0  0  0  0  0  0  0  0  0  0  0  0
   -4.3912   12.6356    0.7424 C   0  0  0  0  0  0  0  0  0  0  0  0
   -4.9308   14.0541    1.0100 C   0  0  0  0  0  0  0  0  0  0  0  0
   -9.0111   14.1074    0.2635 C   0  0  0  0  0  0  0  0  0  0  0  0
   -7.4721   14.5049   -0.4275 S   0  0  0  0  0  0  0  0  0  0  0  0
   -6.4404   13.9991    0.9291 C   0  0  0  0  0  0  0  0  0  0  0  0
   -7.3801   13.5614    1.8293 C   0  0  0  0  0  0  0  0  0  0  0  0
   -8.6960   13.6300    1.4608 N   0  0  0  0  0  0  0  0  0  0  0  0
   -9.7931   13.1537    2.3761 C   0  0  0  0  0  0  0  0  0  0  0  0
  -12.3045   13.5736    2.6283 C   0  0  0  0  0  0  0  0  0  0  0  0
  -13.3676   14.4006    2.8685 N   0  0  0  0  0  0  0  0  0  0  0  0
  -13.1853   15.7026    3.1040 C   0  0  0  0  0  0  0  0  0  0  0  0
  -11.9568   16.2281    3.1070 N   0  0  0  0  0  0  0  0  0  0  0  0
  -10.8538   15.4686    2.8799 C   0  0  0  0  0  0  0  0  0  0  0  0
  -10.9796   14.0969    2.6334 C   0  0  0  0  0  0  0  0  0  0  0  0
  5  4  1  0  0  0  0
  5  6  1  0  0  0  0
  7  8  2  0  0  0  0
  7 11  1  0  0  0  0
  8  9  1  0  0  0  0
  9 10  2  0  0  0  0
  9  6  1  0  0  0  0
 10  3  1  0  0  0  0
 11 12  1  0  0  0  0
 11 10  1  0  0  0  0
 12 18  1  0  0  0  0
 13  2  1  0  0  0  0
 13 14  2  0  0  0  0
 15 14  1  0  0  0  0
 15  1  1  0  0  0  0
 16 15  2  0  0  0  0
 17 18  2  0  0  0  0
 17 16  1  0  0  0  0
 18 13  1  0  0  0  0
M  END
>  <CHROM.1>
55.35120769,-101.12616377,-51.16185663,136.81522736,-9.22706061,14.07221084
1.70354941,-3.04191264,-0.38809309,2.78182873

>  <Name>
lig.pdb

>  <RI>
0

>  <Rbt.Current_Directory>
/home/itssahil/PROJECTS/Mol_Feturizer/New_Systems/rnas/4nyg

>  <Rbt.Executable>
rbdock ($Id: //depot/dev/client3/rdock/2013.1/src/exe/rbdock.cxx#4 $)

>  <Rbt.Library>
libRbt.so (2013.1, Build901 2013/11/27)

>  <Rbt.Parameter_File>
/export/apps/rDock/src/rDock_2013.1_src/data/scripts/dock_solv.prm

>  <Rbt.Receptor>
prm/pocket_docking_4.prm

>  <SCORE>
-19.4559

>  <SCORE.INTER>
-20.3643

>  <SCORE.INTER.CONST>
1

>  <SCORE.INTER.POLAR>
0

>  <SCORE.INTER.ROT>
4

>  <SCORE.INTER.SOLV>
15.2787

>  <SCORE.INTER.VDW>
-24.9358

>  <SCORE.INTER.norm>
-1.13135

>  <SCORE.INTRA>
0.908423

>  <SCORE.INTRA.DIHEDRAL>
2.12904

>  <SCORE.INTRA.DIHEDRAL.0>
3.20029

>  <SCORE.INTRA.POLAR>
0

>  <SCORE.INTRA.POLAR.0>
0

>  <SCORE.INTRA.REPUL>
0

>  <SCORE.INTRA.REPUL.0>
0

>  <SCORE.INTRA.SOLV>
0.51476

>  <SCORE.INTRA.SOLV.lig_0>
-19.3885

>  <SCORE.INTRA.VDW>
-0.413477

>  <SCORE.INTRA.VDW.0>
-1.12705

>  <SCORE.INTRA.norm>
0.050468

>  <SCORE.RESTR>
0

>  <SCORE.RESTR.CAVITY>
0

>  <SCORE.RESTR.norm>
0

>  <SCORE.SYSTEM>
0

>  <SCORE.SYSTEM.CONST>
0

>  <SCORE.SYSTEM.DIHEDRAL>
0

>  <SCORE.SYSTEM.SOLV>
0

>  <SCORE.SYSTEM.norm>
0

>  <SCORE.heavy>
18

>  <SCORE.norm>
-1.08088

>  <RMSD>
3.444

$$$$
lig.pdb
 OpenBabel11021811503D
libRbt.so/2013.1/901 2013/11/27
 18 19  0  0  0  0  0  0  0  0999 V2000
  -14.7085   15.7910    3.8658 C   0  0  0  0  0  0  0  0  0  0  0  0
  -12.0913   12.0108    2.3189 N   0  0  0  0  0  0  0  0  0  0  0  0
   -8.1010   11.5838    3.4011 C   0  0  0  0  0  0  0  0  0  0  0  0
   -3.7078   14.2623    4.0367 O   0  0  0  0  0  0  0  0  0  0  0  0
   -4.1178   12.9040    3.9601 C   0  0  0  0  0  0  0  0  0  0  0  0
   -5.4819   12.7192    4.6528 C   0  0  0  0  0  0  0  0  0  0  0  0
   -7.9899   15.2108    2.4824 C   0  0  0  0  0  0  0  0  0  0  0  0
   -6.5097   15.1809    3.3836 S   0  0  0  0  0  0  0  0  0  0  0  0
   -6.5192   13.4629    3.8408 C   0  0  0  0  0  0  0  0  0  0  0  0
   -7.6879   13.0391    3.2584 C   0  0  0  0  0  0  0  0  0  0  0  0
   -8.4258   13.9604    2.5664 N   0  0  0  0  0  0  0  0  0  0  0  0
   -9.7105   13.5802    1.8786 C   0  0  0  0  0  0  0  0  0  0  0  0
  -12.1593   13.3768    2.5925 C   0  0  0  0  0  0  0  0  0  0  0  0
  -13.3244   13.9192    3.0618 N   0  0  0  0  0  0  0  0  0  0  0  0
  -13.4141   15.2238    3.3333 C   0  0  0  0  0  0  0  0  0  0  0  0
  -12.3654   16.0309    3.1489 N   0  0  0  0  0  0  0  0  0  0  0  0
  -11.1757   15.5636    2.6891 C   0  0  0  0  0  0  0  0  0  0  0  0
  -11.0176   14.2051    2.3929 C   0  0  0  0  0  0  0  0  0  0  0  0
  5  4  1  0  0  0  0
  5  6  1  0  0  0  0
  7  8  2  0  0  0  0
  7 11  1  0  0  0  0
  8  9  1  0  0  0  0
  9 10  2  0  0  0  0
  9  6  1  0  0  0  0
 10  3  1  0  0  0  0
 11 12  1  0  0  0  0
 11 10  1  0  0  0  0
 12 18  1  0  0  0  0
 13  2  1  0  0  0  0
 13 14  2  0  0  0  0
 15 14  1  0  0  0  0
 15  1  1  0  0  0  0
 16 15  2  0  0  0  0
 17 18  2  0  0  0  0
 17 16  1  0  0  0  0
 18 13  1  0  0  0  0
M  END
>  <CHROM.1>
66.97523258,-55.89173352,-66.05986619,-134.15102470,-9.10565309,14.07674204
3.19222140,-3.02300078,0.10983978,-3.05814240

>  <Name>
lig.pdb

>  <RI>
0

>  <Rbt.Current_Directory>
/home/itssahil/PROJECTS/Mol_Feturizer/New_Systems/rnas/4nyg

>  <Rbt.Executable>
rbdock ($Id: //depot/dev/client3/rdock/2013.1/src/exe/rbdock.cxx#4 $)

>  <Rbt.Library>
libRbt.so (2013.1, Build901 2013/11/27)

>  <Rbt.Parameter_File>
/export/apps/rDock/src/rDock_2013.1_src/data/scripts/dock_solv.prm

>  <Rbt.Receptor>
prm/pocket_docking_3.prm

>  <SCORE>
-16.9406

>  <SCORE.INTER>
-16.9159

>  <SCORE.INTER.CONST>
1

>  <SCORE.INTER.POLAR>
0

>  <SCORE.INTER.ROT>
4

>  <SCORE.INTER.SOLV>
11.6675

>  <SCORE.INTER.VDW>
-21.4331

>  <SCORE.INTER.norm>
-0.939773

>  <SCORE.INTRA>
-0.0247361

>  <SCORE.INTRA.DIHEDRAL>
0.111016

>  <SCORE.INTRA.DIHEDRAL.0>
3.20029

>  <SCORE.INTRA.POLAR>
0

>  <SCORE.INTRA.POLAR.0>
0

>  <SCORE.INTRA.REPUL>
0

>  <SCORE.INTRA.REPUL.0>
0

>  <SCORE.INTRA.SOLV>
0.549588

>  <SCORE.INTRA.SOLV.lig_0>
-19.3885

>  <SCORE.INTRA.VDW>
-0.355038

>  <SCORE.INTRA.VDW.0>
-1.12705

>  <SCORE.INTRA.norm>
-0.00137423

>  <SCORE.RESTR>
0

>  <SCORE.RESTR.CAVITY>
0

>  <SCORE.RESTR.norm>
0

>  <SCORE.SYSTEM>
0

>  <SCORE.SYSTEM.CONST>
0

>  <SCORE.SYSTEM.DIHEDRAL>
0

>  <SCORE.SYSTEM.SOLV>
0

>  <SCORE.SYSTEM.norm>
0

>  <SCORE.heavy>
18

>  <SCORE.norm>
-0.941147

>  <RMSD>
3.449

$$$$
lig.pdb
 OpenBabel11021811503D
libRbt.so/2013.1/901 2013/11/27
 18 19  0  0  0  0  0  0  0  0999 V2000
  -14.7475   16.2950    3.7154 C   0  0  0  0  0  0  0  0  0  0  0  0
  -12.4580   12.2266    2.3966 N   0  0  0  0  0  0  0  0  0  0  0  0
   -7.9819   15.3942    3.5867 C   0  0  0  0  0  0  0  0  0  0  0  0
   -6.6039   18.1256   -0.1300 O   0  0  0  0  0  0  0  0  0  0  0  0
   -6.3677   18.0606    1.2696 C   0  0  0  0  0  0  0  0  0  0  0  0
   -5.8777   16.6534    1.6627 C   0  0  0  0  0  0  0  0  0  0  0  0
   -8.6771   13.9655    0.1974 C   0  0  0  0  0  0  0  0  0  0  0  0
   -7.3419   14.9666   -0.2707 S   0  0  0  0  0  0  0  0  0  0  0  0
   -6.9735   15.6682    1.3207 C   0  0  0  0  0  0  0  0  0  0  0  0
   -7.9305   15.0706    2.1029 C   0  0  0  0  0  0  0  0  0  0  0  0
   -8.7952   14.1996    1.4981 N   0  0  0  0  0  0  0  0  0  0  0  0
   -9.8633   13.4833    2.2817 C   0  0  0  0  0  0  0  0  0  0  0  0
  -12.3865   13.5874    2.6942 C   0  0  0  0  0  0  0  0  0  0  0  0
  -13.5224   14.2695    3.0350 N   0  0  0  0  0  0  0  0  0  0  0  0
  -13.4798   15.5723    3.3265 C   0  0  0  0  0  0  0  0  0  0  0  0
  -12.3234   16.2406    3.2882 N   0  0  0  0  0  0  0  0  0  0  0  0
  -11.1549   15.6296    2.9616 C   0  0  0  0  0  0  0  0  0  0  0  0
  -11.1341   14.2650    2.6525 C   0  0  0  0  0  0  0  0  0  0  0  0
  5  4  1  0  0  0  0
  5  6  1  0  0  0  0
  7  8  2  0  0  0  0
  7 11  1  0  0  0  0
  8  9  1  0  0  0  0
  9 10  2  0  0  0  0
  9  6  1  0  0  0  0
 10  3  1  0  0  0  0
 11 12  1  0  0  0  0
 11 10  1  0  0  0  0
 12 18  1  0  0  0  0
 13  2  1  0  0  0  0
 13 14  2  0  0  0  0
 15 14  1  0  0  0  0
 15  1  1  0  0  0  0
 16 15  2  0  0  0  0
 17 18  2  0  0  0  0
 17 16  1  0  0  0  0
 18 13  1  0  0  0  0
M  END
>  <CHROM.1>
-61.99448089,80.78667744,-102.74171826,145.56568777,-9.66039374,15.23235430
1.91249199,3.00720650,-0.40657262,-2.88609781

>  <Name>
lig.pdb

>  <RI>
0

>  <Rbt.Current_Directory>
/home/itssahil/PROJECTS/Mol_Feturizer/New_Systems/rnas/4nyg

>  <Rbt.Executable>
rbdock ($Id: //depot/dev/client3/rdock/2013.1/src/exe/rbdock.cxx#4 $)

>  <Rbt.Library>
libRbt.so (2013.1, Build901 2013/11/27)

>  <Rbt.Parameter_File>
/export/apps/rDock/src/rDock_2013.1_src/data/scripts/dock_solv.prm

>  <Rbt.Receptor>
prm/pocket_docking_5.prm

>  <SCORE>
-20.5988

>  <SCORE.INTER>
-20.5982

>  <SCORE.INTER.CONST>
1

>  <SCORE.INTER.POLAR>
0

>  <SCORE.INTER.ROT>
4

>  <SCORE.INTER.SOLV>
14.6554

>  <SCORE.INTER.VDW>
-24.8839

>  <SCORE.INTER.norm>
-1.14434

>  <SCORE.INTRA>
-0.000613175

>  <SCORE.INTRA.DIHEDRAL>
0.593946

>  <SCORE.INTRA.DIHEDRAL.0>
3.20029

>  <SCORE.INTRA.POLAR>
0

>  <SCORE.INTRA.POLAR.0>
0

>  <SCORE.INTRA.REPUL>
0

>  <SCORE.INTRA.REPUL.0>
0

>  <SCORE.INTRA.SOLV>
0.478174

>  <SCORE.INTRA.SOLV.lig_0>
-19.3885

>  <SCORE.INTRA.VDW>
-0.536673

>  <SCORE.INTRA.VDW.0>
-1.12705

>  <SCORE.INTRA.norm>
-3.40653e-05

>  <SCORE.RESTR>
0

>  <SCORE.RESTR.CAVITY>
0

>  <SCORE.RESTR.norm>
0

>  <SCORE.SYSTEM>
0

>  <SCORE.SYSTEM.CONST>
0

>  <SCORE.SYSTEM.DIHEDRAL>
0

>  <SCORE.SYSTEM.SOLV>
0

>  <SCORE.SYSTEM.norm>
0

>  <SCORE.heavy>
18

>  <SCORE.norm>
-1.14438

>  <RMSD>
3.468

$$$$
lig.pdb
 OpenBabel11021811503D
libRbt.so/2013.1/901 2013/11/27
 18 19  0  0  0  0  0  0  0  0999 V2000
  -14.8379   16.1262    4.0169 C   0  0  0  0  0  0  0  0  0  0  0  0
  -12.2790   12.3010    2.4835 N   0  0  0  0  0  0  0  0  0  0  0  0
   -8.2804   14.6236   -0.4766 C   0  0  0  0  0  0  0  0  0  0  0  0
   -5.2850   18.1522    1.6428 O   0  0  0  0  0  0  0  0  0  0  0  0
   -5.7001   17.7721    0.3381 C   0  0  0  0  0  0  0  0  0  0  0  0
   -5.7021   16.2367    0.2057 C   0  0  0  0  0  0  0  0  0  0  0  0
   -8.2240   14.9780    3.2494 C   0  0  0  0  0  0  0  0  0  0  0  0
   -6.7471   15.8304    2.9388 S   0  0  0  0  0  0  0  0  0  0  0  0
   -6.7342   15.6894    1.1667 C   0  0  0  0  0  0  0  0  0  0  0  0
   -7.8872   14.9768    0.9480 C   0  0  0  0  0  0  0  0  0  0  0  0
   -8.6339   14.6226    2.0385 N   0  0  0  0  0  0  0  0  0  0  0  0
   -9.9231   13.8581    1.8919 C   0  0  0  0  0  0  0  0  0  0  0  0
  -12.3388   13.6750    2.7153 C   0  0  0  0  0  0  0  0  0  0  0  0
  -13.4843   14.2309    3.2159 N   0  0  0  0  0  0  0  0  0  0  0  0
  -13.5659   15.5436    3.4486 C   0  0  0  0  0  0  0  0  0  0  0  0
  -12.5280   16.3455    3.1937 N   0  0  0  0  0  0  0  0  0  0  0  0
  -11.3576   15.8649    2.6993 C   0  0  0  0  0  0  0  0  0  0  0  0
  -11.2087   14.4978    2.4408 C   0  0  0  0  0  0  0  0  0  0  0  0
  5  4  1  0  0  0  0
  5  6  1  0  0  0  0
  7  8  2  0  0  0  0
  7 11  1  0  0  0  0
  8  9  1  0  0  0  0
  9 10  2  0  0  0  0
  9  6  1  0  0  0  0
 10  3  1  0  0  0  0
 11 12  1  0  0  0  0
 11 10  1  0  0  0  0
 12 18  1  0  0  0  0
 13  2  1  0  0  0  0
 13 14  2  0  0  0  0
 15 14  1  0  0  0  0
 15  1  1  0  0  0  0
 16 15  2  0  0  0  0
 17 18  2  0  0  0  0
 17 16  1  0  0  0  0
 18 13  1  0  0  0  0
M  END
>  <CHROM.1>
63.87399393,-62.22730329,57.92810925,-160.04061816,-9.45819365,15.37009302
2.16219049,3.02687971,-0.33810409,-2.74776885

>  <Name>
lig.pdb

>  <RI>
0

>  <Rbt.Current_Directory>
/home/itssahil/PROJECTS/Mol_Feturizer/New_Systems/rnas/4nyg

>  <Rbt.Executable>
rbdock ($Id: //depot/dev/client3/rdock/2013.1/src/exe/rbdock.cxx#4 $)

>  <Rbt.Library>
libRbt.so (2013.1, Build901 2013/11/27)

>  <Rbt.Parameter_File>
/export/apps/rDock/src/rDock_2013.1_src/data/scripts/dock_solv.prm

>  <Rbt.Receptor>
prm/pocket_docking_4.prm

>  <SCORE>
-19.9308

>  <SCORE.INTER>
-19.7973

>  <SCORE.INTER.CONST>
1

>  <SCORE.INTER.POLAR>
0

>  <SCORE.INTER.ROT>
4

>  <SCORE.INTER.SOLV>
14.2028

>  <SCORE.INTER.VDW>
-24.1991

>  <SCORE.INTER.norm>
-1.09985

>  <SCORE.INTRA>
-0.133495

>  <SCORE.INTRA.DIHEDRAL>
-0.01908

>  <SCORE.INTRA.DIHEDRAL.0>
3.20029

>  <SCORE.INTRA.POLAR>
0

>  <SCORE.INTRA.POLAR.0>
0

>  <SCORE.INTRA.REPUL>
0

>  <SCORE.INTRA.REPUL.0>
0

>  <SCORE.INTRA.SOLV>
0.410389

>  <SCORE.INTRA.SOLV.lig_0>
-19.3885

>  <SCORE.INTRA.VDW>
-0.329149

>  <SCORE.INTRA.VDW.0>
-1.12705

>  <SCORE.INTRA.norm>
-0.00741638

>  <SCORE.RESTR>
0

>  <SCORE.RESTR.CAVITY>
0

>  <SCORE.RESTR.norm>
0

>  <SCORE.SYSTEM>
0

>  <SCORE.SYSTEM.CONST>
0

>  <SCORE.SYSTEM.DIHEDRAL>
0

>  <SCORE.SYSTEM.SOLV>
0

>  <SCORE.SYSTEM.norm>
0

>  <SCORE.heavy>
18

>  <SCORE.norm>
-1.10726

>  <RMSD>
3.470

$$$$
lig.pdb
 OpenBabel11021811503D
libRbt.so/2013.1/901 2013/11/27
 18 19  0  0  0  0  0  0  0  0999 V2000
  -14.2390   15.1807    3.6433 C   0  0  0  0  0  0  0  0  0  0  0  0
  -12.3668   11.0987    1.8089 N   0  0  0  0  0  0  0  0  0  0  0  0
   -7.0035   11.5811    3.2544 C   0  0  0  0  0  0  0  0  0  0  0  0
   -4.0509   12.2534   -0.1888 O   0  0  0  0  0  0  0  0  0  0  0  0
   -3.9452   12.0297    1.2105 C   0  0  0  0  0  0  0  0  0  0  0  0
   -4.6388   13.1667    1.9858 C   0  0  0  0  0  0  0  0  0  0  0  0
   -8.4696   13.5779    0.4482 C   0  0  0  0  0  0  0  0  0  0  0  0
   -6.8347   14.1199    0.2547 S   0  0  0  0  0  0  0  0  0  0  0  0
   -6.0946   13.1876    1.5751 C   0  0  0  0  0  0  0  0  0  0  0  0
   -7.1867   12.5237    2.0768 C   0  0  0  0  0  0  0  0  0  0  0  0
   -8.3970   12.7446    1.4782 N   0  0  0  0  0  0  0  0  0  0  0  0
   -9.6446   12.0445    1.9489 C   0  0  0  0  0  0  0  0  0  0  0  0
  -12.1556   12.3857    2.3033 C   0  0  0  0  0  0  0  0  0  0  0  0
  -13.2213   13.1418    2.7089 N   0  0  0  0  0  0  0  0  0  0  0  0
  -13.0450   14.3760    3.1879 C   0  0  0  0  0  0  0  0  0  0  0  0
  -11.8201   14.9021    3.2789 N   0  0  0  0  0  0  0  0  0  0  0  0
  -10.7147   14.2101    2.8987 C   0  0  0  0  0  0  0  0  0  0  0  0
  -10.8342   12.9101    2.3948 C   0  0  0  0  0  0  0  0  0  0  0  0
  5  4  1  0  0  0  0
  5  6  1  0  0  0  0
  7  8  2  0  0  0  0
  7 11  1  0  0  0  0
  8  9  1  0  0  0  0
  9 10  2  0  0  0  0
  9  6  1  0  0  0  0
 10  3  1  0  0  0  0
 11 12  1  0  0  0  0
 11 10  1  0  0  0  0
 12 18  1  0  0  0  0
 13  2  1  0  0  0  0
 13 14  2  0  0  0  0
 15 14  1  0  0  0  0
 15  1  1  0  0  0  0
 16 15  2  0  0  0  0
 17 18  2  0  0  0  0
 17 16  1  0  0  0  0
 18 13  1  0  0  0  0
M  END
>  <CHROM.1>
59.95654195,-91.03802352,-58.63959397,153.58298612,-8.93028915,13.14119043
1.87963704,-3.04748918,-0.26255440,3.02812613

>  <Name>
lig.pdb

>  <RI>
0

>  <Rbt.Current_Directory>
/home/itssahil/PROJECTS/Mol_Feturizer/New_Systems/rnas/4nyg

>  <Rbt.Executable>
rbdock ($Id: //depot/dev/client3/rdock/2013.1/src/exe/rbdock.cxx#4 $)

>  <Rbt.Library>
libRbt.so (2013.1, Build901 2013/11/27)

>  <Rbt.Parameter_File>
/export/apps/rDock/src/rDock_2013.1_src/data/scripts/dock_solv.prm

>  <Rbt.Receptor>
prm/pocket_docking_5.prm

>  <SCORE>
-18.5815

>  <SCORE.INTER>
-18.9619

>  <SCORE.INTER.CONST>
1

>  <SCORE.INTER.POLAR>
0

>  <SCORE.INTER.ROT>
4

>  <SCORE.INTER.SOLV>
15.141

>  <SCORE.INTER.VDW>
-23.9549

>  <SCORE.INTER.norm>
-1.05344

>  <SCORE.INTRA>
0.380377

>  <SCORE.INTRA.DIHEDRAL>
1.35807

>  <SCORE.INTRA.DIHEDRAL.0>
3.20029

>  <SCORE.INTRA.POLAR>
0

>  <SCORE.INTRA.POLAR.0>
0

>  <SCORE.INTRA.REPUL>
0

>  <SCORE.INTRA.REPUL.0>
0

>  <SCORE.INTRA.SOLV>
0.423364

>  <SCORE.INTRA.SOLV.lig_0>
-19.3885

>  <SCORE.INTRA.VDW>
-0.510342

>  <SCORE.INTRA.VDW.0>
-1.12705

>  <SCORE.INTRA.norm>
0.021132

>  <SCORE.RESTR>
0

>  <SCORE.RESTR.CAVITY>
0

>  <SCORE.RESTR.norm>
0

>  <SCORE.SYSTEM>
0

>  <SCORE.SYSTEM.CONST>
0

>  <SCORE.SYSTEM.DIHEDRAL>
0

>  <SCORE.SYSTEM.SOLV>
0

>  <SCORE.SYSTEM.norm>
0

>  <SCORE.heavy>
18

>  <SCORE.norm>
-1.03231

>  <RMSD>
3.474

$$$$
lig.pdb
 OpenBabel11021811503D
libRbt.so/2013.1/901 2013/11/27
 18 19  0  0  0  0  0  0  0  0999 V2000
  -14.5776   16.6845    3.8086 C   0  0  0  0  0  0  0  0  0  0  0  0
  -12.2228   12.5001    3.1175 N   0  0  0  0  0  0  0  0  0  0  0  0
   -7.7455   15.9753    3.1377 C   0  0  0  0  0  0  0  0  0  0  0  0
   -5.5800   19.0201   -0.0847 O   0  0  0  0  0  0  0  0  0  0  0  0
   -6.5873   18.0419    0.1327 C   0  0  0  0  0  0  0  0  0  0  0  0
   -5.9639   16.7522    0.7010 C   0  0  0  0  0  0  0  0  0  0  0  0
   -8.8013   13.7502    0.3188 C   0  0  0  0  0  0  0  0  0  0  0  0
   -7.5841   14.6237   -0.5527 S   0  0  0  0  0  0  0  0  0  0  0  0
   -7.0481   15.6987    0.7578 C   0  0  0  0  0  0  0  0  0  0  0  0
   -7.8691   15.2986    1.7828 C   0  0  0  0  0  0  0  0  0  0  0  0
   -8.7631   14.2945    1.5283 N   0  0  0  0  0  0  0  0  0  0  0  0
   -9.6885   13.7780    2.5983 C   0  0  0  0  0  0  0  0  0  0  0  0
  -12.1840   13.8939    3.1520 C   0  0  0  0  0  0  0  0  0  0  0  0
  -13.3217   14.5990    3.4355 N   0  0  0  0  0  0  0  0  0  0  0  0
  -13.3099   15.9339    3.4767 C   0  0  0  0  0  0  0  0  0  0  0  0
  -12.1838   16.6122    3.2378 N   0  0  0  0  0  0  0  0  0  0  0  0
  -11.0155   15.9805    2.9529 C   0  0  0  0  0  0  0  0  0  0  0  0
  -10.9626   14.5831    2.9016 C   0  0  0  0  0  0  0  0  0  0  0  0
  5  4  1  0  0  0  0
  5  6  1  0  0  0  0
  7  8  2  0  0  0  0
  7 11  1  0  0  0  0
  8  9  1  0  0  0  0
  9 10  2  0  0  0  0
  9  6  1  0  0  0  0
 10  3  1  0  0  0  0
 11 12  1  0  0  0  0
 11 10  1  0  0  0  0
 12 18  1  0  0  0  0
 13  2  1  0  0  0  0
 13 14  2  0  0  0  0
 15 14  1  0  0  0  0
 15  1  1  0  0  0  0
 16 15  2  0  0  0  0
 17 18  2  0  0  0  0
 17 16  1  0  0  0  0
 18 13  1  0  0  0  0
M  END
>  <CHROM.1>
-173.42596015,84.31998878,-100.54497947,139.74146921,-9.55377429,15.44148443
1.82831167,2.98895424,-0.48866024,-2.99308500

>  <Name>
lig.pdb

>  <RI>
0

>  <Rbt.Current_Directory>
/home/itssahil/PROJECTS/Mol_Feturizer/New_Systems/rnas/4nyg

>  <Rbt.Executable>
rbdock ($Id: //depot/dev/client3/rdock/2013.1/src/exe/rbdock.cxx#4 $)

>  <Rbt.Library>
libRbt.so (2013.1, Build901 2013/11/27)

>  <Rbt.Parameter_File>
/export/apps/rDock/src/rDock_2013.1_src/data/scripts/dock_solv.prm

>  <Rbt.Receptor>
prm/blind_docking_80.prm

>  <SCORE>
-20.4515

>  <SCORE.INTER>
-20.5422

>  <SCORE.INTER.CONST>
1

>  <SCORE.INTER.POLAR>
0

>  <SCORE.INTER.ROT>
4

>  <SCORE.INTER.SOLV>
15.0737

>  <SCORE.INTER.VDW>
-24.986

>  <SCORE.INTER.norm>
-1.14123

>  <SCORE.INTRA>
0.0907177

>  <SCORE.INTRA.DIHEDRAL>
0.965709

>  <SCORE.INTRA.DIHEDRAL.0>
3.20029

>  <SCORE.INTRA.POLAR>
0

>  <SCORE.INTRA.POLAR.0>
0

>  <SCORE.INTRA.REPUL>
0

>  <SCORE.INTRA.REPUL.0>
0

>  <SCORE.INTRA.SOLV>
0.0507081

>  <SCORE.INTRA.SOLV.lig_0>
-19.3885

>  <SCORE.INTRA.VDW>
-0.417491

>  <SCORE.INTRA.VDW.0>
-1.12705

>  <SCORE.INTRA.norm>
0.00503987

>  <SCORE.RESTR>
0

>  <SCORE.RESTR.CAVITY>
0

>  <SCORE.RESTR.norm>
0

>  <SCORE.SYSTEM>
0

>  <SCORE.SYSTEM.CONST>
0

>  <SCORE.SYSTEM.DIHEDRAL>
0

>  <SCORE.SYSTEM.SOLV>
0

>  <SCORE.SYSTEM.norm>
0

>  <SCORE.heavy>
18

>  <SCORE.norm>
-1.13619

>  <RMSD>
3.483

$$$$
lig.pdb
 OpenBabel11021811503D
libRbt.so/2013.1/901 2013/11/27
 18 19  0  0  0  0  0  0  0  0999 V2000
  -15.1898   16.0793    4.2379 C   0  0  0  0  0  0  0  0  0  0  0  0
  -11.5702   13.0431    3.1368 N   0  0  0  0  0  0  0  0  0  0  0  0
   -7.2303   15.6058    2.7061 C   0  0  0  0  0  0  0  0  0  0  0  0
   -3.7789   18.4418    0.1448 O   0  0  0  0  0  0  0  0  0  0  0  0
   -5.1087   17.9665   -0.0132 C   0  0  0  0  0  0  0  0  0  0  0  0
   -5.8655   18.0451    1.3269 C   0  0  0  0  0  0  0  0  0  0  0  0
   -9.7520   17.0027    0.3183 C   0  0  0  0  0  0  0  0  0  0  0  0
   -8.4944   18.1474   -0.0169 S   0  0  0  0  0  0  0  0  0  0  0  0
   -7.2647   17.5163    1.1012 C   0  0  0  0  0  0  0  0  0  0  0  0
   -7.9337   16.4566    1.6620 C   0  0  0  0  0  0  0  0  0  0  0  0
   -9.2133   16.2162    1.2413 N   0  0  0  0  0  0  0  0  0  0  0  0
  -10.0152   15.0640    1.7867 C   0  0  0  0  0  0  0  0  0  0  0  0
  -12.1055   14.3292    3.0665 C   0  0  0  0  0  0  0  0  0  0  0  0
  -13.3211   14.5919    3.6368 N   0  0  0  0  0  0  0  0  0  0  0  0
  -13.8539   15.8155    3.5849 C   0  0  0  0  0  0  0  0  0  0  0  0
  -13.2107   16.8122    2.9701 N   0  0  0  0  0  0  0  0  0  0  0  0
  -11.9991   16.6274    2.3843 C   0  0  0  0  0  0  0  0  0  0  0  0
  -11.3865   15.3696    2.4109 C   0  0  0  0  0  0  0  0  0  0  0  0
  5  4  1  0  0  0  0
  5  6  1  0  0  0  0
  7  8  2  0  0  0  0
  7 11  1  0  0  0  0
  8  9  1  0  0  0  0
  9 10  2  0  0  0  0
  9  6  1  0  0  0  0
 10  3  1  0  0  0  0
 11 12  1  0  0  0  0
 11 10  1  0  0  0  0
 12 18  1  0  0  0  0
 13  2  1  0  0  0  0
 13 14  2  0  0  0  0
 15 14  1  0  0  0  0
 15  1  1  0  0  0  0
 16 15  2  0  0  0  0
 17 18  2  0  0  0  0
 17 16  1  0  0  0  0
 18 13  1  0  0  0  0
M  END
>  <CHROM.1>
-179.47560549,-60.10858574,-56.27916996,-173.15649559,-9.68746116,16.43703897
1.83263113,2.69308688,-0.18387570,2.66124354

>  <Name>
lig.pdb

>  <RI>
0

>  <Rbt.Current_Directory>
/home/itssahil/PROJECTS/Mol_Feturizer/New_Systems/rnas/4nyg

>  <Rbt.Executable>
rbdock ($Id: //depot/dev/client3/rdock/2013.1/src/exe/rbdock.cxx#4 $)

>  <Rbt.Library>
libRbt.so (2013.1, Build901 2013/11/27)

>  <Rbt.Parameter_File>
/export/apps/rDock/src/rDock_2013.1_src/data/scripts/dock_solv.prm

>  <Rbt.Receptor>
prm/pocket_docking_6.prm

>  <SCORE>
-20.6335

>  <SCORE.INTER>
-20.6246

>  <SCORE.INTER.CONST>
1

>  <SCORE.INTER.POLAR>
0

>  <SCORE.INTER.ROT>
4

>  <SCORE.INTER.SOLV>
14.1436

>  <SCORE.INTER.VDW>
-24.7309

>  <SCORE.INTER.norm>
-1.14581

>  <SCORE.INTRA>
-0.0088762

>  <SCORE.INTRA.DIHEDRAL>
-0.0649023

>  <SCORE.INTRA.DIHEDRAL.0>
3.20029

>  <SCORE.INTRA.POLAR>
0

>  <SCORE.INTRA.POLAR.0>
0

>  <SCORE.INTRA.REPUL>
0

>  <SCORE.INTRA.REPUL.0>
0

>  <SCORE.INTRA.SOLV>
0.00904943

>  <SCORE.INTRA.SOLV.lig_0>
-19.3885

>  <SCORE.INTRA.VDW>
0.0190503

>  <SCORE.INTRA.VDW.0>
-1.12705

>  <SCORE.INTRA.norm>
-0.000493122

>  <SCORE.RESTR>
0

>  <SCORE.RESTR.CAVITY>
0

>  <SCORE.RESTR.norm>
0

>  <SCORE.SYSTEM>
0

>  <SCORE.SYSTEM.CONST>
0

>  <SCORE.SYSTEM.DIHEDRAL>
0

>  <SCORE.SYSTEM.SOLV>
0

>  <SCORE.SYSTEM.norm>
0

>  <SCORE.heavy>
18

>  <SCORE.norm>
-1.1463

>  <RMSD>
3.483

$$$$
lig.pdb
 OpenBabel11021811503D
libRbt.so/2013.1/901 2013/11/27
 18 19  0  0  0  0  0  0  0  0999 V2000
  -14.0250   17.0425    3.6274 C   0  0  0  0  0  0  0  0  0  0  0  0
  -12.8117   12.4884    2.4782 N   0  0  0  0  0  0  0  0  0  0  0  0
   -7.3632   11.6693    2.3939 C   0  0  0  0  0  0  0  0  0  0  0  0
   -4.4442   14.9579    0.1728 O   0  0  0  0  0  0  0  0  0  0  0  0
   -4.3030   13.7316    0.8766 C   0  0  0  0  0  0  0  0  0  0  0  0
   -5.2748   12.6777    0.3113 C   0  0  0  0  0  0  0  0  0  0  0  0
   -9.0397   14.4118    0.4756 C   0  0  0  0  0  0  0  0  0  0  0  0
   -7.5191   14.4802   -0.3533 S   0  0  0  0  0  0  0  0  0  0  0  0
   -6.6843   13.1821    0.5290 C   0  0  0  0  0  0  0  0  0  0  0  0
   -7.6582   12.7940    1.4155 C   0  0  0  0  0  0  0  0  0  0  0  0
   -8.8605   13.4452    1.3667 N   0  0  0  0  0  0  0  0  0  0  0  0
   -9.9926   13.0725    2.2872 C   0  0  0  0  0  0  0  0  0  0  0  0
  -12.4078   13.8026    2.7131 C   0  0  0  0  0  0  0  0  0  0  0  0
  -13.3387   14.7536    3.0309 N   0  0  0  0  0  0  0  0  0  0  0  0
  -12.9770   16.0182    3.2625 C   0  0  0  0  0  0  0  0  0  0  0  0
  -11.6942   16.3840    3.1853 N   0  0  0  0  0  0  0  0  0  0  0  0
  -10.7143   15.4948    2.8783 C   0  0  0  0  0  0  0  0  0  0  0  0
  -11.0297   14.1540    2.6314 C   0  0  0  0  0  0  0  0  0  0  0  0
  5  4  1  0  0  0  0
  5  6  1  0  0  0  0
  7  8  2  0  0  0  0
  7 11  1  0  0  0  0
  8  9  1  0  0  0  0
  9 10  2  0  0  0  0
  9  6  1  0  0  0  0
 10  3  1  0  0  0  0
 11 12  1  0  0  0  0
 11 10  1  0  0  0  0
 12 18  1  0  0  0  0
 13  2  1  0  0  0  0
 13 14  2  0  0  0  0
 15 14  1  0  0  0  0
 15  1  1  0  0  0  0
 16 15  2  0  0  0  0
 17 18  2  0  0  0  0
 17 16  1  0  0  0  0
 18 13  1  0  0  0  0
M  END
>  <CHROM.1>
-62.30267813,73.98548943,-27.45947206,140.40320153,-9.26029184,14.17282091
1.68502489,-2.96892158,-0.37846041,3.02928777

>  <Name>
lig.pdb

>  <RI>
0

>  <Rbt.Current_Directory>
/home/itssahil/PROJECTS/Mol_Feturizer/New_Systems/rnas/4nyg

>  <Rbt.Executable>
rbdock ($Id: //depot/dev/client3/rdock/2013.1/src/exe/rbdock.cxx#4 $)

>  <Rbt.Library>
libRbt.so (2013.1, Build901 2013/11/27)

>  <Rbt.Parameter_File>
/export/apps/rDock/src/rDock_2013.1_src/data/scripts/dock_solv.prm

>  <Rbt.Receptor>
prm/pocket_docking_7.prm

>  <SCORE>
-21.4359

>  <SCORE.INTER>
-21.7768

>  <SCORE.INTER.CONST>
1

>  <SCORE.INTER.POLAR>
0

>  <SCORE.INTER.ROT>
4

>  <SCORE.INTER.SOLV>
15.204

>  <SCORE.INTER.VDW>
-25.8525

>  <SCORE.INTER.norm>
-1.20982

>  <SCORE.INTRA>
0.340911

>  <SCORE.INTRA.DIHEDRAL>
0.342246

>  <SCORE.INTRA.DIHEDRAL.0>
3.20029

>  <SCORE.INTRA.POLAR>
0

>  <SCORE.INTRA.POLAR.0>
0

>  <SCORE.INTRA.REPUL>
0

>  <SCORE.INTRA.REPUL.0>
0

>  <SCORE.INTRA.SOLV>
0.469352

>  <SCORE.INTRA.SOLV.lig_0>
-19.3885

>  <SCORE.INTRA.VDW>
-0.0648883

>  <SCORE.INTRA.VDW.0>
-1.12705

>  <SCORE.INTRA.norm>
0.0189395

>  <SCORE.RESTR>
0

>  <SCORE.RESTR.CAVITY>
0

>  <SCORE.RESTR.norm>
0

>  <SCORE.SYSTEM>
0

>  <SCORE.SYSTEM.CONST>
0

>  <SCORE.SYSTEM.DIHEDRAL>
0

>  <SCORE.SYSTEM.SOLV>
0

>  <SCORE.SYSTEM.norm>
0

>  <SCORE.heavy>
18

>  <SCORE.norm>
-1.19088

>  <RMSD>
3.489

$$$$
lig.pdb
 OpenBabel11021811503D
libRbt.so/2013.1/901 2013/11/27
 18 19  0  0  0  0  0  0  0  0999 V2000
  -14.7871   15.6049    3.8929 C   0  0  0  0  0  0  0  0  0  0  0  0
  -10.4678   16.3670    1.8204 N   0  0  0  0  0  0  0  0  0  0  0  0
   -8.2308   14.6086   -0.4847 C   0  0  0  0  0  0  0  0  0  0  0  0
   -3.9098   16.1046    1.6479 O   0  0  0  0  0  0  0  0  0  0  0  0
   -4.4366   15.8299    0.3572 C   0  0  0  0  0  0  0  0  0  0  0  0
   -5.8288   16.4724    0.2020 C   0  0  0  0  0  0  0  0  0  0  0  0
   -8.1168   14.8344    3.2499 C   0  0  0  0  0  0  0  0  0  0  0  0
   -6.7513   15.8558    2.9399 S   0  0  0  0  0  0  0  0  0  0  0  0
   -6.7691   15.7802    1.1638 C   0  0  0  0  0  0  0  0  0  0  0  0
   -7.8419   14.9524    0.9434 C   0  0  0  0  0  0  0  0  0  0  0  0
   -8.5165   14.4790    2.0356 N   0  0  0  0  0  0  0  0  0  0  0  0
   -9.7171   13.5819    1.8882 C   0  0  0  0  0  0  0  0  0  0  0  0
  -11.3767   15.4672    2.3768 C   0  0  0  0  0  0  0  0  0  0  0  0
  -12.5763   15.9200    2.8541 N   0  0  0  0  0  0  0  0  0  0  0  0
  -13.4643   15.0782    3.3894 C   0  0  0  0  0  0  0  0  0  0  0  0
  -13.1982   13.7715    3.4737 N   0  0  0  0  0  0  0  0  0  0  0  0
  -12.0301   13.2489    3.0181 C   0  0  0  0  0  0  0  0  0  0  0  0
  -11.0627   14.0791    2.4411 C   0  0  0  0  0  0  0  0  0  0  0  0
  5  4  1  0  0  0  0
  5  6  1  0  0  0  0
  7  8  2  0  0  0  0
  7 11  1  0  0  0  0
  8  9  1  0  0  0  0
  9 10  2  0  0  0  0
  9  6  1  0  0  0  0
 10  3  1  0  0  0  0
 11 12  1  0  0  0  0
 11 10  1  0  0  0  0
 12 18  1  0  0  0  0
 13  2  1  0  0  0  0
 13 14  2  0  0  0  0
 15 14  1  0  0  0  0
 15  1  1  0  0  0  0
 16 15  2  0  0  0  0
 17 18  2  0  0  0  0
 17 16  1  0  0  0  0
 18 13  1  0  0  0  0
M  END
>  <CHROM.1>
-65.90093366,68.31064240,60.25297632,34.75952935,-9.15380533,15.18140540
2.11306226,-2.98136298,-0.24034768,-2.07518123

>  <Name>
lig.pdb

>  <RI>
0

>  <Rbt.Current_Directory>
/home/itssahil/PROJECTS/Mol_Feturizer/New_Systems/rnas/4nyg

>  <Rbt.Executable>
rbdock ($Id: //depot/dev/client3/rdock/2013.1/src/exe/rbdock.cxx#4 $)

>  <Rbt.Library>
libRbt.so (2013.1, Build901 2013/11/27)

>  <Rbt.Parameter_File>
/export/apps/rDock/src/rDock_2013.1_src/data/scripts/dock_solv.prm

>  <Rbt.Receptor>
prm/pocket_docking_8.prm

>  <SCORE>
-18.554

>  <SCORE.INTER>
-18.6729

>  <SCORE.INTER.CONST>
1

>  <SCORE.INTER.POLAR>
0

>  <SCORE.INTER.ROT>
4

>  <SCORE.INTER.SOLV>
11.0537

>  <SCORE.INTER.VDW>
-22.3998

>  <SCORE.INTER.norm>
-1.03738

>  <SCORE.INTRA>
0.118911

>  <SCORE.INTRA.DIHEDRAL>
0.17432

>  <SCORE.INTRA.DIHEDRAL.0>
3.20029

>  <SCORE.INTRA.POLAR>
0

>  <SCORE.INTRA.POLAR.0>
0

>  <SCORE.INTRA.REPUL>
0

>  <SCORE.INTRA.REPUL.0>
0

>  <SCORE.INTRA.SOLV>
1.95194

>  <SCORE.INTRA.SOLV.lig_0>
-19.3885

>  <SCORE.INTRA.VDW>
-0.94422

>  <SCORE.INTRA.VDW.0>
-1.12705

>  <SCORE.INTRA.norm>
0.00660619

>  <SCORE.RESTR>
0

>  <SCORE.RESTR.CAVITY>
0

>  <SCORE.RESTR.norm>
0

>  <SCORE.SYSTEM>
0

>  <SCORE.SYSTEM.CONST>
0

>  <SCORE.SYSTEM.DIHEDRAL>
0

>  <SCORE.SYSTEM.SOLV>
0

>  <SCORE.SYSTEM.norm>
0

>  <SCORE.heavy>
18

>  <SCORE.norm>
-1.03078

>  <RMSD>
3.489

$$$$
lig.pdb
 OpenBabel11021811503D
libRbt.so/2013.1/901 2013/11/27
 18 19  0  0  0  0  0  0  0  0999 V2000
  -15.2453   16.1459    4.3297 C   0  0  0  0  0  0  0  0  0  0  0  0
  -11.9529   12.9142    2.8302 N   0  0  0  0  0  0  0  0  0  0  0  0
   -8.1207   15.8683    3.8695 C   0  0  0  0  0  0  0  0  0  0  0  0
   -4.7714   16.3250    2.3576 O   0  0  0  0  0  0  0  0  0  0  0  0
   -4.9369   17.7307    2.2326 C   0  0  0  0  0  0  0  0  0  0  0  0
   -6.2728   18.1683    2.8642 C   0  0  0  0  0  0  0  0  0  0  0  0
   -9.1937   16.6145    0.3618 C   0  0  0  0  0  0  0  0  0  0  0  0
   -7.9349   17.8026    0.4495 S   0  0  0  0  0  0  0  0  0  0  0  0
   -7.3896   17.4804    2.1107 C   0  0  0  0  0  0  0  0  0  0  0  0
   -8.2408   16.4679    2.4784 C   0  0  0  0  0  0  0  0  0  0  0  0
   -9.1604   16.0429    1.5588 N   0  0  0  0  0  0  0  0  0  0  0  0
  -10.1203   14.9245    1.8682 C   0  0  0  0  0  0  0  0  0  0  0  0
  -12.3340   14.2496    2.9598 C   0  0  0  0  0  0  0  0  0  0  0  0
  -13.5349   14.5611    3.5365 N   0  0  0  0  0  0  0  0  0  0  0  0
  -13.9215   15.8321    3.6741 C   0  0  0  0  0  0  0  0  0  0  0  0
  -13.1427   16.8303    3.2470 N   0  0  0  0  0  0  0  0  0  0  0  0
  -11.9362   16.5981    2.6677 C   0  0  0  0  0  0  0  0  0  0  0  0
  -11.4732   15.2880    2.5015 C   0  0  0  0  0  0  0  0  0  0  0  0
  5  4  1  0  0  0  0
  5  6  1  0  0  0  0
  7  8  2  0  0  0  0
  7 11  1  0  0  0  0
  8  9  1  0  0  0  0
  9 10  2  0  0  0  0
  9  6  1  0  0  0  0
 10  3  1  0  0  0  0
 11 12  1  0  0  0  0
 11 10  1  0  0  0  0
 12 18  1  0  0  0  0
 13  2  1  0  0  0  0
 13 14  2  0  0  0  0
 15 14  1  0  0  0  0
 15  1  1  0  0  0  0
 16 15  2  0  0  0  0
 17 18  2  0  0  0  0
 17 16  1  0  0  0  0
 18 13  1  0  0  0  0
M  END
>  <CHROM.1>
-61.50624826,-70.43966072,-91.32242741,-172.21748266,-9.78390174,16.22588863
2.41635020,2.80930421,-0.08559253,2.73567301

>  <Name>
lig.pdb

>  <RI>
0

>  <Rbt.Current_Directory>
/home/itssahil/PROJECTS/Mol_Feturizer/New_Systems/rnas/4nyg

>  <Rbt.Executable>
rbdock ($Id: //depot/dev/client3/rdock/2013.1/src/exe/rbdock.cxx#4 $)

>  <Rbt.Library>
libRbt.so (2013.1, Build901 2013/11/27)

>  <Rbt.Parameter_File>
/export/apps/rDock/src/rDock_2013.1_src/data/scripts/dock_solv.prm

>  <Rbt.Receptor>
prm/pocket_docking_6.prm

>  <SCORE>
-21.3268

>  <SCORE.INTER>
-20.8459

>  <SCORE.INTER.CONST>
1

>  <SCORE.INTER.POLAR>
0

>  <SCORE.INTER.ROT>
4

>  <SCORE.INTER.SOLV>
14.9911

>  <SCORE.INTER.VDW>
-25.161

>  <SCORE.INTER.norm>
-1.1581

>  <SCORE.INTRA>
-0.480905

>  <SCORE.INTRA.DIHEDRAL>
0.0649509

>  <SCORE.INTRA.DIHEDRAL.0>
3.20029

>  <SCORE.INTRA.POLAR>
0

>  <SCORE.INTRA.POLAR.0>
0

>  <SCORE.INTRA.REPUL>
0

>  <SCORE.INTRA.REPUL.0>
0

>  <SCORE.INTRA.SOLV>
0.516373

>  <SCORE.INTRA.SOLV.lig_0>
-19.3885

>  <SCORE.INTRA.VDW>
-0.771567

>  <SCORE.INTRA.VDW.0>
-1.12705

>  <SCORE.INTRA.norm>
-0.0267169

>  <SCORE.RESTR>
0

>  <SCORE.RESTR.CAVITY>
0

>  <SCORE.RESTR.norm>
0

>  <SCORE.SYSTEM>
0

>  <SCORE.SYSTEM.CONST>
0

>  <SCORE.SYSTEM.DIHEDRAL>
0

>  <SCORE.SYSTEM.SOLV>
0

>  <SCORE.SYSTEM.norm>
0

>  <SCORE.heavy>
18

>  <SCORE.norm>
-1.18482

>  <RMSD>
3.491

$$$$
lig.pdb
 OpenBabel11021811503D
libRbt.so/2013.1/901 2013/11/27
 18 19  0  0  0  0  0  0  0  0999 V2000
  -15.2046   16.1196    4.2932 C   0  0  0  0  0  0  0  0  0  0  0  0
  -11.6190   13.0644    3.1349 N   0  0  0  0  0  0  0  0  0  0  0  0
   -8.0455   15.8650    3.7527 C   0  0  0  0  0  0  0  0  0  0  0  0
   -4.7240   17.9424    0.9981 O   0  0  0  0  0  0  0  0  0  0  0  0
   -4.9066   17.6355    2.3734 C   0  0  0  0  0  0  0  0  0  0  0  0
   -6.2275   18.2432    2.8842 C   0  0  0  0  0  0  0  0  0  0  0  0
   -9.2039   16.8745    0.3394 C   0  0  0  0  0  0  0  0  0  0  0  0
   -7.9460   18.0576    0.4885 S   0  0  0  0  0  0  0  0  0  0  0  0
   -7.3604   17.6108    2.1065 C   0  0  0  0  0  0  0  0  0  0  0  0
   -8.2002   16.5694    2.4152 C   0  0  0  0  0  0  0  0  0  0  0  0
   -9.1406   16.2126    1.4877 N   0  0  0  0  0  0  0  0  0  0  0  0
  -10.0903   15.0697    1.7326 C   0  0  0  0  0  0  0  0  0  0  0  0
  -12.1525   14.3513    3.0661 C   0  0  0  0  0  0  0  0  0  0  0  0
  -13.3540   14.6221    3.6619 N   0  0  0  0  0  0  0  0  0  0  0  0
  -13.8847   15.8466    3.6120 C   0  0  0  0  0  0  0  0  0  0  0  0
  -13.2533   16.8365    2.9742 N   0  0  0  0  0  0  0  0  0  0  0  0
  -12.0559   16.6435    2.3624 C   0  0  0  0  0  0  0  0  0  0  0  0
  -11.4461   15.3843    2.3855 C   0  0  0  0  0  0  0  0  0  0  0  0
  5  4  1  0  0  0  0
  5  6  1  0  0  0  0
  7  8  2  0  0  0  0
  7 11  1  0  0  0  0
  8  9  1  0  0  0  0
  9 10  2  0  0  0  0
  9  6  1  0  0  0  0
 10  3  1  0  0  0  0
 11 12  1  0  0  0  0
 11 10  1  0  0  0  0
 12 18  1  0  0  0  0
 13  2  1  0  0  0  0
 13 14  2  0  0  0  0
 15 14  1  0  0  0  0
 15  1  1  0  0  0  0
 16 15  2  0  0  0  0
 17 18  2  0  0  0  0
 17 16  1  0  0  0  0
 18 13  1  0  0  0  0
M  END
>  <CHROM.1>
62.15649398,-81.83420359,-89.51819331,-157.40767002,-9.73946373,16.41684846
2.31272854,2.74122115,-0.03991507,2.58929983

>  <Name>
lig.pdb

>  <RI>
0

>  <Rbt.Current_Directory>
/home/itssahil/PROJECTS/Mol_Feturizer/New_Systems/rnas/4nyg

>  <Rbt.Executable>
rbdock ($Id: //depot/dev/client3/rdock/2013.1/src/exe/rbdock.cxx#4 $)

>  <Rbt.Library>
libRbt.so (2013.1, Build901 2013/11/27)

>  <Rbt.Parameter_File>
/export/apps/rDock/src/rDock_2013.1_src/data/scripts/dock_solv.prm

>  <Rbt.Receptor>
prm/pocket_docking_8.prm

>  <SCORE>
-21.8302

>  <SCORE.INTER>
-21.6423

>  <SCORE.INTER.CONST>
1

>  <SCORE.INTER.POLAR>
0

>  <SCORE.INTER.ROT>
4

>  <SCORE.INTER.SOLV>
15.497

>  <SCORE.INTER.VDW>
-25.8606

>  <SCORE.INTER.norm>
-1.20235

>  <SCORE.INTRA>
-0.189684

>  <SCORE.INTRA.DIHEDRAL>
0.669936

>  <SCORE.INTRA.DIHEDRAL.0>
3.20029

>  <SCORE.INTRA.POLAR>
0

>  <SCORE.INTRA.POLAR.0>
0

>  <SCORE.INTRA.REPUL>
0

>  <SCORE.INTRA.REPUL.0>
0

>  <SCORE.INTRA.SOLV>
0.430141

>  <SCORE.INTRA.SOLV.lig_0>
-19.3885

>  <SCORE.INTRA.VDW>
-0.739722

>  <SCORE.INTRA.VDW.0>
-1.12705

>  <SCORE.INTRA.norm>
-0.010538

>  <SCORE.RESTR>
0.00184566

>  <SCORE.RESTR.CAVITY>
0.00184566

>  <SCORE.RESTR.norm>
0.000102537

>  <SCORE.SYSTEM>
0

>  <SCORE.SYSTEM.CONST>
0

>  <SCORE.SYSTEM.DIHEDRAL>
0

>  <SCORE.SYSTEM.SOLV>
0

>  <SCORE.SYSTEM.norm>
0

>  <SCORE.heavy>
18

>  <SCORE.norm>
-1.21279

>  <RMSD>
3.493

$$$$
lig.pdb
 OpenBabel11021811503D
libRbt.so/2013.1/901 2013/11/27
 18 19  0  0  0  0  0  0  0  0999 V2000
  -14.8023   16.2241    3.7464 C   0  0  0  0  0  0  0  0  0  0  0  0
  -12.4868   12.1933    2.3596 N   0  0  0  0  0  0  0  0  0  0  0  0
   -8.0307   15.3740    3.6103 C   0  0  0  0  0  0  0  0  0  0  0  0
   -6.6129   18.1204   -0.1277 O   0  0  0  0  0  0  0  0  0  0  0  0
   -6.4153   18.0721    1.2786 C   0  0  0  0  0  0  0  0  0  0  0  0
   -5.9351   16.6701    1.7014 C   0  0  0  0  0  0  0  0  0  0  0  0
   -8.7141   13.9783    0.2048 C   0  0  0  0  0  0  0  0  0  0  0  0
   -7.3862   14.9944   -0.2514 S   0  0  0  0  0  0  0  0  0  0  0  0
   -7.0235   15.6808    1.3479 C   0  0  0  0  0  0  0  0  0  0  0  0
   -7.9764   15.0675    2.1230 C   0  0  0  0  0  0  0  0  0  0  0  0
   -8.8344   14.1970    1.5081 N   0  0  0  0  0  0  0  0  0  0  0  0
   -9.8975   13.4640    2.2831 C   0  0  0  0  0  0  0  0  0  0  0  0
  -12.4233   13.5483    2.6843 C   0  0  0  0  0  0  0  0  0  0  0  0
  -13.5641   14.2182    3.0326 N   0  0  0  0  0  0  0  0  0  0  0  0
  -13.5292   15.5151    3.3499 C   0  0  0  0  0  0  0  0  0  0  0  0
  -12.3758   16.1895    3.3309 N   0  0  0  0  0  0  0  0  0  0  0  0
  -11.2028   15.5905    2.9984 C   0  0  0  0  0  0  0  0  0  0  0  0
  -11.1739   14.2324    2.6625 C   0  0  0  0  0  0  0  0  0  0  0  0
  5  4  1  0  0  0  0
  5  6  1  0  0  0  0
  7  8  2  0  0  0  0
  7 11  1  0  0  0  0
  8  9  1  0  0  0  0
  9 10  2  0  0  0  0
  9  6  1  0  0  0  0
 10  3  1  0  0  0  0
 11 12  1  0  0  0  0
 11 10  1  0  0  0  0
 12 18  1  0  0  0  0
 13  2  1  0  0  0  0
 13 14  2  0  0  0  0
 15 14  1  0  0  0  0
 15  1  1  0  0  0  0
 16 15  2  0  0  0  0
 17 18  2  0  0  0  0
 17 16  1  0  0  0  0
 18 13  1  0  0  0  0
M  END
>  <CHROM.1>
-62.29724974,78.83374301,-102.76789199,144.99954786,-9.70277641,15.21653090
1.92688361,3.00246948,-0.40973649,-2.87399225

>  <Name>
lig.pdb

>  <RI>
0

>  <Rbt.Current_Directory>
/home/itssahil/PROJECTS/Mol_Feturizer/New_Systems/rnas/4nyg

>  <Rbt.Executable>
rbdock ($Id: //depot/dev/client3/rdock/2013.1/src/exe/rbdock.cxx#4 $)

>  <Rbt.Library>
libRbt.so (2013.1, Build901 2013/11/27)

>  <Rbt.Parameter_File>
/export/apps/rDock/src/rDock_2013.1_src/data/scripts/dock_solv.prm

>  <Rbt.Receptor>
prm/pocket_docking_5.prm

>  <SCORE>
-20.6107

>  <SCORE.INTER>
-20.5662

>  <SCORE.INTER.CONST>
1

>  <SCORE.INTER.POLAR>
0

>  <SCORE.INTER.ROT>
4

>  <SCORE.INTER.SOLV>
14.7609

>  <SCORE.INTER.VDW>
-24.8978

>  <SCORE.INTER.norm>
-1.14257

>  <SCORE.INTRA>
-0.0445233

>  <SCORE.INTRA.DIHEDRAL>
0.481079

>  <SCORE.INTRA.DIHEDRAL.0>
3.20029

>  <SCORE.INTRA.POLAR>
0

>  <SCORE.INTRA.POLAR.0>
0

>  <SCORE.INTRA.REPUL>
0

>  <SCORE.INTRA.REPUL.0>
0

>  <SCORE.INTRA.SOLV>
0.479321

>  <SCORE.INTRA.SOLV.lig_0>
-19.3885

>  <SCORE.INTRA.VDW>
-0.524723

>  <SCORE.INTRA.VDW.0>
-1.12705

>  <SCORE.INTRA.norm>
-0.00247352

>  <SCORE.RESTR>
0

>  <SCORE.RESTR.CAVITY>
0

>  <SCORE.RESTR.norm>
0

>  <SCORE.SYSTEM>
0

>  <SCORE.SYSTEM.CONST>
0

>  <SCORE.SYSTEM.DIHEDRAL>
0

>  <SCORE.SYSTEM.SOLV>
0

>  <SCORE.SYSTEM.norm>
0

>  <SCORE.heavy>
18

>  <SCORE.norm>
-1.14504

>  <RMSD>
3.501

$$$$
lig.pdb
 OpenBabel11021811503D
libRbt.so/2013.1/901 2013/11/27
 18 19  0  0  0  0  0  0  0  0999 V2000
  -14.7996   16.1985    3.7476 C   0  0  0  0  0  0  0  0  0  0  0  0
  -12.4531   12.1578    2.4440 N   0  0  0  0  0  0  0  0  0  0  0  0
   -7.9936   15.3503    3.6310 C   0  0  0  0  0  0  0  0  0  0  0  0
   -6.8084   18.1932    0.0661 O   0  0  0  0  0  0  0  0  0  0  0  0
   -6.4411   18.0654    1.4327 C   0  0  0  0  0  0  0  0  0  0  0  0
   -5.9082   16.6464    1.7109 C   0  0  0  0  0  0  0  0  0  0  0  0
   -8.7099   13.9720    0.2253 C   0  0  0  0  0  0  0  0  0  0  0  0
   -7.3817   14.9848   -0.2374 S   0  0  0  0  0  0  0  0  0  0  0  0
   -7.0033   15.6628    1.3619 C   0  0  0  0  0  0  0  0  0  0  0  0
   -7.9524   15.0500    2.1420 C   0  0  0  0  0  0  0  0  0  0  0  0
   -8.8188   14.1855    1.5303 N   0  0  0  0  0  0  0  0  0  0  0  0
   -9.8786   13.4535    2.3108 C   0  0  0  0  0  0  0  0  0  0  0  0
  -12.4014   13.5213    2.7330 C   0  0  0  0  0  0  0  0  0  0  0  0
  -13.5462   14.1880    3.0745 N   0  0  0  0  0  0  0  0  0  0  0  0
  -13.5225   15.4930    3.3578 C   0  0  0  0  0  0  0  0  0  0  0  0
  -12.3767   16.1788    3.3107 N   0  0  0  0  0  0  0  0  0  0  0  0
  -11.2003   15.5838    2.9830 C   0  0  0  0  0  0  0  0  0  0  0  0
  -11.1597   14.2178    2.6820 C   0  0  0  0  0  0  0  0  0  0  0  0
  5  4  1  0  0  0  0
  5  6  1  0  0  0  0
  7  8  2  0  0  0  0
  7 11  1  0  0  0  0
  8  9  1  0  0  0  0
  9 10  2  0  0  0  0
  9  6  1  0  0  0  0
 10  3  1  0  0  0  0
 11 12  1  0  0  0  0
 11 10  1  0  0  0  0
 12 18  1  0  0  0  0
 13  2  1  0  0  0  0
 13 14  2  0  0  0  0
 15 14  1  0  0  0  0
 15  1  1  0  0  0  0
 16 15  2  0  0  0  0
 17 18  2  0  0  0  0
 17 16  1  0  0  0  0
 18 13  1  0  0  0  0
M  END
>  <CHROM.1>
-59.25069768,84.54432259,-101.69398115,146.16724535,-9.70293947,15.20490792
1.96401107,2.99349695,-0.40247428,-2.88651879

>  <Name>
lig.pdb

>  <RI>
0

>  <Rbt.Current_Directory>
/home/itssahil/PROJECTS/Mol_Feturizer/New_Systems/rnas/4nyg

>  <Rbt.Executable>
rbdock ($Id: //depot/dev/client3/rdock/2013.1/src/exe/rbdock.cxx#4 $)

>  <Rbt.Library>
libRbt.so (2013.1, Build901 2013/11/27)

>  <Rbt.Parameter_File>
/export/apps/rDock/src/rDock_2013.1_src/data/scripts/dock_solv.prm

>  <Rbt.Receptor>
prm/blind_docking_60.prm

>  <SCORE>
-20.434

>  <SCORE.INTER>
-20.5098

>  <SCORE.INTER.CONST>
1

>  <SCORE.INTER.POLAR>
0

>  <SCORE.INTER.ROT>
4

>  <SCORE.INTER.SOLV>
14.6845

>  <SCORE.INTER.VDW>
-24.8347

>  <SCORE.INTER.norm>
-1.13943

>  <SCORE.INTRA>
0.0758299

>  <SCORE.INTRA.DIHEDRAL>
0.823209

>  <SCORE.INTRA.DIHEDRAL.0>
3.20029

>  <SCORE.INTRA.POLAR>
0

>  <SCORE.INTRA.POLAR.0>
0

>  <SCORE.INTRA.REPUL>
0

>  <SCORE.INTRA.REPUL.0>
0

>  <SCORE.INTRA.SOLV>
0.48476

>  <SCORE.INTRA.SOLV.lig_0>
-19.3885

>  <SCORE.INTRA.VDW>
-0.578155

>  <SCORE.INTRA.VDW.0>
-1.12705

>  <SCORE.INTRA.norm>
0.00421277

>  <SCORE.RESTR>
0

>  <SCORE.RESTR.CAVITY>
0

>  <SCORE.RESTR.norm>
0

>  <SCORE.SYSTEM>
0

>  <SCORE.SYSTEM.CONST>
0

>  <SCORE.SYSTEM.DIHEDRAL>
0

>  <SCORE.SYSTEM.SOLV>
0

>  <SCORE.SYSTEM.norm>
0

>  <SCORE.heavy>
18

>  <SCORE.norm>
-1.13522

>  <RMSD>
3.504

$$$$
lig.pdb
 OpenBabel11021811503D
libRbt.so/2013.1/901 2013/11/27
 18 19  0  0  0  0  0  0  0  0999 V2000
  -14.5622   15.8579    4.0770 C   0  0  0  0  0  0  0  0  0  0  0  0
  -11.2972   12.4872    2.8483 N   0  0  0  0  0  0  0  0  0  0  0  0
   -7.6520   12.2786    2.3782 C   0  0  0  0  0  0  0  0  0  0  0  0
   -5.5934   13.9877    6.0027 O   0  0  0  0  0  0  0  0  0  0  0  0
   -5.4538   12.8984    5.1011 C   0  0  0  0  0  0  0  0  0  0  0  0
   -5.0671   13.4120    3.7005 C   0  0  0  0  0  0  0  0  0  0  0  0
   -8.0009   16.0052    2.3307 C   0  0  0  0  0  0  0  0  0  0  0  0
   -6.4529   15.9529    3.1086 S   0  0  0  0  0  0  0  0  0  0  0  0
   -6.2430   14.1881    3.1499 C   0  0  0  0  0  0  0  0  0  0  0  0
   -7.4073   13.7677    2.5561 C   0  0  0  0  0  0  0  0  0  0  0  0
   -8.2948   14.7246    2.1454 N   0  0  0  0  0  0  0  0  0  0  0  0
   -9.5877   14.3562    1.4666 C   0  0  0  0  0  0  0  0  0  0  0  0
  -11.7032   13.8208    2.8027 C   0  0  0  0  0  0  0  0  0  0  0  0
  -12.8695   14.1977    3.4106 N   0  0  0  0  0  0  0  0  0  0  0  0
  -13.2787   15.4687    3.3829 C   0  0  0  0  0  0  0  0  0  0  0  0
  -12.5572   16.4024    2.7561 N   0  0  0  0  0  0  0  0  0  0  0  0
  -11.3875   16.1036    2.1334 C   0  0  0  0  0  0  0  0  0  0  0  0
  -10.9030   14.7908    2.1332 C   0  0  0  0  0  0  0  0  0  0  0  0
  5  4  1  0  0  0  0
  5  6  1  0  0  0  0
  7  8  2  0  0  0  0
  7 11  1  0  0  0  0
  8  9  1  0  0  0  0
  9 10  2  0  0  0  0
  9  6  1  0  0  0  0
 10  3  1  0  0  0  0
 11 12  1  0  0  0  0
 11 10  1  0  0  0  0
 12 18  1  0  0  0  0
 13  2  1  0  0  0  0
 13 14  2  0  0  0  0
 15 14  1  0  0  0  0
 15  1  1  0  0  0  0
 16 15  2  0  0  0  0
 17 18  2  0  0  0  0
 17 16  1  0  0  0  0
 18 13  1  0  0  0  0
M  END
>  <CHROM.1>
-67.29222609,100.33319058,-60.95790262,-105.53468678,-9.11208171,14.56831795
3.12459939,2.95837094,-0.07081132,-0.27727807

>  <Name>
lig.pdb

>  <RI>
0

>  <Rbt.Current_Directory>
/home/itssahil/PROJECTS/Mol_Feturizer/New_Systems/rnas/4nyg

>  <Rbt.Executable>
rbdock ($Id: //depot/dev/client3/rdock/2013.1/src/exe/rbdock.cxx#4 $)

>  <Rbt.Library>
libRbt.so (2013.1, Build901 2013/11/27)

>  <Rbt.Parameter_File>
/export/apps/rDock/src/rDock_2013.1_src/data/scripts/dock_solv.prm

>  <Rbt.Receptor>
prm/pocket_docking_3.prm

>  <SCORE>
-13.8648

>  <SCORE.INTER>
-14.7077

>  <SCORE.INTER.CONST>
1

>  <SCORE.INTER.POLAR>
0

>  <SCORE.INTER.ROT>
4

>  <SCORE.INTER.SOLV>
11.4687

>  <SCORE.INTER.VDW>
-19.8947

>  <SCORE.INTER.norm>
-0.817094

>  <SCORE.INTRA>
0.817618

>  <SCORE.INTRA.DIHEDRAL>
2.1464

>  <SCORE.INTRA.DIHEDRAL.0>
3.20029

>  <SCORE.INTRA.POLAR>
0

>  <SCORE.INTRA.POLAR.0>
0

>  <SCORE.INTRA.REPUL>
0

>  <SCORE.INTRA.REPUL.0>
0

>  <SCORE.INTRA.SOLV>
0.833455

>  <SCORE.INTRA.SOLV.lig_0>
-19.3885

>  <SCORE.INTRA.VDW>
-0.672312

>  <SCORE.INTRA.VDW.0>
-1.12705

>  <SCORE.INTRA.norm>
0.0454232

>  <SCORE.RESTR>
0.0252908

>  <SCORE.RESTR.CAVITY>
0.0252908

>  <SCORE.RESTR.norm>
0.00140504

>  <SCORE.SYSTEM>
0

>  <SCORE.SYSTEM.CONST>
0

>  <SCORE.SYSTEM.DIHEDRAL>
0

>  <SCORE.SYSTEM.SOLV>
0

>  <SCORE.SYSTEM.norm>
0

>  <SCORE.heavy>
18

>  <SCORE.norm>
-0.770266

>  <RMSD>
3.504

$$$$
lig.pdb
 OpenBabel11021811503D
libRbt.so/2013.1/901 2013/11/27
 18 19  0  0  0  0  0  0  0  0999 V2000
  -15.2443   16.1390    4.2941 C   0  0  0  0  0  0  0  0  0  0  0  0
  -11.7934   12.9642    3.0514 N   0  0  0  0  0  0  0  0  0  0  0  0
   -8.1593   15.9289    3.8445 C   0  0  0  0  0  0  0  0  0  0  0  0
   -4.8895   16.2852    2.6818 O   0  0  0  0  0  0  0  0  0  0  0  0
   -4.9681   17.6727    2.3855 C   0  0  0  0  0  0  0  0  0  0  0  0
   -6.3176   18.2439    2.8624 C   0  0  0  0  0  0  0  0  0  0  0  0
   -9.1837   16.6559    0.3183 C   0  0  0  0  0  0  0  0  0  0  0  0
   -7.9377   17.8562    0.4227 S   0  0  0  0  0  0  0  0  0  0  0  0
   -7.4158   17.5435    2.0931 C   0  0  0  0  0  0  0  0  0  0  0  0
   -8.2630   16.5238    2.4501 C   0  0  0  0  0  0  0  0  0  0  0  0
   -9.1639   16.0878    1.5172 N   0  0  0  0  0  0  0  0  0  0  0  0
  -10.1180   14.9610    1.8144 C   0  0  0  0  0  0  0  0  0  0  0  0
  -12.2551   14.2803    3.0458 C   0  0  0  0  0  0  0  0  0  0  0  0
  -13.4579   14.5814    3.6241 N   0  0  0  0  0  0  0  0  0  0  0  0
  -13.9208   15.8342    3.6337 C   0  0  0  0  0  0  0  0  0  0  0  0
  -13.2183   16.8235    3.0740 N   0  0  0  0  0  0  0  0  0  0  0  0
  -12.0150   16.6010    2.4843 C   0  0  0  0  0  0  0  0  0  0  0  0
  -11.4742   15.3109    2.4481 C   0  0  0  0  0  0  0  0  0  0  0  0
  5  4  1  0  0  0  0
  5  6  1  0  0  0  0
  7  8  2  0  0  0  0
  7 11  1  0  0  0  0
  8  9  1  0  0  0  0
  9 10  2  0  0  0  0
  9  6  1  0  0  0  0
 10  3  1  0  0  0  0
 11 12  1  0  0  0  0
 11 10  1  0  0  0  0
 12 18  1  0  0  0  0
 13  2  1  0  0  0  0
 13 14  2  0  0  0  0
 15 14  1  0  0  0  0
 15  1  1  0  0  0  0
 16 15  2  0  0  0  0
 17 18  2  0  0  0  0
 17 16  1  0  0  0  0
 18 13  1  0  0  0  0
M  END
>  <CHROM.1>
-62.53355001,-78.10708426,-92.37799743,-164.39468942,-9.79120107,16.25197473
2.42587437,2.80201708,-0.01164901,2.54990179

>  <Name>
lig.pdb

>  <RI>
0

>  <Rbt.Current_Directory>
/home/itssahil/PROJECTS/Mol_Feturizer/New_Systems/rnas/4nyg

>  <Rbt.Executable>
rbdock ($Id: //depot/dev/client3/rdock/2013.1/src/exe/rbdock.cxx#4 $)

>  <Rbt.Library>
libRbt.so (2013.1, Build901 2013/11/27)

>  <Rbt.Parameter_File>
/export/apps/rDock/src/rDock_2013.1_src/data/scripts/dock_solv.prm

>  <Rbt.Receptor>
prm/pocket_docking_7.prm

>  <SCORE>
-21.7409

>  <SCORE.INTER>
-21.4236

>  <SCORE.INTER.CONST>
1

>  <SCORE.INTER.POLAR>
0

>  <SCORE.INTER.ROT>
4

>  <SCORE.INTER.SOLV>
15.0979

>  <SCORE.INTER.VDW>
-25.5817

>  <SCORE.INTER.norm>
-1.1902

>  <SCORE.INTRA>
-0.317336

>  <SCORE.INTRA.DIHEDRAL>
0.448914

>  <SCORE.INTRA.DIHEDRAL.0>
3.20029

>  <SCORE.INTRA.POLAR>
0

>  <SCORE.INTRA.POLAR.0>
0

>  <SCORE.INTRA.REPUL>
0

>  <SCORE.INTRA.REPUL.0>
0

>  <SCORE.INTRA.SOLV>
0.539099

>  <SCORE.INTRA.SOLV.lig_0>
-19.3885

>  <SCORE.INTRA.VDW>
-0.811343

>  <SCORE.INTRA.VDW.0>
-1.12705

>  <SCORE.INTRA.norm>
-0.0176298

>  <SCORE.RESTR>
0

>  <SCORE.RESTR.CAVITY>
0

>  <SCORE.RESTR.norm>
0

>  <SCORE.SYSTEM>
0

>  <SCORE.SYSTEM.CONST>
0

>  <SCORE.SYSTEM.DIHEDRAL>
0

>  <SCORE.SYSTEM.SOLV>
0

>  <SCORE.SYSTEM.norm>
0

>  <SCORE.heavy>
18

>  <SCORE.norm>
-1.20783

>  <RMSD>
3.516

$$$$
lig.pdb
 OpenBabel11021811503D
libRbt.so/2013.1/901 2013/11/27
 18 19  0  0  0  0  0  0  0  0999 V2000
  -15.2359   16.1345    4.3124 C   0  0  0  0  0  0  0  0  0  0  0  0
  -11.7061   13.0383    3.0933 N   0  0  0  0  0  0  0  0  0  0  0  0
   -8.0270   15.8551    3.7610 C   0  0  0  0  0  0  0  0  0  0  0  0
   -4.7860   18.0619    0.8958 O   0  0  0  0  0  0  0  0  0  0  0  0
   -4.9104   17.6783    2.2583 C   0  0  0  0  0  0  0  0  0  0  0  0
   -6.2234   18.2280    2.8489 C   0  0  0  0  0  0  0  0  0  0  0  0
   -9.2505   16.8541    0.3674 C   0  0  0  0  0  0  0  0  0  0  0  0
   -7.9886   18.0361    0.4878 S   0  0  0  0  0  0  0  0  0  0  0  0
   -7.3721   17.5943    2.0957 C   0  0  0  0  0  0  0  0  0  0  0  0
   -8.2069   16.5550    2.4244 C   0  0  0  0  0  0  0  0  0  0  0  0
   -9.1656   16.1962    1.5166 N   0  0  0  0  0  0  0  0  0  0  0  0
  -10.1116   15.0553    1.7840 C   0  0  0  0  0  0  0  0  0  0  0  0
  -12.2086   14.3391    3.0635 C   0  0  0  0  0  0  0  0  0  0  0  0
  -13.4117   14.6169    3.6526 N   0  0  0  0  0  0  0  0  0  0  0  0
  -13.9132   15.8547    3.6395 C   0  0  0  0  0  0  0  0  0  0  0  0
  -13.2501   16.8513    3.0459 N   0  0  0  0  0  0  0  0  0  0  0  0
  -12.0490   16.6519    2.4435 C   0  0  0  0  0  0  0  0  0  0  0  0
  -11.4689   15.3786    2.4297 C   0  0  0  0  0  0  0  0  0  0  0  0
  5  4  1  0  0  0  0
  5  6  1  0  0  0  0
  7  8  2  0  0  0  0
  7 11  1  0  0  0  0
  8  9  1  0  0  0  0
  9 10  2  0  0  0  0
  9  6  1  0  0  0  0
 10  3  1  0  0  0  0
 11 12  1  0  0  0  0
 11 10  1  0  0  0  0
 12 18  1  0  0  0  0
 13  2  1  0  0  0  0
 13 14  2  0  0  0  0
 15 14  1  0  0  0  0
 15  1  1  0  0  0  0
 16 15  2  0  0  0  0
 17 18  2  0  0  0  0
 17 16  1  0  0  0  0
 18 13  1  0  0  0  0
M  END
>  <CHROM.1>
63.10703150,-78.57567848,-88.00177438,-161.03053453,-9.76692090,16.41829959
2.31384821,2.73699624,-0.06556136,2.63696441

>  <Name>
lig.pdb

>  <RI>
0

>  <Rbt.Current_Directory>
/home/itssahil/PROJECTS/Mol_Feturizer/New_Systems/rnas/4nyg

>  <Rbt.Executable>
rbdock ($Id: //depot/dev/client3/rdock/2013.1/src/exe/rbdock.cxx#4 $)

>  <Rbt.Library>
libRbt.so (2013.1, Build901 2013/11/27)

>  <Rbt.Parameter_File>
/export/apps/rDock/src/rDock_2013.1_src/data/scripts/dock_solv.prm

>  <Rbt.Receptor>
prm/pocket_docking_5.prm

>  <SCORE>
-21.7466

>  <SCORE.INTER>
-21.4716

>  <SCORE.INTER.CONST>
1

>  <SCORE.INTER.POLAR>
0

>  <SCORE.INTER.ROT>
4

>  <SCORE.INTER.SOLV>
15.6244

>  <SCORE.INTER.VDW>
-25.7892

>  <SCORE.INTER.norm>
-1.19286

>  <SCORE.INTRA>
-0.275042

>  <SCORE.INTRA.DIHEDRAL>
0.488505

>  <SCORE.INTRA.DIHEDRAL.0>
3.20029

>  <SCORE.INTRA.POLAR>
0

>  <SCORE.INTRA.POLAR.0>
0

>  <SCORE.INTRA.REPUL>
0

>  <SCORE.INTRA.REPUL.0>
0

>  <SCORE.INTRA.SOLV>
0.405137

>  <SCORE.INTRA.SOLV.lig_0>
-19.3885

>  <SCORE.INTRA.VDW>
-0.721863

>  <SCORE.INTRA.VDW.0>
-1.12705

>  <SCORE.INTRA.norm>
-0.0152801

>  <SCORE.RESTR>
0

>  <SCORE.RESTR.CAVITY>
0

>  <SCORE.RESTR.norm>
0

>  <SCORE.SYSTEM>
0

>  <SCORE.SYSTEM.CONST>
0

>  <SCORE.SYSTEM.DIHEDRAL>
0

>  <SCORE.SYSTEM.SOLV>
0

>  <SCORE.SYSTEM.norm>
0

>  <SCORE.heavy>
18

>  <SCORE.norm>
-1.20814

>  <RMSD>
3.518

$$$$
lig.pdb
 OpenBabel11021811503D
libRbt.so/2013.1/901 2013/11/27
 18 19  0  0  0  0  0  0  0  0999 V2000
  -14.1089   17.0179    3.6199 C   0  0  0  0  0  0  0  0  0  0  0  0
  -12.8716   12.4742    2.4551 N   0  0  0  0  0  0  0  0  0  0  0  0
   -7.4512   11.6280    2.3319 C   0  0  0  0  0  0  0  0  0  0  0  0
   -4.4675   14.9635    0.2148 O   0  0  0  0  0  0  0  0  0  0  0  0
   -4.3391   13.7254    0.9000 C   0  0  0  0  0  0  0  0  0  0  0  0
   -5.3218   12.6903    0.3188 C   0  0  0  0  0  0  0  0  0  0  0  0
   -9.0610   14.4761    0.5131 C   0  0  0  0  0  0  0  0  0  0  0  0
   -7.5294   14.5553   -0.2943 S   0  0  0  0  0  0  0  0  0  0  0  0
   -6.7259   13.2075    0.5414 C   0  0  0  0  0  0  0  0  0  0  0  0
   -7.7165   12.7978    1.3991 C   0  0  0  0  0  0  0  0  0  0  0  0
   -8.9079   13.4697    1.3641 N   0  0  0  0  0  0  0  0  0  0  0  0
  -10.0570   13.0765    2.2546 C   0  0  0  0  0  0  0  0  0  0  0  0
  -12.4750   13.7904    2.6915 C   0  0  0  0  0  0  0  0  0  0  0  0
  -13.4106   14.7347    3.0153 N   0  0  0  0  0  0  0  0  0  0  0  0
  -13.0559   16.0011    3.2485 C   0  0  0  0  0  0  0  0  0  0  0  0
  -11.7757   16.3751    3.1673 N   0  0  0  0  0  0  0  0  0  0  0  0
  -10.7915   15.4927    2.8543 C   0  0  0  0  0  0  0  0  0  0  0  0
  -11.0995   14.1506    2.6054 C   0  0  0  0  0  0  0  0  0  0  0  0
  5  4  1  0  0  0  0
  5  6  1  0  0  0  0
  7  8  2  0  0  0  0
  7 11  1  0  0  0  0
  8  9  1  0  0  0  0
  9 10  2  0  0  0  0
  9  6  1  0  0  0  0
 10  3  1  0  0  0  0
 11 12  1  0  0  0  0
 11 10  1  0  0  0  0
 12 18  1  0  0  0  0
 13  2  1  0  0  0  0
 13 14  2  0  0  0  0
 15 14  1  0  0  0  0
 15  1  1  0  0  0  0
 16 15  2  0  0  0  0
 17 18  2  0  0  0  0
 17 16  1  0  0  0  0
 18 13  1  0  0  0  0
M  END
>  <CHROM.1>
-62.16939144,72.20411288,-26.03818398,142.21777590,-9.31398162,14.18111822
1.68523360,-2.96998670,-0.36959426,3.03897964

>  <Name>
lig.pdb

>  <RI>
0

>  <Rbt.Current_Directory>
/home/itssahil/PROJECTS/Mol_Feturizer/New_Systems/rnas/4nyg

>  <Rbt.Executable>
rbdock ($Id: //depot/dev/client3/rdock/2013.1/src/exe/rbdock.cxx#4 $)

>  <Rbt.Library>
libRbt.so (2013.1, Build901 2013/11/27)

>  <Rbt.Parameter_File>
/export/apps/rDock/src/rDock_2013.1_src/data/scripts/dock_solv.prm

>  <Rbt.Receptor>
prm/pocket_docking_7.prm

>  <SCORE>
-21.4552

>  <SCORE.INTER>
-21.8504

>  <SCORE.INTER.CONST>
1

>  <SCORE.INTER.POLAR>
0

>  <SCORE.INTER.ROT>
4

>  <SCORE.INTER.SOLV>
15.1296

>  <SCORE.INTER.VDW>
-25.8768

>  <SCORE.INTER.norm>
-1.21391

>  <SCORE.INTRA>
0.395287

>  <SCORE.INTRA.DIHEDRAL>
0.260484

>  <SCORE.INTRA.DIHEDRAL.0>
3.20029

>  <SCORE.INTRA.POLAR>
0

>  <SCORE.INTRA.POLAR.0>
0

>  <SCORE.INTRA.REPUL>
0

>  <SCORE.INTRA.REPUL.0>
0

>  <SCORE.INTRA.SOLV>
0.475114

>  <SCORE.INTRA.SOLV.lig_0>
-19.3885

>  <SCORE.INTRA.VDW>
0.0274875

>  <SCORE.INTRA.VDW.0>
-1.12705

>  <SCORE.INTRA.norm>
0.0219604

>  <SCORE.RESTR>
0

>  <SCORE.RESTR.CAVITY>
0

>  <SCORE.RESTR.norm>
0

>  <SCORE.SYSTEM>
0

>  <SCORE.SYSTEM.CONST>
0

>  <SCORE.SYSTEM.DIHEDRAL>
0

>  <SCORE.SYSTEM.SOLV>
0

>  <SCORE.SYSTEM.norm>
0

>  <SCORE.heavy>
18

>  <SCORE.norm>
-1.19195

>  <RMSD>
3.522

$$$$
lig.pdb
 OpenBabel11021811503D
libRbt.so/2013.1/901 2013/11/27
 18 19  0  0  0  0  0  0  0  0999 V2000
  -14.8133   16.1555    3.6982 C   0  0  0  0  0  0  0  0  0  0  0  0
  -12.3180   12.1612    2.5357 N   0  0  0  0  0  0  0  0  0  0  0  0
   -7.9183   15.7295    3.2011 C   0  0  0  0  0  0  0  0  0  0  0  0
   -5.6613   19.0028    0.0611 O   0  0  0  0  0  0  0  0  0  0  0  0
   -6.6594   17.9953    0.1483 C   0  0  0  0  0  0  0  0  0  0  0  0
   -6.1060   16.7591    0.8836 C   0  0  0  0  0  0  0  0  0  0  0  0
   -8.8416   13.7210    0.1804 C   0  0  0  0  0  0  0  0  0  0  0  0
   -7.6319   14.6988   -0.5841 S   0  0  0  0  0  0  0  0  0  0  0  0
   -7.1587   15.6744    0.8248 C   0  0  0  0  0  0  0  0  0  0  0  0
   -7.9904   15.1662    1.7917 C   0  0  0  0  0  0  0  0  0  0  0  0
   -8.8474   14.1622    1.4317 N   0  0  0  0  0  0  0  0  0  0  0  0
   -9.7810   13.5314    2.4311 C   0  0  0  0  0  0  0  0  0  0  0  0
  -12.3136   13.5315    2.7958 C   0  0  0  0  0  0  0  0  0  0  0  0
  -13.4854   14.1702    3.0972 N   0  0  0  0  0  0  0  0  0  0  0  0
  -13.5071   15.4810    3.3523 C   0  0  0  0  0  0  0  0  0  0  0  0
  -12.3816   16.2001    3.3156 N   0  0  0  0  0  0  0  0  0  0  0  0
  -11.1808   15.6344    3.0271 C   0  0  0  0  0  0  0  0  0  0  0  0
  -11.0925   14.2642    2.7571 C   0  0  0  0  0  0  0  0  0  0  0  0
  5  4  1  0  0  0  0
  5  6  1  0  0  0  0
  7  8  2  0  0  0  0
  7 11  1  0  0  0  0
  8  9  1  0  0  0  0
  9 10  2  0  0  0  0
  9  6  1  0  0  0  0
 10  3  1  0  0  0  0
 11 12  1  0  0  0  0
 11 10  1  0  0  0  0
 12 18  1  0  0  0  0
 13  2  1  0  0  0  0
 13 14  2  0  0  0  0
 15 14  1  0  0  0  0
 15  1  1  0  0  0  0
 16 15  2  0  0  0  0
 17 18  2  0  0  0  0
 17 16  1  0  0  0  0
 18 13  1  0  0  0  0
M  END
>  <CHROM.1>
-174.42384421,73.01024872,-99.90012601,133.98046353,-9.67500854,15.24211110
1.75388198,2.95745008,-0.46954439,-2.92142471

>  <Name>
lig.pdb

>  <RI>
0

>  <Rbt.Current_Directory>
/home/itssahil/PROJECTS/Mol_Feturizer/New_Systems/rnas/4nyg

>  <Rbt.Executable>
rbdock ($Id: //depot/dev/client3/rdock/2013.1/src/exe/rbdock.cxx#4 $)

>  <Rbt.Library>
libRbt.so (2013.1, Build901 2013/11/27)

>  <Rbt.Parameter_File>
/export/apps/rDock/src/rDock_2013.1_src/data/scripts/dock_solv.prm

>  <Rbt.Receptor>
prm/blind_docking_100.prm

>  <SCORE>
-20.7183

>  <SCORE.INTER>
-20.489

>  <SCORE.INTER.CONST>
1

>  <SCORE.INTER.POLAR>
0

>  <SCORE.INTER.ROT>
4

>  <SCORE.INTER.SOLV>
15.3964

>  <SCORE.INTER.VDW>
-25.0582

>  <SCORE.INTER.norm>
-1.13828

>  <SCORE.INTRA>
-0.229234

>  <SCORE.INTRA.DIHEDRAL>
0.2722

>  <SCORE.INTRA.DIHEDRAL.0>
3.20029

>  <SCORE.INTRA.POLAR>
0

>  <SCORE.INTRA.POLAR.0>
0

>  <SCORE.INTRA.REPUL>
0

>  <SCORE.INTRA.REPUL.0>
0

>  <SCORE.INTRA.SOLV>
0.0764643

>  <SCORE.INTRA.SOLV.lig_0>
-19.3885

>  <SCORE.INTRA.VDW>
-0.403567

>  <SCORE.INTRA.VDW.0>
-1.12705

>  <SCORE.INTRA.norm>
-0.0127352

>  <SCORE.RESTR>
0

>  <SCORE.RESTR.CAVITY>
0

>  <SCORE.RESTR.norm>
0

>  <SCORE.SYSTEM>
0

>  <SCORE.SYSTEM.CONST>
0

>  <SCORE.SYSTEM.DIHEDRAL>
0

>  <SCORE.SYSTEM.SOLV>
0

>  <SCORE.SYSTEM.norm>
0

>  <SCORE.heavy>
18

>  <SCORE.norm>
-1.15102

>  <RMSD>
3.523

$$$$
lig.pdb
 OpenBabel11021811503D
libRbt.so/2013.1/901 2013/11/27
 18 19  0  0  0  0  0  0  0  0999 V2000
  -14.1175   17.0202    3.6546 C   0  0  0  0  0  0  0  0  0  0  0  0
  -12.8758   12.4859    2.4585 N   0  0  0  0  0  0  0  0  0  0  0  0
   -7.4351   11.6685    2.3806 C   0  0  0  0  0  0  0  0  0  0  0  0
   -4.4825   14.9897    0.1755 O   0  0  0  0  0  0  0  0  0  0  0  0
   -4.3575   13.7713    0.8957 C   0  0  0  0  0  0  0  0  0  0  0  0
   -5.3316   12.7177    0.3337 C   0  0  0  0  0  0  0  0  0  0  0  0
   -9.0902   14.4631    0.5198 C   0  0  0  0  0  0  0  0  0  0  0  0
   -7.5649   14.5450   -0.2992 S   0  0  0  0  0  0  0  0  0  0  0  0
   -6.7401   13.2226    0.5561 C   0  0  0  0  0  0  0  0  0  0  0  0
   -7.7203   12.8175    1.4279 C   0  0  0  0  0  0  0  0  0  0  0  0
   -8.9196   13.4747    1.3884 N   0  0  0  0  0  0  0  0  0  0  0  0
  -10.0582   13.0849    2.2938 C   0  0  0  0  0  0  0  0  0  0  0  0
  -12.4795   13.7989    2.7120 C   0  0  0  0  0  0  0  0  0  0  0  0
  -13.4168   14.7417    3.0350 N   0  0  0  0  0  0  0  0  0  0  0  0
  -13.0624   16.0051    3.2844 C   0  0  0  0  0  0  0  0  0  0  0  0
  -11.7808   16.3776    3.2204 N   0  0  0  0  0  0  0  0  0  0  0  0
  -10.7949   15.4965    2.9093 C   0  0  0  0  0  0  0  0  0  0  0  0
  -11.1025   14.1574    2.6440 C   0  0  0  0  0  0  0  0  0  0  0  0
  5  4  1  0  0  0  0
  5  6  1  0  0  0  0
  7  8  2  0  0  0  0
  7 11  1  0  0  0  0
  8  9  1  0  0  0  0
  9 10  2  0  0  0  0
  9  6  1  0  0  0  0
 10  3  1  0  0  0  0
 11 12  1  0  0  0  0
 11 10  1  0  0  0  0
 12 18  1  0  0  0  0
 13  2  1  0  0  0  0
 13 14  2  0  0  0  0
 15 14  1  0  0  0  0
 15  1  1  0  0  0  0
 16 15  2  0  0  0  0
 17 18  2  0  0  0  0
 17 16  1  0  0  0  0
 18 13  1  0  0  0  0
M  END
>  <CHROM.1>
-63.41604316,72.50930542,-26.70001399,140.55573636,-9.32490876,14.19168467
1.70444057,-2.97369912,-0.37432070,3.03593423

>  <Name>
lig.pdb

>  <RI>
0

>  <Rbt.Current_Directory>
/home/itssahil/PROJECTS/Mol_Feturizer/New_Systems/rnas/4nyg

>  <Rbt.Executable>
rbdock ($Id: //depot/dev/client3/rdock/2013.1/src/exe/rbdock.cxx#4 $)

>  <Rbt.Library>
libRbt.so (2013.1, Build901 2013/11/27)

>  <Rbt.Parameter_File>
/export/apps/rDock/src/rDock_2013.1_src/data/scripts/dock_solv.prm

>  <Rbt.Receptor>
prm/pocket_docking_4.prm

>  <SCORE>
-21.4414

>  <SCORE.INTER>
-21.7818

>  <SCORE.INTER.CONST>
1

>  <SCORE.INTER.POLAR>
0

>  <SCORE.INTER.ROT>
4

>  <SCORE.INTER.SOLV>
15.1551

>  <SCORE.INTER.VDW>
-25.8395

>  <SCORE.INTER.norm>
-1.2101

>  <SCORE.INTRA>
0.340326

>  <SCORE.INTRA.DIHEDRAL>
0.299999

>  <SCORE.INTRA.DIHEDRAL.0>
3.20029

>  <SCORE.INTRA.POLAR>
0

>  <SCORE.INTRA.POLAR.0>
0

>  <SCORE.INTRA.REPUL>
0

>  <SCORE.INTRA.REPUL.0>
0

>  <SCORE.INTRA.SOLV>
0.464998

>  <SCORE.INTRA.SOLV.lig_0>
-19.3885

>  <SCORE.INTRA.VDW>
-0.0421721

>  <SCORE.INTRA.VDW.0>
-1.12705

>  <SCORE.INTRA.norm>
0.018907

>  <SCORE.RESTR>
0

>  <SCORE.RESTR.CAVITY>
0

>  <SCORE.RESTR.norm>
0

>  <SCORE.SYSTEM>
0

>  <SCORE.SYSTEM.CONST>
0

>  <SCORE.SYSTEM.DIHEDRAL>
0

>  <SCORE.SYSTEM.SOLV>
0

>  <SCORE.SYSTEM.norm>
0

>  <SCORE.heavy>
18

>  <SCORE.norm>
-1.19119

>  <RMSD>
3.525

$$$$
lig.pdb
 OpenBabel11021811503D
libRbt.so/2013.1/901 2013/11/27
 18 19  0  0  0  0  0  0  0  0999 V2000
  -14.1172   17.0327    3.6368 C   0  0  0  0  0  0  0  0  0  0  0  0
  -12.8648   12.4977    2.4548 N   0  0  0  0  0  0  0  0  0  0  0  0
   -7.4271   11.6762    2.3713 C   0  0  0  0  0  0  0  0  0  0  0  0
   -4.4987   14.1481    2.0747 O   0  0  0  0  0  0  0  0  0  0  0  0
   -4.3583   13.8343    0.6960 C   0  0  0  0  0  0  0  0  0  0  0  0
   -5.3392   12.7129    0.3021 C   0  0  0  0  0  0  0  0  0  0  0  0
   -9.0913   14.4691    0.5161 C   0  0  0  0  0  0  0  0  0  0  0  0
   -7.5732   14.5441   -0.3168 S   0  0  0  0  0  0  0  0  0  0  0  0
   -6.7443   13.2223    0.5355 C   0  0  0  0  0  0  0  0  0  0  0  0
   -7.7177   12.8228    1.4174 C   0  0  0  0  0  0  0  0  0  0  0  0
   -8.9156   13.4831    1.3864 N   0  0  0  0  0  0  0  0  0  0  0  0
  -10.0471   13.0994    2.3033 C   0  0  0  0  0  0  0  0  0  0  0  0
  -12.4712   13.8116    2.7081 C   0  0  0  0  0  0  0  0  0  0  0  0
  -13.4111   14.7540    3.0248 N   0  0  0  0  0  0  0  0  0  0  0  0
  -13.0592   16.0181    3.2737 C   0  0  0  0  0  0  0  0  0  0  0  0
  -11.7777   16.3918    3.2156 N   0  0  0  0  0  0  0  0  0  0  0  0
  -10.7893   15.5113    2.9109 C   0  0  0  0  0  0  0  0  0  0  0  0
  -11.0942   14.1714    2.6464 C   0  0  0  0  0  0  0  0  0  0  0  0
  5  4  1  0  0  0  0
  5  6  1  0  0  0  0
  7  8  2  0  0  0  0
  7 11  1  0  0  0  0
  8  9  1  0  0  0  0
  9 10  2  0  0  0  0
  9  6  1  0  0  0  0
 10  3  1  0  0  0  0
 11 12  1  0  0  0  0
 11 10  1  0  0  0  0
 12 18  1  0  0  0  0
 13  2  1  0  0  0  0
 13 14  2  0  0  0  0
 15 14  1  0  0  0  0
 15  1  1  0  0  0  0
 16 15  2  0  0  0  0
 17 18  2  0  0  0  0
 17 16  1  0  0  0  0
 18 13  1  0  0  0  0
M  END
>  <CHROM.1>
61.81028621,65.85019711,-26.01205693,139.65804463,-9.32397935,14.15086740
1.80152021,-2.91249893,-0.32057376,3.10964150

>  <Name>
lig.pdb

>  <RI>
0

>  <Rbt.Current_Directory>
/home/itssahil/PROJECTS/Mol_Feturizer/New_Systems/rnas/4nyg

>  <Rbt.Executable>
rbdock ($Id: //depot/dev/client3/rdock/2013.1/src/exe/rbdock.cxx#4 $)

>  <Rbt.Library>
libRbt.so (2013.1, Build901 2013/11/27)

>  <Rbt.Parameter_File>
/export/apps/rDock/src/rDock_2013.1_src/data/scripts/dock_solv.prm

>  <Rbt.Receptor>
prm/pocket_docking_8.prm

>  <SCORE>
-21.43

>  <SCORE.INTER>
-21.6684

>  <SCORE.INTER.CONST>
1

>  <SCORE.INTER.POLAR>
0

>  <SCORE.INTER.ROT>
4

>  <SCORE.INTER.SOLV>
14.6293

>  <SCORE.INTER.VDW>
-25.5887

>  <SCORE.INTER.norm>
-1.2038

>  <SCORE.INTRA>
0.238379

>  <SCORE.INTRA.DIHEDRAL>
0.0556482

>  <SCORE.INTRA.DIHEDRAL.0>
3.20029

>  <SCORE.INTRA.POLAR>
0

>  <SCORE.INTRA.POLAR.0>
0

>  <SCORE.INTRA.REPUL>
0

>  <SCORE.INTRA.REPUL.0>
0

>  <SCORE.INTRA.SOLV>
0.562733

>  <SCORE.INTRA.SOLV.lig_0>
-19.3885

>  <SCORE.INTRA.VDW>
-0.0708118

>  <SCORE.INTRA.VDW.0>
-1.12705

>  <SCORE.INTRA.norm>
0.0132433

>  <SCORE.RESTR>
0

>  <SCORE.RESTR.CAVITY>
0

>  <SCORE.RESTR.norm>
0

>  <SCORE.SYSTEM>
0

>  <SCORE.SYSTEM.CONST>
0

>  <SCORE.SYSTEM.DIHEDRAL>
0

>  <SCORE.SYSTEM.SOLV>
0

>  <SCORE.SYSTEM.norm>
0

>  <SCORE.heavy>
18

>  <SCORE.norm>
-1.19056

>  <RMSD>
3.528

$$$$
lig.pdb
 OpenBabel11021811503D
libRbt.so/2013.1/901 2013/11/27
 18 19  0  0  0  0  0  0  0  0999 V2000
  -15.0084   15.7263    4.0731 C   0  0  0  0  0  0  0  0  0  0  0  0
  -11.3644   12.8399    2.6865 N   0  0  0  0  0  0  0  0  0  0  0  0
   -6.9592   15.5551    2.3968 C   0  0  0  0  0  0  0  0  0  0  0  0
   -5.6287   18.9966   -1.1773 O   0  0  0  0  0  0  0  0  0  0  0  0
   -5.0325   18.0538   -0.2972 C   0  0  0  0  0  0  0  0  0  0  0  0
   -5.7262   18.0961    1.0783 C   0  0  0  0  0  0  0  0  0  0  0  0
   -9.6485   17.0291    0.2505 C   0  0  0  0  0  0  0  0  0  0  0  0
   -8.4347   18.2172   -0.0949 S   0  0  0  0  0  0  0  0  0  0  0  0
   -7.1270   17.5510    0.9085 C   0  0  0  0  0  0  0  0  0  0  0  0
   -7.7410   16.4477    1.4477 C   0  0  0  0  0  0  0  0  0  0  0  0
   -9.0397   16.2040    1.0927 N   0  0  0  0  0  0  0  0  0  0  0  0
   -9.7856   15.0064    1.6194 C   0  0  0  0  0  0  0  0  0  0  0  0
  -11.8997   14.1258    2.7606 C   0  0  0  0  0  0  0  0  0  0  0  0
  -13.1265   14.3195    3.3345 N   0  0  0  0  0  0  0  0  0  0  0  0
  -13.6596   15.5412    3.4194 C   0  0  0  0  0  0  0  0  0  0  0  0
  -13.0057   16.6037    2.9413 N   0  0  0  0  0  0  0  0  0  0  0  0
  -11.7827   16.4892    2.3614 C   0  0  0  0  0  0  0  0  0  0  0  0
  -11.1692   15.2365    2.2488 C   0  0  0  0  0  0  0  0  0  0  0  0
  5  4  1  0  0  0  0
  5  6  1  0  0  0  0
  7  8  2  0  0  0  0
  7 11  1  0  0  0  0
  8  9  1  0  0  0  0
  9 10  2  0  0  0  0
  9  6  1  0  0  0  0
 10  3  1  0  0  0  0
 11 12  1  0  0  0  0
 11 10  1  0  0  0  0
 12 18  1  0  0  0  0
 13  2  1  0  0  0  0
 13 14  2  0  0  0  0
 15 14  1  0  0  0  0
 15  1  1  0  0  0  0
 16 15  2  0  0  0  0
 17 18  2  0  0  0  0
 17 16  1  0  0  0  0
 18 13  1  0  0  0  0
M  END
>  <CHROM.1>
68.65662520,-62.41994530,-51.81096809,-179.80302793,-9.64239141,16.39107659
1.57606567,2.61113891,-0.22906822,2.70052477

>  <Name>
lig.pdb

>  <RI>
0

>  <Rbt.Current_Directory>
/home/itssahil/PROJECTS/Mol_Feturizer/New_Systems/rnas/4nyg

>  <Rbt.Executable>
rbdock ($Id: //depot/dev/client3/rdock/2013.1/src/exe/rbdock.cxx#4 $)

>  <Rbt.Library>
libRbt.so (2013.1, Build901 2013/11/27)

>  <Rbt.Parameter_File>
/export/apps/rDock/src/rDock_2013.1_src/data/scripts/dock_solv.prm

>  <Rbt.Receptor>
prm/blind_docking_60.prm

>  <SCORE>
-20.3372

>  <SCORE.INTER>
-20.6072

>  <SCORE.INTER.CONST>
1

>  <SCORE.INTER.POLAR>
0

>  <SCORE.INTER.ROT>
4

>  <SCORE.INTER.SOLV>
13.8341

>  <SCORE.INTER.VDW>
-24.6162

>  <SCORE.INTER.norm>
-1.14485

>  <SCORE.INTRA>
0.269997

>  <SCORE.INTRA.DIHEDRAL>
0.239672

>  <SCORE.INTRA.DIHEDRAL.0>
3.20029

>  <SCORE.INTRA.POLAR>
0

>  <SCORE.INTRA.POLAR.0>
0

>  <SCORE.INTRA.REPUL>
0

>  <SCORE.INTRA.REPUL.0>
0

>  <SCORE.INTRA.SOLV>
0.42476

>  <SCORE.INTRA.SOLV.lig_0>
-19.3885

>  <SCORE.INTRA.VDW>
-0.0622184

>  <SCORE.INTRA.VDW.0>
-1.12705

>  <SCORE.INTRA.norm>
0.0149998

>  <SCORE.RESTR>
0

>  <SCORE.RESTR.CAVITY>
0

>  <SCORE.RESTR.norm>
0

>  <SCORE.SYSTEM>
0

>  <SCORE.SYSTEM.CONST>
0

>  <SCORE.SYSTEM.DIHEDRAL>
0

>  <SCORE.SYSTEM.SOLV>
0

>  <SCORE.SYSTEM.norm>
0

>  <SCORE.heavy>
18

>  <SCORE.norm>
-1.12985

>  <RMSD>
3.536

$$$$
lig.pdb
 OpenBabel11021811503D
libRbt.so/2013.1/901 2013/11/27
 18 19  0  0  0  0  0  0  0  0999 V2000
  -14.8053   16.2366    3.7746 C   0  0  0  0  0  0  0  0  0  0  0  0
  -12.4820   12.2119    2.3829 N   0  0  0  0  0  0  0  0  0  0  0  0
   -8.0369   15.4736    3.5191 C   0  0  0  0  0  0  0  0  0  0  0  0
   -6.8750   18.2185   -0.1852 O   0  0  0  0  0  0  0  0  0  0  0  0
   -6.5586   18.1313    1.1973 C   0  0  0  0  0  0  0  0  0  0  0  0
   -5.9969   16.7349    1.5284 C   0  0  0  0  0  0  0  0  0  0  0  0
   -8.7604   13.9522    0.1764 C   0  0  0  0  0  0  0  0  0  0  0  0
   -7.4571   14.9719   -0.3389 S   0  0  0  0  0  0  0  0  0  0  0  0
   -7.0760   15.7179    1.2291 C   0  0  0  0  0  0  0  0  0  0  0  0
   -8.0049   15.1172    2.0423 C   0  0  0  0  0  0  0  0  0  0  0  0
   -8.8603   14.2135    1.4735 N   0  0  0  0  0  0  0  0  0  0  0  0
   -9.8976   13.4917    2.2927 C   0  0  0  0  0  0  0  0  0  0  0  0
  -12.4217   13.5676    2.7054 C   0  0  0  0  0  0  0  0  0  0  0  0
  -13.5633   14.2341    3.0580 N   0  0  0  0  0  0  0  0  0  0  0  0
  -13.5315   15.5315    3.3733 C   0  0  0  0  0  0  0  0  0  0  0  0
  -12.3806   16.2099    3.3480 N   0  0  0  0  0  0  0  0  0  0  0  0
  -11.2071   15.6145    3.0110 C   0  0  0  0  0  0  0  0  0  0  0  0
  -11.1749   14.2561    2.6769 C   0  0  0  0  0  0  0  0  0  0  0  0
  5  4  1  0  0  0  0
  5  6  1  0  0  0  0
  7  8  2  0  0  0  0
  7 11  1  0  0  0  0
  8  9  1  0  0  0  0
  9 10  2  0  0  0  0
  9  6  1  0  0  0  0
 10  3  1  0  0  0  0
 11 12  1  0  0  0  0
 11 10  1  0  0  0  0
 12 18  1  0  0  0  0
 13  2  1  0  0  0  0
 13 14  2  0  0  0  0
 15 14  1  0  0  0  0
 15  1  1  0  0  0  0
 16 15  2  0  0  0  0
 17 18  2  0  0  0  0
 17 16  1  0  0  0  0
 18 13  1  0  0  0  0
M  END
>  <CHROM.1>
-62.23064717,84.34520134,-103.12739454,143.04987117,-9.74655862,15.24468621
1.89045714,2.99880066,-0.42875838,-2.89032428

>  <Name>
lig.pdb

>  <RI>
0

>  <Rbt.Current_Directory>
/home/itssahil/PROJECTS/Mol_Feturizer/New_Systems/rnas/4nyg

>  <Rbt.Executable>
rbdock ($Id: //depot/dev/client3/rdock/2013.1/src/exe/rbdock.cxx#4 $)

>  <Rbt.Library>
libRbt.so (2013.1, Build901 2013/11/27)

>  <Rbt.Parameter_File>
/export/apps/rDock/src/rDock_2013.1_src/data/scripts/dock_solv.prm

>  <Rbt.Receptor>
prm/pocket_docking_4.prm

>  <SCORE>
-20.6731

>  <SCORE.INTER>
-20.8324

>  <SCORE.INTER.CONST>
1

>  <SCORE.INTER.POLAR>
0

>  <SCORE.INTER.ROT>
4

>  <SCORE.INTER.SOLV>
14.8711

>  <SCORE.INTER.VDW>
-25.112

>  <SCORE.INTER.norm>
-1.15736

>  <SCORE.INTRA>
0.159355

>  <SCORE.INTRA.DIHEDRAL>
0.829312

>  <SCORE.INTRA.DIHEDRAL.0>
3.20029

>  <SCORE.INTRA.POLAR>
0

>  <SCORE.INTRA.POLAR.0>
0

>  <SCORE.INTRA.REPUL>
0

>  <SCORE.INTRA.REPUL.0>
0

>  <SCORE.INTRA.SOLV>
0.484396

>  <SCORE.INTRA.SOLV.lig_0>
-19.3885

>  <SCORE.INTRA.VDW>
-0.497499

>  <SCORE.INTRA.VDW.0>
-1.12705

>  <SCORE.INTRA.norm>
0.00885305

>  <SCORE.RESTR>
0

>  <SCORE.RESTR.CAVITY>
0

>  <SCORE.RESTR.norm>
0

>  <SCORE.SYSTEM>
0

>  <SCORE.SYSTEM.CONST>
0

>  <SCORE.SYSTEM.DIHEDRAL>
0

>  <SCORE.SYSTEM.SOLV>
0

>  <SCORE.SYSTEM.norm>
0

>  <SCORE.heavy>
18

>  <SCORE.norm>
-1.1485

>  <RMSD>
3.570

$$$$
lig.pdb
 OpenBabel11021811503D
libRbt.so/2013.1/901 2013/11/27
 18 19  0  0  0  0  0  0  0  0999 V2000
  -14.7603   16.3374    3.6648 C   0  0  0  0  0  0  0  0  0  0  0  0
  -12.4256   12.2676    2.4324 N   0  0  0  0  0  0  0  0  0  0  0  0
   -7.9908   15.5949    3.4631 C   0  0  0  0  0  0  0  0  0  0  0  0
   -7.5714   18.5469    1.1201 O   0  0  0  0  0  0  0  0  0  0  0  0
   -6.3388   18.0318    0.6360 C   0  0  0  0  0  0  0  0  0  0  0  0
   -5.9519   16.7580    1.4124 C   0  0  0  0  0  0  0  0  0  0  0  0
   -8.6967   13.8913    0.2056 C   0  0  0  0  0  0  0  0  0  0  0  0
   -7.3973   14.8888   -0.3607 S   0  0  0  0  0  0  0  0  0  0  0  0
   -7.0247   15.7204    1.1658 C   0  0  0  0  0  0  0  0  0  0  0  0
   -7.9527   15.1595    2.0078 C   0  0  0  0  0  0  0  0  0  0  0  0
   -8.8017   14.2217    1.4864 N   0  0  0  0  0  0  0  0  0  0  0  0
   -9.8374   13.5395    2.3408 C   0  0  0  0  0  0  0  0  0  0  0  0
  -12.3671   13.6325    2.7137 C   0  0  0  0  0  0  0  0  0  0  0  0
  -13.5124   14.3115    3.0288 N   0  0  0  0  0  0  0  0  0  0  0  0
  -13.4823   15.6180    3.3043 C   0  0  0  0  0  0  0  0  0  0  0  0
  -12.3297   16.2933    3.2750 N   0  0  0  0  0  0  0  0  0  0  0  0
  -11.1526   15.6858    2.9739 C   0  0  0  0  0  0  0  0  0  0  0  0
  -11.1185   14.3176    2.6824 C   0  0  0  0  0  0  0  0  0  0  0  0
  5  4  1  0  0  0  0
  5  6  1  0  0  0  0
  7  8  2  0  0  0  0
  7 11  1  0  0  0  0
  8  9  1  0  0  0  0
  9 10  2  0  0  0  0
  9  6  1  0  0  0  0
 10  3  1  0  0  0  0
 11 12  1  0  0  0  0
 11 10  1  0  0  0  0
 12 18  1  0  0  0  0
 13  2  1  0  0  0  0
 13 14  2  0  0  0  0
 15 14  1  0  0  0  0
 15  1  1  0  0  0  0
 16 15  2  0  0  0  0
 17 18  2  0  0  0  0
 17 16  1  0  0  0  0
 18 13  1  0  0  0  0
M  END
>  <CHROM.1>
62.16513062,67.76368957,-103.25487400,141.56274598,-9.72960977,15.29008398
1.91472135,3.01272519,-0.40619739,-2.89062575

>  <Name>
lig.pdb

>  <RI>
0

>  <Rbt.Current_Directory>
/home/itssahil/PROJECTS/Mol_Feturizer/New_Systems/rnas/4nyg

>  <Rbt.Executable>
rbdock ($Id: //depot/dev/client3/rdock/2013.1/src/exe/rbdock.cxx#4 $)

>  <Rbt.Library>
libRbt.so (2013.1, Build901 2013/11/27)

>  <Rbt.Parameter_File>
/export/apps/rDock/src/rDock_2013.1_src/data/scripts/dock_solv.prm

>  <Rbt.Receptor>
prm/pocket_docking_4.prm

>  <SCORE>
-21.3142

>  <SCORE.INTER>
-21.112

>  <SCORE.INTER.CONST>
1

>  <SCORE.INTER.POLAR>
0

>  <SCORE.INTER.ROT>
4

>  <SCORE.INTER.SOLV>
14.9495

>  <SCORE.INTER.VDW>
-25.3245

>  <SCORE.INTER.norm>
-1.17289

>  <SCORE.INTRA>
-0.202128

>  <SCORE.INTRA.DIHEDRAL>
-0.00830315

>  <SCORE.INTRA.DIHEDRAL.0>
3.20029

>  <SCORE.INTRA.POLAR>
0

>  <SCORE.INTRA.POLAR.0>
0

>  <SCORE.INTRA.REPUL>
0

>  <SCORE.INTRA.REPUL.0>
0

>  <SCORE.INTRA.SOLV>
0.589857

>  <SCORE.INTRA.SOLV.lig_0>
-19.3885

>  <SCORE.INTRA.VDW>
-0.492905

>  <SCORE.INTRA.VDW.0>
-1.12705

>  <SCORE.INTRA.norm>
-0.0112293

>  <SCORE.RESTR>
0

>  <SCORE.RESTR.CAVITY>
0

>  <SCORE.RESTR.norm>
0

>  <SCORE.SYSTEM>
0

>  <SCORE.SYSTEM.CONST>
0

>  <SCORE.SYSTEM.DIHEDRAL>
0

>  <SCORE.SYSTEM.SOLV>
0

>  <SCORE.SYSTEM.norm>
0

>  <SCORE.heavy>
18

>  <SCORE.norm>
-1.18412

>  <RMSD>
3.579

$$$$
lig.pdb
 OpenBabel11021811503D
libRbt.so/2013.1/901 2013/11/27
 18 19  0  0  0  0  0  0  0  0999 V2000
  -14.0440   17.1222    3.6681 C   0  0  0  0  0  0  0  0  0  0  0  0
  -12.9701   12.5394    2.4946 N   0  0  0  0  0  0  0  0  0  0  0  0
   -7.4416   12.2038    3.0557 C   0  0  0  0  0  0  0  0  0  0  0  0
   -3.2842   11.9715    0.1902 O   0  0  0  0  0  0  0  0  0  0  0  0
   -4.6676   12.2754    0.0773 C   0  0  0  0  0  0  0  0  0  0  0  0
   -5.1090   13.1884    1.2377 C   0  0  0  0  0  0  0  0  0  0  0  0
   -9.0225   14.2184    0.3255 C   0  0  0  0  0  0  0  0  0  0  0  0
   -7.3819   14.4121   -0.1989 S   0  0  0  0  0  0  0  0  0  0  0  0
   -6.5882   13.4614    1.0765 C   0  0  0  0  0  0  0  0  0  0  0  0
   -7.6688   13.0667    1.8258 C   0  0  0  0  0  0  0  0  0  0  0  0
   -8.9100   13.4721    1.4168 N   0  0  0  0  0  0  0  0  0  0  0  0
  -10.1531   13.0700    2.1659 C   0  0  0  0  0  0  0  0  0  0  0  0
  -12.5315   13.8473    2.7008 C   0  0  0  0  0  0  0  0  0  0  0  0
  -13.4287   14.8173    3.0558 N   0  0  0  0  0  0  0  0  0  0  0  0
  -13.0334   16.0764    3.2610 C   0  0  0  0  0  0  0  0  0  0  0  0
  -11.7493   16.4179    3.1205 N   0  0  0  0  0  0  0  0  0  0  0  0
  -10.8015   15.5087    2.7735 C   0  0  0  0  0  0  0  0  0  0  0  0
  -11.1527   14.1726    2.5513 C   0  0  0  0  0  0  0  0  0  0  0  0
  5  4  1  0  0  0  0
  5  6  1  0  0  0  0
  7  8  2  0  0  0  0
  7 11  1  0  0  0  0
  8  9  1  0  0  0  0
  9 10  2  0  0  0  0
  9  6  1  0  0  0  0
 10  3  1  0  0  0  0
 11 12  1  0  0  0  0
 11 10  1  0  0  0  0
 12 18  1  0  0  0  0
 13  2  1  0  0  0  0
 13 14  2  0  0  0  0
 15 14  1  0  0  0  0
 15  1  1  0  0  0  0
 16 15  2  0  0  0  0
 17 18  2  0  0  0  0
 17 16  1  0  0  0  0
 18 13  1  0  0  0  0
M  END
>  <CHROM.1>
-179.21659626,-68.01933450,-51.21771179,152.38229207,-9.22987397,13.99814945
1.77385777,-2.93730045,-0.39364417,2.85273212

>  <Name>
lig.pdb

>  <RI>
0

>  <Rbt.Current_Directory>
/home/itssahil/PROJECTS/Mol_Feturizer/New_Systems/rnas/4nyg

>  <Rbt.Executable>
rbdock ($Id: //depot/dev/client3/rdock/2013.1/src/exe/rbdock.cxx#4 $)

>  <Rbt.Library>
libRbt.so (2013.1, Build901 2013/11/27)

>  <Rbt.Parameter_File>
/export/apps/rDock/src/rDock_2013.1_src/data/scripts/dock_solv.prm

>  <Rbt.Receptor>
prm/pocket_docking_7.prm

>  <SCORE>
-20.5888

>  <SCORE.INTER>
-20.3671

>  <SCORE.INTER.CONST>
1

>  <SCORE.INTER.POLAR>
0

>  <SCORE.INTER.ROT>
4

>  <SCORE.INTER.SOLV>
15.0161

>  <SCORE.INTER.VDW>
-24.8501

>  <SCORE.INTER.norm>
-1.13151

>  <SCORE.INTRA>
-0.221637

>  <SCORE.INTRA.DIHEDRAL>
0.0754342

>  <SCORE.INTRA.DIHEDRAL.0>
3.20029

>  <SCORE.INTRA.POLAR>
0

>  <SCORE.INTRA.POLAR.0>
0

>  <SCORE.INTRA.REPUL>
0

>  <SCORE.INTRA.REPUL.0>
0

>  <SCORE.INTRA.SOLV>
-0.0262829

>  <SCORE.INTRA.SOLV.lig_0>
-19.3885

>  <SCORE.INTRA.VDW>
-0.246213

>  <SCORE.INTRA.VDW.0>
-1.12705

>  <SCORE.INTRA.norm>
-0.0123132

>  <SCORE.RESTR>
0

>  <SCORE.RESTR.CAVITY>
0

>  <SCORE.RESTR.norm>
0

>  <SCORE.SYSTEM>
0

>  <SCORE.SYSTEM.CONST>
0

>  <SCORE.SYSTEM.DIHEDRAL>
0

>  <SCORE.SYSTEM.SOLV>
0

>  <SCORE.SYSTEM.norm>
0

>  <SCORE.heavy>
18

>  <SCORE.norm>
-1.14382

>  <RMSD>
3.606

$$$$
lig.pdb
 OpenBabel11021811503D
libRbt.so/2013.1/901 2013/11/27
 18 19  0  0  0  0  0  0  0  0999 V2000
  -15.0621   15.9536    4.0273 C   0  0  0  0  0  0  0  0  0  0  0  0
  -11.6072   12.6156    3.3537 N   0  0  0  0  0  0  0  0  0  0  0  0
   -7.8877   14.9042   -0.0066 C   0  0  0  0  0  0  0  0  0  0  0  0
   -5.2634   19.0980   -1.0957 O   0  0  0  0  0  0  0  0  0  0  0  0
   -6.1884   18.6269   -0.1255 C   0  0  0  0  0  0  0  0  0  0  0  0
   -5.8089   17.2029    0.3252 C   0  0  0  0  0  0  0  0  0  0  0  0
   -8.4642   16.3522    3.3967 C   0  0  0  0  0  0  0  0  0  0  0  0
   -7.1537   17.3943    2.9486 S   0  0  0  0  0  0  0  0  0  0  0  0
   -6.8465   16.7404    1.3242 C   0  0  0  0  0  0  0  0  0  0  0  0
   -7.7908   15.7463    1.2545 C   0  0  0  0  0  0  0  0  0  0  0  0
   -8.6091   15.5677    2.3364 N   0  0  0  0  0  0  0  0  0  0  0  0
   -9.6861   14.5151    2.3404 C   0  0  0  0  0  0  0  0  0  0  0  0
  -12.0063   13.9487    3.2589 C   0  0  0  0  0  0  0  0  0  0  0  0
  -13.2661   14.3109    3.6507 N   0  0  0  0  0  0  0  0  0  0  0  0
  -13.6713   15.5811    3.5719 C   0  0  0  0  0  0  0  0  0  0  0  0
  -12.8534   16.5284    3.1039 N   0  0  0  0  0  0  0  0  0  0  0  0
  -11.5880   16.2446    2.6995 C   0  0  0  0  0  0  0  0  0  0  0  0
  -11.1036   14.9334    2.7640 C   0  0  0  0  0  0  0  0  0  0  0  0
  5  4  1  0  0  0  0
  5  6  1  0  0  0  0
  7  8  2  0  0  0  0
  7 11  1  0  0  0  0
  8  9  1  0  0  0  0
  9 10  2  0  0  0  0
  9  6  1  0  0  0  0
 10  3  1  0  0  0  0
 11 12  1  0  0  0  0
 11 10  1  0  0  0  0
 12 18  1  0  0  0  0
 13  2  1  0  0  0  0
 13 14  2  0  0  0  0
 15 14  1  0  0  0  0
 15  1  1  0  0  0  0
 16 15  2  0  0  0  0
 17 18  2  0  0  0  0
 17 16  1  0  0  0  0
 18 13  1  0  0  0  0
M  END
>  <CHROM.1>
-178.41752164,-66.39177780,48.49212525,-156.74405174,-9.49347407,16.04346075
2.18415414,2.77435824,-0.39428388,3.09858424

>  <Name>
lig.pdb

>  <RI>
0

>  <Rbt.Current_Directory>
/home/itssahil/PROJECTS/Mol_Feturizer/New_Systems/rnas/4nyg

>  <Rbt.Executable>
rbdock ($Id: //depot/dev/client3/rdock/2013.1/src/exe/rbdock.cxx#4 $)

>  <Rbt.Library>
libRbt.so (2013.1, Build901 2013/11/27)

>  <Rbt.Parameter_File>
/export/apps/rDock/src/rDock_2013.1_src/data/scripts/dock_solv.prm

>  <Rbt.Receptor>
prm/pocket_docking_6.prm

>  <SCORE>
-21.6106

>  <SCORE.INTER>
-21.4382

>  <SCORE.INTER.CONST>
1

>  <SCORE.INTER.POLAR>
0

>  <SCORE.INTER.ROT>
4

>  <SCORE.INTER.SOLV>
14.234

>  <SCORE.INTER.VDW>
-25.3034

>  <SCORE.INTER.norm>
-1.19101

>  <SCORE.INTRA>
-0.172415

>  <SCORE.INTRA.DIHEDRAL>
-0.0285177

>  <SCORE.INTRA.DIHEDRAL.0>
3.20029

>  <SCORE.INTRA.POLAR>
0

>  <SCORE.INTRA.POLAR.0>
0

>  <SCORE.INTRA.REPUL>
0

>  <SCORE.INTRA.REPUL.0>
0

>  <SCORE.INTRA.SOLV>
-0.0040144

>  <SCORE.INTRA.SOLV.lig_0>
-19.3885

>  <SCORE.INTRA.VDW>
-0.156149

>  <SCORE.INTRA.VDW.0>
-1.12705

>  <SCORE.INTRA.norm>
-0.00957862

>  <SCORE.RESTR>
0

>  <SCORE.RESTR.CAVITY>
0

>  <SCORE.RESTR.norm>
0

>  <SCORE.SYSTEM>
0

>  <SCORE.SYSTEM.CONST>
0

>  <SCORE.SYSTEM.DIHEDRAL>
0

>  <SCORE.SYSTEM.SOLV>
0

>  <SCORE.SYSTEM.norm>
0

>  <SCORE.heavy>
18

>  <SCORE.norm>
-1.20059

>  <RMSD>
3.622

$$$$
lig.pdb
 OpenBabel11021811503D
libRbt.so/2013.1/901 2013/11/27
 18 19  0  0  0  0  0  0  0  0999 V2000
  -15.0600   15.9250    4.0268 C   0  0  0  0  0  0  0  0  0  0  0  0
  -11.5651   12.6229    3.3832 N   0  0  0  0  0  0  0  0  0  0  0  0
   -7.8828   14.9704   -0.0177 C   0  0  0  0  0  0  0  0  0  0  0  0
   -5.2881   19.1826   -1.0494 O   0  0  0  0  0  0  0  0  0  0  0  0
   -6.2228   18.6824   -0.1033 C   0  0  0  0  0  0  0  0  0  0  0  0
   -5.8120   17.2699    0.3560 C   0  0  0  0  0  0  0  0  0  0  0  0
   -8.4617   16.3517    3.4129 C   0  0  0  0  0  0  0  0  0  0  0  0
   -7.1553   17.4067    2.9835 S   0  0  0  0  0  0  0  0  0  0  0  0
   -6.8470   16.7848    1.3468 C   0  0  0  0  0  0  0  0  0  0  0  0
   -7.7878   15.7888    1.2591 C   0  0  0  0  0  0  0  0  0  0  0  0
   -8.6046   15.5869    2.3380 N   0  0  0  0  0  0  0  0  0  0  0  0
   -9.6778   14.5304    2.3229 C   0  0  0  0  0  0  0  0  0  0  0  0
  -11.9831   13.9486    3.2689 C   0  0  0  0  0  0  0  0  0  0  0  0
  -13.2447   14.3004    3.6643 N   0  0  0  0  0  0  0  0  0  0  0  0
  -13.6677   15.5635    3.5670 C   0  0  0  0  0  0  0  0  0  0  0  0
  -12.8664   16.5136    3.0766 N   0  0  0  0  0  0  0  0  0  0  0  0
  -11.6003   16.2400    2.6673 C   0  0  0  0  0  0  0  0  0  0  0  0
  -11.0976   14.9368    2.7503 C   0  0  0  0  0  0  0  0  0  0  0  0
  5  4  1  0  0  0  0
  5  6  1  0  0  0  0
  7  8  2  0  0  0  0
  7 11  1  0  0  0  0
  8  9  1  0  0  0  0
  9 10  2  0  0  0  0
  9  6  1  0  0  0  0
 10  3  1  0  0  0  0
 11 12  1  0  0  0  0
 11 10  1  0  0  0  0
 12 18  1  0  0  0  0
 13  2  1  0  0  0  0
 13 14  2  0  0  0  0
 15 14  1  0  0  0  0
 15  1  1  0  0  0  0
 16 15  2  0  0  0  0
 17 18  2  0  0  0  0
 17 16  1  0  0  0  0
 18 13  1  0  0  0  0
M  END
>  <CHROM.1>
-179.41118738,-68.26340518,48.71875919,-154.68457115,-9.49227451,16.06280085
2.19348083,2.75555097,-0.38201917,3.07291465

>  <Name>
lig.pdb

>  <RI>
0

>  <Rbt.Current_Directory>
/home/itssahil/PROJECTS/Mol_Feturizer/New_Systems/rnas/4nyg

>  <Rbt.Executable>
rbdock ($Id: //depot/dev/client3/rdock/2013.1/src/exe/rbdock.cxx#4 $)

>  <Rbt.Library>
libRbt.so (2013.1, Build901 2013/11/27)

>  <Rbt.Parameter_File>
/export/apps/rDock/src/rDock_2013.1_src/data/scripts/dock_solv.prm

>  <Rbt.Receptor>
prm/pocket_docking_4.prm

>  <SCORE>
-21.5723

>  <SCORE.INTER>
-21.3835

>  <SCORE.INTER.CONST>
1

>  <SCORE.INTER.POLAR>
0

>  <SCORE.INTER.ROT>
4

>  <SCORE.INTER.SOLV>
14.3375

>  <SCORE.INTER.VDW>
-25.3015

>  <SCORE.INTER.norm>
-1.18797

>  <SCORE.INTRA>
-0.188884

>  <SCORE.INTRA.DIHEDRAL>
0.0143972

>  <SCORE.INTRA.DIHEDRAL.0>
3.20029

>  <SCORE.INTRA.POLAR>
0

>  <SCORE.INTRA.POLAR.0>
0

>  <SCORE.INTRA.REPUL>
0

>  <SCORE.INTRA.REPUL.0>
0

>  <SCORE.INTRA.SOLV>
-0.00878311

>  <SCORE.INTRA.SOLV.lig_0>
-19.3885

>  <SCORE.INTRA.VDW>
-0.191691

>  <SCORE.INTRA.VDW.0>
-1.12705

>  <SCORE.INTRA.norm>
-0.0104936

>  <SCORE.RESTR>
0

>  <SCORE.RESTR.CAVITY>
0

>  <SCORE.RESTR.norm>
0

>  <SCORE.SYSTEM>
0

>  <SCORE.SYSTEM.CONST>
0

>  <SCORE.SYSTEM.DIHEDRAL>
0

>  <SCORE.SYSTEM.SOLV>
0

>  <SCORE.SYSTEM.norm>
0

>  <SCORE.heavy>
18

>  <SCORE.norm>
-1.19846

>  <RMSD>
3.628

$$$$
lig.pdb
 OpenBabel11021811503D
libRbt.so/2013.1/901 2013/11/27
 18 19  0  0  0  0  0  0  0  0999 V2000
  -15.0624   15.9244    3.9835 C   0  0  0  0  0  0  0  0  0  0  0  0
  -11.5550   12.6243    3.4005 N   0  0  0  0  0  0  0  0  0  0  0  0
   -7.8896   14.9715   -0.0086 C   0  0  0  0  0  0  0  0  0  0  0  0
   -5.3478   19.1837   -1.1030 O   0  0  0  0  0  0  0  0  0  0  0  0
   -6.2601   18.6885   -0.1327 C   0  0  0  0  0  0  0  0  0  0  0  0
   -5.8295   17.2851    0.3362 C   0  0  0  0  0  0  0  0  0  0  0  0
   -8.4426   16.3613    3.4227 C   0  0  0  0  0  0  0  0  0  0  0  0
   -7.1472   17.4229    2.9766 S   0  0  0  0  0  0  0  0  0  0  0  0
   -6.8515   16.7972    1.3391 C   0  0  0  0  0  0  0  0  0  0  0  0
   -7.7869   15.7950    1.2643 C   0  0  0  0  0  0  0  0  0  0  0  0
   -8.5916   15.5918    2.3521 N   0  0  0  0  0  0  0  0  0  0  0  0
   -9.6582   14.5287    2.3515 C   0  0  0  0  0  0  0  0  0  0  0  0
  -11.9736   13.9487    3.2735 C   0  0  0  0  0  0  0  0  0  0  0  0
  -13.2403   14.3007    3.6519 N   0  0  0  0  0  0  0  0  0  0  0  0
  -13.6642   15.5625    3.5422 C   0  0  0  0  0  0  0  0  0  0  0  0
  -12.8585   16.5111    3.0559 N   0  0  0  0  0  0  0  0  0  0  0  0
  -11.5873   16.2371    2.6631 C   0  0  0  0  0  0  0  0  0  0  0  0
  -11.0836   14.9352    2.7597 C   0  0  0  0  0  0  0  0  0  0  0  0
  5  4  1  0  0  0  0
  5  6  1  0  0  0  0
  7  8  2  0  0  0  0
  7 11  1  0  0  0  0
  8  9  1  0  0  0  0
  9 10  2  0  0  0  0
  9  6  1  0  0  0  0
 10  3  1  0  0  0  0
 11 12  1  0  0  0  0
 11 10  1  0  0  0  0
 12 18  1  0  0  0  0
 13  2  1  0  0  0  0
 13 14  2  0  0  0  0
 15 14  1  0  0  0  0
 15  1  1  0  0  0  0
 16 15  2  0  0  0  0
 17 18  2  0  0  0  0
 17 16  1  0  0  0  0
 18 13  1  0  0  0  0
M  END
>  <CHROM.1>
-178.66284490,-68.73048391,50.14276066,-155.63428670,-9.49276008,16.06721917
2.18586895,2.73948339,-0.36991972,3.03667307

>  <Name>
lig.pdb

>  <RI>
0

>  <Rbt.Current_Directory>
/home/itssahil/PROJECTS/Mol_Feturizer/New_Systems/rnas/4nyg

>  <Rbt.Executable>
rbdock ($Id: //depot/dev/client3/rdock/2013.1/src/exe/rbdock.cxx#4 $)

>  <Rbt.Library>
libRbt.so (2013.1, Build901 2013/11/27)

>  <Rbt.Parameter_File>
/export/apps/rDock/src/rDock_2013.1_src/data/scripts/dock_solv.prm

>  <Rbt.Receptor>
prm/pocket_docking_6.prm

>  <SCORE>
-21.5709

>  <SCORE.INTER>
-21.3718

>  <SCORE.INTER.CONST>
1

>  <SCORE.INTER.POLAR>
0

>  <SCORE.INTER.ROT>
4

>  <SCORE.INTER.SOLV>
14.3202

>  <SCORE.INTER.VDW>
-25.2879

>  <SCORE.INTER.norm>
-1.18732

>  <SCORE.INTRA>
-0.199089

>  <SCORE.INTRA.DIHEDRAL>
0.0385134

>  <SCORE.INTRA.DIHEDRAL.0>
3.20029

>  <SCORE.INTRA.POLAR>
0

>  <SCORE.INTRA.POLAR.0>
0

>  <SCORE.INTRA.REPUL>
0

>  <SCORE.INTRA.REPUL.0>
0

>  <SCORE.INTRA.SOLV>
-0.0107171

>  <SCORE.INTRA.SOLV.lig_0>
-19.3885

>  <SCORE.INTRA.VDW>
-0.212987

>  <SCORE.INTRA.VDW.0>
-1.12705

>  <SCORE.INTRA.norm>
-0.0110605

>  <SCORE.RESTR>
0

>  <SCORE.RESTR.CAVITY>
0

>  <SCORE.RESTR.norm>
0

>  <SCORE.SYSTEM>
0

>  <SCORE.SYSTEM.CONST>
0

>  <SCORE.SYSTEM.DIHEDRAL>
0

>  <SCORE.SYSTEM.SOLV>
0

>  <SCORE.SYSTEM.norm>
0

>  <SCORE.heavy>
18

>  <SCORE.norm>
-1.19839

>  <RMSD>
3.636

$$$$
lig.pdb
 OpenBabel11021811503D
libRbt.so/2013.1/901 2013/11/27
 18 19  0  0  0  0  0  0  0  0999 V2000
  -14.7732   15.8989    3.6809 C   0  0  0  0  0  0  0  0  0  0  0  0
  -10.1673   16.1424    2.1780 N   0  0  0  0  0  0  0  0  0  0  0  0
   -7.5528   15.2695    3.3004 C   0  0  0  0  0  0  0  0  0  0  0  0
   -5.3821   18.6841    0.2734 O   0  0  0  0  0  0  0  0  0  0  0  0
   -6.4478   17.7486    0.3632 C   0  0  0  0  0  0  0  0  0  0  0  0
   -5.9278   16.3975    0.8916 C   0  0  0  0  0  0  0  0  0  0  0  0
   -8.9919   13.6800    0.2322 C   0  0  0  0  0  0  0  0  0  0  0  0
   -7.7921   14.6360   -0.5743 S   0  0  0  0  0  0  0  0  0  0  0  0
   -7.0752   15.4124    0.8554 C   0  0  0  0  0  0  0  0  0  0  0  0
   -7.8351   14.8699    1.8619 C   0  0  0  0  0  0  0  0  0  0  0  0
   -8.8156   13.9820    1.5122 N   0  0  0  0  0  0  0  0  0  0  0  0
   -9.6839   13.3225    2.5511 C   0  0  0  0  0  0  0  0  0  0  0  0
  -11.2185   15.3667    2.6667 C   0  0  0  0  0  0  0  0  0  0  0  0
  -12.4253   15.9509    2.9388 N   0  0  0  0  0  0  0  0  0  0  0  0
  -13.4479   15.2295    3.4053 C   0  0  0  0  0  0  0  0  0  0  0  0
  -13.3130   13.9176    3.6202 N   0  0  0  0  0  0  0  0  0  0  0  0
  -12.1463   13.2684    3.3702 C   0  0  0  0  0  0  0  0  0  0  0  0
  -11.0409   13.9686    2.8744 C   0  0  0  0  0  0  0  0  0  0  0  0
  5  4  1  0  0  0  0
  5  6  1  0  0  0  0
  7  8  2  0  0  0  0
  7 11  1  0  0  0  0
  8  9  1  0  0  0  0
  9 10  2  0  0  0  0
  9  6  1  0  0  0  0
 10  3  1  0  0  0  0
 11 12  1  0  0  0  0
 11 10  1  0  0  0  0
 12 18  1  0  0  0  0
 13  2  1  0  0  0  0
 13 14  2  0  0  0  0
 15 14  1  0  0  0  0
 15  1  1  0  0  0  0
 16 15  2  0  0  0  0
 17 18  2  0  0  0  0
 17 16  1  0  0  0  0
 18 13  1  0  0  0  0
M  END
>  <CHROM.1>
-175.29542859,73.37383860,-86.38051774,-26.20020509,-9.49409153,15.22035912
1.81016557,2.98464806,-0.45357579,-2.97475418

>  <Name>
lig.pdb

>  <RI>
0

>  <Rbt.Current_Directory>
/home/itssahil/PROJECTS/Mol_Feturizer/New_Systems/rnas/4nyg

>  <Rbt.Executable>
rbdock ($Id: //depot/dev/client3/rdock/2013.1/src/exe/rbdock.cxx#4 $)

>  <Rbt.Library>
libRbt.so (2013.1, Build901 2013/11/27)

>  <Rbt.Parameter_File>
/export/apps/rDock/src/rDock_2013.1_src/data/scripts/dock_solv.prm

>  <Rbt.Receptor>
prm/blind_docking_60.prm

>  <SCORE>
-19.2834

>  <SCORE.INTER>
-20.1894

>  <SCORE.INTER.CONST>
1

>  <SCORE.INTER.POLAR>
0

>  <SCORE.INTER.ROT>
4

>  <SCORE.INTER.SOLV>
13.1901

>  <SCORE.INTER.VDW>
-24.123

>  <SCORE.INTER.norm>
-1.12164

>  <SCORE.INTRA>
0.906024

>  <SCORE.INTRA.DIHEDRAL>
0.247303

>  <SCORE.INTRA.DIHEDRAL.0>
3.20029

>  <SCORE.INTRA.POLAR>
0

>  <SCORE.INTRA.POLAR.0>
0

>  <SCORE.INTRA.REPUL>
0

>  <SCORE.INTRA.REPUL.0>
0

>  <SCORE.INTRA.SOLV>
1.87763

>  <SCORE.INTRA.SOLV.lig_0>
-19.3885

>  <SCORE.INTRA.VDW>
-0.156441

>  <SCORE.INTRA.VDW.0>
-1.12705

>  <SCORE.INTRA.norm>
0.0503346

>  <SCORE.RESTR>
0

>  <SCORE.RESTR.CAVITY>
0

>  <SCORE.RESTR.norm>
0

>  <SCORE.SYSTEM>
0

>  <SCORE.SYSTEM.CONST>
0

>  <SCORE.SYSTEM.DIHEDRAL>
0

>  <SCORE.SYSTEM.SOLV>
0

>  <SCORE.SYSTEM.norm>
0

>  <SCORE.heavy>
18

>  <SCORE.norm>
-1.0713

>  <RMSD>
3.639

$$$$
lig.pdb
 OpenBabel11021811503D
libRbt.so/2013.1/901 2013/11/27
 18 19  0  0  0  0  0  0  0  0999 V2000
  -15.0575   15.9421    4.0352 C   0  0  0  0  0  0  0  0  0  0  0  0
  -11.5960   12.6023    3.4059 N   0  0  0  0  0  0  0  0  0  0  0  0
   -7.9512   14.9475   -0.0438 C   0  0  0  0  0  0  0  0  0  0  0  0
   -5.3500   19.1509   -1.0790 O   0  0  0  0  0  0  0  0  0  0  0  0
   -6.2513   18.6523   -0.1002 C   0  0  0  0  0  0  0  0  0  0  0  0
   -5.8512   17.2228    0.3138 C   0  0  0  0  0  0  0  0  0  0  0  0
   -8.4314   16.2786    3.4216 C   0  0  0  0  0  0  0  0  0  0  0  0
   -7.1268   17.3292    2.9762 S   0  0  0  0  0  0  0  0  0  0  0  0
   -6.8653   16.7309    1.3226 C   0  0  0  0  0  0  0  0  0  0  0  0
   -7.8169   15.7445    1.2430 C   0  0  0  0  0  0  0  0  0  0  0  0
   -8.6082   15.5324    2.3388 N   0  0  0  0  0  0  0  0  0  0  0  0
   -9.6909   14.4855    2.3341 C   0  0  0  0  0  0  0  0  0  0  0  0
  -12.0009   13.9315    3.2850 C   0  0  0  0  0  0  0  0  0  0  0  0
  -13.2586   14.2978    3.6796 N   0  0  0  0  0  0  0  0  0  0  0  0
  -13.6692   15.5645    3.5761 C   0  0  0  0  0  0  0  0  0  0  0  0
  -12.8589   16.5041    3.0801 N   0  0  0  0  0  0  0  0  0  0  0  0
  -11.5961   16.2158    2.6712 C   0  0  0  0  0  0  0  0  0  0  0  0
  -11.1061   14.9081    2.7606 C   0  0  0  0  0  0  0  0  0  0  0  0
  5  4  1  0  0  0  0
  5  6  1  0  0  0  0
  7  8  2  0  0  0  0
  7 11  1  0  0  0  0
  8  9  1  0  0  0  0
  9 10  2  0  0  0  0
  9  6  1  0  0  0  0
 10  3  1  0  0  0  0
 11 12  1  0  0  0  0
 11 10  1  0  0  0  0
 12 18  1  0  0  0  0
 13  2  1  0  0  0  0
 13 14  2  0  0  0  0
 15 14  1  0  0  0  0
 15  1  1  0  0  0  0
 16 15  2  0  0  0  0
 17 18  2  0  0  0  0
 17 16  1  0  0  0  0
 18 13  1  0  0  0  0
M  END
>  <CHROM.1>
-178.35542208,-67.60590108,50.64347896,-154.86767193,-9.50456282,16.02851456
2.19093831,2.74669160,-0.37426776,3.03983114

>  <Name>
lig.pdb

>  <RI>
0

>  <Rbt.Current_Directory>
/home/itssahil/PROJECTS/Mol_Feturizer/New_Systems/rnas/4nyg

>  <Rbt.Executable>
rbdock ($Id: //depot/dev/client3/rdock/2013.1/src/exe/rbdock.cxx#4 $)

>  <Rbt.Library>
libRbt.so (2013.1, Build901 2013/11/27)

>  <Rbt.Parameter_File>
/export/apps/rDock/src/rDock_2013.1_src/data/scripts/dock_solv.prm

>  <Rbt.Receptor>
prm/pocket_docking_4.prm

>  <SCORE>
-21.5942

>  <SCORE.INTER>
-21.3684

>  <SCORE.INTER.CONST>
1

>  <SCORE.INTER.POLAR>
0

>  <SCORE.INTER.ROT>
4

>  <SCORE.INTER.SOLV>
14.3698

>  <SCORE.INTER.VDW>
-25.3022

>  <SCORE.INTER.norm>
-1.18713

>  <SCORE.INTRA>
-0.225779

>  <SCORE.INTRA.DIHEDRAL>
0.00998727

>  <SCORE.INTRA.DIHEDRAL.0>
3.20029

>  <SCORE.INTRA.POLAR>
0

>  <SCORE.INTRA.POLAR.0>
0

>  <SCORE.INTRA.REPUL>
0

>  <SCORE.INTRA.REPUL.0>
0

>  <SCORE.INTRA.SOLV>
-0.0143826

>  <SCORE.INTRA.SOLV.lig_0>
-19.3885

>  <SCORE.INTRA.VDW>
-0.223581

>  <SCORE.INTRA.VDW.0>
-1.12705

>  <SCORE.INTRA.norm>
-0.0125433

>  <SCORE.RESTR>
0

>  <SCORE.RESTR.CAVITY>
0

>  <SCORE.RESTR.norm>
0

>  <SCORE.SYSTEM>
0

>  <SCORE.SYSTEM.CONST>
0

>  <SCORE.SYSTEM.DIHEDRAL>
0

>  <SCORE.SYSTEM.SOLV>
0

>  <SCORE.SYSTEM.norm>
0

>  <SCORE.heavy>
18

>  <SCORE.norm>
-1.19968

>  <RMSD>
3.643

$$$$
lig.pdb
 OpenBabel11021811503D
libRbt.so/2013.1/901 2013/11/27
 18 19  0  0  0  0  0  0  0  0999 V2000
  -15.0584   15.9315    4.0061 C   0  0  0  0  0  0  0  0  0  0  0  0
  -11.5879   12.6016    3.3735 N   0  0  0  0  0  0  0  0  0  0  0  0
   -7.9327   14.9456   -0.0287 C   0  0  0  0  0  0  0  0  0  0  0  0
   -5.3753   19.1563   -1.1266 O   0  0  0  0  0  0  0  0  0  0  0  0
   -6.2688   18.6654   -0.1368 C   0  0  0  0  0  0  0  0  0  0  0  0
   -5.8550   17.2460    0.2977 C   0  0  0  0  0  0  0  0  0  0  0  0
   -8.4281   16.3209    3.4173 C   0  0  0  0  0  0  0  0  0  0  0  0
   -7.1334   17.3776    2.9577 S   0  0  0  0  0  0  0  0  0  0  0  0
   -6.8650   16.7586    1.3129 C   0  0  0  0  0  0  0  0  0  0  0  0
   -7.8070   15.7620    1.2467 C   0  0  0  0  0  0  0  0  0  0  0  0
   -8.5969   15.5577    2.3450 N   0  0  0  0  0  0  0  0  0  0  0  0
   -9.6694   14.5005    2.3546 C   0  0  0  0  0  0  0  0  0  0  0  0
  -11.9916   13.9324    3.2667 C   0  0  0  0  0  0  0  0  0  0  0  0
  -13.2545   14.2927    3.6502 N   0  0  0  0  0  0  0  0  0  0  0  0
  -13.6641   15.5608    3.5598 C   0  0  0  0  0  0  0  0  0  0  0  0
  -12.8476   16.5076    3.0884 N   0  0  0  0  0  0  0  0  0  0  0  0
  -11.5794   16.2255    2.6919 C   0  0  0  0  0  0  0  0  0  0  0  0
  -11.0903   14.9167    2.7685 C   0  0  0  0  0  0  0  0  0  0  0  0
  5  4  1  0  0  0  0
  5  6  1  0  0  0  0
  7  8  2  0  0  0  0
  7 11  1  0  0  0  0
  8  9  1  0  0  0  0
  9 10  2  0  0  0  0
  9  6  1  0  0  0  0
 10  3  1  0  0  0  0
 11 12  1  0  0  0  0
 11 10  1  0  0  0  0
 12 18  1  0  0  0  0
 13  2  1  0  0  0  0
 13 14  2  0  0  0  0
 15 14  1  0  0  0  0
 15  1  1  0  0  0  0
 16 15  2  0  0  0  0
 17 18  2  0  0  0  0
 17 16  1  0  0  0  0
 18 13  1  0  0  0  0
M  END
>  <CHROM.1>
-178.08837661,-67.62014206,50.89586587,-156.85357403,-9.50119349,16.04292664
2.18004319,2.74487117,-0.37730227,3.04444337

>  <Name>
lig.pdb

>  <RI>
0

>  <Rbt.Current_Directory>
/home/itssahil/PROJECTS/Mol_Feturizer/New_Systems/rnas/4nyg

>  <Rbt.Executable>
rbdock ($Id: //depot/dev/client3/rdock/2013.1/src/exe/rbdock.cxx#4 $)

>  <Rbt.Library>
libRbt.so (2013.1, Build901 2013/11/27)

>  <Rbt.Parameter_File>
/export/apps/rDock/src/rDock_2013.1_src/data/scripts/dock_solv.prm

>  <Rbt.Receptor>
prm/pocket_docking_5.prm

>  <SCORE>
-21.6027

>  <SCORE.INTER>
-21.394

>  <SCORE.INTER.CONST>
1

>  <SCORE.INTER.POLAR>
0

>  <SCORE.INTER.ROT>
4

>  <SCORE.INTER.SOLV>
14.3104

>  <SCORE.INTER.VDW>
-25.2994

>  <SCORE.INTER.norm>
-1.18855

>  <SCORE.INTRA>
-0.208695

>  <SCORE.INTRA.DIHEDRAL>
0.014776

>  <SCORE.INTRA.DIHEDRAL.0>
3.20029

>  <SCORE.INTRA.POLAR>
0

>  <SCORE.INTRA.POLAR.0>
0

>  <SCORE.INTRA.REPUL>
0

>  <SCORE.INTRA.REPUL.0>
0

>  <SCORE.INTRA.SOLV>
-0.0106136

>  <SCORE.INTRA.SOLV.lig_0>
-19.3885

>  <SCORE.INTRA.VDW>
-0.210776

>  <SCORE.INTRA.VDW.0>
-1.12705

>  <SCORE.INTRA.norm>
-0.0115942

>  <SCORE.RESTR>
0

>  <SCORE.RESTR.CAVITY>
0

>  <SCORE.RESTR.norm>
0

>  <SCORE.SYSTEM>
0

>  <SCORE.SYSTEM.CONST>
0

>  <SCORE.SYSTEM.DIHEDRAL>
0

>  <SCORE.SYSTEM.SOLV>
0

>  <SCORE.SYSTEM.norm>
0

>  <SCORE.heavy>
18

>  <SCORE.norm>
-1.20015

>  <RMSD>
3.644

$$$$
lig.pdb
 OpenBabel11021811503D
libRbt.so/2013.1/901 2013/11/27
 18 19  0  0  0  0  0  0  0  0999 V2000
  -15.2500   13.5566    2.8067 C   0  0  0  0  0  0  0  0  0  0  0  0
  -11.1164   11.1563    1.9796 N   0  0  0  0  0  0  0  0  0  0  0  0
   -8.9353   16.3091    2.9117 C   0  0  0  0  0  0  0  0  0  0  0  0
   -5.9320   17.5763    2.4936 O   0  0  0  0  0  0  0  0  0  0  0  0
   -5.9075   17.6380    1.0743 C   0  0  0  0  0  0  0  0  0  0  0  0
   -7.3329   17.4824    0.5094 C   0  0  0  0  0  0  0  0  0  0  0  0
   -8.2420   13.4363    0.6144 C   0  0  0  0  0  0  0  0  0  0  0  0
   -7.4598   14.6551   -0.3378 S   0  0  0  0  0  0  0  0  0  0  0  0
   -7.7631   16.0481    0.7243 C   0  0  0  0  0  0  0  0  0  0  0  0
   -8.4630   15.4561    1.7463 C   0  0  0  0  0  0  0  0  0  0  0  0
   -8.6964   14.1105    1.6630 N   0  0  0  0  0  0  0  0  0  0  0  0
   -9.4380   13.3741    2.7474 C   0  0  0  0  0  0  0  0  0  0  0  0
  -11.7469   12.3357    2.3756 C   0  0  0  0  0  0  0  0  0  0  0  0
  -13.1133   12.4018    2.3984 N   0  0  0  0  0  0  0  0  0  0  0  0
  -13.7406   13.5188    2.7759 C   0  0  0  0  0  0  0  0  0  0  0  0
  -13.0451   14.6008    3.1376 N   0  0  0  0  0  0  0  0  0  0  0  0
  -11.6867   14.6086    3.1431 C   0  0  0  0  0  0  0  0  0  0  0  0
  -10.9725   13.4666    2.7640 C   0  0  0  0  0  0  0  0  0  0  0  0
  5  4  1  0  0  0  0
  5  6  1  0  0  0  0
  7  8  2  0  0  0  0
  7 11  1  0  0  0  0
  8  9  1  0  0  0  0
  9 10  2  0  0  0  0
  9  6  1  0  0  0  0
 10  3  1  0  0  0  0
 11 12  1  0  0  0  0
 11 10  1  0  0  0  0
 12 18  1  0  0  0  0
 13  2  1  0  0  0  0
 13 14  2  0  0  0  0
 15 14  1  0  0  0  0
 15  1  1  0  0  0  0
 16 15  2  0  0  0  0
 17 18  2  0  0  0  0
 17 16  1  0  0  0  0
 18 13  1  0  0  0  0
M  END
>  <CHROM.1>
-70.77619394,-86.45886603,-101.31660478,107.28713928,-9.72810667,14.59318949
1.82220944,2.80248238,-0.43004235,-2.73843305

>  <Name>
lig.pdb

>  <RI>
0

>  <Rbt.Current_Directory>
/home/itssahil/PROJECTS/Mol_Feturizer/New_Systems/rnas/4nyg

>  <Rbt.Executable>
rbdock ($Id: //depot/dev/client3/rdock/2013.1/src/exe/rbdock.cxx#4 $)

>  <Rbt.Library>
libRbt.so (2013.1, Build901 2013/11/27)

>  <Rbt.Parameter_File>
/export/apps/rDock/src/rDock_2013.1_src/data/scripts/dock_solv.prm

>  <Rbt.Receptor>
prm/blind_docking_20.prm

>  <SCORE>
-12.0106

>  <SCORE.INTER>
-14.5635

>  <SCORE.INTER.CONST>
1

>  <SCORE.INTER.POLAR>
0

>  <SCORE.INTER.ROT>
4

>  <SCORE.INTER.SOLV>
13.8804

>  <SCORE.INTER.VDW>
-20.6025

>  <SCORE.INTER.norm>
-0.809084

>  <SCORE.INTRA>
0.553119

>  <SCORE.INTRA.DIHEDRAL>
1.40136

>  <SCORE.INTRA.DIHEDRAL.0>
3.20029

>  <SCORE.INTRA.POLAR>
0

>  <SCORE.INTRA.POLAR.0>
0

>  <SCORE.INTRA.REPUL>
0

>  <SCORE.INTRA.REPUL.0>
0

>  <SCORE.INTRA.SOLV>
0.86727

>  <SCORE.INTRA.SOLV.lig_0>
-19.3885

>  <SCORE.INTRA.VDW>
-0.581195

>  <SCORE.INTRA.VDW.0>
-1.12705

>  <SCORE.INTRA.norm>
0.0307289

>  <SCORE.RESTR>
1.99983

>  <SCORE.RESTR.CAVITY>
1.99983

>  <SCORE.RESTR.norm>
0.111102

>  <SCORE.SYSTEM>
0

>  <SCORE.SYSTEM.CONST>
0

>  <SCORE.SYSTEM.DIHEDRAL>
0

>  <SCORE.SYSTEM.SOLV>
0

>  <SCORE.SYSTEM.norm>
0

>  <SCORE.heavy>
18

>  <SCORE.norm>
-0.667253

>  <RMSD>
3.645

$$$$
lig.pdb
 OpenBabel11021811503D
libRbt.so/2013.1/901 2013/11/27
 18 19  0  0  0  0  0  0  0  0999 V2000
  -14.4130   16.1125    3.5083 C   0  0  0  0  0  0  0  0  0  0  0  0
   -9.6770   15.1469    3.0966 N   0  0  0  0  0  0  0  0  0  0  0  0
   -7.3088   11.6130    3.1667 C   0  0  0  0  0  0  0  0  0  0  0  0
   -4.9613   14.7086    3.0194 O   0  0  0  0  0  0  0  0  0  0  0  0
   -4.4739   14.2686    1.7594 C   0  0  0  0  0  0  0  0  0  0  0  0
   -5.0968   12.9075    1.3928 C   0  0  0  0  0  0  0  0  0  0  0  0
   -9.0926   13.7528    0.6666 C   0  0  0  0  0  0  0  0  0  0  0  0
   -7.4834   14.1006    0.1248 S   0  0  0  0  0  0  0  0  0  0  0  0
   -6.5944   13.0951    1.2906 C   0  0  0  0  0  0  0  0  0  0  0  0
   -7.6257   12.5648    2.0254 C   0  0  0  0  0  0  0  0  0  0  0  0
   -8.9015   12.9217    1.6831 N   0  0  0  0  0  0  0  0  0  0  0  0
  -10.0944   12.3732    2.4207 C   0  0  0  0  0  0  0  0  0  0  0  0
  -10.9927   14.6875    3.0407 C   0  0  0  0  0  0  0  0  0  0  0  0
  -12.0252   15.5493    3.2919 N   0  0  0  0  0  0  0  0  0  0  0  0
  -13.2937   15.1343    3.2424 C   0  0  0  0  0  0  0  0  0  0  0  0
  -13.5828   13.8633    2.9487 N   0  0  0  0  0  0  0  0  0  0  0  0
  -12.6110   12.9516    2.6846 C   0  0  0  0  0  0  0  0  0  0  0  0
  -11.2634   13.3274    2.7146 C   0  0  0  0  0  0  0  0  0  0  0  0
  5  4  1  0  0  0  0
  5  6  1  0  0  0  0
  7  8  2  0  0  0  0
  7 11  1  0  0  0  0
  8  9  1  0  0  0  0
  9 10  2  0  0  0  0
  9  6  1  0  0  0  0
 10  3  1  0  0  0  0
 11 12  1  0  0  0  0
 11 10  1  0  0  0  0
 12 18  1  0  0  0  0
 13  2  1  0  0  0  0
 13 14  2  0  0  0  0
 15 14  1  0  0  0  0
 15  1  1  0  0  0  0
 16 15  2  0  0  0  0
 17 18  2  0  0  0  0
 17 16  1  0  0  0  0
 18 13  1  0  0  0  0
M  END
>  <CHROM.1>
61.65007727,64.20083182,-40.91950952,-36.56807911,-9.22874137,13.86899931
2.19846459,-2.94524646,-0.17433527,-2.95048778

>  <Name>
lig.pdb

>  <RI>
0

>  <Rbt.Current_Directory>
/home/itssahil/PROJECTS/Mol_Feturizer/New_Systems/rnas/4nyg

>  <Rbt.Executable>
rbdock ($Id: //depot/dev/client3/rdock/2013.1/src/exe/rbdock.cxx#4 $)

>  <Rbt.Library>
libRbt.so (2013.1, Build901 2013/11/27)

>  <Rbt.Parameter_File>
/export/apps/rDock/src/rDock_2013.1_src/data/scripts/dock_solv.prm

>  <Rbt.Receptor>
prm/pocket_docking_3.prm

>  <SCORE>
-19.9244

>  <SCORE.INTER>
-20.4397

>  <SCORE.INTER.CONST>
1

>  <SCORE.INTER.POLAR>
0

>  <SCORE.INTER.ROT>
4

>  <SCORE.INTER.SOLV>
11.5425

>  <SCORE.INTER.VDW>
-23.7406

>  <SCORE.INTER.norm>
-1.13554

>  <SCORE.INTRA>
0.51534

>  <SCORE.INTRA.DIHEDRAL>
0.0152072

>  <SCORE.INTRA.DIHEDRAL.0>
3.20029

>  <SCORE.INTRA.POLAR>
0

>  <SCORE.INTRA.POLAR.0>
0

>  <SCORE.INTRA.REPUL>
0

>  <SCORE.INTRA.REPUL.0>
0

>  <SCORE.INTRA.SOLV>
1.92327

>  <SCORE.INTRA.SOLV.lig_0>
-19.3885

>  <SCORE.INTRA.VDW>
-0.453898

>  <SCORE.INTRA.VDW.0>
-1.12705

>  <SCORE.INTRA.norm>
0.02863

>  <SCORE.RESTR>
0

>  <SCORE.RESTR.CAVITY>
0

>  <SCORE.RESTR.norm>
0

>  <SCORE.SYSTEM>
0

>  <SCORE.SYSTEM.CONST>
0

>  <SCORE.SYSTEM.DIHEDRAL>
0

>  <SCORE.SYSTEM.SOLV>
0

>  <SCORE.SYSTEM.norm>
0

>  <SCORE.heavy>
18

>  <SCORE.norm>
-1.10691

>  <RMSD>
3.645

$$$$
lig.pdb
 OpenBabel11021811503D
libRbt.so/2013.1/901 2013/11/27
 18 19  0  0  0  0  0  0  0  0999 V2000
  -15.0858   15.9312    4.0523 C   0  0  0  0  0  0  0  0  0  0  0  0
  -11.6531   12.5961    3.2612 N   0  0  0  0  0  0  0  0  0  0  0  0
   -7.9318   14.9236   -0.0411 C   0  0  0  0  0  0  0  0  0  0  0  0
   -5.3078   19.1298   -1.1025 O   0  0  0  0  0  0  0  0  0  0  0  0
   -6.2362   18.6465   -0.1414 C   0  0  0  0  0  0  0  0  0  0  0  0
   -5.8527   17.2206    0.2998 C   0  0  0  0  0  0  0  0  0  0  0  0
   -8.4963   16.3464    3.3748 C   0  0  0  0  0  0  0  0  0  0  0  0
   -7.1878   17.3922    2.9295 S   0  0  0  0  0  0  0  0  0  0  0  0
   -6.8863   16.7504    1.2992 C   0  0  0  0  0  0  0  0  0  0  0  0
   -7.8305   15.7564    1.2258 C   0  0  0  0  0  0  0  0  0  0  0  0
   -8.6448   15.5696    2.3094 N   0  0  0  0  0  0  0  0  0  0  0  0
   -9.7213   14.5165    2.3096 C   0  0  0  0  0  0  0  0  0  0  0  0
  -12.0438   13.9341    3.2120 C   0  0  0  0  0  0  0  0  0  0  0  0
  -13.3008   14.2908    3.6178 N   0  0  0  0  0  0  0  0  0  0  0  0
  -13.6980   15.5655    3.5824 C   0  0  0  0  0  0  0  0  0  0  0  0
  -12.8747   16.5229    3.1454 N   0  0  0  0  0  0  0  0  0  0  0  0
  -11.6117   16.2449    2.7297 C   0  0  0  0  0  0  0  0  0  0  0  0
  -11.1355   14.9292    2.7492 C   0  0  0  0  0  0  0  0  0  0  0  0
  5  4  1  0  0  0  0
  5  6  1  0  0  0  0
  7  8  2  0  0  0  0
  7 11  1  0  0  0  0
  8  9  1  0  0  0  0
  9 10  2  0  0  0  0
  9  6  1  0  0  0  0
 10  3  1  0  0  0  0
 11 12  1  0  0  0  0
 11 10  1  0  0  0  0
 12 18  1  0  0  0  0
 13  2  1  0  0  0  0
 13 14  2  0  0  0  0
 15 14  1  0  0  0  0
 15  1  1  0  0  0  0
 16 15  2  0  0  0  0
 17 18  2  0  0  0  0
 17 16  1  0  0  0  0
 18 13  1  0  0  0  0
M  END
>  <CHROM.1>
-178.96117722,-66.51940096,48.14751586,-158.11956171,-9.52916888,16.04381913
2.16670708,2.78480711,-0.40890725,3.13573861

>  <Name>
lig.pdb

>  <RI>
0

>  <Rbt.Current_Directory>
/home/itssahil/PROJECTS/Mol_Feturizer/New_Systems/rnas/4nyg

>  <Rbt.Executable>
rbdock ($Id: //depot/dev/client3/rdock/2013.1/src/exe/rbdock.cxx#4 $)

>  <Rbt.Library>
libRbt.so (2013.1, Build901 2013/11/27)

>  <Rbt.Parameter_File>
/export/apps/rDock/src/rDock_2013.1_src/data/scripts/dock_solv.prm

>  <Rbt.Receptor>
prm/pocket_docking_4.prm

>  <SCORE>
-21.5075

>  <SCORE.INTER>
-21.3576

>  <SCORE.INTER.CONST>
1

>  <SCORE.INTER.POLAR>
0

>  <SCORE.INTER.ROT>
4

>  <SCORE.INTER.SOLV>
14.267

>  <SCORE.INTER.VDW>
-25.2607

>  <SCORE.INTER.norm>
-1.18653

>  <SCORE.INTRA>
-0.149881

>  <SCORE.INTRA.DIHEDRAL>
-0.0318108

>  <SCORE.INTRA.DIHEDRAL.0>
3.20029

>  <SCORE.INTRA.POLAR>
0

>  <SCORE.INTRA.POLAR.0>
0

>  <SCORE.INTRA.REPUL>
0

>  <SCORE.INTRA.REPUL.0>
0

>  <SCORE.INTRA.SOLV>
5.97417e-05

>  <SCORE.INTRA.SOLV.lig_0>
-19.3885

>  <SCORE.INTRA.VDW>
-0.134005

>  <SCORE.INTRA.VDW.0>
-1.12705

>  <SCORE.INTRA.norm>
-0.00832672

>  <SCORE.RESTR>
0

>  <SCORE.RESTR.CAVITY>
0

>  <SCORE.RESTR.norm>
0

>  <SCORE.SYSTEM>
0

>  <SCORE.SYSTEM.CONST>
0

>  <SCORE.SYSTEM.DIHEDRAL>
0

>  <SCORE.SYSTEM.SOLV>
0

>  <SCORE.SYSTEM.norm>
0

>  <SCORE.heavy>
18

>  <SCORE.norm>
-1.19486

>  <RMSD>
3.655

$$$$
lig.pdb
 OpenBabel11021811503D
libRbt.so/2013.1/901 2013/11/27
 18 19  0  0  0  0  0  0  0  0999 V2000
  -15.2469   16.0764    4.1772 C   0  0  0  0  0  0  0  0  0  0  0  0
  -12.0604   12.4952    3.4332 N   0  0  0  0  0  0  0  0  0  0  0  0
   -8.5029   16.6676    3.7509 C   0  0  0  0  0  0  0  0  0  0  0  0
   -5.5272   17.9452   -0.4101 O   0  0  0  0  0  0  0  0  0  0  0  0
   -5.4066   17.9551    1.0056 C   0  0  0  0  0  0  0  0  0  0  0  0
   -6.7814   18.2046    1.6558 C   0  0  0  0  0  0  0  0  0  0  0  0
   -8.9239   14.8423    0.5101 C   0  0  0  0  0  0  0  0  0  0  0  0
   -7.8621   16.0763   -0.0848 S   0  0  0  0  0  0  0  0  0  0  0  0
   -7.6305   16.9727    1.4329 C   0  0  0  0  0  0  0  0  0  0  0  0
   -8.4097   16.2418    2.2952 C   0  0  0  0  0  0  0  0  0  0  0  0
   -9.0653   15.1510    1.7928 N   0  0  0  0  0  0  0  0  0  0  0  0
   -9.9256   14.2799    2.6698 C   0  0  0  0  0  0  0  0  0  0  0  0
  -12.3362   13.8624    3.4195 C   0  0  0  0  0  0  0  0  0  0  0  0
  -13.5809   14.3085    3.7712 N   0  0  0  0  0  0  0  0  0  0  0  0
  -13.8691   15.6126    3.7682 C   0  0  0  0  0  0  0  0  0  0  0  0
  -12.9461   16.5127    3.4174 N   0  0  0  0  0  0  0  0  0  0  0  0
  -11.6884   16.1448    3.0594 C   0  0  0  0  0  0  0  0  0  0  0  0
  -11.3240   14.7938    3.0491 C   0  0  0  0  0  0  0  0  0  0  0  0
  5  4  1  0  0  0  0
  5  6  1  0  0  0  0
  7  8  2  0  0  0  0
  7 11  1  0  0  0  0
  8  9  1  0  0  0  0
  9 10  2  0  0  0  0
  9  6  1  0  0  0  0
 10  3  1  0  0  0  0
 11 12  1  0  0  0  0
 11 10  1  0  0  0  0
 12 18  1  0  0  0  0
 13  2  1  0  0  0  0
 13 14  2  0  0  0  0
 15 14  1  0  0  0  0
 15  1  1  0  0  0  0
 16 15  2  0  0  0  0
 17 18  2  0  0  0  0
 17 16  1  0  0  0  0
 18 13  1  0  0  0  0
M  END
>  <CHROM.1>
69.95057971,-47.21452716,-103.77958770,156.41998474,-9.86158611,15.84014401
2.18347130,2.95546644,-0.48674147,-2.88305381

>  <Name>
lig.pdb

>  <RI>
0

>  <Rbt.Current_Directory>
/home/itssahil/PROJECTS/Mol_Feturizer/New_Systems/rnas/4nyg

>  <Rbt.Executable>
rbdock ($Id: //depot/dev/client3/rdock/2013.1/src/exe/rbdock.cxx#4 $)

>  <Rbt.Library>
libRbt.so (2013.1, Build901 2013/11/27)

>  <Rbt.Parameter_File>
/export/apps/rDock/src/rDock_2013.1_src/data/scripts/dock_solv.prm

>  <Rbt.Receptor>
prm/blind_docking_100.prm

>  <SCORE>
-18.5753

>  <SCORE.INTER>
-18.7655

>  <SCORE.INTER.CONST>
1

>  <SCORE.INTER.POLAR>
0

>  <SCORE.INTER.ROT>
4

>  <SCORE.INTER.SOLV>
15.2858

>  <SCORE.INTER.VDW>
-23.8723

>  <SCORE.INTER.norm>
-1.04253

>  <SCORE.INTRA>
0.190177

>  <SCORE.INTRA.DIHEDRAL>
0.519459

>  <SCORE.INTRA.DIHEDRAL.0>
3.20029

>  <SCORE.INTRA.POLAR>
0

>  <SCORE.INTRA.POLAR.0>
0

>  <SCORE.INTRA.REPUL>
0

>  <SCORE.INTRA.REPUL.0>
0

>  <SCORE.INTRA.SOLV>
0.432048

>  <SCORE.INTRA.SOLV.lig_0>
-19.3885

>  <SCORE.INTRA.VDW>
-0.285577

>  <SCORE.INTRA.VDW.0>
-1.12705

>  <SCORE.INTRA.norm>
0.0105654

>  <SCORE.RESTR>
0

>  <SCORE.RESTR.CAVITY>
0

>  <SCORE.RESTR.norm>
0

>  <SCORE.SYSTEM>
0

>  <SCORE.SYSTEM.CONST>
0

>  <SCORE.SYSTEM.DIHEDRAL>
0

>  <SCORE.SYSTEM.SOLV>
0

>  <SCORE.SYSTEM.norm>
0

>  <SCORE.heavy>
18

>  <SCORE.norm>
-1.03196

>  <RMSD>
3.657

$$$$
lig.pdb
 OpenBabel11021811503D
libRbt.so/2013.1/901 2013/11/27
 18 19  0  0  0  0  0  0  0  0999 V2000
  -14.4162   16.1323    3.4779 C   0  0  0  0  0  0  0  0  0  0  0  0
   -9.6321   15.4345    3.0818 N   0  0  0  0  0  0  0  0  0  0  0  0
   -7.0992   11.5804    2.4507 C   0  0  0  0  0  0  0  0  0  0  0  0
   -4.7079   15.2137    0.1271 O   0  0  0  0  0  0  0  0  0  0  0  0
   -4.3829   14.0215    0.8285 C   0  0  0  0  0  0  0  0  0  0  0  0
   -5.2291   12.8460    0.3022 C   0  0  0  0  0  0  0  0  0  0  0  0
   -9.1778   14.0823    0.5982 C   0  0  0  0  0  0  0  0  0  0  0  0
   -7.7074   14.3444   -0.2811 S   0  0  0  0  0  0  0  0  0  0  0  0
   -6.6835   13.1654    0.5687 C   0  0  0  0  0  0  0  0  0  0  0  0
   -7.5690   12.6566    1.4863 C   0  0  0  0  0  0  0  0  0  0  0  0
   -8.8460   13.1478    1.4799 N   0  0  0  0  0  0  0  0  0  0  0  0
   -9.8892   12.6340    2.4368 C   0  0  0  0  0  0  0  0  0  0  0  0
  -10.9193   14.9000    3.0298 C   0  0  0  0  0  0  0  0  0  0  0  0
  -11.9997   15.7042    3.2702 N   0  0  0  0  0  0  0  0  0  0  0  0
  -13.2424   15.2168    3.2242 C   0  0  0  0  0  0  0  0  0  0  0  0
  -13.4579   13.9281    2.9445 N   0  0  0  0  0  0  0  0  0  0  0  0
  -12.4351   13.0706    2.6917 C   0  0  0  0  0  0  0  0  0  0  0  0
  -11.1113   13.5231    2.7188 C   0  0  0  0  0  0  0  0  0  0  0  0
  5  4  1  0  0  0  0
  5  6  1  0  0  0  0
  7  8  2  0  0  0  0
  7 11  1  0  0  0  0
  8  9  1  0  0  0  0
  9 10  2  0  0  0  0
  9  6  1  0  0  0  0
 10  3  1  0  0  0  0
 11 12  1  0  0  0  0
 11 10  1  0  0  0  0
 12 18  1  0  0  0  0
 13  2  1  0  0  0  0
 13 14  2  0  0  0  0
 15 14  1  0  0  0  0
 15  1  1  0  0  0  0
 16 15  2  0  0  0  0
 17 18  2  0  0  0  0
 17 16  1  0  0  0  0
 18 13  1  0  0  0  0
M  END
>  <CHROM.1>
-62.22603373,73.58153404,-21.94367612,-47.87505658,-9.19099255,14.01763660
1.74751434,-3.07532914,-0.38307201,2.90560863

>  <Name>
lig.pdb

>  <RI>
0

>  <Rbt.Current_Directory>
/home/itssahil/PROJECTS/Mol_Feturizer/New_Systems/rnas/4nyg

>  <Rbt.Executable>
rbdock ($Id: //depot/dev/client3/rdock/2013.1/src/exe/rbdock.cxx#4 $)

>  <Rbt.Library>
libRbt.so (2013.1, Build901 2013/11/27)

>  <Rbt.Parameter_File>
/export/apps/rDock/src/rDock_2013.1_src/data/scripts/dock_solv.prm

>  <Rbt.Receptor>
prm/pocket_docking_8.prm

>  <SCORE>
-21.5959

>  <SCORE.INTER>
-22.3383

>  <SCORE.INTER.CONST>
1

>  <SCORE.INTER.POLAR>
0

>  <SCORE.INTER.ROT>
4

>  <SCORE.INTER.SOLV>
13.4782

>  <SCORE.INTER.VDW>
-25.6516

>  <SCORE.INTER.norm>
-1.24102

>  <SCORE.INTRA>
0.742339

>  <SCORE.INTRA.DIHEDRAL>
0.315462

>  <SCORE.INTRA.DIHEDRAL.0>
3.20029

>  <SCORE.INTRA.POLAR>
0

>  <SCORE.INTRA.POLAR.0>
0

>  <SCORE.INTRA.REPUL>
0

>  <SCORE.INTRA.REPUL.0>
0

>  <SCORE.INTRA.SOLV>
1.55147

>  <SCORE.INTRA.SOLV.lig_0>
-19.3885

>  <SCORE.INTRA.VDW>
-0.191128

>  <SCORE.INTRA.VDW.0>
-1.12705

>  <SCORE.INTRA.norm>
0.0412411

>  <SCORE.RESTR>
0

>  <SCORE.RESTR.CAVITY>
0

>  <SCORE.RESTR.norm>
0

>  <SCORE.SYSTEM>
0

>  <SCORE.SYSTEM.CONST>
0

>  <SCORE.SYSTEM.DIHEDRAL>
0

>  <SCORE.SYSTEM.SOLV>
0

>  <SCORE.SYSTEM.norm>
0

>  <SCORE.heavy>
18

>  <SCORE.norm>
-1.19977

>  <RMSD>
3.661

$$$$
lig.pdb
 OpenBabel11021811503D
libRbt.so/2013.1/901 2013/11/27
 18 19  0  0  0  0  0  0  0  0999 V2000
  -14.8196   16.1221    3.6851 C   0  0  0  0  0  0  0  0  0  0  0  0
  -12.2720   12.1449    2.5784 N   0  0  0  0  0  0  0  0  0  0  0  0
   -7.9881   15.7758    3.3246 C   0  0  0  0  0  0  0  0  0  0  0  0
   -7.8586   18.5721    0.9337 O   0  0  0  0  0  0  0  0  0  0  0  0
   -6.6358   18.1339    0.3577 C   0  0  0  0  0  0  0  0  0  0  0  0
   -6.0998   16.9043    1.1164 C   0  0  0  0  0  0  0  0  0  0  0  0
   -8.7239   13.8191    0.2195 C   0  0  0  0  0  0  0  0  0  0  0  0
   -7.5060   14.8440   -0.4664 S   0  0  0  0  0  0  0  0  0  0  0  0
   -7.1213   15.7963    0.9847 C   0  0  0  0  0  0  0  0  0  0  0  0
   -7.9826   15.2451    1.9008 C   0  0  0  0  0  0  0  0  0  0  0  0
   -8.7971   14.2298    1.4791 N   0  0  0  0  0  0  0  0  0  0  0  0
   -9.7585   13.5528    2.4201 C   0  0  0  0  0  0  0  0  0  0  0  0
  -12.2871   13.5202    2.8107 C   0  0  0  0  0  0  0  0  0  0  0  0
  -13.4660   14.1462    3.1110 N   0  0  0  0  0  0  0  0  0  0  0  0
  -13.5063   15.4615    3.3396 C   0  0  0  0  0  0  0  0  0  0  0  0
  -12.3929   16.1974    3.2768 N   0  0  0  0  0  0  0  0  0  0  0  0
  -11.1860   15.6451    2.9875 C   0  0  0  0  0  0  0  0  0  0  0  0
  -11.0784   14.2712    2.7445 C   0  0  0  0  0  0  0  0  0  0  0  0
  5  4  1  0  0  0  0
  5  6  1  0  0  0  0
  7  8  2  0  0  0  0
  7 11  1  0  0  0  0
  8  9  1  0  0  0  0
  9 10  2  0  0  0  0
  9  6  1  0  0  0  0
 10  3  1  0  0  0  0
 11 12  1  0  0  0  0
 11 10  1  0  0  0  0
 12 18  1  0  0  0  0
 13  2  1  0  0  0  0
 13 14  2  0  0  0  0
 15 14  1  0  0  0  0
 15  1  1  0  0  0  0
 16 15  2  0  0  0  0
 17 18  2  0  0  0  0
 17 16  1  0  0  0  0
 18 13  1  0  0  0  0
M  END
>  <CHROM.1>
61.50882244,71.72560830,-102.17951031,138.60151461,-9.78006476,15.26545961
1.86616136,2.96797635,-0.44543447,-2.95398353

>  <Name>
lig.pdb

>  <RI>
0

>  <Rbt.Current_Directory>
/home/itssahil/PROJECTS/Mol_Feturizer/New_Systems/rnas/4nyg

>  <Rbt.Executable>
rbdock ($Id: //depot/dev/client3/rdock/2013.1/src/exe/rbdock.cxx#4 $)

>  <Rbt.Library>
libRbt.so (2013.1, Build901 2013/11/27)

>  <Rbt.Parameter_File>
/export/apps/rDock/src/rDock_2013.1_src/data/scripts/dock_solv.prm

>  <Rbt.Receptor>
prm/blind_docking_40.prm

>  <SCORE>
-21.3544

>  <SCORE.INTER>
-21.1793

>  <SCORE.INTER.CONST>
1

>  <SCORE.INTER.POLAR>
0

>  <SCORE.INTER.ROT>
4

>  <SCORE.INTER.SOLV>
14.9343

>  <SCORE.INTER.VDW>
-25.3643

>  <SCORE.INTER.norm>
-1.17663

>  <SCORE.INTRA>
-0.175184

>  <SCORE.INTRA.DIHEDRAL>
0.114266

>  <SCORE.INTRA.DIHEDRAL.0>
3.20029

>  <SCORE.INTRA.POLAR>
0

>  <SCORE.INTRA.POLAR.0>
0

>  <SCORE.INTRA.REPUL>
0

>  <SCORE.INTRA.REPUL.0>
0

>  <SCORE.INTRA.SOLV>
0.611837

>  <SCORE.INTRA.SOLV.lig_0>
-19.3885

>  <SCORE.INTRA.VDW>
-0.538236

>  <SCORE.INTRA.VDW.0>
-1.12705

>  <SCORE.INTRA.norm>
-0.00973244

>  <SCORE.RESTR>
0

>  <SCORE.RESTR.CAVITY>
0

>  <SCORE.RESTR.norm>
0

>  <SCORE.SYSTEM>
0

>  <SCORE.SYSTEM.CONST>
0

>  <SCORE.SYSTEM.DIHEDRAL>
0

>  <SCORE.SYSTEM.SOLV>
0

>  <SCORE.SYSTEM.norm>
0

>  <SCORE.heavy>
18

>  <SCORE.norm>
-1.18636

>  <RMSD>
3.667

$$$$
lig.pdb
 OpenBabel11021811503D
libRbt.so/2013.1/901 2013/11/27
 18 19  0  0  0  0  0  0  0  0999 V2000
  -14.8105   16.1831    3.7020 C   0  0  0  0  0  0  0  0  0  0  0  0
  -12.3343   12.1816    2.5238 N   0  0  0  0  0  0  0  0  0  0  0  0
   -8.0209   15.7548    3.3459 C   0  0  0  0  0  0  0  0  0  0  0  0
   -7.8349   18.5605    0.9308 O   0  0  0  0  0  0  0  0  0  0  0  0
   -6.6102   18.0990    0.3778 C   0  0  0  0  0  0  0  0  0  0  0  0
   -6.1000   16.8737    1.1610 C   0  0  0  0  0  0  0  0  0  0  0  0
   -8.7288   13.8021    0.2318 C   0  0  0  0  0  0  0  0  0  0  0  0
   -7.4974   14.8207   -0.4390 S   0  0  0  0  0  0  0  0  0  0  0  0
   -7.1255   15.7710    1.0167 C   0  0  0  0  0  0  0  0  0  0  0  0
   -8.0007   15.2241    1.9222 C   0  0  0  0  0  0  0  0  0  0  0  0
   -8.8152   14.2131    1.4905 N   0  0  0  0  0  0  0  0  0  0  0  0
   -9.7915   13.5410    2.4196 C   0  0  0  0  0  0  0  0  0  0  0  0
  -12.3236   13.5510    2.7881 C   0  0  0  0  0  0  0  0  0  0  0  0
  -13.4922   14.1939    3.0930 N   0  0  0  0  0  0  0  0  0  0  0  0
  -13.5078   15.5040    3.3522 C   0  0  0  0  0  0  0  0  0  0  0  0
  -12.3792   16.2183    3.3160 N   0  0  0  0  0  0  0  0  0  0  0  0
  -11.1813   15.6483    3.0240 C   0  0  0  0  0  0  0  0  0  0  0  0
  -11.0994   14.2785    2.7497 C   0  0  0  0  0  0  0  0  0  0  0  0
  5  4  1  0  0  0  0
  5  6  1  0  0  0  0
  7  8  2  0  0  0  0
  7 11  1  0  0  0  0
  8  9  1  0  0  0  0
  9 10  2  0  0  0  0
  9  6  1  0  0  0  0
 10  3  1  0  0  0  0
 11 12  1  0  0  0  0
 11 10  1  0  0  0  0
 12 18  1  0  0  0  0
 13  2  1  0  0  0  0
 13 14  2  0  0  0  0
 15 14  1  0  0  0  0
 15  1  1  0  0  0  0
 16 15  2  0  0  0  0
 17 18  2  0  0  0  0
 17 16  1  0  0  0  0
 18 13  1  0  0  0  0
M  END
>  <CHROM.1>
62.20367143,70.86458834,-103.35227238,137.92188331,-9.78803528,15.26569199
1.87842684,2.98276567,-0.44167740,-2.94093244

>  <Name>
lig.pdb

>  <RI>
0

>  <Rbt.Current_Directory>
/home/itssahil/PROJECTS/Mol_Feturizer/New_Systems/rnas/4nyg

>  <Rbt.Executable>
rbdock ($Id: //depot/dev/client3/rdock/2013.1/src/exe/rbdock.cxx#4 $)

>  <Rbt.Library>
libRbt.so (2013.1, Build901 2013/11/27)

>  <Rbt.Parameter_File>
/export/apps/rDock/src/rDock_2013.1_src/data/scripts/dock_solv.prm

>  <Rbt.Receptor>
prm/blind_docking_80.prm

>  <SCORE>
-21.4176

>  <SCORE.INTER>
-21.2997

>  <SCORE.INTER.CONST>
1

>  <SCORE.INTER.POLAR>
0

>  <SCORE.INTER.ROT>
4

>  <SCORE.INTER.SOLV>
14.9691

>  <SCORE.INTER.VDW>
-25.4562

>  <SCORE.INTER.norm>
-1.18332

>  <SCORE.INTRA>
-0.117918

>  <SCORE.INTRA.DIHEDRAL>
0.093023

>  <SCORE.INTRA.DIHEDRAL.0>
3.20029

>  <SCORE.INTRA.POLAR>
0

>  <SCORE.INTRA.POLAR.0>
0

>  <SCORE.INTRA.REPUL>
0

>  <SCORE.INTRA.REPUL.0>
0

>  <SCORE.INTRA.SOLV>
0.613629

>  <SCORE.INTRA.SOLV.lig_0>
-19.3885

>  <SCORE.INTRA.VDW>
-0.471244

>  <SCORE.INTRA.VDW.0>
-1.12705

>  <SCORE.INTRA.norm>
-0.00655099

>  <SCORE.RESTR>
0

>  <SCORE.RESTR.CAVITY>
0

>  <SCORE.RESTR.norm>
0

>  <SCORE.SYSTEM>
0

>  <SCORE.SYSTEM.CONST>
0

>  <SCORE.SYSTEM.DIHEDRAL>
0

>  <SCORE.SYSTEM.SOLV>
0

>  <SCORE.SYSTEM.norm>
0

>  <SCORE.heavy>
18

>  <SCORE.norm>
-1.18987

>  <RMSD>
3.673

$$$$
lig.pdb
 OpenBabel11021811503D
libRbt.so/2013.1/901 2013/11/27
 18 19  0  0  0  0  0  0  0  0999 V2000
  -14.8027   16.1687    3.7149 C   0  0  0  0  0  0  0  0  0  0  0  0
  -12.3322   12.1710    2.5116 N   0  0  0  0  0  0  0  0  0  0  0  0
   -8.0268   15.7465    3.3389 C   0  0  0  0  0  0  0  0  0  0  0  0
   -7.8587   18.5521    0.9746 O   0  0  0  0  0  0  0  0  0  0  0  0
   -6.6331   18.1136    0.4049 C   0  0  0  0  0  0  0  0  0  0  0  0
   -6.1063   16.8779    1.1602 C   0  0  0  0  0  0  0  0  0  0  0  0
   -8.7243   13.8012    0.2178 C   0  0  0  0  0  0  0  0  0  0  0  0
   -7.4950   14.8256   -0.4481 S   0  0  0  0  0  0  0  0  0  0  0  0
   -7.1282   15.7725    1.0111 C   0  0  0  0  0  0  0  0  0  0  0  0
   -8.0030   15.2202    1.9136 C   0  0  0  0  0  0  0  0  0  0  0  0
   -8.8138   14.2080    1.4777 N   0  0  0  0  0  0  0  0  0  0  0  0
   -9.7893   13.5301    2.4033 C   0  0  0  0  0  0  0  0  0  0  0  0
  -12.3200   13.5395    2.7813 C   0  0  0  0  0  0  0  0  0  0  0  0
  -13.4872   14.1815    3.0932 N   0  0  0  0  0  0  0  0  0  0  0  0
  -13.5015   15.4905    3.3575 C   0  0  0  0  0  0  0  0  0  0  0  0
  -12.3728   16.2047    3.3199 N   0  0  0  0  0  0  0  0  0  0  0  0
  -11.1762   15.6354    3.0212 C   0  0  0  0  0  0  0  0  0  0  0  0
  -11.0957   14.2667    2.7412 C   0  0  0  0  0  0  0  0  0  0  0  0
  5  4  1  0  0  0  0
  5  6  1  0  0  0  0
  7  8  2  0  0  0  0
  7 11  1  0  0  0  0
  8  9  1  0  0  0  0
  9 10  2  0  0  0  0
  9  6  1  0  0  0  0
 10  3  1  0  0  0  0
 11 12  1  0  0  0  0
 11 10  1  0  0  0  0
 12 18  1  0  0  0  0
 13  2  1  0  0  0  0
 13 14  2  0  0  0  0
 15 14  1  0  0  0  0
 15  1  1  0  0  0  0
 16 15  2  0  0  0  0
 17 18  2  0  0  0  0
 17 16  1  0  0  0  0
 18 13  1  0  0  0  0
M  END
>  <CHROM.1>
61.67194889,72.04327939,-103.75209169,138.16720003,-9.78886840,15.26018193
1.87779849,2.98449131,-0.44340518,-2.93302668

>  <Name>
lig.pdb

>  <RI>
0

>  <Rbt.Current_Directory>
/home/itssahil/PROJECTS/Mol_Feturizer/New_Systems/rnas/4nyg

>  <Rbt.Executable>
rbdock ($Id: //depot/dev/client3/rdock/2013.1/src/exe/rbdock.cxx#4 $)

>  <Rbt.Library>
libRbt.so (2013.1, Build901 2013/11/27)

>  <Rbt.Parameter_File>
/export/apps/rDock/src/rDock_2013.1_src/data/scripts/dock_solv.prm

>  <Rbt.Receptor>
prm/blind_docking_40.prm

>  <SCORE>
-21.3982

>  <SCORE.INTER>
-21.329

>  <SCORE.INTER.CONST>
1

>  <SCORE.INTER.POLAR>
0

>  <SCORE.INTER.ROT>
4

>  <SCORE.INTER.SOLV>
15.009

>  <SCORE.INTER.VDW>
-25.489

>  <SCORE.INTER.norm>
-1.18495

>  <SCORE.INTRA>
-0.0691476

>  <SCORE.INTRA.DIHEDRAL>
0.132374

>  <SCORE.INTRA.DIHEDRAL.0>
3.20029

>  <SCORE.INTRA.POLAR>
0

>  <SCORE.INTRA.POLAR.0>
0

>  <SCORE.INTRA.REPUL>
0

>  <SCORE.INTRA.REPUL.0>
0

>  <SCORE.INTRA.SOLV>
0.624087

>  <SCORE.INTRA.SOLV.lig_0>
-19.3885

>  <SCORE.INTRA.VDW>
-0.447378

>  <SCORE.INTRA.VDW.0>
-1.12705

>  <SCORE.INTRA.norm>
-0.00384153

>  <SCORE.RESTR>
0

>  <SCORE.RESTR.CAVITY>
0

>  <SCORE.RESTR.norm>
0

>  <SCORE.SYSTEM>
0

>  <SCORE.SYSTEM.CONST>
0

>  <SCORE.SYSTEM.DIHEDRAL>
0

>  <SCORE.SYSTEM.SOLV>
0

>  <SCORE.SYSTEM.norm>
0

>  <SCORE.heavy>
18

>  <SCORE.norm>
-1.18879

>  <RMSD>
3.675

$$$$
lig.pdb
 OpenBabel11021811503D
libRbt.so/2013.1/901 2013/11/27
 18 19  0  0  0  0  0  0  0  0999 V2000
  -15.1222   15.9160    4.0643 C   0  0  0  0  0  0  0  0  0  0  0  0
  -11.4914   12.7827    3.3348 N   0  0  0  0  0  0  0  0  0  0  0  0
   -8.9414   16.3604   -0.1071 C   0  0  0  0  0  0  0  0  0  0  0  0
   -4.5825   17.9746    1.1659 O   0  0  0  0  0  0  0  0  0  0  0  0
   -5.4017   18.0746    0.0093 C   0  0  0  0  0  0  0  0  0  0  0  0
   -6.8073   18.5763    0.3935 C   0  0  0  0  0  0  0  0  0  0  0  0
   -8.0784   16.1782    3.5307 C   0  0  0  0  0  0  0  0  0  0  0  0
   -7.0072   17.4805    3.1297 S   0  0  0  0  0  0  0  0  0  0  0  0
   -7.3881   17.6054    1.3976 C   0  0  0  0  0  0  0  0  0  0  0  0
   -8.3237   16.6103    1.2585 C   0  0  0  0  0  0  0  0  0  0  0  0
   -8.6590   15.8906    2.3728 N   0  0  0  0  0  0  0  0  0  0  0  0
   -9.6901   14.7942    2.3180 C   0  0  0  0  0  0  0  0  0  0  0  0
  -11.9658   14.0918    3.2534 C   0  0  0  0  0  0  0  0  0  0  0  0
  -13.2402   14.3798    3.6594 N   0  0  0  0  0  0  0  0  0  0  0  0
  -13.7170   15.6256    3.5935 C   0  0  0  0  0  0  0  0  0  0  0  0
  -12.9582   16.6207    3.1250 N   0  0  0  0  0  0  0  0  0  0  0  0
  -11.6828   16.4114    2.7070 C   0  0  0  0  0  0  0  0  0  0  0  0
  -11.1247   15.1291    2.7575 C   0  0  0  0  0  0  0  0  0  0  0  0
  5  4  1  0  0  0  0
  5  6  1  0  0  0  0
  7  8  2  0  0  0  0
  7 11  1  0  0  0  0
  8  9  1  0  0  0  0
  9 10  2  0  0  0  0
  9  6  1  0  0  0  0
 10  3  1  0  0  0  0
 11 12  1  0  0  0  0
 11 10  1  0  0  0  0
 12 18  1  0  0  0  0
 13  2  1  0  0  0  0
 13 14  2  0  0  0  0
 15 14  1  0  0  0  0
 15  1  1  0  0  0  0
 16 15  2  0  0  0  0
 17 18  2  0  0  0  0
 17 16  1  0  0  0  0
 18 13  1  0  0  0  0
M  END
>  <CHROM.1>
-58.22894973,77.57946131,81.16683105,-153.95410262,-9.54605126,16.25674757
2.36378652,2.70165292,-0.15836877,2.77173709

>  <Name>
lig.pdb

>  <RI>
0

>  <Rbt.Current_Directory>
/home/itssahil/PROJECTS/Mol_Feturizer/New_Systems/rnas/4nyg

>  <Rbt.Executable>
rbdock ($Id: //depot/dev/client3/rdock/2013.1/src/exe/rbdock.cxx#4 $)

>  <Rbt.Library>
libRbt.so (2013.1, Build901 2013/11/27)

>  <Rbt.Parameter_File>
/export/apps/rDock/src/rDock_2013.1_src/data/scripts/dock_solv.prm

>  <Rbt.Receptor>
prm/pocket_docking_4.prm

>  <SCORE>
-21.8419

>  <SCORE.INTER>
-21.6226

>  <SCORE.INTER.CONST>
1

>  <SCORE.INTER.POLAR>
0

>  <SCORE.INTER.ROT>
4

>  <SCORE.INTER.SOLV>
14.6871

>  <SCORE.INTER.VDW>
-25.5774

>  <SCORE.INTER.norm>
-1.20125

>  <SCORE.INTRA>
-0.219294

>  <SCORE.INTRA.DIHEDRAL>
0.511756

>  <SCORE.INTRA.DIHEDRAL.0>
3.20029

>  <SCORE.INTRA.POLAR>
0

>  <SCORE.INTRA.POLAR.0>
0

>  <SCORE.INTRA.REPUL>
0

>  <SCORE.INTRA.REPUL.0>
0

>  <SCORE.INTRA.SOLV>
0.426805

>  <SCORE.INTRA.SOLV.lig_0>
-19.3885

>  <SCORE.INTRA.VDW>
-0.688575

>  <SCORE.INTRA.VDW.0>
-1.12705

>  <SCORE.INTRA.norm>
-0.012183

>  <SCORE.RESTR>
0

>  <SCORE.RESTR.CAVITY>
0

>  <SCORE.RESTR.norm>
0

>  <SCORE.SYSTEM>
0

>  <SCORE.SYSTEM.CONST>
0

>  <SCORE.SYSTEM.DIHEDRAL>
0

>  <SCORE.SYSTEM.SOLV>
0

>  <SCORE.SYSTEM.norm>
0

>  <SCORE.heavy>
18

>  <SCORE.norm>
-1.21344

>  <RMSD>
3.689

$$$$
lig.pdb
 OpenBabel11021811503D
libRbt.so/2013.1/901 2013/11/27
 18 19  0  0  0  0  0  0  0  0999 V2000
  -14.8378   16.1963    3.7222 C   0  0  0  0  0  0  0  0  0  0  0  0
  -12.4014   12.1961    2.4594 N   0  0  0  0  0  0  0  0  0  0  0  0
   -8.0682   15.7145    3.3728 C   0  0  0  0  0  0  0  0  0  0  0  0
   -7.8396   18.5771    1.0314 O   0  0  0  0  0  0  0  0  0  0  0  0
   -6.6214   18.1117    0.4670 C   0  0  0  0  0  0  0  0  0  0  0  0
   -6.1236   16.8666    1.2265 C   0  0  0  0  0  0  0  0  0  0  0  0
   -8.7633   13.8312    0.2135 C   0  0  0  0  0  0  0  0  0  0  0  0
   -7.5206   14.8558   -0.4265 S   0  0  0  0  0  0  0  0  0  0  0  0
   -7.1545   15.7735    1.0514 C   0  0  0  0  0  0  0  0  0  0  0  0
   -8.0400   15.2133    1.9386 C   0  0  0  0  0  0  0  0  0  0  0  0
   -8.8571   14.2165    1.4797 N   0  0  0  0  0  0  0  0  0  0  0  0
   -9.8447   13.5313    2.3871 C   0  0  0  0  0  0  0  0  0  0  0  0
  -12.3769   13.5593    2.7535 C   0  0  0  0  0  0  0  0  0  0  0  0
  -13.5392   14.2073    3.0713 N   0  0  0  0  0  0  0  0  0  0  0  0
  -13.5417   15.5116    3.3589 C   0  0  0  0  0  0  0  0  0  0  0  0
  -12.4058   16.2149    3.3392 N   0  0  0  0  0  0  0  0  0  0  0  0
  -11.2135   15.6391    3.0359 C   0  0  0  0  0  0  0  0  0  0  0  0
  -11.1453   14.2748    2.7320 C   0  0  0  0  0  0  0  0  0  0  0  0
  5  4  1  0  0  0  0
  5  6  1  0  0  0  0
  7  8  2  0  0  0  0
  7 11  1  0  0  0  0
  8  9  1  0  0  0  0
  9 10  2  0  0  0  0
  9  6  1  0  0  0  0
 10  3  1  0  0  0  0
 11 12  1  0  0  0  0
 11 10  1  0  0  0  0
 12 18  1  0  0  0  0
 13  2  1  0  0  0  0
 13 14  2  0  0  0  0
 15 14  1  0  0  0  0
 15  1  1  0  0  0  0
 16 15  2  0  0  0  0
 17 18  2  0  0  0  0
 17 16  1  0  0  0  0
 18 13  1  0  0  0  0
M  END
>  <CHROM.1>
62.84048180,70.96008481,-103.86550495,138.24898473,-9.82240584,15.27187989
1.89131913,2.99166752,-0.43679795,-2.91434720

>  <Name>
lig.pdb

>  <RI>
0

>  <Rbt.Current_Directory>
/home/itssahil/PROJECTS/Mol_Feturizer/New_Systems/rnas/4nyg

>  <Rbt.Executable>
rbdock ($Id: //depot/dev/client3/rdock/2013.1/src/exe/rbdock.cxx#4 $)

>  <Rbt.Library>
libRbt.so (2013.1, Build901 2013/11/27)

>  <Rbt.Parameter_File>
/export/apps/rDock/src/rDock_2013.1_src/data/scripts/dock_solv.prm

>  <Rbt.Receptor>
prm/blind_docking_100.prm

>  <SCORE>
-21.493

>  <SCORE.INTER>
-21.4154

>  <SCORE.INTER.CONST>
1

>  <SCORE.INTER.POLAR>
0

>  <SCORE.INTER.ROT>
4

>  <SCORE.INTER.SOLV>
15.1494

>  <SCORE.INTER.VDW>
-25.5934

>  <SCORE.INTER.norm>
-1.18975

>  <SCORE.INTRA>
-0.0775498

>  <SCORE.INTRA.DIHEDRAL>
0.109851

>  <SCORE.INTRA.DIHEDRAL.0>
3.20029

>  <SCORE.INTRA.POLAR>
0

>  <SCORE.INTRA.POLAR.0>
0

>  <SCORE.INTRA.REPUL>
0

>  <SCORE.INTRA.REPUL.0>
0

>  <SCORE.INTRA.SOLV>
0.612573

>  <SCORE.INTRA.SOLV.lig_0>
-19.3885

>  <SCORE.INTRA.VDW>
-0.438762

>  <SCORE.INTRA.VDW.0>
-1.12705

>  <SCORE.INTRA.norm>
-0.00430832

>  <SCORE.RESTR>
0

>  <SCORE.RESTR.CAVITY>
0

>  <SCORE.RESTR.norm>
0

>  <SCORE.SYSTEM>
0

>  <SCORE.SYSTEM.CONST>
0

>  <SCORE.SYSTEM.DIHEDRAL>
0

>  <SCORE.SYSTEM.SOLV>
0

>  <SCORE.SYSTEM.norm>
0

>  <SCORE.heavy>
18

>  <SCORE.norm>
-1.19406

>  <RMSD>
3.695

$$$$
lig.pdb
 OpenBabel11021811503D
libRbt.so/2013.1/901 2013/11/27
 18 19  0  0  0  0  0  0  0  0999 V2000
  -14.8139   16.2514    3.7465 C   0  0  0  0  0  0  0  0  0  0  0  0
  -12.4228   12.2147    2.5137 N   0  0  0  0  0  0  0  0  0  0  0  0
   -8.0547   15.6979    3.3482 C   0  0  0  0  0  0  0  0  0  0  0  0
   -7.8186   18.5586    1.1233 O   0  0  0  0  0  0  0  0  0  0  0  0
   -6.6325   18.0997    0.4895 C   0  0  0  0  0  0  0  0  0  0  0  0
   -6.1120   16.8290    1.1890 C   0  0  0  0  0  0  0  0  0  0  0  0
   -8.7893   13.8205    0.1942 C   0  0  0  0  0  0  0  0  0  0  0  0
   -7.5401   14.8321   -0.4542 S   0  0  0  0  0  0  0  0  0  0  0  0
   -7.1552   15.7465    1.0210 C   0  0  0  0  0  0  0  0  0  0  0  0
   -8.0408   15.1959    1.9140 C   0  0  0  0  0  0  0  0  0  0  0  0
   -8.8711   14.2073    1.4608 N   0  0  0  0  0  0  0  0  0  0  0  0
   -9.8598   13.5327    2.3748 C   0  0  0  0  0  0  0  0  0  0  0  0
  -12.3853   13.5827    2.7832 C   0  0  0  0  0  0  0  0  0  0  0  0
  -13.5382   14.2434    3.1091 N   0  0  0  0  0  0  0  0  0  0  0  0
  -13.5282   15.5525    3.3736 C   0  0  0  0  0  0  0  0  0  0  0  0
  -12.3887   16.2483    3.3223 N   0  0  0  0  0  0  0  0  0  0  0  0
  -11.2051   15.6599    3.0092 C   0  0  0  0  0  0  0  0  0  0  0  0
  -11.1501   14.2902    2.7284 C   0  0  0  0  0  0  0  0  0  0  0  0
  5  4  1  0  0  0  0
  5  6  1  0  0  0  0
  7  8  2  0  0  0  0
  7 11  1  0  0  0  0
  8  9  1  0  0  0  0
  9 10  2  0  0  0  0
  9  6  1  0  0  0  0
 10  3  1  0  0  0  0
 11 12  1  0  0  0  0
 11 10  1  0  0  0  0
 12 18  1  0  0  0  0
 13  2  1  0  0  0  0
 13 14  2  0  0  0  0
 15 14  1  0  0  0  0
 15  1  1  0  0  0  0
 16 15  2  0  0  0  0
 17 18  2  0  0  0  0
 17 16  1  0  0  0  0
 18 13  1  0  0  0  0
M  END
>  <CHROM.1>
63.31740635,73.63051310,-103.90705299,139.44958689,-9.82401332,15.27380341
1.89214207,3.00629013,-0.43977424,-2.90391096

>  <Name>
lig.pdb

>  <RI>
0

>  <Rbt.Current_Directory>
/home/itssahil/PROJECTS/Mol_Feturizer/New_Systems/rnas/4nyg

>  <Rbt.Executable>
rbdock ($Id: //depot/dev/client3/rdock/2013.1/src/exe/rbdock.cxx#4 $)

>  <Rbt.Library>
libRbt.so (2013.1, Build901 2013/11/27)

>  <Rbt.Parameter_File>
/export/apps/rDock/src/rDock_2013.1_src/data/scripts/dock_solv.prm

>  <Rbt.Receptor>
prm/blind_docking_60.prm

>  <SCORE>
-21.492

>  <SCORE.INTER>
-21.4536

>  <SCORE.INTER.CONST>
1

>  <SCORE.INTER.POLAR>
0

>  <SCORE.INTER.ROT>
4

>  <SCORE.INTER.SOLV>
15.1742

>  <SCORE.INTER.VDW>
-25.6271

>  <SCORE.INTER.norm>
-1.19187

>  <SCORE.INTRA>
-0.0384002

>  <SCORE.INTRA.DIHEDRAL>
0.232554

>  <SCORE.INTRA.DIHEDRAL.0>
3.20029

>  <SCORE.INTRA.POLAR>
0

>  <SCORE.INTRA.POLAR.0>
0

>  <SCORE.INTRA.REPUL>
0

>  <SCORE.INTRA.REPUL.0>
0

>  <SCORE.INTRA.SOLV>
0.618135

>  <SCORE.INTRA.SOLV.lig_0>
-19.3885

>  <SCORE.INTRA.VDW>
-0.463745

>  <SCORE.INTRA.VDW.0>
-1.12705

>  <SCORE.INTRA.norm>
-0.00213335

>  <SCORE.RESTR>
0

>  <SCORE.RESTR.CAVITY>
0

>  <SCORE.RESTR.norm>
0

>  <SCORE.SYSTEM>
0

>  <SCORE.SYSTEM.CONST>
0

>  <SCORE.SYSTEM.DIHEDRAL>
0

>  <SCORE.SYSTEM.SOLV>
0

>  <SCORE.SYSTEM.norm>
0

>  <SCORE.heavy>
18

>  <SCORE.norm>
-1.194

>  <RMSD>
3.697

$$$$
lig.pdb
 OpenBabel11021811503D
libRbt.so/2013.1/901 2013/11/27
 18 19  0  0  0  0  0  0  0  0999 V2000
  -14.7086   15.9372    3.6953 C   0  0  0  0  0  0  0  0  0  0  0  0
  -10.0909   16.1261    2.2210 N   0  0  0  0  0  0  0  0  0  0  0  0
   -7.4610   15.0871    3.3758 C   0  0  0  0  0  0  0  0  0  0  0  0
   -7.2394   18.2329    1.2070 O   0  0  0  0  0  0  0  0  0  0  0  0
   -6.1931   17.6518    0.4409 C   0  0  0  0  0  0  0  0  0  0  0  0
   -5.7823   16.2942    1.0434 C   0  0  0  0  0  0  0  0  0  0  0  0
   -8.9590   13.7590    0.2129 C   0  0  0  0  0  0  0  0  0  0  0  0
   -7.7168   14.7115   -0.5313 S   0  0  0  0  0  0  0  0  0  0  0  0
   -6.9711   15.3639    0.9447 C   0  0  0  0  0  0  0  0  0  0  0  0
   -7.7564   14.7920    1.9148 C   0  0  0  0  0  0  0  0  0  0  0  0
   -8.7734   13.9713    1.5094 N   0  0  0  0  0  0  0  0  0  0  0  0
   -9.6722   13.2855    2.5044 C   0  0  0  0  0  0  0  0  0  0  0  0
  -11.1615   15.3587    2.6797 C   0  0  0  0  0  0  0  0  0  0  0  0
  -12.3565   15.9606    2.9654 N   0  0  0  0  0  0  0  0  0  0  0  0
  -13.3971   15.2475    3.4038 C   0  0  0  0  0  0  0  0  0  0  0  0
  -13.2925   13.9267    3.5766 N   0  0  0  0  0  0  0  0  0  0  0  0
  -12.1393   13.2600    3.3107 C   0  0  0  0  0  0  0  0  0  0  0  0
  -11.0161   13.9510    2.8426 C   0  0  0  0  0  0  0  0  0  0  0  0
  5  4  1  0  0  0  0
  5  6  1  0  0  0  0
  7  8  2  0  0  0  0
  7 11  1  0  0  0  0
  8  9  1  0  0  0  0
  9 10  2  0  0  0  0
  9  6  1  0  0  0  0
 10  3  1  0  0  0  0
 11 12  1  0  0  0  0
 11 10  1  0  0  0  0
 12 18  1  0  0  0  0
 13  2  1  0  0  0  0
 13 14  2  0  0  0  0
 15 14  1  0  0  0  0
 15  1  1  0  0  0  0
 16 15  2  0  0  0  0
 17 18  2  0  0  0  0
 17 16  1  0  0  0  0
 18 13  1  0  0  0  0
M  END
>  <CHROM.1>
63.53400253,66.56834462,-84.94234969,-25.13509264,-9.53965711,15.17805054
1.89018575,3.03781728,-0.43489178,-2.97159240

>  <Name>
lig.pdb

>  <RI>
0

>  <Rbt.Current_Directory>
/home/itssahil/PROJECTS/Mol_Feturizer/New_Systems/rnas/4nyg

>  <Rbt.Executable>
rbdock ($Id: //depot/dev/client3/rdock/2013.1/src/exe/rbdock.cxx#4 $)

>  <Rbt.Library>
libRbt.so (2013.1, Build901 2013/11/27)

>  <Rbt.Parameter_File>
/export/apps/rDock/src/rDock_2013.1_src/data/scripts/dock_solv.prm

>  <Rbt.Receptor>
prm/blind_docking_40.prm

>  <SCORE>
-19.877

>  <SCORE.INTER>
-20.5479

>  <SCORE.INTER.CONST>
1

>  <SCORE.INTER.POLAR>
0

>  <SCORE.INTER.ROT>
4

>  <SCORE.INTER.SOLV>
12.5517

>  <SCORE.INTER.VDW>
-24.1491

>  <SCORE.INTER.norm>
-1.14155

>  <SCORE.INTRA>
0.670115

>  <SCORE.INTRA.DIHEDRAL>
-0.0218546

>  <SCORE.INTRA.DIHEDRAL.0>
3.20029

>  <SCORE.INTRA.POLAR>
0

>  <SCORE.INTRA.POLAR.0>
0

>  <SCORE.INTRA.REPUL>
0

>  <SCORE.INTRA.REPUL.0>
0

>  <SCORE.INTRA.SOLV>
2.52852

>  <SCORE.INTRA.SOLV.lig_0>
-19.3885

>  <SCORE.INTRA.VDW>
-0.583216

>  <SCORE.INTRA.VDW.0>
-1.12705

>  <SCORE.INTRA.norm>
0.0372286

>  <SCORE.RESTR>
0.000726101

>  <SCORE.RESTR.CAVITY>
0.000726101

>  <SCORE.RESTR.norm>
4.0339e-05

>  <SCORE.SYSTEM>
0

>  <SCORE.SYSTEM.CONST>
0

>  <SCORE.SYSTEM.DIHEDRAL>
0

>  <SCORE.SYSTEM.SOLV>
0

>  <SCORE.SYSTEM.norm>
0

>  <SCORE.heavy>
18

>  <SCORE.norm>
-1.10428

>  <RMSD>
3.704

$$$$
lig.pdb
 OpenBabel11021811503D
libRbt.so/2013.1/901 2013/11/27
 18 19  0  0  0  0  0  0  0  0999 V2000
  -14.8302   16.2028    3.7371 C   0  0  0  0  0  0  0  0  0  0  0  0
  -12.4138   12.1966    2.4549 N   0  0  0  0  0  0  0  0  0  0  0  0
   -8.0805   15.7145    3.3470 C   0  0  0  0  0  0  0  0  0  0  0  0
   -7.8566   18.5830    1.1675 O   0  0  0  0  0  0  0  0  0  0  0  0
   -6.6829   18.1301    0.5070 C   0  0  0  0  0  0  0  0  0  0  0  0
   -6.1402   16.8621    1.1944 C   0  0  0  0  0  0  0  0  0  0  0  0
   -8.7740   13.8167    0.1959 C   0  0  0  0  0  0  0  0  0  0  0  0
   -7.5340   14.8415   -0.4492 S   0  0  0  0  0  0  0  0  0  0  0  0
   -7.1688   15.7660    1.0247 C   0  0  0  0  0  0  0  0  0  0  0  0
   -8.0524   15.2075    1.9148 C   0  0  0  0  0  0  0  0  0  0  0  0
   -8.8677   14.2070    1.4607 N   0  0  0  0  0  0  0  0  0  0  0  0
   -9.8530   13.5234    2.3716 C   0  0  0  0  0  0  0  0  0  0  0  0
  -12.3833   13.5592    2.7512 C   0  0  0  0  0  0  0  0  0  0  0  0
  -13.5417   14.2106    3.0761 N   0  0  0  0  0  0  0  0  0  0  0  0
  -13.5383   15.5144    3.3659 C   0  0  0  0  0  0  0  0  0  0  0  0
  -12.4002   16.2139    3.3415 N   0  0  0  0  0  0  0  0  0  0  0  0
  -11.2114   15.6346    3.0312 C   0  0  0  0  0  0  0  0  0  0  0  0
  -11.1494   14.2707    2.7246 C   0  0  0  0  0  0  0  0  0  0  0  0
  5  4  1  0  0  0  0
  5  6  1  0  0  0  0
  7  8  2  0  0  0  0
  7 11  1  0  0  0  0
  8  9  1  0  0  0  0
  9 10  2  0  0  0  0
  9  6  1  0  0  0  0
 10  3  1  0  0  0  0
 11 12  1  0  0  0  0
 11 10  1  0  0  0  0
 12 18  1  0  0  0  0
 13  2  1  0  0  0  0
 13 14  2  0  0  0  0
 15 14  1  0  0  0  0
 15  1  1  0  0  0  0
 16 15  2  0  0  0  0
 17 18  2  0  0  0  0
 17 16  1  0  0  0  0
 18 13  1  0  0  0  0
M  END
>  <CHROM.1>
64.48834800,74.53040275,-104.39789944,138.26853300,-9.83302147,15.26920689
1.89140503,3.00096631,-0.43938681,-2.89718486

>  <Name>
lig.pdb

>  <RI>
0

>  <Rbt.Current_Directory>
/home/itssahil/PROJECTS/Mol_Feturizer/New_Systems/rnas/4nyg

>  <Rbt.Executable>
rbdock ($Id: //depot/dev/client3/rdock/2013.1/src/exe/rbdock.cxx#4 $)

>  <Rbt.Library>
libRbt.so (2013.1, Build901 2013/11/27)

>  <Rbt.Parameter_File>
/export/apps/rDock/src/rDock_2013.1_src/data/scripts/dock_solv.prm

>  <Rbt.Receptor>
prm/pocket_docking_6.prm

>  <SCORE>
-21.5153

>  <SCORE.INTER>
-21.5615

>  <SCORE.INTER.CONST>
1

>  <SCORE.INTER.POLAR>
0

>  <SCORE.INTER.ROT>
4

>  <SCORE.INTER.SOLV>
15.2698

>  <SCORE.INTER.VDW>
-25.7309

>  <SCORE.INTER.norm>
-1.19786

>  <SCORE.INTRA>
0.0461518

>  <SCORE.INTRA.DIHEDRAL>
0.310173

>  <SCORE.INTRA.DIHEDRAL.0>
3.20029

>  <SCORE.INTRA.POLAR>
0

>  <SCORE.INTRA.POLAR.0>
0

>  <SCORE.INTRA.REPUL>
0

>  <SCORE.INTRA.REPUL.0>
0

>  <SCORE.INTRA.SOLV>
0.62129

>  <SCORE.INTRA.SOLV.lig_0>
-19.3885

>  <SCORE.INTRA.VDW>
-0.41958

>  <SCORE.INTRA.VDW.0>
-1.12705

>  <SCORE.INTRA.norm>
0.00256399

>  <SCORE.RESTR>
0

>  <SCORE.RESTR.CAVITY>
0

>  <SCORE.RESTR.norm>
0

>  <SCORE.SYSTEM>
0

>  <SCORE.SYSTEM.CONST>
0

>  <SCORE.SYSTEM.DIHEDRAL>
0

>  <SCORE.SYSTEM.SOLV>
0

>  <SCORE.SYSTEM.norm>
0

>  <SCORE.heavy>
18

>  <SCORE.norm>
-1.1953

>  <RMSD>
3.708

$$$$
lig.pdb
 OpenBabel11021811503D
libRbt.so/2013.1/901 2013/11/27
 18 19  0  0  0  0  0  0  0  0999 V2000
  -14.8368   16.1926    3.7381 C   0  0  0  0  0  0  0  0  0  0  0  0
  -12.4107   12.1944    2.4494 N   0  0  0  0  0  0  0  0  0  0  0  0
   -8.0794   15.7148    3.3518 C   0  0  0  0  0  0  0  0  0  0  0  0
   -7.8833   18.5641    1.1085 O   0  0  0  0  0  0  0  0  0  0  0  0
   -6.6750   18.1339    0.4972 C   0  0  0  0  0  0  0  0  0  0  0  0
   -6.1422   16.8705    1.2008 C   0  0  0  0  0  0  0  0  0  0  0  0
   -8.7768   13.8282    0.1949 C   0  0  0  0  0  0  0  0  0  0  0  0
   -7.5379   14.8556   -0.4482 S   0  0  0  0  0  0  0  0  0  0  0  0
   -7.1708   15.7748    1.0285 C   0  0  0  0  0  0  0  0  0  0  0  0
   -8.0531   15.2130    1.9178 C   0  0  0  0  0  0  0  0  0  0  0  0
   -8.8688   14.2139    1.4612 N   0  0  0  0  0  0  0  0  0  0  0  0
   -9.8528   13.5268    2.3710 C   0  0  0  0  0  0  0  0  0  0  0  0
  -12.3834   13.5564    2.7485 C   0  0  0  0  0  0  0  0  0  0  0  0
  -13.5434   14.2046    3.0739 N   0  0  0  0  0  0  0  0  0  0  0  0
  -13.5432   15.5077    3.3665 C   0  0  0  0  0  0  0  0  0  0  0  0
  -12.4065   16.2098    3.3445 N   0  0  0  0  0  0  0  0  0  0  0  0
  -11.2162   15.6337    3.0339 C   0  0  0  0  0  0  0  0  0  0  0  0
  -11.1510   14.2706    2.7245 C   0  0  0  0  0  0  0  0  0  0  0  0
  5  4  1  0  0  0  0
  5  6  1  0  0  0  0
  7  8  2  0  0  0  0
  7 11  1  0  0  0  0
  8  9  1  0  0  0  0
  9 10  2  0  0  0  0
  9  6  1  0  0  0  0
 10  3  1  0  0  0  0
 11 12  1  0  0  0  0
 11 10  1  0  0  0  0
 12 18  1  0  0  0  0
 13  2  1  0  0  0  0
 13 14  2  0  0  0  0
 15 14  1  0  0  0  0
 15  1  1  0  0  0  0
 16 15  2  0  0  0  0
 17 18  2  0  0  0  0
 17 16  1  0  0  0  0
 18 13  1  0  0  0  0
M  END
>  <CHROM.1>
62.23939976,73.54581571,-104.18905945,138.20599489,-9.83622631,15.27049713
1.88811352,2.99759657,-0.44012737,-2.90229710

>  <Name>
lig.pdb

>  <RI>
0

>  <Rbt.Current_Directory>
/home/itssahil/PROJECTS/Mol_Feturizer/New_Systems/rnas/4nyg

>  <Rbt.Executable>
rbdock ($Id: //depot/dev/client3/rdock/2013.1/src/exe/rbdock.cxx#4 $)

>  <Rbt.Library>
libRbt.so (2013.1, Build901 2013/11/27)

>  <Rbt.Parameter_File>
/export/apps/rDock/src/rDock_2013.1_src/data/scripts/dock_solv.prm

>  <Rbt.Receptor>
prm/blind_docking_80.prm

>  <SCORE>
-21.517

>  <SCORE.INTER>
-21.5125

>  <SCORE.INTER.CONST>
1

>  <SCORE.INTER.POLAR>
0

>  <SCORE.INTER.ROT>
4

>  <SCORE.INTER.SOLV>
15.2287

>  <SCORE.INTER.VDW>
-25.6845

>  <SCORE.INTER.norm>
-1.19514

>  <SCORE.INTRA>
-0.00447914

>  <SCORE.INTRA.DIHEDRAL>
0.206717

>  <SCORE.INTRA.DIHEDRAL.0>
3.20029

>  <SCORE.INTRA.POLAR>
0

>  <SCORE.INTRA.POLAR.0>
0

>  <SCORE.INTRA.REPUL>
0

>  <SCORE.INTRA.REPUL.0>
0

>  <SCORE.INTRA.SOLV>
0.629998

>  <SCORE.INTRA.SOLV.lig_0>
-19.3885

>  <SCORE.INTRA.VDW>
-0.422837

>  <SCORE.INTRA.VDW.0>
-1.12705

>  <SCORE.INTRA.norm>
-0.000248841

>  <SCORE.RESTR>
0

>  <SCORE.RESTR.CAVITY>
0

>  <SCORE.RESTR.norm>
0

>  <SCORE.SYSTEM>
0

>  <SCORE.SYSTEM.CONST>
0

>  <SCORE.SYSTEM.DIHEDRAL>
0

>  <SCORE.SYSTEM.SOLV>
0

>  <SCORE.SYSTEM.norm>
0

>  <SCORE.heavy>
18

>  <SCORE.norm>
-1.19539

>  <RMSD>
3.711

$$$$
lig.pdb
 OpenBabel11021811503D
libRbt.so/2013.1/901 2013/11/27
 18 19  0  0  0  0  0  0  0  0999 V2000
  -14.7034   15.9235    3.6952 C   0  0  0  0  0  0  0  0  0  0  0  0
  -10.1039   16.0929    2.1629 N   0  0  0  0  0  0  0  0  0  0  0  0
   -7.4887   15.0787    3.3621 C   0  0  0  0  0  0  0  0  0  0  0  0
   -7.2862   18.1895    1.3383 O   0  0  0  0  0  0  0  0  0  0  0  0
   -6.2495   17.6687    0.5179 C   0  0  0  0  0  0  0  0  0  0  0  0
   -5.8021   16.2882    1.0367 C   0  0  0  0  0  0  0  0  0  0  0  0
   -8.9537   13.7258    0.1943 C   0  0  0  0  0  0  0  0  0  0  0  0
   -7.7133   14.6843   -0.5451 S   0  0  0  0  0  0  0  0  0  0  0  0
   -6.9832   15.3487    0.9334 C   0  0  0  0  0  0  0  0  0  0  0  0
   -7.7713   14.7751    1.9003 C   0  0  0  0  0  0  0  0  0  0  0  0
   -8.7792   13.9451    1.4913 N   0  0  0  0  0  0  0  0  0  0  0  0
   -9.6800   13.2569    2.4827 C   0  0  0  0  0  0  0  0  0  0  0  0
  -11.1684   15.3318    2.6456 C   0  0  0  0  0  0  0  0  0  0  0  0
  -12.3602   15.9373    2.9368 N   0  0  0  0  0  0  0  0  0  0  0  0
  -13.3951   15.2302    3.3981 C   0  0  0  0  0  0  0  0  0  0  0  0
  -13.2876   13.9121    3.5888 N   0  0  0  0  0  0  0  0  0  0  0  0
  -12.1372   13.2421    3.3188 C   0  0  0  0  0  0  0  0  0  0  0  0
  -11.0202   13.9267    2.8273 C   0  0  0  0  0  0  0  0  0  0  0  0
  5  4  1  0  0  0  0
  5  6  1  0  0  0  0
  7  8  2  0  0  0  0
  7 11  1  0  0  0  0
  8  9  1  0  0  0  0
  9 10  2  0  0  0  0
  9  6  1  0  0  0  0
 10  3  1  0  0  0  0
 11 12  1  0  0  0  0
 11 10  1  0  0  0  0
 12 18  1  0  0  0  0
 13  2  1  0  0  0  0
 13 14  2  0  0  0  0
 15 14  1  0  0  0  0
 15  1  1  0  0  0  0
 16 15  2  0  0  0  0
 17 18  2  0  0  0  0
 17 16  1  0  0  0  0
 18 13  1  0  0  0  0
M  END
>  <CHROM.1>
62.76670386,70.54260963,-86.01757038,-23.72565912,-9.55008428,15.15752713
1.88915557,3.05038598,-0.43508515,-2.94522003

>  <Name>
lig.pdb

>  <RI>
0

>  <Rbt.Current_Directory>
/home/itssahil/PROJECTS/Mol_Feturizer/New_Systems/rnas/4nyg

>  <Rbt.Executable>
rbdock ($Id: //depot/dev/client3/rdock/2013.1/src/exe/rbdock.cxx#4 $)

>  <Rbt.Library>
libRbt.so (2013.1, Build901 2013/11/27)

>  <Rbt.Parameter_File>
/export/apps/rDock/src/rDock_2013.1_src/data/scripts/dock_solv.prm

>  <Rbt.Receptor>
prm/blind_docking_80.prm

>  <SCORE>
-19.8689

>  <SCORE.INTER>
-20.6609

>  <SCORE.INTER.CONST>
1

>  <SCORE.INTER.POLAR>
0

>  <SCORE.INTER.ROT>
4

>  <SCORE.INTER.SOLV>
12.5538

>  <SCORE.INTER.VDW>
-24.2252

>  <SCORE.INTER.norm>
-1.14783

>  <SCORE.INTRA>
0.791967

>  <SCORE.INTRA.DIHEDRAL>
0.0778327

>  <SCORE.INTRA.DIHEDRAL.0>
3.20029

>  <SCORE.INTRA.POLAR>
0

>  <SCORE.INTRA.POLAR.0>
0

>  <SCORE.INTRA.REPUL>
0

>  <SCORE.INTRA.REPUL.0>
0

>  <SCORE.INTRA.SOLV>
2.60551

>  <SCORE.INTRA.SOLV.lig_0>
-19.3885

>  <SCORE.INTRA.VDW>
-0.549702

>  <SCORE.INTRA.VDW.0>
-1.12705

>  <SCORE.INTRA.norm>
0.0439982

>  <SCORE.RESTR>
0

>  <SCORE.RESTR.CAVITY>
0

>  <SCORE.RESTR.norm>
0

>  <SCORE.SYSTEM>
0

>  <SCORE.SYSTEM.CONST>
0

>  <SCORE.SYSTEM.DIHEDRAL>
0

>  <SCORE.SYSTEM.SOLV>
0

>  <SCORE.SYSTEM.norm>
0

>  <SCORE.heavy>
18

>  <SCORE.norm>
-1.10383

>  <RMSD>
3.714

$$$$
lig.pdb
 OpenBabel11021811503D
libRbt.so/2013.1/901 2013/11/27
 18 19  0  0  0  0  0  0  0  0999 V2000
  -15.0049   16.1288    4.1006 C   0  0  0  0  0  0  0  0  0  0  0  0
  -12.1619   12.3779    2.9256 N   0  0  0  0  0  0  0  0  0  0  0  0
   -8.4076   14.8910   -0.3868 C   0  0  0  0  0  0  0  0  0  0  0  0
   -6.3883   18.7397    1.3598 O   0  0  0  0  0  0  0  0  0  0  0  0
   -6.2524   18.1012    0.0978 C   0  0  0  0  0  0  0  0  0  0  0  0
   -5.8991   16.6133    0.2886 C   0  0  0  0  0  0  0  0  0  0  0  0
   -8.3484   15.2358    3.3401 C   0  0  0  0  0  0  0  0  0  0  0  0
   -6.9119   16.1530    3.0253 S   0  0  0  0  0  0  0  0  0  0  0  0
   -6.9015   16.0183    1.2527 C   0  0  0  0  0  0  0  0  0  0  0  0
   -8.0232   15.2566    1.0371 C   0  0  0  0  0  0  0  0  0  0  0  0
   -8.7483   14.8666    2.1299 N   0  0  0  0  0  0  0  0  0  0  0  0
  -10.0035   14.0467    1.9870 C   0  0  0  0  0  0  0  0  0  0  0  0
  -12.3451   13.7596    2.9779 C   0  0  0  0  0  0  0  0  0  0  0  0
  -13.5132   14.2725    3.4722 N   0  0  0  0  0  0  0  0  0  0  0  0
  -13.7118   15.5917    3.5348 C   0  0  0  0  0  0  0  0  0  0  0  0
  -12.7720   16.4421    3.1117 N   0  0  0  0  0  0  0  0  0  0  0  0
  -11.5864   16.0067    2.6120 C   0  0  0  0  0  0  0  0  0  0  0  0
  -11.3168   14.6362    2.5268 C   0  0  0  0  0  0  0  0  0  0  0  0
  5  4  1  0  0  0  0
  5  6  1  0  0  0  0
  7  8  2  0  0  0  0
  7 11  1  0  0  0  0
  8  9  1  0  0  0  0
  9 10  2  0  0  0  0
  9  6  1  0  0  0  0
 10  3  1  0  0  0  0
 11 12  1  0  0  0  0
 11 10  1  0  0  0  0
 12 18  1  0  0  0  0
 13  2  1  0  0  0  0
 13 14  2  0  0  0  0
 15 14  1  0  0  0  0
 15  1  1  0  0  0  0
 16 15  2  0  0  0  0
 17 18  2  0  0  0  0
 17 16  1  0  0  0  0
 18 13  1  0  0  0  0
M  END
>  <CHROM.1>
51.27109214,-79.46652415,58.75375696,-151.49842354,-9.66461146,15.59326117
2.22800258,2.90958857,-0.34751052,-3.00552193

>  <Name>
lig.pdb

>  <RI>
0

>  <Rbt.Current_Directory>
/home/itssahil/PROJECTS/Mol_Feturizer/New_Systems/rnas/4nyg

>  <Rbt.Executable>
rbdock ($Id: //depot/dev/client3/rdock/2013.1/src/exe/rbdock.cxx#4 $)

>  <Rbt.Library>
libRbt.so (2013.1, Build901 2013/11/27)

>  <Rbt.Parameter_File>
/export/apps/rDock/src/rDock_2013.1_src/data/scripts/dock_solv.prm

>  <Rbt.Receptor>
prm/blind_docking_80.prm

>  <SCORE>
-19.5291

>  <SCORE.INTER>
-19.7697

>  <SCORE.INTER.CONST>
1

>  <SCORE.INTER.POLAR>
0

>  <SCORE.INTER.ROT>
4

>  <SCORE.INTER.SOLV>
14.593

>  <SCORE.INTER.VDW>
-24.3108

>  <SCORE.INTER.norm>
-1.09832

>  <SCORE.INTRA>
0.240553

>  <SCORE.INTRA.DIHEDRAL>
0.850685

>  <SCORE.INTRA.DIHEDRAL.0>
3.20029

>  <SCORE.INTRA.POLAR>
0

>  <SCORE.INTRA.POLAR.0>
0

>  <SCORE.INTRA.REPUL>
0

>  <SCORE.INTRA.REPUL.0>
0

>  <SCORE.INTRA.SOLV>
0.473993

>  <SCORE.INTRA.SOLV.lig_0>
-19.3885

>  <SCORE.INTRA.VDW>
-0.421786

>  <SCORE.INTRA.VDW.0>
-1.12705

>  <SCORE.INTRA.norm>
0.0133641

>  <SCORE.RESTR>
0

>  <SCORE.RESTR.CAVITY>
0

>  <SCORE.RESTR.norm>
0

>  <SCORE.SYSTEM>
0

>  <SCORE.SYSTEM.CONST>
0

>  <SCORE.SYSTEM.DIHEDRAL>
0

>  <SCORE.SYSTEM.SOLV>
0

>  <SCORE.SYSTEM.norm>
0

>  <SCORE.heavy>
18

>  <SCORE.norm>
-1.08495

>  <RMSD>
3.714

$$$$
lig.pdb
 OpenBabel11021811503D
libRbt.so/2013.1/901 2013/11/27
 18 19  0  0  0  0  0  0  0  0999 V2000
  -11.5433   11.6238    2.3786 C   0  0  0  0  0  0  0  0  0  0  0  0
  -11.6284   16.4708    2.5544 N   0  0  0  0  0  0  0  0  0  0  0  0
   -7.9587   19.0418   -0.4535 C   0  0  0  0  0  0  0  0  0  0  0  0
   -3.1445   19.1373   -2.2767 O   0  0  0  0  0  0  0  0  0  0  0  0
   -4.0283   18.2381   -1.6215 C   0  0  0  0  0  0  0  0  0  0  0  0
   -4.8437   18.9814   -0.5456 C   0  0  0  0  0  0  0  0  0  0  0  0
   -6.9167   15.9695    1.4138 C   0  0  0  0  0  0  0  0  0  0  0  0
   -5.3227   16.5098    1.0000 S   0  0  0  0  0  0  0  0  0  0  0  0
   -5.7710   17.9806    0.1077 C   0  0  0  0  0  0  0  0  0  0  0  0
   -7.1405   17.9367    0.1933 C   0  0  0  0  0  0  0  0  0  0  0  0
   -7.7034   16.8894    0.8703 N   0  0  0  0  0  0  0  0  0  0  0  0
   -9.1961   16.7708    1.0316 C   0  0  0  0  0  0  0  0  0  0  0  0
  -10.9840   15.3081    2.1322 C   0  0  0  0  0  0  0  0  0  0  0  0
  -11.5181   14.0859    2.4365 N   0  0  0  0  0  0  0  0  0  0  0  0
  -10.9213   12.9581    2.0419 C   0  0  0  0  0  0  0  0  0  0  0  0
   -9.7841   12.9991    1.3417 N   0  0  0  0  0  0  0  0  0  0  0  0
   -9.1970   14.1754    0.9998 C   0  0  0  0  0  0  0  0  0  0  0  0
   -9.7778   15.3908    1.3788 C   0  0  0  0  0  0  0  0  0  0  0  0
  5  4  1  0  0  0  0
  5  6  1  0  0  0  0
  7  8  2  0  0  0  0
  7 11  1  0  0  0  0
  8  9  1  0  0  0  0
  9 10  2  0  0  0  0
  9  6  1  0  0  0  0
 10  3  1  0  0  0  0
 11 12  1  0  0  0  0
 11 10  1  0  0  0  0
 12 18  1  0  0  0  0
 13  2  1  0  0  0  0
 13 14  2  0  0  0  0
 15 14  1  0  0  0  0
 15  1  1  0  0  0  0
 16 15  2  0  0  0  0
 17 18  2  0  0  0  0
 17 16  1  0  0  0  0
 18 13  1  0  0  0  0
M  END
>  <CHROM.1>
179.54228784,60.71781752,-20.65943992,150.55669961,-7.93718915,16.19612507
0.80536433,-2.47837827,0.30132137,-0.19539858

>  <Name>
lig.pdb

>  <RI>
0

>  <Rbt.Current_Directory>
/home/itssahil/PROJECTS/Mol_Feturizer/New_Systems/rnas/4nyg

>  <Rbt.Executable>
rbdock ($Id: //depot/dev/client3/rdock/2013.1/src/exe/rbdock.cxx#4 $)

>  <Rbt.Library>
libRbt.so (2013.1, Build901 2013/11/27)

>  <Rbt.Parameter_File>
/export/apps/rDock/src/rDock_2013.1_src/data/scripts/dock_solv.prm

>  <Rbt.Receptor>
prm/blind_docking_40.prm

>  <SCORE>
-9.77996

>  <SCORE.INTER>
-10.5661

>  <SCORE.INTER.CONST>
1

>  <SCORE.INTER.POLAR>
0

>  <SCORE.INTER.ROT>
4

>  <SCORE.INTER.SOLV>
11.832

>  <SCORE.INTER.VDW>
-17.2547

>  <SCORE.INTER.norm>
-0.587004

>  <SCORE.INTRA>
0.700985

>  <SCORE.INTRA.DIHEDRAL>
-0.0210869

>  <SCORE.INTRA.DIHEDRAL.0>
3.20029

>  <SCORE.INTRA.POLAR>
0

>  <SCORE.INTRA.POLAR.0>
0

>  <SCORE.INTRA.REPUL>
0

>  <SCORE.INTRA.REPUL.0>
0

>  <SCORE.INTRA.SOLV>
0.0468959

>  <SCORE.INTRA.SOLV.lig_0>
-19.3885

>  <SCORE.INTRA.VDW>
0.68808

>  <SCORE.INTRA.VDW.0>
-1.12705

>  <SCORE.INTRA.norm>
0.0389436

>  <SCORE.RESTR>
0.0851317

>  <SCORE.RESTR.CAVITY>
0.0851317

>  <SCORE.RESTR.norm>
0.00472954

>  <SCORE.SYSTEM>
0

>  <SCORE.SYSTEM.CONST>
0

>  <SCORE.SYSTEM.DIHEDRAL>
0

>  <SCORE.SYSTEM.SOLV>
0

>  <SCORE.SYSTEM.norm>
0

>  <SCORE.heavy>
18

>  <SCORE.norm>
-0.543331

>  <RMSD>
3.715

$$$$
lig.pdb
 OpenBabel11021811503D
libRbt.so/2013.1/901 2013/11/27
 18 19  0  0  0  0  0  0  0  0999 V2000
  -14.7964   16.1653    3.7202 C   0  0  0  0  0  0  0  0  0  0  0  0
  -12.3241   12.1625    2.5381 N   0  0  0  0  0  0  0  0  0  0  0  0
   -8.0081   15.7800    3.2212 C   0  0  0  0  0  0  0  0  0  0  0  0
   -7.9140   18.5136    0.9264 O   0  0  0  0  0  0  0  0  0  0  0  0
   -6.7440   18.0762    0.2491 C   0  0  0  0  0  0  0  0  0  0  0  0
   -6.1513   16.8401    0.9532 C   0  0  0  0  0  0  0  0  0  0  0  0
   -8.7776   13.7206    0.1916 C   0  0  0  0  0  0  0  0  0  0  0  0
   -7.5714   14.7254   -0.5430 S   0  0  0  0  0  0  0  0  0  0  0  0
   -7.1711   15.7258    0.8710 C   0  0  0  0  0  0  0  0  0  0  0  0
   -8.0191   15.2028    1.8156 C   0  0  0  0  0  0  0  0  0  0  0  0
   -8.8359   14.1722    1.4379 N   0  0  0  0  0  0  0  0  0  0  0  0
   -9.7834   13.5241    2.4127 C   0  0  0  0  0  0  0  0  0  0  0  0
  -12.3130   13.5328    2.7980 C   0  0  0  0  0  0  0  0  0  0  0  0
  -13.4801   14.1754    3.1088 N   0  0  0  0  0  0  0  0  0  0  0  0
  -13.4954   15.4863    3.3639 C   0  0  0  0  0  0  0  0  0  0  0  0
  -12.3677   16.2016    3.3179 N   0  0  0  0  0  0  0  0  0  0  0  0
  -11.1712   15.6318    3.0197 C   0  0  0  0  0  0  0  0  0  0  0  0
  -11.0898   14.2613    2.7493 C   0  0  0  0  0  0  0  0  0  0  0  0
  5  4  1  0  0  0  0
  5  6  1  0  0  0  0
  7  8  2  0  0  0  0
  7 11  1  0  0  0  0
  8  9  1  0  0  0  0
  9 10  2  0  0  0  0
  9  6  1  0  0  0  0
 10  3  1  0  0  0  0
 11 12  1  0  0  0  0
 11 10  1  0  0  0  0
 12 18  1  0  0  0  0
 13  2  1  0  0  0  0
 13 14  2  0  0  0  0
 15 14  1  0  0  0  0
 15  1  1  0  0  0  0
 16 15  2  0  0  0  0
 17 18  2  0  0  0  0
 17 16  1  0  0  0  0
 18 13  1  0  0  0  0
M  END
>  <CHROM.1>
62.77888473,75.76209294,-103.23890985,135.83360716,-9.81248458,15.23225598
1.82708776,2.99413338,-0.46215938,-2.94105600

>  <Name>
lig.pdb

>  <RI>
0

>  <Rbt.Current_Directory>
/home/itssahil/PROJECTS/Mol_Feturizer/New_Systems/rnas/4nyg

>  <Rbt.Executable>
rbdock ($Id: //depot/dev/client3/rdock/2013.1/src/exe/rbdock.cxx#4 $)

>  <Rbt.Library>
libRbt.so (2013.1, Build901 2013/11/27)

>  <Rbt.Parameter_File>
/export/apps/rDock/src/rDock_2013.1_src/data/scripts/dock_solv.prm

>  <Rbt.Receptor>
prm/pocket_docking_8.prm

>  <SCORE>
-21.3603

>  <SCORE.INTER>
-21.3729

>  <SCORE.INTER.CONST>
1

>  <SCORE.INTER.POLAR>
0

>  <SCORE.INTER.ROT>
4

>  <SCORE.INTER.SOLV>
15.0862

>  <SCORE.INTER.VDW>
-25.544

>  <SCORE.INTER.norm>
-1.18739

>  <SCORE.INTRA>
0.012683

>  <SCORE.INTRA.DIHEDRAL>
0.322144

>  <SCORE.INTRA.DIHEDRAL.0>
3.20029

>  <SCORE.INTRA.POLAR>
0

>  <SCORE.INTRA.POLAR.0>
0

>  <SCORE.INTRA.REPUL>
0

>  <SCORE.INTRA.REPUL.0>
0

>  <SCORE.INTRA.SOLV>
0.64223

>  <SCORE.INTRA.SOLV.lig_0>
-19.3885

>  <SCORE.INTRA.VDW>
-0.469504

>  <SCORE.INTRA.VDW.0>
-1.12705

>  <SCORE.INTRA.norm>
0.000704613

>  <SCORE.RESTR>
0

>  <SCORE.RESTR.CAVITY>
0

>  <SCORE.RESTR.norm>
0

>  <SCORE.SYSTEM>
0

>  <SCORE.SYSTEM.CONST>
0

>  <SCORE.SYSTEM.DIHEDRAL>
0

>  <SCORE.SYSTEM.SOLV>
0

>  <SCORE.SYSTEM.norm>
0

>  <SCORE.heavy>
18

>  <SCORE.norm>
-1.18668

>  <RMSD>
3.718

$$$$
lig.pdb
 OpenBabel11021811503D
libRbt.so/2013.1/901 2013/11/27
 18 19  0  0  0  0  0  0  0  0999 V2000
  -14.7775   15.7180    3.9084 C   0  0  0  0  0  0  0  0  0  0  0  0
  -10.4936   16.2588    1.6974 N   0  0  0  0  0  0  0  0  0  0  0  0
   -8.2755   14.4169   -0.4837 C   0  0  0  0  0  0  0  0  0  0  0  0
   -4.9410   18.3365   -0.4478 O   0  0  0  0  0  0  0  0  0  0  0  0
   -5.8568   17.6786    0.4168 C   0  0  0  0  0  0  0  0  0  0  0  0
   -5.7819   16.1531    0.2111 C   0  0  0  0  0  0  0  0  0  0  0  0
   -8.1544   14.6254    3.2517 C   0  0  0  0  0  0  0  0  0  0  0  0
   -6.7380   15.5764    2.9461 S   0  0  0  0  0  0  0  0  0  0  0  0
   -6.7576   15.5072    1.1698 C   0  0  0  0  0  0  0  0  0  0  0  0
   -7.8712   14.7360    0.9458 C   0  0  0  0  0  0  0  0  0  0  0  0
   -8.5704   14.2946    2.0359 N   0  0  0  0  0  0  0  0  0  0  0  0
   -9.8152   13.4606    1.8846 C   0  0  0  0  0  0  0  0  0  0  0  0
  -11.4116   15.4126    2.3193 C   0  0  0  0  0  0  0  0  0  0  0  0
  -12.5863   15.9210    2.8024 N   0  0  0  0  0  0  0  0  0  0  0  0
  -13.4824   15.1311    3.3998 C   0  0  0  0  0  0  0  0  0  0  0  0
  -13.2488   13.8233    3.5420 N   0  0  0  0  0  0  0  0  0  0  0  0
  -12.1068   13.2470    3.0848 C   0  0  0  0  0  0  0  0  0  0  0  0
  -11.1327   14.0212    2.4445 C   0  0  0  0  0  0  0  0  0  0  0  0
  5  4  1  0  0  0  0
  5  6  1  0  0  0  0
  7  8  2  0  0  0  0
  7 11  1  0  0  0  0
  8  9  1  0  0  0  0
  9 10  2  0  0  0  0
  9  6  1  0  0  0  0
 10  3  1  0  0  0  0
 11 12  1  0  0  0  0
 11 10  1  0  0  0  0
 12 18  1  0  0  0  0
 13  2  1  0  0  0  0
 13 14  2  0  0  0  0
 15 14  1  0  0  0  0
 15  1  1  0  0  0  0
 16 15  2  0  0  0  0
 17 18  2  0  0  0  0
 17 16  1  0  0  0  0
 18 13  1  0  0  0  0
M  END
>  <CHROM.1>
179.07497633,-61.64574704,59.92613498,38.50987279,-9.31536304,15.30576996
1.98655862,2.81256027,-0.25880491,2.82839139

>  <Name>
lig.pdb

>  <RI>
0

>  <Rbt.Current_Directory>
/home/itssahil/PROJECTS/Mol_Feturizer/New_Systems/rnas/4nyg

>  <Rbt.Executable>
rbdock ($Id: //depot/dev/client3/rdock/2013.1/src/exe/rbdock.cxx#4 $)

>  <Rbt.Library>
libRbt.so (2013.1, Build901 2013/11/27)

>  <Rbt.Parameter_File>
/export/apps/rDock/src/rDock_2013.1_src/data/scripts/dock_solv.prm

>  <Rbt.Receptor>
prm/pocket_docking_3.prm

>  <SCORE>
-19.3207

>  <SCORE.INTER>
-19.2023

>  <SCORE.INTER.CONST>
1

>  <SCORE.INTER.POLAR>
0

>  <SCORE.INTER.ROT>
4

>  <SCORE.INTER.SOLV>
12.3577

>  <SCORE.INTER.VDW>
-23.1874

>  <SCORE.INTER.norm>
-1.06679

>  <SCORE.INTRA>
-0.118468

>  <SCORE.INTRA.DIHEDRAL>
-0.068648

>  <SCORE.INTRA.DIHEDRAL.0>
3.20029

>  <SCORE.INTRA.POLAR>
0

>  <SCORE.INTRA.POLAR.0>
0

>  <SCORE.INTRA.REPUL>
0

>  <SCORE.INTRA.REPUL.0>
0

>  <SCORE.INTRA.SOLV>
1.47635

>  <SCORE.INTRA.SOLV.lig_0>
-19.3885

>  <SCORE.INTRA.VDW>
-0.822317

>  <SCORE.INTRA.VDW.0>
-1.12705

>  <SCORE.INTRA.norm>
-0.00658154

>  <SCORE.RESTR>
0

>  <SCORE.RESTR.CAVITY>
0

>  <SCORE.RESTR.norm>
0

>  <SCORE.SYSTEM>
0

>  <SCORE.SYSTEM.CONST>
0

>  <SCORE.SYSTEM.DIHEDRAL>
0

>  <SCORE.SYSTEM.SOLV>
0

>  <SCORE.SYSTEM.norm>
0

>  <SCORE.heavy>
18

>  <SCORE.norm>
-1.07337

>  <RMSD>
3.724

$$$$
lig.pdb
 OpenBabel11021811503D
libRbt.so/2013.1/901 2013/11/27
 18 19  0  0  0  0  0  0  0  0999 V2000
  -14.8332   16.2351    3.7549 C   0  0  0  0  0  0  0  0  0  0  0  0
  -12.4276   12.2081    2.5184 N   0  0  0  0  0  0  0  0  0  0  0  0
   -8.0855   15.7348    3.3160 C   0  0  0  0  0  0  0  0  0  0  0  0
   -7.8783   18.5611    0.9075 O   0  0  0  0  0  0  0  0  0  0  0  0
   -6.6621   18.0833    0.3493 C   0  0  0  0  0  0  0  0  0  0  0  0
   -6.1621   16.8547    1.1339 C   0  0  0  0  0  0  0  0  0  0  0  0
   -8.8087   13.8020    0.1930 C   0  0  0  0  0  0  0  0  0  0  0  0
   -7.5728   14.8175   -0.4745 S   0  0  0  0  0  0  0  0  0  0  0  0
   -7.1937   15.7582    0.9855 C   0  0  0  0  0  0  0  0  0  0  0  0
   -8.0704   15.2113    1.8895 C   0  0  0  0  0  0  0  0  0  0  0  0
   -8.8909   14.2069    1.4539 N   0  0  0  0  0  0  0  0  0  0  0  0
   -9.8694   13.5352    2.3811 C   0  0  0  0  0  0  0  0  0  0  0  0
  -12.3950   13.5759    2.7892 C   0  0  0  0  0  0  0  0  0  0  0  0
  -13.5503   14.2322    3.1156 N   0  0  0  0  0  0  0  0  0  0  0  0
  -13.5450   15.5410    3.3814 C   0  0  0  0  0  0  0  0  0  0  0  0
  -12.4079   16.2410    3.3310 N   0  0  0  0  0  0  0  0  0  0  0  0
  -11.2222   15.6570    3.0175 C   0  0  0  0  0  0  0  0  0  0  0  0
  -11.1623   14.2878    2.7353 C   0  0  0  0  0  0  0  0  0  0  0  0
  5  4  1  0  0  0  0
  5  6  1  0  0  0  0
  7  8  2  0  0  0  0
  7 11  1  0  0  0  0
  8  9  1  0  0  0  0
  9 10  2  0  0  0  0
  9  6  1  0  0  0  0
 10  3  1  0  0  0  0
 11 12  1  0  0  0  0
 11 10  1  0  0  0  0
 12 18  1  0  0  0  0
 13  2  1  0  0  0  0
 13 14  2  0  0  0  0
 15 14  1  0  0  0  0
 15  1  1  0  0  0  0
 16 15  2  0  0  0  0
 17 18  2  0  0  0  0
 17 16  1  0  0  0  0
 18 13  1  0  0  0  0
M  END
>  <CHROM.1>
62.85562764,70.45972469,-104.33191091,138.68506807,-9.84897758,15.27184442
1.86427182,2.99555704,-0.45033256,-2.92977606

>  <Name>
lig.pdb

>  <RI>
0

>  <Rbt.Current_Directory>
/home/itssahil/PROJECTS/Mol_Feturizer/New_Systems/rnas/4nyg

>  <Rbt.Executable>
rbdock ($Id: //depot/dev/client3/rdock/2013.1/src/exe/rbdock.cxx#4 $)

>  <Rbt.Library>
libRbt.so (2013.1, Build901 2013/11/27)

>  <Rbt.Parameter_File>
/export/apps/rDock/src/rDock_2013.1_src/data/scripts/dock_solv.prm

>  <Rbt.Receptor>
prm/blind_docking_40.prm

>  <SCORE>
-21.4765

>  <SCORE.INTER>
-21.4267

>  <SCORE.INTER.CONST>
1

>  <SCORE.INTER.POLAR>
0

>  <SCORE.INTER.ROT>
4

>  <SCORE.INTER.SOLV>
15.1715

>  <SCORE.INTER.VDW>
-25.6083

>  <SCORE.INTER.norm>
-1.19037

>  <SCORE.INTRA>
-0.0498396

>  <SCORE.INTRA.DIHEDRAL>
0.0927455

>  <SCORE.INTRA.DIHEDRAL.0>
3.20029

>  <SCORE.INTRA.POLAR>
0

>  <SCORE.INTRA.POLAR.0>
0

>  <SCORE.INTRA.REPUL>
0

>  <SCORE.INTRA.REPUL.0>
0

>  <SCORE.INTRA.SOLV>
0.612272

>  <SCORE.INTRA.SOLV.lig_0>
-19.3885

>  <SCORE.INTRA.VDW>
-0.402348

>  <SCORE.INTRA.VDW.0>
-1.12705

>  <SCORE.INTRA.norm>
-0.00276887

>  <SCORE.RESTR>
0

>  <SCORE.RESTR.CAVITY>
0

>  <SCORE.RESTR.norm>
0

>  <SCORE.SYSTEM>
0

>  <SCORE.SYSTEM.CONST>
0

>  <SCORE.SYSTEM.DIHEDRAL>
0

>  <SCORE.SYSTEM.SOLV>
0

>  <SCORE.SYSTEM.norm>
0

>  <SCORE.heavy>
18

>  <SCORE.norm>
-1.19314

>  <RMSD>
3.731

$$$$
lig.pdb
 OpenBabel11021811503D
libRbt.so/2013.1/901 2013/11/27
 18 19  0  0  0  0  0  0  0  0999 V2000
  -14.7592   15.8051    3.9263 C   0  0  0  0  0  0  0  0  0  0  0  0
  -10.4763   16.2460    1.6914 N   0  0  0  0  0  0  0  0  0  0  0  0
   -8.4108   14.5580   -0.4822 C   0  0  0  0  0  0  0  0  0  0  0  0
   -5.4008   17.9305    1.8660 O   0  0  0  0  0  0  0  0  0  0  0  0
   -5.9033   17.6827    0.5603 C   0  0  0  0  0  0  0  0  0  0  0  0
   -5.8474   16.1753    0.2449 C   0  0  0  0  0  0  0  0  0  0  0  0
   -8.1212   14.4375    3.2479 C   0  0  0  0  0  0  0  0  0  0  0  0
   -6.6967   15.3821    2.9609 S   0  0  0  0  0  0  0  0  0  0  0  0
   -6.7956   15.4684    1.1880 C   0  0  0  0  0  0  0  0  0  0  0  0
   -7.9365   14.7429    0.9496 C   0  0  0  0  0  0  0  0  0  0  0  0
   -8.5980   14.2226    2.0284 N   0  0  0  0  0  0  0  0  0  0  0  0
   -9.8683   13.4308    1.8629 C   0  0  0  0  0  0  0  0  0  0  0  0
  -11.4117   15.4208    2.3154 C   0  0  0  0  0  0  0  0  0  0  0  0
  -12.5702   15.9570    2.8077 N   0  0  0  0  0  0  0  0  0  0  0  0
  -13.4825   15.1876    3.4073 C   0  0  0  0  0  0  0  0  0  0  0  0
  -13.2814   13.8736    3.5428 N   0  0  0  0  0  0  0  0  0  0  0  0
  -12.1573   13.2705    3.0762 C   0  0  0  0  0  0  0  0  0  0  0  0
  -11.1677   14.0223    2.4331 C   0  0  0  0  0  0  0  0  0  0  0  0
  5  4  1  0  0  0  0
  5  6  1  0  0  0  0
  7  8  2  0  0  0  0
  7 11  1  0  0  0  0
  8  9  1  0  0  0  0
  9 10  2  0  0  0  0
  9  6  1  0  0  0  0
 10  3  1  0  0  0  0
 11 12  1  0  0  0  0
 11 10  1  0  0  0  0
 12 18  1  0  0  0  0
 13  2  1  0  0  0  0
 13 14  2  0  0  0  0
 15 14  1  0  0  0  0
 15  1  1  0  0  0  0
 16 15  2  0  0  0  0
 17 18  2  0  0  0  0
 17 16  1  0  0  0  0
 18 13  1  0  0  0  0
M  END
>  <CHROM.1>
65.11443041,-63.08837150,64.66954825,39.41829304,-9.36250594,15.26361611
2.13855538,2.96892058,-0.28879445,-3.02682532

>  <Name>
lig.pdb

>  <RI>
0

>  <Rbt.Current_Directory>
/home/itssahil/PROJECTS/Mol_Feturizer/New_Systems/rnas/4nyg

>  <Rbt.Executable>
rbdock ($Id: //depot/dev/client3/rdock/2013.1/src/exe/rbdock.cxx#4 $)

>  <Rbt.Library>
libRbt.so (2013.1, Build901 2013/11/27)

>  <Rbt.Parameter_File>
/export/apps/rDock/src/rDock_2013.1_src/data/scripts/dock_solv.prm

>  <Rbt.Receptor>
prm/pocket_docking_7.prm

>  <SCORE>
-19.1437

>  <SCORE.INTER>
-19.1622

>  <SCORE.INTER.CONST>
1

>  <SCORE.INTER.POLAR>
0

>  <SCORE.INTER.ROT>
4

>  <SCORE.INTER.SOLV>
12.4198

>  <SCORE.INTER.VDW>
-23.1814

>  <SCORE.INTER.norm>
-1.06457

>  <SCORE.INTRA>
0.0185889

>  <SCORE.INTRA.DIHEDRAL>
0.0559937

>  <SCORE.INTRA.DIHEDRAL.0>
3.20029

>  <SCORE.INTRA.POLAR>
0

>  <SCORE.INTRA.POLAR.0>
0

>  <SCORE.INTRA.REPUL>
0

>  <SCORE.INTRA.REPUL.0>
0

>  <SCORE.INTRA.SOLV>
1.92897

>  <SCORE.INTRA.SOLV.lig_0>
-19.3885

>  <SCORE.INTRA.VDW>
-0.973891

>  <SCORE.INTRA.VDW.0>
-1.12705

>  <SCORE.INTRA.norm>
0.00103272

>  <SCORE.RESTR>
0

>  <SCORE.RESTR.CAVITY>
0

>  <SCORE.RESTR.norm>
0

>  <SCORE.SYSTEM>
0

>  <SCORE.SYSTEM.CONST>
0

>  <SCORE.SYSTEM.DIHEDRAL>
0

>  <SCORE.SYSTEM.SOLV>
0

>  <SCORE.SYSTEM.norm>
0

>  <SCORE.heavy>
18

>  <SCORE.norm>
-1.06354

>  <RMSD>
3.732

$$$$
lig.pdb
 OpenBabel11021811503D
libRbt.so/2013.1/901 2013/11/27
 18 19  0  0  0  0  0  0  0  0999 V2000
  -14.8142   14.8946    3.8427 C   0  0  0  0  0  0  0  0  0  0  0  0
  -10.4466   13.3544    2.3991 N   0  0  0  0  0  0  0  0  0  0  0  0
   -7.6020   14.4692   -0.1487 C   0  0  0  0  0  0  0  0  0  0  0  0
   -4.1537   11.0782    1.8208 O   0  0  0  0  0  0  0  0  0  0  0  0
   -5.3064   11.8278    2.1791 C   0  0  0  0  0  0  0  0  0  0  0  0
   -5.2752   13.2107    1.4997 C   0  0  0  0  0  0  0  0  0  0  0  0
   -8.2679   15.3372    3.4311 C   0  0  0  0  0  0  0  0  0  0  0  0
   -6.8093   14.4415    3.7040 S   0  0  0  0  0  0  0  0  0  0  0  0
   -6.4516   14.0085    2.0173 C   0  0  0  0  0  0  0  0  0  0  0  0
   -7.5077   14.5928    1.3629 C   0  0  0  0  0  0  0  0  0  0  0  0
   -8.4284   15.2692    2.1158 N   0  0  0  0  0  0  0  0  0  0  0  0
   -9.6077   15.9578    1.4809 C   0  0  0  0  0  0  0  0  0  0  0  0
  -11.3538   14.4062    2.5254 C   0  0  0  0  0  0  0  0  0  0  0  0
  -12.5844   14.1800    3.0789 N   0  0  0  0  0  0  0  0  0  0  0  0
  -13.4698   15.1710    3.2129 C   0  0  0  0  0  0  0  0  0  0  0  0
  -13.1731   16.4082    2.8048 N   0  0  0  0  0  0  0  0  0  0  0  0
  -11.9706   16.7088    2.2492 C   0  0  0  0  0  0  0  0  0  0  0  0
  -10.9990   15.7147    2.0880 C   0  0  0  0  0  0  0  0  0  0  0  0
  5  4  1  0  0  0  0
  5  6  1  0  0  0  0
  7  8  2  0  0  0  0
  7 11  1  0  0  0  0
  8  9  1  0  0  0  0
  9 10  2  0  0  0  0
  9  6  1  0  0  0  0
 10  3  1  0  0  0  0
 11 12  1  0  0  0  0
 11 10  1  0  0  0  0
 12 18  1  0  0  0  0
 13  2  1  0  0  0  0
 13 14  2  0  0  0  0
 15 14  1  0  0  0  0
 15  1  1  0  0  0  0
 16 15  2  0  0  0  0
 17 18  2  0  0  0  0
 17 16  1  0  0  0  0
 18 13  1  0  0  0  0
M  END
>  <CHROM.1>
-174.74406263,58.81133554,-49.12764759,-40.36910052,-9.11657302,14.45078502
2.40155546,2.91150497,0.25506869,-0.46001328

>  <Name>
lig.pdb

>  <RI>
0

>  <Rbt.Current_Directory>
/home/itssahil/PROJECTS/Mol_Feturizer/New_Systems/rnas/4nyg

>  <Rbt.Executable>
rbdock ($Id: //depot/dev/client3/rdock/2013.1/src/exe/rbdock.cxx#4 $)

>  <Rbt.Library>
libRbt.so (2013.1, Build901 2013/11/27)

>  <Rbt.Parameter_File>
/export/apps/rDock/src/rDock_2013.1_src/data/scripts/dock_solv.prm

>  <Rbt.Receptor>
prm/pocket_docking_8.prm

>  <SCORE>
-14.328

>  <SCORE.INTER>
-14.4149

>  <SCORE.INTER.CONST>
1

>  <SCORE.INTER.POLAR>
0

>  <SCORE.INTER.ROT>
4

>  <SCORE.INTER.SOLV>
11.1391

>  <SCORE.INTER.VDW>
-19.5897

>  <SCORE.INTER.norm>
-0.800829

>  <SCORE.INTRA>
0.0869675

>  <SCORE.INTRA.DIHEDRAL>
0.063145

>  <SCORE.INTRA.DIHEDRAL.0>
3.20029

>  <SCORE.INTRA.POLAR>
0

>  <SCORE.INTRA.POLAR.0>
0

>  <SCORE.INTRA.REPUL>
0

>  <SCORE.INTRA.REPUL.0>
0

>  <SCORE.INTRA.SOLV>
1.34561

>  <SCORE.INTRA.SOLV.lig_0>
-19.3885

>  <SCORE.INTRA.VDW>
-0.617409

>  <SCORE.INTRA.VDW.0>
-1.12705

>  <SCORE.INTRA.norm>
0.00483153

>  <SCORE.RESTR>
0

>  <SCORE.RESTR.CAVITY>
0

>  <SCORE.RESTR.norm>
0

>  <SCORE.SYSTEM>
0

>  <SCORE.SYSTEM.CONST>
0

>  <SCORE.SYSTEM.DIHEDRAL>
0

>  <SCORE.SYSTEM.SOLV>
0

>  <SCORE.SYSTEM.norm>
0

>  <SCORE.heavy>
18

>  <SCORE.norm>
-0.795998

>  <RMSD>
3.746

$$$$
lig.pdb
 OpenBabel11021811503D
libRbt.so/2013.1/901 2013/11/27
 18 19  0  0  0  0  0  0  0  0999 V2000
  -15.2035   15.9474    4.0851 C   0  0  0  0  0  0  0  0  0  0  0  0
  -11.6125   12.7923    3.2593 N   0  0  0  0  0  0  0  0  0  0  0  0
   -8.9978   16.3370   -0.1383 C   0  0  0  0  0  0  0  0  0  0  0  0
   -4.6389   18.0153    1.1968 O   0  0  0  0  0  0  0  0  0  0  0  0
   -5.4387   18.0492    0.0228 C   0  0  0  0  0  0  0  0  0  0  0  0
   -6.8576   18.5478    0.3589 C   0  0  0  0  0  0  0  0  0  0  0  0
   -8.1840   16.2024    3.5129 C   0  0  0  0  0  0  0  0  0  0  0  0
   -7.1001   17.4927    3.1075 S   0  0  0  0  0  0  0  0  0  0  0  0
   -7.4573   17.5947    1.3690 C   0  0  0  0  0  0  0  0  0  0  0  0
   -8.3968   16.6031    1.2317 C   0  0  0  0  0  0  0  0  0  0  0  0
   -8.7510   15.9014    2.3517 N   0  0  0  0  0  0  0  0  0  0  0  0
   -9.7876   14.8102    2.2988 C   0  0  0  0  0  0  0  0  0  0  0  0
  -12.0708   14.1089    3.2167 C   0  0  0  0  0  0  0  0  0  0  0  0
  -13.3411   14.4005    3.6328 N   0  0  0  0  0  0  0  0  0  0  0  0
  -13.8026   15.6535    3.6039 C   0  0  0  0  0  0  0  0  0  0  0  0
  -13.0321   16.6524    3.1635 N   0  0  0  0  0  0  0  0  0  0  0  0
  -11.7598   16.4397    2.7377 C   0  0  0  0  0  0  0  0  0  0  0  0
  -11.2175   15.1498    2.7500 C   0  0  0  0  0  0  0  0  0  0  0  0
  5  4  1  0  0  0  0
  5  6  1  0  0  0  0
  7  8  2  0  0  0  0
  7 11  1  0  0  0  0
  8  9  1  0  0  0  0
  9 10  2  0  0  0  0
  9  6  1  0  0  0  0
 10  3  1  0  0  0  0
 11 12  1  0  0  0  0
 11 10  1  0  0  0  0
 12 18  1  0  0  0  0
 13  2  1  0  0  0  0
 13 14  2  0  0  0  0
 15 14  1  0  0  0  0
 15  1  1  0  0  0  0
 16 15  2  0  0  0  0
 17 18  2  0  0  0  0
 17 16  1  0  0  0  0
 18 13  1  0  0  0  0
M  END
>  <CHROM.1>
-59.76891294,76.41069336,79.56678659,-155.44884335,-9.62786965,16.26783982
2.35225821,2.72823825,-0.21390195,2.89376025

>  <Name>
lig.pdb

>  <RI>
0

>  <Rbt.Current_Directory>
/home/itssahil/PROJECTS/Mol_Feturizer/New_Systems/rnas/4nyg

>  <Rbt.Executable>
rbdock ($Id: //depot/dev/client3/rdock/2013.1/src/exe/rbdock.cxx#4 $)

>  <Rbt.Library>
libRbt.so (2013.1, Build901 2013/11/27)

>  <Rbt.Parameter_File>
/export/apps/rDock/src/rDock_2013.1_src/data/scripts/dock_solv.prm

>  <Rbt.Receptor>
prm/pocket_docking_8.prm

>  <SCORE>
-21.9486

>  <SCORE.INTER>
-21.6877

>  <SCORE.INTER.CONST>
1

>  <SCORE.INTER.POLAR>
0

>  <SCORE.INTER.ROT>
4

>  <SCORE.INTER.SOLV>
14.7369

>  <SCORE.INTER.VDW>
-25.6375

>  <SCORE.INTER.norm>
-1.20487

>  <SCORE.INTRA>
-0.260892

>  <SCORE.INTRA.DIHEDRAL>
0.434072

>  <SCORE.INTRA.DIHEDRAL.0>
3.20029

>  <SCORE.INTRA.POLAR>
0

>  <SCORE.INTRA.POLAR.0>
0

>  <SCORE.INTRA.REPUL>
0

>  <SCORE.INTRA.REPUL.0>
0

>  <SCORE.INTRA.SOLV>
0.418677

>  <SCORE.INTRA.SOLV.lig_0>
-19.3885

>  <SCORE.INTRA.VDW>
-0.687266

>  <SCORE.INTRA.VDW.0>
-1.12705

>  <SCORE.INTRA.norm>
-0.014494

>  <SCORE.RESTR>
0

>  <SCORE.RESTR.CAVITY>
0

>  <SCORE.RESTR.norm>
0

>  <SCORE.SYSTEM>
0

>  <SCORE.SYSTEM.CONST>
0

>  <SCORE.SYSTEM.DIHEDRAL>
0

>  <SCORE.SYSTEM.SOLV>
0

>  <SCORE.SYSTEM.norm>
0

>  <SCORE.heavy>
18

>  <SCORE.norm>
-1.21937

>  <RMSD>
3.754

$$$$
lig.pdb
 OpenBabel11021811503D
libRbt.so/2013.1/901 2013/11/27
 18 19  0  0  0  0  0  0  0  0999 V2000
  -15.2230   15.8970    4.0967 C   0  0  0  0  0  0  0  0  0  0  0  0
  -11.5230   12.8763    3.2497 N   0  0  0  0  0  0  0  0  0  0  0  0
   -8.7645   16.1404   -0.1611 C   0  0  0  0  0  0  0  0  0  0  0  0
   -4.6503   18.0894    1.1852 O   0  0  0  0  0  0  0  0  0  0  0  0
   -5.3782   18.0078   -0.0324 C   0  0  0  0  0  0  0  0  0  0  0  0
   -6.8088   18.5455    0.1649 C   0  0  0  0  0  0  0  0  0  0  0  0
   -8.3471   16.6569    3.5228 C   0  0  0  0  0  0  0  0  0  0  0  0
   -7.2939   17.9362    3.0146 S   0  0  0  0  0  0  0  0  0  0  0  0
   -7.4646   17.7298    1.2571 C   0  0  0  0  0  0  0  0  0  0  0  0
   -8.3308   16.6663    1.1970 C   0  0  0  0  0  0  0  0  0  0  0  0
   -8.7679   16.1329    2.3787 N   0  0  0  0  0  0  0  0  0  0  0  0
   -9.7346   14.9784    2.4086 C   0  0  0  0  0  0  0  0  0  0  0  0
  -12.0181   14.1802    3.2427 C   0  0  0  0  0  0  0  0  0  0  0  0
  -13.3061   14.4206    3.6367 N   0  0  0  0  0  0  0  0  0  0  0  0
  -13.8028   15.6604    3.6410 C   0  0  0  0  0  0  0  0  0  0  0  0
  -13.0511   16.6959    3.2562 N   0  0  0  0  0  0  0  0  0  0  0  0
  -11.7633   16.5348    2.8554 C   0  0  0  0  0  0  0  0  0  0  0  0
  -11.1843   15.2610    2.8353 C   0  0  0  0  0  0  0  0  0  0  0  0
  5  4  1  0  0  0  0
  5  6  1  0  0  0  0
  7  8  2  0  0  0  0
  7 11  1  0  0  0  0
  8  9  1  0  0  0  0
  9 10  2  0  0  0  0
  9  6  1  0  0  0  0
 10  3  1  0  0  0  0
 11 12  1  0  0  0  0
 11 10  1  0  0  0  0
 12 18  1  0  0  0  0
 13  2  1  0  0  0  0
 13 14  2  0  0  0  0
 15 14  1  0  0  0  0
 15  1  1  0  0  0  0
 16 15  2  0  0  0  0
 17 18  2  0  0  0  0
 17 16  1  0  0  0  0
 18 13  1  0  0  0  0
M  END
>  <CHROM.1>
-58.11516600,81.69304549,71.62245843,-162.21404024,-9.62824910,16.38433475
2.34457250,2.88179068,-0.41064890,-2.87245385

>  <Name>
lig.pdb

>  <RI>
0

>  <Rbt.Current_Directory>
/home/itssahil/PROJECTS/Mol_Feturizer/New_Systems/rnas/4nyg

>  <Rbt.Executable>
rbdock ($Id: //depot/dev/client3/rdock/2013.1/src/exe/rbdock.cxx#4 $)

>  <Rbt.Library>
libRbt.so (2013.1, Build901 2013/11/27)

>  <Rbt.Parameter_File>
/export/apps/rDock/src/rDock_2013.1_src/data/scripts/dock_solv.prm

>  <Rbt.Receptor>
prm/pocket_docking_4.prm

>  <SCORE>
-21.8676

>  <SCORE.INTER>
-21.8434

>  <SCORE.INTER.CONST>
1

>  <SCORE.INTER.POLAR>
0

>  <SCORE.INTER.ROT>
4

>  <SCORE.INTER.SOLV>
15.0364

>  <SCORE.INTER.VDW>
-25.841

>  <SCORE.INTER.norm>
-1.21352

>  <SCORE.INTRA>
-0.0242765

>  <SCORE.INTRA.DIHEDRAL>
0.739396

>  <SCORE.INTRA.DIHEDRAL.0>
3.20029

>  <SCORE.INTRA.POLAR>
0

>  <SCORE.INTRA.POLAR.0>
0

>  <SCORE.INTRA.REPUL>
0

>  <SCORE.INTRA.REPUL.0>
0

>  <SCORE.INTRA.SOLV>
0.42799

>  <SCORE.INTRA.SOLV.lig_0>
-19.3885

>  <SCORE.INTRA.VDW>
-0.60797

>  <SCORE.INTRA.VDW.0>
-1.12705

>  <SCORE.INTRA.norm>
-0.0013487

>  <SCORE.RESTR>
0

>  <SCORE.RESTR.CAVITY>
0

>  <SCORE.RESTR.norm>
0

>  <SCORE.SYSTEM>
0

>  <SCORE.SYSTEM.CONST>
0

>  <SCORE.SYSTEM.DIHEDRAL>
0

>  <SCORE.SYSTEM.SOLV>
0

>  <SCORE.SYSTEM.norm>
0

>  <SCORE.heavy>
18

>  <SCORE.norm>
-1.21487

>  <RMSD>
3.770

$$$$
lig.pdb
 OpenBabel11021811503D
libRbt.so/2013.1/901 2013/11/27
 18 19  0  0  0  0  0  0  0  0999 V2000
  -15.2102   15.8898    4.0436 C   0  0  0  0  0  0  0  0  0  0  0  0
  -11.5226   12.8182    3.3368 N   0  0  0  0  0  0  0  0  0  0  0  0
   -8.9931   16.2393   -0.1425 C   0  0  0  0  0  0  0  0  0  0  0  0
   -4.7277   18.1254    1.0246 O   0  0  0  0  0  0  0  0  0  0  0  0
   -5.5363   18.0958   -0.1435 C   0  0  0  0  0  0  0  0  0  0  0  0
   -6.9620   18.5812    0.1829 C   0  0  0  0  0  0  0  0  0  0  0  0
   -8.1943   16.4308    3.5095 C   0  0  0  0  0  0  0  0  0  0  0  0
   -7.1699   17.7350    3.0057 S   0  0  0  0  0  0  0  0  0  0  0  0
   -7.5218   17.6831    1.2639 C   0  0  0  0  0  0  0  0  0  0  0  0
   -8.4129   16.6404    1.2034 C   0  0  0  0  0  0  0  0  0  0  0  0
   -8.7400   16.0129    2.3745 N   0  0  0  0  0  0  0  0  0  0  0  0
   -9.7239   14.8732    2.4058 C   0  0  0  0  0  0  0  0  0  0  0  0
  -12.0119   14.1227    3.2712 C   0  0  0  0  0  0  0  0  0  0  0  0
  -13.2993   14.3860    3.6523 N   0  0  0  0  0  0  0  0  0  0  0  0
  -13.7905   15.6269    3.6009 C   0  0  0  0  0  0  0  0  0  0  0  0
  -13.0338   16.6411    3.1717 N   0  0  0  0  0  0  0  0  0  0  0  0
  -11.7462   16.4566    2.7803 C   0  0  0  0  0  0  0  0  0  0  0  0
  -11.1728   15.1807    2.8175 C   0  0  0  0  0  0  0  0  0  0  0  0
  5  4  1  0  0  0  0
  5  6  1  0  0  0  0
  7  8  2  0  0  0  0
  7 11  1  0  0  0  0
  8  9  1  0  0  0  0
  9 10  2  0  0  0  0
  9  6  1  0  0  0  0
 10  3  1  0  0  0  0
 11 12  1  0  0  0  0
 11 10  1  0  0  0  0
 12 18  1  0  0  0  0
 13  2  1  0  0  0  0
 13 14  2  0  0  0  0
 15 14  1  0  0  0  0
 15  1  1  0  0  0  0
 16 15  2  0  0  0  0
 17 18  2  0  0  0  0
 17 16  1  0  0  0  0
 18 13  1  0  0  0  0
M  END
>  <CHROM.1>
-58.20999848,78.27209516,79.95224611,-160.04065661,-9.64003468,16.32762564
2.32222026,2.72479237,-0.26574517,2.96853189

>  <Name>
lig.pdb

>  <RI>
0

>  <Rbt.Current_Directory>
/home/itssahil/PROJECTS/Mol_Feturizer/New_Systems/rnas/4nyg

>  <Rbt.Executable>
rbdock ($Id: //depot/dev/client3/rdock/2013.1/src/exe/rbdock.cxx#4 $)

>  <Rbt.Library>
libRbt.so (2013.1, Build901 2013/11/27)

>  <Rbt.Parameter_File>
/export/apps/rDock/src/rDock_2013.1_src/data/scripts/dock_solv.prm

>  <Rbt.Receptor>
prm/pocket_docking_6.prm

>  <SCORE>
-22.0526

>  <SCORE.INTER>
-21.868

>  <SCORE.INTER.CONST>
1

>  <SCORE.INTER.POLAR>
0

>  <SCORE.INTER.ROT>
4

>  <SCORE.INTER.SOLV>
15.0175

>  <SCORE.INTER.VDW>
-25.8512

>  <SCORE.INTER.norm>
-1.21489

>  <SCORE.INTRA>
-0.18457

>  <SCORE.INTRA.DIHEDRAL>
0.549345

>  <SCORE.INTRA.DIHEDRAL.0>
3.20029

>  <SCORE.INTRA.POLAR>
0

>  <SCORE.INTRA.POLAR.0>
0

>  <SCORE.INTRA.REPUL>
0

>  <SCORE.INTRA.REPUL.0>
0

>  <SCORE.INTRA.SOLV>
0.429521

>  <SCORE.INTRA.SOLV.lig_0>
-19.3885

>  <SCORE.INTRA.VDW>
-0.674004

>  <SCORE.INTRA.VDW.0>
-1.12705

>  <SCORE.INTRA.norm>
-0.0102539

>  <SCORE.RESTR>
0

>  <SCORE.RESTR.CAVITY>
0

>  <SCORE.RESTR.norm>
0

>  <SCORE.SYSTEM>
0

>  <SCORE.SYSTEM.CONST>
0

>  <SCORE.SYSTEM.DIHEDRAL>
0

>  <SCORE.SYSTEM.SOLV>
0

>  <SCORE.SYSTEM.norm>
0

>  <SCORE.heavy>
18

>  <SCORE.norm>
-1.22514

>  <RMSD>
3.792

$$$$
lig.pdb
 OpenBabel11021811503D
libRbt.so/2013.1/901 2013/11/27
 18 19  0  0  0  0  0  0  0  0999 V2000
  -14.4921   14.8175    3.5762 C   0  0  0  0  0  0  0  0  0  0  0  0
   -9.9774   16.5759    3.3370 N   0  0  0  0  0  0  0  0  0  0  0  0
   -8.9470   16.0936    0.0419 C   0  0  0  0  0  0  0  0  0  0  0  0
   -5.4309   19.6176   -1.0043 O   0  0  0  0  0  0  0  0  0  0  0  0
   -5.6536   18.5325   -0.1143 C   0  0  0  0  0  0  0  0  0  0  0  0
   -7.0969   18.5727    0.4244 C   0  0  0  0  0  0  0  0  0  0  0  0
   -7.2262   15.6166    3.3317 C   0  0  0  0  0  0  0  0  0  0  0  0
   -6.4801   17.1274    2.9260 S   0  0  0  0  0  0  0  0  0  0  0  0
   -7.2761   17.3971    1.3594 C   0  0  0  0  0  0  0  0  0  0  0  0
   -8.0647   16.2773    1.2653 C   0  0  0  0  0  0  0  0  0  0  0  0
   -8.0181   15.3768    2.2944 N   0  0  0  0  0  0  0  0  0  0  0  0
   -8.8638   14.1307    2.2856 C   0  0  0  0  0  0  0  0  0  0  0  0
  -10.8467   15.5029    3.1414 C   0  0  0  0  0  0  0  0  0  0  0  0
  -12.1753   15.6415    3.4371 N   0  0  0  0  0  0  0  0  0  0  0  0
  -13.0282   14.6297    3.2564 C   0  0  0  0  0  0  0  0  0  0  0  0
  -12.6004   13.4551    2.7844 N   0  0  0  0  0  0  0  0  0  0  0  0
  -11.2968   13.2446    2.4658 C   0  0  0  0  0  0  0  0  0  0  0  0
  -10.3564   14.2682    2.6270 C   0  0  0  0  0  0  0  0  0  0  0  0
  5  4  1  0  0  0  0
  5  6  1  0  0  0  0
  7  8  2  0  0  0  0
  7 11  1  0  0  0  0
  8  9  1  0  0  0  0
  9 10  2  0  0  0  0
  9  6  1  0  0  0  0
 10  3  1  0  0  0  0
 11 12  1  0  0  0  0
 11 10  1  0  0  0  0
 12 18  1  0  0  0  0
 13  2  1  0  0  0  0
 13 14  2  0  0  0  0
 15 14  1  0  0  0  0
 15  1  1  0  0  0  0
 16 15  2  0  0  0  0
 17 18  2  0  0  0  0
 17 16  1  0  0  0  0
 18 13  1  0  0  0  0
M  END
>  <CHROM.1>
179.85350798,66.38755368,101.97861635,-9.90013148,-9.09493442,16.06758266
2.09646536,2.54398311,0.18082489,2.29728916

>  <Name>
lig.pdb

>  <RI>
0

>  <Rbt.Current_Directory>
/home/itssahil/PROJECTS/Mol_Feturizer/New_Systems/rnas/4nyg

>  <Rbt.Executable>
rbdock ($Id: //depot/dev/client3/rdock/2013.1/src/exe/rbdock.cxx#4 $)

>  <Rbt.Library>
libRbt.so (2013.1, Build901 2013/11/27)

>  <Rbt.Parameter_File>
/export/apps/rDock/src/rDock_2013.1_src/data/scripts/dock_solv.prm

>  <Rbt.Receptor>
prm/blind_docking_80.prm

>  <SCORE>
-17.2329

>  <SCORE.INTER>
-17.7954

>  <SCORE.INTER.CONST>
1

>  <SCORE.INTER.POLAR>
0

>  <SCORE.INTER.ROT>
4

>  <SCORE.INTER.SOLV>
13.4636

>  <SCORE.INTER.VDW>
-22.6181

>  <SCORE.INTER.norm>
-0.988631

>  <SCORE.INTRA>
0.56242

>  <SCORE.INTRA.DIHEDRAL>
0.0421156

>  <SCORE.INTRA.DIHEDRAL.0>
3.20029

>  <SCORE.INTRA.POLAR>
0

>  <SCORE.INTRA.POLAR.0>
0

>  <SCORE.INTRA.REPUL>
0

>  <SCORE.INTRA.REPUL.0>
0

>  <SCORE.INTRA.SOLV>
1.87058

>  <SCORE.INTRA.SOLV.lig_0>
-19.3885

>  <SCORE.INTRA.VDW>
-0.393926

>  <SCORE.INTRA.VDW.0>
-1.12705

>  <SCORE.INTRA.norm>
0.0312456

>  <SCORE.RESTR>
0

>  <SCORE.RESTR.CAVITY>
0

>  <SCORE.RESTR.norm>
0

>  <SCORE.SYSTEM>
0

>  <SCORE.SYSTEM.CONST>
0

>  <SCORE.SYSTEM.DIHEDRAL>
0

>  <SCORE.SYSTEM.SOLV>
0

>  <SCORE.SYSTEM.norm>
0

>  <SCORE.heavy>
18

>  <SCORE.norm>
-0.957385

>  <RMSD>
3.797

$$$$
lig.pdb
 OpenBabel11021811503D
libRbt.so/2013.1/901 2013/11/27
 18 19  0  0  0  0  0  0  0  0999 V2000
  -15.0543   15.9480    4.0221 C   0  0  0  0  0  0  0  0  0  0  0  0
  -11.6209   12.5804    3.3869 N   0  0  0  0  0  0  0  0  0  0  0  0
   -7.9777   14.8999   -0.0350 C   0  0  0  0  0  0  0  0  0  0  0  0
   -7.5158   18.7897   -0.5318 O   0  0  0  0  0  0  0  0  0  0  0  0
   -6.1899   18.6602   -0.0377 C   0  0  0  0  0  0  0  0  0  0  0  0
   -5.8767   17.1824    0.2669 C   0  0  0  0  0  0  0  0  0  0  0  0
   -8.4074   16.2659    3.4235 C   0  0  0  0  0  0  0  0  0  0  0  0
   -7.1117   17.3140    2.9473 S   0  0  0  0  0  0  0  0  0  0  0  0
   -6.8744   16.6992    1.2962 C   0  0  0  0  0  0  0  0  0  0  0  0
   -7.8253   15.7104    1.2412 C   0  0  0  0  0  0  0  0  0  0  0  0
   -8.5993   15.5082    2.3512 N   0  0  0  0  0  0  0  0  0  0  0  0
   -9.6800   14.4596    2.3739 C   0  0  0  0  0  0  0  0  0  0  0  0
  -12.0094   13.9159    3.2823 C   0  0  0  0  0  0  0  0  0  0  0  0
  -13.2687   14.2897    3.6650 N   0  0  0  0  0  0  0  0  0  0  0  0
  -13.6638   15.5625    3.5767 C   0  0  0  0  0  0  0  0  0  0  0  0
  -12.8362   16.5009    3.1080 N   0  0  0  0  0  0  0  0  0  0  0  0
  -11.5707   16.2054    2.7124 C   0  0  0  0  0  0  0  0  0  0  0  0
  -11.0965   14.8909    2.7870 C   0  0  0  0  0  0  0  0  0  0  0  0
  5  4  1  0  0  0  0
  5  6  1  0  0  0  0
  7  8  2  0  0  0  0
  7 11  1  0  0  0  0
  8  9  1  0  0  0  0
  9 10  2  0  0  0  0
  9  6  1  0  0  0  0
 10  3  1  0  0  0  0
 11 12  1  0  0  0  0
 11 10  1  0  0  0  0
 12 18  1  0  0  0  0
 13  2  1  0  0  0  0
 13 14  2  0  0  0  0
 15 14  1  0  0  0  0
 15  1  1  0  0  0  0
 16 15  2  0  0  0  0
 17 18  2  0  0  0  0
 17 16  1  0  0  0  0
 18 13  1  0  0  0  0
M  END
>  <CHROM.1>
-59.31437325,-61.31513628,51.99811711,-157.59367762,-9.63187450,15.99030743
2.22581037,2.72637544,-0.33014980,2.95706026

>  <Name>
lig.pdb

>  <RI>
0

>  <Rbt.Current_Directory>
/home/itssahil/PROJECTS/Mol_Feturizer/New_Systems/rnas/4nyg

>  <Rbt.Executable>
rbdock ($Id: //depot/dev/client3/rdock/2013.1/src/exe/rbdock.cxx#4 $)

>  <Rbt.Library>
libRbt.so (2013.1, Build901 2013/11/27)

>  <Rbt.Parameter_File>
/export/apps/rDock/src/rDock_2013.1_src/data/scripts/dock_solv.prm

>  <Rbt.Receptor>
prm/pocket_docking_6.prm

>  <SCORE>
-21.6694

>  <SCORE.INTER>
-21.5199

>  <SCORE.INTER.CONST>
1

>  <SCORE.INTER.POLAR>
0

>  <SCORE.INTER.ROT>
4

>  <SCORE.INTER.SOLV>
14.5629

>  <SCORE.INTER.VDW>
-25.4676

>  <SCORE.INTER.norm>
-1.19555

>  <SCORE.INTRA>
-0.149457

>  <SCORE.INTRA.DIHEDRAL>
-0.10016

>  <SCORE.INTRA.DIHEDRAL.0>
3.20029

>  <SCORE.INTRA.POLAR>
0

>  <SCORE.INTRA.POLAR.0>
0

>  <SCORE.INTRA.REPUL>
0

>  <SCORE.INTRA.REPUL.0>
0

>  <SCORE.INTRA.SOLV>
0.5172

>  <SCORE.INTRA.SOLV.lig_0>
-19.3885

>  <SCORE.INTRA.VDW>
-0.357977

>  <SCORE.INTRA.VDW.0>
-1.12705

>  <SCORE.INTRA.norm>
-0.00830315

>  <SCORE.RESTR>
0

>  <SCORE.RESTR.CAVITY>
0

>  <SCORE.RESTR.norm>
0

>  <SCORE.SYSTEM>
0

>  <SCORE.SYSTEM.CONST>
0

>  <SCORE.SYSTEM.DIHEDRAL>
0

>  <SCORE.SYSTEM.SOLV>
0

>  <SCORE.SYSTEM.norm>
0

>  <SCORE.heavy>
18

>  <SCORE.norm>
-1.20386

>  <RMSD>
3.799

$$$$
lig.pdb
 OpenBabel11021811503D
libRbt.so/2013.1/901 2013/11/27
 18 19  0  0  0  0  0  0  0  0999 V2000
  -15.0504   15.9649    4.0653 C   0  0  0  0  0  0  0  0  0  0  0  0
  -11.6112   12.6224    3.3358 N   0  0  0  0  0  0  0  0  0  0  0  0
   -7.9227   14.9433   -0.0205 C   0  0  0  0  0  0  0  0  0  0  0  0
   -7.4986   18.7815   -0.5809 O   0  0  0  0  0  0  0  0  0  0  0  0
   -6.1773   18.6978   -0.0648 C   0  0  0  0  0  0  0  0  0  0  0  0
   -5.8394   17.2394    0.3009 C   0  0  0  0  0  0  0  0  0  0  0  0
   -8.4436   16.3558    3.4067 C   0  0  0  0  0  0  0  0  0  0  0  0
   -7.1410   17.4030    2.9479 S   0  0  0  0  0  0  0  0  0  0  0  0
   -6.8603   16.7662    1.3120 C   0  0  0  0  0  0  0  0  0  0  0  0
   -7.8053   15.7723    1.2476 C   0  0  0  0  0  0  0  0  0  0  0  0
   -8.6057   15.5822    2.3408 N   0  0  0  0  0  0  0  0  0  0  0  0
   -9.6822   14.5291    2.3516 C   0  0  0  0  0  0  0  0  0  0  0  0
  -12.0043   13.9587    3.2626 C   0  0  0  0  0  0  0  0  0  0  0  0
  -13.2621   14.3202    3.6612 N   0  0  0  0  0  0  0  0  0  0  0  0
  -13.6616   15.5934    3.6029 C   0  0  0  0  0  0  0  0  0  0  0  0
  -12.8397   16.5443    3.1496 N   0  0  0  0  0  0  0  0  0  0  0  0
  -11.5759   16.2612    2.7397 C   0  0  0  0  0  0  0  0  0  0  0  0
  -11.0974   14.9470    2.7829 C   0  0  0  0  0  0  0  0  0  0  0  0
  5  4  1  0  0  0  0
  5  6  1  0  0  0  0
  7  8  2  0  0  0  0
  7 11  1  0  0  0  0
  8  9  1  0  0  0  0
  9 10  2  0  0  0  0
  9  6  1  0  0  0  0
 10  3  1  0  0  0  0
 11 12  1  0  0  0  0
 11 10  1  0  0  0  0
 12 18  1  0  0  0  0
 13  2  1  0  0  0  0
 13 14  2  0  0  0  0
 15 14  1  0  0  0  0
 15  1  1  0  0  0  0
 16 15  2  0  0  0  0
 17 18  2  0  0  0  0
 17 16  1  0  0  0  0
 18 13  1  0  0  0  0
M  END
>  <CHROM.1>
-58.06756368,-63.02719541,49.37707160,-157.78137012,-9.62832940,16.04211802
2.22576057,2.74085591,-0.35072558,3.00128379

>  <Name>
lig.pdb

>  <RI>
0

>  <Rbt.Current_Directory>
/home/itssahil/PROJECTS/Mol_Feturizer/New_Systems/rnas/4nyg

>  <Rbt.Executable>
rbdock ($Id: //depot/dev/client3/rdock/2013.1/src/exe/rbdock.cxx#4 $)

>  <Rbt.Library>
libRbt.so (2013.1, Build901 2013/11/27)

>  <Rbt.Parameter_File>
/export/apps/rDock/src/rDock_2013.1_src/data/scripts/dock_solv.prm

>  <Rbt.Receptor>
prm/pocket_docking_5.prm

>  <SCORE>
-21.6318

>  <SCORE.INTER>
-21.5516

>  <SCORE.INTER.CONST>
1

>  <SCORE.INTER.POLAR>
0

>  <SCORE.INTER.ROT>
4

>  <SCORE.INTER.SOLV>
14.5596

>  <SCORE.INTER.VDW>
-25.4876

>  <SCORE.INTER.norm>
-1.19731

>  <SCORE.INTRA>
-0.080248

>  <SCORE.INTRA.DIHEDRAL>
-0.0811199

>  <SCORE.INTRA.DIHEDRAL.0>
3.20029

>  <SCORE.INTRA.POLAR>
0

>  <SCORE.INTRA.POLAR.0>
0

>  <SCORE.INTRA.REPUL>
0

>  <SCORE.INTRA.REPUL.0>
0

>  <SCORE.INTRA.SOLV>
0.53987

>  <SCORE.INTRA.SOLV.lig_0>
-19.3885

>  <SCORE.INTRA.VDW>
-0.309623

>  <SCORE.INTRA.VDW.0>
-1.12705

>  <SCORE.INTRA.norm>
-0.00445822

>  <SCORE.RESTR>
0

>  <SCORE.RESTR.CAVITY>
0

>  <SCORE.RESTR.norm>
0

>  <SCORE.SYSTEM>
0

>  <SCORE.SYSTEM.CONST>
0

>  <SCORE.SYSTEM.DIHEDRAL>
0

>  <SCORE.SYSTEM.SOLV>
0

>  <SCORE.SYSTEM.norm>
0

>  <SCORE.heavy>
18

>  <SCORE.norm>
-1.20177

>  <RMSD>
3.802

$$$$
lig.pdb
 OpenBabel11021811503D
libRbt.so/2013.1/901 2013/11/27
 18 19  0  0  0  0  0  0  0  0999 V2000
  -14.8363   16.1991    3.8510 C   0  0  0  0  0  0  0  0  0  0  0  0
  -11.9560   12.3198    3.4180 N   0  0  0  0  0  0  0  0  0  0  0  0
   -7.8803   16.2464    3.0743 C   0  0  0  0  0  0  0  0  0  0  0  0
   -8.0368   18.7321    0.9511 O   0  0  0  0  0  0  0  0  0  0  0  0
   -7.0464   18.3317    0.0142 C   0  0  0  0  0  0  0  0  0  0  0  0
   -6.2769   17.1059    0.5434 C   0  0  0  0  0  0  0  0  0  0  0  0
   -8.8466   13.8544    0.3621 C   0  0  0  0  0  0  0  0  0  0  0  0
   -7.7494   14.8061   -0.5836 S   0  0  0  0  0  0  0  0  0  0  0  0
   -7.2589   15.9627    0.6743 C   0  0  0  0  0  0  0  0  0  0  0  0
   -7.9980   15.5217    1.7439 C   0  0  0  0  0  0  0  0  0  0  0  0
   -8.8079   14.4353    1.5544 N   0  0  0  0  0  0  0  0  0  0  0  0
   -9.6387   13.8707    2.6765 C   0  0  0  0  0  0  0  0  0  0  0  0
  -12.1069   13.7036    3.3303 C   0  0  0  0  0  0  0  0  0  0  0  0
  -13.3202   14.2740    3.6030 N   0  0  0  0  0  0  0  0  0  0  0  0
  -13.4896   15.5967    3.5282 C   0  0  0  0  0  0  0  0  0  0  0  0
  -12.4752   16.3940    3.1811 N   0  0  0  0  0  0  0  0  0  0  0  0
  -11.2416   15.9001    2.8993 C   0  0  0  0  0  0  0  0  0  0  0  0
  -11.0001   14.5234    2.9665 C   0  0  0  0  0  0  0  0  0  0  0  0
  5  4  1  0  0  0  0
  5  6  1  0  0  0  0
  7  8  2  0  0  0  0
  7 11  1  0  0  0  0
  8  9  1  0  0  0  0
  9 10  2  0  0  0  0
  9  6  1  0  0  0  0
 10  3  1  0  0  0  0
 11 12  1  0  0  0  0
 11 10  1  0  0  0  0
 12 18  1  0  0  0  0
 13  2  1  0  0  0  0
 13 14  2  0  0  0  0
 15 14  1  0  0  0  0
 15  1  1  0  0  0  0
 16 15  2  0  0  0  0
 17 18  2  0  0  0  0
 17 16  1  0  0  0  0
 18 13  1  0  0  0  0
M  END
>  <CHROM.1>
63.20195926,86.18611001,-97.43758933,141.74345170,-9.82405071,15.43878349
1.90667722,2.92228466,-0.51267304,-3.08351697

>  <Name>
lig.pdb

>  <RI>
0

>  <Rbt.Current_Directory>
/home/itssahil/PROJECTS/Mol_Feturizer/New_Systems/rnas/4nyg

>  <Rbt.Executable>
rbdock ($Id: //depot/dev/client3/rdock/2013.1/src/exe/rbdock.cxx#4 $)

>  <Rbt.Library>
libRbt.so (2013.1, Build901 2013/11/27)

>  <Rbt.Parameter_File>
/export/apps/rDock/src/rDock_2013.1_src/data/scripts/dock_solv.prm

>  <Rbt.Receptor>
prm/pocket_docking_8.prm

>  <SCORE>
-21.1185

>  <SCORE.INTER>
-21.1919

>  <SCORE.INTER.CONST>
1

>  <SCORE.INTER.POLAR>
0

>  <SCORE.INTER.ROT>
4

>  <SCORE.INTER.SOLV>
15.4904

>  <SCORE.INTER.VDW>
-25.5581

>  <SCORE.INTER.norm>
-1.17733

>  <SCORE.INTRA>
0.0733638

>  <SCORE.INTRA.DIHEDRAL>
0.965103

>  <SCORE.INTRA.DIHEDRAL.0>
3.20029

>  <SCORE.INTRA.POLAR>
0

>  <SCORE.INTRA.POLAR.0>
0

>  <SCORE.INTRA.REPUL>
0

>  <SCORE.INTRA.REPUL.0>
0

>  <SCORE.INTRA.SOLV>
0.62741

>  <SCORE.INTRA.SOLV.lig_0>
-19.3885

>  <SCORE.INTRA.VDW>
-0.722892

>  <SCORE.INTRA.VDW.0>
-1.12705

>  <SCORE.INTRA.norm>
0.00407577

>  <SCORE.RESTR>
0

>  <SCORE.RESTR.CAVITY>
0

>  <SCORE.RESTR.norm>
0

>  <SCORE.SYSTEM>
0

>  <SCORE.SYSTEM.CONST>
0

>  <SCORE.SYSTEM.DIHEDRAL>
0

>  <SCORE.SYSTEM.SOLV>
0

>  <SCORE.SYSTEM.norm>
0

>  <SCORE.heavy>
18

>  <SCORE.norm>
-1.17325

>  <RMSD>
3.803

$$$$
lig.pdb
 OpenBabel11021811503D
libRbt.so/2013.1/901 2013/11/27
 18 19  0  0  0  0  0  0  0  0999 V2000
  -15.1552   15.7945    4.0457 C   0  0  0  0  0  0  0  0  0  0  0  0
  -11.3938   12.8654    3.1487 N   0  0  0  0  0  0  0  0  0  0  0  0
   -8.8842   16.2437   -0.1953 C   0  0  0  0  0  0  0  0  0  0  0  0
   -4.7791   18.3259    0.9210 O   0  0  0  0  0  0  0  0  0  0  0  0
   -5.5568   18.2588   -0.2663 C   0  0  0  0  0  0  0  0  0  0  0  0
   -7.0005   18.7181    0.0156 C   0  0  0  0  0  0  0  0  0  0  0  0
   -8.2230   16.7464    3.4546 C   0  0  0  0  0  0  0  0  0  0  0  0
   -7.2570   18.0684    2.8860 S   0  0  0  0  0  0  0  0  0  0  0  0
   -7.5456   17.8696    1.1431 C   0  0  0  0  0  0  0  0  0  0  0  0
   -8.3739   16.7748    1.1338 C   0  0  0  0  0  0  0  0  0  0  0  0
   -8.7051   16.2160    2.3380 N   0  0  0  0  0  0  0  0  0  0  0  0
   -9.6237   15.0257    2.4246 C   0  0  0  0  0  0  0  0  0  0  0  0
  -11.9091   14.1610    3.1841 C   0  0  0  0  0  0  0  0  0  0  0  0
  -13.2075   14.3663    3.5633 N   0  0  0  0  0  0  0  0  0  0  0  0
  -13.7235   15.5974    3.6074 C   0  0  0  0  0  0  0  0  0  0  0  0
  -12.9814   16.6585    3.2778 N   0  0  0  0  0  0  0  0  0  0  0  0
  -11.6842   16.5326    2.8949 C   0  0  0  0  0  0  0  0  0  0  0  0
  -11.0851   15.2694    2.8352 C   0  0  0  0  0  0  0  0  0  0  0  0
  5  4  1  0  0  0  0
  5  6  1  0  0  0  0
  7  8  2  0  0  0  0
  7 11  1  0  0  0  0
  8  9  1  0  0  0  0
  9 10  2  0  0  0  0
  9  6  1  0  0  0  0
 10  3  1  0  0  0  0
 11 12  1  0  0  0  0
 11 10  1  0  0  0  0
 12 18  1  0  0  0  0
 13  2  1  0  0  0  0
 13 14  2  0  0  0  0
 15 14  1  0  0  0  0
 15  1  1  0  0  0  0
 16 15  2  0  0  0  0
 17 18  2  0  0  0  0
 17 16  1  0  0  0  0
 18 13  1  0  0  0  0
M  END
>  <CHROM.1>
-55.54932157,80.35790721,77.04184977,-167.63846628,-9.61163674,16.45142157
2.26415291,2.82423646,-0.42254372,-2.94018691

>  <Name>
lig.pdb

>  <RI>
0

>  <Rbt.Current_Directory>
/home/itssahil/PROJECTS/Mol_Feturizer/New_Systems/rnas/4nyg

>  <Rbt.Executable>
rbdock ($Id: //depot/dev/client3/rdock/2013.1/src/exe/rbdock.cxx#4 $)

>  <Rbt.Library>
libRbt.so (2013.1, Build901 2013/11/27)

>  <Rbt.Parameter_File>
/export/apps/rDock/src/rDock_2013.1_src/data/scripts/dock_solv.prm

>  <Rbt.Receptor>
prm/pocket_docking_4.prm

>  <SCORE>
-21.9625

>  <SCORE.INTER>
-21.9533

>  <SCORE.INTER.CONST>
1

>  <SCORE.INTER.POLAR>
0

>  <SCORE.INTER.ROT>
4

>  <SCORE.INTER.SOLV>
15.2065

>  <SCORE.INTER.VDW>
-25.971

>  <SCORE.INTER.norm>
-1.21963

>  <SCORE.INTRA>
-0.00924141

>  <SCORE.INTRA.DIHEDRAL>
0.730445

>  <SCORE.INTRA.DIHEDRAL.0>
3.20029

>  <SCORE.INTRA.POLAR>
0

>  <SCORE.INTRA.POLAR.0>
0

>  <SCORE.INTRA.REPUL>
0

>  <SCORE.INTRA.REPUL.0>
0

>  <SCORE.INTRA.SOLV>
0.446904

>  <SCORE.INTRA.SOLV.lig_0>
-19.3885

>  <SCORE.INTRA.VDW>
-0.597916

>  <SCORE.INTRA.VDW.0>
-1.12705

>  <SCORE.INTRA.norm>
-0.000513411

>  <SCORE.RESTR>
0

>  <SCORE.RESTR.CAVITY>
0

>  <SCORE.RESTR.norm>
0

>  <SCORE.SYSTEM>
0

>  <SCORE.SYSTEM.CONST>
0

>  <SCORE.SYSTEM.DIHEDRAL>
0

>  <SCORE.SYSTEM.SOLV>
0

>  <SCORE.SYSTEM.norm>
0

>  <SCORE.heavy>
18

>  <SCORE.norm>
-1.22014

>  <RMSD>
3.811

$$$$
lig.pdb
 OpenBabel11021811503D
libRbt.so/2013.1/901 2013/11/27
 18 19  0  0  0  0  0  0  0  0999 V2000
  -15.0689   15.9526    4.0508 C   0  0  0  0  0  0  0  0  0  0  0  0
  -11.6614   12.5770    3.3251 N   0  0  0  0  0  0  0  0  0  0  0  0
   -7.9881   14.9126   -0.0486 C   0  0  0  0  0  0  0  0  0  0  0  0
   -7.5235   18.7589   -0.5450 O   0  0  0  0  0  0  0  0  0  0  0  0
   -6.2008   18.6495   -0.0373 C   0  0  0  0  0  0  0  0  0  0  0  0
   -5.8749   17.1789    0.2884 C   0  0  0  0  0  0  0  0  0  0  0  0
   -8.4376   16.2546    3.4167 C   0  0  0  0  0  0  0  0  0  0  0  0
   -7.1313   17.2979    2.9594 S   0  0  0  0  0  0  0  0  0  0  0  0
   -6.8842   16.6943    1.3056 C   0  0  0  0  0  0  0  0  0  0  0  0
   -7.8410   15.7122    1.2351 C   0  0  0  0  0  0  0  0  0  0  0  0
   -8.6255   15.5065    2.3371 N   0  0  0  0  0  0  0  0  0  0  0  0
   -9.7131   14.4648    2.3427 C   0  0  0  0  0  0  0  0  0  0  0  0
  -12.0415   13.9170    3.2513 C   0  0  0  0  0  0  0  0  0  0  0  0
  -13.2962   14.2907    3.6486 N   0  0  0  0  0  0  0  0  0  0  0  0
  -13.6833   15.5677    3.5898 C   0  0  0  0  0  0  0  0  0  0  0  0
  -12.8518   16.5105    3.1372 N   0  0  0  0  0  0  0  0  0  0  0  0
  -11.5904   16.2152    2.7287 C   0  0  0  0  0  0  0  0  0  0  0  0
  -11.1246   14.8964    2.7725 C   0  0  0  0  0  0  0  0  0  0  0  0
  5  4  1  0  0  0  0
  5  6  1  0  0  0  0
  7  8  2  0  0  0  0
  7 11  1  0  0  0  0
  8  9  1  0  0  0  0
  9 10  2  0  0  0  0
  9  6  1  0  0  0  0
 10  3  1  0  0  0  0
 11 12  1  0  0  0  0
 11 10  1  0  0  0  0
 12 18  1  0  0  0  0
 13  2  1  0  0  0  0
 13 14  2  0  0  0  0
 15 14  1  0  0  0  0
 15  1  1  0  0  0  0
 16 15  2  0  0  0  0
 17 18  2  0  0  0  0
 17 16  1  0  0  0  0
 18 13  1  0  0  0  0
M  END
>  <CHROM.1>
-58.83108649,-62.89940403,50.88997268,-157.59069398,-9.65159142,15.98756864
2.22263004,2.73918336,-0.34117591,2.98549559

>  <Name>
lig.pdb

>  <RI>
0

>  <Rbt.Current_Directory>
/home/itssahil/PROJECTS/Mol_Feturizer/New_Systems/rnas/4nyg

>  <Rbt.Executable>
rbdock ($Id: //depot/dev/client3/rdock/2013.1/src/exe/rbdock.cxx#4 $)

>  <Rbt.Library>
libRbt.so (2013.1, Build901 2013/11/27)

>  <Rbt.Parameter_File>
/export/apps/rDock/src/rDock_2013.1_src/data/scripts/dock_solv.prm

>  <Rbt.Receptor>
prm/pocket_docking_6.prm

>  <SCORE>
-21.6609

>  <SCORE.INTER>
-21.5356

>  <SCORE.INTER.CONST>
1

>  <SCORE.INTER.POLAR>
0

>  <SCORE.INTER.ROT>
4

>  <SCORE.INTER.SOLV>
14.5378

>  <SCORE.INTER.VDW>
-25.4696

>  <SCORE.INTER.norm>
-1.19642

>  <SCORE.INTRA>
-0.125361

>  <SCORE.INTRA.DIHEDRAL>
-0.0869614

>  <SCORE.INTRA.DIHEDRAL.0>
3.20029

>  <SCORE.INTRA.POLAR>
0

>  <SCORE.INTRA.POLAR.0>
0

>  <SCORE.INTRA.REPUL>
0

>  <SCORE.INTRA.REPUL.0>
0

>  <SCORE.INTRA.SOLV>
0.529674

>  <SCORE.INTRA.SOLV.lig_0>
-19.3885

>  <SCORE.INTRA.VDW>
-0.346717

>  <SCORE.INTRA.VDW.0>
-1.12705

>  <SCORE.INTRA.norm>
-0.00696449

>  <SCORE.RESTR>
0

>  <SCORE.RESTR.CAVITY>
0

>  <SCORE.RESTR.norm>
0

>  <SCORE.SYSTEM>
0

>  <SCORE.SYSTEM.CONST>
0

>  <SCORE.SYSTEM.DIHEDRAL>
0

>  <SCORE.SYSTEM.SOLV>
0

>  <SCORE.SYSTEM.norm>
0

>  <SCORE.heavy>
18

>  <SCORE.norm>
-1.20338

>  <RMSD>
3.813

$$$$
lig.pdb
 OpenBabel11021811503D
libRbt.so/2013.1/901 2013/11/27
 18 19  0  0  0  0  0  0  0  0999 V2000
  -14.8264   15.1404    3.7839 C   0  0  0  0  0  0  0  0  0  0  0  0
  -10.7212   12.7597    2.7778 N   0  0  0  0  0  0  0  0  0  0  0  0
   -8.8010   16.2642   -0.1738 C   0  0  0  0  0  0  0  0  0  0  0  0
   -5.3171   17.6798   -0.5500 O   0  0  0  0  0  0  0  0  0  0  0  0
   -5.8049   19.0127   -0.4850 C   0  0  0  0  0  0  0  0  0  0  0  0
   -7.3343   19.0118   -0.2958 C   0  0  0  0  0  0  0  0  0  0  0  0
   -7.9634   17.1603    3.3627 C   0  0  0  0  0  0  0  0  0  0  0  0
   -7.2698   18.5664    2.6240 S   0  0  0  0  0  0  0  0  0  0  0  0
   -7.6497   18.1833    0.9300 C   0  0  0  0  0  0  0  0  0  0  0  0
   -8.2875   16.9752    1.0670 C   0  0  0  0  0  0  0  0  0  0  0  0
   -8.4338   16.4716    2.3307 N   0  0  0  0  0  0  0  0  0  0  0  0
   -9.1378   15.1633    2.5774 C   0  0  0  0  0  0  0  0  0  0  0  0
  -11.3708   13.9783    2.9736 C   0  0  0  0  0  0  0  0  0  0  0  0
  -12.7086   13.9976    3.2595 N   0  0  0  0  0  0  0  0  0  0  0  0
  -13.3528   15.1513    3.4535 C   0  0  0  0  0  0  0  0  0  0  0  0
  -12.7033   16.3159    3.3690 N   0  0  0  0  0  0  0  0  0  0  0  0
  -11.3747   16.3751    3.0921 C   0  0  0  0  0  0  0  0  0  0  0  0
  -10.6436   15.2001    2.8853 C   0  0  0  0  0  0  0  0  0  0  0  0
  5  4  1  0  0  0  0
  5  6  1  0  0  0  0
  7  8  2  0  0  0  0
  7 11  1  0  0  0  0
  8  9  1  0  0  0  0
  9 10  2  0  0  0  0
  9  6  1  0  0  0  0
 10  3  1  0  0  0  0
 11 12  1  0  0  0  0
 11 10  1  0  0  0  0
 12 18  1  0  0  0  0
 13  2  1  0  0  0  0
 13 14  2  0  0  0  0
 15 14  1  0  0  0  0
 15  1  1  0  0  0  0
 16 15  2  0  0  0  0
 17 18  2  0  0  0  0
 17 16  1  0  0  0  0
 18 13  1  0  0  0  0
M  END
>  <CHROM.1>
55.08355560,68.03826173,86.21092694,172.92423220,-9.44638885,16.47425243
2.05494529,2.80844514,-0.55494840,-2.81691384

>  <Name>
lig.pdb

>  <RI>
0

>  <Rbt.Current_Directory>
/home/itssahil/PROJECTS/Mol_Feturizer/New_Systems/rnas/4nyg

>  <Rbt.Executable>
rbdock ($Id: //depot/dev/client3/rdock/2013.1/src/exe/rbdock.cxx#4 $)

>  <Rbt.Library>
libRbt.so (2013.1, Build901 2013/11/27)

>  <Rbt.Parameter_File>
/export/apps/rDock/src/rDock_2013.1_src/data/scripts/dock_solv.prm

>  <Rbt.Receptor>
prm/pocket_docking_7.prm

>  <SCORE>
-23.5025

>  <SCORE.INTER>
-23.1772

>  <SCORE.INTER.CONST>
1

>  <SCORE.INTER.POLAR>
0

>  <SCORE.INTER.ROT>
4

>  <SCORE.INTER.SOLV>
14.6456

>  <SCORE.INTER.VDW>
-26.6

>  <SCORE.INTER.norm>
-1.28762

>  <SCORE.INTRA>
-0.325333

>  <SCORE.INTRA.DIHEDRAL>
0.188185

>  <SCORE.INTRA.DIHEDRAL.0>
3.20029

>  <SCORE.INTRA.POLAR>
0

>  <SCORE.INTRA.POLAR.0>
0

>  <SCORE.INTRA.REPUL>
0

>  <SCORE.INTRA.REPUL.0>
0

>  <SCORE.INTRA.SOLV>
0.54341

>  <SCORE.INTRA.SOLV.lig_0>
-19.3885

>  <SCORE.INTRA.VDW>
-0.69113

>  <SCORE.INTRA.VDW.0>
-1.12705

>  <SCORE.INTRA.norm>
-0.018074

>  <SCORE.RESTR>
0

>  <SCORE.RESTR.CAVITY>
0

>  <SCORE.RESTR.norm>
0

>  <SCORE.SYSTEM>
0

>  <SCORE.SYSTEM.CONST>
0

>  <SCORE.SYSTEM.DIHEDRAL>
0

>  <SCORE.SYSTEM.SOLV>
0

>  <SCORE.SYSTEM.norm>
0

>  <SCORE.heavy>
18

>  <SCORE.norm>
-1.3057

>  <RMSD>
3.817

$$$$
lig.pdb
 OpenBabel11021811503D
libRbt.so/2013.1/901 2013/11/27
 18 19  0  0  0  0  0  0  0  0999 V2000
  -15.2489   15.9575    4.1429 C   0  0  0  0  0  0  0  0  0  0  0  0
  -11.5882   12.9242    3.1778 N   0  0  0  0  0  0  0  0  0  0  0  0
   -8.8161   16.1545   -0.1198 C   0  0  0  0  0  0  0  0  0  0  0  0
   -4.6990   18.1286    1.1248 O   0  0  0  0  0  0  0  0  0  0  0  0
   -5.4491   18.0326   -0.0781 C   0  0  0  0  0  0  0  0  0  0  0  0
   -6.8739   18.5788    0.1373 C   0  0  0  0  0  0  0  0  0  0  0  0
   -8.3651   16.7485    3.5483 C   0  0  0  0  0  0  0  0  0  0  0  0
   -7.3260   18.0243    3.0036 S   0  0  0  0  0  0  0  0  0  0  0  0
   -7.5130   17.7810    1.2525 C   0  0  0  0  0  0  0  0  0  0  0  0
   -8.3724   16.7107    1.2228 C   0  0  0  0  0  0  0  0  0  0  0  0
   -8.7938   16.1985    2.4195 N   0  0  0  0  0  0  0  0  0  0  0  0
   -9.7521   15.0384    2.4826 C   0  0  0  0  0  0  0  0  0  0  0  0
  -12.0610   14.2350    3.2379 C   0  0  0  0  0  0  0  0  0  0  0  0
  -13.3505   14.4756    3.6268 N   0  0  0  0  0  0  0  0  0  0  0  0
  -13.8262   15.7218    3.6945 C   0  0  0  0  0  0  0  0  0  0  0  0
  -13.0514   16.7639    3.3797 N   0  0  0  0  0  0  0  0  0  0  0  0
  -11.7606   16.6028    2.9885 C   0  0  0  0  0  0  0  0  0  0  0  0
  -11.2030   15.3221    2.9042 C   0  0  0  0  0  0  0  0  0  0  0  0
  5  4  1  0  0  0  0
  5  6  1  0  0  0  0
  7  8  2  0  0  0  0
  7 11  1  0  0  0  0
  8  9  1  0  0  0  0
  9 10  2  0  0  0  0
  9  6  1  0  0  0  0
 10  3  1  0  0  0  0
 11 12  1  0  0  0  0
 11 10  1  0  0  0  0
 12 18  1  0  0  0  0
 13  2  1  0  0  0  0
 13 14  2  0  0  0  0
 15 14  1  0  0  0  0
 15  1  1  0  0  0  0
 16 15  2  0  0  0  0
 17 18  2  0  0  0  0
 17 16  1  0  0  0  0
 18 13  1  0  0  0  0
M  END
>  <CHROM.1>
-58.12906819,82.53808240,72.24394517,-167.30853343,-9.66380635,16.44111138
2.36324095,2.91467045,-0.43418345,-2.80082649

>  <Name>
lig.pdb

>  <RI>
0

>  <Rbt.Current_Directory>
/home/itssahil/PROJECTS/Mol_Feturizer/New_Systems/rnas/4nyg

>  <Rbt.Executable>
rbdock ($Id: //depot/dev/client3/rdock/2013.1/src/exe/rbdock.cxx#4 $)

>  <Rbt.Library>
libRbt.so (2013.1, Build901 2013/11/27)

>  <Rbt.Parameter_File>
/export/apps/rDock/src/rDock_2013.1_src/data/scripts/dock_solv.prm

>  <Rbt.Receptor>
prm/pocket_docking_8.prm

>  <SCORE>
-21.8415

>  <SCORE.INTER>
-21.8534

>  <SCORE.INTER.CONST>
1

>  <SCORE.INTER.POLAR>
0

>  <SCORE.INTER.ROT>
4

>  <SCORE.INTER.SOLV>
15.3382

>  <SCORE.INTER.VDW>
-25.9483

>  <SCORE.INTER.norm>
-1.21408

>  <SCORE.INTRA>
0.011914

>  <SCORE.INTRA.DIHEDRAL>
0.795375

>  <SCORE.INTRA.DIHEDRAL.0>
3.20029

>  <SCORE.INTRA.POLAR>
0

>  <SCORE.INTRA.POLAR.0>
0

>  <SCORE.INTRA.REPUL>
0

>  <SCORE.INTRA.REPUL.0>
0

>  <SCORE.INTRA.SOLV>
0.429708

>  <SCORE.INTRA.SOLV.lig_0>
-19.3885

>  <SCORE.INTRA.VDW>
-0.600627

>  <SCORE.INTRA.VDW.0>
-1.12705

>  <SCORE.INTRA.norm>
0.000661886

>  <SCORE.RESTR>
0

>  <SCORE.RESTR.CAVITY>
0

>  <SCORE.RESTR.norm>
0

>  <SCORE.SYSTEM>
0

>  <SCORE.SYSTEM.CONST>
0

>  <SCORE.SYSTEM.DIHEDRAL>
0

>  <SCORE.SYSTEM.SOLV>
0

>  <SCORE.SYSTEM.norm>
0

>  <SCORE.heavy>
18

>  <SCORE.norm>
-1.21341

>  <RMSD>
3.823

$$$$
lig.pdb
 OpenBabel11021811503D
libRbt.so/2013.1/901 2013/11/27
 18 19  0  0  0  0  0  0  0  0999 V2000
  -15.0381   15.9619    4.0054 C   0  0  0  0  0  0  0  0  0  0  0  0
  -11.6424   12.5512    3.3984 N   0  0  0  0  0  0  0  0  0  0  0  0
   -8.0869   14.9713   -0.0677 C   0  0  0  0  0  0  0  0  0  0  0  0
   -7.6627   18.7296   -0.5135 O   0  0  0  0  0  0  0  0  0  0  0  0
   -6.3286   18.6657   -0.0287 C   0  0  0  0  0  0  0  0  0  0  0  0
   -5.9378   17.2042    0.2650 C   0  0  0  0  0  0  0  0  0  0  0  0
   -8.3202   16.1262    3.4853 C   0  0  0  0  0  0  0  0  0  0  0  0
   -7.0339   17.1853    3.0082 S   0  0  0  0  0  0  0  0  0  0  0  0
   -6.8898   16.6708    1.3126 C   0  0  0  0  0  0  0  0  0  0  0  0
   -7.8576   15.6994    1.2462 C   0  0  0  0  0  0  0  0  0  0  0  0
   -8.5777   15.4387    2.3800 N   0  0  0  0  0  0  0  0  0  0  0  0
   -9.6722   14.4043    2.3939 C   0  0  0  0  0  0  0  0  0  0  0  0
  -12.0139   13.8911    3.2888 C   0  0  0  0  0  0  0  0  0  0  0  0
  -13.2708   14.2812    3.6628 N   0  0  0  0  0  0  0  0  0  0  0  0
  -13.6497   15.5585    3.5695 C   0  0  0  0  0  0  0  0  0  0  0  0
  -12.8077   16.4857    3.1042 N   0  0  0  0  0  0  0  0  0  0  0  0
  -11.5435   16.1738    2.7171 C   0  0  0  0  0  0  0  0  0  0  0  0
  -11.0860   14.8538    2.7973 C   0  0  0  0  0  0  0  0  0  0  0  0
  5  4  1  0  0  0  0
  5  6  1  0  0  0  0
  7  8  2  0  0  0  0
  7 11  1  0  0  0  0
  8  9  1  0  0  0  0
  9 10  2  0  0  0  0
  9  6  1  0  0  0  0
 10  3  1  0  0  0  0
 11 12  1  0  0  0  0
 11 10  1  0  0  0  0
 12 18  1  0  0  0  0
 13  2  1  0  0  0  0
 13 14  2  0  0  0  0
 15 14  1  0  0  0  0
 15  1  1  0  0  0  0
 16 15  2  0  0  0  0
 17 18  2  0  0  0  0
 17 16  1  0  0  0  0
 18 13  1  0  0  0  0
M  END
>  <CHROM.1>
-60.13084256,-66.55163741,56.80980332,-157.41329429,-9.64109158,15.95443760
2.23954936,2.69765381,-0.28533094,2.85987799

>  <Name>
lig.pdb

>  <RI>
0

>  <Rbt.Current_Directory>
/home/itssahil/PROJECTS/Mol_Feturizer/New_Systems/rnas/4nyg

>  <Rbt.Executable>
rbdock ($Id: //depot/dev/client3/rdock/2013.1/src/exe/rbdock.cxx#4 $)

>  <Rbt.Library>
libRbt.so (2013.1, Build901 2013/11/27)

>  <Rbt.Parameter_File>
/export/apps/rDock/src/rDock_2013.1_src/data/scripts/dock_solv.prm

>  <Rbt.Receptor>
prm/blind_docking_40.prm

>  <SCORE>
-21.6425

>  <SCORE.INTER>
-21.412

>  <SCORE.INTER.CONST>
1

>  <SCORE.INTER.POLAR>
0

>  <SCORE.INTER.ROT>
4

>  <SCORE.INTER.SOLV>
14.617

>  <SCORE.INTER.VDW>
-25.4137

>  <SCORE.INTER.norm>
-1.18956

>  <SCORE.INTRA>
-0.230492

>  <SCORE.INTRA.DIHEDRAL>
-0.00754554

>  <SCORE.INTRA.DIHEDRAL.0>
3.20029

>  <SCORE.INTRA.POLAR>
0

>  <SCORE.INTRA.POLAR.0>
0

>  <SCORE.INTRA.REPUL>
0

>  <SCORE.INTRA.REPUL.0>
0

>  <SCORE.INTRA.SOLV>
0.517312

>  <SCORE.INTRA.SOLV.lig_0>
-19.3885

>  <SCORE.INTRA.VDW>
-0.485375

>  <SCORE.INTRA.VDW.0>
-1.12705

>  <SCORE.INTRA.norm>
-0.0128051

>  <SCORE.RESTR>
0

>  <SCORE.RESTR.CAVITY>
0

>  <SCORE.RESTR.norm>
0

>  <SCORE.SYSTEM>
0

>  <SCORE.SYSTEM.CONST>
0

>  <SCORE.SYSTEM.DIHEDRAL>
0

>  <SCORE.SYSTEM.SOLV>
0

>  <SCORE.SYSTEM.norm>
0

>  <SCORE.heavy>
18

>  <SCORE.norm>
-1.20236

>  <RMSD>
3.826

$$$$
lig.pdb
 OpenBabel11021811503D
libRbt.so/2013.1/901 2013/11/27
 18 19  0  0  0  0  0  0  0  0999 V2000
  -15.0645   15.9800    4.0393 C   0  0  0  0  0  0  0  0  0  0  0  0
  -11.6681   12.5929    3.3159 N   0  0  0  0  0  0  0  0  0  0  0  0
   -8.0136   14.9414   -0.0466 C   0  0  0  0  0  0  0  0  0  0  0  0
   -7.5752   18.7613   -0.5587 O   0  0  0  0  0  0  0  0  0  0  0  0
   -6.2467   18.6728   -0.0624 C   0  0  0  0  0  0  0  0  0  0  0  0
   -5.8982   17.2088    0.2694 C   0  0  0  0  0  0  0  0  0  0  0  0
   -8.4108   16.2647    3.4323 C   0  0  0  0  0  0  0  0  0  0  0  0
   -7.1131   17.3121    2.9602 S   0  0  0  0  0  0  0  0  0  0  0  0
   -6.8910   16.7175    1.2996 C   0  0  0  0  0  0  0  0  0  0  0  0
   -7.8475   15.7345    1.2389 C   0  0  0  0  0  0  0  0  0  0  0  0
   -8.6145   15.5220    2.3518 N   0  0  0  0  0  0  0  0  0  0  0  0
   -9.7006   14.4788    2.3688 C   0  0  0  0  0  0  0  0  0  0  0  0
  -12.0404   13.9354    3.2505 C   0  0  0  0  0  0  0  0  0  0  0  0
  -13.2968   14.3123    3.6392 N   0  0  0  0  0  0  0  0  0  0  0  0
  -13.6766   15.5918    3.5881 C   0  0  0  0  0  0  0  0  0  0  0  0
  -12.8359   16.5342    3.1518 N   0  0  0  0  0  0  0  0  0  0  0  0
  -11.5723   16.2358    2.7526 C   0  0  0  0  0  0  0  0  0  0  0  0
  -11.1139   14.9142    2.7890 C   0  0  0  0  0  0  0  0  0  0  0  0
  5  4  1  0  0  0  0
  5  6  1  0  0  0  0
  7  8  2  0  0  0  0
  7 11  1  0  0  0  0
  8  9  1  0  0  0  0
  9 10  2  0  0  0  0
  9  6  1  0  0  0  0
 10  3  1  0  0  0  0
 11 12  1  0  0  0  0
 11 10  1  0  0  0  0
 12 18  1  0  0  0  0
 13  2  1  0  0  0  0
 13 14  2  0  0  0  0
 15 14  1  0  0  0  0
 15  1  1  0  0  0  0
 16 15  2  0  0  0  0
 17 18  2  0  0  0  0
 17 16  1  0  0  0  0
 18 13  1  0  0  0  0
M  END
>  <CHROM.1>
-58.88182167,-63.90798174,52.38948858,-158.99371063,-9.65325062,16.00673674
2.22345653,2.73200211,-0.33487357,2.96644588

>  <Name>
lig.pdb

>  <RI>
0

>  <Rbt.Current_Directory>
/home/itssahil/PROJECTS/Mol_Feturizer/New_Systems/rnas/4nyg

>  <Rbt.Executable>
rbdock ($Id: //depot/dev/client3/rdock/2013.1/src/exe/rbdock.cxx#4 $)

>  <Rbt.Library>
libRbt.so (2013.1, Build901 2013/11/27)

>  <Rbt.Parameter_File>
/export/apps/rDock/src/rDock_2013.1_src/data/scripts/dock_solv.prm

>  <Rbt.Receptor>
prm/blind_docking_40.prm

>  <SCORE>
-21.6529

>  <SCORE.INTER>
-21.5127

>  <SCORE.INTER.CONST>
1

>  <SCORE.INTER.POLAR>
0

>  <SCORE.INTER.ROT>
4

>  <SCORE.INTER.SOLV>
14.5824

>  <SCORE.INTER.VDW>
-25.4693

>  <SCORE.INTER.norm>
-1.19515

>  <SCORE.INTRA>
-0.14019

>  <SCORE.INTRA.DIHEDRAL>
-0.0694353

>  <SCORE.INTRA.DIHEDRAL.0>
3.20029

>  <SCORE.INTRA.POLAR>
0

>  <SCORE.INTRA.POLAR.0>
0

>  <SCORE.INTRA.REPUL>
0

>  <SCORE.INTRA.REPUL.0>
0

>  <SCORE.INTRA.SOLV>
0.531694

>  <SCORE.INTRA.SOLV.lig_0>
-19.3885

>  <SCORE.INTRA.VDW>
-0.371319

>  <SCORE.INTRA.VDW.0>
-1.12705

>  <SCORE.INTRA.norm>
-0.00778833

>  <SCORE.RESTR>
0

>  <SCORE.RESTR.CAVITY>
0

>  <SCORE.RESTR.norm>
0

>  <SCORE.SYSTEM>
0

>  <SCORE.SYSTEM.CONST>
0

>  <SCORE.SYSTEM.DIHEDRAL>
0

>  <SCORE.SYSTEM.SOLV>
0

>  <SCORE.SYSTEM.norm>
0

>  <SCORE.heavy>
18

>  <SCORE.norm>
-1.20294

>  <RMSD>
3.827

$$$$
lig.pdb
 OpenBabel11021811503D
libRbt.so/2013.1/901 2013/11/27
 18 19  0  0  0  0  0  0  0  0999 V2000
  -15.1863   15.8447    4.0747 C   0  0  0  0  0  0  0  0  0  0  0  0
  -11.4794   12.8909    3.0422 N   0  0  0  0  0  0  0  0  0  0  0  0
   -8.9098   16.2501   -0.1458 C   0  0  0  0  0  0  0  0  0  0  0  0
   -4.7998   18.3192    0.9565 O   0  0  0  0  0  0  0  0  0  0  0  0
   -5.5758   18.2554   -0.2322 C   0  0  0  0  0  0  0  0  0  0  0  0
   -7.0183   18.7199    0.0476 C   0  0  0  0  0  0  0  0  0  0  0  0
   -8.2427   16.7735    3.5002 C   0  0  0  0  0  0  0  0  0  0  0  0
   -7.2734   18.0889    2.9223 S   0  0  0  0  0  0  0  0  0  0  0  0
   -7.5646   17.8802    1.1810 C   0  0  0  0  0  0  0  0  0  0  0  0
   -8.3964   16.7879    1.1794 C   0  0  0  0  0  0  0  0  0  0  0  0
   -8.7278   16.2376    2.3875 N   0  0  0  0  0  0  0  0  0  0  0  0
   -9.6500   15.0507    2.4825 C   0  0  0  0  0  0  0  0  0  0  0  0
  -11.9656   14.1934    3.1538 C   0  0  0  0  0  0  0  0  0  0  0  0
  -13.2645   14.4047    3.5278 N   0  0  0  0  0  0  0  0  0  0  0  0
  -13.7531   15.6423    3.6440 C   0  0  0  0  0  0  0  0  0  0  0  0
  -12.9822   16.7045    3.3935 N   0  0  0  0  0  0  0  0  0  0  0  0
  -11.6826   16.5727    3.0208 C   0  0  0  0  0  0  0  0  0  0  0  0
  -11.1115   15.3021    2.8881 C   0  0  0  0  0  0  0  0  0  0  0  0
  5  4  1  0  0  0  0
  5  6  1  0  0  0  0
  7  8  2  0  0  0  0
  7 11  1  0  0  0  0
  8  9  1  0  0  0  0
  9 10  2  0  0  0  0
  9  6  1  0  0  0  0
 10  3  1  0  0  0  0
 11 12  1  0  0  0  0
 11 10  1  0  0  0  0
 12 18  1  0  0  0  0
 13  2  1  0  0  0  0
 13 14  2  0  0  0  0
 15 14  1  0  0  0  0
 15  1  1  0  0  0  0
 16 15  2  0  0  0  0
 17 18  2  0  0  0  0
 17 16  1  0  0  0  0
 18 13  1  0  0  0  0
M  END
>  <CHROM.1>
-55.12520506,80.30095844,77.26997304,-172.02992635,-9.63834737,16.47448593
2.29816119,2.87417013,-0.44722608,-2.83070002

>  <Name>
lig.pdb

>  <RI>
0

>  <Rbt.Current_Directory>
/home/itssahil/PROJECTS/Mol_Feturizer/New_Systems/rnas/4nyg

>  <Rbt.Executable>
rbdock ($Id: //depot/dev/client3/rdock/2013.1/src/exe/rbdock.cxx#4 $)

>  <Rbt.Library>
libRbt.so (2013.1, Build901 2013/11/27)

>  <Rbt.Parameter_File>
/export/apps/rDock/src/rDock_2013.1_src/data/scripts/dock_solv.prm

>  <Rbt.Receptor>
prm/pocket_docking_7.prm

>  <SCORE>
-21.9134

>  <SCORE.INTER>
-21.926

>  <SCORE.INTER.CONST>
1

>  <SCORE.INTER.POLAR>
0

>  <SCORE.INTER.ROT>
4

>  <SCORE.INTER.SOLV>
15.4019

>  <SCORE.INTER.VDW>
-26.018

>  <SCORE.INTER.norm>
-1.21811

>  <SCORE.INTRA>
0.012605

>  <SCORE.INTRA.DIHEDRAL>
0.7424

>  <SCORE.INTRA.DIHEDRAL.0>
3.20029

>  <SCORE.INTRA.POLAR>
0

>  <SCORE.INTRA.POLAR.0>
0

>  <SCORE.INTRA.REPUL>
0

>  <SCORE.INTRA.REPUL.0>
0

>  <SCORE.INTRA.SOLV>
0.450789

>  <SCORE.INTRA.SOLV.lig_0>
-19.3885

>  <SCORE.INTRA.VDW>
-0.58399

>  <SCORE.INTRA.VDW.0>
-1.12705

>  <SCORE.INTRA.norm>
0.000700276

>  <SCORE.RESTR>
0

>  <SCORE.RESTR.CAVITY>
0

>  <SCORE.RESTR.norm>
0

>  <SCORE.SYSTEM>
0

>  <SCORE.SYSTEM.CONST>
0

>  <SCORE.SYSTEM.DIHEDRAL>
0

>  <SCORE.SYSTEM.SOLV>
0

>  <SCORE.SYSTEM.norm>
0

>  <SCORE.heavy>
18

>  <SCORE.norm>
-1.21741

>  <RMSD>
3.838

$$$$
lig.pdb
 OpenBabel11021811503D
libRbt.so/2013.1/901 2013/11/27
 18 19  0  0  0  0  0  0  0  0999 V2000
  -14.8109   15.5679    3.8843 C   0  0  0  0  0  0  0  0  0  0  0  0
  -10.5225   16.2501    1.7219 N   0  0  0  0  0  0  0  0  0  0  0  0
   -8.3662   14.7122   -0.4053 C   0  0  0  0  0  0  0  0  0  0  0  0
   -6.4165   18.4872    1.6310 O   0  0  0  0  0  0  0  0  0  0  0  0
   -6.4005   17.9574    0.3126 C   0  0  0  0  0  0  0  0  0  0  0  0
   -5.9175   16.4942    0.3321 C   0  0  0  0  0  0  0  0  0  0  0  0
   -8.0723   14.5941    3.3245 C   0  0  0  0  0  0  0  0  0  0  0  0
   -6.7140   15.6333    3.0435 S   0  0  0  0  0  0  0  0  0  0  0  0
   -6.8171   15.7210    1.2709 C   0  0  0  0  0  0  0  0  0  0  0  0
   -7.9066   14.9218    1.0278 C   0  0  0  0  0  0  0  0  0  0  0  0
   -8.5326   14.3534    2.1035 N   0  0  0  0  0  0  0  0  0  0  0  0
   -9.7469   13.4790    1.9329 C   0  0  0  0  0  0  0  0  0  0  0  0
  -11.4171   15.3748    2.3375 C   0  0  0  0  0  0  0  0  0  0  0  0
  -12.6150   15.8434    2.8035 N   0  0  0  0  0  0  0  0  0  0  0  0
  -13.4895   15.0250    3.3946 C   0  0  0  0  0  0  0  0  0  0  0  0
  -13.2111   13.7271    3.5470 N   0  0  0  0  0  0  0  0  0  0  0  0
  -12.0438   13.1898    3.1068 C   0  0  0  0  0  0  0  0  0  0  0  0
  -11.0903   13.9950    2.4738 C   0  0  0  0  0  0  0  0  0  0  0  0
  5  4  1  0  0  0  0
  5  6  1  0  0  0  0
  7  8  2  0  0  0  0
  7 11  1  0  0  0  0
  8  9  1  0  0  0  0
  9 10  2  0  0  0  0
  9  6  1  0  0  0  0
 10  3  1  0  0  0  0
 11 12  1  0  0  0  0
 11 10  1  0  0  0  0
 12 18  1  0  0  0  0
 13  2  1  0  0  0  0
 13 14  2  0  0  0  0
 15 14  1  0  0  0  0
 15  1  1  0  0  0  0
 16 15  2  0  0  0  0
 17 18  2  0  0  0  0
 17 16  1  0  0  0  0
 18 13  1  0  0  0  0
M  END
>  <CHROM.1>
56.11080044,-81.66847113,66.14248347,38.95359167,-9.43702606,15.36386713
2.15210821,2.83899506,-0.24952056,3.00525576

>  <Name>
lig.pdb

>  <RI>
0

>  <Rbt.Current_Directory>
/home/itssahil/PROJECTS/Mol_Feturizer/New_Systems/rnas/4nyg

>  <Rbt.Executable>
rbdock ($Id: //depot/dev/client3/rdock/2013.1/src/exe/rbdock.cxx#4 $)

>  <Rbt.Library>
libRbt.so (2013.1, Build901 2013/11/27)

>  <Rbt.Parameter_File>
/export/apps/rDock/src/rDock_2013.1_src/data/scripts/dock_solv.prm

>  <Rbt.Receptor>
prm/blind_docking_80.prm

>  <SCORE>
-18.7103

>  <SCORE.INTER>
-19.0536

>  <SCORE.INTER.CONST>
1

>  <SCORE.INTER.POLAR>
0

>  <SCORE.INTER.ROT>
4

>  <SCORE.INTER.SOLV>
12.8544

>  <SCORE.INTER.VDW>
-23.2539

>  <SCORE.INTER.norm>
-1.05853

>  <SCORE.INTRA>
0.343287

>  <SCORE.INTRA.DIHEDRAL>
0.788074

>  <SCORE.INTRA.DIHEDRAL.0>
3.20029

>  <SCORE.INTRA.POLAR>
0

>  <SCORE.INTRA.POLAR.0>
0

>  <SCORE.INTRA.REPUL>
0

>  <SCORE.INTRA.REPUL.0>
0

>  <SCORE.INTRA.SOLV>
1.99229

>  <SCORE.INTRA.SOLV.lig_0>
-19.3885

>  <SCORE.INTRA.VDW>
-1.04689

>  <SCORE.INTRA.VDW.0>
-1.12705

>  <SCORE.INTRA.norm>
0.0190715

>  <SCORE.RESTR>
0

>  <SCORE.RESTR.CAVITY>
0

>  <SCORE.RESTR.norm>
0

>  <SCORE.SYSTEM>
0

>  <SCORE.SYSTEM.CONST>
0

>  <SCORE.SYSTEM.DIHEDRAL>
0

>  <SCORE.SYSTEM.SOLV>
0

>  <SCORE.SYSTEM.norm>
0

>  <SCORE.heavy>
18

>  <SCORE.norm>
-1.03946

>  <RMSD>
3.839

$$$$
lig.pdb
 OpenBabel11021811503D
libRbt.so/2013.1/901 2013/11/27
 18 19  0  0  0  0  0  0  0  0999 V2000
  -15.1823   15.8134    4.0432 C   0  0  0  0  0  0  0  0  0  0  0  0
  -11.4256   12.9102    3.0478 N   0  0  0  0  0  0  0  0  0  0  0  0
   -8.8666   16.2303   -0.1249 C   0  0  0  0  0  0  0  0  0  0  0  0
   -4.7904   18.3445    0.8700 O   0  0  0  0  0  0  0  0  0  0  0  0
   -5.6054   18.2439   -0.2896 C   0  0  0  0  0  0  0  0  0  0  0  0
   -7.0304   18.7451    0.0155 C   0  0  0  0  0  0  0  0  0  0  0  0
   -8.2560   16.8776    3.5110 C   0  0  0  0  0  0  0  0  0  0  0  0
   -7.3077   18.1957    2.9049 S   0  0  0  0  0  0  0  0  0  0  0  0
   -7.5729   17.9283    1.1674 C   0  0  0  0  0  0  0  0  0  0  0  0
   -8.3812   16.8187    1.1893 C   0  0  0  0  0  0  0  0  0  0  0  0
   -8.7158   16.2981    2.4095 N   0  0  0  0  0  0  0  0  0  0  0  0
   -9.6137   15.0950    2.5298 C   0  0  0  0  0  0  0  0  0  0  0  0
  -11.9288   14.2061    3.1604 C   0  0  0  0  0  0  0  0  0  0  0  0
  -13.2356   14.3997    3.5162 N   0  0  0  0  0  0  0  0  0  0  0  0
  -13.7405   15.6306    3.6330 C   0  0  0  0  0  0  0  0  0  0  0  0
  -12.9785   16.7034    3.4010 N   0  0  0  0  0  0  0  0  0  0  0  0
  -11.6720   16.5894    3.0472 C   0  0  0  0  0  0  0  0  0  0  0  0
  -11.0840   15.3266    2.9149 C   0  0  0  0  0  0  0  0  0  0  0  0
  5  4  1  0  0  0  0
  5  6  1  0  0  0  0
  7  8  2  0  0  0  0
  7 11  1  0  0  0  0
  8  9  1  0  0  0  0
  9 10  2  0  0  0  0
  9  6  1  0  0  0  0
 10  3  1  0  0  0  0
 11 12  1  0  0  0  0
 11 10  1  0  0  0  0
 12 18  1  0  0  0  0
 13  2  1  0  0  0  0
 13 14  2  0  0  0  0
 15 14  1  0  0  0  0
 15  1  1  0  0  0  0
 16 15  2  0  0  0  0
 17 18  2  0  0  0  0
 17 16  1  0  0  0  0
 18 13  1  0  0  0  0
M  END
>  <CHROM.1>
-57.21398414,83.72564523,77.07183353,-174.11731531,-9.63060914,16.50396807
2.29184961,2.87960900,-0.45941284,-2.81058558

>  <Name>
lig.pdb

>  <RI>
0

>  <Rbt.Current_Directory>
/home/itssahil/PROJECTS/Mol_Feturizer/New_Systems/rnas/4nyg

>  <Rbt.Executable>
rbdock ($Id: //depot/dev/client3/rdock/2013.1/src/exe/rbdock.cxx#4 $)

>  <Rbt.Library>
libRbt.so (2013.1, Build901 2013/11/27)

>  <Rbt.Parameter_File>
/export/apps/rDock/src/rDock_2013.1_src/data/scripts/dock_solv.prm

>  <Rbt.Receptor>
prm/pocket_docking_5.prm

>  <SCORE>
-21.8035

>  <SCORE.INTER>
-21.8538

>  <SCORE.INTER.CONST>
1

>  <SCORE.INTER.POLAR>
0

>  <SCORE.INTER.ROT>
4

>  <SCORE.INTER.SOLV>
15.4249

>  <SCORE.INTER.VDW>
-25.9775

>  <SCORE.INTER.norm>
-1.2141

>  <SCORE.INTRA>
0.0503557

>  <SCORE.INTRA.DIHEDRAL>
0.901345

>  <SCORE.INTRA.DIHEDRAL.0>
3.20029

>  <SCORE.INTRA.POLAR>
0

>  <SCORE.INTRA.POLAR.0>
0

>  <SCORE.INTRA.REPUL>
0

>  <SCORE.INTRA.REPUL.0>
0

>  <SCORE.INTRA.SOLV>
0.439992

>  <SCORE.INTRA.SOLV.lig_0>
-19.3885

>  <SCORE.INTRA.VDW>
-0.620313

>  <SCORE.INTRA.VDW.0>
-1.12705

>  <SCORE.INTRA.norm>
0.00279754

>  <SCORE.RESTR>
0

>  <SCORE.RESTR.CAVITY>
0

>  <SCORE.RESTR.norm>
0

>  <SCORE.SYSTEM>
0

>  <SCORE.SYSTEM.CONST>
0

>  <SCORE.SYSTEM.DIHEDRAL>
0

>  <SCORE.SYSTEM.SOLV>
0

>  <SCORE.SYSTEM.norm>
0

>  <SCORE.heavy>
18

>  <SCORE.norm>
-1.2113

>  <RMSD>
3.842

$$$$
lig.pdb
 OpenBabel11021811503D
libRbt.so/2013.1/901 2013/11/27
 18 19  0  0  0  0  0  0  0  0999 V2000
  -14.8467   15.0979    3.7402 C   0  0  0  0  0  0  0  0  0  0  0  0
  -10.6934   12.7463    2.8728 N   0  0  0  0  0  0  0  0  0  0  0  0
   -8.8737   16.2383   -0.1460 C   0  0  0  0  0  0  0  0  0  0  0  0
   -5.3432   17.7647   -0.5592 O   0  0  0  0  0  0  0  0  0  0  0  0
   -5.8992   19.0713   -0.5085 C   0  0  0  0  0  0  0  0  0  0  0  0
   -7.4280   18.9934   -0.3308 C   0  0  0  0  0  0  0  0  0  0  0  0
   -7.9609   17.1775    3.3606 C   0  0  0  0  0  0  0  0  0  0  0  0
   -7.2935   18.5799    2.5912 S   0  0  0  0  0  0  0  0  0  0  0  0
   -7.7097   18.1762    0.9106 C   0  0  0  0  0  0  0  0  0  0  0  0
   -8.3364   16.9658    1.0751 C   0  0  0  0  0  0  0  0  0  0  0  0
   -8.4504   16.4748    2.3471 N   0  0  0  0  0  0  0  0  0  0  0  0
   -9.1401   15.1649    2.6237 C   0  0  0  0  0  0  0  0  0  0  0  0
  -11.3627   13.9610    3.0208 C   0  0  0  0  0  0  0  0  0  0  0  0
  -12.7051   13.9699    3.2848 N   0  0  0  0  0  0  0  0  0  0  0  0
  -13.3682   15.1197    3.4330 C   0  0  0  0  0  0  0  0  0  0  0  0
  -12.7334   16.2903    3.3230 N   0  0  0  0  0  0  0  0  0  0  0  0
  -11.4015   16.3600    3.0655 C   0  0  0  0  0  0  0  0  0  0  0  0
  -10.6510   15.1897    2.9065 C   0  0  0  0  0  0  0  0  0  0  0  0
  5  4  1  0  0  0  0
  5  6  1  0  0  0  0
  7  8  2  0  0  0  0
  7 11  1  0  0  0  0
  8  9  1  0  0  0  0
  9 10  2  0  0  0  0
  9  6  1  0  0  0  0
 10  3  1  0  0  0  0
 11 12  1  0  0  0  0
 11 10  1  0  0  0  0
 12 18  1  0  0  0  0
 13  2  1  0  0  0  0
 13 14  2  0  0  0  0
 15 14  1  0  0  0  0
 15  1  1  0  0  0  0
 16 15  2  0  0  0  0
 17 18  2  0  0  0  0
 17 16  1  0  0  0  0
 18 13  1  0  0  0  0
M  END
>  <CHROM.1>
55.90142839,64.76470627,88.78264989,172.87686116,-9.47405862,16.47264131
2.05390133,2.75876824,-0.53611139,-2.89661940

>  <Name>
lig.pdb

>  <RI>
0

>  <Rbt.Current_Directory>
/home/itssahil/PROJECTS/Mol_Feturizer/New_Systems/rnas/4nyg

>  <Rbt.Executable>
rbdock ($Id: //depot/dev/client3/rdock/2013.1/src/exe/rbdock.cxx#4 $)

>  <Rbt.Library>
libRbt.so (2013.1, Build901 2013/11/27)

>  <Rbt.Parameter_File>
/export/apps/rDock/src/rDock_2013.1_src/data/scripts/dock_solv.prm

>  <Rbt.Receptor>
prm/pocket_docking_7.prm

>  <SCORE>
-23.6437

>  <SCORE.INTER>
-23.2577

>  <SCORE.INTER.CONST>
1

>  <SCORE.INTER.POLAR>
0

>  <SCORE.INTER.ROT>
4

>  <SCORE.INTER.SOLV>
14.7003

>  <SCORE.INTER.VDW>
-26.6719

>  <SCORE.INTER.norm>
-1.2921

>  <SCORE.INTRA>
-0.385998

>  <SCORE.INTRA.DIHEDRAL>
0.0876172

>  <SCORE.INTRA.DIHEDRAL.0>
3.20029

>  <SCORE.INTRA.POLAR>
0

>  <SCORE.INTRA.POLAR.0>
0

>  <SCORE.INTRA.REPUL>
0

>  <SCORE.INTRA.REPUL.0>
0

>  <SCORE.INTRA.SOLV>
0.524555

>  <SCORE.INTRA.SOLV.lig_0>
-19.3885

>  <SCORE.INTRA.VDW>
-0.692084

>  <SCORE.INTRA.VDW.0>
-1.12705

>  <SCORE.INTRA.norm>
-0.0214443

>  <SCORE.RESTR>
0

>  <SCORE.RESTR.CAVITY>
0

>  <SCORE.RESTR.norm>
0

>  <SCORE.SYSTEM>
0

>  <SCORE.SYSTEM.CONST>
0

>  <SCORE.SYSTEM.DIHEDRAL>
0

>  <SCORE.SYSTEM.SOLV>
0

>  <SCORE.SYSTEM.norm>
0

>  <SCORE.heavy>
18

>  <SCORE.norm>
-1.31354

>  <RMSD>
3.847

$$$$
lig.pdb
 OpenBabel11021811503D
libRbt.so/2013.1/901 2013/11/27
 18 19  0  0  0  0  0  0  0  0999 V2000
  -15.1864   15.9157    4.0378 C   0  0  0  0  0  0  0  0  0  0  0  0
  -11.5688   12.7687    3.3015 N   0  0  0  0  0  0  0  0  0  0  0  0
   -9.2398   16.5195   -0.0029 C   0  0  0  0  0  0  0  0  0  0  0  0
   -5.4004   17.1573   -0.3330 O   0  0  0  0  0  0  0  0  0  0  0  0
   -5.5935   18.4803    0.1482 C   0  0  0  0  0  0  0  0  0  0  0  0
   -7.0878   18.7326    0.4285 C   0  0  0  0  0  0  0  0  0  0  0  0
   -8.0174   16.1183    3.5123 C   0  0  0  0  0  0  0  0  0  0  0  0
   -7.0039   17.4605    3.0935 S   0  0  0  0  0  0  0  0  0  0  0  0
   -7.5564   17.6901    1.4194 C   0  0  0  0  0  0  0  0  0  0  0  0
   -8.4918   16.6912    1.3086 C   0  0  0  0  0  0  0  0  0  0  0  0
   -8.7076   15.8963    2.4011 N   0  0  0  0  0  0  0  0  0  0  0  0
   -9.7286   14.7894    2.3767 C   0  0  0  0  0  0  0  0  0  0  0  0
  -12.0298   14.0839    3.2450 C   0  0  0  0  0  0  0  0  0  0  0  0
  -13.3099   14.3730    3.6317 N   0  0  0  0  0  0  0  0  0  0  0  0
  -13.7741   15.6246    3.5891 C   0  0  0  0  0  0  0  0  0  0  0  0
  -12.9968   16.6245    3.1633 N   0  0  0  0  0  0  0  0  0  0  0  0
  -11.7147   16.4143    2.7668 C   0  0  0  0  0  0  0  0  0  0  0  0
  -11.1692   15.1260    2.7947 C   0  0  0  0  0  0  0  0  0  0  0  0
  5  4  1  0  0  0  0
  5  6  1  0  0  0  0
  7  8  2  0  0  0  0
  7 11  1  0  0  0  0
  8  9  1  0  0  0  0
  9 10  2  0  0  0  0
  9  6  1  0  0  0  0
 10  3  1  0  0  0  0
 11 12  1  0  0  0  0
 11 10  1  0  0  0  0
 12 18  1  0  0  0  0
 13  2  1  0  0  0  0
 13 14  2  0  0  0  0
 15 14  1  0  0  0  0
 15  1  1  0  0  0  0
 16 15  2  0  0  0  0
 17 18  2  0  0  0  0
 17 16  1  0  0  0  0
 18 13  1  0  0  0  0
M  END
>  <CHROM.1>
57.20384350,63.37288998,89.49272999,-157.67347497,-9.67767828,16.24693928
2.29159772,2.68357603,-0.20109147,2.76251835

>  <Name>
lig.pdb

>  <RI>
0

>  <Rbt.Current_Directory>
/home/itssahil/PROJECTS/Mol_Feturizer/New_Systems/rnas/4nyg

>  <Rbt.Executable>
rbdock ($Id: //depot/dev/client3/rdock/2013.1/src/exe/rbdock.cxx#4 $)

>  <Rbt.Library>
libRbt.so (2013.1, Build901 2013/11/27)

>  <Rbt.Parameter_File>
/export/apps/rDock/src/rDock_2013.1_src/data/scripts/dock_solv.prm

>  <Rbt.Receptor>
prm/blind_docking_80.prm

>  <SCORE>
-21.603

>  <SCORE.INTER>
-21.1514

>  <SCORE.INTER.CONST>
1

>  <SCORE.INTER.POLAR>
0

>  <SCORE.INTER.ROT>
4

>  <SCORE.INTER.SOLV>
15.0382

>  <SCORE.INTER.VDW>
-25.3803

>  <SCORE.INTER.norm>
-1.17508

>  <SCORE.INTRA>
-0.451543

>  <SCORE.INTRA.DIHEDRAL>
0.0329504

>  <SCORE.INTRA.DIHEDRAL.0>
3.20029

>  <SCORE.INTRA.POLAR>
0

>  <SCORE.INTRA.POLAR.0>
0

>  <SCORE.INTRA.REPUL>
0

>  <SCORE.INTRA.REPUL.0>
0

>  <SCORE.INTRA.SOLV>
0.515843

>  <SCORE.INTRA.SOLV.lig_0>
-19.3885

>  <SCORE.INTRA.VDW>
-0.72594

>  <SCORE.INTRA.VDW.0>
-1.12705

>  <SCORE.INTRA.norm>
-0.0250857

>  <SCORE.RESTR>
0

>  <SCORE.RESTR.CAVITY>
0

>  <SCORE.RESTR.norm>
0

>  <SCORE.SYSTEM>
0

>  <SCORE.SYSTEM.CONST>
0

>  <SCORE.SYSTEM.DIHEDRAL>
0

>  <SCORE.SYSTEM.SOLV>
0

>  <SCORE.SYSTEM.norm>
0

>  <SCORE.heavy>
18

>  <SCORE.norm>
-1.20016

>  <RMSD>
3.871

$$$$
lig.pdb
 OpenBabel11021811503D
libRbt.so/2013.1/901 2013/11/27
 18 19  0  0  0  0  0  0  0  0999 V2000
  -14.8925   15.0929    3.7742 C   0  0  0  0  0  0  0  0  0  0  0  0
  -10.7356   12.7235    2.9752 N   0  0  0  0  0  0  0  0  0  0  0  0
   -8.9012   16.2462   -0.1704 C   0  0  0  0  0  0  0  0  0  0  0  0
   -5.3738   17.7427   -0.5442 O   0  0  0  0  0  0  0  0  0  0  0  0
   -5.9110   19.0561   -0.4716 C   0  0  0  0  0  0  0  0  0  0  0  0
   -7.4415   18.9972   -0.3009 C   0  0  0  0  0  0  0  0  0  0  0  0
   -8.0210   17.1315    3.3585 C   0  0  0  0  0  0  0  0  0  0  0  0
   -7.3394   18.5415    2.6161 S   0  0  0  0  0  0  0  0  0  0  0  0
   -7.7398   18.1637    0.9257 C   0  0  0  0  0  0  0  0  0  0  0  0
   -8.3735   16.9539    1.0664 C   0  0  0  0  0  0  0  0  0  0  0  0
   -8.5029   16.4455    2.3300 N   0  0  0  0  0  0  0  0  0  0  0  0
   -9.2013   15.1349    2.5808 C   0  0  0  0  0  0  0  0  0  0  0  0
  -11.4108   13.9403    3.0689 C   0  0  0  0  0  0  0  0  0  0  0  0
  -12.7497   13.9552    3.3497 N   0  0  0  0  0  0  0  0  0  0  0  0
  -13.4183   15.1073    3.4469 C   0  0  0  0  0  0  0  0  0  0  0  0
  -12.7925   16.2743    3.2681 N   0  0  0  0  0  0  0  0  0  0  0  0
  -11.4645   16.3382    2.9899 C   0  0  0  0  0  0  0  0  0  0  0  0
  -10.7086   15.1656    2.8818 C   0  0  0  0  0  0  0  0  0  0  0  0
  5  4  1  0  0  0  0
  5  6  1  0  0  0  0
  7  8  2  0  0  0  0
  7 11  1  0  0  0  0
  8  9  1  0  0  0  0
  9 10  2  0  0  0  0
  9  6  1  0  0  0  0
 10  3  1  0  0  0  0
 11 12  1  0  0  0  0
 11 10  1  0  0  0  0
 12 18  1  0  0  0  0
 13  2  1  0  0  0  0
 13 14  2  0  0  0  0
 15 14  1  0  0  0  0
 15  1  1  0  0  0  0
 16 15  2  0  0  0  0
 17 18  2  0  0  0  0
 17 16  1  0  0  0  0
 18 13  1  0  0  0  0
M  END
>  <CHROM.1>
56.00768807,65.45249667,87.33245027,177.41351966,-9.51727660,16.45302684
2.06293143,2.73111183,-0.51523725,-2.95481264

>  <Name>
lig.pdb

>  <RI>
0

>  <Rbt.Current_Directory>
/home/itssahil/PROJECTS/Mol_Feturizer/New_Systems/rnas/4nyg

>  <Rbt.Executable>
rbdock ($Id: //depot/dev/client3/rdock/2013.1/src/exe/rbdock.cxx#4 $)

>  <Rbt.Library>
libRbt.so (2013.1, Build901 2013/11/27)

>  <Rbt.Parameter_File>
/export/apps/rDock/src/rDock_2013.1_src/data/scripts/dock_solv.prm

>  <Rbt.Receptor>
prm/pocket_docking_5.prm

>  <SCORE>
-23.5671

>  <SCORE.INTER>
-23.1896

>  <SCORE.INTER.CONST>
1

>  <SCORE.INTER.POLAR>
0

>  <SCORE.INTER.ROT>
4

>  <SCORE.INTER.SOLV>
14.8198

>  <SCORE.INTER.VDW>
-26.6664

>  <SCORE.INTER.norm>
-1.28831

>  <SCORE.INTRA>
-0.37752

>  <SCORE.INTRA.DIHEDRAL>
0.0962247

>  <SCORE.INTRA.DIHEDRAL.0>
3.20029

>  <SCORE.INTRA.POLAR>
0

>  <SCORE.INTRA.POLAR.0>
0

>  <SCORE.INTRA.REPUL>
0

>  <SCORE.INTRA.REPUL.0>
0

>  <SCORE.INTRA.SOLV>
0.529401

>  <SCORE.INTRA.SOLV.lig_0>
-19.3885

>  <SCORE.INTRA.VDW>
-0.690332

>  <SCORE.INTRA.VDW.0>
-1.12705

>  <SCORE.INTRA.norm>
-0.0209733

>  <SCORE.RESTR>
0

>  <SCORE.RESTR.CAVITY>
0

>  <SCORE.RESTR.norm>
0

>  <SCORE.SYSTEM>
0

>  <SCORE.SYSTEM.CONST>
0

>  <SCORE.SYSTEM.DIHEDRAL>
0

>  <SCORE.SYSTEM.SOLV>
0

>  <SCORE.SYSTEM.norm>
0

>  <SCORE.heavy>
18

>  <SCORE.norm>
-1.30929

>  <RMSD>
3.871

$$$$
lig.pdb
 OpenBabel11021811503D
libRbt.so/2013.1/901 2013/11/27
 18 19  0  0  0  0  0  0  0  0999 V2000
  -14.9209   15.1402    3.7963 C   0  0  0  0  0  0  0  0  0  0  0  0
  -10.7785   12.7419    3.0081 N   0  0  0  0  0  0  0  0  0  0  0  0
   -8.9222   16.2560   -0.1960 C   0  0  0  0  0  0  0  0  0  0  0  0
   -5.3756   17.7384   -0.5322 O   0  0  0  0  0  0  0  0  0  0  0  0
   -5.9117   19.0530   -0.4738 C   0  0  0  0  0  0  0  0  0  0  0  0
   -7.4434   18.9973   -0.3139 C   0  0  0  0  0  0  0  0  0  0  0  0
   -8.0499   17.1265    3.3385 C   0  0  0  0  0  0  0  0  0  0  0  0
   -7.3559   18.5338    2.6024 S   0  0  0  0  0  0  0  0  0  0  0  0
   -7.7522   18.1629    0.9095 C   0  0  0  0  0  0  0  0  0  0  0  0
   -8.3946   16.9570    1.0446 C   0  0  0  0  0  0  0  0  0  0  0  0
   -8.5324   16.4464    2.3064 N   0  0  0  0  0  0  0  0  0  0  0  0
   -9.2406   15.1400    2.5512 C   0  0  0  0  0  0  0  0  0  0  0  0
  -11.4492   13.9625    3.0832 C   0  0  0  0  0  0  0  0  0  0  0  0
  -12.7855   13.9873    3.3757 N   0  0  0  0  0  0  0  0  0  0  0  0
  -13.4497   15.1433    3.4555 C   0  0  0  0  0  0  0  0  0  0  0  0
  -12.8221   16.3044    3.2475 N   0  0  0  0  0  0  0  0  0  0  0  0
  -11.4964   16.3584    2.9561 C   0  0  0  0  0  0  0  0  0  0  0  0
  -10.7450   15.1815    2.8650 C   0  0  0  0  0  0  0  0  0  0  0  0
  5  4  1  0  0  0  0
  5  6  1  0  0  0  0
  7  8  2  0  0  0  0
  7 11  1  0  0  0  0
  8  9  1  0  0  0  0
  9 10  2  0  0  0  0
  9  6  1  0  0  0  0
 10  3  1  0  0  0  0
 11 12  1  0  0  0  0
 11 10  1  0  0  0  0
 12 18  1  0  0  0  0
 13  2  1  0  0  0  0
 13 14  2  0  0  0  0
 15 14  1  0  0  0  0
 15  1  1  0  0  0  0
 16 15  2  0  0  0  0
 17 18  2  0  0  0  0
 17 16  1  0  0  0  0
 18 13  1  0  0  0  0
M  END
>  <CHROM.1>
55.47437470,65.13395761,86.52609071,179.12812580,-9.54125264,16.46382677
2.05603731,2.72533090,-0.50611000,-2.97919385

>  <Name>
lig.pdb

>  <RI>
0

>  <Rbt.Current_Directory>
/home/itssahil/PROJECTS/Mol_Feturizer/New_Systems/rnas/4nyg

>  <Rbt.Executable>
rbdock ($Id: //depot/dev/client3/rdock/2013.1/src/exe/rbdock.cxx#4 $)

>  <Rbt.Library>
libRbt.so (2013.1, Build901 2013/11/27)

>  <Rbt.Parameter_File>
/export/apps/rDock/src/rDock_2013.1_src/data/scripts/dock_solv.prm

>  <Rbt.Receptor>
prm/pocket_docking_7.prm

>  <SCORE>
-23.568

>  <SCORE.INTER>
-23.208

>  <SCORE.INTER.CONST>
1

>  <SCORE.INTER.POLAR>
0

>  <SCORE.INTER.ROT>
4

>  <SCORE.INTER.SOLV>
14.8666

>  <SCORE.INTER.VDW>
-26.6942

>  <SCORE.INTER.norm>
-1.28934

>  <SCORE.INTRA>
-0.359908

>  <SCORE.INTRA.DIHEDRAL>
0.106878

>  <SCORE.INTRA.DIHEDRAL.0>
3.20029

>  <SCORE.INTRA.POLAR>
0

>  <SCORE.INTRA.POLAR.0>
0

>  <SCORE.INTRA.REPUL>
0

>  <SCORE.INTRA.REPUL.0>
0

>  <SCORE.INTRA.SOLV>
0.532237

>  <SCORE.INTRA.SOLV.lig_0>
-19.3885

>  <SCORE.INTRA.VDW>
-0.679465

>  <SCORE.INTRA.VDW.0>
-1.12705

>  <SCORE.INTRA.norm>
-0.0199949

>  <SCORE.RESTR>
0

>  <SCORE.RESTR.CAVITY>
0

>  <SCORE.RESTR.norm>
0

>  <SCORE.SYSTEM>
0

>  <SCORE.SYSTEM.CONST>
0

>  <SCORE.SYSTEM.DIHEDRAL>
0

>  <SCORE.SYSTEM.SOLV>
0

>  <SCORE.SYSTEM.norm>
0

>  <SCORE.heavy>
18

>  <SCORE.norm>
-1.30933

>  <RMSD>
3.889

$$$$
lig.pdb
 OpenBabel11021811503D
libRbt.so/2013.1/901 2013/11/27
 18 19  0  0  0  0  0  0  0  0999 V2000
  -15.1161   15.8005    3.9813 C   0  0  0  0  0  0  0  0  0  0  0  0
  -11.3027   12.8728    3.3337 N   0  0  0  0  0  0  0  0  0  0  0  0
   -8.9397   16.2852   -0.2004 C   0  0  0  0  0  0  0  0  0  0  0  0
   -4.9672   19.4055   -1.0962 O   0  0  0  0  0  0  0  0  0  0  0  0
   -5.5051   18.5421   -0.1041 C   0  0  0  0  0  0  0  0  0  0  0  0
   -7.0295   18.7398    0.0047 C   0  0  0  0  0  0  0  0  0  0  0  0
   -8.1189   16.6709    3.4313 C   0  0  0  0  0  0  0  0  0  0  0  0
   -7.1679   18.0036    2.8624 S   0  0  0  0  0  0  0  0  0  0  0  0
   -7.5324   17.8605    1.1282 C   0  0  0  0  0  0  0  0  0  0  0  0
   -8.3689   16.7718    1.1211 C   0  0  0  0  0  0  0  0  0  0  0  0
   -8.6525   16.1782    2.3208 N   0  0  0  0  0  0  0  0  0  0  0  0
   -9.5758   14.9918    2.4105 C   0  0  0  0  0  0  0  0  0  0  0  0
  -11.8422   14.1566    3.2549 C   0  0  0  0  0  0  0  0  0  0  0  0
  -13.1432   14.3711    3.6201 N   0  0  0  0  0  0  0  0  0  0  0  0
  -13.6822   15.5914    3.5559 C   0  0  0  0  0  0  0  0  0  0  0  0
  -12.9612   16.6322    3.1290 N   0  0  0  0  0  0  0  0  0  0  0  0
  -11.6630   16.4964    2.7530 C   0  0  0  0  0  0  0  0  0  0  0  0
  -11.0403   15.2443    2.8042 C   0  0  0  0  0  0  0  0  0  0  0  0
  5  4  1  0  0  0  0
  5  6  1  0  0  0  0
  7  8  2  0  0  0  0
  7 11  1  0  0  0  0
  8  9  1  0  0  0  0
  9 10  2  0  0  0  0
  9  6  1  0  0  0  0
 10  3  1  0  0  0  0
 11 12  1  0  0  0  0
 11 10  1  0  0  0  0
 12 18  1  0  0  0  0
 13  2  1  0  0  0  0
 13 14  2  0  0  0  0
 15 14  1  0  0  0  0
 15  1  1  0  0  0  0
 16 15  2  0  0  0  0
 17 18  2  0  0  0  0
 17 16  1  0  0  0  0
 18 13  1  0  0  0  0
M  END
>  <CHROM.1>
-176.63347248,65.69395106,80.87224079,-162.83684096,-9.58314385,16.51606653
2.13564049,2.58527518,-0.21814471,2.74648462

>  <Name>
lig.pdb

>  <RI>
0

>  <Rbt.Current_Directory>
/home/itssahil/PROJECTS/Mol_Feturizer/New_Systems/rnas/4nyg

>  <Rbt.Executable>
rbdock ($Id: //depot/dev/client3/rdock/2013.1/src/exe/rbdock.cxx#4 $)

>  <Rbt.Library>
libRbt.so (2013.1, Build901 2013/11/27)

>  <Rbt.Parameter_File>
/export/apps/rDock/src/rDock_2013.1_src/data/scripts/dock_solv.prm

>  <Rbt.Receptor>
prm/pocket_docking_4.prm

>  <SCORE>
-22.9319

>  <SCORE.INTER>
-22.4462

>  <SCORE.INTER.CONST>
1

>  <SCORE.INTER.POLAR>
0

>  <SCORE.INTER.ROT>
4

>  <SCORE.INTER.SOLV>
15.1834

>  <SCORE.INTER.VDW>
-26.2919

>  <SCORE.INTER.norm>
-1.24701

>  <SCORE.INTRA>
-0.485692

>  <SCORE.INTRA.DIHEDRAL>
0.0767823

>  <SCORE.INTRA.DIHEDRAL.0>
3.20029

>  <SCORE.INTRA.POLAR>
0

>  <SCORE.INTRA.POLAR.0>
0

>  <SCORE.INTRA.REPUL>
0

>  <SCORE.INTRA.REPUL.0>
0

>  <SCORE.INTRA.SOLV>
-0.0296312

>  <SCORE.INTRA.SOLV.lig_0>
-19.3885

>  <SCORE.INTRA.VDW>
-0.509268

>  <SCORE.INTRA.VDW.0>
-1.12705

>  <SCORE.INTRA.norm>
-0.0269829

>  <SCORE.RESTR>
0

>  <SCORE.RESTR.CAVITY>
0

>  <SCORE.RESTR.norm>
0

>  <SCORE.SYSTEM>
0

>  <SCORE.SYSTEM.CONST>
0

>  <SCORE.SYSTEM.DIHEDRAL>
0

>  <SCORE.SYSTEM.SOLV>
0

>  <SCORE.SYSTEM.norm>
0

>  <SCORE.heavy>
18

>  <SCORE.norm>
-1.274

>  <RMSD>
3.893

$$$$
lig.pdb
 OpenBabel11021811503D
libRbt.so/2013.1/901 2013/11/27
 18 19  0  0  0  0  0  0  0  0999 V2000
  -15.2891   15.9419    4.1634 C   0  0  0  0  0  0  0  0  0  0  0  0
  -11.6174   12.9372    3.1520 N   0  0  0  0  0  0  0  0  0  0  0  0
   -8.9158   16.2392   -0.1582 C   0  0  0  0  0  0  0  0  0  0  0  0
   -4.7958   18.2263    1.1001 O   0  0  0  0  0  0  0  0  0  0  0  0
   -5.5410   18.1492   -0.1072 C   0  0  0  0  0  0  0  0  0  0  0  0
   -6.9761   18.6634    0.1187 C   0  0  0  0  0  0  0  0  0  0  0  0
   -8.4067   16.7570    3.5139 C   0  0  0  0  0  0  0  0  0  0  0  0
   -7.3800   18.0471    2.9795 S   0  0  0  0  0  0  0  0  0  0  0  0
   -7.5948   17.8403    1.2269 C   0  0  0  0  0  0  0  0  0  0  0  0
   -8.4517   16.7683    1.1885 C   0  0  0  0  0  0  0  0  0  0  0  0
   -8.8523   16.2297    2.3807 N   0  0  0  0  0  0  0  0  0  0  0  0
   -9.8063   15.0656    2.4348 C   0  0  0  0  0  0  0  0  0  0  0  0
  -12.0995   14.2443    3.2184 C   0  0  0  0  0  0  0  0  0  0  0  0
  -13.3859   14.4749    3.6233 N   0  0  0  0  0  0  0  0  0  0  0  0
  -13.8703   15.7173    3.6973 C   0  0  0  0  0  0  0  0  0  0  0  0
  -13.1075   16.7654    3.3733 N   0  0  0  0  0  0  0  0  0  0  0  0
  -11.8204   16.6143    2.9661 C   0  0  0  0  0  0  0  0  0  0  0  0
  -11.2541   15.3380    2.8745 C   0  0  0  0  0  0  0  0  0  0  0  0
  5  4  1  0  0  0  0
  5  6  1  0  0  0  0
  7  8  2  0  0  0  0
  7 11  1  0  0  0  0
  8  9  1  0  0  0  0
  9 10  2  0  0  0  0
  9  6  1  0  0  0  0
 10  3  1  0  0  0  0
 11 12  1  0  0  0  0
 11 10  1  0  0  0  0
 12 18  1  0  0  0  0
 13  2  1  0  0  0  0
 13 14  2  0  0  0  0
 15 14  1  0  0  0  0
 15  1  1  0  0  0  0
 16 15  2  0  0  0  0
 17 18  2  0  0  0  0
 17 16  1  0  0  0  0
 18 13  1  0  0  0  0
M  END
>  <CHROM.1>
-57.14451435,81.14420911,72.74772769,-166.37991035,-9.72571667,16.47572289
2.34099447,2.90014570,-0.43908334,-2.81381043

>  <Name>
lig.pdb

>  <RI>
0

>  <Rbt.Current_Directory>
/home/itssahil/PROJECTS/Mol_Feturizer/New_Systems/rnas/4nyg

>  <Rbt.Executable>
rbdock ($Id: //depot/dev/client3/rdock/2013.1/src/exe/rbdock.cxx#4 $)

>  <Rbt.Library>
libRbt.so (2013.1, Build901 2013/11/27)

>  <Rbt.Parameter_File>
/export/apps/rDock/src/rDock_2013.1_src/data/scripts/dock_solv.prm

>  <Rbt.Receptor>
prm/pocket_docking_6.prm

>  <SCORE>
-21.9246

>  <SCORE.INTER>
-21.9141

>  <SCORE.INTER.CONST>
1

>  <SCORE.INTER.POLAR>
0

>  <SCORE.INTER.ROT>
4

>  <SCORE.INTER.SOLV>
15.5532

>  <SCORE.INTER.VDW>
-26.0604

>  <SCORE.INTER.norm>
-1.21745

>  <SCORE.INTRA>
-0.0105653

>  <SCORE.INTRA.DIHEDRAL>
0.725229

>  <SCORE.INTRA.DIHEDRAL.0>
3.20029

>  <SCORE.INTRA.POLAR>
0

>  <SCORE.INTRA.POLAR.0>
0

>  <SCORE.INTRA.REPUL>
0

>  <SCORE.INTRA.REPUL.0>
0

>  <SCORE.INTRA.SOLV>
0.436129

>  <SCORE.INTRA.SOLV.lig_0>
-19.3885

>  <SCORE.INTRA.VDW>
-0.591244

>  <SCORE.INTRA.VDW.0>
-1.12705

>  <SCORE.INTRA.norm>
-0.000586963

>  <SCORE.RESTR>
0

>  <SCORE.RESTR.CAVITY>
0

>  <SCORE.RESTR.norm>
0

>  <SCORE.SYSTEM>
0

>  <SCORE.SYSTEM.CONST>
0

>  <SCORE.SYSTEM.DIHEDRAL>
0

>  <SCORE.SYSTEM.SOLV>
0

>  <SCORE.SYSTEM.norm>
0

>  <SCORE.heavy>
18

>  <SCORE.norm>
-1.21803

>  <RMSD>
3.894

$$$$
lig.pdb
 OpenBabel11021811503D
libRbt.so/2013.1/901 2013/11/27
 18 19  0  0  0  0  0  0  0  0999 V2000
  -15.1718   15.9014    4.0779 C   0  0  0  0  0  0  0  0  0  0  0  0
  -11.5835   12.7605    3.1883 N   0  0  0  0  0  0  0  0  0  0  0  0
   -8.0419   15.2952    0.0621 C   0  0  0  0  0  0  0  0  0  0  0  0
   -5.9631   19.5173   -1.4361 O   0  0  0  0  0  0  0  0  0  0  0  0
   -6.8015   18.9965   -0.4139 C   0  0  0  0  0  0  0  0  0  0  0  0
   -6.1456   17.7628    0.2362 C   0  0  0  0  0  0  0  0  0  0  0  0
   -8.5589   16.7735    3.4620 C   0  0  0  0  0  0  0  0  0  0  0  0
   -7.3638   17.9076    2.9236 S   0  0  0  0  0  0  0  0  0  0  0  0
   -7.0882   17.2418    1.2984 C   0  0  0  0  0  0  0  0  0  0  0  0
   -7.9496   16.1727    1.2993 C   0  0  0  0  0  0  0  0  0  0  0  0
   -8.6932   15.9544    2.4268 N   0  0  0  0  0  0  0  0  0  0  0  0
   -9.6780   14.8179    2.5095 C   0  0  0  0  0  0  0  0  0  0  0  0
  -12.0201   14.0844    3.2332 C   0  0  0  0  0  0  0  0  0  0  0  0
  -13.3082   14.3636    3.6004 N   0  0  0  0  0  0  0  0  0  0  0  0
  -13.7496   15.6230    3.6533 C   0  0  0  0  0  0  0  0  0  0  0  0
  -12.9410   16.6410    3.3446 N   0  0  0  0  0  0  0  0  0  0  0  0
  -11.6493   16.4412    2.9746 C   0  0  0  0  0  0  0  0  0  0  0  0
  -11.1267   15.1449    2.9067 C   0  0  0  0  0  0  0  0  0  0  0  0
  5  4  1  0  0  0  0
  5  6  1  0  0  0  0
  7  8  2  0  0  0  0
  7 11  1  0  0  0  0
  8  9  1  0  0  0  0
  9 10  2  0  0  0  0
  9  6  1  0  0  0  0
 10  3  1  0  0  0  0
 11 12  1  0  0  0  0
 11 10  1  0  0  0  0
 12 18  1  0  0  0  0
 13  2  1  0  0  0  0
 13 14  2  0  0  0  0
 15 14  1  0  0  0  0
 15  1  1  0  0  0  0
 16 15  2  0  0  0  0
 17 18  2  0  0  0  0
 17 16  1  0  0  0  0
 18 13  1  0  0  0  0
M  END
>  <CHROM.1>
-179.19640334,-77.20239171,52.62974319,-168.55276591,-9.66878745,16.34526603
2.18906728,2.70640124,-0.42535681,3.07646780

>  <Name>
lig.pdb

>  <RI>
0

>  <Rbt.Current_Directory>
/home/itssahil/PROJECTS/Mol_Feturizer/New_Systems/rnas/4nyg

>  <Rbt.Executable>
rbdock ($Id: //depot/dev/client3/rdock/2013.1/src/exe/rbdock.cxx#4 $)

>  <Rbt.Library>
libRbt.so (2013.1, Build901 2013/11/27)

>  <Rbt.Parameter_File>
/export/apps/rDock/src/rDock_2013.1_src/data/scripts/dock_solv.prm

>  <Rbt.Receptor>
prm/blind_docking_100.prm

>  <SCORE>
-21.4722

>  <SCORE.INTER>
-21.5401

>  <SCORE.INTER.CONST>
1

>  <SCORE.INTER.POLAR>
0

>  <SCORE.INTER.ROT>
4

>  <SCORE.INTER.SOLV>
14.9865

>  <SCORE.INTER.VDW>
-25.6222

>  <SCORE.INTER.norm>
-1.19667

>  <SCORE.INTRA>
0.0679003

>  <SCORE.INTRA.DIHEDRAL>
0.418238

>  <SCORE.INTRA.DIHEDRAL.0>
3.20029

>  <SCORE.INTRA.POLAR>
0

>  <SCORE.INTRA.POLAR.0>
0

>  <SCORE.INTRA.REPUL>
0

>  <SCORE.INTRA.REPUL.0>
0

>  <SCORE.INTRA.SOLV>
0.00998761

>  <SCORE.INTRA.SOLV.lig_0>
-19.3885

>  <SCORE.INTRA.VDW>
-0.146212

>  <SCORE.INTRA.VDW.0>
-1.12705

>  <SCORE.INTRA.norm>
0.00377224

>  <SCORE.RESTR>
0

>  <SCORE.RESTR.CAVITY>
0

>  <SCORE.RESTR.norm>
0

>  <SCORE.SYSTEM>
0

>  <SCORE.SYSTEM.CONST>
0

>  <SCORE.SYSTEM.DIHEDRAL>
0

>  <SCORE.SYSTEM.SOLV>
0

>  <SCORE.SYSTEM.norm>
0

>  <SCORE.heavy>
18

>  <SCORE.norm>
-1.1929

>  <RMSD>
3.910

$$$$
lig.pdb
 OpenBabel11021811503D
libRbt.so/2013.1/901 2013/11/27
 18 19  0  0  0  0  0  0  0  0999 V2000
  -15.1205   15.7411    3.9662 C   0  0  0  0  0  0  0  0  0  0  0  0
  -11.2818   12.8527    3.2923 N   0  0  0  0  0  0  0  0  0  0  0  0
   -9.0066   16.3444   -0.1806 C   0  0  0  0  0  0  0  0  0  0  0  0
   -5.0878   19.5478   -1.0986 O   0  0  0  0  0  0  0  0  0  0  0  0
   -5.5959   18.6393   -0.1314 C   0  0  0  0  0  0  0  0  0  0  0  0
   -7.1194   18.8170    0.0181 C   0  0  0  0  0  0  0  0  0  0  0  0
   -8.0996   16.6796    3.4355 C   0  0  0  0  0  0  0  0  0  0  0  0
   -7.1780   18.0323    2.8656 S   0  0  0  0  0  0  0  0  0  0  0  0
   -7.5841   17.9136    1.1388 C   0  0  0  0  0  0  0  0  0  0  0  0
   -8.4084   16.8156    1.1343 C   0  0  0  0  0  0  0  0  0  0  0  0
   -8.6553   16.1992    2.3306 N   0  0  0  0  0  0  0  0  0  0  0  0
   -9.5629   15.0009    2.4233 C   0  0  0  0  0  0  0  0  0  0  0  0
  -11.8297   14.1340    3.2339 C   0  0  0  0  0  0  0  0  0  0  0  0
  -13.1349   14.3325    3.5931 N   0  0  0  0  0  0  0  0  0  0  0  0
  -13.6820   15.5500    3.5480 C   0  0  0  0  0  0  0  0  0  0  0  0
  -12.9651   16.6038    3.1468 N   0  0  0  0  0  0  0  0  0  0  0  0
  -11.6631   16.4842    2.7784 C   0  0  0  0  0  0  0  0  0  0  0  0
  -11.0320   15.2357    2.8104 C   0  0  0  0  0  0  0  0  0  0  0  0
  5  4  1  0  0  0  0
  5  6  1  0  0  0  0
  7  8  2  0  0  0  0
  7 11  1  0  0  0  0
  8  9  1  0  0  0  0
  9 10  2  0  0  0  0
  9  6  1  0  0  0  0
 10  3  1  0  0  0  0
 11 12  1  0  0  0  0
 11 10  1  0  0  0  0
 12 18  1  0  0  0  0
 13  2  1  0  0  0  0
 13 14  2  0  0  0  0
 15 14  1  0  0  0  0
 15  1  1  0  0  0  0
 16 15  2  0  0  0  0
 17 18  2  0  0  0  0
 17 16  1  0  0  0  0
 18 13  1  0  0  0  0
M  END
>  <CHROM.1>
-175.21445084,65.66645858,82.93970288,-164.30931425,-9.60586085,16.53546854
2.13541734,2.55674888,-0.17292444,2.68706028

>  <Name>
lig.pdb

>  <RI>
0

>  <Rbt.Current_Directory>
/home/itssahil/PROJECTS/Mol_Feturizer/New_Systems/rnas/4nyg

>  <Rbt.Executable>
rbdock ($Id: //depot/dev/client3/rdock/2013.1/src/exe/rbdock.cxx#4 $)

>  <Rbt.Library>
libRbt.so (2013.1, Build901 2013/11/27)

>  <Rbt.Parameter_File>
/export/apps/rDock/src/rDock_2013.1_src/data/scripts/dock_solv.prm

>  <Rbt.Receptor>
prm/pocket_docking_4.prm

>  <SCORE>
-22.931

>  <SCORE.INTER>
-22.4596

>  <SCORE.INTER.CONST>
1

>  <SCORE.INTER.POLAR>
0

>  <SCORE.INTER.ROT>
4

>  <SCORE.INTER.SOLV>
15.3745

>  <SCORE.INTER.VDW>
-26.3645

>  <SCORE.INTER.norm>
-1.24775

>  <SCORE.INTRA>
-0.471397

>  <SCORE.INTRA.DIHEDRAL>
0.122435

>  <SCORE.INTRA.DIHEDRAL.0>
3.20029

>  <SCORE.INTRA.POLAR>
0

>  <SCORE.INTRA.POLAR.0>
0

>  <SCORE.INTRA.REPUL>
0

>  <SCORE.INTRA.REPUL.0>
0

>  <SCORE.INTRA.SOLV>
-0.0285779

>  <SCORE.INTRA.SOLV.lig_0>
-19.3885

>  <SCORE.INTRA.VDW>
-0.518326

>  <SCORE.INTRA.VDW.0>
-1.12705

>  <SCORE.INTRA.norm>
-0.0261887

>  <SCORE.RESTR>
0

>  <SCORE.RESTR.CAVITY>
0

>  <SCORE.RESTR.norm>
0

>  <SCORE.SYSTEM>
0

>  <SCORE.SYSTEM.CONST>
0

>  <SCORE.SYSTEM.DIHEDRAL>
0

>  <SCORE.SYSTEM.SOLV>
0

>  <SCORE.SYSTEM.norm>
0

>  <SCORE.heavy>
18

>  <SCORE.norm>
-1.27394

>  <RMSD>
3.930

$$$$
lig.pdb
 OpenBabel11021811503D
libRbt.so/2013.1/901 2013/11/27
 18 19  0  0  0  0  0  0  0  0999 V2000
  -14.8091   15.1500    3.7513 C   0  0  0  0  0  0  0  0  0  0  0  0
  -10.6796   12.7841    2.8123 N   0  0  0  0  0  0  0  0  0  0  0  0
   -9.1839   16.5882   -0.3322 C   0  0  0  0  0  0  0  0  0  0  0  0
   -5.2732   19.1619    0.0805 O   0  0  0  0  0  0  0  0  0  0  0  0
   -6.2510   19.0883   -0.9478 C   0  0  0  0  0  0  0  0  0  0  0  0
   -7.6591   19.3065   -0.3609 C   0  0  0  0  0  0  0  0  0  0  0  0
   -7.8420   17.0710    3.1287 C   0  0  0  0  0  0  0  0  0  0  0  0
   -7.2105   18.5383    2.4562 S   0  0  0  0  0  0  0  0  0  0  0  0
   -7.8307   18.3525    0.8005 C   0  0  0  0  0  0  0  0  0  0  0  0
   -8.4827   17.1479    0.8942 C   0  0  0  0  0  0  0  0  0  0  0  0
   -8.4712   16.5095    2.1043 N   0  0  0  0  0  0  0  0  0  0  0  0
   -9.1770   15.1943    2.3043 C   0  0  0  0  0  0  0  0  0  0  0  0
  -11.3563   13.9995    2.9130 C   0  0  0  0  0  0  0  0  0  0  0  0
  -12.6815   14.0138    3.2531 N   0  0  0  0  0  0  0  0  0  0  0  0
  -13.3511   15.1646    3.3582 C   0  0  0  0  0  0  0  0  0  0  0  0
  -12.7400   16.3307    3.1298 N   0  0  0  0  0  0  0  0  0  0  0  0
  -11.4261   16.3951    2.7913 C   0  0  0  0  0  0  0  0  0  0  0  0
  -10.6696   15.2240    2.6717 C   0  0  0  0  0  0  0  0  0  0  0  0
  5  4  1  0  0  0  0
  5  6  1  0  0  0  0
  7  8  2  0  0  0  0
  7 11  1  0  0  0  0
  8  9  1  0  0  0  0
  9 10  2  0  0  0  0
  9  6  1  0  0  0  0
 10  3  1  0  0  0  0
 11 12  1  0  0  0  0
 11 10  1  0  0  0  0
 12 18  1  0  0  0  0
 13  2  1  0  0  0  0
 13 14  2  0  0  0  0
 15 14  1  0  0  0  0
 15  1  1  0  0  0  0
 16 15  2  0  0  0  0
 17 18  2  0  0  0  0
 17 16  1  0  0  0  0
 18 13  1  0  0  0  0
M  END
>  <CHROM.1>
-51.91314714,79.60138470,92.81348698,-177.85679920,-9.51520948,16.62167051
1.93844468,2.48787972,-0.20819061,2.81174610

>  <Name>
lig.pdb

>  <RI>
0

>  <Rbt.Current_Directory>
/home/itssahil/PROJECTS/Mol_Feturizer/New_Systems/rnas/4nyg

>  <Rbt.Executable>
rbdock ($Id: //depot/dev/client3/rdock/2013.1/src/exe/rbdock.cxx#4 $)

>  <Rbt.Library>
libRbt.so (2013.1, Build901 2013/11/27)

>  <Rbt.Parameter_File>
/export/apps/rDock/src/rDock_2013.1_src/data/scripts/dock_solv.prm

>  <Rbt.Receptor>
prm/pocket_docking_8.prm

>  <SCORE>
-22.5492

>  <SCORE.INTER>
-22.5916

>  <SCORE.INTER.CONST>
1

>  <SCORE.INTER.POLAR>
0

>  <SCORE.INTER.ROT>
4

>  <SCORE.INTER.SOLV>
15.2931

>  <SCORE.INTER.VDW>
-26.4254

>  <SCORE.INTER.norm>
-1.25509

>  <SCORE.INTRA>
0.0423858

>  <SCORE.INTRA.DIHEDRAL>
0.866502

>  <SCORE.INTRA.DIHEDRAL.0>
3.20029

>  <SCORE.INTRA.POLAR>
0

>  <SCORE.INTRA.POLAR.0>
0

>  <SCORE.INTRA.REPUL>
0

>  <SCORE.INTRA.REPUL.0>
0

>  <SCORE.INTRA.SOLV>
0.468759

>  <SCORE.INTRA.SOLV.lig_0>
-19.3885

>  <SCORE.INTRA.VDW>
-0.625244

>  <SCORE.INTRA.VDW.0>
-1.12705

>  <SCORE.INTRA.norm>
0.00235477

>  <SCORE.RESTR>
0

>  <SCORE.RESTR.CAVITY>
0

>  <SCORE.RESTR.norm>
0

>  <SCORE.SYSTEM>
0

>  <SCORE.SYSTEM.CONST>
0

>  <SCORE.SYSTEM.DIHEDRAL>
0

>  <SCORE.SYSTEM.SOLV>
0

>  <SCORE.SYSTEM.norm>
0

>  <SCORE.heavy>
18

>  <SCORE.norm>
-1.25273

>  <RMSD>
3.960

$$$$
lig.pdb
 OpenBabel11021811503D
libRbt.so/2013.1/901 2013/11/27
 18 19  0  0  0  0  0  0  0  0999 V2000
  -15.2698   15.9253    4.1361 C   0  0  0  0  0  0  0  0  0  0  0  0
  -11.5248   12.9761    3.2365 N   0  0  0  0  0  0  0  0  0  0  0  0
   -8.9405   16.2509   -0.1774 C   0  0  0  0  0  0  0  0  0  0  0  0
   -4.9436   19.1907   -1.1010 O   0  0  0  0  0  0  0  0  0  0  0  0
   -5.5441   18.4411   -0.0539 C   0  0  0  0  0  0  0  0  0  0  0  0
   -7.0571   18.7277    0.0067 C   0  0  0  0  0  0  0  0  0  0  0  0
   -8.3855   16.8737    3.4717 C   0  0  0  0  0  0  0  0  0  0  0  0
   -7.3997   18.1743    2.8883 S   0  0  0  0  0  0  0  0  0  0  0  0
   -7.6374   17.9181    1.1452 C   0  0  0  0  0  0  0  0  0  0  0  0
   -8.4681   16.8250    1.1478 C   0  0  0  0  0  0  0  0  0  0  0  0
   -8.8361   16.3072    2.3596 N   0  0  0  0  0  0  0  0  0  0  0  0
   -9.7601   15.1221    2.4586 C   0  0  0  0  0  0  0  0  0  0  0  0
  -12.0374   14.2730    3.2589 C   0  0  0  0  0  0  0  0  0  0  0  0
  -13.3306   14.4864    3.6510 N   0  0  0  0  0  0  0  0  0  0  0  0
  -13.8440   15.7190    3.6831 C   0  0  0  0  0  0  0  0  0  0  0  0
  -13.1042   16.7737    3.3287 N   0  0  0  0  0  0  0  0  0  0  0  0
  -11.8120   16.6397    2.9318 C   0  0  0  0  0  0  0  0  0  0  0  0
  -11.2158   15.3746    2.8835 C   0  0  0  0  0  0  0  0  0  0  0  0
  5  4  1  0  0  0  0
  5  6  1  0  0  0  0
  7  8  2  0  0  0  0
  7 11  1  0  0  0  0
  8  9  1  0  0  0  0
  9 10  2  0  0  0  0
  9  6  1  0  0  0  0
 10  3  1  0  0  0  0
 11 12  1  0  0  0  0
 11 10  1  0  0  0  0
 12 18  1  0  0  0  0
 13  2  1  0  0  0  0
 13 14  2  0  0  0  0
 15 14  1  0  0  0  0
 15  1  1  0  0  0  0
 16 15  2  0  0  0  0
 17 18  2  0  0  0  0
 17 16  1  0  0  0  0
 18 13  1  0  0  0  0
M  END
>  <CHROM.1>
-179.34829576,70.41978292,74.15916905,-166.88995647,-9.72596515,16.59543835
2.18577129,2.84402017,-0.50404142,-2.90930194

>  <Name>
lig.pdb

>  <RI>
0

>  <Rbt.Current_Directory>
/home/itssahil/PROJECTS/Mol_Feturizer/New_Systems/rnas/4nyg

>  <Rbt.Executable>
rbdock ($Id: //depot/dev/client3/rdock/2013.1/src/exe/rbdock.cxx#4 $)

>  <Rbt.Library>
libRbt.so (2013.1, Build901 2013/11/27)

>  <Rbt.Parameter_File>
/export/apps/rDock/src/rDock_2013.1_src/data/scripts/dock_solv.prm

>  <Rbt.Receptor>
prm/pocket_docking_4.prm

>  <SCORE>
-22.9466

>  <SCORE.INTER>
-22.5353

>  <SCORE.INTER.CONST>
1

>  <SCORE.INTER.POLAR>
0

>  <SCORE.INTER.ROT>
4

>  <SCORE.INTER.SOLV>
15.6228

>  <SCORE.INTER.VDW>
-26.4978

>  <SCORE.INTER.norm>
-1.25196

>  <SCORE.INTRA>
-0.41234

>  <SCORE.INTRA.DIHEDRAL>
0.155618

>  <SCORE.INTRA.DIHEDRAL.0>
3.20029

>  <SCORE.INTRA.POLAR>
0

>  <SCORE.INTRA.POLAR.0>
0

>  <SCORE.INTRA.REPUL>
0

>  <SCORE.INTRA.REPUL.0>
0

>  <SCORE.INTRA.SOLV>
-0.0272433

>  <SCORE.INTRA.SOLV.lig_0>
-19.3885

>  <SCORE.INTRA.VDW>
-0.476527

>  <SCORE.INTRA.VDW.0>
-1.12705

>  <SCORE.INTRA.norm>
-0.0229078

>  <SCORE.RESTR>
0.00103742

>  <SCORE.RESTR.CAVITY>
0.00103742

>  <SCORE.RESTR.norm>
5.76344e-05

>  <SCORE.SYSTEM>
0

>  <SCORE.SYSTEM.CONST>
0

>  <SCORE.SYSTEM.DIHEDRAL>
0

>  <SCORE.SYSTEM.SOLV>
0

>  <SCORE.SYSTEM.norm>
0

>  <SCORE.heavy>
18

>  <SCORE.norm>
-1.27481

>  <RMSD>
4.010

$$$$
lig.pdb
 OpenBabel11021811503D
libRbt.so/2013.1/901 2013/11/27
 18 19  0  0  0  0  0  0  0  0999 V2000
  -15.0557   15.5040    3.9160 C   0  0  0  0  0  0  0  0  0  0  0  0
  -11.0474   12.8549    3.2467 N   0  0  0  0  0  0  0  0  0  0  0  0
   -9.0249   16.3225   -0.1936 C   0  0  0  0  0  0  0  0  0  0  0  0
   -5.4173   19.6511   -1.5057 O   0  0  0  0  0  0  0  0  0  0  0  0
   -5.8206   18.8652   -0.3927 C   0  0  0  0  0  0  0  0  0  0  0  0
   -7.3479   18.9499   -0.2060 C   0  0  0  0  0  0  0  0  0  0  0  0
   -8.0929   16.9850    3.3707 C   0  0  0  0  0  0  0  0  0  0  0  0
   -7.2966   18.3655    2.6894 S   0  0  0  0  0  0  0  0  0  0  0  0
   -7.7181   18.0924    0.9840 C   0  0  0  0  0  0  0  0  0  0  0  0
   -8.4478   16.9328    1.0727 C   0  0  0  0  0  0  0  0  0  0  0  0
   -8.6237   16.3839    2.3135 N   0  0  0  0  0  0  0  0  0  0  0  0
   -9.4264   15.1246    2.5079 C   0  0  0  0  0  0  0  0  0  0  0  0
  -11.6631   14.1061    3.2201 C   0  0  0  0  0  0  0  0  0  0  0  0
  -12.9864   14.2200    3.5484 N   0  0  0  0  0  0  0  0  0  0  0  0
  -13.5982   15.4071    3.5327 C   0  0  0  0  0  0  0  0  0  0  0  0
  -12.9297   16.5126    3.1917 N   0  0  0  0  0  0  0  0  0  0  0  0
  -11.6137   16.4777    2.8569 C   0  0  0  0  0  0  0  0  0  0  0  0
  -10.9161   15.2647    2.8608 C   0  0  0  0  0  0  0  0  0  0  0  0
  5  4  1  0  0  0  0
  5  6  1  0  0  0  0
  7  8  2  0  0  0  0
  7 11  1  0  0  0  0
  8  9  1  0  0  0  0
  9 10  2  0  0  0  0
  9  6  1  0  0  0  0
 10  3  1  0  0  0  0
 11 12  1  0  0  0  0
 11 10  1  0  0  0  0
 12 18  1  0  0  0  0
 13  2  1  0  0  0  0
 13 14  2  0  0  0  0
 15 14  1  0  0  0  0
 15  1  1  0  0  0  0
 16 15  2  0  0  0  0
 17 18  2  0  0  0  0
 17 16  1  0  0  0  0
 18 13  1  0  0  0  0
M  END
>  <CHROM.1>
179.74817578,66.79509698,85.04584525,-171.95354540,-9.61908081,16.61443498
2.05241949,2.50132071,-0.20033051,2.69772862

>  <Name>
lig.pdb

>  <RI>
0

>  <Rbt.Current_Directory>
/home/itssahil/PROJECTS/Mol_Feturizer/New_Systems/rnas/4nyg

>  <Rbt.Executable>
rbdock ($Id: //depot/dev/client3/rdock/2013.1/src/exe/rbdock.cxx#4 $)

>  <Rbt.Library>
libRbt.so (2013.1, Build901 2013/11/27)

>  <Rbt.Parameter_File>
/export/apps/rDock/src/rDock_2013.1_src/data/scripts/dock_solv.prm

>  <Rbt.Receptor>
prm/pocket_docking_8.prm

>  <SCORE>
-23.5798

>  <SCORE.INTER>
-23.0552

>  <SCORE.INTER.CONST>
1

>  <SCORE.INTER.POLAR>
0

>  <SCORE.INTER.ROT>
4

>  <SCORE.INTER.SOLV>
15.3986

>  <SCORE.INTER.VDW>
-26.7697

>  <SCORE.INTER.norm>
-1.28084

>  <SCORE.INTRA>
-0.524643

>  <SCORE.INTRA.DIHEDRAL>
0.0636075

>  <SCORE.INTRA.DIHEDRAL.0>
3.20029

>  <SCORE.INTRA.POLAR>
0

>  <SCORE.INTRA.POLAR.0>
0

>  <SCORE.INTRA.REPUL>
0

>  <SCORE.INTRA.REPUL.0>
0

>  <SCORE.INTRA.SOLV>
-0.0280367

>  <SCORE.INTRA.SOLV.lig_0>
-19.3885

>  <SCORE.INTRA.VDW>
-0.542428

>  <SCORE.INTRA.VDW.0>
-1.12705

>  <SCORE.INTRA.norm>
-0.0291468

>  <SCORE.RESTR>
0

>  <SCORE.RESTR.CAVITY>
0

>  <SCORE.RESTR.norm>
0

>  <SCORE.SYSTEM>
0

>  <SCORE.SYSTEM.CONST>
0

>  <SCORE.SYSTEM.DIHEDRAL>
0

>  <SCORE.SYSTEM.SOLV>
0

>  <SCORE.SYSTEM.norm>
0

>  <SCORE.heavy>
18

>  <SCORE.norm>
-1.30999

>  <RMSD>
4.025

$$$$
lig.pdb
 OpenBabel11021811503D
libRbt.so/2013.1/901 2013/11/27
 18 19  0  0  0  0  0  0  0  0999 V2000
  -15.0934   15.5635    3.9510 C   0  0  0  0  0  0  0  0  0  0  0  0
  -11.1403   12.8710    3.1413 N   0  0  0  0  0  0  0  0  0  0  0  0
   -8.9870   16.2801   -0.2936 C   0  0  0  0  0  0  0  0  0  0  0  0
   -5.3049   19.5890   -1.4976 O   0  0  0  0  0  0  0  0  0  0  0  0
   -5.7551   18.8687   -0.3585 C   0  0  0  0  0  0  0  0  0  0  0  0
   -7.2941   18.8972   -0.2840 C   0  0  0  0  0  0  0  0  0  0  0  0
   -8.1929   16.9987    3.2931 C   0  0  0  0  0  0  0  0  0  0  0  0
   -7.3614   18.3626    2.6206 S   0  0  0  0  0  0  0  0  0  0  0  0
   -7.7167   18.0626    0.9047 C   0  0  0  0  0  0  0  0  0  0  0  0
   -8.4567   16.9089    0.9840 C   0  0  0  0  0  0  0  0  0  0  0  0
   -8.6851   16.3824    2.2261 N   0  0  0  0  0  0  0  0  0  0  0  0
   -9.5030   15.1312    2.4098 C   0  0  0  0  0  0  0  0  0  0  0  0
  -11.7380   14.1312    3.1524 C   0  0  0  0  0  0  0  0  0  0  0  0
  -13.0519   14.2574    3.5126 N   0  0  0  0  0  0  0  0  0  0  0  0
  -13.6464   15.4532    3.5333 C   0  0  0  0  0  0  0  0  0  0  0  0
  -12.9695   16.5555    3.1985 N   0  0  0  0  0  0  0  0  0  0  0  0
  -11.6619   16.5084    2.8336 C   0  0  0  0  0  0  0  0  0  0  0  0
  -10.9822   15.2857    2.7987 C   0  0  0  0  0  0  0  0  0  0  0  0
  5  4  1  0  0  0  0
  5  6  1  0  0  0  0
  7  8  2  0  0  0  0
  7 11  1  0  0  0  0
  8  9  1  0  0  0  0
  9 10  2  0  0  0  0
  9  6  1  0  0  0  0
 10  3  1  0  0  0  0
 11 12  1  0  0  0  0
 11 10  1  0  0  0  0
 12 18  1  0  0  0  0
 13  2  1  0  0  0  0
 13 14  2  0  0  0  0
 15 14  1  0  0  0  0
 15  1  1  0  0  0  0
 16 15  2  0  0  0  0
 17 18  2  0  0  0  0
 17 16  1  0  0  0  0
 18 13  1  0  0  0  0
M  END
>  <CHROM.1>
177.31362373,63.48775348,80.80287879,-171.75020915,-9.64807489,16.61803363
2.00276008,2.63520395,-0.43555921,3.07278642

>  <Name>
lig.pdb

>  <RI>
0

>  <Rbt.Current_Directory>
/home/itssahil/PROJECTS/Mol_Feturizer/New_Systems/rnas/4nyg

>  <Rbt.Executable>
rbdock ($Id: //depot/dev/client3/rdock/2013.1/src/exe/rbdock.cxx#4 $)

>  <Rbt.Library>
libRbt.so (2013.1, Build901 2013/11/27)

>  <Rbt.Parameter_File>
/export/apps/rDock/src/rDock_2013.1_src/data/scripts/dock_solv.prm

>  <Rbt.Receptor>
prm/blind_docking_40.prm

>  <SCORE>
-23.48

>  <SCORE.INTER>
-22.9835

>  <SCORE.INTER.CONST>
1

>  <SCORE.INTER.POLAR>
0

>  <SCORE.INTER.ROT>
4

>  <SCORE.INTER.SOLV>
15.1702

>  <SCORE.INTER.VDW>
-26.6457

>  <SCORE.INTER.norm>
-1.27686

>  <SCORE.INTRA>
-0.496549

>  <SCORE.INTRA.DIHEDRAL>
0.0258202

>  <SCORE.INTRA.DIHEDRAL.0>
3.20029

>  <SCORE.INTRA.POLAR>
0

>  <SCORE.INTRA.POLAR.0>
0

>  <SCORE.INTRA.REPUL>
0

>  <SCORE.INTRA.REPUL.0>
0

>  <SCORE.INTRA.SOLV>
-0.0275678

>  <SCORE.INTRA.SOLV.lig_0>
-19.3885

>  <SCORE.INTRA.VDW>
-0.495675

>  <SCORE.INTRA.VDW.0>
-1.12705

>  <SCORE.INTRA.norm>
-0.027586

>  <SCORE.RESTR>
0

>  <SCORE.RESTR.CAVITY>
0

>  <SCORE.RESTR.norm>
0

>  <SCORE.SYSTEM>
0

>  <SCORE.SYSTEM.CONST>
0

>  <SCORE.SYSTEM.DIHEDRAL>
0

>  <SCORE.SYSTEM.SOLV>
0

>  <SCORE.SYSTEM.norm>
0

>  <SCORE.heavy>
18

>  <SCORE.norm>
-1.30444

>  <RMSD>
4.031

$$$$
lig.pdb
 OpenBabel11021811503D
libRbt.so/2013.1/901 2013/11/27
 18 19  0  0  0  0  0  0  0  0999 V2000
  -14.8792   15.0501    3.7934 C   0  0  0  0  0  0  0  0  0  0  0  0
  -10.7663   12.8181    2.5150 N   0  0  0  0  0  0  0  0  0  0  0  0
   -9.1663   16.5701   -0.3116 C   0  0  0  0  0  0  0  0  0  0  0  0
   -5.4015   18.9917    0.1764 O   0  0  0  0  0  0  0  0  0  0  0  0
   -6.3211   19.1212   -0.8991 C   0  0  0  0  0  0  0  0  0  0  0  0
   -7.7465   19.3445   -0.3575 C   0  0  0  0  0  0  0  0  0  0  0  0
   -8.0278   17.2201    3.1945 C   0  0  0  0  0  0  0  0  0  0  0  0
   -7.4180   18.6883    2.5041 S   0  0  0  0  0  0  0  0  0  0  0  0
   -7.9426   18.4233    0.8263 C   0  0  0  0  0  0  0  0  0  0  0  0
   -8.5524   17.1975    0.9287 C   0  0  0  0  0  0  0  0  0  0  0  0
   -8.5804   16.6005    2.1595 N   0  0  0  0  0  0  0  0  0  0  0  0
   -9.2453   15.2656    2.3691 C   0  0  0  0  0  0  0  0  0  0  0  0
  -11.4341   14.0103    2.7944 C   0  0  0  0  0  0  0  0  0  0  0  0
  -12.7595   13.9842    3.1327 N   0  0  0  0  0  0  0  0  0  0  0  0
  -13.4207   15.1118    3.4069 C   0  0  0  0  0  0  0  0  0  0  0  0
  -12.8007   16.2942    3.3533 N   0  0  0  0  0  0  0  0  0  0  0  0
  -11.4859   16.3981    3.0282 C   0  0  0  0  0  0  0  0  0  0  0  0
  -10.7380   15.2519    2.7368 C   0  0  0  0  0  0  0  0  0  0  0  0
  5  4  1  0  0  0  0
  5  6  1  0  0  0  0
  7  8  2  0  0  0  0
  7 11  1  0  0  0  0
  8  9  1  0  0  0  0
  9 10  2  0  0  0  0
  9  6  1  0  0  0  0
 10  3  1  0  0  0  0
 11 12  1  0  0  0  0
 11 10  1  0  0  0  0
 12 18  1  0  0  0  0
 13  2  1  0  0  0  0
 13 14  2  0  0  0  0
 15 14  1  0  0  0  0
 15  1  1  0  0  0  0
 16 15  2  0  0  0  0
 17 18  2  0  0  0  0
 17 16  1  0  0  0  0
 18 13  1  0  0  0  0
M  END
>  <CHROM.1>
-41.39658214,81.87453722,89.41052354,172.96692008,-9.61173341,16.64602704
1.97014187,2.69681255,-0.54040464,-2.89997736

>  <Name>
lig.pdb

>  <RI>
0

>  <Rbt.Current_Directory>
/home/itssahil/PROJECTS/Mol_Feturizer/New_Systems/rnas/4nyg

>  <Rbt.Executable>
rbdock ($Id: //depot/dev/client3/rdock/2013.1/src/exe/rbdock.cxx#4 $)

>  <Rbt.Library>
libRbt.so (2013.1, Build901 2013/11/27)

>  <Rbt.Parameter_File>
/export/apps/rDock/src/rDock_2013.1_src/data/scripts/dock_solv.prm

>  <Rbt.Receptor>
prm/blind_docking_80.prm

>  <SCORE>
-21.9963

>  <SCORE.INTER>
-22.8279

>  <SCORE.INTER.CONST>
1

>  <SCORE.INTER.POLAR>
0

>  <SCORE.INTER.ROT>
4

>  <SCORE.INTER.SOLV>
15.7453

>  <SCORE.INTER.VDW>
-26.7337

>  <SCORE.INTER.norm>
-1.26822

>  <SCORE.INTRA>
0.83159

>  <SCORE.INTRA.DIHEDRAL>
1.97417

>  <SCORE.INTRA.DIHEDRAL.0>
3.20029

>  <SCORE.INTRA.POLAR>
0

>  <SCORE.INTRA.POLAR.0>
0

>  <SCORE.INTRA.REPUL>
0

>  <SCORE.INTRA.REPUL.0>
0

>  <SCORE.INTRA.SOLV>
0.563357

>  <SCORE.INTRA.SOLV.lig_0>
-19.3885

>  <SCORE.INTRA.VDW>
-0.437171

>  <SCORE.INTRA.VDW.0>
-1.12705

>  <SCORE.INTRA.norm>
0.0461995

>  <SCORE.RESTR>
0

>  <SCORE.RESTR.CAVITY>
0

>  <SCORE.RESTR.norm>
0

>  <SCORE.SYSTEM>
0

>  <SCORE.SYSTEM.CONST>
0

>  <SCORE.SYSTEM.DIHEDRAL>
0

>  <SCORE.SYSTEM.SOLV>
0

>  <SCORE.SYSTEM.norm>
0

>  <SCORE.heavy>
18

>  <SCORE.norm>
-1.22202

>  <RMSD>
4.037

$$$$
lig.pdb
 OpenBabel11021811503D
libRbt.so/2013.1/901 2013/11/27
 18 19  0  0  0  0  0  0  0  0999 V2000
  -15.1318   15.7003    4.0018 C   0  0  0  0  0  0  0  0  0  0  0  0
  -11.2495   12.9548    3.0419 N   0  0  0  0  0  0  0  0  0  0  0  0
   -8.9863   16.2936   -0.2012 C   0  0  0  0  0  0  0  0  0  0  0  0
   -5.2859   19.5100   -1.4895 O   0  0  0  0  0  0  0  0  0  0  0  0
   -5.7525   18.7593   -0.3770 C   0  0  0  0  0  0  0  0  0  0  0  0
   -7.2809   18.9023   -0.2410 C   0  0  0  0  0  0  0  0  0  0  0  0
   -8.2164   17.0942    3.3735 C   0  0  0  0  0  0  0  0  0  0  0  0
   -7.3731   18.4377    2.6750 S   0  0  0  0  0  0  0  0  0  0  0  0
   -7.7167   18.0984    0.9641 C   0  0  0  0  0  0  0  0  0  0  0  0
   -8.4628   16.9503    1.0652 C   0  0  0  0  0  0  0  0  0  0  0  0
   -8.7034   16.4549    2.3176 N   0  0  0  0  0  0  0  0  0  0  0  0
   -9.5286   15.2122    2.5248 C   0  0  0  0  0  0  0  0  0  0  0  0
  -11.8078   14.2287    3.1457 C   0  0  0  0  0  0  0  0  0  0  0  0
  -13.1238   14.3682    3.4927 N   0  0  0  0  0  0  0  0  0  0  0  0
  -13.6811   15.5772    3.6009 C   0  0  0  0  0  0  0  0  0  0  0  0
  -12.9638   16.6803    3.3686 N   0  0  0  0  0  0  0  0  0  0  0  0
  -11.6515   16.6202    3.0231 C   0  0  0  0  0  0  0  0  0  0  0  0
  -11.0097   15.3829    2.9001 C   0  0  0  0  0  0  0  0  0  0  0  0
  5  4  1  0  0  0  0
  5  6  1  0  0  0  0
  7  8  2  0  0  0  0
  7 11  1  0  0  0  0
  8  9  1  0  0  0  0
  9 10  2  0  0  0  0
  9  6  1  0  0  0  0
 10  3  1  0  0  0  0
 11 12  1  0  0  0  0
 11 10  1  0  0  0  0
 12 18  1  0  0  0  0
 13  2  1  0  0  0  0
 13 14  2  0  0  0  0
 15 14  1  0  0  0  0
 15  1  1  0  0  0  0
 16 15  2  0  0  0  0
 17 18  2  0  0  0  0
 17 16  1  0  0  0  0
 18 13  1  0  0  0  0
M  END
>  <CHROM.1>
-179.35605597,68.54940446,80.72596912,-177.97478686,-9.66833132,16.67910131
2.06041157,2.81023984,-0.55977547,-2.88622536

>  <Name>
lig.pdb

>  <RI>
0

>  <Rbt.Current_Directory>
/home/itssahil/PROJECTS/Mol_Feturizer/New_Systems/rnas/4nyg

>  <Rbt.Executable>
rbdock ($Id: //depot/dev/client3/rdock/2013.1/src/exe/rbdock.cxx#4 $)

>  <Rbt.Library>
libRbt.so (2013.1, Build901 2013/11/27)

>  <Rbt.Parameter_File>
/export/apps/rDock/src/rDock_2013.1_src/data/scripts/dock_solv.prm

>  <Rbt.Receptor>
prm/pocket_docking_8.prm

>  <SCORE>
-23.3967

>  <SCORE.INTER>
-22.938

>  <SCORE.INTER.CONST>
1

>  <SCORE.INTER.POLAR>
0

>  <SCORE.INTER.ROT>
4

>  <SCORE.INTER.SOLV>
15.448

>  <SCORE.INTER.VDW>
-26.708

>  <SCORE.INTER.norm>
-1.27433

>  <SCORE.INTRA>
-0.458664

>  <SCORE.INTRA.DIHEDRAL>
0.107485

>  <SCORE.INTRA.DIHEDRAL.0>
3.20029

>  <SCORE.INTRA.POLAR>
0

>  <SCORE.INTRA.POLAR.0>
0

>  <SCORE.INTRA.REPUL>
0

>  <SCORE.INTRA.REPUL.0>
0

>  <SCORE.INTRA.SOLV>
-0.0272117

>  <SCORE.INTRA.SOLV.lig_0>
-19.3885

>  <SCORE.INTRA.VDW>
-0.498801

>  <SCORE.INTRA.VDW.0>
-1.12705

>  <SCORE.INTRA.norm>
-0.0254813

>  <SCORE.RESTR>
0

>  <SCORE.RESTR.CAVITY>
0

>  <SCORE.RESTR.norm>
0

>  <SCORE.SYSTEM>
0

>  <SCORE.SYSTEM.CONST>
0

>  <SCORE.SYSTEM.DIHEDRAL>
0

>  <SCORE.SYSTEM.SOLV>
0

>  <SCORE.SYSTEM.norm>
0

>  <SCORE.heavy>
18

>  <SCORE.norm>
-1.29982

>  <RMSD>
4.057

$$$$
lig.pdb
 OpenBabel11021811503D
libRbt.so/2013.1/901 2013/11/27
 18 19  0  0  0  0  0  0  0  0999 V2000
   -7.8966    9.2701    1.6199 C   0  0  0  0  0  0  0  0  0  0  0  0
  -11.7795   12.1176    2.2090 N   0  0  0  0  0  0  0  0  0  0  0  0
   -8.1936   15.7222    3.7370 C   0  0  0  0  0  0  0  0  0  0  0  0
   -5.0849   16.6824    1.5009 O   0  0  0  0  0  0  0  0  0  0  0  0
   -5.4366   18.0500    1.6588 C   0  0  0  0  0  0  0  0  0  0  0  0
   -6.6860   18.1793    2.5517 C   0  0  0  0  0  0  0  0  0  0  0  0
   -9.6705   16.3209    0.3500 C   0  0  0  0  0  0  0  0  0  0  0  0
   -8.5313   17.6266    0.3119 S   0  0  0  0  0  0  0  0  0  0  0  0
   -7.7982   17.3777    1.9123 C   0  0  0  0  0  0  0  0  0  0  0  0
   -8.5064   16.2916    2.3634 C   0  0  0  0  0  0  0  0  0  0  0  0
   -9.4652   15.7689    1.5390 N   0  0  0  0  0  0  0  0  0  0  0  0
  -10.2765   14.5661    1.9428 C   0  0  0  0  0  0  0  0  0  0  0  0
  -10.4043   12.0112    2.0015 C   0  0  0  0  0  0  0  0  0  0  0  0
   -9.8224   10.7756    1.9211 N   0  0  0  0  0  0  0  0  0  0  0  0
   -8.5082   10.6472    1.7207 C   0  0  0  0  0  0  0  0  0  0  0  0
   -7.7301   11.7264    1.5971 N   0  0  0  0  0  0  0  0  0  0  0  0
   -8.2373   12.9848    1.6627 C   0  0  0  0  0  0  0  0  0  0  0  0
   -9.6076   13.1841    1.8646 C   0  0  0  0  0  0  0  0  0  0  0  0
  5  4  1  0  0  0  0
  5  6  1  0  0  0  0
  7  8  2  0  0  0  0
  7 11  1  0  0  0  0
  8  9  1  0  0  0  0
  9 10  2  0  0  0  0
  9  6  1  0  0  0  0
 10  3  1  0  0  0  0
 11 12  1  0  0  0  0
 11 10  1  0  0  0  0
 12 18  1  0  0  0  0
 13  2  1  0  0  0  0
 13 14  2  0  0  0  0
 15 14  1  0  0  0  0
 15  1  1  0  0  0  0
 16 15  2  0  0  0  0
 17 18  2  0  0  0  0
 17 16  1  0  0  0  0
 18 13  1  0  0  0  0
M  END
>  <CHROM.1>
-57.41181705,-61.28944783,102.44201383,-168.65910319,-8.48521400,14.64753862
1.70511552,-1.89150400,-0.07450621,-0.07767737

>  <Name>
lig.pdb

>  <RI>
0

>  <Rbt.Current_Directory>
/home/itssahil/PROJECTS/Mol_Feturizer/New_Systems/rnas/4nyg

>  <Rbt.Executable>
rbdock ($Id: //depot/dev/client3/rdock/2013.1/src/exe/rbdock.cxx#4 $)

>  <Rbt.Library>
libRbt.so (2013.1, Build901 2013/11/27)

>  <Rbt.Parameter_File>
/export/apps/rDock/src/rDock_2013.1_src/data/scripts/dock_solv.prm

>  <Rbt.Receptor>
prm/blind_docking_20.prm

>  <SCORE>
-10.6401

>  <SCORE.INTER>
-11.3821

>  <SCORE.INTER.CONST>
1

>  <SCORE.INTER.POLAR>
0

>  <SCORE.INTER.ROT>
4

>  <SCORE.INTER.SOLV>
13.0729

>  <SCORE.INTER.VDW>
-18.2123

>  <SCORE.INTER.norm>
-0.632337

>  <SCORE.INTRA>
-0.392962

>  <SCORE.INTRA.DIHEDRAL>
-0.000450621

>  <SCORE.INTRA.DIHEDRAL.0>
3.20029

>  <SCORE.INTRA.POLAR>
0

>  <SCORE.INTRA.POLAR.0>
0

>  <SCORE.INTRA.REPUL>
0

>  <SCORE.INTRA.REPUL.0>
0

>  <SCORE.INTRA.SOLV>
0.547234

>  <SCORE.INTRA.SOLV.lig_0>
-19.3885

>  <SCORE.INTRA.VDW>
-0.666354

>  <SCORE.INTRA.VDW.0>
-1.12705

>  <SCORE.INTRA.norm>
-0.0218312

>  <SCORE.RESTR>
1.13492

>  <SCORE.RESTR.CAVITY>
1.13492

>  <SCORE.RESTR.norm>
0.0630509

>  <SCORE.SYSTEM>
0

>  <SCORE.SYSTEM.CONST>
0

>  <SCORE.SYSTEM.DIHEDRAL>
0

>  <SCORE.SYSTEM.SOLV>
0

>  <SCORE.SYSTEM.norm>
0

>  <SCORE.heavy>
18

>  <SCORE.norm>
-0.591118

>  <RMSD>
4.074

$$$$
lig.pdb
 OpenBabel11021811503D
libRbt.so/2013.1/901 2013/11/27
 18 19  0  0  0  0  0  0  0  0999 V2000
   -7.9411    9.2889    1.6512 C   0  0  0  0  0  0  0  0  0  0  0  0
  -11.8133   12.1412    2.2860 N   0  0  0  0  0  0  0  0  0  0  0  0
   -8.1971   15.7575    3.7580 C   0  0  0  0  0  0  0  0  0  0  0  0
   -5.1254   16.6865    1.4921 O   0  0  0  0  0  0  0  0  0  0  0  0
   -5.4725   18.0578    1.6270 C   0  0  0  0  0  0  0  0  0  0  0  0
   -6.7119   18.2075    2.5304 C   0  0  0  0  0  0  0  0  0  0  0  0
   -9.7324   16.3323    0.3928 C   0  0  0  0  0  0  0  0  0  0  0  0
   -8.5950   17.6385    0.3264 S   0  0  0  0  0  0  0  0  0  0  0  0
   -7.8343   17.4009    1.9156 C   0  0  0  0  0  0  0  0  0  0  0  0
   -8.5339   16.3173    2.3861 C   0  0  0  0  0  0  0  0  0  0  0  0
   -9.5063   15.7885    1.5818 N   0  0  0  0  0  0  0  0  0  0  0  0
  -10.3096   14.5879    2.0076 C   0  0  0  0  0  0  0  0  0  0  0  0
  -10.4406   12.0331    2.0637 C   0  0  0  0  0  0  0  0  0  0  0  0
   -9.8613   10.7967    1.9752 N   0  0  0  0  0  0  0  0  0  0  0  0
   -8.5495   10.6667    1.7606 C   0  0  0  0  0  0  0  0  0  0  0  0
   -7.7712   11.7450    1.6305 N   0  0  0  0  0  0  0  0  0  0  0  0
   -8.2758   13.0040    1.7034 C   0  0  0  0  0  0  0  0  0  0  0  0
   -9.6436   13.2050    1.9202 C   0  0  0  0  0  0  0  0  0  0  0  0
  5  4  1  0  0  0  0
  5  6  1  0  0  0  0
  7  8  2  0  0  0  0
  7 11  1  0  0  0  0
  8  9  1  0  0  0  0
  9 10  2  0  0  0  0
  9  6  1  0  0  0  0
 10  3  1  0  0  0  0
 11 12  1  0  0  0  0
 11 10  1  0  0  0  0
 12 18  1  0  0  0  0
 13  2  1  0  0  0  0
 13 14  2  0  0  0  0
 15 14  1  0  0  0  0
 15  1  1  0  0  0  0
 16 15  2  0  0  0  0
 17 18  2  0  0  0  0
 17 16  1  0  0  0  0
 18 13  1  0  0  0  0
M  END
>  <CHROM.1>
-57.64149181,-62.02966456,102.12068094,-167.95872174,-8.52465946,14.66649052
1.73360146,-1.89064415,-0.06205406,-0.08115268

>  <Name>
lig.pdb

>  <RI>
0

>  <Rbt.Current_Directory>
/home/itssahil/PROJECTS/Mol_Feturizer/New_Systems/rnas/4nyg

>  <Rbt.Executable>
rbdock ($Id: //depot/dev/client3/rdock/2013.1/src/exe/rbdock.cxx#4 $)

>  <Rbt.Library>
libRbt.so (2013.1, Build901 2013/11/27)

>  <Rbt.Parameter_File>
/export/apps/rDock/src/rDock_2013.1_src/data/scripts/dock_solv.prm

>  <Rbt.Receptor>
prm/blind_docking_20.prm

>  <SCORE>
-10.7011

>  <SCORE.INTER>
-11.4518

>  <SCORE.INTER.CONST>
1

>  <SCORE.INTER.POLAR>
0

>  <SCORE.INTER.ROT>
4

>  <SCORE.INTER.SOLV>
12.9811

>  <SCORE.INTER.VDW>
-18.2282

>  <SCORE.INTER.norm>
-0.636211

>  <SCORE.INTRA>
-0.402076

>  <SCORE.INTRA.DIHEDRAL>
0.000914024

>  <SCORE.INTRA.DIHEDRAL.0>
3.20029

>  <SCORE.INTRA.POLAR>
0

>  <SCORE.INTRA.POLAR.0>
0

>  <SCORE.INTRA.REPUL>
0

>  <SCORE.INTRA.REPUL.0>
0

>  <SCORE.INTRA.SOLV>
0.547762

>  <SCORE.INTRA.SOLV.lig_0>
-19.3885

>  <SCORE.INTRA.VDW>
-0.676415

>  <SCORE.INTRA.VDW.0>
-1.12705

>  <SCORE.INTRA.norm>
-0.0223376

>  <SCORE.RESTR>
1.15277

>  <SCORE.RESTR.CAVITY>
1.15277

>  <SCORE.RESTR.norm>
0.0640428

>  <SCORE.SYSTEM>
0

>  <SCORE.SYSTEM.CONST>
0

>  <SCORE.SYSTEM.DIHEDRAL>
0

>  <SCORE.SYSTEM.SOLV>
0

>  <SCORE.SYSTEM.norm>
0

>  <SCORE.heavy>
18

>  <SCORE.norm>
-0.594506

>  <RMSD>
4.083

$$$$
lig.pdb
 OpenBabel11021811503D
libRbt.so/2013.1/901 2013/11/27
 18 19  0  0  0  0  0  0  0  0999 V2000
  -12.9125   13.3007    3.2063 C   0  0  0  0  0  0  0  0  0  0  0  0
   -8.3465   13.4371    1.5737 N   0  0  0  0  0  0  0  0  0  0  0  0
   -5.4907   17.5004    1.1492 C   0  0  0  0  0  0  0  0  0  0  0  0
   -7.3866   20.4870   -2.8164 O   0  0  0  0  0  0  0  0  0  0  0  0
   -6.4739   20.7751   -1.7662 C   0  0  0  0  0  0  0  0  0  0  0  0
   -5.8405   19.4731   -1.2385 C   0  0  0  0  0  0  0  0  0  0  0  0
   -9.1525   17.5671    0.3758 C   0  0  0  0  0  0  0  0  0  0  0  0
   -8.6634   18.6961   -0.8449 S   0  0  0  0  0  0  0  0  0  0  0  0
   -6.9164   18.6936   -0.5153 C   0  0  0  0  0  0  0  0  0  0  0  0
   -6.8450   17.8116    0.5344 C   0  0  0  0  0  0  0  0  0  0  0  0
   -8.0117   17.2478    0.9735 N   0  0  0  0  0  0  0  0  0  0  0  0
   -8.0260   16.2548    2.1057 C   0  0  0  0  0  0  0  0  0  0  0  0
   -9.4355   14.1193    2.1160 C   0  0  0  0  0  0  0  0  0  0  0  0
  -10.5953   13.4448    2.3842 N   0  0  0  0  0  0  0  0  0  0  0  0
  -11.6513   14.0749    2.9056 C   0  0  0  0  0  0  0  0  0  0  0  0
  -11.5988   15.3827    3.1745 N   0  0  0  0  0  0  0  0  0  0  0  0
  -10.4807   16.1169    2.9381 C   0  0  0  0  0  0  0  0  0  0  0  0
   -9.3398   15.5122    2.3988 C   0  0  0  0  0  0  0  0  0  0  0  0
  5  4  1  0  0  0  0
  5  6  1  0  0  0  0
  7  8  2  0  0  0  0
  7 11  1  0  0  0  0
  8  9  1  0  0  0  0
  9 10  2  0  0  0  0
  9  6  1  0  0  0  0
 10  3  1  0  0  0  0
 11 12  1  0  0  0  0
 11 10  1  0  0  0  0
 12 18  1  0  0  0  0
 13  2  1  0  0  0  0
 13 14  2  0  0  0  0
 15 14  1  0  0  0  0
 15  1  1  0  0  0  0
 16 15  2  0  0  0  0
 17 18  2  0  0  0  0
 17 16  1  0  0  0  0
 18 13  1  0  0  0  0
M  END
>  <CHROM.1>
-69.41151375,29.67944430,7.95437549,110.16976582,-8.70762777,16.84275070
0.86442833,2.11693614,-0.00028260,2.49807482

>  <Name>
lig.pdb

>  <RI>
0

>  <Rbt.Current_Directory>
/home/itssahil/PROJECTS/Mol_Feturizer/New_Systems/rnas/4nyg

>  <Rbt.Executable>
rbdock ($Id: //depot/dev/client3/rdock/2013.1/src/exe/rbdock.cxx#4 $)

>  <Rbt.Library>
libRbt.so (2013.1, Build901 2013/11/27)

>  <Rbt.Parameter_File>
/export/apps/rDock/src/rDock_2013.1_src/data/scripts/dock_solv.prm

>  <Rbt.Receptor>
prm/blind_docking_100.prm

>  <SCORE>
-12.3779

>  <SCORE.INTER>
-14.063

>  <SCORE.INTER.CONST>
1

>  <SCORE.INTER.POLAR>
0

>  <SCORE.INTER.ROT>
4

>  <SCORE.INTER.SOLV>
12.9872

>  <SCORE.INTER.VDW>
-19.971

>  <SCORE.INTER.norm>
-0.781276

>  <SCORE.INTRA>
1.62814

>  <SCORE.INTRA.DIHEDRAL>
1.60015

>  <SCORE.INTRA.DIHEDRAL.0>
3.20029

>  <SCORE.INTRA.POLAR>
0

>  <SCORE.INTRA.POLAR.0>
0

>  <SCORE.INTRA.REPUL>
0

>  <SCORE.INTRA.REPUL.0>
0

>  <SCORE.INTRA.SOLV>
0.54473

>  <SCORE.INTRA.SOLV.lig_0>
-19.3885

>  <SCORE.INTRA.VDW>
0.555702

>  <SCORE.INTRA.VDW.0>
-1.12705

>  <SCORE.INTRA.norm>
0.0904524

>  <SCORE.RESTR>
0.0569139

>  <SCORE.RESTR.CAVITY>
0.0569139

>  <SCORE.RESTR.norm>
0.00316188

>  <SCORE.SYSTEM>
0

>  <SCORE.SYSTEM.CONST>
0

>  <SCORE.SYSTEM.DIHEDRAL>
0

>  <SCORE.SYSTEM.SOLV>
0

>  <SCORE.SYSTEM.norm>
0

>  <SCORE.heavy>
18

>  <SCORE.norm>
-0.687661

>  <RMSD>
4.085

$$$$
lig.pdb
 OpenBabel11021811503D
libRbt.so/2013.1/901 2013/11/27
 18 19  0  0  0  0  0  0  0  0999 V2000
  -14.7850   14.9394    3.7407 C   0  0  0  0  0  0  0  0  0  0  0  0
  -10.5046   12.8060    2.9285 N   0  0  0  0  0  0  0  0  0  0  0  0
   -8.9513   16.3171   -0.1824 C   0  0  0  0  0  0  0  0  0  0  0  0
   -5.8959   19.9142   -1.9531 O   0  0  0  0  0  0  0  0  0  0  0  0
   -6.1457   19.2002   -0.7503 C   0  0  0  0  0  0  0  0  0  0  0  0
   -7.6601   19.1393   -0.4714 C   0  0  0  0  0  0  0  0  0  0  0  0
   -8.0028   17.3920    3.2754 C   0  0  0  0  0  0  0  0  0  0  0  0
   -7.4308   18.8077    2.4552 S   0  0  0  0  0  0  0  0  0  0  0  0
   -7.8667   18.3401    0.7963 C   0  0  0  0  0  0  0  0  0  0  0  0
   -8.4234   17.1028    1.0062 C   0  0  0  0  0  0  0  0  0  0  0  0
   -8.4792   16.6390    2.2922 N   0  0  0  0  0  0  0  0  0  0  0  0
   -9.0907   15.3019    2.6183 C   0  0  0  0  0  0  0  0  0  0  0  0
  -11.2418   13.9842    3.0469 C   0  0  0  0  0  0  0  0  0  0  0  0
  -12.5827   13.9236    3.3117 N   0  0  0  0  0  0  0  0  0  0  0  0
  -13.3100   15.0373    3.4319 C   0  0  0  0  0  0  0  0  0  0  0  0
  -12.7425   16.2389    3.2924 N   0  0  0  0  0  0  0  0  0  0  0  0
  -11.4165   16.3775    3.0322 C   0  0  0  0  0  0  0  0  0  0  0  0
  -10.6008   15.2480    2.9016 C   0  0  0  0  0  0  0  0  0  0  0  0
  5  4  1  0  0  0  0
  5  6  1  0  0  0  0
  7  8  2  0  0  0  0
  7 11  1  0  0  0  0
  8  9  1  0  0  0  0
  9 10  2  0  0  0  0
  9  6  1  0  0  0  0
 10  3  1  0  0  0  0
 11 12  1  0  0  0  0
 11 10  1  0  0  0  0
 12 18  1  0  0  0  0
 13  2  1  0  0  0  0
 13 14  2  0  0  0  0
 15 14  1  0  0  0  0
 15  1  1  0  0  0  0
 16 15  2  0  0  0  0
 17 18  2  0  0  0  0
 17 16  1  0  0  0  0
 18 13  1  0  0  0  0
M  END
>  <CHROM.1>
178.55657602,69.07680638,90.45444439,172.14643757,-9.53731417,16.68101467
1.91596778,2.71753793,-0.65961739,-2.86274018

>  <Name>
lig.pdb

>  <RI>
0

>  <Rbt.Current_Directory>
/home/itssahil/PROJECTS/Mol_Feturizer/New_Systems/rnas/4nyg

>  <Rbt.Executable>
rbdock ($Id: //depot/dev/client3/rdock/2013.1/src/exe/rbdock.cxx#4 $)

>  <Rbt.Library>
libRbt.so (2013.1, Build901 2013/11/27)

>  <Rbt.Parameter_File>
/export/apps/rDock/src/rDock_2013.1_src/data/scripts/dock_solv.prm

>  <Rbt.Receptor>
prm/pocket_docking_6.prm

>  <SCORE>
-24.3038

>  <SCORE.INTER>
-23.7791

>  <SCORE.INTER.CONST>
1

>  <SCORE.INTER.POLAR>
0

>  <SCORE.INTER.ROT>
4

>  <SCORE.INTER.SOLV>
15.0559

>  <SCORE.INTER.VDW>
-27.138

>  <SCORE.INTER.norm>
-1.32106

>  <SCORE.INTRA>
-0.524684

>  <SCORE.INTRA.DIHEDRAL>
0.137135

>  <SCORE.INTRA.DIHEDRAL.0>
3.20029

>  <SCORE.INTRA.POLAR>
0

>  <SCORE.INTRA.POLAR.0>
0

>  <SCORE.INTRA.REPUL>
0

>  <SCORE.INTRA.REPUL.0>
0

>  <SCORE.INTRA.SOLV>
-0.0348972

>  <SCORE.INTRA.SOLV.lig_0>
-19.3885

>  <SCORE.INTRA.VDW>
-0.575803

>  <SCORE.INTRA.VDW.0>
-1.12705

>  <SCORE.INTRA.norm>
-0.0291491

>  <SCORE.RESTR>
0

>  <SCORE.RESTR.CAVITY>
0

>  <SCORE.RESTR.norm>
0

>  <SCORE.SYSTEM>
0

>  <SCORE.SYSTEM.CONST>
0

>  <SCORE.SYSTEM.DIHEDRAL>
0

>  <SCORE.SYSTEM.SOLV>
0

>  <SCORE.SYSTEM.norm>
0

>  <SCORE.heavy>
18

>  <SCORE.norm>
-1.35021

>  <RMSD>
4.103

$$$$
lig.pdb
 OpenBabel11021811503D
libRbt.so/2013.1/901 2013/11/27
 18 19  0  0  0  0  0  0  0  0999 V2000
   -7.9427    9.2958    1.6053 C   0  0  0  0  0  0  0  0  0  0  0  0
  -11.8090   12.1443    2.2908 N   0  0  0  0  0  0  0  0  0  0  0  0
   -8.1188   15.7083    3.7563 C   0  0  0  0  0  0  0  0  0  0  0  0
   -5.5346   17.4993    0.4843 O   0  0  0  0  0  0  0  0  0  0  0  0
   -5.3557   17.6657    1.8840 C   0  0  0  0  0  0  0  0  0  0  0  0
   -6.6585   18.1744    2.5310 C   0  0  0  0  0  0  0  0  0  0  0  0
   -9.7664   16.3681    0.4605 C   0  0  0  0  0  0  0  0  0  0  0  0
   -8.6219   17.6674    0.3827 S   0  0  0  0  0  0  0  0  0  0  0  0
   -7.8080   17.3895    1.9386 C   0  0  0  0  0  0  0  0  0  0  0  0
   -8.4991   16.3007    2.4096 C   0  0  0  0  0  0  0  0  0  0  0  0
   -9.5031   15.7965    1.6287 N   0  0  0  0  0  0  0  0  0  0  0  0
  -10.3003   14.5924    2.0561 C   0  0  0  0  0  0  0  0  0  0  0  0
  -10.4366   12.0373    2.0666 C   0  0  0  0  0  0  0  0  0  0  0  0
   -9.8599   10.8016    1.9561 N   0  0  0  0  0  0  0  0  0  0  0  0
   -8.5483   10.6727    1.7393 C   0  0  0  0  0  0  0  0  0  0  0  0
   -7.7678   11.7515    1.6284 N   0  0  0  0  0  0  0  0  0  0  0  0
   -8.2698   13.0101    1.7237 C   0  0  0  0  0  0  0  0  0  0  0  0
   -9.6371   13.2100    1.9440 C   0  0  0  0  0  0  0  0  0  0  0  0
  5  4  1  0  0  0  0
  5  6  1  0  0  0  0
  7  8  2  0  0  0  0
  7 11  1  0  0  0  0
  8  9  1  0  0  0  0
  9 10  2  0  0  0  0
  9  6  1  0  0  0  0
 10  3  1  0  0  0  0
 11 12  1  0  0  0  0
 11 10  1  0  0  0  0
 12 18  1  0  0  0  0
 13  2  1  0  0  0  0
 13 14  2  0  0  0  0
 15 14  1  0  0  0  0
 15  1  1  0  0  0  0
 16 15  2  0  0  0  0
 17 18  2  0  0  0  0
 17 16  1  0  0  0  0
 18 13  1  0  0  0  0
M  END
>  <CHROM.1>
43.45495420,-81.17913714,103.43884717,-166.89090050,-8.53631359,14.69735280
1.70103798,-1.88736446,0.00277885,-0.07764221

>  <Name>
lig.pdb

>  <RI>
0

>  <Rbt.Current_Directory>
/home/itssahil/PROJECTS/Mol_Feturizer/New_Systems/rnas/4nyg

>  <Rbt.Executable>
rbdock ($Id: //depot/dev/client3/rdock/2013.1/src/exe/rbdock.cxx#4 $)

>  <Rbt.Library>
libRbt.so (2013.1, Build901 2013/11/27)

>  <Rbt.Parameter_File>
/export/apps/rDock/src/rDock_2013.1_src/data/scripts/dock_solv.prm

>  <Rbt.Receptor>
prm/blind_docking_20.prm

>  <SCORE>
-10.4739

>  <SCORE.INTER>
-12.3697

>  <SCORE.INTER.CONST>
1

>  <SCORE.INTER.POLAR>
0

>  <SCORE.INTER.ROT>
4

>  <SCORE.INTER.SOLV>
13.0142

>  <SCORE.INTER.VDW>
-18.8512

>  <SCORE.INTER.norm>
-0.687204

>  <SCORE.INTRA>
0.747296

>  <SCORE.INTRA.DIHEDRAL>
1.69747

>  <SCORE.INTRA.DIHEDRAL.0>
3.20029

>  <SCORE.INTRA.POLAR>
0

>  <SCORE.INTRA.POLAR.0>
0

>  <SCORE.INTRA.REPUL>
0

>  <SCORE.INTRA.REPUL.0>
0

>  <SCORE.INTRA.SOLV>
0.602253

>  <SCORE.INTRA.SOLV.lig_0>
-19.3885

>  <SCORE.INTRA.VDW>
-0.402564

>  <SCORE.INTRA.VDW.0>
-1.12705

>  <SCORE.INTRA.norm>
0.0415164

>  <SCORE.RESTR>
1.14846

>  <SCORE.RESTR.CAVITY>
1.14846

>  <SCORE.RESTR.norm>
0.0638034

>  <SCORE.SYSTEM>
0

>  <SCORE.SYSTEM.CONST>
0

>  <SCORE.SYSTEM.DIHEDRAL>
0

>  <SCORE.SYSTEM.SOLV>
0

>  <SCORE.SYSTEM.norm>
0

>  <SCORE.heavy>
18

>  <SCORE.norm>
-0.581884

>  <RMSD>
4.105

$$$$
lig.pdb
 OpenBabel11021811503D
libRbt.so/2013.1/901 2013/11/27
 18 19  0  0  0  0  0  0  0  0999 V2000
  -14.8533   14.9647    3.7215 C   0  0  0  0  0  0  0  0  0  0  0  0
  -10.6236   12.7753    2.8004 N   0  0  0  0  0  0  0  0  0  0  0  0
   -8.9743   16.3094   -0.2486 C   0  0  0  0  0  0  0  0  0  0  0  0
   -5.8462   19.9239   -1.8977 O   0  0  0  0  0  0  0  0  0  0  0  0
   -6.1249   19.1679   -0.7274 C   0  0  0  0  0  0  0  0  0  0  0  0
   -7.6441   19.1193   -0.4735 C   0  0  0  0  0  0  0  0  0  0  0  0
   -8.0644   17.3178    3.2395 C   0  0  0  0  0  0  0  0  0  0  0  0
   -7.4627   18.7389    2.4505 S   0  0  0  0  0  0  0  0  0  0  0  0
   -7.8795   18.3029    0.7781 C   0  0  0  0  0  0  0  0  0  0  0  0
   -8.4545   17.0696    0.9601 C   0  0  0  0  0  0  0  0  0  0  0  0
   -8.5353   16.5864    2.2376 N   0  0  0  0  0  0  0  0  0  0  0  0
   -9.1681   15.2522    2.5333 C   0  0  0  0  0  0  0  0  0  0  0  0
  -11.3374   13.9632    2.9576 C   0  0  0  0  0  0  0  0  0  0  0  0
  -12.6757   13.9202    3.2385 N   0  0  0  0  0  0  0  0  0  0  0  0
  -13.3808   15.0436    3.3957 C   0  0  0  0  0  0  0  0  0  0  0  0
  -12.7931   16.2378    3.2785 N   0  0  0  0  0  0  0  0  0  0  0  0
  -11.4682   16.3589    3.0043 C   0  0  0  0  0  0  0  0  0  0  0  0
  -10.6752   15.2185    2.8351 C   0  0  0  0  0  0  0  0  0  0  0  0
  5  4  1  0  0  0  0
  5  6  1  0  0  0  0
  7  8  2  0  0  0  0
  7 11  1  0  0  0  0
  8  9  1  0  0  0  0
  9 10  2  0  0  0  0
  9  6  1  0  0  0  0
 10  3  1  0  0  0  0
 11 12  1  0  0  0  0
 11 10  1  0  0  0  0
 12 18  1  0  0  0  0
 13  2  1  0  0  0  0
 13 14  2  0  0  0  0
 15 14  1  0  0  0  0
 15  1  1  0  0  0  0
 16 15  2  0  0  0  0
 17 18  2  0  0  0  0
 17 16  1  0  0  0  0
 18 13  1  0  0  0  0
M  END
>  <CHROM.1>
179.90572317,68.96306259,88.64894957,172.37929040,-9.58126850,16.65420900
1.88114549,2.75244231,-0.66314739,-2.81026549

>  <Name>
lig.pdb

>  <RI>
0

>  <Rbt.Current_Directory>
/home/itssahil/PROJECTS/Mol_Feturizer/New_Systems/rnas/4nyg

>  <Rbt.Executable>
rbdock ($Id: //depot/dev/client3/rdock/2013.1/src/exe/rbdock.cxx#4 $)

>  <Rbt.Library>
libRbt.so (2013.1, Build901 2013/11/27)

>  <Rbt.Parameter_File>
/export/apps/rDock/src/rDock_2013.1_src/data/scripts/dock_solv.prm

>  <Rbt.Receptor>
prm/blind_docking_40.prm

>  <SCORE>
-24.3361

>  <SCORE.INTER>
-23.8163

>  <SCORE.INTER.CONST>
1

>  <SCORE.INTER.POLAR>
0

>  <SCORE.INTER.ROT>
4

>  <SCORE.INTER.SOLV>
14.8979

>  <SCORE.INTER.VDW>
-27.1102

>  <SCORE.INTER.norm>
-1.32313

>  <SCORE.INTRA>
-0.519739

>  <SCORE.INTRA.DIHEDRAL>
0.125722

>  <SCORE.INTRA.DIHEDRAL.0>
3.20029

>  <SCORE.INTRA.POLAR>
0

>  <SCORE.INTRA.POLAR.0>
0

>  <SCORE.INTRA.REPUL>
0

>  <SCORE.INTRA.REPUL.0>
0

>  <SCORE.INTRA.SOLV>
-0.0340242

>  <SCORE.INTRA.SOLV.lig_0>
-19.3885

>  <SCORE.INTRA.VDW>
-0.565587

>  <SCORE.INTRA.VDW.0>
-1.12705

>  <SCORE.INTRA.norm>
-0.0288744

>  <SCORE.RESTR>
0

>  <SCORE.RESTR.CAVITY>
0

>  <SCORE.RESTR.norm>
0

>  <SCORE.SYSTEM>
0

>  <SCORE.SYSTEM.CONST>
0

>  <SCORE.SYSTEM.DIHEDRAL>
0

>  <SCORE.SYSTEM.SOLV>
0

>  <SCORE.SYSTEM.norm>
0

>  <SCORE.heavy>
18

>  <SCORE.norm>
-1.352

>  <RMSD>
4.109

$$$$
lig.pdb
 OpenBabel11021811503D
libRbt.so/2013.1/901 2013/11/27
 18 19  0  0  0  0  0  0  0  0999 V2000
   -9.1752    9.8951    1.3170 C   0  0  0  0  0  0  0  0  0  0  0  0
   -8.4853   14.6147    0.4328 N   0  0  0  0  0  0  0  0  0  0  0  0
   -8.1307   16.1650    3.4837 C   0  0  0  0  0  0  0  0  0  0  0  0
   -5.7071   18.6471   -0.2908 O   0  0  0  0  0  0  0  0  0  0  0  0
   -5.3940   17.9604    0.9131 C   0  0  0  0  0  0  0  0  0  0  0  0
   -6.4187   18.3121    2.0091 C   0  0  0  0  0  0  0  0  0  0  0  0
  -10.0436   17.0924    0.4027 C   0  0  0  0  0  0  0  0  0  0  0  0
   -8.7026   18.1589    0.1415 S   0  0  0  0  0  0  0  0  0  0  0  0
   -7.7582   17.7474    1.5905 C   0  0  0  0  0  0  0  0  0  0  0  0
   -8.5682   16.8074    2.1780 C   0  0  0  0  0  0  0  0  0  0  0  0
   -9.7394   16.4906    1.5455 N   0  0  0  0  0  0  0  0  0  0  0  0
  -10.6794   15.4565    2.1067 C   0  0  0  0  0  0  0  0  0  0  0  0
   -9.2248   13.6216    1.0750 C   0  0  0  0  0  0  0  0  0  0  0  0
   -8.8888   12.3063    0.9048 N   0  0  0  0  0  0  0  0  0  0  0  0
   -9.5798   11.3371    1.5106 C   0  0  0  0  0  0  0  0  0  0  0  0
  -10.6197   11.6318    2.2961 N   0  0  0  0  0  0  0  0  0  0  0  0
  -11.0098   12.9145    2.5146 C   0  0  0  0  0  0  0  0  0  0  0  0
  -10.3216   13.9740    1.9130 C   0  0  0  0  0  0  0  0  0  0  0  0
  5  4  1  0  0  0  0
  5  6  1  0  0  0  0
  7  8  2  0  0  0  0
  7 11  1  0  0  0  0
  8  9  1  0  0  0  0
  9 10  2  0  0  0  0
  9  6  1  0  0  0  0
 10  3  1  0  0  0  0
 11 12  1  0  0  0  0
 11 10  1  0  0  0  0
 12 18  1  0  0  0  0
 13  2  1  0  0  0  0
 13 14  2  0  0  0  0
 15 14  1  0  0  0  0
 15  1  1  0  0  0  0
 16 15  2  0  0  0  0
 17 18  2  0  0  0  0
 17 16  1  0  0  0  0
 18 13  1  0  0  0  0
M  END
>  <CHROM.1>
66.55960612,-61.45498914,101.41462615,-7.99301547,-8.74678566,15.40892680
1.34342832,-1.98737058,0.26052550,-0.02590553

>  <Name>
lig.pdb

>  <RI>
0

>  <Rbt.Current_Directory>
/home/itssahil/PROJECTS/Mol_Feturizer/New_Systems/rnas/4nyg

>  <Rbt.Executable>
rbdock ($Id: //depot/dev/client3/rdock/2013.1/src/exe/rbdock.cxx#4 $)

>  <Rbt.Library>
libRbt.so (2013.1, Build901 2013/11/27)

>  <Rbt.Parameter_File>
/export/apps/rDock/src/rDock_2013.1_src/data/scripts/dock_solv.prm

>  <Rbt.Receptor>
prm/blind_docking_60.prm

>  <SCORE>
-13.7733

>  <SCORE.INTER>
-14.5737

>  <SCORE.INTER.CONST>
1

>  <SCORE.INTER.POLAR>
0

>  <SCORE.INTER.ROT>
4

>  <SCORE.INTER.SOLV>
13.6139

>  <SCORE.INTER.VDW>
-20.5204

>  <SCORE.INTER.norm>
-0.809649

>  <SCORE.INTRA>
0.794416

>  <SCORE.INTRA.DIHEDRAL>
0.138645

>  <SCORE.INTRA.DIHEDRAL.0>
3.20029

>  <SCORE.INTRA.POLAR>
0

>  <SCORE.INTRA.POLAR.0>
0

>  <SCORE.INTRA.REPUL>
0

>  <SCORE.INTRA.REPUL.0>
0

>  <SCORE.INTRA.SOLV>
2.32879

>  <SCORE.INTRA.SOLV.lig_0>
-19.3885

>  <SCORE.INTRA.VDW>
-0.439302

>  <SCORE.INTRA.VDW.0>
-1.12705

>  <SCORE.INTRA.norm>
0.0441342

>  <SCORE.RESTR>
0.00597306

>  <SCORE.RESTR.CAVITY>
0.00597306

>  <SCORE.RESTR.norm>
0.000331837

>  <SCORE.SYSTEM>
0

>  <SCORE.SYSTEM.CONST>
0

>  <SCORE.SYSTEM.DIHEDRAL>
0

>  <SCORE.SYSTEM.SOLV>
0

>  <SCORE.SYSTEM.norm>
0

>  <SCORE.heavy>
18

>  <SCORE.norm>
-0.765182

>  <RMSD>
4.132

$$$$
lig.pdb
 OpenBabel11021811503D
libRbt.so/2013.1/901 2013/11/27
 18 19  0  0  0  0  0  0  0  0999 V2000
  -14.7637   14.9749    3.6985 C   0  0  0  0  0  0  0  0  0  0  0  0
  -10.5639   12.7702    2.6817 N   0  0  0  0  0  0  0  0  0  0  0  0
   -9.0630   16.3855   -0.3804 C   0  0  0  0  0  0  0  0  0  0  0  0
   -5.9765   20.0569   -2.0647 O   0  0  0  0  0  0  0  0  0  0  0  0
   -6.1957   19.2919   -0.8875 C   0  0  0  0  0  0  0  0  0  0  0  0
   -7.7051   19.1828   -0.5963 C   0  0  0  0  0  0  0  0  0  0  0  0
   -7.9322   17.2686    3.0769 C   0  0  0  0  0  0  0  0  0  0  0  0
   -7.3564   18.7060    2.2983 S   0  0  0  0  0  0  0  0  0  0  0  0
   -7.8784   18.3299    0.6410 C   0  0  0  0  0  0  0  0  0  0  0  0
   -8.4607   17.0992    0.8183 C   0  0  0  0  0  0  0  0  0  0  0  0
   -8.4730   16.5762    2.0825 N   0  0  0  0  0  0  0  0  0  0  0  0
   -9.1078   15.2419    2.3736 C   0  0  0  0  0  0  0  0  0  0  0  0
  -11.2702   13.9607    2.8530 C   0  0  0  0  0  0  0  0  0  0  0  0
  -12.6015   13.9226    3.1660 N   0  0  0  0  0  0  0  0  0  0  0  0
  -13.2992   15.0485    3.3373 C   0  0  0  0  0  0  0  0  0  0  0  0
  -12.7109   16.2406    3.2031 N   0  0  0  0  0  0  0  0  0  0  0  0
  -11.3926   16.3569    2.8968 C   0  0  0  0  0  0  0  0  0  0  0  0
  -10.6073   15.2137    2.7115 C   0  0  0  0  0  0  0  0  0  0  0  0
  5  4  1  0  0  0  0
  5  6  1  0  0  0  0
  7  8  2  0  0  0  0
  7 11  1  0  0  0  0
  8  9  1  0  0  0  0
  9 10  2  0  0  0  0
  9  6  1  0  0  0  0
 10  3  1  0  0  0  0
 11 12  1  0  0  0  0
 11 10  1  0  0  0  0
 12 18  1  0  0  0  0
 13  2  1  0  0  0  0
 13 14  2  0  0  0  0
 15 14  1  0  0  0  0
 15  1  1  0  0  0  0
 16 15  2  0  0  0  0
 17 18  2  0  0  0  0
 17 16  1  0  0  0  0
 18 13  1  0  0  0  0
M  END
>  <CHROM.1>
178.47877019,65.46362144,90.92775826,173.40750585,-9.54512358,16.67212704
1.75800536,2.39923741,-0.23881304,2.74048754

>  <Name>
lig.pdb

>  <RI>
0

>  <Rbt.Current_Directory>
/home/itssahil/PROJECTS/Mol_Feturizer/New_Systems/rnas/4nyg

>  <Rbt.Executable>
rbdock ($Id: //depot/dev/client3/rdock/2013.1/src/exe/rbdock.cxx#4 $)

>  <Rbt.Library>
libRbt.so (2013.1, Build901 2013/11/27)

>  <Rbt.Parameter_File>
/export/apps/rDock/src/rDock_2013.1_src/data/scripts/dock_solv.prm

>  <Rbt.Receptor>
prm/blind_docking_80.prm

>  <SCORE>
-24.2062

>  <SCORE.INTER>
-23.6531

>  <SCORE.INTER.CONST>
1

>  <SCORE.INTER.POLAR>
0

>  <SCORE.INTER.ROT>
4

>  <SCORE.INTER.SOLV>
14.5279

>  <SCORE.INTER.VDW>
-26.878

>  <SCORE.INTER.norm>
-1.31406

>  <SCORE.INTRA>
-0.553121

>  <SCORE.INTRA.DIHEDRAL>
0.0454984

>  <SCORE.INTRA.DIHEDRAL.0>
3.20029

>  <SCORE.INTRA.POLAR>
0

>  <SCORE.INTRA.POLAR.0>
0

>  <SCORE.INTRA.REPUL>
0

>  <SCORE.INTRA.REPUL.0>
0

>  <SCORE.INTRA.SOLV>
-0.0355222

>  <SCORE.INTRA.SOLV.lig_0>
-19.3885

>  <SCORE.INTRA.VDW>
-0.55811

>  <SCORE.INTRA.VDW.0>
-1.12705

>  <SCORE.INTRA.norm>
-0.030729

>  <SCORE.RESTR>
0

>  <SCORE.RESTR.CAVITY>
0

>  <SCORE.RESTR.norm>
0

>  <SCORE.SYSTEM>
0

>  <SCORE.SYSTEM.CONST>
0

>  <SCORE.SYSTEM.DIHEDRAL>
0

>  <SCORE.SYSTEM.SOLV>
0

>  <SCORE.SYSTEM.norm>
0

>  <SCORE.heavy>
18

>  <SCORE.norm>
-1.34479

>  <RMSD>
4.133

$$$$
lig.pdb
 OpenBabel11021811503D
libRbt.so/2013.1/901 2013/11/27
 18 19  0  0  0  0  0  0  0  0999 V2000
  -14.8339   15.0765    3.7836 C   0  0  0  0  0  0  0  0  0  0  0  0
  -10.6686   12.8221    2.7347 N   0  0  0  0  0  0  0  0  0  0  0  0
   -9.0327   16.3414   -0.3169 C   0  0  0  0  0  0  0  0  0  0  0  0
   -5.8813   19.8859   -2.0368 O   0  0  0  0  0  0  0  0  0  0  0  0
   -6.1419   19.2450   -0.7957 C   0  0  0  0  0  0  0  0  0  0  0  0
   -7.6611   19.1294   -0.5642 C   0  0  0  0  0  0  0  0  0  0  0  0
   -8.0176   17.3187    3.1510 C   0  0  0  0  0  0  0  0  0  0  0  0
   -7.4120   18.7329    2.3526 S   0  0  0  0  0  0  0  0  0  0  0  0
   -7.8785   18.3116    0.6897 C   0  0  0  0  0  0  0  0  0  0  0  0
   -8.4696   17.0873    0.8812 C   0  0  0  0  0  0  0  0  0  0  0  0
   -8.5261   16.5998    2.1584 N   0  0  0  0  0  0  0  0  0  0  0  0
   -9.1738   15.2751    2.4647 C   0  0  0  0  0  0  0  0  0  0  0  0
  -11.3562   14.0208    2.9239 C   0  0  0  0  0  0  0  0  0  0  0  0
  -12.6882   13.9987    3.2358 N   0  0  0  0  0  0  0  0  0  0  0  0
  -13.3683   15.1327    3.4240 C   0  0  0  0  0  0  0  0  0  0  0  0
  -12.7613   16.3174    3.3082 N   0  0  0  0  0  0  0  0  0  0  0  0
  -11.4412   16.4177    3.0042 C   0  0  0  0  0  0  0  0  0  0  0  0
  -10.6737   15.2652    2.8017 C   0  0  0  0  0  0  0  0  0  0  0  0
  5  4  1  0  0  0  0
  5  6  1  0  0  0  0
  7  8  2  0  0  0  0
  7 11  1  0  0  0  0
  8  9  1  0  0  0  0
  9 10  2  0  0  0  0
  9  6  1  0  0  0  0
 10  3  1  0  0  0  0
 11 12  1  0  0  0  0
 11 10  1  0  0  0  0
 12 18  1  0  0  0  0
 13  2  1  0  0  0  0
 13 14  2  0  0  0  0
 15 14  1  0  0  0  0
 15  1  1  0  0  0  0
 16 15  2  0  0  0  0
 17 18  2  0  0  0  0
 17 16  1  0  0  0  0
 18 13  1  0  0  0  0
M  END
>  <CHROM.1>
173.97232912,64.66516193,88.77608638,171.81592566,-9.57965102,16.68995678
1.82804031,2.79868337,-0.68701854,-2.75880838

>  <Name>
lig.pdb

>  <RI>
0

>  <Rbt.Current_Directory>
/home/itssahil/PROJECTS/Mol_Feturizer/New_Systems/rnas/4nyg

>  <Rbt.Executable>
rbdock ($Id: //depot/dev/client3/rdock/2013.1/src/exe/rbdock.cxx#4 $)

>  <Rbt.Library>
libRbt.so (2013.1, Build901 2013/11/27)

>  <Rbt.Parameter_File>
/export/apps/rDock/src/rDock_2013.1_src/data/scripts/dock_solv.prm

>  <Rbt.Receptor>
prm/pocket_docking_8.prm

>  <SCORE>
-24.2881

>  <SCORE.INTER>
-23.8064

>  <SCORE.INTER.CONST>
1

>  <SCORE.INTER.POLAR>
0

>  <SCORE.INTER.ROT>
4

>  <SCORE.INTER.SOLV>
14.8755

>  <SCORE.INTER.VDW>
-27.0961

>  <SCORE.INTER.norm>
-1.32258

>  <SCORE.INTRA>
-0.481691

>  <SCORE.INTRA.DIHEDRAL>
0.159017

>  <SCORE.INTRA.DIHEDRAL.0>
3.20029

>  <SCORE.INTRA.POLAR>
0

>  <SCORE.INTRA.POLAR.0>
0

>  <SCORE.INTRA.REPUL>
0

>  <SCORE.INTRA.REPUL.0>
0

>  <SCORE.INTRA.SOLV>
-0.0353293

>  <SCORE.INTRA.SOLV.lig_0>
-19.3885

>  <SCORE.INTRA.VDW>
-0.543534

>  <SCORE.INTRA.VDW.0>
-1.12705

>  <SCORE.INTRA.norm>
-0.0267606

>  <SCORE.RESTR>
0

>  <SCORE.RESTR.CAVITY>
0

>  <SCORE.RESTR.norm>
0

>  <SCORE.SYSTEM>
0

>  <SCORE.SYSTEM.CONST>
0

>  <SCORE.SYSTEM.DIHEDRAL>
0

>  <SCORE.SYSTEM.SOLV>
0

>  <SCORE.SYSTEM.norm>
0

>  <SCORE.heavy>
18

>  <SCORE.norm>
-1.34934

>  <RMSD>
4.135

$$$$
lig.pdb
 OpenBabel11021811503D
libRbt.so/2013.1/901 2013/11/27
 18 19  0  0  0  0  0  0  0  0999 V2000
   -8.1172    9.4431    1.5768 C   0  0  0  0  0  0  0  0  0  0  0  0
   -7.8542   14.2294    0.8325 N   0  0  0  0  0  0  0  0  0  0  0  0
   -8.1645   15.7577    3.7577 C   0  0  0  0  0  0  0  0  0  0  0  0
   -5.4727   17.5098    0.4198 O   0  0  0  0  0  0  0  0  0  0  0  0
   -5.2837   17.5652    1.8270 C   0  0  0  0  0  0  0  0  0  0  0  0
   -6.5491   18.1152    2.5134 C   0  0  0  0  0  0  0  0  0  0  0  0
   -9.7605   16.4890    0.4518 C   0  0  0  0  0  0  0  0  0  0  0  0
   -8.5363   17.7128    0.3648 S   0  0  0  0  0  0  0  0  0  0  0  0
   -7.7446   17.3988    1.9253 C   0  0  0  0  0  0  0  0  0  0  0  0
   -8.5039   16.3602    2.4047 C   0  0  0  0  0  0  0  0  0  0  0  0
   -9.5361   15.9130    1.6258 N   0  0  0  0  0  0  0  0  0  0  0  0
  -10.4085   14.7656    2.0624 C   0  0  0  0  0  0  0  0  0  0  0  0
   -8.5741   13.1412    1.3252 C   0  0  0  0  0  0  0  0  0  0  0  0
   -8.0546   11.8796    1.2230 N   0  0  0  0  0  0  0  0  0  0  0  0
   -8.7234   10.8217    1.6890 C   0  0  0  0  0  0  0  0  0  0  0  0
   -9.9199   10.9725    2.2643 N   0  0  0  0  0  0  0  0  0  0  0  0
  -10.4972   12.1941    2.4039 C   0  0  0  0  0  0  0  0  0  0  0  0
   -9.8429   13.3413    1.9413 C   0  0  0  0  0  0  0  0  0  0  0  0
  5  4  1  0  0  0  0
  5  6  1  0  0  0  0
  7  8  2  0  0  0  0
  7 11  1  0  0  0  0
  8  9  1  0  0  0  0
  9 10  2  0  0  0  0
  9  6  1  0  0  0  0
 10  3  1  0  0  0  0
 11 12  1  0  0  0  0
 11 10  1  0  0  0  0
 12 18  1  0  0  0  0
 13  2  1  0  0  0  0
 13 14  2  0  0  0  0
 15 14  1  0  0  0  0
 15  1  1  0  0  0  0
 16 15  2  0  0  0  0
 17 18  2  0  0  0  0
 17 16  1  0  0  0  0
 18 13  1  0  0  0  0
M  END
>  <CHROM.1>
46.50673502,-78.59175712,102.36734932,-5.17306750,-8.37962217,14.88109137
1.60261557,-1.86164271,0.06932990,-0.05605568

>  <Name>
lig.pdb

>  <RI>
0

>  <Rbt.Current_Directory>
/home/itssahil/PROJECTS/Mol_Feturizer/New_Systems/rnas/4nyg

>  <Rbt.Executable>
rbdock ($Id: //depot/dev/client3/rdock/2013.1/src/exe/rbdock.cxx#4 $)

>  <Rbt.Library>
libRbt.so (2013.1, Build901 2013/11/27)

>  <Rbt.Parameter_File>
/export/apps/rDock/src/rDock_2013.1_src/data/scripts/dock_solv.prm

>  <Rbt.Receptor>
prm/blind_docking_20.prm

>  <SCORE>
-9.29903

>  <SCORE.INTER>
-12.1735

>  <SCORE.INTER.CONST>
1

>  <SCORE.INTER.POLAR>
0

>  <SCORE.INTER.ROT>
4

>  <SCORE.INTER.SOLV>
11.2579

>  <SCORE.INTER.VDW>
-18.1349

>  <SCORE.INTER.norm>
-0.676303

>  <SCORE.INTRA>
1.69886

>  <SCORE.INTRA.DIHEDRAL>
1.23025

>  <SCORE.INTRA.DIHEDRAL.0>
3.20029

>  <SCORE.INTRA.POLAR>
0

>  <SCORE.INTRA.POLAR.0>
0

>  <SCORE.INTRA.REPUL>
0

>  <SCORE.INTRA.REPUL.0>
0

>  <SCORE.INTRA.SOLV>
2.62864

>  <SCORE.INTRA.SOLV.lig_0>
-19.3885

>  <SCORE.INTRA.VDW>
-0.230583

>  <SCORE.INTRA.VDW.0>
-1.12705

>  <SCORE.INTRA.norm>
0.0943814

>  <SCORE.RESTR>
1.17556

>  <SCORE.RESTR.CAVITY>
1.17556

>  <SCORE.RESTR.norm>
0.065309

>  <SCORE.SYSTEM>
0

>  <SCORE.SYSTEM.CONST>
0

>  <SCORE.SYSTEM.DIHEDRAL>
0

>  <SCORE.SYSTEM.SOLV>
0

>  <SCORE.SYSTEM.norm>
0

>  <SCORE.heavy>
18

>  <SCORE.norm>
-0.516613

>  <RMSD>
4.142

$$$$
lig.pdb
 OpenBabel11021811503D
libRbt.so/2013.1/901 2013/11/27
 18 19  0  0  0  0  0  0  0  0999 V2000
  -14.5779   15.7437    3.9206 C   0  0  0  0  0  0  0  0  0  0  0  0
  -12.0035   11.9598    2.3124 N   0  0  0  0  0  0  0  0  0  0  0  0
   -7.4084   14.7925    3.1956 C   0  0  0  0  0  0  0  0  0  0  0  0
   -4.2877   12.4784    3.2287 O   0  0  0  0  0  0  0  0  0  0  0  0
   -4.6380   12.0404    4.5343 C   0  0  0  0  0  0  0  0  0  0  0  0
   -5.8512   12.8350    5.0554 C   0  0  0  0  0  0  0  0  0  0  0  0
   -9.0495   11.4510    2.8051 C   0  0  0  0  0  0  0  0  0  0  0  0
   -7.8383   10.9543    3.9409 S   0  0  0  0  0  0  0  0  0  0  0  0
   -7.0298   12.5224    4.1601 C   0  0  0  0  0  0  0  0  0  0  0  0
   -7.7655   13.3208    3.3196 C   0  0  0  0  0  0  0  0  0  0  0  0
   -8.7984   12.7426    2.6335 N   0  0  0  0  0  0  0  0  0  0  0  0
   -9.6710   13.5459    1.7054 C   0  0  0  0  0  0  0  0  0  0  0  0
  -12.0734   13.3307    2.5595 C   0  0  0  0  0  0  0  0  0  0  0  0
  -13.2173   13.8702    3.0814 N   0  0  0  0  0  0  0  0  0  0  0  0
  -13.3082   15.1795    3.3289 C   0  0  0  0  0  0  0  0  0  0  0  0
  -12.2817   15.9941    3.0685 N   0  0  0  0  0  0  0  0  0  0  0  0
  -11.1136   15.5302    2.5532 C   0  0  0  0  0  0  0  0  0  0  0  0
  -10.9551   14.1673    2.2783 C   0  0  0  0  0  0  0  0  0  0  0  0
  5  4  1  0  0  0  0
  5  6  1  0  0  0  0
  7  8  2  0  0  0  0
  7 11  1  0  0  0  0
  8  9  1  0  0  0  0
  9 10  2  0  0  0  0
  9  6  1  0  0  0  0
 10  3  1  0  0  0  0
 11 12  1  0  0  0  0
 11 10  1  0  0  0  0
 12 18  1  0  0  0  0
 13  2  1  0  0  0  0
 13 14  2  0  0  0  0
 15 14  1  0  0  0  0
 15  1  1  0  0  0  0
 16 15  2  0  0  0  0
 17 18  2  0  0  0  0
 17 16  1  0  0  0  0
 18 13  1  0  0  0  0
M  END
>  <CHROM.1>
63.81525215,64.45094823,86.82035956,-74.04702300,-9.37146852,13.29415781
3.26510348,-2.79744137,0.14604778,-3.09064292

>  <Name>
lig.pdb

>  <RI>
0

>  <Rbt.Current_Directory>
/home/itssahil/PROJECTS/Mol_Feturizer/New_Systems/rnas/4nyg

>  <Rbt.Executable>
rbdock ($Id: //depot/dev/client3/rdock/2013.1/src/exe/rbdock.cxx#4 $)

>  <Rbt.Library>
libRbt.so (2013.1, Build901 2013/11/27)

>  <Rbt.Parameter_File>
/export/apps/rDock/src/rDock_2013.1_src/data/scripts/dock_solv.prm

>  <Rbt.Receptor>
prm/pocket_docking_8.prm

>  <SCORE>
-19.5744

>  <SCORE.INTER>
-19.2564

>  <SCORE.INTER.CONST>
1

>  <SCORE.INTER.POLAR>
0

>  <SCORE.INTER.ROT>
4

>  <SCORE.INTER.SOLV>
11.8523

>  <SCORE.INTER.VDW>
-23.0551

>  <SCORE.INTER.norm>
-1.0698

>  <SCORE.INTRA>
-0.318006

>  <SCORE.INTRA.DIHEDRAL>
0.0737637

>  <SCORE.INTRA.DIHEDRAL.0>
3.20029

>  <SCORE.INTRA.POLAR>
0

>  <SCORE.INTRA.POLAR.0>
0

>  <SCORE.INTRA.REPUL>
0

>  <SCORE.INTRA.REPUL.0>
0

>  <SCORE.INTRA.SOLV>
1.09656

>  <SCORE.INTRA.SOLV.lig_0>
-19.3885

>  <SCORE.INTRA.VDW>
-0.903168

>  <SCORE.INTRA.VDW.0>
-1.12705

>  <SCORE.INTRA.norm>
-0.017667

>  <SCORE.RESTR>
0

>  <SCORE.RESTR.CAVITY>
0

>  <SCORE.RESTR.norm>
0

>  <SCORE.SYSTEM>
0

>  <SCORE.SYSTEM.CONST>
0

>  <SCORE.SYSTEM.DIHEDRAL>
0

>  <SCORE.SYSTEM.SOLV>
0

>  <SCORE.SYSTEM.norm>
0

>  <SCORE.heavy>
18

>  <SCORE.norm>
-1.08747

>  <RMSD>
4.149

$$$$
lig.pdb
 OpenBabel11021811503D
libRbt.so/2013.1/901 2013/11/27
 18 19  0  0  0  0  0  0  0  0999 V2000
  -14.8007   14.9631    3.7389 C   0  0  0  0  0  0  0  0  0  0  0  0
  -10.5290   12.7862    3.0005 N   0  0  0  0  0  0  0  0  0  0  0  0
   -9.0666   16.4310   -0.3878 C   0  0  0  0  0  0  0  0  0  0  0  0
   -5.9564   20.1318   -1.9522 O   0  0  0  0  0  0  0  0  0  0  0  0
   -6.2045   19.2709   -0.8493 C   0  0  0  0  0  0  0  0  0  0  0  0
   -7.7117   19.2345   -0.5303 C   0  0  0  0  0  0  0  0  0  0  0  0
   -8.0052   17.2582    3.1052 C   0  0  0  0  0  0  0  0  0  0  0  0
   -7.4180   18.7097    2.3621 S   0  0  0  0  0  0  0  0  0  0  0  0
   -7.9069   18.3604    0.6889 C   0  0  0  0  0  0  0  0  0  0  0  0
   -8.4894   17.1257    0.8342 C   0  0  0  0  0  0  0  0  0  0  0  0
   -8.5249   16.5815    2.0890 N   0  0  0  0  0  0  0  0  0  0  0  0
   -9.1619   15.2411    2.3452 C   0  0  0  0  0  0  0  0  0  0  0  0
  -11.2763   13.9638    3.0126 C   0  0  0  0  0  0  0  0  0  0  0  0
  -12.6044   13.9230    3.3385 N   0  0  0  0  0  0  0  0  0  0  0  0
  -13.3409   15.0370    3.3595 C   0  0  0  0  0  0  0  0  0  0  0  0
  -12.7955   16.2191    3.0586 N   0  0  0  0  0  0  0  0  0  0  0  0
  -11.4830   16.3377    2.7289 C   0  0  0  0  0  0  0  0  0  0  0  0
  -10.6584   15.2077    2.6957 C   0  0  0  0  0  0  0  0  0  0  0  0
  5  4  1  0  0  0  0
  5  6  1  0  0  0  0
  7  8  2  0  0  0  0
  7 11  1  0  0  0  0
  8  9  1  0  0  0  0
  9 10  2  0  0  0  0
  9  6  1  0  0  0  0
 10  3  1  0  0  0  0
 11 12  1  0  0  0  0
 11 10  1  0  0  0  0
 12 18  1  0  0  0  0
 13  2  1  0  0  0  0
 13 14  2  0  0  0  0
 15 14  1  0  0  0  0
 15  1  1  0  0  0  0
 16 15  2  0  0  0  0
 17 18  2  0  0  0  0
 17 16  1  0  0  0  0
 18 13  1  0  0  0  0
M  END
>  <CHROM.1>
-177.26111429,69.38507557,89.09662152,-176.72532189,-9.57831803,16.68117700
1.80105555,2.36594531,-0.03656000,2.52794084

>  <Name>
lig.pdb

>  <RI>
0

>  <Rbt.Current_Directory>
/home/itssahil/PROJECTS/Mol_Feturizer/New_Systems/rnas/4nyg

>  <Rbt.Executable>
rbdock ($Id: //depot/dev/client3/rdock/2013.1/src/exe/rbdock.cxx#4 $)

>  <Rbt.Library>
libRbt.so (2013.1, Build901 2013/11/27)

>  <Rbt.Parameter_File>
/export/apps/rDock/src/rDock_2013.1_src/data/scripts/dock_solv.prm

>  <Rbt.Receptor>
prm/blind_docking_60.prm

>  <SCORE>
-24.3098

>  <SCORE.INTER>
-23.8071

>  <SCORE.INTER.CONST>
1

>  <SCORE.INTER.POLAR>
0

>  <SCORE.INTER.ROT>
4

>  <SCORE.INTER.SOLV>
14.8313

>  <SCORE.INTER.VDW>
-27.0818

>  <SCORE.INTER.norm>
-1.32261

>  <SCORE.INTRA>
-0.502726

>  <SCORE.INTRA.DIHEDRAL>
0.167119

>  <SCORE.INTRA.DIHEDRAL.0>
3.20029

>  <SCORE.INTRA.POLAR>
0

>  <SCORE.INTRA.POLAR.0>
0

>  <SCORE.INTRA.REPUL>
0

>  <SCORE.INTRA.REPUL.0>
0

>  <SCORE.INTRA.SOLV>
-0.0293659

>  <SCORE.INTRA.SOLV.lig_0>
-19.3885

>  <SCORE.INTRA.VDW>
-0.571603

>  <SCORE.INTRA.VDW.0>
-1.12705

>  <SCORE.INTRA.norm>
-0.0279292

>  <SCORE.RESTR>
0

>  <SCORE.RESTR.CAVITY>
0

>  <SCORE.RESTR.norm>
0

>  <SCORE.SYSTEM>
0

>  <SCORE.SYSTEM.CONST>
0

>  <SCORE.SYSTEM.DIHEDRAL>
0

>  <SCORE.SYSTEM.SOLV>
0

>  <SCORE.SYSTEM.norm>
0

>  <SCORE.heavy>
18

>  <SCORE.norm>
-1.35054

>  <RMSD>
4.153

$$$$
lig.pdb
 OpenBabel11021811503D
libRbt.so/2013.1/901 2013/11/27
 18 19  0  0  0  0  0  0  0  0999 V2000
  -14.7694   15.0314    3.7970 C   0  0  0  0  0  0  0  0  0  0  0  0
  -10.6123   12.8127    2.6445 N   0  0  0  0  0  0  0  0  0  0  0  0
   -9.0656   16.4278   -0.3858 C   0  0  0  0  0  0  0  0  0  0  0  0
   -5.9621   20.0601   -2.0589 O   0  0  0  0  0  0  0  0  0  0  0  0
   -6.1974   19.2505   -0.9151 C   0  0  0  0  0  0  0  0  0  0  0  0
   -7.7016   19.2236   -0.5816 C   0  0  0  0  0  0  0  0  0  0  0  0
   -7.9672   17.3006    3.0845 C   0  0  0  0  0  0  0  0  0  0  0  0
   -7.3818   18.7391    2.3150 S   0  0  0  0  0  0  0  0  0  0  0  0
   -7.8882   18.3679    0.6518 C   0  0  0  0  0  0  0  0  0  0  0  0
   -8.4740   17.1377    0.8204 C   0  0  0  0  0  0  0  0  0  0  0  0
   -8.4993   16.6116    2.0832 N   0  0  0  0  0  0  0  0  0  0  0  0
   -9.1388   15.2775    2.3647 C   0  0  0  0  0  0  0  0  0  0  0  0
  -11.3035   14.0053    2.8577 C   0  0  0  0  0  0  0  0  0  0  0  0
  -12.6286   13.9720    3.1966 N   0  0  0  0  0  0  0  0  0  0  0  0
  -13.3118   15.1000    3.4081 C   0  0  0  0  0  0  0  0  0  0  0  0
  -12.7148   16.2895    3.2898 N   0  0  0  0  0  0  0  0  0  0  0  0
  -11.4018   16.4008    2.9598 C   0  0  0  0  0  0  0  0  0  0  0  0
  -10.6314   15.2550    2.7321 C   0  0  0  0  0  0  0  0  0  0  0  0
  5  4  1  0  0  0  0
  5  6  1  0  0  0  0
  7  8  2  0  0  0  0
  7 11  1  0  0  0  0
  8  9  1  0  0  0  0
  9 10  2  0  0  0  0
  9  6  1  0  0  0  0
 10  3  1  0  0  0  0
 11 12  1  0  0  0  0
 11 10  1  0  0  0  0
 12 18  1  0  0  0  0
 13  2  1  0  0  0  0
 13 14  2  0  0  0  0
 15 14  1  0  0  0  0
 15  1  1  0  0  0  0
 16 15  2  0  0  0  0
 17 18  2  0  0  0  0
 17 16  1  0  0  0  0
 18 13  1  0  0  0  0
M  END
>  <CHROM.1>
-179.13835310,69.34517265,89.00909300,173.00941313,-9.56149573,16.70686124
1.77737944,2.72797334,-0.67111937,-2.85152814

>  <Name>
lig.pdb

>  <RI>
0

>  <Rbt.Current_Directory>
/home/itssahil/PROJECTS/Mol_Feturizer/New_Systems/rnas/4nyg

>  <Rbt.Executable>
rbdock ($Id: //depot/dev/client3/rdock/2013.1/src/exe/rbdock.cxx#4 $)

>  <Rbt.Library>
libRbt.so (2013.1, Build901 2013/11/27)

>  <Rbt.Parameter_File>
/export/apps/rDock/src/rDock_2013.1_src/data/scripts/dock_solv.prm

>  <Rbt.Receptor>
prm/pocket_docking_6.prm

>  <SCORE>
-24.2399

>  <SCORE.INTER>
-23.7242

>  <SCORE.INTER.CONST>
1

>  <SCORE.INTER.POLAR>
0

>  <SCORE.INTER.ROT>
4

>  <SCORE.INTER.SOLV>
14.733

>  <SCORE.INTER.VDW>
-26.9938

>  <SCORE.INTER.norm>
-1.31801

>  <SCORE.INTRA>
-0.515719

>  <SCORE.INTRA.DIHEDRAL>
0.140718

>  <SCORE.INTRA.DIHEDRAL.0>
3.20029

>  <SCORE.INTRA.POLAR>
0

>  <SCORE.INTRA.POLAR.0>
0

>  <SCORE.INTRA.REPUL>
0

>  <SCORE.INTRA.REPUL.0>
0

>  <SCORE.INTRA.SOLV>
-0.0336656

>  <SCORE.INTRA.SOLV.lig_0>
-19.3885

>  <SCORE.INTRA.VDW>
-0.569245

>  <SCORE.INTRA.VDW.0>
-1.12705

>  <SCORE.INTRA.norm>
-0.0286511

>  <SCORE.RESTR>
0

>  <SCORE.RESTR.CAVITY>
0

>  <SCORE.RESTR.norm>
0

>  <SCORE.SYSTEM>
0

>  <SCORE.SYSTEM.CONST>
0

>  <SCORE.SYSTEM.DIHEDRAL>
0

>  <SCORE.SYSTEM.SOLV>
0

>  <SCORE.SYSTEM.norm>
0

>  <SCORE.heavy>
18

>  <SCORE.norm>
-1.34666

>  <RMSD>
4.154

$$$$
lig.pdb
 OpenBabel11021811503D
libRbt.so/2013.1/901 2013/11/27
 18 19  0  0  0  0  0  0  0  0999 V2000
   -9.2426   10.2372    1.2916 C   0  0  0  0  0  0  0  0  0  0  0  0
  -12.0811   13.8192    2.9175 N   0  0  0  0  0  0  0  0  0  0  0  0
   -9.2284   16.6832   -0.0376 C   0  0  0  0  0  0  0  0  0  0  0  0
   -4.7913   18.9395   -1.2994 O   0  0  0  0  0  0  0  0  0  0  0  0
   -5.4191   18.3857   -0.1513 C   0  0  0  0  0  0  0  0  0  0  0  0
   -6.9120   18.7670   -0.1242 C   0  0  0  0  0  0  0  0  0  0  0  0
   -8.2623   17.3214    3.5221 C   0  0  0  0  0  0  0  0  0  0  0  0
   -7.1064   18.3918    2.7996 S   0  0  0  0  0  0  0  0  0  0  0  0
   -7.5334   18.1223    1.0951 C   0  0  0  0  0  0  0  0  0  0  0  0
   -8.5482   17.2056    1.2168 C   0  0  0  0  0  0  0  0  0  0  0  0
   -8.9017   16.8100    2.4779 N   0  0  0  0  0  0  0  0  0  0  0  0
  -10.0167   15.8240    2.7073 C   0  0  0  0  0  0  0  0  0  0  0  0
  -10.8290   13.4103    2.4587 C   0  0  0  0  0  0  0  0  0  0  0  0
  -10.6237   12.1011    2.1188 N   0  0  0  0  0  0  0  0  0  0  0  0
   -9.4347   11.6852    1.6748 C   0  0  0  0  0  0  0  0  0  0  0  0
   -8.4155   12.5410    1.5557 N   0  0  0  0  0  0  0  0  0  0  0  0
   -8.5455   13.8559    1.8710 C   0  0  0  0  0  0  0  0  0  0  0  0
   -9.7683   14.3531    2.3354 C   0  0  0  0  0  0  0  0  0  0  0  0
  5  4  1  0  0  0  0
  5  6  1  0  0  0  0
  7  8  2  0  0  0  0
  7 11  1  0  0  0  0
  8  9  1  0  0  0  0
  9 10  2  0  0  0  0
  9  6  1  0  0  0  0
 10  3  1  0  0  0  0
 11 12  1  0  0  0  0
 11 10  1  0  0  0  0
 12 18  1  0  0  0  0
 13  2  1  0  0  0  0
 13 14  2  0  0  0  0
 15 14  1  0  0  0  0
 15  1  1  0  0  0  0
 16 15  2  0  0  0  0
 17 18  2  0  0  0  0
 17 16  1  0  0  0  0
 18 13  1  0  0  0  0
M  END
>  <CHROM.1>
178.54251153,61.04553223,-109.05547812,-175.99159116,-8.49669278,15.70051329
1.61875152,-2.32000264,0.75457468,0.34838765

>  <Name>
lig.pdb

>  <RI>
0

>  <Rbt.Current_Directory>
/home/itssahil/PROJECTS/Mol_Feturizer/New_Systems/rnas/4nyg

>  <Rbt.Executable>
rbdock ($Id: //depot/dev/client3/rdock/2013.1/src/exe/rbdock.cxx#4 $)

>  <Rbt.Library>
libRbt.so (2013.1, Build901 2013/11/27)

>  <Rbt.Parameter_File>
/export/apps/rDock/src/rDock_2013.1_src/data/scripts/dock_solv.prm

>  <Rbt.Receptor>
prm/blind_docking_100.prm

>  <SCORE>
-17.8621

>  <SCORE.INTER>
-17.3251

>  <SCORE.INTER.CONST>
1

>  <SCORE.INTER.POLAR>
0

>  <SCORE.INTER.ROT>
4

>  <SCORE.INTER.SOLV>
12.8159

>  <SCORE.INTER.VDW>
-22.0887

>  <SCORE.INTER.norm>
-0.962505

>  <SCORE.INTRA>
-0.537058

>  <SCORE.INTRA.DIHEDRAL>
-0.107987

>  <SCORE.INTRA.DIHEDRAL.0>
3.20029

>  <SCORE.INTRA.POLAR>
0

>  <SCORE.INTRA.POLAR.0>
0

>  <SCORE.INTRA.REPUL>
0

>  <SCORE.INTRA.REPUL.0>
0

>  <SCORE.INTRA.SOLV>
0.00668256

>  <SCORE.INTRA.SOLV.lig_0>
-19.3885

>  <SCORE.INTRA.VDW>
-0.486406

>  <SCORE.INTRA.VDW.0>
-1.12705

>  <SCORE.INTRA.norm>
-0.0298365

>  <SCORE.RESTR>
0

>  <SCORE.RESTR.CAVITY>
0

>  <SCORE.RESTR.norm>
0

>  <SCORE.SYSTEM>
0

>  <SCORE.SYSTEM.CONST>
0

>  <SCORE.SYSTEM.DIHEDRAL>
0

>  <SCORE.SYSTEM.SOLV>
0

>  <SCORE.SYSTEM.norm>
0

>  <SCORE.heavy>
18

>  <SCORE.norm>
-0.992342

>  <RMSD>
4.175

$$$$
lig.pdb
 OpenBabel11021811503D
libRbt.so/2013.1/901 2013/11/27
 18 19  0  0  0  0  0  0  0  0999 V2000
   -9.3245   10.2123    1.2894 C   0  0  0  0  0  0  0  0  0  0  0  0
  -12.1163   13.7934    2.9965 N   0  0  0  0  0  0  0  0  0  0  0  0
   -9.2790   16.6509    0.0204 C   0  0  0  0  0  0  0  0  0  0  0  0
   -4.8351   18.9295   -1.2545 O   0  0  0  0  0  0  0  0  0  0  0  0
   -5.4638   18.3414   -0.1241 C   0  0  0  0  0  0  0  0  0  0  0  0
   -6.9556   18.7260   -0.0838 C   0  0  0  0  0  0  0  0  0  0  0  0
   -8.2773   17.2783    3.5721 C   0  0  0  0  0  0  0  0  0  0  0  0
   -7.1241   18.3458    2.8410 S   0  0  0  0  0  0  0  0  0  0  0  0
   -7.5681   18.0813    1.1399 C   0  0  0  0  0  0  0  0  0  0  0  0
   -8.5852   17.1682    1.2693 C   0  0  0  0  0  0  0  0  0  0  0  0
   -8.9284   16.7715    2.5330 N   0  0  0  0  0  0  0  0  0  0  0  0
  -10.0450   15.7893    2.7709 C   0  0  0  0  0  0  0  0  0  0  0  0
  -10.8743   13.3824    2.5130 C   0  0  0  0  0  0  0  0  0  0  0  0
  -10.6817   12.0754    2.1572 N   0  0  0  0  0  0  0  0  0  0  0  0
   -9.5025   11.6576    1.6895 C   0  0  0  0  0  0  0  0  0  0  0  0
   -8.4808   12.5092    1.5615 N   0  0  0  0  0  0  0  0  0  0  0  0
   -8.5985   13.8217    1.8914 C   0  0  0  0  0  0  0  0  0  0  0  0
   -9.8107   14.3208    2.3808 C   0  0  0  0  0  0  0  0  0  0  0  0
  5  4  1  0  0  0  0
  5  6  1  0  0  0  0
  7  8  2  0  0  0  0
  7 11  1  0  0  0  0
  8  9  1  0  0  0  0
  9 10  2  0  0  0  0
  9  6  1  0  0  0  0
 10  3  1  0  0  0  0
 11 12  1  0  0  0  0
 11 10  1  0  0  0  0
 12 18  1  0  0  0  0
 13  2  1  0  0  0  0
 13 14  2  0  0  0  0
 15 14  1  0  0  0  0
 15  1  1  0  0  0  0
 16 15  2  0  0  0  0
 17 18  2  0  0  0  0
 17 16  1  0  0  0  0
 18 13  1  0  0  0  0
M  END
>  <CHROM.1>
-179.65222805,60.93179755,-109.64970176,-176.02591069,-8.53901960,15.66664302
1.65946765,-2.33384773,0.76280926,0.36641686

>  <Name>
lig.pdb

>  <RI>
0

>  <Rbt.Current_Directory>
/home/itssahil/PROJECTS/Mol_Feturizer/New_Systems/rnas/4nyg

>  <Rbt.Executable>
rbdock ($Id: //depot/dev/client3/rdock/2013.1/src/exe/rbdock.cxx#4 $)

>  <Rbt.Library>
libRbt.so (2013.1, Build901 2013/11/27)

>  <Rbt.Parameter_File>
/export/apps/rDock/src/rDock_2013.1_src/data/scripts/dock_solv.prm

>  <Rbt.Receptor>
prm/blind_docking_100.prm

>  <SCORE>
-17.78

>  <SCORE.INTER>
-17.256

>  <SCORE.INTER.CONST>
1

>  <SCORE.INTER.POLAR>
0

>  <SCORE.INTER.ROT>
4

>  <SCORE.INTER.SOLV>
12.9708

>  <SCORE.INTER.VDW>
-22.0943

>  <SCORE.INTER.norm>
-0.958667

>  <SCORE.INTRA>
-0.524008

>  <SCORE.INTRA.DIHEDRAL>
-0.114204

>  <SCORE.INTRA.DIHEDRAL.0>
3.20029

>  <SCORE.INTRA.POLAR>
0

>  <SCORE.INTRA.POLAR.0>
0

>  <SCORE.INTRA.REPUL>
0

>  <SCORE.INTRA.REPUL.0>
0

>  <SCORE.INTRA.SOLV>
0.0109659

>  <SCORE.INTRA.SOLV.lig_0>
-19.3885

>  <SCORE.INTRA.VDW>
-0.47239

>  <SCORE.INTRA.VDW.0>
-1.12705

>  <SCORE.INTRA.norm>
-0.0291116

>  <SCORE.RESTR>
0

>  <SCORE.RESTR.CAVITY>
0

>  <SCORE.RESTR.norm>
0

>  <SCORE.SYSTEM>
0

>  <SCORE.SYSTEM.CONST>
0

>  <SCORE.SYSTEM.DIHEDRAL>
0

>  <SCORE.SYSTEM.SOLV>
0

>  <SCORE.SYSTEM.norm>
0

>  <SCORE.heavy>
18

>  <SCORE.norm>
-0.987778

>  <RMSD>
4.180

$$$$
lig.pdb
 OpenBabel11021811503D
libRbt.so/2013.1/901 2013/11/27
 18 19  0  0  0  0  0  0  0  0999 V2000
  -14.5993   15.7296    3.9308 C   0  0  0  0  0  0  0  0  0  0  0  0
  -12.0868   11.9525    2.2124 N   0  0  0  0  0  0  0  0  0  0  0  0
   -7.3968   14.7574    3.1529 C   0  0  0  0  0  0  0  0  0  0  0  0
   -4.2991   12.3530    3.2171 O   0  0  0  0  0  0  0  0  0  0  0  0
   -4.6476   11.9821    4.5438 C   0  0  0  0  0  0  0  0  0  0  0  0
   -5.8335   12.8317    5.0405 C   0  0  0  0  0  0  0  0  0  0  0  0
   -9.0850   11.4276    2.8808 C   0  0  0  0  0  0  0  0  0  0  0  0
   -7.8614   10.9467    4.0103 S   0  0  0  0  0  0  0  0  0  0  0  0
   -7.0303   12.5098    4.1732 C   0  0  0  0  0  0  0  0  0  0  0  0
   -7.7698   13.2942    3.3231 C   0  0  0  0  0  0  0  0  0  0  0  0
   -8.8209   12.7107    2.6698 N   0  0  0  0  0  0  0  0  0  0  0  0
   -9.6987   13.4994    1.7341 C   0  0  0  0  0  0  0  0  0  0  0  0
  -12.1265   13.3123    2.5203 C   0  0  0  0  0  0  0  0  0  0  0  0
  -13.2683   13.8590    3.0391 N   0  0  0  0  0  0  0  0  0  0  0  0
  -13.3307   15.1578    3.3442 C   0  0  0  0  0  0  0  0  0  0  0  0
  -12.2767   15.9547    3.1457 N   0  0  0  0  0  0  0  0  0  0  0  0
  -11.1089   15.4824    2.6375 C   0  0  0  0  0  0  0  0  0  0  0  0
  -10.9798   14.1295    2.3043 C   0  0  0  0  0  0  0  0  0  0  0  0
  5  4  1  0  0  0  0
  5  6  1  0  0  0  0
  7  8  2  0  0  0  0
  7 11  1  0  0  0  0
  8  9  1  0  0  0  0
  9 10  2  0  0  0  0
  9  6  1  0  0  0  0
 10  3  1  0  0  0  0
 11 12  1  0  0  0  0
 11 10  1  0  0  0  0
 12 18  1  0  0  0  0
 13  2  1  0  0  0  0
 13 14  2  0  0  0  0
 15 14  1  0  0  0  0
 15  1  1  0  0  0  0
 16 15  2  0  0  0  0
 17 18  2  0  0  0  0
 17 16  1  0  0  0  0
 18 13  1  0  0  0  0
M  END
>  <CHROM.1>
63.98183876,63.08984128,85.65216329,-78.24235256,-9.39104773,13.26329498
3.27950579,-2.79985799,0.15081150,-3.07933523

>  <Name>
lig.pdb

>  <RI>
0

>  <Rbt.Current_Directory>
/home/itssahil/PROJECTS/Mol_Feturizer/New_Systems/rnas/4nyg

>  <Rbt.Executable>
rbdock ($Id: //depot/dev/client3/rdock/2013.1/src/exe/rbdock.cxx#4 $)

>  <Rbt.Library>
libRbt.so (2013.1, Build901 2013/11/27)

>  <Rbt.Parameter_File>
/export/apps/rDock/src/rDock_2013.1_src/data/scripts/dock_solv.prm

>  <Rbt.Receptor>
prm/pocket_docking_5.prm

>  <SCORE>
-19.6366

>  <SCORE.INTER>
-19.2832

>  <SCORE.INTER.CONST>
1

>  <SCORE.INTER.POLAR>
0

>  <SCORE.INTER.ROT>
4

>  <SCORE.INTER.SOLV>
12.105

>  <SCORE.INTER.VDW>
-23.1571

>  <SCORE.INTER.norm>
-1.07129

>  <SCORE.INTRA>
-0.353428

>  <SCORE.INTRA.DIHEDRAL>
0.0601152

>  <SCORE.INTRA.DIHEDRAL.0>
3.20029

>  <SCORE.INTRA.POLAR>
0

>  <SCORE.INTRA.POLAR.0>
0

>  <SCORE.INTRA.REPUL>
0

>  <SCORE.INTRA.REPUL.0>
0

>  <SCORE.INTRA.SOLV>
1.05077

>  <SCORE.INTRA.SOLV.lig_0>
-19.3885

>  <SCORE.INTRA.VDW>
-0.908871

>  <SCORE.INTRA.VDW.0>
-1.12705

>  <SCORE.INTRA.norm>
-0.0196349

>  <SCORE.RESTR>
0

>  <SCORE.RESTR.CAVITY>
0

>  <SCORE.RESTR.norm>
0

>  <SCORE.SYSTEM>
0

>  <SCORE.SYSTEM.CONST>
0

>  <SCORE.SYSTEM.DIHEDRAL>
0

>  <SCORE.SYSTEM.SOLV>
0

>  <SCORE.SYSTEM.norm>
0

>  <SCORE.heavy>
18

>  <SCORE.norm>
-1.09092

>  <RMSD>
4.184

$$$$
lig.pdb
 OpenBabel11021811503D
libRbt.so/2013.1/901 2013/11/27
 18 19  0  0  0  0  0  0  0  0999 V2000
   -9.2803   10.2279    1.3045 C   0  0  0  0  0  0  0  0  0  0  0  0
  -12.1002   13.8074    2.9682 N   0  0  0  0  0  0  0  0  0  0  0  0
   -9.2675   16.6837   -0.0060 C   0  0  0  0  0  0  0  0  0  0  0  0
   -4.8343   18.9390   -1.2871 O   0  0  0  0  0  0  0  0  0  0  0  0
   -5.4534   18.3870   -0.1334 C   0  0  0  0  0  0  0  0  0  0  0  0
   -6.9475   18.7631   -0.0989 C   0  0  0  0  0  0  0  0  0  0  0  0
   -8.2741   17.3015    3.5497 C   0  0  0  0  0  0  0  0  0  0  0  0
   -7.1212   18.3733    2.8244 S   0  0  0  0  0  0  0  0  0  0  0  0
   -7.5613   18.1135    1.1216 C   0  0  0  0  0  0  0  0  0  0  0  0
   -8.5771   17.1982    1.2460 C   0  0  0  0  0  0  0  0  0  0  0  0
   -8.9222   16.7969    2.5077 N   0  0  0  0  0  0  0  0  0  0  0  0
  -10.0376   15.8120    2.7402 C   0  0  0  0  0  0  0  0  0  0  0  0
  -10.8533   13.3991    2.4952 C   0  0  0  0  0  0  0  0  0  0  0  0
  -10.6520   12.0905    2.1503 N   0  0  0  0  0  0  0  0  0  0  0  0
   -9.4679   11.6752    1.6928 C   0  0  0  0  0  0  0  0  0  0  0  0
   -8.4498   12.5310    1.5646 N   0  0  0  0  0  0  0  0  0  0  0  0
   -8.5760   13.8453    1.8840 C   0  0  0  0  0  0  0  0  0  0  0  0
   -9.7936   14.3418    2.3625 C   0  0  0  0  0  0  0  0  0  0  0  0
  5  4  1  0  0  0  0
  5  6  1  0  0  0  0
  7  8  2  0  0  0  0
  7 11  1  0  0  0  0
  8  9  1  0  0  0  0
  9 10  2  0  0  0  0
  9  6  1  0  0  0  0
 10  3  1  0  0  0  0
 11 12  1  0  0  0  0
 11 10  1  0  0  0  0
 12 18  1  0  0  0  0
 13  2  1  0  0  0  0
 13 14  2  0  0  0  0
 15 14  1  0  0  0  0
 15  1  1  0  0  0  0
 16 15  2  0  0  0  0
 17 18  2  0  0  0  0
 17 16  1  0  0  0  0
 18 13  1  0  0  0  0
M  END
>  <CHROM.1>
178.19351502,60.65237167,-108.88805349,-176.30859178,-8.52433077,15.69077001
1.64390381,-2.32493747,0.76068218,0.35508612

>  <Name>
lig.pdb

>  <RI>
0

>  <Rbt.Current_Directory>
/home/itssahil/PROJECTS/Mol_Feturizer/New_Systems/rnas/4nyg

>  <Rbt.Executable>
rbdock ($Id: //depot/dev/client3/rdock/2013.1/src/exe/rbdock.cxx#4 $)

>  <Rbt.Library>
libRbt.so (2013.1, Build901 2013/11/27)

>  <Rbt.Parameter_File>
/export/apps/rDock/src/rDock_2013.1_src/data/scripts/dock_solv.prm

>  <Rbt.Receptor>
prm/blind_docking_80.prm

>  <SCORE>
-17.79

>  <SCORE.INTER>
-17.2564

>  <SCORE.INTER.CONST>
1

>  <SCORE.INTER.POLAR>
0

>  <SCORE.INTER.ROT>
4

>  <SCORE.INTER.SOLV>
12.9316

>  <SCORE.INTER.VDW>
-22.0815

>  <SCORE.INTER.norm>
-0.958688

>  <SCORE.INTRA>
-0.53364

>  <SCORE.INTRA.DIHEDRAL>
-0.105126

>  <SCORE.INTRA.DIHEDRAL.0>
3.20029

>  <SCORE.INTRA.POLAR>
0

>  <SCORE.INTRA.POLAR.0>
0

>  <SCORE.INTRA.REPUL>
0

>  <SCORE.INTRA.REPUL.0>
0

>  <SCORE.INTRA.SOLV>
0.00621457

>  <SCORE.INTRA.SOLV.lig_0>
-19.3885

>  <SCORE.INTRA.VDW>
-0.484185

>  <SCORE.INTRA.VDW.0>
-1.12705

>  <SCORE.INTRA.norm>
-0.0296467

>  <SCORE.RESTR>
0

>  <SCORE.RESTR.CAVITY>
0

>  <SCORE.RESTR.norm>
0

>  <SCORE.SYSTEM>
0

>  <SCORE.SYSTEM.CONST>
0

>  <SCORE.SYSTEM.DIHEDRAL>
0

>  <SCORE.SYSTEM.SOLV>
0

>  <SCORE.SYSTEM.norm>
0

>  <SCORE.heavy>
18

>  <SCORE.norm>
-0.988334

>  <RMSD>
4.185

$$$$
lig.pdb
 OpenBabel11021811503D
libRbt.so/2013.1/901 2013/11/27
 18 19  0  0  0  0  0  0  0  0999 V2000
  -14.6554   15.8172    4.0339 C   0  0  0  0  0  0  0  0  0  0  0  0
  -12.0994   12.0543    2.3485 N   0  0  0  0  0  0  0  0  0  0  0  0
   -7.3622   14.7920    3.1021 C   0  0  0  0  0  0  0  0  0  0  0  0
   -4.3999   12.2228    3.0604 O   0  0  0  0  0  0  0  0  0  0  0  0
   -4.7031   11.8889    4.4079 C   0  0  0  0  0  0  0  0  0  0  0  0
   -5.8308   12.7943    4.9403 C   0  0  0  0  0  0  0  0  0  0  0  0
   -9.2122   11.5450    2.8875 C   0  0  0  0  0  0  0  0  0  0  0  0
   -7.9768   11.0068    3.9775 S   0  0  0  0  0  0  0  0  0  0  0  0
   -7.0687   12.5292    4.1122 C   0  0  0  0  0  0  0  0  0  0  0  0
   -7.7976   13.3479    3.2855 C   0  0  0  0  0  0  0  0  0  0  0  0
   -8.8953   12.8145    2.6669 N   0  0  0  0  0  0  0  0  0  0  0  0
   -9.7648   13.6439    1.7591 C   0  0  0  0  0  0  0  0  0  0  0  0
  -12.1641   13.4209    2.6198 C   0  0  0  0  0  0  0  0  0  0  0  0
  -13.3041   13.9546    3.1561 N   0  0  0  0  0  0  0  0  0  0  0  0
  -13.3900   15.2596    3.4270 C   0  0  0  0  0  0  0  0  0  0  0  0
  -12.3621   16.0756    3.1763 N   0  0  0  0  0  0  0  0  0  0  0  0
  -11.1977   15.6173    2.6478 C   0  0  0  0  0  0  0  0  0  0  0  0
  -11.0445   14.2590    2.3484 C   0  0  0  0  0  0  0  0  0  0  0  0
  5  4  1  0  0  0  0
  5  6  1  0  0  0  0
  7  8  2  0  0  0  0
  7 11  1  0  0  0  0
  8  9  1  0  0  0  0
  9 10  2  0  0  0  0
  9  6  1  0  0  0  0
 10  3  1  0  0  0  0
 11 12  1  0  0  0  0
 11 10  1  0  0  0  0
 12 18  1  0  0  0  0
 13  2  1  0  0  0  0
 13 14  2  0  0  0  0
 15 14  1  0  0  0  0
 15  1  1  0  0  0  0
 16 15  2  0  0  0  0
 17 18  2  0  0  0  0
 17 16  1  0  0  0  0
 18 13  1  0  0  0  0
M  END
>  <CHROM.1>
62.71652015,63.01007749,81.81209149,-73.65928849,-9.45113157,13.32440547
3.27934901,-2.77358284,0.10931352,-3.12431299

>  <Name>
lig.pdb

>  <RI>
0

>  <Rbt.Current_Directory>
/home/itssahil/PROJECTS/Mol_Feturizer/New_Systems/rnas/4nyg

>  <Rbt.Executable>
rbdock ($Id: //depot/dev/client3/rdock/2013.1/src/exe/rbdock.cxx#4 $)

>  <Rbt.Library>
libRbt.so (2013.1, Build901 2013/11/27)

>  <Rbt.Parameter_File>
/export/apps/rDock/src/rDock_2013.1_src/data/scripts/dock_solv.prm

>  <Rbt.Receptor>
prm/pocket_docking_7.prm

>  <SCORE>
-19.6182

>  <SCORE.INTER>
-19.3571

>  <SCORE.INTER.CONST>
1

>  <SCORE.INTER.POLAR>
0

>  <SCORE.INTER.ROT>
4

>  <SCORE.INTER.SOLV>
12.027

>  <SCORE.INTER.VDW>
-23.1804

>  <SCORE.INTER.norm>
-1.07539

>  <SCORE.INTRA>
-0.261154

>  <SCORE.INTRA.DIHEDRAL>
0.0233454

>  <SCORE.INTRA.DIHEDRAL.0>
3.20029

>  <SCORE.INTRA.POLAR>
0

>  <SCORE.INTRA.POLAR.0>
0

>  <SCORE.INTRA.REPUL>
0

>  <SCORE.INTRA.REPUL.0>
0

>  <SCORE.INTRA.SOLV>
1.11122

>  <SCORE.INTRA.SOLV.lig_0>
-19.3885

>  <SCORE.INTRA.VDW>
-0.828439

>  <SCORE.INTRA.VDW.0>
-1.12705

>  <SCORE.INTRA.norm>
-0.0145085

>  <SCORE.RESTR>
0

>  <SCORE.RESTR.CAVITY>
0

>  <SCORE.RESTR.norm>
0

>  <SCORE.SYSTEM>
0

>  <SCORE.SYSTEM.CONST>
0

>  <SCORE.SYSTEM.DIHEDRAL>
0

>  <SCORE.SYSTEM.SOLV>
0

>  <SCORE.SYSTEM.norm>
0

>  <SCORE.heavy>
18

>  <SCORE.norm>
-1.0899

>  <RMSD>
4.213

$$$$
lig.pdb
 OpenBabel11021811503D
libRbt.so/2013.1/901 2013/11/27
 18 19  0  0  0  0  0  0  0  0999 V2000
  -15.1046   15.7328    3.9463 C   0  0  0  0  0  0  0  0  0  0  0  0
  -11.3066   12.8215    3.1518 N   0  0  0  0  0  0  0  0  0  0  0  0
   -8.4685   15.8206   -0.0446 C   0  0  0  0  0  0  0  0  0  0  0  0
   -7.1746   20.0120   -1.7701 O   0  0  0  0  0  0  0  0  0  0  0  0
   -7.7216   19.3742   -0.6243 C   0  0  0  0  0  0  0  0  0  0  0  0
   -6.7006   18.3876   -0.0253 C   0  0  0  0  0  0  0  0  0  0  0  0
   -8.2754   16.9304    3.5251 C   0  0  0  0  0  0  0  0  0  0  0  0
   -7.2874   18.1914    2.8634 S   0  0  0  0  0  0  0  0  0  0  0  0
   -7.3539   17.7034    1.1552 C   0  0  0  0  0  0  0  0  0  0  0  0
   -8.1414   16.5813    1.2295 C   0  0  0  0  0  0  0  0  0  0  0  0
   -8.6007   16.2056    2.4624 N   0  0  0  0  0  0  0  0  0  0  0  0
   -9.4866   15.0001    2.6358 C   0  0  0  0  0  0  0  0  0  0  0  0
  -11.8179   14.1177    3.2135 C   0  0  0  0  0  0  0  0  0  0  0  0
  -13.1364   14.3145    3.5210 N   0  0  0  0  0  0  0  0  0  0  0  0
  -13.6494   15.5459    3.5885 C   0  0  0  0  0  0  0  0  0  0  0  0
  -12.8842   16.6156    3.3533 N   0  0  0  0  0  0  0  0  0  0  0  0
  -11.5663   16.4983    3.0457 C   0  0  0  0  0  0  0  0  0  0  0  0
  -10.9696   15.2350    2.9662 C   0  0  0  0  0  0  0  0  0  0  0  0
  5  4  1  0  0  0  0
  5  6  1  0  0  0  0
  7  8  2  0  0  0  0
  7 11  1  0  0  0  0
  8  9  1  0  0  0  0
  9 10  2  0  0  0  0
  9  6  1  0  0  0  0
 10  3  1  0  0  0  0
 11 12  1  0  0  0  0
 11 10  1  0  0  0  0
 12 18  1  0  0  0  0
 13  2  1  0  0  0  0
 13 14  2  0  0  0  0
 15 14  1  0  0  0  0
 15  1  1  0  0  0  0
 16 15  2  0  0  0  0
 17 18  2  0  0  0  0
 17 16  1  0  0  0  0
 18 13  1  0  0  0  0
M  END
>  <CHROM.1>
-177.91369475,-92.70426492,71.12880257,-176.36392105,-9.77238296,16.55918434
2.12113581,2.44804114,-0.08482450,2.51855819

>  <Name>
lig.pdb

>  <RI>
0

>  <Rbt.Current_Directory>
/home/itssahil/PROJECTS/Mol_Feturizer/New_Systems/rnas/4nyg

>  <Rbt.Executable>
rbdock ($Id: //depot/dev/client3/rdock/2013.1/src/exe/rbdock.cxx#4 $)

>  <Rbt.Library>
libRbt.so (2013.1, Build901 2013/11/27)

>  <Rbt.Parameter_File>
/export/apps/rDock/src/rDock_2013.1_src/data/scripts/dock_solv.prm

>  <Rbt.Receptor>
prm/blind_docking_100.prm

>  <SCORE>
-22.1689

>  <SCORE.INTER>
-22.4983

>  <SCORE.INTER.CONST>
1

>  <SCORE.INTER.POLAR>
0

>  <SCORE.INTER.ROT>
4

>  <SCORE.INTER.SOLV>
16.0826

>  <SCORE.INTER.VDW>
-26.6264

>  <SCORE.INTER.norm>
-1.24991

>  <SCORE.INTRA>
0.329362

>  <SCORE.INTRA.DIHEDRAL>
1.52138

>  <SCORE.INTRA.DIHEDRAL.0>
3.20029

>  <SCORE.INTRA.POLAR>
0

>  <SCORE.INTRA.POLAR.0>
0

>  <SCORE.INTRA.REPUL>
0

>  <SCORE.INTRA.REPUL.0>
0

>  <SCORE.INTRA.SOLV>
-0.0148444

>  <SCORE.INTRA.SOLV.lig_0>
-19.3885

>  <SCORE.INTRA.VDW>
-0.423903

>  <SCORE.INTRA.VDW.0>
-1.12705

>  <SCORE.INTRA.norm>
0.0182979

>  <SCORE.RESTR>
0

>  <SCORE.RESTR.CAVITY>
0

>  <SCORE.RESTR.norm>
0

>  <SCORE.SYSTEM>
0

>  <SCORE.SYSTEM.CONST>
0

>  <SCORE.SYSTEM.DIHEDRAL>
0

>  <SCORE.SYSTEM.SOLV>
0

>  <SCORE.SYSTEM.norm>
0

>  <SCORE.heavy>
18

>  <SCORE.norm>
-1.23161

>  <RMSD>
4.221

$$$$
lig.pdb
 OpenBabel11021811503D
libRbt.so/2013.1/901 2013/11/27
 18 19  0  0  0  0  0  0  0  0999 V2000
  -14.2168   15.0024    3.6458 C   0  0  0  0  0  0  0  0  0  0  0  0
   -9.5361   15.0544    2.3724 N   0  0  0  0  0  0  0  0  0  0  0  0
   -6.6347   12.9582    1.1570 C   0  0  0  0  0  0  0  0  0  0  0  0
   -5.0544   14.2800    4.4574 O   0  0  0  0  0  0  0  0  0  0  0  0
   -4.3892   13.0360    4.6273 C   0  0  0  0  0  0  0  0  0  0  0  0
   -4.6807   12.1082    3.4318 C   0  0  0  0  0  0  0  0  0  0  0  0
   -8.7320   11.2807    3.7645 C   0  0  0  0  0  0  0  0  0  0  0  0
   -7.2110   11.1003    4.5758 S   0  0  0  0  0  0  0  0  0  0  0  0
   -6.1764   11.8920    3.3661 C   0  0  0  0  0  0  0  0  0  0  0  0
   -7.0997   12.2342    2.4094 C   0  0  0  0  0  0  0  0  0  0  0  0
   -8.4079   11.9060    2.6400 N   0  0  0  0  0  0  0  0  0  0  0  0
   -9.4910   12.2600    1.6553 C   0  0  0  0  0  0  0  0  0  0  0  0
  -10.7180   14.3297    2.5259 C   0  0  0  0  0  0  0  0  0  0  0  0
  -11.8428   14.9540    2.9917 N   0  0  0  0  0  0  0  0  0  0  0  0
  -12.9871   14.2826    3.1452 C   0  0  0  0  0  0  0  0  0  0  0  0
  -13.0577   12.9816    2.8494 N   0  0  0  0  0  0  0  0  0  0  0  0
  -11.9833   12.2960    2.3792 C   0  0  0  0  0  0  0  0  0  0  0  0
  -10.7584   12.9457    2.1910 C   0  0  0  0  0  0  0  0  0  0  0  0
  5  4  1  0  0  0  0
  5  6  1  0  0  0  0
  7  8  2  0  0  0  0
  7 11  1  0  0  0  0
  8  9  1  0  0  0  0
  9 10  2  0  0  0  0
  9  6  1  0  0  0  0
 10  3  1  0  0  0  0
 11 12  1  0  0  0  0
 11 10  1  0  0  0  0
 12 18  1  0  0  0  0
 13  2  1  0  0  0  0
 13 14  2  0  0  0  0
 15 14  1  0  0  0  0
 15  1  1  0  0  0  0
 16 15  2  0  0  0  0
 17 18  2  0  0  0  0
 17 16  1  0  0  0  0
 18 13  1  0  0  0  0
M  END
>  <CHROM.1>
-59.81761351,-63.50165168,47.87670404,76.69241499,-8.87854403,12.93862967
3.13457495,-2.90699830,0.11729590,3.10183200

>  <Name>
lig.pdb

>  <RI>
0

>  <Rbt.Current_Directory>
/home/itssahil/PROJECTS/Mol_Feturizer/New_Systems/rnas/4nyg

>  <Rbt.Executable>
rbdock ($Id: //depot/dev/client3/rdock/2013.1/src/exe/rbdock.cxx#4 $)

>  <Rbt.Library>
libRbt.so (2013.1, Build901 2013/11/27)

>  <Rbt.Parameter_File>
/export/apps/rDock/src/rDock_2013.1_src/data/scripts/dock_solv.prm

>  <Rbt.Receptor>
prm/pocket_docking_7.prm

>  <SCORE>
-16.8479

>  <SCORE.INTER>
-16.6456

>  <SCORE.INTER.CONST>
1

>  <SCORE.INTER.POLAR>
0

>  <SCORE.INTER.ROT>
4

>  <SCORE.INTER.SOLV>
10.7665

>  <SCORE.INTER.VDW>
-20.9526

>  <SCORE.INTER.norm>
-0.924755

>  <SCORE.INTRA>
-0.202288

>  <SCORE.INTRA.DIHEDRAL>
-0.0933438

>  <SCORE.INTRA.DIHEDRAL.0>
3.20029

>  <SCORE.INTRA.POLAR>
0

>  <SCORE.INTRA.POLAR.0>
0

>  <SCORE.INTRA.REPUL>
0

>  <SCORE.INTRA.REPUL.0>
0

>  <SCORE.INTRA.SOLV>
1.24726

>  <SCORE.INTRA.SOLV.lig_0>
-19.3885

>  <SCORE.INTRA.VDW>
-0.779248

>  <SCORE.INTRA.VDW.0>
-1.12705

>  <SCORE.INTRA.norm>
-0.0112382

>  <SCORE.RESTR>
0

>  <SCORE.RESTR.CAVITY>
0

>  <SCORE.RESTR.norm>
0

>  <SCORE.SYSTEM>
0

>  <SCORE.SYSTEM.CONST>
0

>  <SCORE.SYSTEM.DIHEDRAL>
0

>  <SCORE.SYSTEM.SOLV>
0

>  <SCORE.SYSTEM.norm>
0

>  <SCORE.heavy>
18

>  <SCORE.norm>
-0.935994

>  <RMSD>
4.235

$$$$
lig.pdb
 OpenBabel11021811503D
libRbt.so/2013.1/901 2013/11/27
 18 19  0  0  0  0  0  0  0  0999 V2000
  -14.7670   16.0609    4.1047 C   0  0  0  0  0  0  0  0  0  0  0  0
  -12.1520   12.3536    2.3871 N   0  0  0  0  0  0  0  0  0  0  0  0
   -8.9629   11.2373    2.1592 C   0  0  0  0  0  0  0  0  0  0  0  0
   -4.3243   12.1381    3.6800 O   0  0  0  0  0  0  0  0  0  0  0  0
   -5.1136   11.0198    3.2987 C   0  0  0  0  0  0  0  0  0  0  0  0
   -6.4726   11.0543    4.0246 C   0  0  0  0  0  0  0  0  0  0  0  0
   -8.0947   14.7568    3.0925 C   0  0  0  0  0  0  0  0  0  0  0  0
   -6.8325   13.9864    3.9966 S   0  0  0  0  0  0  0  0  0  0  0  0
   -7.2060   12.2995    3.5775 C   0  0  0  0  0  0  0  0  0  0  0  0
   -8.2994   12.4634    2.7636 C   0  0  0  0  0  0  0  0  0  0  0  0
   -8.7362   13.7392    2.5323 N   0  0  0  0  0  0  0  0  0  0  0  0
   -9.9153   14.0147    1.6369 C   0  0  0  0  0  0  0  0  0  0  0  0
  -12.2572   13.7238    2.6260 C   0  0  0  0  0  0  0  0  0  0  0  0
  -13.3889   14.2279    3.2065 N   0  0  0  0  0  0  0  0  0  0  0  0
  -13.5128   15.5357    3.4477 C   0  0  0  0  0  0  0  0  0  0  0  0
  -12.5322   16.3833    3.1232 N   0  0  0  0  0  0  0  0  0  0  0  0
  -11.3788   15.9556    2.5472 C   0  0  0  0  0  0  0  0  0  0  0  0
  -11.1871   14.5963    2.2755 C   0  0  0  0  0  0  0  0  0  0  0  0
  5  4  1  0  0  0  0
  5  6  1  0  0  0  0
  7  8  2  0  0  0  0
  7 11  1  0  0  0  0
  8  9  1  0  0  0  0
  9 10  2  0  0  0  0
  9  6  1  0  0  0  0
 10  3  1  0  0  0  0
 11 12  1  0  0  0  0
 11 10  1  0  0  0  0
 12 18  1  0  0  0  0
 13  2  1  0  0  0  0
 13 14  2  0  0  0  0
 15 14  1  0  0  0  0
 15  1  1  0  0  0  0
 16 15  2  0  0  0  0
 17 18  2  0  0  0  0
 17 16  1  0  0  0  0
 18 13  1  0  0  0  0
M  END
>  <CHROM.1>
63.01570620,-71.46075833,-67.43278712,-97.37588500,-9.47628070,13.63744419
3.10411219,-2.76387338,0.15473564,-2.89780160

>  <Name>
lig.pdb

>  <RI>
0

>  <Rbt.Current_Directory>
/home/itssahil/PROJECTS/Mol_Feturizer/New_Systems/rnas/4nyg

>  <Rbt.Executable>
rbdock ($Id: //depot/dev/client3/rdock/2013.1/src/exe/rbdock.cxx#4 $)

>  <Rbt.Library>
libRbt.so (2013.1, Build901 2013/11/27)

>  <Rbt.Parameter_File>
/export/apps/rDock/src/rDock_2013.1_src/data/scripts/dock_solv.prm

>  <Rbt.Receptor>
prm/pocket_docking_4.prm

>  <SCORE>
-19.1748

>  <SCORE.INTER>
-19.0296

>  <SCORE.INTER.CONST>
1

>  <SCORE.INTER.POLAR>
0

>  <SCORE.INTER.ROT>
4

>  <SCORE.INTER.SOLV>
11.9053

>  <SCORE.INTER.VDW>
-22.9215

>  <SCORE.INTER.norm>
-1.0572

>  <SCORE.INTRA>
-0.145224

>  <SCORE.INTRA.DIHEDRAL>
0.173632

>  <SCORE.INTRA.DIHEDRAL.0>
3.20029

>  <SCORE.INTRA.POLAR>
0

>  <SCORE.INTRA.POLAR.0>
0

>  <SCORE.INTRA.REPUL>
0

>  <SCORE.INTRA.REPUL.0>
0

>  <SCORE.INTRA.SOLV>
1.0089

>  <SCORE.INTRA.SOLV.lig_0>
-19.3885

>  <SCORE.INTRA.VDW>
-0.736489

>  <SCORE.INTRA.VDW.0>
-1.12705

>  <SCORE.INTRA.norm>
-0.00806801

>  <SCORE.RESTR>
0

>  <SCORE.RESTR.CAVITY>
0

>  <SCORE.RESTR.norm>
0

>  <SCORE.SYSTEM>
0

>  <SCORE.SYSTEM.CONST>
0

>  <SCORE.SYSTEM.DIHEDRAL>
0

>  <SCORE.SYSTEM.SOLV>
0

>  <SCORE.SYSTEM.norm>
0

>  <SCORE.heavy>
18

>  <SCORE.norm>
-1.06527

>  <RMSD>
4.252

$$$$
lig.pdb
 OpenBabel11021811503D
libRbt.so/2013.1/901 2013/11/27
 18 19  0  0  0  0  0  0  0  0999 V2000
   -9.0016    9.6517    1.0825 C   0  0  0  0  0  0  0  0  0  0  0  0
  -12.2722   12.8403    2.7161 N   0  0  0  0  0  0  0  0  0  0  0  0
   -9.1877   16.0446    0.1617 C   0  0  0  0  0  0  0  0  0  0  0  0
   -5.2595   17.0045    1.5008 O   0  0  0  0  0  0  0  0  0  0  0  0
   -5.8011   17.4914    0.2806 C   0  0  0  0  0  0  0  0  0  0  0  0
   -7.0798   18.3071    0.5531 C   0  0  0  0  0  0  0  0  0  0  0  0
   -8.9941   16.6671    3.8477 C   0  0  0  0  0  0  0  0  0  0  0  0
   -7.8117   17.8438    3.3775 S   0  0  0  0  0  0  0  0  0  0  0  0
   -7.8726   17.5845    1.6198 C   0  0  0  0  0  0  0  0  0  0  0  0
   -8.8121   16.5874    1.5304 C   0  0  0  0  0  0  0  0  0  0  0  0
   -9.3720   16.1332    2.6932 N   0  0  0  0  0  0  0  0  0  0  0  0
  -10.4248   15.0563    2.6890 C   0  0  0  0  0  0  0  0  0  0  0  0
  -10.9650   12.5854    2.3019 C   0  0  0  0  0  0  0  0  0  0  0  0
  -10.6074   11.3217    1.9184 N   0  0  0  0  0  0  0  0  0  0  0  0
   -9.3627   11.0527    1.5156 C   0  0  0  0  0  0  0  0  0  0  0  0
   -8.4358   12.0144    1.4813 N   0  0  0  0  0  0  0  0  0  0  0  0
   -8.7181   13.2927    1.8440 C   0  0  0  0  0  0  0  0  0  0  0  0
  -10.0058   13.6381    2.2690 C   0  0  0  0  0  0  0  0  0  0  0  0
  5  4  1  0  0  0  0
  5  6  1  0  0  0  0
  7  8  2  0  0  0  0
  7 11  1  0  0  0  0
  8  9  1  0  0  0  0
  9 10  2  0  0  0  0
  9  6  1  0  0  0  0
 10  3  1  0  0  0  0
 11 12  1  0  0  0  0
 11 10  1  0  0  0  0
 12 18  1  0  0  0  0
 13  2  1  0  0  0  0
 13 14  2  0  0  0  0
 15 14  1  0  0  0  0
 15  1  1  0  0  0  0
 16 15  2  0  0  0  0
 17 18  2  0  0  0  0
 17 16  1  0  0  0  0
 18 13  1  0  0  0  0
M  END
>  <CHROM.1>
-40.86171415,92.78098719,-113.04833634,177.66679657,-8.76836158,14.96096757
1.93970150,-2.09744780,0.53103350,0.28736934

>  <Name>
lig.pdb

>  <RI>
0

>  <Rbt.Current_Directory>
/home/itssahil/PROJECTS/Mol_Feturizer/New_Systems/rnas/4nyg

>  <Rbt.Executable>
rbdock ($Id: //depot/dev/client3/rdock/2013.1/src/exe/rbdock.cxx#4 $)

>  <Rbt.Library>
libRbt.so (2013.1, Build901 2013/11/27)

>  <Rbt.Parameter_File>
/export/apps/rDock/src/rDock_2013.1_src/data/scripts/dock_solv.prm

>  <Rbt.Receptor>
prm/blind_docking_20.prm

>  <SCORE>
-11.9724

>  <SCORE.INTER>
-14.93

>  <SCORE.INTER.CONST>
1

>  <SCORE.INTER.POLAR>
0

>  <SCORE.INTER.ROT>
4

>  <SCORE.INTER.SOLV>
12.8862

>  <SCORE.INTER.VDW>
-20.5154

>  <SCORE.INTER.norm>
-0.829443

>  <SCORE.INTRA>
1.44641

>  <SCORE.INTRA.DIHEDRAL>
2.69781

>  <SCORE.INTRA.DIHEDRAL.0>
3.20029

>  <SCORE.INTRA.POLAR>
0

>  <SCORE.INTRA.POLAR.0>
0

>  <SCORE.INTRA.REPUL>
0

>  <SCORE.INTRA.REPUL.0>
0

>  <SCORE.INTRA.SOLV>
0.671912

>  <SCORE.INTRA.SOLV.lig_0>
-19.3885

>  <SCORE.INTRA.VDW>
-0.23845

>  <SCORE.INTRA.VDW.0>
-1.12705

>  <SCORE.INTRA.norm>
0.0803562

>  <SCORE.RESTR>
1.51118

>  <SCORE.RESTR.CAVITY>
1.51118

>  <SCORE.RESTR.norm>
0.0839542

>  <SCORE.SYSTEM>
0

>  <SCORE.SYSTEM.CONST>
0

>  <SCORE.SYSTEM.DIHEDRAL>
0

>  <SCORE.SYSTEM.SOLV>
0

>  <SCORE.SYSTEM.norm>
0

>  <SCORE.heavy>
18

>  <SCORE.norm>
-0.665133

>  <RMSD>
4.260

$$$$
lig.pdb
 OpenBabel11021811503D
libRbt.so/2013.1/901 2013/11/27
 18 19  0  0  0  0  0  0  0  0999 V2000
  -14.5804   15.7201    3.9200 C   0  0  0  0  0  0  0  0  0  0  0  0
  -11.9913   11.9525    2.2971 N   0  0  0  0  0  0  0  0  0  0  0  0
   -7.3813   14.7813    3.2135 C   0  0  0  0  0  0  0  0  0  0  0  0
   -4.7597   10.7256    4.4749 O   0  0  0  0  0  0  0  0  0  0  0  0
   -4.5939   12.1368    4.4732 C   0  0  0  0  0  0  0  0  0  0  0  0
   -5.8354   12.8200    5.0788 C   0  0  0  0  0  0  0  0  0  0  0  0
   -9.0441   11.4490    2.8352 C   0  0  0  0  0  0  0  0  0  0  0  0
   -7.8352   10.9484    3.9719 S   0  0  0  0  0  0  0  0  0  0  0  0
   -7.0166   12.5120    4.1853 C   0  0  0  0  0  0  0  0  0  0  0  0
   -7.7477   13.3123    3.3427 C   0  0  0  0  0  0  0  0  0  0  0  0
   -8.7848   12.7384    2.6592 N   0  0  0  0  0  0  0  0  0  0  0  0
   -9.6528   13.5442    1.7290 C   0  0  0  0  0  0  0  0  0  0  0  0
  -12.0633   13.3208    2.5578 C   0  0  0  0  0  0  0  0  0  0  0  0
  -13.2121   13.8550    3.0743 N   0  0  0  0  0  0  0  0  0  0  0  0
  -13.3051   15.1617    3.3347 C   0  0  0  0  0  0  0  0  0  0  0  0
  -12.2760   15.9788    3.0926 N   0  0  0  0  0  0  0  0  0  0  0  0
  -11.1031   15.5199    2.5836 C   0  0  0  0  0  0  0  0  0  0  0  0
  -10.9423   14.1599    2.2961 C   0  0  0  0  0  0  0  0  0  0  0  0
  5  4  1  0  0  0  0
  5  6  1  0  0  0  0
  7  8  2  0  0  0  0
  7 11  1  0  0  0  0
  8  9  1  0  0  0  0
  9 10  2  0  0  0  0
  9  6  1  0  0  0  0
 10  3  1  0  0  0  0
 11 12  1  0  0  0  0
 11 10  1  0  0  0  0
 12 18  1  0  0  0  0
 13  2  1  0  0  0  0
 13 14  2  0  0  0  0
 15 14  1  0  0  0  0
 15  1  1  0  0  0  0
 16 15  2  0  0  0  0
 17 18  2  0  0  0  0
 17 16  1  0  0  0  0
 18 13  1  0  0  0  0
M  END
>  <CHROM.1>
-63.48366904,70.40301969,86.01464126,-74.43444277,-9.38894156,13.18346307
3.35280908,-2.74905345,0.20513205,-3.06212452

>  <Name>
lig.pdb

>  <RI>
0

>  <Rbt.Current_Directory>
/home/itssahil/PROJECTS/Mol_Feturizer/New_Systems/rnas/4nyg

>  <Rbt.Executable>
rbdock ($Id: //depot/dev/client3/rdock/2013.1/src/exe/rbdock.cxx#4 $)

>  <Rbt.Library>
libRbt.so (2013.1, Build901 2013/11/27)

>  <Rbt.Parameter_File>
/export/apps/rDock/src/rDock_2013.1_src/data/scripts/dock_solv.prm

>  <Rbt.Receptor>
prm/pocket_docking_6.prm

>  <SCORE>
-19.54

>  <SCORE.INTER>
-19.307

>  <SCORE.INTER.CONST>
1

>  <SCORE.INTER.POLAR>
0

>  <SCORE.INTER.ROT>
4

>  <SCORE.INTER.SOLV>
11.8662

>  <SCORE.INTER.VDW>
-23.0934

>  <SCORE.INTER.norm>
-1.07261

>  <SCORE.INTRA>
-0.232962

>  <SCORE.INTRA.DIHEDRAL>
0.219174

>  <SCORE.INTRA.DIHEDRAL.0>
3.20029

>  <SCORE.INTRA.POLAR>
0

>  <SCORE.INTRA.POLAR.0>
0

>  <SCORE.INTRA.REPUL>
0

>  <SCORE.INTRA.REPUL.0>
0

>  <SCORE.INTRA.SOLV>
1.01822

>  <SCORE.INTRA.SOLV.lig_0>
-19.3885

>  <SCORE.INTRA.VDW>
-0.851661

>  <SCORE.INTRA.VDW.0>
-1.12705

>  <SCORE.INTRA.norm>
-0.0129423

>  <SCORE.RESTR>
0

>  <SCORE.RESTR.CAVITY>
0

>  <SCORE.RESTR.norm>
0

>  <SCORE.SYSTEM>
0

>  <SCORE.SYSTEM.CONST>
0

>  <SCORE.SYSTEM.DIHEDRAL>
0

>  <SCORE.SYSTEM.SOLV>
0

>  <SCORE.SYSTEM.norm>
0

>  <SCORE.heavy>
18

>  <SCORE.norm>
-1.08556

>  <RMSD>
4.316

$$$$
lig.pdb
 OpenBabel11021811503D
libRbt.so/2013.1/901 2013/11/27
 18 19  0  0  0  0  0  0  0  0999 V2000
   -8.9883    9.6602    1.0633 C   0  0  0  0  0  0  0  0  0  0  0  0
  -12.2315   12.8637    2.7219 N   0  0  0  0  0  0  0  0  0  0  0  0
   -9.2619   16.1958    0.1481 C   0  0  0  0  0  0  0  0  0  0  0  0
   -5.9182   16.3790    0.0038 O   0  0  0  0  0  0  0  0  0  0  0  0
   -5.7464   17.7465    0.3494 C   0  0  0  0  0  0  0  0  0  0  0  0
   -7.1169   18.4200    0.5567 C   0  0  0  0  0  0  0  0  0  0  0  0
   -8.8727   16.6060    3.8483 C   0  0  0  0  0  0  0  0  0  0  0  0
   -7.7059   17.8007    3.3846 S   0  0  0  0  0  0  0  0  0  0  0  0
   -7.8598   17.6424    1.6206 C   0  0  0  0  0  0  0  0  0  0  0  0
   -8.8114   16.6575    1.5238 C   0  0  0  0  0  0  0  0  0  0  0  0
   -9.3144   16.1410    2.6867 N   0  0  0  0  0  0  0  0  0  0  0  0
  -10.3754   15.0722    2.6763 C   0  0  0  0  0  0  0  0  0  0  0  0
  -10.9290   12.6031    2.2965 C   0  0  0  0  0  0  0  0  0  0  0  0
  -10.5799   11.3375    1.9113 N   0  0  0  0  0  0  0  0  0  0  0  0
   -9.3399   11.0630    1.4980 C   0  0  0  0  0  0  0  0  0  0  0  0
   -8.4094   12.0209    1.4546 N   0  0  0  0  0  0  0  0  0  0  0  0
   -8.6832   13.3007    1.8184 C   0  0  0  0  0  0  0  0  0  0  0  0
   -9.9658   13.6518    2.2542 C   0  0  0  0  0  0  0  0  0  0  0  0
  5  4  1  0  0  0  0
  5  6  1  0  0  0  0
  7  8  2  0  0  0  0
  7 11  1  0  0  0  0
  8  9  1  0  0  0  0
  9 10  2  0  0  0  0
  9  6  1  0  0  0  0
 10  3  1  0  0  0  0
 11 12  1  0  0  0  0
 11 10  1  0  0  0  0
 12 18  1  0  0  0  0
 13  2  1  0  0  0  0
 13 14  2  0  0  0  0
 15 14  1  0  0  0  0
 15  1  1  0  0  0  0
 16 15  2  0  0  0  0
 17 18  2  0  0  0  0
 17 16  1  0  0  0  0
 18 13  1  0  0  0  0
M  END
>  <CHROM.1>
56.79624517,83.02951890,-108.60593939,176.91960662,-8.77446130,14.95521660
1.84549244,-2.11863394,0.65499011,0.32629679

>  <Name>
lig.pdb

>  <RI>
0

>  <Rbt.Current_Directory>
/home/itssahil/PROJECTS/Mol_Feturizer/New_Systems/rnas/4nyg

>  <Rbt.Executable>
rbdock ($Id: //depot/dev/client3/rdock/2013.1/src/exe/rbdock.cxx#4 $)

>  <Rbt.Library>
libRbt.so (2013.1, Build901 2013/11/27)

>  <Rbt.Parameter_File>
/export/apps/rDock/src/rDock_2013.1_src/data/scripts/dock_solv.prm

>  <Rbt.Receptor>
prm/blind_docking_20.prm

>  <SCORE>
-13.5598

>  <SCORE.INTER>
-15.1895

>  <SCORE.INTER.CONST>
1

>  <SCORE.INTER.POLAR>
0

>  <SCORE.INTER.ROT>
4

>  <SCORE.INTER.SOLV>
13.4851

>  <SCORE.INTER.VDW>
-20.888

>  <SCORE.INTER.norm>
-0.84386

>  <SCORE.INTRA>
0.00920676

>  <SCORE.INTRA.DIHEDRAL>
0.774692

>  <SCORE.INTRA.DIHEDRAL.0>
3.20029

>  <SCORE.INTRA.POLAR>
0

>  <SCORE.INTRA.POLAR.0>
0

>  <SCORE.INTRA.REPUL>
0

>  <SCORE.INTRA.REPUL.0>
0

>  <SCORE.INTRA.SOLV>
0.656524

>  <SCORE.INTRA.SOLV.lig_0>
-19.3885

>  <SCORE.INTRA.VDW>
-0.706401

>  <SCORE.INTRA.VDW.0>
-1.12705

>  <SCORE.INTRA.norm>
0.000511487

>  <SCORE.RESTR>
1.62051

>  <SCORE.RESTR.CAVITY>
1.62051

>  <SCORE.RESTR.norm>
0.0900285

>  <SCORE.SYSTEM>
0

>  <SCORE.SYSTEM.CONST>
0

>  <SCORE.SYSTEM.DIHEDRAL>
0

>  <SCORE.SYSTEM.SOLV>
0

>  <SCORE.SYSTEM.norm>
0

>  <SCORE.heavy>
18

>  <SCORE.norm>
-0.75332

>  <RMSD>
4.330

$$$$
lig.pdb
 OpenBabel11021811503D
libRbt.so/2013.1/901 2013/11/27
 18 19  0  0  0  0  0  0  0  0999 V2000
  -14.5903   15.7418    3.9607 C   0  0  0  0  0  0  0  0  0  0  0  0
  -12.0663   11.9469    2.2991 N   0  0  0  0  0  0  0  0  0  0  0  0
   -7.4212   14.7774    3.1624 C   0  0  0  0  0  0  0  0  0  0  0  0
   -4.7891   10.7380    4.4627 O   0  0  0  0  0  0  0  0  0  0  0  0
   -4.6094   12.1472    4.4375 C   0  0  0  0  0  0  0  0  0  0  0  0
   -5.8415   12.8524    5.0371 C   0  0  0  0  0  0  0  0  0  0  0  0
   -9.0744   11.4327    2.8596 C   0  0  0  0  0  0  0  0  0  0  0  0
   -7.8480   10.9551    3.9874 S   0  0  0  0  0  0  0  0  0  0  0  0
   -7.0334   12.5253    4.1649 C   0  0  0  0  0  0  0  0  0  0  0  0
   -7.7795   13.3091    3.3198 C   0  0  0  0  0  0  0  0  0  0  0  0
   -8.8232   12.7202    2.6597 N   0  0  0  0  0  0  0  0  0  0  0  0
   -9.7074   13.5075    1.7289 C   0  0  0  0  0  0  0  0  0  0  0  0
  -12.1165   13.3144    2.5692 C   0  0  0  0  0  0  0  0  0  0  0  0
  -13.2544   13.8622    3.0954 N   0  0  0  0  0  0  0  0  0  0  0  0
  -13.3267   15.1684    3.3648 C   0  0  0  0  0  0  0  0  0  0  0  0
  -12.2868   15.9716    3.1226 N   0  0  0  0  0  0  0  0  0  0  0  0
  -11.1236   15.4988    2.6043 C   0  0  0  0  0  0  0  0  0  0  0  0
  -10.9845   14.1385    2.3069 C   0  0  0  0  0  0  0  0  0  0  0  0
  5  4  1  0  0  0  0
  5  6  1  0  0  0  0
  7  8  2  0  0  0  0
  7 11  1  0  0  0  0
  8  9  1  0  0  0  0
  9 10  2  0  0  0  0
  9  6  1  0  0  0  0
 10  3  1  0  0  0  0
 11 12  1  0  0  0  0
 11 10  1  0  0  0  0
 12 18  1  0  0  0  0
 13  2  1  0  0  0  0
 13 14  2  0  0  0  0
 15 14  1  0  0  0  0
 15  1  1  0  0  0  0
 16 15  2  0  0  0  0
 17 18  2  0  0  0  0
 17 16  1  0  0  0  0
 18 13  1  0  0  0  0
M  END
>  <CHROM.1>
-62.67764102,69.55499041,86.61127975,-76.39035348,-9.41821634,13.18275665
3.35473250,-2.75086973,0.19941723,-3.06084644

>  <Name>
lig.pdb

>  <RI>
0

>  <Rbt.Current_Directory>
/home/itssahil/PROJECTS/Mol_Feturizer/New_Systems/rnas/4nyg

>  <Rbt.Executable>
rbdock ($Id: //depot/dev/client3/rdock/2013.1/src/exe/rbdock.cxx#4 $)

>  <Rbt.Library>
libRbt.so (2013.1, Build901 2013/11/27)

>  <Rbt.Parameter_File>
/export/apps/rDock/src/rDock_2013.1_src/data/scripts/dock_solv.prm

>  <Rbt.Receptor>
prm/pocket_docking_5.prm

>  <SCORE>
-19.5607

>  <SCORE.INTER>
-19.2988

>  <SCORE.INTER.CONST>
1

>  <SCORE.INTER.POLAR>
0

>  <SCORE.INTER.ROT>
4

>  <SCORE.INTER.SOLV>
12.0171

>  <SCORE.INTER.VDW>
-23.1382

>  <SCORE.INTER.norm>
-1.07216

>  <SCORE.INTRA>
-0.261896

>  <SCORE.INTRA.DIHEDRAL>
0.171504

>  <SCORE.INTRA.DIHEDRAL.0>
3.20029

>  <SCORE.INTRA.POLAR>
0

>  <SCORE.INTRA.POLAR.0>
0

>  <SCORE.INTRA.REPUL>
0

>  <SCORE.INTRA.REPUL.0>
0

>  <SCORE.INTRA.SOLV>
1.00341

>  <SCORE.INTRA.SOLV.lig_0>
-19.3885

>  <SCORE.INTRA.VDW>
-0.849352

>  <SCORE.INTRA.VDW.0>
-1.12705

>  <SCORE.INTRA.norm>
-0.0145498

>  <SCORE.RESTR>
0

>  <SCORE.RESTR.CAVITY>
0

>  <SCORE.RESTR.norm>
0

>  <SCORE.SYSTEM>
0

>  <SCORE.SYSTEM.CONST>
0

>  <SCORE.SYSTEM.DIHEDRAL>
0

>  <SCORE.SYSTEM.SOLV>
0

>  <SCORE.SYSTEM.norm>
0

>  <SCORE.heavy>
18

>  <SCORE.norm>
-1.08671

>  <RMSD>
4.333

$$$$
lig.pdb
 OpenBabel11021811503D
libRbt.so/2013.1/901 2013/11/27
 18 19  0  0  0  0  0  0  0  0999 V2000
  -14.4683   14.8578    3.8016 C   0  0  0  0  0  0  0  0  0  0  0  0
  -10.3475   16.2564    1.6578 N   0  0  0  0  0  0  0  0  0  0  0  0
   -6.9838   13.8799    3.2132 C   0  0  0  0  0  0  0  0  0  0  0  0
   -4.1466   11.9875    2.3359 O   0  0  0  0  0  0  0  0  0  0  0  0
   -4.4222   10.8904    3.1957 C   0  0  0  0  0  0  0  0  0  0  0  0
   -5.6507   11.1972    4.0741 C   0  0  0  0  0  0  0  0  0  0  0  0
   -8.9306   11.1588    1.5346 C   0  0  0  0  0  0  0  0  0  0  0  0
   -7.7906   10.1306    2.3390 S   0  0  0  0  0  0  0  0  0  0  0  0
   -6.8395   11.3893    3.1585 C   0  0  0  0  0  0  0  0  0  0  0  0
   -7.4820   12.5263    2.7351 C   0  0  0  0  0  0  0  0  0  0  0  0
   -8.5545   12.3781    1.8985 N   0  0  0  0  0  0  0  0  0  0  0  0
   -9.3314   13.5683    1.4004 C   0  0  0  0  0  0  0  0  0  0  0  0
  -11.1381   15.2180    2.1498 C   0  0  0  0  0  0  0  0  0  0  0  0
  -12.3509   15.4972    2.7181 N   0  0  0  0  0  0  0  0  0  0  0  0
  -13.1272   14.5205    3.1946 C   0  0  0  0  0  0  0  0  0  0  0  0
  -12.7335   13.2453    3.1293 N   0  0  0  0  0  0  0  0  0  0  0  0
  -11.5443   12.8916    2.5763 C   0  0  0  0  0  0  0  0  0  0  0  0
  -10.6899   13.8691    2.0541 C   0  0  0  0  0  0  0  0  0  0  0  0
  5  4  1  0  0  0  0
  5  6  1  0  0  0  0
  7  8  2  0  0  0  0
  7 11  1  0  0  0  0
  8  9  1  0  0  0  0
  9 10  2  0  0  0  0
  9  6  1  0  0  0  0
 10  3  1  0  0  0  0
 11 12  1  0  0  0  0
 11 10  1  0  0  0  0
 12 18  1  0  0  0  0
 13  2  1  0  0  0  0
 13 14  2  0  0  0  0
 15 14  1  0  0  0  0
 15  1  1  0  0  0  0
 16 15  2  0  0  0  0
 17 18  2  0  0  0  0
 17 16  1  0  0  0  0
 18 13  1  0  0  0  0
M  END
>  <CHROM.1>
62.09864797,77.43023009,76.17787932,148.76844381,-9.09294925,12.87153368
2.60866542,2.67141633,0.03396005,-0.06805558

>  <Name>
lig.pdb

>  <RI>
0

>  <Rbt.Current_Directory>
/home/itssahil/PROJECTS/Mol_Feturizer/New_Systems/rnas/4nyg

>  <Rbt.Executable>
rbdock ($Id: //depot/dev/client3/rdock/2013.1/src/exe/rbdock.cxx#4 $)

>  <Rbt.Library>
libRbt.so (2013.1, Build901 2013/11/27)

>  <Rbt.Parameter_File>
/export/apps/rDock/src/rDock_2013.1_src/data/scripts/dock_solv.prm

>  <Rbt.Receptor>
prm/pocket_docking_4.prm

>  <SCORE>
-18.2998

>  <SCORE.INTER>
-18.1453

>  <SCORE.INTER.CONST>
1

>  <SCORE.INTER.POLAR>
0

>  <SCORE.INTER.ROT>
4

>  <SCORE.INTER.SOLV>
11.1415

>  <SCORE.INTER.VDW>
-22.0774

>  <SCORE.INTER.norm>
-1.00807

>  <SCORE.INTRA>
-0.154576

>  <SCORE.INTRA.DIHEDRAL>
0.500718

>  <SCORE.INTRA.DIHEDRAL.0>
3.20029

>  <SCORE.INTRA.POLAR>
0

>  <SCORE.INTRA.POLAR.0>
0

>  <SCORE.INTRA.REPUL>
0

>  <SCORE.INTRA.REPUL.0>
0

>  <SCORE.INTRA.SOLV>
0.616002

>  <SCORE.INTRA.SOLV.lig_0>
-19.3885

>  <SCORE.INTRA.VDW>
-0.712936

>  <SCORE.INTRA.VDW.0>
-1.12705

>  <SCORE.INTRA.norm>
-0.00858753

>  <SCORE.RESTR>
7.83435e-05

>  <SCORE.RESTR.CAVITY>
7.83435e-05

>  <SCORE.RESTR.norm>
4.35242e-06

>  <SCORE.SYSTEM>
0

>  <SCORE.SYSTEM.CONST>
0

>  <SCORE.SYSTEM.DIHEDRAL>
0

>  <SCORE.SYSTEM.SOLV>
0

>  <SCORE.SYSTEM.norm>
0

>  <SCORE.heavy>
18

>  <SCORE.norm>
-1.01666

>  <RMSD>
4.442

$$$$
lig.pdb
 OpenBabel11021811503D
libRbt.so/2013.1/901 2013/11/27
 18 19  0  0  0  0  0  0  0  0999 V2000
  -14.6011   15.7443    3.8922 C   0  0  0  0  0  0  0  0  0  0  0  0
  -10.2996   16.2997    1.7195 N   0  0  0  0  0  0  0  0  0  0  0  0
   -7.3362   14.7011    3.1620 C   0  0  0  0  0  0  0  0  0  0  0  0
   -4.7179   10.6636    4.2604 O   0  0  0  0  0  0  0  0  0  0  0  0
   -4.5355   12.0714    4.3220 C   0  0  0  0  0  0  0  0  0  0  0  0
   -5.7525   12.7376    4.9927 C   0  0  0  0  0  0  0  0  0  0  0  0
   -9.0619   11.3910    2.8848 C   0  0  0  0  0  0  0  0  0  0  0  0
   -7.8197   10.8846    3.9824 S   0  0  0  0  0  0  0  0  0  0  0  0
   -6.9703   12.4377    4.1469 C   0  0  0  0  0  0  0  0  0  0  0  0
   -7.7198   13.2395    3.3221 C   0  0  0  0  0  0  0  0  0  0  0  0
   -8.7899   12.6740    2.6840 N   0  0  0  0  0  0  0  0  0  0  0  0
   -9.6793   13.4825    1.7766 C   0  0  0  0  0  0  0  0  0  0  0  0
  -11.2368   15.4444    2.2987 C   0  0  0  0  0  0  0  0  0  0  0  0
  -12.4025   15.9537    2.8022 N   0  0  0  0  0  0  0  0  0  0  0  0
  -13.3166   15.1553    3.3597 C   0  0  0  0  0  0  0  0  0  0  0  0
  -13.1103   13.8377    3.4410 N   0  0  0  0  0  0  0  0  0  0  0  0
  -11.9788   13.2601    2.9599 C   0  0  0  0  0  0  0  0  0  0  0  0
  -10.9869   14.0432    2.3590 C   0  0  0  0  0  0  0  0  0  0  0  0
  5  4  1  0  0  0  0
  5  6  1  0  0  0  0
  7  8  2  0  0  0  0
  7 11  1  0  0  0  0
  8  9  1  0  0  0  0
  9 10  2  0  0  0  0
  9  6  1  0  0  0  0
 10  3  1  0  0  0  0
 11 12  1  0  0  0  0
 11 10  1  0  0  0  0
 12 18  1  0  0  0  0
 13  2  1  0  0  0  0
 13 14  2  0  0  0  0
 15 14  1  0  0  0  0
 15  1  1  0  0  0  0
 16 15  2  0  0  0  0
 17 18  2  0  0  0  0
 17 16  1  0  0  0  0
 18 13  1  0  0  0  0
M  END
>  <CHROM.1>
-61.21364192,72.44744938,81.86778569,123.65785929,-9.29388931,13.35372973
3.31148772,2.64475260,-0.02826468,-0.26545429

>  <Name>
lig.pdb

>  <RI>
0

>  <Rbt.Current_Directory>
/home/itssahil/PROJECTS/Mol_Feturizer/New_Systems/rnas/4nyg

>  <Rbt.Executable>
rbdock ($Id: //depot/dev/client3/rdock/2013.1/src/exe/rbdock.cxx#4 $)

>  <Rbt.Library>
libRbt.so (2013.1, Build901 2013/11/27)

>  <Rbt.Parameter_File>
/export/apps/rDock/src/rDock_2013.1_src/data/scripts/dock_solv.prm

>  <Rbt.Receptor>
prm/pocket_docking_5.prm

>  <SCORE>
-19.1298

>  <SCORE.INTER>
-18.8451

>  <SCORE.INTER.CONST>
1

>  <SCORE.INTER.POLAR>
0

>  <SCORE.INTER.ROT>
4

>  <SCORE.INTER.SOLV>
10.5275

>  <SCORE.INTER.VDW>
-22.3392

>  <SCORE.INTER.norm>
-1.04695

>  <SCORE.INTRA>
-0.284706

>  <SCORE.INTRA.DIHEDRAL>
0.254529

>  <SCORE.INTRA.DIHEDRAL.0>
3.20029

>  <SCORE.INTRA.POLAR>
0

>  <SCORE.INTRA.POLAR.0>
0

>  <SCORE.INTRA.REPUL>
0

>  <SCORE.INTRA.REPUL.0>
0

>  <SCORE.INTRA.SOLV>
0.753079

>  <SCORE.INTRA.SOLV.lig_0>
-19.3885

>  <SCORE.INTRA.VDW>
-0.78851

>  <SCORE.INTRA.VDW.0>
-1.12705

>  <SCORE.INTRA.norm>
-0.015817

>  <SCORE.RESTR>
0

>  <SCORE.RESTR.CAVITY>
0

>  <SCORE.RESTR.norm>
0

>  <SCORE.SYSTEM>
0

>  <SCORE.SYSTEM.CONST>
0

>  <SCORE.SYSTEM.DIHEDRAL>
0

>  <SCORE.SYSTEM.SOLV>
0

>  <SCORE.SYSTEM.norm>
0

>  <SCORE.heavy>
18

>  <SCORE.norm>
-1.06277

>  <RMSD>
4.540

$$$$
lig.pdb
 OpenBabel11021811503D
libRbt.so/2013.1/901 2013/11/27
 18 19  0  0  0  0  0  0  0  0999 V2000
  -14.6630   15.6536    3.9028 C   0  0  0  0  0  0  0  0  0  0  0  0
  -10.3545   16.1852    1.7378 N   0  0  0  0  0  0  0  0  0  0  0  0
   -7.5405   14.7481    3.1681 C   0  0  0  0  0  0  0  0  0  0  0  0
   -4.6656   10.8525    4.4961 O   0  0  0  0  0  0  0  0  0  0  0  0
   -4.5844   12.2689    4.4188 C   0  0  0  0  0  0  0  0  0  0  0  0
   -5.8463   12.9092    5.0291 C   0  0  0  0  0  0  0  0  0  0  0  0
   -9.0199   11.3216    2.8806 C   0  0  0  0  0  0  0  0  0  0  0  0
   -7.7604   10.9094    3.9976 S   0  0  0  0  0  0  0  0  0  0  0  0
   -7.0271   12.5200    4.1675 C   0  0  0  0  0  0  0  0  0  0  0  0
   -7.8204   13.2632    3.3289 C   0  0  0  0  0  0  0  0  0  0  0  0
   -8.8378   12.6203    2.6782 N   0  0  0  0  0  0  0  0  0  0  0  0
   -9.7699   13.3599    1.7550 C   0  0  0  0  0  0  0  0  0  0  0  0
  -11.3025   15.3337    2.3049 C   0  0  0  0  0  0  0  0  0  0  0  0
  -12.4617   15.8506    2.8157 N   0  0  0  0  0  0  0  0  0  0  0  0
  -13.3859   15.0560    3.3619 C   0  0  0  0  0  0  0  0  0  0  0  0
  -13.1963   13.7348    3.4244 N   0  0  0  0  0  0  0  0  0  0  0  0
  -12.0721   13.1499    2.9352 C   0  0  0  0  0  0  0  0  0  0  0  0
  -11.0704   13.9288    2.3453 C   0  0  0  0  0  0  0  0  0  0  0  0
  5  4  1  0  0  0  0
  5  6  1  0  0  0  0
  7  8  2  0  0  0  0
  7 11  1  0  0  0  0
  8  9  1  0  0  0  0
  9 10  2  0  0  0  0
  9  6  1  0  0  0  0
 10  3  1  0  0  0  0
 11 12  1  0  0  0  0
 11 10  1  0  0  0  0
 12 18  1  0  0  0  0
 13  2  1  0  0  0  0
 13 14  2  0  0  0  0
 15 14  1  0  0  0  0
 15  1  1  0  0  0  0
 16 15  2  0  0  0  0
 17 18  2  0  0  0  0
 17 16  1  0  0  0  0
 18 13  1  0  0  0  0
M  END
>  <CHROM.1>
-65.08585741,69.56232417,86.84839251,118.89949125,-9.34417737,13.34005348
3.33471488,2.67207931,-0.06428009,-0.23308955

>  <Name>
lig.pdb

>  <RI>
0

>  <Rbt.Current_Directory>
/home/itssahil/PROJECTS/Mol_Feturizer/New_Systems/rnas/4nyg

>  <Rbt.Executable>
rbdock ($Id: //depot/dev/client3/rdock/2013.1/src/exe/rbdock.cxx#4 $)

>  <Rbt.Library>
libRbt.so (2013.1, Build901 2013/11/27)

>  <Rbt.Parameter_File>
/export/apps/rDock/src/rDock_2013.1_src/data/scripts/dock_solv.prm

>  <Rbt.Receptor>
prm/pocket_docking_4.prm

>  <SCORE>
-19.1816

>  <SCORE.INTER>
-18.8613

>  <SCORE.INTER.CONST>
1

>  <SCORE.INTER.POLAR>
0

>  <SCORE.INTER.ROT>
4

>  <SCORE.INTER.SOLV>
10.6931

>  <SCORE.INTER.VDW>
-22.4052

>  <SCORE.INTER.norm>
-1.04785

>  <SCORE.INTRA>
-0.320272

>  <SCORE.INTRA.DIHEDRAL>
0.2414

>  <SCORE.INTRA.DIHEDRAL.0>
3.20029

>  <SCORE.INTRA.POLAR>
0

>  <SCORE.INTRA.POLAR.0>
0

>  <SCORE.INTRA.REPUL>
0

>  <SCORE.INTRA.REPUL.0>
0

>  <SCORE.INTRA.SOLV>
0.826068

>  <SCORE.INTRA.SOLV.lig_0>
-19.3885

>  <SCORE.INTRA.VDW>
-0.854006

>  <SCORE.INTRA.VDW.0>
-1.12705

>  <SCORE.INTRA.norm>
-0.0177929

>  <SCORE.RESTR>
0

>  <SCORE.RESTR.CAVITY>
0

>  <SCORE.RESTR.norm>
0

>  <SCORE.SYSTEM>
0

>  <SCORE.SYSTEM.CONST>
0

>  <SCORE.SYSTEM.DIHEDRAL>
0

>  <SCORE.SYSTEM.SOLV>
0

>  <SCORE.SYSTEM.norm>
0

>  <SCORE.heavy>
18

>  <SCORE.norm>
-1.06564

>  <RMSD>
4.547

$$$$
lig.pdb
 OpenBabel11021811503D
libRbt.so/2013.1/901 2013/11/27
 18 19  0  0  0  0  0  0  0  0999 V2000
  -14.6334   15.8368    4.0599 C   0  0  0  0  0  0  0  0  0  0  0  0
  -10.4191   15.9929    1.6626 N   0  0  0  0  0  0  0  0  0  0  0  0
   -7.3781   14.4841    2.0075 C   0  0  0  0  0  0  0  0  0  0  0  0
   -5.9911   12.8805    6.3864 O   0  0  0  0  0  0  0  0  0  0  0  0
   -5.4925   13.8016    5.4261 C   0  0  0  0  0  0  0  0  0  0  0  0
   -5.4299   13.1402    4.0356 C   0  0  0  0  0  0  0  0  0  0  0  0
   -9.1998   11.5280    3.4054 C   0  0  0  0  0  0  0  0  0  0  0  0
   -7.7321   11.3079    4.3006 S   0  0  0  0  0  0  0  0  0  0  0  0
   -6.8301   12.7026    3.6666 C   0  0  0  0  0  0  0  0  0  0  0  0
   -7.7447   13.2358    2.7924 C   0  0  0  0  0  0  0  0  0  0  0  0
   -8.9559   12.6098    2.6770 N   0  0  0  0  0  0  0  0  0  0  0  0
  -10.0266   13.1360    1.7579 C   0  0  0  0  0  0  0  0  0  0  0  0
  -11.3912   15.2293    2.3086 C   0  0  0  0  0  0  0  0  0  0  0  0
  -12.4843   15.8428    2.8569 N   0  0  0  0  0  0  0  0  0  0  0  0
  -13.4300   15.1336    3.4787 C   0  0  0  0  0  0  0  0  0  0  0  0
  -13.3271   13.8054    3.5818 N   0  0  0  0  0  0  0  0  0  0  0  0
  -12.2724   13.1273    3.0594 C   0  0  0  0  0  0  0  0  0  0  0  0
  -11.2528   13.8139    2.3907 C   0  0  0  0  0  0  0  0  0  0  0  0
  5  4  1  0  0  0  0
  5  6  1  0  0  0  0
  7  8  2  0  0  0  0
  7 11  1  0  0  0  0
  8  9  1  0  0  0  0
  9 10  2  0  0  0  0
  9  6  1  0  0  0  0
 10  3  1  0  0  0  0
 11 12  1  0  0  0  0
 11 10  1  0  0  0  0
 12 18  1  0  0  0  0
 13  2  1  0  0  0  0
 13 14  2  0  0  0  0
 15 14  1  0  0  0  0
 15  1  1  0  0  0  0
 16 15  2  0  0  0  0
 17 18  2  0  0  0  0
 17 16  1  0  0  0  0
 18 13  1  0  0  0  0
M  END
>  <CHROM.1>
59.48134141,-75.21097145,71.60184530,106.65618438,-9.48933768,13.59241401
3.42925061,2.74277971,0.01662503,-0.58096324

>  <Name>
lig.pdb

>  <RI>
0

>  <Rbt.Current_Directory>
/home/itssahil/PROJECTS/Mol_Feturizer/New_Systems/rnas/4nyg

>  <Rbt.Executable>
rbdock ($Id: //depot/dev/client3/rdock/2013.1/src/exe/rbdock.cxx#4 $)

>  <Rbt.Library>
libRbt.so (2013.1, Build901 2013/11/27)

>  <Rbt.Parameter_File>
/export/apps/rDock/src/rDock_2013.1_src/data/scripts/dock_solv.prm

>  <Rbt.Receptor>
prm/pocket_docking_4.prm

>  <SCORE>
-18.5756

>  <SCORE.INTER>
-18.4873

>  <SCORE.INTER.CONST>
1

>  <SCORE.INTER.POLAR>
0

>  <SCORE.INTER.ROT>
4

>  <SCORE.INTER.SOLV>
12.3442

>  <SCORE.INTER.VDW>
-22.7063

>  <SCORE.INTER.norm>
-1.02707

>  <SCORE.INTRA>
-0.0882452

>  <SCORE.INTRA.DIHEDRAL>
0.372529

>  <SCORE.INTRA.DIHEDRAL.0>
3.20029

>  <SCORE.INTRA.POLAR>
0

>  <SCORE.INTRA.POLAR.0>
0

>  <SCORE.INTRA.REPUL>
0

>  <SCORE.INTRA.REPUL.0>
0

>  <SCORE.INTRA.SOLV>
0.957695

>  <SCORE.INTRA.SOLV.lig_0>
-19.3885

>  <SCORE.INTRA.VDW>
-0.753357

>  <SCORE.INTRA.VDW.0>
-1.12705

>  <SCORE.INTRA.norm>
-0.00490251

>  <SCORE.RESTR>
0

>  <SCORE.RESTR.CAVITY>
0

>  <SCORE.RESTR.norm>
0

>  <SCORE.SYSTEM>
0

>  <SCORE.SYSTEM.CONST>
0

>  <SCORE.SYSTEM.DIHEDRAL>
0

>  <SCORE.SYSTEM.SOLV>
0

>  <SCORE.SYSTEM.norm>
0

>  <SCORE.heavy>
18

>  <SCORE.norm>
-1.03198

>  <RMSD>
4.556

$$$$
lig.pdb
 OpenBabel11021811503D
libRbt.so/2013.1/901 2013/11/27
 18 19  0  0  0  0  0  0  0  0999 V2000
  -14.6666   15.6797    3.9541 C   0  0  0  0  0  0  0  0  0  0  0  0
  -10.3815   16.1808    1.7360 N   0  0  0  0  0  0  0  0  0  0  0  0
   -7.4803   14.7178    3.0690 C   0  0  0  0  0  0  0  0  0  0  0  0
   -4.7062   10.7716    4.4463 O   0  0  0  0  0  0  0  0  0  0  0  0
   -4.5682   12.1803    4.3223 C   0  0  0  0  0  0  0  0  0  0  0  0
   -5.7864   12.8917    4.9428 C   0  0  0  0  0  0  0  0  0  0  0  0
   -9.0794   11.3352    2.9575 C   0  0  0  0  0  0  0  0  0  0  0  0
   -7.7978   10.9215    4.0485 S   0  0  0  0  0  0  0  0  0  0  0  0
   -7.0072   12.5115    4.1344 C   0  0  0  0  0  0  0  0  0  0  0  0
   -7.8030   13.2501    3.2942 C   0  0  0  0  0  0  0  0  0  0  0  0
   -8.8619   12.6187    2.7008 N   0  0  0  0  0  0  0  0  0  0  0  0
   -9.7994   13.3552    1.7807 C   0  0  0  0  0  0  0  0  0  0  0  0
  -11.3241   15.3371    2.3236 C   0  0  0  0  0  0  0  0  0  0  0  0
  -12.4771   15.8613    2.8408 N   0  0  0  0  0  0  0  0  0  0  0  0
  -13.3960   15.0743    3.4065 C   0  0  0  0  0  0  0  0  0  0  0  0
  -13.2070   13.7538    3.4828 N   0  0  0  0  0  0  0  0  0  0  0  0
  -12.0888   13.1618    2.9884 C   0  0  0  0  0  0  0  0  0  0  0  0
  -11.0928   13.9325    2.3783 C   0  0  0  0  0  0  0  0  0  0  0  0
  5  4  1  0  0  0  0
  5  6  1  0  0  0  0
  7  8  2  0  0  0  0
  7 11  1  0  0  0  0
  8  9  1  0  0  0  0
  9 10  2  0  0  0  0
  9  6  1  0  0  0  0
 10  3  1  0  0  0  0
 11 12  1  0  0  0  0
 11 10  1  0  0  0  0
 12 18  1  0  0  0  0
 13  2  1  0  0  0  0
 13 14  2  0  0  0  0
 15 14  1  0  0  0  0
 15  1  1  0  0  0  0
 16 15  2  0  0  0  0
 17 18  2  0  0  0  0
 17 16  1  0  0  0  0
 18 13  1  0  0  0  0
M  END
>  <CHROM.1>
-64.31972560,69.21301418,84.05562487,119.25554662,-9.35416498,13.33315482
3.34009304,2.66823572,-0.03154795,-0.27304991

>  <Name>
lig.pdb

>  <RI>
0

>  <Rbt.Current_Directory>
/home/itssahil/PROJECTS/Mol_Feturizer/New_Systems/rnas/4nyg

>  <Rbt.Executable>
rbdock ($Id: //depot/dev/client3/rdock/2013.1/src/exe/rbdock.cxx#4 $)

>  <Rbt.Library>
libRbt.so (2013.1, Build901 2013/11/27)

>  <Rbt.Parameter_File>
/export/apps/rDock/src/rDock_2013.1_src/data/scripts/dock_solv.prm

>  <Rbt.Receptor>
prm/pocket_docking_7.prm

>  <SCORE>
-19.1879

>  <SCORE.INTER>
-18.8702

>  <SCORE.INTER.CONST>
1

>  <SCORE.INTER.POLAR>
0

>  <SCORE.INTER.ROT>
4

>  <SCORE.INTER.SOLV>
10.7255

>  <SCORE.INTER.VDW>
-22.422

>  <SCORE.INTER.norm>
-1.04834

>  <SCORE.INTRA>
-0.31768

>  <SCORE.INTRA.DIHEDRAL>
0.201001

>  <SCORE.INTRA.DIHEDRAL.0>
3.20029

>  <SCORE.INTRA.POLAR>
0

>  <SCORE.INTRA.POLAR.0>
0

>  <SCORE.INTRA.REPUL>
0

>  <SCORE.INTRA.REPUL.0>
0

>  <SCORE.INTRA.SOLV>
0.813879

>  <SCORE.INTRA.SOLV.lig_0>
-19.3885

>  <SCORE.INTRA.VDW>
-0.82512

>  <SCORE.INTRA.VDW.0>
-1.12705

>  <SCORE.INTRA.norm>
-0.0176489

>  <SCORE.RESTR>
0

>  <SCORE.RESTR.CAVITY>
0

>  <SCORE.RESTR.norm>
0

>  <SCORE.SYSTEM>
0

>  <SCORE.SYSTEM.CONST>
0

>  <SCORE.SYSTEM.DIHEDRAL>
0

>  <SCORE.SYSTEM.SOLV>
0

>  <SCORE.SYSTEM.norm>
0

>  <SCORE.heavy>
18

>  <SCORE.norm>
-1.06599

>  <RMSD>
4.560

$$$$
lig.pdb
 OpenBabel11021811503D
libRbt.so/2013.1/901 2013/11/27
 18 19  0  0  0  0  0  0  0  0999 V2000
  -14.6744   15.6826    3.9488 C   0  0  0  0  0  0  0  0  0  0  0  0
  -10.3931   16.3117    1.7562 N   0  0  0  0  0  0  0  0  0  0  0  0
   -7.0392   14.4576    2.3306 C   0  0  0  0  0  0  0  0  0  0  0  0
   -6.3180   13.9190    6.0389 O   0  0  0  0  0  0  0  0  0  0  0  0
   -5.5123   12.7863    5.7441 C   0  0  0  0  0  0  0  0  0  0  0  0
   -5.4196   12.5805    4.2197 C   0  0  0  0  0  0  0  0  0  0  0  0
   -9.2743   11.5509    3.0839 C   0  0  0  0  0  0  0  0  0  0  0  0
   -7.9174   11.0157    4.0202 S   0  0  0  0  0  0  0  0  0  0  0  0
   -6.8230   12.3779    3.6926 C   0  0  0  0  0  0  0  0  0  0  0  0
   -7.6001   13.1507    2.8657 C   0  0  0  0  0  0  0  0  0  0  0  0
   -8.8572   12.7001    2.5679 N   0  0  0  0  0  0  0  0  0  0  0  0
   -9.7861   13.4918    1.6857 C   0  0  0  0  0  0  0  0  0  0  0  0
  -11.3284   15.4364    2.3082 C   0  0  0  0  0  0  0  0  0  0  0  0
  -12.4862   15.9289    2.8455 N   0  0  0  0  0  0  0  0  0  0  0  0
  -13.3984   15.1113    3.3779 C   0  0  0  0  0  0  0  0  0  0  0  0
  -13.1977   13.7905    3.4002 N   0  0  0  0  0  0  0  0  0  0  0  0
  -12.0742   13.2291    2.8828 C   0  0  0  0  0  0  0  0  0  0  0  0
  -11.0848   14.0328    2.3055 C   0  0  0  0  0  0  0  0  0  0  0  0
  5  4  1  0  0  0  0
  5  6  1  0  0  0  0
  7  8  2  0  0  0  0
  7 11  1  0  0  0  0
  8  9  1  0  0  0  0
  9 10  2  0  0  0  0
  9  6  1  0  0  0  0
 10  3  1  0  0  0  0
 11 12  1  0  0  0  0
 11 10  1  0  0  0  0
 12 18  1  0  0  0  0
 13  2  1  0  0  0  0
 13 14  2  0  0  0  0
 15 14  1  0  0  0  0
 15  1  1  0  0  0  0
 16 15  2  0  0  0  0
 17 18  2  0  0  0  0
 17 16  1  0  0  0  0
 18 13  1  0  0  0  0
M  END
>  <CHROM.1>
-59.51381658,-66.24888543,63.17845293,120.60123183,-9.46394947,13.57605387
3.36907975,2.72879951,-0.14112941,-0.17556779

>  <Name>
lig.pdb

>  <RI>
0

>  <Rbt.Current_Directory>
/home/itssahil/PROJECTS/Mol_Feturizer/New_Systems/rnas/4nyg

>  <Rbt.Executable>
rbdock ($Id: //depot/dev/client3/rdock/2013.1/src/exe/rbdock.cxx#4 $)

>  <Rbt.Library>
libRbt.so (2013.1, Build901 2013/11/27)

>  <Rbt.Parameter_File>
/export/apps/rDock/src/rDock_2013.1_src/data/scripts/dock_solv.prm

>  <Rbt.Receptor>
prm/pocket_docking_5.prm

>  <SCORE>
-18.8449

>  <SCORE.INTER>
-18.638

>  <SCORE.INTER.CONST>
1

>  <SCORE.INTER.POLAR>
0

>  <SCORE.INTER.ROT>
4

>  <SCORE.INTER.SOLV>
12.0992

>  <SCORE.INTER.VDW>
-22.725

>  <SCORE.INTER.norm>
-1.03544

>  <SCORE.INTRA>
-0.206952

>  <SCORE.INTRA.DIHEDRAL>
0.00861218

>  <SCORE.INTRA.DIHEDRAL.0>
3.20029

>  <SCORE.INTRA.POLAR>
0

>  <SCORE.INTRA.POLAR.0>
0

>  <SCORE.INTRA.REPUL>
0

>  <SCORE.INTRA.REPUL.0>
0

>  <SCORE.INTRA.SOLV>
0.802707

>  <SCORE.INTRA.SOLV.lig_0>
-19.3885

>  <SCORE.INTRA.VDW>
-0.612612

>  <SCORE.INTRA.VDW.0>
-1.12705

>  <SCORE.INTRA.norm>
-0.0114974

>  <SCORE.RESTR>
0

>  <SCORE.RESTR.CAVITY>
0

>  <SCORE.RESTR.norm>
0

>  <SCORE.SYSTEM>
0

>  <SCORE.SYSTEM.CONST>
0

>  <SCORE.SYSTEM.DIHEDRAL>
0

>  <SCORE.SYSTEM.SOLV>
0

>  <SCORE.SYSTEM.norm>
0

>  <SCORE.heavy>
18

>  <SCORE.norm>
-1.04694

>  <RMSD>
4.576

$$$$
lig.pdb
 OpenBabel11021811503D
libRbt.so/2013.1/901 2013/11/27
 18 19  0  0  0  0  0  0  0  0999 V2000
  -14.6580   16.0296    4.1115 C   0  0  0  0  0  0  0  0  0  0  0  0
  -12.0369   12.3285    2.3899 N   0  0  0  0  0  0  0  0  0  0  0  0
   -9.3252   11.0801    1.8730 C   0  0  0  0  0  0  0  0  0  0  0  0
   -4.6703   11.0680    3.4116 O   0  0  0  0  0  0  0  0  0  0  0  0
   -5.6627   10.1396    2.9963 C   0  0  0  0  0  0  0  0  0  0  0  0
   -6.9679   10.3670    3.7834 C   0  0  0  0  0  0  0  0  0  0  0  0
   -7.9846   14.3371    3.1403 C   0  0  0  0  0  0  0  0  0  0  0  0
   -6.8884   13.3117    4.0070 S   0  0  0  0  0  0  0  0  0  0  0  0
   -7.4900   11.7418    3.4289 C   0  0  0  0  0  0  0  0  0  0  0  0
   -8.5129   12.1368    2.6027 C   0  0  0  0  0  0  0  0  0  0  0  0
   -8.7461   13.4788    2.4740 N   0  0  0  0  0  0  0  0  0  0  0  0
   -9.8338   14.0035    1.5742 C   0  0  0  0  0  0  0  0  0  0  0  0
  -12.1524   13.7004    2.6133 C   0  0  0  0  0  0  0  0  0  0  0  0
  -13.2778   14.1999    3.2097 N   0  0  0  0  0  0  0  0  0  0  0  0
  -13.4113   15.5093    3.4365 C   0  0  0  0  0  0  0  0  0  0  0  0
  -12.4467   16.3631    3.0818 N   0  0  0  0  0  0  0  0  0  0  0  0
  -11.3002   15.9403    2.4885 C   0  0  0  0  0  0  0  0  0  0  0  0
  -11.0990   14.5797    2.2305 C   0  0  0  0  0  0  0  0  0  0  0  0
  5  4  1  0  0  0  0
  5  6  1  0  0  0  0
  7  8  2  0  0  0  0
  7 11  1  0  0  0  0
  8  9  1  0  0  0  0
  9 10  2  0  0  0  0
  9  6  1  0  0  0  0
 10  3  1  0  0  0  0
 11 12  1  0  0  0  0
 11 10  1  0  0  0  0
 12 18  1  0  0  0  0
 13  2  1  0  0  0  0
 13 14  2  0  0  0  0
 15 14  1  0  0  0  0
 15  1  1  0  0  0  0
 16 15  2  0  0  0  0
 17 18  2  0  0  0  0
 17 16  1  0  0  0  0
 18 13  1  0  0  0  0
M  END
>  <CHROM.1>
64.08482513,-76.42164353,-73.83093554,-84.57179583,-9.55402787,13.31155908
3.01769374,-2.64447593,0.15833154,-2.91346411

>  <Name>
lig.pdb

>  <RI>
0

>  <Rbt.Current_Directory>
/home/itssahil/PROJECTS/Mol_Feturizer/New_Systems/rnas/4nyg

>  <Rbt.Executable>
rbdock ($Id: //depot/dev/client3/rdock/2013.1/src/exe/rbdock.cxx#4 $)

>  <Rbt.Library>
libRbt.so (2013.1, Build901 2013/11/27)

>  <Rbt.Parameter_File>
/export/apps/rDock/src/rDock_2013.1_src/data/scripts/dock_solv.prm

>  <Rbt.Receptor>
prm/pocket_docking_6.prm

>  <SCORE>
-19.7079

>  <SCORE.INTER>
-19.8312

>  <SCORE.INTER.CONST>
1

>  <SCORE.INTER.POLAR>
0

>  <SCORE.INTER.ROT>
4

>  <SCORE.INTER.SOLV>
12.438

>  <SCORE.INTER.VDW>
-23.6335

>  <SCORE.INTER.norm>
-1.10173

>  <SCORE.INTRA>
0.123246

>  <SCORE.INTRA.DIHEDRAL>
0.418139

>  <SCORE.INTRA.DIHEDRAL.0>
3.20029

>  <SCORE.INTRA.POLAR>
0

>  <SCORE.INTRA.POLAR.0>
0

>  <SCORE.INTRA.REPUL>
0

>  <SCORE.INTRA.REPUL.0>
0

>  <SCORE.INTRA.SOLV>
1.224

>  <SCORE.INTRA.SOLV.lig_0>
-19.3885

>  <SCORE.INTRA.VDW>
-0.697823

>  <SCORE.INTRA.VDW.0>
-1.12705

>  <SCORE.INTRA.norm>
0.00684698

>  <SCORE.RESTR>
0

>  <SCORE.RESTR.CAVITY>
0

>  <SCORE.RESTR.norm>
0

>  <SCORE.SYSTEM>
0

>  <SCORE.SYSTEM.CONST>
0

>  <SCORE.SYSTEM.DIHEDRAL>
0

>  <SCORE.SYSTEM.SOLV>
0

>  <SCORE.SYSTEM.norm>
0

>  <SCORE.heavy>
18

>  <SCORE.norm>
-1.09489

>  <RMSD>
4.593

$$$$
lig.pdb
 OpenBabel11021811503D
libRbt.so/2013.1/901 2013/11/27
 18 19  0  0  0  0  0  0  0  0999 V2000
   -9.6676   10.4210    1.4779 C   0  0  0  0  0  0  0  0  0  0  0  0
   -7.1886   14.4949    0.5891 N   0  0  0  0  0  0  0  0  0  0  0  0
   -6.3944   17.7926    1.7848 C   0  0  0  0  0  0  0  0  0  0  0  0
   -6.3350   20.9246   -2.7470 O   0  0  0  0  0  0  0  0  0  0  0  0
   -7.2759   20.0748   -2.1054 C   0  0  0  0  0  0  0  0  0  0  0  0
   -6.6786   19.5047   -0.8042 C   0  0  0  0  0  0  0  0  0  0  0  0
   -9.7843   17.0290    0.3930 C   0  0  0  0  0  0  0  0  0  0  0  0
   -9.3113   18.1649   -0.8276 S   0  0  0  0  0  0  0  0  0  0  0  0
   -7.6926   18.5555   -0.2050 C   0  0  0  0  0  0  0  0  0  0  0  0
   -7.6439   17.7708    0.9205 C   0  0  0  0  0  0  0  0  0  0  0  0
   -8.7353   16.9961    1.2049 N   0  0  0  0  0  0  0  0  0  0  0  0
   -8.7622   16.0896    2.4072 C   0  0  0  0  0  0  0  0  0  0  0  0
   -8.2280   13.8608    1.2695 C   0  0  0  0  0  0  0  0  0  0  0  0
   -8.4592   12.5275    1.0675 N   0  0  0  0  0  0  0  0  0  0  0  0
   -9.4468   11.8970    1.7086 C   0  0  0  0  0  0  0  0  0  0  0  0
  -10.2350   12.5576    2.5616 N   0  0  0  0  0  0  0  0  0  0  0  0
  -10.0636   13.8811    2.8151 C   0  0  0  0  0  0  0  0  0  0  0  0
   -9.0420   14.5952    2.1790 C   0  0  0  0  0  0  0  0  0  0  0  0
  5  4  1  0  0  0  0
  5  6  1  0  0  0  0
  7  8  2  0  0  0  0
  7 11  1  0  0  0  0
  8  9  1  0  0  0  0
  9 10  2  0  0  0  0
  9  6  1  0  0  0  0
 10  3  1  0  0  0  0
 11 12  1  0  0  0  0
 11 10  1  0  0  0  0
 12 18  1  0  0  0  0
 13  2  1  0  0  0  0
 13 14  2  0  0  0  0
 15 14  1  0  0  0  0
 15  1  1  0  0  0  0
 16 15  2  0  0  0  0
 17 18  2  0  0  0  0
 17 16  1  0  0  0  0
 18 13  1  0  0  0  0
M  END
>  <CHROM.1>
-177.09497207,-1.43681935,55.09329336,55.01083573,-8.41840341,16.15546478
0.60908594,2.95593984,1.30996007,1.34635066

>  <Name>
lig.pdb

>  <RI>
0

>  <Rbt.Current_Directory>
/home/itssahil/PROJECTS/Mol_Feturizer/New_Systems/rnas/4nyg

>  <Rbt.Executable>
rbdock ($Id: //depot/dev/client3/rdock/2013.1/src/exe/rbdock.cxx#4 $)

>  <Rbt.Library>
libRbt.so (2013.1, Build901 2013/11/27)

>  <Rbt.Parameter_File>
/export/apps/rDock/src/rDock_2013.1_src/data/scripts/dock_solv.prm

>  <Rbt.Receptor>
prm/blind_docking_100.prm

>  <SCORE>
-9.34448

>  <SCORE.INTER>
-11.1958

>  <SCORE.INTER.CONST>
1

>  <SCORE.INTER.POLAR>
0

>  <SCORE.INTER.ROT>
4

>  <SCORE.INTER.SOLV>
11.6308

>  <SCORE.INTER.VDW>
-17.6075

>  <SCORE.INTER.norm>
-0.621988

>  <SCORE.INTRA>
1.8513

>  <SCORE.INTRA.DIHEDRAL>
2.62405

>  <SCORE.INTRA.DIHEDRAL.0>
3.20029

>  <SCORE.INTRA.POLAR>
0

>  <SCORE.INTRA.POLAR.0>
0

>  <SCORE.INTRA.REPUL>
0

>  <SCORE.INTRA.REPUL.0>
0

>  <SCORE.INTRA.SOLV>
1.13443

>  <SCORE.INTRA.SOLV.lig_0>
-19.3885

>  <SCORE.INTRA.VDW>
-0.0279426

>  <SCORE.INTRA.VDW.0>
-1.12705

>  <SCORE.INTRA.norm>
0.10285

>  <SCORE.RESTR>
0

>  <SCORE.RESTR.CAVITY>
0

>  <SCORE.RESTR.norm>
0

>  <SCORE.SYSTEM>
0

>  <SCORE.SYSTEM.CONST>
0

>  <SCORE.SYSTEM.DIHEDRAL>
0

>  <SCORE.SYSTEM.SOLV>
0

>  <SCORE.SYSTEM.norm>
0

>  <SCORE.heavy>
18

>  <SCORE.norm>
-0.519138

>  <RMSD>
4.615

$$$$
lig.pdb
 OpenBabel11021811503D
libRbt.so/2013.1/901 2013/11/27
 18 19  0  0  0  0  0  0  0  0999 V2000
  -14.7201   15.6381    3.8651 C   0  0  0  0  0  0  0  0  0  0  0  0
  -10.4281   16.2645    1.6929 N   0  0  0  0  0  0  0  0  0  0  0  0
   -7.2443   14.6485    2.8142 C   0  0  0  0  0  0  0  0  0  0  0  0
   -4.7227   13.0778    6.9434 O   0  0  0  0  0  0  0  0  0  0  0  0
   -5.9120   12.7851    6.2232 C   0  0  0  0  0  0  0  0  0  0  0  0
   -5.6285   12.7734    4.7085 C   0  0  0  0  0  0  0  0  0  0  0  0
   -9.1759   11.4484    3.0145 C   0  0  0  0  0  0  0  0  0  0  0  0
   -7.8772   10.9710    4.0583 S   0  0  0  0  0  0  0  0  0  0  0  0
   -6.9285   12.4732    3.9954 C   0  0  0  0  0  0  0  0  0  0  0  0
   -7.6970   13.2382    3.1533 C   0  0  0  0  0  0  0  0  0  0  0  0
   -8.8479   12.6849    2.6621 N   0  0  0  0  0  0  0  0  0  0  0  0
   -9.7622   13.4576    1.7483 C   0  0  0  0  0  0  0  0  0  0  0  0
  -11.3513   15.3937    2.2716 C   0  0  0  0  0  0  0  0  0  0  0  0
  -12.5251   15.8838    2.7754 N   0  0  0  0  0  0  0  0  0  0  0  0
  -13.4262   15.0703    3.3323 C   0  0  0  0  0  0  0  0  0  0  0  0
  -13.1986   13.7561    3.4127 N   0  0  0  0  0  0  0  0  0  0  0  0
  -12.0579   13.1973    2.9314 C   0  0  0  0  0  0  0  0  0  0  0  0
  -11.0788   13.9967    2.3310 C   0  0  0  0  0  0  0  0  0  0  0  0
  5  4  1  0  0  0  0
  5  6  1  0  0  0  0
  7  8  2  0  0  0  0
  7 11  1  0  0  0  0
  8  9  1  0  0  0  0
  9 10  2  0  0  0  0
  9  6  1  0  0  0  0
 10  3  1  0  0  0  0
 11 12  1  0  0  0  0
 11 10  1  0  0  0  0
 12 18  1  0  0  0  0
 13  2  1  0  0  0  0
 13 14  2  0  0  0  0
 15 14  1  0  0  0  0
 15  1  1  0  0  0  0
 16 15  2  0  0  0  0
 17 18  2  0  0  0  0
 17 16  1  0  0  0  0
 18 13  1  0  0  0  0
M  END
>  <CHROM.1>
-179.37060851,-65.45377260,73.74869663,122.54652324,-9.41647423,13.52475040
3.52890439,-2.78039482,0.30551964,3.13224719

>  <Name>
lig.pdb

>  <RI>
0

>  <Rbt.Current_Directory>
/home/itssahil/PROJECTS/Mol_Feturizer/New_Systems/rnas/4nyg

>  <Rbt.Executable>
rbdock ($Id: //depot/dev/client3/rdock/2013.1/src/exe/rbdock.cxx#4 $)

>  <Rbt.Library>
libRbt.so (2013.1, Build901 2013/11/27)

>  <Rbt.Parameter_File>
/export/apps/rDock/src/rDock_2013.1_src/data/scripts/dock_solv.prm

>  <Rbt.Receptor>
prm/pocket_docking_5.prm

>  <SCORE>
-20.1478

>  <SCORE.INTER>
-19.7532

>  <SCORE.INTER.CONST>
1

>  <SCORE.INTER.POLAR>
0

>  <SCORE.INTER.ROT>
4

>  <SCORE.INTER.SOLV>
11.5269

>  <SCORE.INTER.VDW>
-23.2777

>  <SCORE.INTER.norm>
-1.0974

>  <SCORE.INTRA>
-0.394593

>  <SCORE.INTRA.DIHEDRAL>
0.0238439

>  <SCORE.INTRA.DIHEDRAL.0>
3.20029

>  <SCORE.INTRA.POLAR>
0

>  <SCORE.INTRA.POLAR.0>
0

>  <SCORE.INTRA.REPUL>
0

>  <SCORE.INTRA.REPUL.0>
0

>  <SCORE.INTRA.SOLV>
0.285745

>  <SCORE.INTRA.SOLV.lig_0>
-19.3885

>  <SCORE.INTRA.VDW>
-0.549388

>  <SCORE.INTRA.VDW.0>
-1.12705

>  <SCORE.INTRA.norm>
-0.0219219

>  <SCORE.RESTR>
0

>  <SCORE.RESTR.CAVITY>
0

>  <SCORE.RESTR.norm>
0

>  <SCORE.SYSTEM>
0

>  <SCORE.SYSTEM.CONST>
0

>  <SCORE.SYSTEM.DIHEDRAL>
0

>  <SCORE.SYSTEM.SOLV>
0

>  <SCORE.SYSTEM.norm>
0

>  <SCORE.heavy>
18

>  <SCORE.norm>
-1.11932

>  <RMSD>
4.625

$$$$
lig.pdb
 OpenBabel11021811503D
libRbt.so/2013.1/901 2013/11/27
 18 19  0  0  0  0  0  0  0  0999 V2000
  -14.8042   16.0562    4.0369 C   0  0  0  0  0  0  0  0  0  0  0  0
  -12.2754   12.2749    2.3519 N   0  0  0  0  0  0  0  0  0  0  0  0
   -8.6307   11.2320    2.6445 C   0  0  0  0  0  0  0  0  0  0  0  0
   -7.4035   11.3796    6.5322 O   0  0  0  0  0  0  0  0  0  0  0  0
   -6.1077   11.6334    6.0073 C   0  0  0  0  0  0  0  0  0  0  0  0
   -6.1203   11.5053    4.4716 C   0  0  0  0  0  0  0  0  0  0  0  0
   -8.1494   14.8995    3.2184 C   0  0  0  0  0  0  0  0  0  0  0  0
   -6.8025   14.3636    4.1685 S   0  0  0  0  0  0  0  0  0  0  0  0
   -6.9905   12.6132    3.9207 C   0  0  0  0  0  0  0  0  0  0  0  0
   -8.1020   12.5764    3.1156 C   0  0  0  0  0  0  0  0  0  0  0  0
   -8.6790   13.7681    2.7709 N   0  0  0  0  0  0  0  0  0  0  0  0
   -9.8886   13.8244    1.8755 C   0  0  0  0  0  0  0  0  0  0  0  0
  -12.3195   13.6363    2.6517 C   0  0  0  0  0  0  0  0  0  0  0  0
  -13.4650   14.1834    3.1621 N   0  0  0  0  0  0  0  0  0  0  0  0
  -13.5316   15.4838    3.4594 C   0  0  0  0  0  0  0  0  0  0  0  0
  -12.4786   16.2820    3.2612 N   0  0  0  0  0  0  0  0  0  0  0  0
  -11.3074   15.8094    2.7610 C   0  0  0  0  0  0  0  0  0  0  0  0
  -11.1737   14.4549    2.4362 C   0  0  0  0  0  0  0  0  0  0  0  0
  5  4  1  0  0  0  0
  5  6  1  0  0  0  0
  7  8  2  0  0  0  0
  7 11  1  0  0  0  0
  8  9  1  0  0  0  0
  9 10  2  0  0  0  0
  9  6  1  0  0  0  0
 10  3  1  0  0  0  0
 11 12  1  0  0  0  0
 11 10  1  0  0  0  0
 12 18  1  0  0  0  0
 13  2  1  0  0  0  0
 13 14  2  0  0  0  0
 15 14  1  0  0  0  0
 15  1  1  0  0  0  0
 16 15  2  0  0  0  0
 17 18  2  0  0  0  0
 17 16  1  0  0  0  0
 18 13  1  0  0  0  0
M  END
>  <CHROM.1>
65.85089340,57.22090207,-61.36493812,-113.26002392,-9.66449414,13.67950494
3.57812872,-2.73362162,0.21693734,3.08945680

>  <Name>
lig.pdb

>  <RI>
0

>  <Rbt.Current_Directory>
/home/itssahil/PROJECTS/Mol_Feturizer/New_Systems/rnas/4nyg

>  <Rbt.Executable>
rbdock ($Id: //depot/dev/client3/rdock/2013.1/src/exe/rbdock.cxx#4 $)

>  <Rbt.Library>
libRbt.so (2013.1, Build901 2013/11/27)

>  <Rbt.Parameter_File>
/export/apps/rDock/src/rDock_2013.1_src/data/scripts/dock_solv.prm

>  <Rbt.Receptor>
prm/pocket_docking_6.prm

>  <SCORE>
-19.9606

>  <SCORE.INTER>
-19.8044

>  <SCORE.INTER.CONST>
1

>  <SCORE.INTER.POLAR>
0

>  <SCORE.INTER.ROT>
4

>  <SCORE.INTER.SOLV>
14.0746

>  <SCORE.INTER.VDW>
-24.1611

>  <SCORE.INTER.norm>
-1.10024

>  <SCORE.INTRA>
-0.156234

>  <SCORE.INTRA.DIHEDRAL>
0.0616738

>  <SCORE.INTRA.DIHEDRAL.0>
3.20029

>  <SCORE.INTRA.POLAR>
0

>  <SCORE.INTRA.POLAR.0>
0

>  <SCORE.INTRA.REPUL>
0

>  <SCORE.INTRA.REPUL.0>
0

>  <SCORE.INTRA.SOLV>
0.785395

>  <SCORE.INTRA.SOLV.lig_0>
-19.3885

>  <SCORE.INTRA.VDW>
-0.579768

>  <SCORE.INTRA.VDW.0>
-1.12705

>  <SCORE.INTRA.norm>
-0.00867967

>  <SCORE.RESTR>
0

>  <SCORE.RESTR.CAVITY>
0

>  <SCORE.RESTR.norm>
0

>  <SCORE.SYSTEM>
0

>  <SCORE.SYSTEM.CONST>
0

>  <SCORE.SYSTEM.DIHEDRAL>
0

>  <SCORE.SYSTEM.SOLV>
0

>  <SCORE.SYSTEM.norm>
0

>  <SCORE.heavy>
18

>  <SCORE.norm>
-1.10892

>  <RMSD>
4.654

$$$$
lig.pdb
 OpenBabel11021811503D
libRbt.so/2013.1/901 2013/11/27
 18 19  0  0  0  0  0  0  0  0999 V2000
  -14.5956   15.7482    3.8952 C   0  0  0  0  0  0  0  0  0  0  0  0
  -10.2961   16.2570    1.7073 N   0  0  0  0  0  0  0  0  0  0  0  0
   -7.3554   14.7205    3.0743 C   0  0  0  0  0  0  0  0  0  0  0  0
   -4.9179   12.8337    7.2361 O   0  0  0  0  0  0  0  0  0  0  0  0
   -6.0470   12.5483    6.4222 C   0  0  0  0  0  0  0  0  0  0  0  0
   -5.7233   12.8336    4.9428 C   0  0  0  0  0  0  0  0  0  0  0  0
   -9.0485   11.3852    2.9293 C   0  0  0  0  0  0  0  0  0  0  0  0
   -7.7847   10.9275    4.0236 S   0  0  0  0  0  0  0  0  0  0  0  0
   -6.9501   12.4939    4.1255 C   0  0  0  0  0  0  0  0  0  0  0  0
   -7.7205   13.2609    3.2869 C   0  0  0  0  0  0  0  0  0  0  0  0
   -8.7936   12.6640    2.6835 N   0  0  0  0  0  0  0  0  0  0  0  0
   -9.7052   13.4334    1.7642 C   0  0  0  0  0  0  0  0  0  0  0  0
  -11.2401   15.4119    2.2903 C   0  0  0  0  0  0  0  0  0  0  0  0
  -12.3987   15.9339    2.7975 N   0  0  0  0  0  0  0  0  0  0  0  0
  -13.3191   15.1454    3.3587 C   0  0  0  0  0  0  0  0  0  0  0  0
  -13.1264   13.8258    3.4402 N   0  0  0  0  0  0  0  0  0  0  0  0
  -12.0028   13.2360    2.9557 C   0  0  0  0  0  0  0  0  0  0  0  0
  -11.0048   14.0082    2.3507 C   0  0  0  0  0  0  0  0  0  0  0  0
  5  4  1  0  0  0  0
  5  6  1  0  0  0  0
  7  8  2  0  0  0  0
  7 11  1  0  0  0  0
  8  9  1  0  0  0  0
  9 10  2  0  0  0  0
  9  6  1  0  0  0  0
 10  3  1  0  0  0  0
 11 12  1  0  0  0  0
 11 10  1  0  0  0  0
 12 18  1  0  0  0  0
 13  2  1  0  0  0  0
 13 14  2  0  0  0  0
 15 14  1  0  0  0  0
 15  1  1  0  0  0  0
 16 15  2  0  0  0  0
 17 18  2  0  0  0  0
 17 16  1  0  0  0  0
 18 13  1  0  0  0  0
M  END
>  <CHROM.1>
179.18954403,-58.55154150,82.33884500,121.20497055,-9.38462340,13.51469700
3.59975334,-2.85122766,0.42737423,-2.87546959

>  <Name>
lig.pdb

>  <RI>
0

>  <Rbt.Current_Directory>
/home/itssahil/PROJECTS/Mol_Feturizer/New_Systems/rnas/4nyg

>  <Rbt.Executable>
rbdock ($Id: //depot/dev/client3/rdock/2013.1/src/exe/rbdock.cxx#4 $)

>  <Rbt.Library>
libRbt.so (2013.1, Build901 2013/11/27)

>  <Rbt.Parameter_File>
/export/apps/rDock/src/rDock_2013.1_src/data/scripts/dock_solv.prm

>  <Rbt.Receptor>
prm/pocket_docking_6.prm

>  <SCORE>
-20.6001

>  <SCORE.INTER>
-20.1657

>  <SCORE.INTER.CONST>
1

>  <SCORE.INTER.POLAR>
0

>  <SCORE.INTER.ROT>
4

>  <SCORE.INTER.SOLV>
11.6466

>  <SCORE.INTER.VDW>
-23.5927

>  <SCORE.INTER.norm>
-1.12032

>  <SCORE.INTRA>
-0.434345

>  <SCORE.INTRA.DIHEDRAL>
-0.0136818

>  <SCORE.INTRA.DIHEDRAL.0>
3.20029

>  <SCORE.INTRA.POLAR>
0

>  <SCORE.INTRA.POLAR.0>
0

>  <SCORE.INTRA.REPUL>
0

>  <SCORE.INTRA.REPUL.0>
0

>  <SCORE.INTRA.SOLV>
0.345812

>  <SCORE.INTRA.SOLV.lig_0>
-19.3885

>  <SCORE.INTRA.VDW>
-0.60041

>  <SCORE.INTRA.VDW.0>
-1.12705

>  <SCORE.INTRA.norm>
-0.0241303

>  <SCORE.RESTR>
0

>  <SCORE.RESTR.CAVITY>
0

>  <SCORE.RESTR.norm>
0

>  <SCORE.SYSTEM>
0

>  <SCORE.SYSTEM.CONST>
0

>  <SCORE.SYSTEM.DIHEDRAL>
0

>  <SCORE.SYSTEM.SOLV>
0

>  <SCORE.SYSTEM.norm>
0

>  <SCORE.heavy>
18

>  <SCORE.norm>
-1.14445

>  <RMSD>
4.679

$$$$
lig.pdb
 OpenBabel11021811503D
libRbt.so/2013.1/901 2013/11/27
 18 19  0  0  0  0  0  0  0  0999 V2000
  -14.6225   15.7345    3.9074 C   0  0  0  0  0  0  0  0  0  0  0  0
  -11.9950   11.9896    2.2936 N   0  0  0  0  0  0  0  0  0  0  0  0
   -7.3519   14.7350    3.1894 C   0  0  0  0  0  0  0  0  0  0  0  0
   -6.5793   10.9690    6.5741 O   0  0  0  0  0  0  0  0  0  0  0  0
   -6.2722   12.3515    6.4592 C   0  0  0  0  0  0  0  0  0  0  0  0
   -5.8659   12.6886    5.0113 C   0  0  0  0  0  0  0  0  0  0  0  0
   -9.1404   11.4732    2.7733 C   0  0  0  0  0  0  0  0  0  0  0  0
   -7.9424   10.9102    3.8922 S   0  0  0  0  0  0  0  0  0  0  0  0
   -7.0646   12.4388    4.1230 C   0  0  0  0  0  0  0  0  0  0  0  0
   -7.7718   13.2788    3.2989 C   0  0  0  0  0  0  0  0  0  0  0  0
   -8.8347   12.7547    2.6152 N   0  0  0  0  0  0  0  0  0  0  0  0
   -9.6792   13.6066    1.7047 C   0  0  0  0  0  0  0  0  0  0  0  0
  -12.0827   13.3584    2.5467 C   0  0  0  0  0  0  0  0  0  0  0  0
  -13.2354   13.8815    3.0658 N   0  0  0  0  0  0  0  0  0  0  0  0
  -13.3434   15.1884    3.3190 C   0  0  0  0  0  0  0  0  0  0  0  0
  -12.3256   16.0167    3.0671 N   0  0  0  0  0  0  0  0  0  0  0  0
  -11.1496   15.5693    2.5550 C   0  0  0  0  0  0  0  0  0  0  0  0
  -10.9734   14.2098    2.2745 C   0  0  0  0  0  0  0  0  0  0  0  0
  5  4  1  0  0  0  0
  5  6  1  0  0  0  0
  7  8  2  0  0  0  0
  7 11  1  0  0  0  0
  8  9  1  0  0  0  0
  9 10  2  0  0  0  0
  9  6  1  0  0  0  0
 10  3  1  0  0  0  0
 11 12  1  0  0  0  0
 11 10  1  0  0  0  0
 12 18  1  0  0  0  0
 13  2  1  0  0  0  0
 13 14  2  0  0  0  0
 15 14  1  0  0  0  0
 15  1  1  0  0  0  0
 16 15  2  0  0  0  0
 17 18  2  0  0  0  0
 17 16  1  0  0  0  0
 18 13  1  0  0  0  0
M  END
>  <CHROM.1>
64.06736002,-59.47610562,83.34803829,-71.16799948,-9.62774063,13.20988512
3.55436817,-2.76750339,0.38487068,-2.95842801

>  <Name>
lig.pdb

>  <RI>
0

>  <Rbt.Current_Directory>
/home/itssahil/PROJECTS/Mol_Feturizer/New_Systems/rnas/4nyg

>  <Rbt.Executable>
rbdock ($Id: //depot/dev/client3/rdock/2013.1/src/exe/rbdock.cxx#4 $)

>  <Rbt.Library>
libRbt.so (2013.1, Build901 2013/11/27)

>  <Rbt.Parameter_File>
/export/apps/rDock/src/rDock_2013.1_src/data/scripts/dock_solv.prm

>  <Rbt.Receptor>
prm/pocket_docking_6.prm

>  <SCORE>
-20.946

>  <SCORE.INTER>
-20.8857

>  <SCORE.INTER.CONST>
1

>  <SCORE.INTER.POLAR>
0

>  <SCORE.INTER.ROT>
4

>  <SCORE.INTER.SOLV>
13.2368

>  <SCORE.INTER.VDW>
-24.6028

>  <SCORE.INTER.norm>
-1.16032

>  <SCORE.INTRA>
-0.060273

>  <SCORE.INTRA.DIHEDRAL>
0.0449847

>  <SCORE.INTRA.DIHEDRAL.0>
3.20029

>  <SCORE.INTRA.POLAR>
0

>  <SCORE.INTRA.POLAR.0>
0

>  <SCORE.INTRA.REPUL>
0

>  <SCORE.INTRA.REPUL.0>
0

>  <SCORE.INTRA.SOLV>
1.07493

>  <SCORE.INTRA.SOLV.lig_0>
-19.3885

>  <SCORE.INTRA.VDW>
-0.620229

>  <SCORE.INTRA.VDW.0>
-1.12705

>  <SCORE.INTRA.norm>
-0.0033485

>  <SCORE.RESTR>
0

>  <SCORE.RESTR.CAVITY>
0

>  <SCORE.RESTR.norm>
0

>  <SCORE.SYSTEM>
0

>  <SCORE.SYSTEM.CONST>
0

>  <SCORE.SYSTEM.DIHEDRAL>
0

>  <SCORE.SYSTEM.SOLV>
0

>  <SCORE.SYSTEM.norm>
0

>  <SCORE.heavy>
18

>  <SCORE.norm>
-1.16367

>  <RMSD>
4.694

$$$$
lig.pdb
 OpenBabel11021811503D
libRbt.so/2013.1/901 2013/11/27
 18 19  0  0  0  0  0  0  0  0999 V2000
  -14.7958   16.0150    4.0713 C   0  0  0  0  0  0  0  0  0  0  0  0
  -12.0739   12.3882    2.3481 N   0  0  0  0  0  0  0  0  0  0  0  0
   -9.0204   11.2894    2.2782 C   0  0  0  0  0  0  0  0  0  0  0  0
   -6.4470   11.8858    6.4782 O   0  0  0  0  0  0  0  0  0  0  0  0
   -6.9620   10.8195    5.6929 C   0  0  0  0  0  0  0  0  0  0  0  0
   -6.5900   11.0210    4.2111 C   0  0  0  0  0  0  0  0  0  0  0  0
   -8.0297   14.7786    3.2031 C   0  0  0  0  0  0  0  0  0  0  0  0
   -6.8253   13.9651    4.1474 S   0  0  0  0  0  0  0  0  0  0  0  0
   -7.2583   12.2913    3.7335 C   0  0  0  0  0  0  0  0  0  0  0  0
   -8.3221   12.4926    2.8893 C   0  0  0  0  0  0  0  0  0  0  0  0
   -8.6984   13.7833    2.6351 N   0  0  0  0  0  0  0  0  0  0  0  0
   -9.8410   14.0989    1.7060 C   0  0  0  0  0  0  0  0  0  0  0  0
  -12.2070   13.7505    2.6158 C   0  0  0  0  0  0  0  0  0  0  0  0
  -13.3633   14.2242    3.1730 N   0  0  0  0  0  0  0  0  0  0  0  0
  -13.5144   15.5239    3.4409 C   0  0  0  0  0  0  0  0  0  0  0  0
  -12.5374   16.3932    3.1666 N   0  0  0  0  0  0  0  0  0  0  0  0
  -11.3607   15.9961    2.6164 C   0  0  0  0  0  0  0  0  0  0  0  0
  -11.1402   14.6466    2.3189 C   0  0  0  0  0  0  0  0  0  0  0  0
  5  4  1  0  0  0  0
  5  6  1  0  0  0  0
  7  8  2  0  0  0  0
  7 11  1  0  0  0  0
  8  9  1  0  0  0  0
  9 10  2  0  0  0  0
  9  6  1  0  0  0  0
 10  3  1  0  0  0  0
 11 12  1  0  0  0  0
 11 10  1  0  0  0  0
 12 18  1  0  0  0  0
 13  2  1  0  0  0  0
 13 14  2  0  0  0  0
 15 14  1  0  0  0  0
 15  1  1  0  0  0  0
 16 15  2  0  0  0  0
 17 18  2  0  0  0  0
 17 16  1  0  0  0  0
 18 13  1  0  0  0  0
M  END
>  <CHROM.1>
-63.27141516,72.33949843,-71.69383538,-95.71850576,-9.69859301,13.62337604
3.46675433,-2.71490041,0.27999973,-3.04221730

>  <Name>
lig.pdb

>  <RI>
0

>  <Rbt.Current_Directory>
/home/itssahil/PROJECTS/Mol_Feturizer/New_Systems/rnas/4nyg

>  <Rbt.Executable>
rbdock ($Id: //depot/dev/client3/rdock/2013.1/src/exe/rbdock.cxx#4 $)

>  <Rbt.Library>
libRbt.so (2013.1, Build901 2013/11/27)

>  <Rbt.Parameter_File>
/export/apps/rDock/src/rDock_2013.1_src/data/scripts/dock_solv.prm

>  <Rbt.Receptor>
prm/pocket_docking_7.prm

>  <SCORE>
-20.7403

>  <SCORE.INTER>
-20.6046

>  <SCORE.INTER.CONST>
1

>  <SCORE.INTER.POLAR>
0

>  <SCORE.INTER.ROT>
4

>  <SCORE.INTER.SOLV>
13.1335

>  <SCORE.INTER.VDW>
-24.3809

>  <SCORE.INTER.norm>
-1.1447

>  <SCORE.INTRA>
-0.13569

>  <SCORE.INTRA.DIHEDRAL>
0.188842

>  <SCORE.INTRA.DIHEDRAL.0>
3.20029

>  <SCORE.INTRA.POLAR>
0

>  <SCORE.INTRA.POLAR.0>
0

>  <SCORE.INTRA.REPUL>
0

>  <SCORE.INTRA.REPUL.0>
0

>  <SCORE.INTRA.SOLV>
1.06672

>  <SCORE.INTRA.SOLV.lig_0>
-19.3885

>  <SCORE.INTRA.VDW>
-0.76347

>  <SCORE.INTRA.VDW.0>
-1.12705

>  <SCORE.INTRA.norm>
-0.00753836

>  <SCORE.RESTR>
0

>  <SCORE.RESTR.CAVITY>
0

>  <SCORE.RESTR.norm>
0

>  <SCORE.SYSTEM>
0

>  <SCORE.SYSTEM.CONST>
0

>  <SCORE.SYSTEM.DIHEDRAL>
0

>  <SCORE.SYSTEM.SOLV>
0

>  <SCORE.SYSTEM.norm>
0

>  <SCORE.heavy>
18

>  <SCORE.norm>
-1.15224

>  <RMSD>
4.724

$$$$
lig.pdb
 OpenBabel11021811503D
libRbt.so/2013.1/901 2013/11/27
 18 19  0  0  0  0  0  0  0  0999 V2000
  -14.7679   16.0236    4.0768 C   0  0  0  0  0  0  0  0  0  0  0  0
  -12.0562   12.3286    2.4876 N   0  0  0  0  0  0  0  0  0  0  0  0
   -9.1263   11.1856    2.0516 C   0  0  0  0  0  0  0  0  0  0  0  0
   -6.4019   11.6421    6.2191 O   0  0  0  0  0  0  0  0  0  0  0  0
   -6.9821   10.5945    5.4544 C   0  0  0  0  0  0  0  0  0  0  0  0
   -6.6886   10.8029    3.9560 C   0  0  0  0  0  0  0  0  0  0  0  0
   -8.0713   14.6198    3.1028 C   0  0  0  0  0  0  0  0  0  0  0  0
   -6.8748   13.7508    4.0069 S   0  0  0  0  0  0  0  0  0  0  0  0
   -7.3385   12.1015    3.5321 C   0  0  0  0  0  0  0  0  0  0  0  0
   -8.4040   12.3528    2.7035 C   0  0  0  0  0  0  0  0  0  0  0  0
   -8.7602   13.6583    2.5016 N   0  0  0  0  0  0  0  0  0  0  0  0
   -9.9030   14.0283    1.5933 C   0  0  0  0  0  0  0  0  0  0  0  0
  -12.2075   13.7047    2.6572 C   0  0  0  0  0  0  0  0  0  0  0  0
  -13.3432   14.1972    3.2400 N   0  0  0  0  0  0  0  0  0  0  0  0
  -13.5109   15.5105    3.4156 C   0  0  0  0  0  0  0  0  0  0  0  0
  -12.5714   16.3751    3.0217 N   0  0  0  0  0  0  0  0  0  0  0  0
  -11.4168   15.9599    2.4389 C   0  0  0  0  0  0  0  0  0  0  0  0
  -11.1802   14.5961    2.2337 C   0  0  0  0  0  0  0  0  0  0  0  0
  5  4  1  0  0  0  0
  5  6  1  0  0  0  0
  7  8  2  0  0  0  0
  7 11  1  0  0  0  0
  8  9  1  0  0  0  0
  9 10  2  0  0  0  0
  9  6  1  0  0  0  0
 10  3  1  0  0  0  0
 11 12  1  0  0  0  0
 11 10  1  0  0  0  0
 12 18  1  0  0  0  0
 13  2  1  0  0  0  0
 13 14  2  0  0  0  0
 15 14  1  0  0  0  0
 15  1  1  0  0  0  0
 16 15  2  0  0  0  0
 17 18  2  0  0  0  0
 17 16  1  0  0  0  0
 18 13  1  0  0  0  0
M  END
>  <CHROM.1>
-62.47088025,68.91079015,-70.66584771,-88.73839079,-9.73309715,13.50734533
3.35017449,-2.66214024,0.22534476,-3.10743069

>  <Name>
lig.pdb

>  <RI>
0

>  <Rbt.Current_Directory>
/home/itssahil/PROJECTS/Mol_Feturizer/New_Systems/rnas/4nyg

>  <Rbt.Executable>
rbdock ($Id: //depot/dev/client3/rdock/2013.1/src/exe/rbdock.cxx#4 $)

>  <Rbt.Library>
libRbt.so (2013.1, Build901 2013/11/27)

>  <Rbt.Parameter_File>
/export/apps/rDock/src/rDock_2013.1_src/data/scripts/dock_solv.prm

>  <Rbt.Receptor>
prm/pocket_docking_5.prm

>  <SCORE>
-20.6876

>  <SCORE.INTER>
-20.5756

>  <SCORE.INTER.CONST>
1

>  <SCORE.INTER.POLAR>
0

>  <SCORE.INTER.ROT>
4

>  <SCORE.INTER.SOLV>
12.6211

>  <SCORE.INTER.VDW>
-24.1908

>  <SCORE.INTER.norm>
-1.14309

>  <SCORE.INTRA>
-0.111978

>  <SCORE.INTRA.DIHEDRAL>
0.048949

>  <SCORE.INTRA.DIHEDRAL.0>
3.20029

>  <SCORE.INTRA.POLAR>
0

>  <SCORE.INTRA.POLAR.0>
0

>  <SCORE.INTRA.REPUL>
0

>  <SCORE.INTRA.REPUL.0>
0

>  <SCORE.INTRA.SOLV>
1.15232

>  <SCORE.INTRA.SOLV.lig_0>
-19.3885

>  <SCORE.INTRA.VDW>
-0.712613

>  <SCORE.INTRA.VDW.0>
-1.12705

>  <SCORE.INTRA.norm>
-0.00622102

>  <SCORE.RESTR>
0

>  <SCORE.RESTR.CAVITY>
0

>  <SCORE.RESTR.norm>
0

>  <SCORE.SYSTEM>
0

>  <SCORE.SYSTEM.CONST>
0

>  <SCORE.SYSTEM.DIHEDRAL>
0

>  <SCORE.SYSTEM.SOLV>
0

>  <SCORE.SYSTEM.norm>
0

>  <SCORE.heavy>
18

>  <SCORE.norm>
-1.14931

>  <RMSD>
4.778

$$$$
lig.pdb
 OpenBabel11021811503D
libRbt.so/2013.1/901 2013/11/27
 18 19  0  0  0  0  0  0  0  0999 V2000
  -14.2889   15.0412    3.7129 C   0  0  0  0  0  0  0  0  0  0  0  0
  -11.6267   11.3012    2.1454 N   0  0  0  0  0  0  0  0  0  0  0  0
   -8.5734   10.0702    1.3873 C   0  0  0  0  0  0  0  0  0  0  0  0
   -4.3741   10.0624    2.3921 O   0  0  0  0  0  0  0  0  0  0  0  0
   -4.8774    9.4774    3.5852 C   0  0  0  0  0  0  0  0  0  0  0  0
   -6.4031    9.2861    3.4825 C   0  0  0  0  0  0  0  0  0  0  0  0
   -7.7677   13.1982    3.2788 C   0  0  0  0  0  0  0  0  0  0  0  0
   -6.6788   12.1546    4.1328 S   0  0  0  0  0  0  0  0  0  0  0  0
   -7.0272   10.6459    3.2594 C   0  0  0  0  0  0  0  0  0  0  0  0
   -7.9788   11.0698    2.3651 C   0  0  0  0  0  0  0  0  0  0  0  0
   -8.3420   12.3885    2.3984 N   0  0  0  0  0  0  0  0  0  0  0  0
   -9.3629   12.9456    1.4416 C   0  0  0  0  0  0  0  0  0  0  0  0
  -11.7367   12.6753    2.3576 C   0  0  0  0  0  0  0  0  0  0  0  0
  -12.8858   13.1910    2.8918 N   0  0  0  0  0  0  0  0  0  0  0  0
  -13.0148   14.5029    3.1066 C   0  0  0  0  0  0  0  0  0  0  0  0
  -12.0222   15.3434    2.8005 N   0  0  0  0  0  0  0  0  0  0  0  0
  -10.8513   14.9040    2.2703 C   0  0  0  0  0  0  0  0  0  0  0  0
  -10.6537   13.5401    2.0280 C   0  0  0  0  0  0  0  0  0  0  0  0
  5  4  1  0  0  0  0
  5  6  1  0  0  0  0
  7  8  2  0  0  0  0
  7 11  1  0  0  0  0
  8  9  1  0  0  0  0
  9 10  2  0  0  0  0
  9  6  1  0  0  0  0
 10  3  1  0  0  0  0
 11 12  1  0  0  0  0
 11 10  1  0  0  0  0
 12 18  1  0  0  0  0
 13  2  1  0  0  0  0
 13 14  2  0  0  0  0
 15 14  1  0  0  0  0
 15  1  1  0  0  0  0
 16 15  2  0  0  0  0
 17 18  2  0  0  0  0
 17 16  1  0  0  0  0
 18 13  1  0  0  0  0
M  END
>  <CHROM.1>
-59.45392654,-46.53941352,-62.50007718,-83.47514419,-9.12539516,12.27555725
2.82076734,-2.67813760,0.24662108,-2.76490417

>  <Name>
lig.pdb

>  <RI>
0

>  <Rbt.Current_Directory>
/home/itssahil/PROJECTS/Mol_Feturizer/New_Systems/rnas/4nyg

>  <Rbt.Executable>
rbdock ($Id: //depot/dev/client3/rdock/2013.1/src/exe/rbdock.cxx#4 $)

>  <Rbt.Library>
libRbt.so (2013.1, Build901 2013/11/27)

>  <Rbt.Parameter_File>
/export/apps/rDock/src/rDock_2013.1_src/data/scripts/dock_solv.prm

>  <Rbt.Receptor>
prm/pocket_docking_6.prm

>  <SCORE>
-19.6099

>  <SCORE.INTER>
-19.6964

>  <SCORE.INTER.CONST>
1

>  <SCORE.INTER.POLAR>
0

>  <SCORE.INTER.ROT>
4

>  <SCORE.INTER.SOLV>
14.693

>  <SCORE.INTER.VDW>
-24.2953

>  <SCORE.INTER.norm>
-1.09425

>  <SCORE.INTRA>
0.0865368

>  <SCORE.INTRA.DIHEDRAL>
0.227819

>  <SCORE.INTRA.DIHEDRAL.0>
3.20029

>  <SCORE.INTRA.POLAR>
0

>  <SCORE.INTRA.POLAR.0>
0

>  <SCORE.INTRA.REPUL>
0

>  <SCORE.INTRA.REPUL.0>
0

>  <SCORE.INTRA.SOLV>
1.19151

>  <SCORE.INTRA.SOLV.lig_0>
-19.3885

>  <SCORE.INTRA.VDW>
-0.623127

>  <SCORE.INTRA.VDW.0>
-1.12705

>  <SCORE.INTRA.norm>
0.0048076

>  <SCORE.RESTR>
0

>  <SCORE.RESTR.CAVITY>
0

>  <SCORE.RESTR.norm>
0

>  <SCORE.SYSTEM>
0

>  <SCORE.SYSTEM.CONST>
0

>  <SCORE.SYSTEM.DIHEDRAL>
0

>  <SCORE.SYSTEM.SOLV>
0

>  <SCORE.SYSTEM.norm>
0

>  <SCORE.heavy>
18

>  <SCORE.norm>
-1.08944

>  <RMSD>
4.793

$$$$
lig.pdb
 OpenBabel11021811503D
libRbt.so/2013.1/901 2013/11/27
 18 19  0  0  0  0  0  0  0  0999 V2000
  -14.6178   15.7449    3.9040 C   0  0  0  0  0  0  0  0  0  0  0  0
  -10.3007   16.2743    1.7558 N   0  0  0  0  0  0  0  0  0  0  0  0
   -7.4554   14.7076    3.1611 C   0  0  0  0  0  0  0  0  0  0  0  0
   -6.4666   11.0721    6.6027 O   0  0  0  0  0  0  0  0  0  0  0  0
   -6.2119   12.4599    6.4348 C   0  0  0  0  0  0  0  0  0  0  0  0
   -5.8310   12.7587    4.9718 C   0  0  0  0  0  0  0  0  0  0  0  0
   -9.0717   11.3508    2.7981 C   0  0  0  0  0  0  0  0  0  0  0  0
   -7.8266   10.8621    3.9004 S   0  0  0  0  0  0  0  0  0  0  0  0
   -7.0290   12.4376    4.1056 C   0  0  0  0  0  0  0  0  0  0  0  0
   -7.7941   13.2317    3.2878 C   0  0  0  0  0  0  0  0  0  0  0  0
   -8.8383   12.6456    2.6259 N   0  0  0  0  0  0  0  0  0  0  0  0
   -9.7426   13.4437    1.7240 C   0  0  0  0  0  0  0  0  0  0  0  0
  -11.2577   15.4218    2.3062 C   0  0  0  0  0  0  0  0  0  0  0  0
  -12.4129   15.9404    2.8242 N   0  0  0  0  0  0  0  0  0  0  0  0
  -13.3454   15.1450    3.3547 C   0  0  0  0  0  0  0  0  0  0  0  0
  -13.1683   13.8212    3.3942 N   0  0  0  0  0  0  0  0  0  0  0  0
  -12.0489   13.2345    2.8966 C   0  0  0  0  0  0  0  0  0  0  0  0
  -11.0388   14.0142    2.3222 C   0  0  0  0  0  0  0  0  0  0  0  0
  5  4  1  0  0  0  0
  5  6  1  0  0  0  0
  7  8  2  0  0  0  0
  7 11  1  0  0  0  0
  8  9  1  0  0  0  0
  9 10  2  0  0  0  0
  9  6  1  0  0  0  0
 10  3  1  0  0  0  0
 11 12  1  0  0  0  0
 11 10  1  0  0  0  0
 12 18  1  0  0  0  0
 13  2  1  0  0  0  0
 13 14  2  0  0  0  0
 15 14  1  0  0  0  0
 15  1  1  0  0  0  0
 16 15  2  0  0  0  0
 17 18  2  0  0  0  0
 17 16  1  0  0  0  0
 18 13  1  0  0  0  0
M  END
>  <CHROM.1>
64.27161540,-61.49915428,85.04470263,120.61416292,-9.52741152,13.38519326
3.53902078,2.56320417,0.02517150,-0.57570951

>  <Name>
lig.pdb

>  <RI>
0

>  <Rbt.Current_Directory>
/home/itssahil/PROJECTS/Mol_Feturizer/New_Systems/rnas/4nyg

>  <Rbt.Executable>
rbdock ($Id: //depot/dev/client3/rdock/2013.1/src/exe/rbdock.cxx#4 $)

>  <Rbt.Library>
libRbt.so (2013.1, Build901 2013/11/27)

>  <Rbt.Parameter_File>
/export/apps/rDock/src/rDock_2013.1_src/data/scripts/dock_solv.prm

>  <Rbt.Receptor>
prm/pocket_docking_7.prm

>  <SCORE>
-20.5607

>  <SCORE.INTER>
-20.2728

>  <SCORE.INTER.CONST>
1

>  <SCORE.INTER.POLAR>
0

>  <SCORE.INTER.ROT>
4

>  <SCORE.INTER.SOLV>
11.9476

>  <SCORE.INTER.VDW>
-23.7644

>  <SCORE.INTER.norm>
-1.12627

>  <SCORE.INTRA>
-0.287869

>  <SCORE.INTRA.DIHEDRAL>
0.0574501

>  <SCORE.INTRA.DIHEDRAL.0>
3.20029

>  <SCORE.INTRA.POLAR>
0

>  <SCORE.INTRA.POLAR.0>
0

>  <SCORE.INTRA.REPUL>
0

>  <SCORE.INTRA.REPUL.0>
0

>  <SCORE.INTRA.SOLV>
0.803154

>  <SCORE.INTRA.SOLV.lig_0>
-19.3885

>  <SCORE.INTRA.VDW>
-0.718171

>  <SCORE.INTRA.VDW.0>
-1.12705

>  <SCORE.INTRA.norm>
-0.0159927

>  <SCORE.RESTR>
0

>  <SCORE.RESTR.CAVITY>
0

>  <SCORE.RESTR.norm>
0

>  <SCORE.SYSTEM>
0

>  <SCORE.SYSTEM.CONST>
0

>  <SCORE.SYSTEM.DIHEDRAL>
0

>  <SCORE.SYSTEM.SOLV>
0

>  <SCORE.SYSTEM.norm>
0

>  <SCORE.heavy>
18

>  <SCORE.norm>
-1.14226

>  <RMSD>
4.883

$$$$
lig.pdb
 OpenBabel11021811503D
libRbt.so/2013.1/901 2013/11/27
 18 19  0  0  0  0  0  0  0  0999 V2000
  -14.4710   15.1647    3.8342 C   0  0  0  0  0  0  0  0  0  0  0  0
  -10.0715   15.8279    1.9012 N   0  0  0  0  0  0  0  0  0  0  0  0
   -7.6325   14.4281    3.2997 C   0  0  0  0  0  0  0  0  0  0  0  0
   -6.4017   10.7647    6.5857 O   0  0  0  0  0  0  0  0  0  0  0  0
   -6.3522   12.1773    6.4408 C   0  0  0  0  0  0  0  0  0  0  0  0
   -5.8474   12.5514    5.0337 C   0  0  0  0  0  0  0  0  0  0  0  0
   -8.6592   10.9301    2.4503 C   0  0  0  0  0  0  0  0  0  0  0  0
   -7.4323   10.5113    3.6007 S   0  0  0  0  0  0  0  0  0  0  0  0
   -6.9144   12.1549    4.0373 C   0  0  0  0  0  0  0  0  0  0  0  0
   -7.7378   12.9133    3.2425 C   0  0  0  0  0  0  0  0  0  0  0  0
   -8.6253   12.2564    2.4344 N   0  0  0  0  0  0  0  0  0  0  0  0
   -9.5804   13.0072    1.5444 C   0  0  0  0  0  0  0  0  0  0  0  0
  -11.0668   14.9425    2.3144 C   0  0  0  0  0  0  0  0  0  0  0  0
  -12.2264   15.4271    2.8551 N   0  0  0  0  0  0  0  0  0  0  0  0
  -13.1953   14.5999    3.2563 C   0  0  0  0  0  0  0  0  0  0  0  0
  -13.0513   13.2766    3.1407 N   0  0  0  0  0  0  0  0  0  0  0  0
  -11.9298   12.7230    2.6107 C   0  0  0  0  0  0  0  0  0  0  0  0
  -10.8823   13.5377    2.1667 C   0  0  0  0  0  0  0  0  0  0  0  0
  5  4  1  0  0  0  0
  5  6  1  0  0  0  0
  7  8  2  0  0  0  0
  7 11  1  0  0  0  0
  8  9  1  0  0  0  0
  9 10  2  0  0  0  0
  9  6  1  0  0  0  0
 10  3  1  0  0  0  0
 11 12  1  0  0  0  0
 11 10  1  0  0  0  0
 12 18  1  0  0  0  0
 13  2  1  0  0  0  0
 13 14  2  0  0  0  0
 15 14  1  0  0  0  0
 15  1  1  0  0  0  0
 16 15  2  0  0  0  0
 17 18  2  0  0  0  0
 17 16  1  0  0  0  0
 18 13  1  0  0  0  0
M  END
>  <CHROM.1>
68.72999930,-68.01079809,96.60175687,111.47384706,-9.37989156,12.98116081
3.43708493,-2.78310722,0.43853271,-2.84743155

>  <Name>
lig.pdb

>  <RI>
0

>  <Rbt.Current_Directory>
/home/itssahil/PROJECTS/Mol_Feturizer/New_Systems/rnas/4nyg

>  <Rbt.Executable>
rbdock ($Id: //depot/dev/client3/rdock/2013.1/src/exe/rbdock.cxx#4 $)

>  <Rbt.Library>
libRbt.so (2013.1, Build901 2013/11/27)

>  <Rbt.Parameter_File>
/export/apps/rDock/src/rDock_2013.1_src/data/scripts/dock_solv.prm

>  <Rbt.Receptor>
prm/pocket_docking_6.prm

>  <SCORE>
-19.6741

>  <SCORE.INTER>
-19.5645

>  <SCORE.INTER.CONST>
1

>  <SCORE.INTER.POLAR>
0

>  <SCORE.INTER.ROT>
4

>  <SCORE.INTER.SOLV>
11.4293

>  <SCORE.INTER.VDW>
-23.1194

>  <SCORE.INTER.norm>
-1.08692

>  <SCORE.INTRA>
-0.10958

>  <SCORE.INTRA.DIHEDRAL>
0.385405

>  <SCORE.INTRA.DIHEDRAL.0>
3.20029

>  <SCORE.INTRA.POLAR>
0

>  <SCORE.INTRA.POLAR.0>
0

>  <SCORE.INTRA.REPUL>
0

>  <SCORE.INTRA.REPUL.0>
0

>  <SCORE.INTRA.SOLV>
0.970774

>  <SCORE.INTRA.SOLV.lig_0>
-19.3885

>  <SCORE.INTRA.VDW>
-0.78767

>  <SCORE.INTRA.VDW.0>
-1.12705

>  <SCORE.INTRA.norm>
-0.0060878

>  <SCORE.RESTR>
0

>  <SCORE.RESTR.CAVITY>
0

>  <SCORE.RESTR.norm>
0

>  <SCORE.SYSTEM>
0

>  <SCORE.SYSTEM.CONST>
0

>  <SCORE.SYSTEM.DIHEDRAL>
0

>  <SCORE.SYSTEM.SOLV>
0

>  <SCORE.SYSTEM.norm>
0

>  <SCORE.heavy>
18

>  <SCORE.norm>
-1.093

>  <RMSD>
4.901

$$$$
lig.pdb
 OpenBabel11021811503D
libRbt.so/2013.1/901 2013/11/27
 18 19  0  0  0  0  0  0  0  0999 V2000
  -14.6457   15.7358    3.9126 C   0  0  0  0  0  0  0  0  0  0  0  0
  -10.3488   16.2630    1.7239 N   0  0  0  0  0  0  0  0  0  0  0  0
   -7.5156   14.6963    3.2064 C   0  0  0  0  0  0  0  0  0  0  0  0
   -6.4513   10.9361    6.5397 O   0  0  0  0  0  0  0  0  0  0  0  0
   -6.2609   12.3410    6.4444 C   0  0  0  0  0  0  0  0  0  0  0  0
   -5.8913   12.7320    5.0003 C   0  0  0  0  0  0  0  0  0  0  0  0
   -9.0942   11.3308    2.7674 C   0  0  0  0  0  0  0  0  0  0  0  0
   -7.8562   10.8350    3.8744 S   0  0  0  0  0  0  0  0  0  0  0  0
   -7.0766   12.4144    4.1157 C   0  0  0  0  0  0  0  0  0  0  0  0
   -7.8408   13.2152    3.3037 C   0  0  0  0  0  0  0  0  0  0  0  0
   -8.8720   12.6306    2.6203 N   0  0  0  0  0  0  0  0  0  0  0  0
   -9.7745   13.4355    1.7226 C   0  0  0  0  0  0  0  0  0  0  0  0
  -11.2964   15.4120    2.2924 C   0  0  0  0  0  0  0  0  0  0  0  0
  -12.4505   15.9304    2.8130 N   0  0  0  0  0  0  0  0  0  0  0  0
  -13.3742   15.1363    3.3607 C   0  0  0  0  0  0  0  0  0  0  0  0
  -13.1892   13.8142    3.4152 N   0  0  0  0  0  0  0  0  0  0  0  0
  -12.0702   13.2277    2.9159 C   0  0  0  0  0  0  0  0  0  0  0  0
  -11.0693   14.0060    2.3240 C   0  0  0  0  0  0  0  0  0  0  0  0
  5  4  1  0  0  0  0
  5  6  1  0  0  0  0
  7  8  2  0  0  0  0
  7 11  1  0  0  0  0
  8  9  1  0  0  0  0
  9 10  2  0  0  0  0
  9  6  1  0  0  0  0
 10  3  1  0  0  0  0
 11 12  1  0  0  0  0
 11 10  1  0  0  0  0
 12 18  1  0  0  0  0
 13  2  1  0  0  0  0
 13 14  2  0  0  0  0
 15 14  1  0  0  0  0
 15  1  1  0  0  0  0
 16 15  2  0  0  0  0
 17 18  2  0  0  0  0
 17 16  1  0  0  0  0
 18 13  1  0  0  0  0
M  END
>  <CHROM.1>
64.85878490,-58.85042284,86.22309187,121.80693684,-9.56115839,13.35752477
3.53591864,2.55598125,0.03532387,-0.58135997

>  <Name>
lig.pdb

>  <RI>
0

>  <Rbt.Current_Directory>
/home/itssahil/PROJECTS/Mol_Feturizer/New_Systems/rnas/4nyg

>  <Rbt.Executable>
rbdock ($Id: //depot/dev/client3/rdock/2013.1/src/exe/rbdock.cxx#4 $)

>  <Rbt.Library>
libRbt.so (2013.1, Build901 2013/11/27)

>  <Rbt.Parameter_File>
/export/apps/rDock/src/rDock_2013.1_src/data/scripts/dock_solv.prm

>  <Rbt.Receptor>
prm/pocket_docking_8.prm

>  <SCORE>
-20.6214

>  <SCORE.INTER>
-20.3665

>  <SCORE.INTER.CONST>
1

>  <SCORE.INTER.POLAR>
0

>  <SCORE.INTER.ROT>
4

>  <SCORE.INTER.SOLV>
11.9961

>  <SCORE.INTER.VDW>
-23.843

>  <SCORE.INTER.norm>
-1.13147

>  <SCORE.INTRA>
-0.254921

>  <SCORE.INTRA.DIHEDRAL>
0.0750275

>  <SCORE.INTRA.DIHEDRAL.0>
3.20029

>  <SCORE.INTRA.POLAR>
0

>  <SCORE.INTRA.POLAR.0>
0

>  <SCORE.INTRA.REPUL>
0

>  <SCORE.INTRA.REPUL.0>
0

>  <SCORE.INTRA.SOLV>
0.786233

>  <SCORE.INTRA.SOLV.lig_0>
-19.3885

>  <SCORE.INTRA.VDW>
-0.685551

>  <SCORE.INTRA.VDW.0>
-1.12705

>  <SCORE.INTRA.norm>
-0.0141623

>  <SCORE.RESTR>
0

>  <SCORE.RESTR.CAVITY>
0

>  <SCORE.RESTR.norm>
0

>  <SCORE.SYSTEM>
0

>  <SCORE.SYSTEM.CONST>
0

>  <SCORE.SYSTEM.DIHEDRAL>
0

>  <SCORE.SYSTEM.SOLV>
0

>  <SCORE.SYSTEM.norm>
0

>  <SCORE.heavy>
18

>  <SCORE.norm>
-1.14563

>  <RMSD>
4.918

$$$$
lig.pdb
 OpenBabel11021811503D
libRbt.so/2013.1/901 2013/11/27
 18 19  0  0  0  0  0  0  0  0999 V2000
  -14.6860   15.8774    4.0100 C   0  0  0  0  0  0  0  0  0  0  0  0
  -10.4769   16.4008    1.6559 N   0  0  0  0  0  0  0  0  0  0  0  0
   -7.5054   14.7697    3.1648 C   0  0  0  0  0  0  0  0  0  0  0  0
   -6.4926   11.0350    6.5294 O   0  0  0  0  0  0  0  0  0  0  0  0
   -6.2610   12.4284    6.3753 C   0  0  0  0  0  0  0  0  0  0  0  0
   -5.8986   12.7498    4.9124 C   0  0  0  0  0  0  0  0  0  0  0  0
   -9.2071   11.4593    2.7683 C   0  0  0  0  0  0  0  0  0  0  0  0
   -7.9562   10.9209    3.8404 S   0  0  0  0  0  0  0  0  0  0  0  0
   -7.1179   12.4731    4.0608 C   0  0  0  0  0  0  0  0  0  0  0  0
   -7.8771   13.3001    3.2705 C   0  0  0  0  0  0  0  0  0  0  0  0
   -8.9457   12.7512    2.6156 N   0  0  0  0  0  0  0  0  0  0  0  0
   -9.8453   13.5869    1.7436 C   0  0  0  0  0  0  0  0  0  0  0  0
  -11.3872   15.5547    2.2890 C   0  0  0  0  0  0  0  0  0  0  0  0
  -12.5335   16.0709    2.8288 N   0  0  0  0  0  0  0  0  0  0  0  0
  -13.4218   15.2813    3.4381 C   0  0  0  0  0  0  0  0  0  0  0  0
  -13.2080   13.9661    3.5369 N   0  0  0  0  0  0  0  0  0  0  0  0
  -12.0947   13.3820    3.0224 C   0  0  0  0  0  0  0  0  0  0  0  0
  -11.1304   14.1556    2.3668 C   0  0  0  0  0  0  0  0  0  0  0  0
  5  4  1  0  0  0  0
  5  6  1  0  0  0  0
  7  8  2  0  0  0  0
  7 11  1  0  0  0  0
  8  9  1  0  0  0  0
  9 10  2  0  0  0  0
  9  6  1  0  0  0  0
 10  3  1  0  0  0  0
 11 12  1  0  0  0  0
 11 10  1  0  0  0  0
 12 18  1  0  0  0  0
 13  2  1  0  0  0  0
 13 14  2  0  0  0  0
 15 14  1  0  0  0  0
 15  1  1  0  0  0  0
 16 15  2  0  0  0  0
 17 18  2  0  0  0  0
 17 16  1  0  0  0  0
 18 13  1  0  0  0  0
M  END
>  <CHROM.1>
66.52677523,-61.30689520,83.96172071,126.12809213,-9.61751603,13.47012433
3.53717580,2.56115630,0.09568901,-0.64273851

>  <Name>
lig.pdb

>  <RI>
0

>  <Rbt.Current_Directory>
/home/itssahil/PROJECTS/Mol_Feturizer/New_Systems/rnas/4nyg

>  <Rbt.Executable>
rbdock ($Id: //depot/dev/client3/rdock/2013.1/src/exe/rbdock.cxx#4 $)

>  <Rbt.Library>
libRbt.so (2013.1, Build901 2013/11/27)

>  <Rbt.Parameter_File>
/export/apps/rDock/src/rDock_2013.1_src/data/scripts/dock_solv.prm

>  <Rbt.Receptor>
prm/pocket_docking_8.prm

>  <SCORE>
-20.5175

>  <SCORE.INTER>
-20.2123

>  <SCORE.INTER.CONST>
1

>  <SCORE.INTER.POLAR>
0

>  <SCORE.INTER.ROT>
4

>  <SCORE.INTER.SOLV>
12.2912

>  <SCORE.INTER.VDW>
-23.8386

>  <SCORE.INTER.norm>
-1.1229

>  <SCORE.INTRA>
-0.305191

>  <SCORE.INTRA.DIHEDRAL>
0.146467

>  <SCORE.INTRA.DIHEDRAL.0>
3.20029

>  <SCORE.INTRA.POLAR>
0

>  <SCORE.INTRA.POLAR.0>
0

>  <SCORE.INTRA.REPUL>
0

>  <SCORE.INTRA.REPUL.0>
0

>  <SCORE.INTRA.SOLV>
0.697638

>  <SCORE.INTRA.SOLV.lig_0>
-19.3885

>  <SCORE.INTRA.VDW>
-0.727244

>  <SCORE.INTRA.VDW.0>
-1.12705

>  <SCORE.INTRA.norm>
-0.0169551

>  <SCORE.RESTR>
0

>  <SCORE.RESTR.CAVITY>
0

>  <SCORE.RESTR.norm>
0

>  <SCORE.SYSTEM>
0

>  <SCORE.SYSTEM.CONST>
0

>  <SCORE.SYSTEM.DIHEDRAL>
0

>  <SCORE.SYSTEM.SOLV>
0

>  <SCORE.SYSTEM.norm>
0

>  <SCORE.heavy>
18

>  <SCORE.norm>
-1.13986

>  <RMSD>
4.920

$$$$
lig.pdb
 OpenBabel11021811503D
libRbt.so/2013.1/901 2013/11/27
 18 19  0  0  0  0  0  0  0  0999 V2000
  -14.2292   15.0352    3.7356 C   0  0  0  0  0  0  0  0  0  0  0  0
  -11.7222   11.2320    2.0672 N   0  0  0  0  0  0  0  0  0  0  0  0
   -8.4779    9.9447    1.4202 C   0  0  0  0  0  0  0  0  0  0  0  0
   -4.0684    8.2490    3.6922 O   0  0  0  0  0  0  0  0  0  0  0  0
   -4.7527    9.4734    3.4652 C   0  0  0  0  0  0  0  0  0  0  0  0
   -6.2766    9.2492    3.5144 C   0  0  0  0  0  0  0  0  0  0  0  0
   -7.7815   13.1087    3.2953 C   0  0  0  0  0  0  0  0  0  0  0  0
   -6.6541   12.1090    4.1518 S   0  0  0  0  0  0  0  0  0  0  0  0
   -6.9497   10.5846    3.2862 C   0  0  0  0  0  0  0  0  0  0  0  0
   -7.9177   10.9697    2.3921 C   0  0  0  0  0  0  0  0  0  0  0  0
   -8.3281   12.2747    2.4199 N   0  0  0  0  0  0  0  0  0  0  0  0
   -9.3702   12.7901    1.4627 C   0  0  0  0  0  0  0  0  0  0  0  0
  -11.7700   12.6009    2.3304 C   0  0  0  0  0  0  0  0  0  0  0  0
  -12.9022   13.1513    2.8660 N   0  0  0  0  0  0  0  0  0  0  0  0
  -12.9720   14.4589    3.1291 C   0  0  0  0  0  0  0  0  0  0  0  0
  -11.9351   15.2611    2.8711 N   0  0  0  0  0  0  0  0  0  0  0  0
  -10.7775   14.7858    2.3427 C   0  0  0  0  0  0  0  0  0  0  0  0
  -10.6412   13.4239    2.0512 C   0  0  0  0  0  0  0  0  0  0  0  0
  5  4  1  0  0  0  0
  5  6  1  0  0  0  0
  7  8  2  0  0  0  0
  7 11  1  0  0  0  0
  8  9  1  0  0  0  0
  9 10  2  0  0  0  0
  9  6  1  0  0  0  0
 10  3  1  0  0  0  0
 11 12  1  0  0  0  0
 11 10  1  0  0  0  0
 12 18  1  0  0  0  0
 13  2  1  0  0  0  0
 13 14  2  0  0  0  0
 15 14  1  0  0  0  0
 15  1  1  0  0  0  0
 16 15  2  0  0  0  0
 17 18  2  0  0  0  0
 17 16  1  0  0  0  0
 18 13  1  0  0  0  0
M  END
>  <CHROM.1>
179.22869042,-52.38395982,-58.60456535,-89.62143364,-9.07205611,12.09662055
2.90907885,-2.65508163,0.30262334,-2.76586721

>  <Name>
lig.pdb

>  <RI>
0

>  <Rbt.Current_Directory>
/home/itssahil/PROJECTS/Mol_Feturizer/New_Systems/rnas/4nyg

>  <Rbt.Executable>
rbdock ($Id: //depot/dev/client3/rdock/2013.1/src/exe/rbdock.cxx#4 $)

>  <Rbt.Library>
libRbt.so (2013.1, Build901 2013/11/27)

>  <Rbt.Parameter_File>
/export/apps/rDock/src/rDock_2013.1_src/data/scripts/dock_solv.prm

>  <Rbt.Receptor>
prm/pocket_docking_8.prm

>  <SCORE>
-19.8614

>  <SCORE.INTER>
-19.7378

>  <SCORE.INTER.CONST>
1

>  <SCORE.INTER.POLAR>
0

>  <SCORE.INTER.ROT>
4

>  <SCORE.INTER.SOLV>
14.5516

>  <SCORE.INTER.VDW>
-24.2758

>  <SCORE.INTER.norm>
-1.09655

>  <SCORE.INTRA>
-0.123537

>  <SCORE.INTRA.DIHEDRAL>
0.0303867

>  <SCORE.INTRA.DIHEDRAL.0>
3.20029

>  <SCORE.INTRA.POLAR>
0

>  <SCORE.INTRA.POLAR.0>
0

>  <SCORE.INTRA.REPUL>
0

>  <SCORE.INTRA.REPUL.0>
0

>  <SCORE.INTRA.SOLV>
0.576452

>  <SCORE.INTRA.SOLV.lig_0>
-19.3885

>  <SCORE.INTRA.VDW>
-0.426956

>  <SCORE.INTRA.VDW.0>
-1.12705

>  <SCORE.INTRA.norm>
-0.00686317

>  <SCORE.RESTR>
0

>  <SCORE.RESTR.CAVITY>
0

>  <SCORE.RESTR.norm>
0

>  <SCORE.SYSTEM>
0

>  <SCORE.SYSTEM.CONST>
0

>  <SCORE.SYSTEM.DIHEDRAL>
0

>  <SCORE.SYSTEM.SOLV>
0

>  <SCORE.SYSTEM.norm>
0

>  <SCORE.heavy>
18

>  <SCORE.norm>
-1.10341

>  <RMSD>
4.963

$$$$
lig.pdb
 OpenBabel11021811503D
libRbt.so/2013.1/901 2013/11/27
 18 19  0  0  0  0  0  0  0  0999 V2000
  -14.3195   15.7450    3.8652 C   0  0  0  0  0  0  0  0  0  0  0  0
  -12.0747   11.8007    2.1519 N   0  0  0  0  0  0  0  0  0  0  0  0
   -8.6893   10.3870    1.6568 C   0  0  0  0  0  0  0  0  0  0  0  0
   -5.7130    8.4698    5.5197 O   0  0  0  0  0  0  0  0  0  0  0  0
   -6.4170    9.6567    5.1814 C   0  0  0  0  0  0  0  0  0  0  0  0
   -6.3524    9.8996    3.6609 C   0  0  0  0  0  0  0  0  0  0  0  0
   -7.9485   13.7037    3.2260 C   0  0  0  0  0  0  0  0  0  0  0  0
   -6.7510   12.7953    4.0890 S   0  0  0  0  0  0  0  0  0  0  0  0
   -7.0658   11.2010    3.3682 C   0  0  0  0  0  0  0  0  0  0  0  0
   -8.0935   11.4965    2.5071 C   0  0  0  0  0  0  0  0  0  0  0  0
   -8.5288   12.7926    2.4555 N   0  0  0  0  0  0  0  0  0  0  0  0
   -9.6370   13.2117    1.5258 C   0  0  0  0  0  0  0  0  0  0  0  0
  -12.0337   13.1687    2.4211 C   0  0  0  0  0  0  0  0  0  0  0  0
  -13.1230   13.7862    2.9723 N   0  0  0  0  0  0  0  0  0  0  0  0
  -13.1079   15.0943    3.2415 C   0  0  0  0  0  0  0  0  0  0  0  0
  -12.0259   15.8314    2.9744 N   0  0  0  0  0  0  0  0  0  0  0  0
  -10.9065   15.2872    2.4305 C   0  0  0  0  0  0  0  0  0  0  0  0
  -10.8590   13.9209    2.1319 C   0  0  0  0  0  0  0  0  0  0  0  0
  5  4  1  0  0  0  0
  5  6  1  0  0  0  0
  7  8  2  0  0  0  0
  7 11  1  0  0  0  0
  8  9  1  0  0  0  0
  9 10  2  0  0  0  0
  9  6  1  0  0  0  0
 10  3  1  0  0  0  0
 11 12  1  0  0  0  0
 11 10  1  0  0  0  0
 12 18  1  0  0  0  0
 13  2  1  0  0  0  0
 13 14  2  0  0  0  0
 15 14  1  0  0  0  0
 15  1  1  0  0  0  0
 16 15  2  0  0  0  0
 17 18  2  0  0  0  0
 17 16  1  0  0  0  0
 18 13  1  0  0  0  0
M  END
>  <CHROM.1>
-177.67397248,54.49163431,-56.23160202,-97.73371939,-9.41130506,12.63405984
3.17737570,-2.55060448,0.26920653,-3.04956119

>  <Name>
lig.pdb

>  <RI>
0

>  <Rbt.Current_Directory>
/home/itssahil/PROJECTS/Mol_Feturizer/New_Systems/rnas/4nyg

>  <Rbt.Executable>
rbdock ($Id: //depot/dev/client3/rdock/2013.1/src/exe/rbdock.cxx#4 $)

>  <Rbt.Library>
libRbt.so (2013.1, Build901 2013/11/27)

>  <Rbt.Parameter_File>
/export/apps/rDock/src/rDock_2013.1_src/data/scripts/dock_solv.prm

>  <Rbt.Receptor>
prm/pocket_docking_6.prm

>  <SCORE>
-19.0867

>  <SCORE.INTER>
-18.9388

>  <SCORE.INTER.CONST>
1

>  <SCORE.INTER.POLAR>
0

>  <SCORE.INTER.ROT>
4

>  <SCORE.INTER.SOLV>
13.1358

>  <SCORE.INTER.VDW>
-23.2712

>  <SCORE.INTER.norm>
-1.05216

>  <SCORE.INTRA>
-0.14782

>  <SCORE.INTRA.DIHEDRAL>
0.0146143

>  <SCORE.INTRA.DIHEDRAL.0>
3.20029

>  <SCORE.INTRA.POLAR>
0

>  <SCORE.INTRA.POLAR.0>
0

>  <SCORE.INTRA.REPUL>
0

>  <SCORE.INTRA.REPUL.0>
0

>  <SCORE.INTRA.SOLV>
0.454256

>  <SCORE.INTRA.SOLV.lig_0>
-19.3885

>  <SCORE.INTRA.VDW>
-0.382255

>  <SCORE.INTRA.VDW.0>
-1.12705

>  <SCORE.INTRA.norm>
-0.00821221

>  <SCORE.RESTR>
0

>  <SCORE.RESTR.CAVITY>
0

>  <SCORE.RESTR.norm>
0

>  <SCORE.SYSTEM>
0

>  <SCORE.SYSTEM.CONST>
0

>  <SCORE.SYSTEM.DIHEDRAL>
0

>  <SCORE.SYSTEM.SOLV>
0

>  <SCORE.SYSTEM.norm>
0

>  <SCORE.heavy>
18

>  <SCORE.norm>
-1.06037

>  <RMSD>
5.058

$$$$
lig.pdb
 OpenBabel11021811503D
libRbt.so/2013.1/901 2013/11/27
 18 19  0  0  0  0  0  0  0  0999 V2000
  -14.5661   15.1755    3.8038 C   0  0  0  0  0  0  0  0  0  0  0  0
  -10.3142   16.1434    1.6784 N   0  0  0  0  0  0  0  0  0  0  0  0
   -8.9086   10.4552    1.4941 C   0  0  0  0  0  0  0  0  0  0  0  0
   -4.5050    8.4776    3.6310 O   0  0  0  0  0  0  0  0  0  0  0  0
   -5.1101    9.7118    3.2713 C   0  0  0  0  0  0  0  0  0  0  0  0
   -6.6371    9.6327    3.4635 C   0  0  0  0  0  0  0  0  0  0  0  0
   -7.8142   13.6018    3.2008 C   0  0  0  0  0  0  0  0  0  0  0  0
   -6.7212   12.5332    4.0179 S   0  0  0  0  0  0  0  0  0  0  0  0
   -7.2062   11.0148    3.2307 C   0  0  0  0  0  0  0  0  0  0  0  0
   -8.1965   11.4563    2.3884 C   0  0  0  0  0  0  0  0  0  0  0  0
   -8.4896   12.7927    2.3947 N   0  0  0  0  0  0  0  0  0  0  0  0
   -9.5466   13.3685    1.4896 C   0  0  0  0  0  0  0  0  0  0  0  0
  -11.2013   15.1928    2.1832 C   0  0  0  0  0  0  0  0  0  0  0  0
  -12.3887   15.5944    2.7315 N   0  0  0  0  0  0  0  0  0  0  0  0
  -13.2559   14.7035    3.2195 C   0  0  0  0  0  0  0  0  0  0  0  0
  -12.9803   13.3965    3.1856 N   0  0  0  0  0  0  0  0  0  0  0  0
  -11.8233   12.9234    2.6539 C   0  0  0  0  0  0  0  0  0  0  0  0
  -10.8779   13.8068    2.1211 C   0  0  0  0  0  0  0  0  0  0  0  0
  5  4  1  0  0  0  0
  5  6  1  0  0  0  0
  7  8  2  0  0  0  0
  7 11  1  0  0  0  0
  8  9  1  0  0  0  0
  9 10  2  0  0  0  0
  9  6  1  0  0  0  0
 10  3  1  0  0  0  0
 11 12  1  0  0  0  0
 11 10  1  0  0  0  0
 12 18  1  0  0  0  0
 13  2  1  0  0  0  0
 13 14  2  0  0  0  0
 15 14  1  0  0  0  0
 15  1  1  0  0  0  0
 16 15  2  0  0  0  0
 17 18  2  0  0  0  0
 17 16  1  0  0  0  0
 18 13  1  0  0  0  0
M  END
>  <CHROM.1>
173.18583919,-53.77717042,-73.97911821,110.88685409,-9.23635876,12.70609240
2.88162184,2.52852019,-0.04040450,-0.05691511

>  <Name>
lig.pdb

>  <RI>
0

>  <Rbt.Current_Directory>
/home/itssahil/PROJECTS/Mol_Feturizer/New_Systems/rnas/4nyg

>  <Rbt.Executable>
rbdock ($Id: //depot/dev/client3/rdock/2013.1/src/exe/rbdock.cxx#4 $)

>  <Rbt.Library>
libRbt.so (2013.1, Build901 2013/11/27)

>  <Rbt.Parameter_File>
/export/apps/rDock/src/rDock_2013.1_src/data/scripts/dock_solv.prm

>  <Rbt.Receptor>
prm/pocket_docking_6.prm

>  <SCORE>
-19.2965

>  <SCORE.INTER>
-19.0027

>  <SCORE.INTER.CONST>
1

>  <SCORE.INTER.POLAR>
0

>  <SCORE.INTER.ROT>
4

>  <SCORE.INTER.SOLV>
12.671

>  <SCORE.INTER.VDW>
-23.1588

>  <SCORE.INTER.norm>
-1.05571

>  <SCORE.INTRA>
-0.293801

>  <SCORE.INTRA.DIHEDRAL>
0.117771

>  <SCORE.INTRA.DIHEDRAL.0>
3.20029

>  <SCORE.INTRA.POLAR>
0

>  <SCORE.INTRA.POLAR.0>
0

>  <SCORE.INTRA.REPUL>
0

>  <SCORE.INTRA.REPUL.0>
0

>  <SCORE.INTRA.SOLV>
0.22451

>  <SCORE.INTRA.SOLV.lig_0>
-19.3885

>  <SCORE.INTRA.VDW>
-0.464942

>  <SCORE.INTRA.VDW.0>
-1.12705

>  <SCORE.INTRA.norm>
-0.0163223

>  <SCORE.RESTR>
0

>  <SCORE.RESTR.CAVITY>
0

>  <SCORE.RESTR.norm>
0

>  <SCORE.SYSTEM>
0

>  <SCORE.SYSTEM.CONST>
0

>  <SCORE.SYSTEM.DIHEDRAL>
0

>  <SCORE.SYSTEM.SOLV>
0

>  <SCORE.SYSTEM.norm>
0

>  <SCORE.heavy>
18

>  <SCORE.norm>
-1.07203

>  <RMSD>
5.079

$$$$
lig.pdb
 OpenBabel11021811503D
libRbt.so/2013.1/901 2013/11/27
 18 19  0  0  0  0  0  0  0  0999 V2000
  -14.3952   14.9794    3.7368 C   0  0  0  0  0  0  0  0  0  0  0  0
  -10.1475   15.8342    1.5553 N   0  0  0  0  0  0  0  0  0  0  0  0
   -8.6587   10.1598    1.4546 C   0  0  0  0  0  0  0  0  0  0  0  0
   -4.2682    8.2591    3.6897 O   0  0  0  0  0  0  0  0  0  0  0  0
   -4.8918    9.5035    3.4044 C   0  0  0  0  0  0  0  0  0  0  0  0
   -6.4246    9.3602    3.4756 C   0  0  0  0  0  0  0  0  0  0  0  0
   -7.7167   13.2966    3.2670 C   0  0  0  0  0  0  0  0  0  0  0  0
   -6.6167   12.2427    4.0935 S   0  0  0  0  0  0  0  0  0  0  0  0
   -7.0293   10.7294    3.2567 C   0  0  0  0  0  0  0  0  0  0  0  0
   -8.0063   11.1605    2.3937 C   0  0  0  0  0  0  0  0  0  0  0  0
   -8.3411   12.4868    2.4215 N   0  0  0  0  0  0  0  0  0  0  0  0
   -9.3871   13.0515    1.4968 C   0  0  0  0  0  0  0  0  0  0  0  0
  -11.0354   14.9110    2.1075 C   0  0  0  0  0  0  0  0  0  0  0  0
  -12.2202   15.3412    2.6394 N   0  0  0  0  0  0  0  0  0  0  0  0
  -13.0880   14.4768    3.1719 C   0  0  0  0  0  0  0  0  0  0  0  0
  -12.8155   13.1690    3.1996 N   0  0  0  0  0  0  0  0  0  0  0  0
  -11.6613   12.6681    2.6877 C   0  0  0  0  0  0  0  0  0  0  0  0
  -10.7155   13.5228    2.1106 C   0  0  0  0  0  0  0  0  0  0  0  0
  5  4  1  0  0  0  0
  5  6  1  0  0  0  0
  7  8  2  0  0  0  0
  7 11  1  0  0  0  0
  8  9  1  0  0  0  0
  9 10  2  0  0  0  0
  9  6  1  0  0  0  0
 10  3  1  0  0  0  0
 11 12  1  0  0  0  0
 11 10  1  0  0  0  0
 12 18  1  0  0  0  0
 13  2  1  0  0  0  0
 13 14  2  0  0  0  0
 15 14  1  0  0  0  0
 15  1  1  0  0  0  0
 16 15  2  0  0  0  0
 17 18  2  0  0  0  0
 17 16  1  0  0  0  0
 18 13  1  0  0  0  0
M  END
>  <CHROM.1>
176.24842147,-50.96913736,-69.88601631,112.29877289,-9.06642660,12.43721080
2.88746298,2.52831094,-0.05488333,-0.05848454

>  <Name>
lig.pdb

>  <RI>
0

>  <Rbt.Current_Directory>
/home/itssahil/PROJECTS/Mol_Feturizer/New_Systems/rnas/4nyg

>  <Rbt.Executable>
rbdock ($Id: //depot/dev/client3/rdock/2013.1/src/exe/rbdock.cxx#4 $)

>  <Rbt.Library>
libRbt.so (2013.1, Build901 2013/11/27)

>  <Rbt.Parameter_File>
/export/apps/rDock/src/rDock_2013.1_src/data/scripts/dock_solv.prm

>  <Rbt.Receptor>
prm/pocket_docking_7.prm

>  <SCORE>
-19.6629

>  <SCORE.INTER>
-19.4404

>  <SCORE.INTER.CONST>
1

>  <SCORE.INTER.POLAR>
0

>  <SCORE.INTER.ROT>
4

>  <SCORE.INTER.SOLV>
12.6919

>  <SCORE.INTER.VDW>
-23.4576

>  <SCORE.INTER.norm>
-1.08002

>  <SCORE.INTRA>
-0.222563

>  <SCORE.INTRA.DIHEDRAL>
0.0839211

>  <SCORE.INTRA.DIHEDRAL.0>
3.20029

>  <SCORE.INTRA.POLAR>
0

>  <SCORE.INTRA.POLAR.0>
0

>  <SCORE.INTRA.REPUL>
0

>  <SCORE.INTRA.REPUL.0>
0

>  <SCORE.INTRA.SOLV>
0.209602

>  <SCORE.INTRA.SOLV.lig_0>
-19.3885

>  <SCORE.INTRA.VDW>
-0.369325

>  <SCORE.INTRA.VDW.0>
-1.12705

>  <SCORE.INTRA.norm>
-0.0123646

>  <SCORE.RESTR>
0

>  <SCORE.RESTR.CAVITY>
0

>  <SCORE.RESTR.norm>
0

>  <SCORE.SYSTEM>
0

>  <SCORE.SYSTEM.CONST>
0

>  <SCORE.SYSTEM.DIHEDRAL>
0

>  <SCORE.SYSTEM.SOLV>
0

>  <SCORE.SYSTEM.norm>
0

>  <SCORE.heavy>
18

>  <SCORE.norm>
-1.09239

>  <RMSD>
5.117

$$$$
lig.pdb
 OpenBabel11021811503D
libRbt.so/2013.1/901 2013/11/27
 18 19  0  0  0  0  0  0  0  0999 V2000
   -5.7310    8.4876    4.2782 C   0  0  0  0  0  0  0  0  0  0  0  0
   -8.7281    9.7740    0.6872 N   0  0  0  0  0  0  0  0  0  0  0  0
   -9.5328   15.1596    2.6628 C   0  0  0  0  0  0  0  0  0  0  0  0
   -7.0248   18.5107   -0.3913 O   0  0  0  0  0  0  0  0  0  0  0  0
   -8.1642   18.4561    0.4560 C   0  0  0  0  0  0  0  0  0  0  0  0
   -7.8584   17.6084    1.7061 C   0  0  0  0  0  0  0  0  0  0  0  0
   -7.0616   13.8325    0.1841 C   0  0  0  0  0  0  0  0  0  0  0  0
   -6.5718   15.4927    0.0950 S   0  0  0  0  0  0  0  0  0  0  0  0
   -7.7253   16.1666    1.2679 C   0  0  0  0  0  0  0  0  0  0  0  0
   -8.4163   15.0398    1.6391 C   0  0  0  0  0  0  0  0  0  0  0  0
   -8.0544   13.8521    1.0643 N   0  0  0  0  0  0  0  0  0  0  0  0
   -8.7435   12.5629    1.4264 C   0  0  0  0  0  0  0  0  0  0  0  0
   -7.9745   10.1510    1.7987 C   0  0  0  0  0  0  0  0  0  0  0  0
   -7.2569    9.2096    2.4848 N   0  0  0  0  0  0  0  0  0  0  0  0
   -6.5258    9.5458    3.5508 C   0  0  0  0  0  0  0  0  0  0  0  0
   -6.4819   10.8125    3.9737 N   0  0  0  0  0  0  0  0  0  0  0  0
   -7.1653   11.8015    3.3413 C   0  0  0  0  0  0  0  0  0  0  0  0
   -7.9438   11.5131    2.2149 C   0  0  0  0  0  0  0  0  0  0  0  0
  5  4  1  0  0  0  0
  5  6  1  0  0  0  0
  7  8  2  0  0  0  0
  7 11  1  0  0  0  0
  8  9  1  0  0  0  0
  9 10  2  0  0  0  0
  9  6  1  0  0  0  0
 10  3  1  0  0  0  0
 11 12  1  0  0  0  0
 11 10  1  0  0  0  0
 12 18  1  0  0  0  0
 13  2  1  0  0  0  0
 13 14  2  0  0  0  0
 15 14  1  0  0  0  0
 15  1  1  0  0  0  0
 16 15  2  0  0  0  0
 17 18  2  0  0  0  0
 17 16  1  0  0  0  0
 18 13  1  0  0  0  0
M  END
>  <CHROM.1>
-69.50558438,59.32721640,67.95122556,-133.28955761,-7.53303676,13.43827715
1.67019153,-1.36778376,-1.21112114,-0.12391386

>  <Name>
lig.pdb

>  <RI>
0

>  <Rbt.Current_Directory>
/home/itssahil/PROJECTS/Mol_Feturizer/New_Systems/rnas/4nyg

>  <Rbt.Executable>
rbdock ($Id: //depot/dev/client3/rdock/2013.1/src/exe/rbdock.cxx#4 $)

>  <Rbt.Library>
libRbt.so (2013.1, Build901 2013/11/27)

>  <Rbt.Parameter_File>
/export/apps/rDock/src/rDock_2013.1_src/data/scripts/dock_solv.prm

>  <Rbt.Receptor>
prm/pocket_docking_8.prm

>  <SCORE>
-9.78566

>  <SCORE.INTER>
-9.57229

>  <SCORE.INTER.CONST>
1

>  <SCORE.INTER.POLAR>
0

>  <SCORE.INTER.ROT>
4

>  <SCORE.INTER.SOLV>
11.8665

>  <SCORE.INTER.VDW>
-16.6037

>  <SCORE.INTER.norm>
-0.531794

>  <SCORE.INTRA>
-0.213367

>  <SCORE.INTRA.DIHEDRAL>
0.283528

>  <SCORE.INTRA.DIHEDRAL.0>
3.20029

>  <SCORE.INTRA.POLAR>
0

>  <SCORE.INTRA.POLAR.0>
0

>  <SCORE.INTRA.REPUL>
0

>  <SCORE.INTRA.REPUL.0>
0

>  <SCORE.INTRA.SOLV>
0.427249

>  <SCORE.INTRA.SOLV.lig_0>
-19.3885

>  <SCORE.INTRA.VDW>
-0.568756

>  <SCORE.INTRA.VDW.0>
-1.12705

>  <SCORE.INTRA.norm>
-0.0118537

>  <SCORE.RESTR>
0

>  <SCORE.RESTR.CAVITY>
0

>  <SCORE.RESTR.norm>
0

>  <SCORE.SYSTEM>
0

>  <SCORE.SYSTEM.CONST>
0

>  <SCORE.SYSTEM.DIHEDRAL>
0

>  <SCORE.SYSTEM.SOLV>
0

>  <SCORE.SYSTEM.norm>
0

>  <SCORE.heavy>
18

>  <SCORE.norm>
-0.543648

>  <RMSD>
5.133

$$$$
lig.pdb
 OpenBabel11021811503D
libRbt.so/2013.1/901 2013/11/27
 18 19  0  0  0  0  0  0  0  0999 V2000
  -13.9116   15.1756    3.4040 C   0  0  0  0  0  0  0  0  0  0  0  0
   -9.5814   14.8311    1.2447 N   0  0  0  0  0  0  0  0  0  0  0  0
   -7.9400    9.3982    1.2593 C   0  0  0  0  0  0  0  0  0  0  0  0
   -4.1226    9.9637    2.3261 O   0  0  0  0  0  0  0  0  0  0  0  0
   -4.4286    9.2964    3.5427 C   0  0  0  0  0  0  0  0  0  0  0  0
   -5.8830    8.7872    3.5199 C   0  0  0  0  0  0  0  0  0  0  0  0
   -8.1345   12.2687    3.6539 C   0  0  0  0  0  0  0  0  0  0  0  0
   -6.9218   11.3707    4.5066 S   0  0  0  0  0  0  0  0  0  0  0  0
   -6.7934    9.9888    3.3955 C   0  0  0  0  0  0  0  0  0  0  0  0
   -7.7176   10.3296    2.4392 C   0  0  0  0  0  0  0  0  0  0  0  0
   -8.3943   11.5081    2.5982 N   0  0  0  0  0  0  0  0  0  0  0  0
   -9.4112   11.9715    1.5886 C   0  0  0  0  0  0  0  0  0  0  0  0
  -10.6399   14.1952    1.8931 C   0  0  0  0  0  0  0  0  0  0  0  0
  -11.7099   14.9284    2.3282 N   0  0  0  0  0  0  0  0  0  0  0  0
  -12.7368   14.3426    2.9497 C   0  0  0  0  0  0  0  0  0  0  0  0
  -12.7398   13.0237    3.1636 N   0  0  0  0  0  0  0  0  0  0  0  0
  -11.7143   12.2311    2.7572 C   0  0  0  0  0  0  0  0  0  0  0  0
  -10.6131   12.7853    2.0951 C   0  0  0  0  0  0  0  0  0  0  0  0
  5  4  1  0  0  0  0
  5  6  1  0  0  0  0
  7  8  2  0  0  0  0
  7 11  1  0  0  0  0
  8  9  1  0  0  0  0
  9 10  2  0  0  0  0
  9  6  1  0  0  0  0
 10  3  1  0  0  0  0
 11 12  1  0  0  0  0
 11 10  1  0  0  0  0
 12 18  1  0  0  0  0
 13  2  1  0  0  0  0
 13 14  2  0  0  0  0
 15 14  1  0  0  0  0
 15  1  1  0  0  0  0
 16 15  2  0  0  0  0
 17 18  2  0  0  0  0
 17 16  1  0  0  0  0
 18 13  1  0  0  0  0
M  END
>  <CHROM.1>
-61.95453844,-59.33134892,-33.45224401,103.63159940,-8.87529738,11.94979443
2.82386381,-3.01188203,0.58169530,-1.92313298

>  <Name>
lig.pdb

>  <RI>
0

>  <Rbt.Current_Directory>
/home/itssahil/PROJECTS/Mol_Feturizer/New_Systems/rnas/4nyg

>  <Rbt.Executable>
rbdock ($Id: //depot/dev/client3/rdock/2013.1/src/exe/rbdock.cxx#4 $)

>  <Rbt.Library>
libRbt.so (2013.1, Build901 2013/11/27)

>  <Rbt.Parameter_File>
/export/apps/rDock/src/rDock_2013.1_src/data/scripts/dock_solv.prm

>  <Rbt.Receptor>
prm/pocket_docking_7.prm

>  <SCORE>
-17.7515

>  <SCORE.INTER>
-17.7477

>  <SCORE.INTER.CONST>
1

>  <SCORE.INTER.POLAR>
0

>  <SCORE.INTER.ROT>
4

>  <SCORE.INTER.SOLV>
14.4768

>  <SCORE.INTER.VDW>
-22.9241

>  <SCORE.INTER.norm>
-0.985985

>  <SCORE.INTRA>
-0.00380154

>  <SCORE.INTRA.DIHEDRAL>
-0.00119244

>  <SCORE.INTRA.DIHEDRAL.0>
3.20029

>  <SCORE.INTRA.POLAR>
0

>  <SCORE.INTRA.POLAR.0>
0

>  <SCORE.INTRA.REPUL>
0

>  <SCORE.INTRA.REPUL.0>
0

>  <SCORE.INTRA.SOLV>
0.762509

>  <SCORE.INTRA.SOLV.lig_0>
-19.3885

>  <SCORE.INTRA.VDW>
-0.38446

>  <SCORE.INTRA.VDW.0>
-1.12705

>  <SCORE.INTRA.norm>
-0.000211197

>  <SCORE.RESTR>
0

>  <SCORE.RESTR.CAVITY>
0

>  <SCORE.RESTR.norm>
0

>  <SCORE.SYSTEM>
0

>  <SCORE.SYSTEM.CONST>
0

>  <SCORE.SYSTEM.DIHEDRAL>
0

>  <SCORE.SYSTEM.SOLV>
0

>  <SCORE.SYSTEM.norm>
0

>  <SCORE.heavy>
18

>  <SCORE.norm>
-0.986197

>  <RMSD>
5.174

$$$$
lig.pdb
 OpenBabel11021811503D
libRbt.so/2013.1/901 2013/11/27
 18 19  0  0  0  0  0  0  0  0999 V2000
  -14.5141   14.8507    3.6842 C   0  0  0  0  0  0  0  0  0  0  0  0
  -10.2733   16.2503    1.7896 N   0  0  0  0  0  0  0  0  0  0  0  0
   -6.6947   12.9531    2.8349 C   0  0  0  0  0  0  0  0  0  0  0  0
   -6.7081   10.4902    5.1468 O   0  0  0  0  0  0  0  0  0  0  0  0
   -6.3361    9.4074    4.3052 C   0  0  0  0  0  0  0  0  0  0  0  0
   -5.9486    9.9276    2.9074 C   0  0  0  0  0  0  0  0  0  0  0  0
   -9.4743   11.1486    1.0944 C   0  0  0  0  0  0  0  0  0  0  0  0
   -8.5158    9.7507    1.4563 S   0  0  0  0  0  0  0  0  0  0  0  0
   -7.1752   10.5651    2.2930 C   0  0  0  0  0  0  0  0  0  0  0  0
   -7.5743   11.8767    2.2211 C   0  0  0  0  0  0  0  0  0  0  0  0
   -8.7613   12.1483    1.5972 N   0  0  0  0  0  0  0  0  0  0  0  0
   -9.2872   13.5554    1.4894 C   0  0  0  0  0  0  0  0  0  0  0  0
  -11.1026   15.2095    2.2074 C   0  0  0  0  0  0  0  0  0  0  0  0
  -12.3371   15.4901    2.7261 N   0  0  0  0  0  0  0  0  0  0  0  0
  -13.1506   14.5112    3.1310 C   0  0  0  0  0  0  0  0  0  0  0  0
  -12.7737   13.2325    3.0410 N   0  0  0  0  0  0  0  0  0  0  0  0
  -11.5646   12.8774    2.5339 C   0  0  0  0  0  0  0  0  0  0  0  0
  -10.6710   13.8573    2.0871 C   0  0  0  0  0  0  0  0  0  0  0  0
  5  4  1  0  0  0  0
  5  6  1  0  0  0  0
  7  8  2  0  0  0  0
  7 11  1  0  0  0  0
  8  9  1  0  0  0  0
  9 10  2  0  0  0  0
  9  6  1  0  0  0  0
 10  3  1  0  0  0  0
 11 12  1  0  0  0  0
 11 10  1  0  0  0  0
 12 18  1  0  0  0  0
 13  2  1  0  0  0  0
 13 14  2  0  0  0  0
 15 14  1  0  0  0  0
 15  1  1  0  0  0  0
 16 15  2  0  0  0  0
 17 18  2  0  0  0  0
 17 16  1  0  0  0  0
 18 13  1  0  0  0  0
M  END
>  <CHROM.1>
-63.46526142,-82.05642879,57.08856853,169.43273928,-9.49442341,12.44868368
2.54630694,2.45716439,0.04068774,-0.09346334

>  <Name>
lig.pdb

>  <RI>
0

>  <Rbt.Current_Directory>
/home/itssahil/PROJECTS/Mol_Feturizer/New_Systems/rnas/4nyg

>  <Rbt.Executable>
rbdock ($Id: //depot/dev/client3/rdock/2013.1/src/exe/rbdock.cxx#4 $)

>  <Rbt.Library>
libRbt.so (2013.1, Build901 2013/11/27)

>  <Rbt.Parameter_File>
/export/apps/rDock/src/rDock_2013.1_src/data/scripts/dock_solv.prm

>  <Rbt.Receptor>
prm/pocket_docking_7.prm

>  <SCORE>
-22.0806

>  <SCORE.INTER>
-22.4729

>  <SCORE.INTER.CONST>
1

>  <SCORE.INTER.POLAR>
0

>  <SCORE.INTER.ROT>
4

>  <SCORE.INTER.SOLV>
13.2443

>  <SCORE.INTER.VDW>
-25.6633

>  <SCORE.INTER.norm>
-1.24849

>  <SCORE.INTRA>
0.392287

>  <SCORE.INTRA.DIHEDRAL>
0.770463

>  <SCORE.INTRA.DIHEDRAL.0>
3.20029

>  <SCORE.INTRA.POLAR>
0

>  <SCORE.INTRA.POLAR.0>
0

>  <SCORE.INTRA.REPUL>
0

>  <SCORE.INTRA.REPUL.0>
0

>  <SCORE.INTRA.SOLV>
0.60794

>  <SCORE.INTRA.SOLV.lig_0>
-19.3885

>  <SCORE.INTRA.VDW>
-0.296914

>  <SCORE.INTRA.VDW.0>
-1.12705

>  <SCORE.INTRA.norm>
0.0217937

>  <SCORE.RESTR>
0

>  <SCORE.RESTR.CAVITY>
0

>  <SCORE.RESTR.norm>
0

>  <SCORE.SYSTEM>
0

>  <SCORE.SYSTEM.CONST>
0

>  <SCORE.SYSTEM.DIHEDRAL>
0

>  <SCORE.SYSTEM.SOLV>
0

>  <SCORE.SYSTEM.norm>
0

>  <SCORE.heavy>
18

>  <SCORE.norm>
-1.2267

>  <RMSD>
5.205

$$$$
lig.pdb
 OpenBabel11021811503D
libRbt.so/2013.1/901 2013/11/27
 18 19  0  0  0  0  0  0  0  0999 V2000
  -14.5031   14.8483    3.6875 C   0  0  0  0  0  0  0  0  0  0  0  0
  -10.3625   16.2583    1.5900 N   0  0  0  0  0  0  0  0  0  0  0  0
   -6.6234   12.9782    2.7765 C   0  0  0  0  0  0  0  0  0  0  0  0
   -5.1265    8.6941    4.7515 O   0  0  0  0  0  0  0  0  0  0  0  0
   -6.2692    9.2898    4.1529 C   0  0  0  0  0  0  0  0  0  0  0  0
   -5.8863    9.9499    2.8140 C   0  0  0  0  0  0  0  0  0  0  0  0
   -9.4643   11.1900    1.1202 C   0  0  0  0  0  0  0  0  0  0  0  0
   -8.4996    9.7874    1.4460 S   0  0  0  0  0  0  0  0  0  0  0  0
   -7.1298   10.5940    2.2419 C   0  0  0  0  0  0  0  0  0  0  0  0
   -7.5262   11.9073    2.1875 C   0  0  0  0  0  0  0  0  0  0  0  0
   -8.7318   12.1854    1.6033 N   0  0  0  0  0  0  0  0  0  0  0  0
   -9.2557   13.5947    1.5175 C   0  0  0  0  0  0  0  0  0  0  0  0
  -11.1355   15.2239    2.1172 C   0  0  0  0  0  0  0  0  0  0  0  0
  -12.3736   15.4947    2.6324 N   0  0  0  0  0  0  0  0  0  0  0  0
  -13.1338   14.5214    3.1409 C   0  0  0  0  0  0  0  0  0  0  0  0
  -12.6988   13.2582    3.1605 N   0  0  0  0  0  0  0  0  0  0  0  0
  -11.4823   12.9132    2.6642 C   0  0  0  0  0  0  0  0  0  0  0  0
  -10.6428   13.8872    2.1124 C   0  0  0  0  0  0  0  0  0  0  0  0
  5  4  1  0  0  0  0
  5  6  1  0  0  0  0
  7  8  2  0  0  0  0
  7 11  1  0  0  0  0
  8  9  1  0  0  0  0
  9 10  2  0  0  0  0
  9  6  1  0  0  0  0
 10  3  1  0  0  0  0
 11 12  1  0  0  0  0
 11 10  1  0  0  0  0
 12 18  1  0  0  0  0
 13  2  1  0  0  0  0
 13 14  2  0  0  0  0
 15 14  1  0  0  0  0
 15  1  1  0  0  0  0
 16 15  2  0  0  0  0
 17 18  2  0  0  0  0
 17 16  1  0  0  0  0
 18 13  1  0  0  0  0
M  END
>  <CHROM.1>
-178.62959610,-75.90182613,54.74754999,176.40533426,-9.37440364,12.35500453
2.49853271,2.46339884,0.17381263,-0.28233255

>  <Name>
lig.pdb

>  <RI>
0

>  <Rbt.Current_Directory>
/home/itssahil/PROJECTS/Mol_Feturizer/New_Systems/rnas/4nyg

>  <Rbt.Executable>
rbdock ($Id: //depot/dev/client3/rdock/2013.1/src/exe/rbdock.cxx#4 $)

>  <Rbt.Library>
libRbt.so (2013.1, Build901 2013/11/27)

>  <Rbt.Parameter_File>
/export/apps/rDock/src/rDock_2013.1_src/data/scripts/dock_solv.prm

>  <Rbt.Receptor>
prm/pocket_docking_6.prm

>  <SCORE>
-21.9475

>  <SCORE.INTER>
-22.0709

>  <SCORE.INTER.CONST>
1

>  <SCORE.INTER.POLAR>
0

>  <SCORE.INTER.ROT>
4

>  <SCORE.INTER.SOLV>
13.2484

>  <SCORE.INTER.VDW>
-25.3968

>  <SCORE.INTER.norm>
-1.22616

>  <SCORE.INTRA>
0.123445

>  <SCORE.INTRA.DIHEDRAL>
0.360072

>  <SCORE.INTRA.DIHEDRAL.0>
3.20029

>  <SCORE.INTRA.POLAR>
0

>  <SCORE.INTRA.POLAR.0>
0

>  <SCORE.INTRA.REPUL>
0

>  <SCORE.INTRA.REPUL.0>
0

>  <SCORE.INTRA.SOLV>
0.0202034

>  <SCORE.INTRA.SOLV.lig_0>
-19.3885

>  <SCORE.INTRA.VDW>
-0.0666931

>  <SCORE.INTRA.VDW.0>
-1.12705

>  <SCORE.INTRA.norm>
0.00685804

>  <SCORE.RESTR>
0

>  <SCORE.RESTR.CAVITY>
0

>  <SCORE.RESTR.norm>
0

>  <SCORE.SYSTEM>
0

>  <SCORE.SYSTEM.CONST>
0

>  <SCORE.SYSTEM.DIHEDRAL>
0

>  <SCORE.SYSTEM.SOLV>
0

>  <SCORE.SYSTEM.norm>
0

>  <SCORE.heavy>
18

>  <SCORE.norm>
-1.21931

>  <RMSD>
5.218

$$$$
lig.pdb
 OpenBabel11021811503D
libRbt.so/2013.1/901 2013/11/27
 18 19  0  0  0  0  0  0  0  0999 V2000
  -14.4912   14.8233    3.7455 C   0  0  0  0  0  0  0  0  0  0  0  0
  -10.3553   16.2598    1.6565 N   0  0  0  0  0  0  0  0  0  0  0  0
   -6.6376   13.0140    2.7767 C   0  0  0  0  0  0  0  0  0  0  0  0
   -5.1360    8.5955    4.6856 O   0  0  0  0  0  0  0  0  0  0  0  0
   -6.2665    9.2457    4.1216 C   0  0  0  0  0  0  0  0  0  0  0  0
   -5.8641    9.9951    2.8365 C   0  0  0  0  0  0  0  0  0  0  0  0
   -9.4478   11.1814    1.1164 C   0  0  0  0  0  0  0  0  0  0  0  0
   -8.4680    9.7926    1.4558 S   0  0  0  0  0  0  0  0  0  0  0  0
   -7.1123   10.6205    2.2540 C   0  0  0  0  0  0  0  0  0  0  0  0
   -7.5243   11.9286    2.1895 C   0  0  0  0  0  0  0  0  0  0  0  0
   -8.7300   12.1885    1.5973 N   0  0  0  0  0  0  0  0  0  0  0  0
   -9.2705   13.5908    1.5002 C   0  0  0  0  0  0  0  0  0  0  0  0
  -11.1325   15.2169    2.1603 C   0  0  0  0  0  0  0  0  0  0  0  0
  -12.3646   15.4828    2.6925 N   0  0  0  0  0  0  0  0  0  0  0  0
  -13.1287   14.5014    3.1792 C   0  0  0  0  0  0  0  0  0  0  0  0
  -12.7037   13.2348    3.1597 N   0  0  0  0  0  0  0  0  0  0  0  0
  -11.4938   12.8945    2.6444 C   0  0  0  0  0  0  0  0  0  0  0  0
  -10.6506   13.8772    2.1138 C   0  0  0  0  0  0  0  0  0  0  0  0
  5  4  1  0  0  0  0
  5  6  1  0  0  0  0
  7  8  2  0  0  0  0
  7 11  1  0  0  0  0
  8  9  1  0  0  0  0
  9 10  2  0  0  0  0
  9  6  1  0  0  0  0
 10  3  1  0  0  0  0
 11 12  1  0  0  0  0
 11 10  1  0  0  0  0
 12 18  1  0  0  0  0
 13  2  1  0  0  0  0
 13 14  2  0  0  0  0
 15 14  1  0  0  0  0
 15  1  1  0  0  0  0
 16 15  2  0  0  0  0
 17 18  2  0  0  0  0
 17 16  1  0  0  0  0
 18 13  1  0  0  0  0
M  END
>  <CHROM.1>
177.85421360,-71.60156100,56.08942018,173.69125973,-9.36884184,12.34759683
2.50730822,2.46447971,0.18167766,-0.28117344

>  <Name>
lig.pdb

>  <RI>
0

>  <Rbt.Current_Directory>
/home/itssahil/PROJECTS/Mol_Feturizer/New_Systems/rnas/4nyg

>  <Rbt.Executable>
rbdock ($Id: //depot/dev/client3/rdock/2013.1/src/exe/rbdock.cxx#4 $)

>  <Rbt.Library>
libRbt.so (2013.1, Build901 2013/11/27)

>  <Rbt.Parameter_File>
/export/apps/rDock/src/rDock_2013.1_src/data/scripts/dock_solv.prm

>  <Rbt.Receptor>
prm/pocket_docking_7.prm

>  <SCORE>
-21.9376

>  <SCORE.INTER>
-21.9585

>  <SCORE.INTER.CONST>
1

>  <SCORE.INTER.POLAR>
0

>  <SCORE.INTER.ROT>
4

>  <SCORE.INTER.SOLV>
13.2968

>  <SCORE.INTER.VDW>
-25.3379

>  <SCORE.INTER.norm>
-1.21992

>  <SCORE.INTRA>
0.020956

>  <SCORE.INTRA.DIHEDRAL>
0.173546

>  <SCORE.INTRA.DIHEDRAL.0>
3.20029

>  <SCORE.INTRA.POLAR>
0

>  <SCORE.INTRA.POLAR.0>
0

>  <SCORE.INTRA.REPUL>
0

>  <SCORE.INTRA.REPUL.0>
0

>  <SCORE.INTRA.SOLV>
0.0161845

>  <SCORE.INTRA.SOLV.lig_0>
-19.3885

>  <SCORE.INTRA.VDW>
-0.0739095

>  <SCORE.INTRA.VDW.0>
-1.12705

>  <SCORE.INTRA.norm>
0.00116422

>  <SCORE.RESTR>
0

>  <SCORE.RESTR.CAVITY>
0

>  <SCORE.RESTR.norm>
0

>  <SCORE.SYSTEM>
0

>  <SCORE.SYSTEM.CONST>
0

>  <SCORE.SYSTEM.DIHEDRAL>
0

>  <SCORE.SYSTEM.SOLV>
0

>  <SCORE.SYSTEM.norm>
0

>  <SCORE.heavy>
18

>  <SCORE.norm>
-1.21875

>  <RMSD>
5.220

$$$$
lig.pdb
 OpenBabel11021811503D
libRbt.so/2013.1/901 2013/11/27
 18 19  0  0  0  0  0  0  0  0999 V2000
  -14.0743   14.6430    3.6138 C   0  0  0  0  0  0  0  0  0  0  0  0
   -9.8161   15.7961    1.5965 N   0  0  0  0  0  0  0  0  0  0  0  0
   -6.7452   12.8955    3.2677 C   0  0  0  0  0  0  0  0  0  0  0  0
   -7.1892   10.5143    5.7608 O   0  0  0  0  0  0  0  0  0  0  0  0
   -6.4160    9.4852    5.1591 C   0  0  0  0  0  0  0  0  0  0  0  0
   -5.7505   10.0035    3.8694 C   0  0  0  0  0  0  0  0  0  0  0  0
   -8.8356   10.6119    1.1637 C   0  0  0  0  0  0  0  0  0  0  0  0
   -7.8624    9.3809    1.8998 S   0  0  0  0  0  0  0  0  0  0  0  0
   -6.8483   10.4269    2.9186 C   0  0  0  0  0  0  0  0  0  0  0  0
   -7.3428   11.6677    2.6012 C   0  0  0  0  0  0  0  0  0  0  0  0
   -8.3647   11.7334    1.6939 N   0  0  0  0  0  0  0  0  0  0  0  0
   -8.9822   13.0498    1.3014 C   0  0  0  0  0  0  0  0  0  0  0  0
  -10.6882   14.8051    2.0468 C   0  0  0  0  0  0  0  0  0  0  0  0
  -11.8922   15.1561    2.5936 N   0  0  0  0  0  0  0  0  0  0  0  0
  -12.7455   14.2260    3.0300 C   0  0  0  0  0  0  0  0  0  0  0  0
  -12.4394   12.9281    2.9447 N   0  0  0  0  0  0  0  0  0  0  0  0
  -11.2644   12.5042    2.4110 C   0  0  0  0  0  0  0  0  0  0  0  0
  -10.3321   13.4307    1.9307 C   0  0  0  0  0  0  0  0  0  0  0  0
  5  4  1  0  0  0  0
  5  6  1  0  0  0  0
  7  8  2  0  0  0  0
  7 11  1  0  0  0  0
  8  9  1  0  0  0  0
  9 10  2  0  0  0  0
  9  6  1  0  0  0  0
 10  3  1  0  0  0  0
 11 12  1  0  0  0  0
 11 10  1  0  0  0  0
 12 18  1  0  0  0  0
 13  2  1  0  0  0  0
 13 14  2  0  0  0  0
 15 14  1  0  0  0  0
 15  1  1  0  0  0  0
 16 15  2  0  0  0  0
 17 18  2  0  0  0  0
 17 16  1  0  0  0  0
 18 13  1  0  0  0  0
M  END
>  <CHROM.1>
-60.66935024,-78.40790830,77.36002301,154.45789508,-9.18657144,12.17829321
2.75265190,2.73458157,0.59161749,-1.10543944

>  <Name>
lig.pdb

>  <RI>
0

>  <Rbt.Current_Directory>
/home/itssahil/PROJECTS/Mol_Feturizer/New_Systems/rnas/4nyg

>  <Rbt.Executable>
rbdock ($Id: //depot/dev/client3/rdock/2013.1/src/exe/rbdock.cxx#4 $)

>  <Rbt.Library>
libRbt.so (2013.1, Build901 2013/11/27)

>  <Rbt.Parameter_File>
/export/apps/rDock/src/rDock_2013.1_src/data/scripts/dock_solv.prm

>  <Rbt.Receptor>
prm/pocket_docking_8.prm

>  <SCORE>
-21.207

>  <SCORE.INTER>
-21.098

>  <SCORE.INTER.CONST>
1

>  <SCORE.INTER.POLAR>
0

>  <SCORE.INTER.ROT>
4

>  <SCORE.INTER.SOLV>
12.7463

>  <SCORE.INTER.VDW>
-24.5808

>  <SCORE.INTER.norm>
-1.17211

>  <SCORE.INTRA>
-0.108983

>  <SCORE.INTRA.DIHEDRAL>
0.563181

>  <SCORE.INTRA.DIHEDRAL.0>
3.20029

>  <SCORE.INTRA.POLAR>
0

>  <SCORE.INTRA.POLAR.0>
0

>  <SCORE.INTRA.REPUL>
0

>  <SCORE.INTRA.REPUL.0>
0

>  <SCORE.INTRA.SOLV>
0.599291

>  <SCORE.INTRA.SOLV.lig_0>
-19.3885

>  <SCORE.INTRA.VDW>
-0.690219

>  <SCORE.INTRA.VDW.0>
-1.12705

>  <SCORE.INTRA.norm>
-0.00605462

>  <SCORE.RESTR>
0

>  <SCORE.RESTR.CAVITY>
0

>  <SCORE.RESTR.norm>
0

>  <SCORE.SYSTEM>
0

>  <SCORE.SYSTEM.CONST>
0

>  <SCORE.SYSTEM.DIHEDRAL>
0

>  <SCORE.SYSTEM.SOLV>
0

>  <SCORE.SYSTEM.norm>
0

>  <SCORE.heavy>
18

>  <SCORE.norm>
-1.17816

>  <RMSD>
5.233

$$$$
lig.pdb
 OpenBabel11021811503D
libRbt.so/2013.1/901 2013/11/27
 18 19  0  0  0  0  0  0  0  0999 V2000
  -14.6195   14.8590    3.6819 C   0  0  0  0  0  0  0  0  0  0  0  0
  -10.4119   16.2438    1.7044 N   0  0  0  0  0  0  0  0  0  0  0  0
   -6.8067   12.8675    2.9407 C   0  0  0  0  0  0  0  0  0  0  0  0
   -5.2610    9.0772    5.0704 O   0  0  0  0  0  0  0  0  0  0  0  0
   -6.4008    9.6226    4.4204 C   0  0  0  0  0  0  0  0  0  0  0  0
   -6.1112    9.8292    2.9210 C   0  0  0  0  0  0  0  0  0  0  0  0
   -9.5789   11.1723    1.0826 C   0  0  0  0  0  0  0  0  0  0  0  0
   -8.6507    9.7465    1.4138 S   0  0  0  0  0  0  0  0  0  0  0  0
   -7.3145   10.5084    2.3053 C   0  0  0  0  0  0  0  0  0  0  0  0
   -7.6908   11.8284    2.2718 C   0  0  0  0  0  0  0  0  0  0  0  0
   -8.8603   12.1416    1.6345 N   0  0  0  0  0  0  0  0  0  0  0  0
   -9.3610   13.5603    1.5660 C   0  0  0  0  0  0  0  0  0  0  0  0
  -11.2163   15.2104    2.1844 C   0  0  0  0  0  0  0  0  0  0  0  0
  -12.4577   15.4918    2.6860 N   0  0  0  0  0  0  0  0  0  0  0  0
  -13.2477   14.5198    3.1494 C   0  0  0  0  0  0  0  0  0  0  0  0
  -12.8401   13.2473    3.1361 N   0  0  0  0  0  0  0  0  0  0  0  0
  -11.6224   12.8917    2.6506 C   0  0  0  0  0  0  0  0  0  0  0  0
  -10.7522   13.8641    2.1453 C   0  0  0  0  0  0  0  0  0  0  0  0
  5  4  1  0  0  0  0
  5  6  1  0  0  0  0
  7  8  2  0  0  0  0
  7 11  1  0  0  0  0
  8  9  1  0  0  0  0
  9 10  2  0  0  0  0
  9  6  1  0  0  0  0
 10  3  1  0  0  0  0
 11 12  1  0  0  0  0
 11 10  1  0  0  0  0
 12 18  1  0  0  0  0
 13  2  1  0  0  0  0
 13 14  2  0  0  0  0
 15 14  1  0  0  0  0
 15  1  1  0  0  0  0
 16 15  2  0  0  0  0
 17 18  2  0  0  0  0
 17 16  1  0  0  0  0
 18 13  1  0  0  0  0
M  END
>  <CHROM.1>
-175.65846528,-97.78842545,57.03592238,175.50029996,-9.50701282,12.36207774
2.56429443,2.45307875,0.01852704,-0.11512914

>  <Name>
lig.pdb

>  <RI>
0

>  <Rbt.Current_Directory>
/home/itssahil/PROJECTS/Mol_Feturizer/New_Systems/rnas/4nyg

>  <Rbt.Executable>
rbdock ($Id: //depot/dev/client3/rdock/2013.1/src/exe/rbdock.cxx#4 $)

>  <Rbt.Library>
libRbt.so (2013.1, Build901 2013/11/27)

>  <Rbt.Parameter_File>
/export/apps/rDock/src/rDock_2013.1_src/data/scripts/dock_solv.prm

>  <Rbt.Receptor>
prm/pocket_docking_7.prm

>  <SCORE>
-21.8685

>  <SCORE.INTER>
-22.7577

>  <SCORE.INTER.CONST>
1

>  <SCORE.INTER.POLAR>
0

>  <SCORE.INTER.ROT>
4

>  <SCORE.INTER.SOLV>
13.0234

>  <SCORE.INTER.VDW>
-25.7796

>  <SCORE.INTER.norm>
-1.26431

>  <SCORE.INTRA>
0.889113

>  <SCORE.INTRA.DIHEDRAL>
1.87334

>  <SCORE.INTRA.DIHEDRAL.0>
3.20029

>  <SCORE.INTRA.POLAR>
0

>  <SCORE.INTRA.POLAR.0>
0

>  <SCORE.INTRA.REPUL>
0

>  <SCORE.INTRA.REPUL.0>
0

>  <SCORE.INTRA.SOLV>
0.0393902

>  <SCORE.INTRA.SOLV.lig_0>
-19.3885

>  <SCORE.INTRA.VDW>
-0.0672529

>  <SCORE.INTRA.VDW.0>
-1.12705

>  <SCORE.INTRA.norm>
0.0493952

>  <SCORE.RESTR>
0

>  <SCORE.RESTR.CAVITY>
0

>  <SCORE.RESTR.norm>
0

>  <SCORE.SYSTEM>
0

>  <SCORE.SYSTEM.CONST>
0

>  <SCORE.SYSTEM.DIHEDRAL>
0

>  <SCORE.SYSTEM.SOLV>
0

>  <SCORE.SYSTEM.norm>
0

>  <SCORE.heavy>
18

>  <SCORE.norm>
-1.21492

>  <RMSD>
5.271

$$$$
lig.pdb
 OpenBabel11021811503D
libRbt.so/2013.1/901 2013/11/27
 18 19  0  0  0  0  0  0  0  0999 V2000
  -13.9593   14.5795    3.6009 C   0  0  0  0  0  0  0  0  0  0  0  0
   -9.6291   15.5380    1.6356 N   0  0  0  0  0  0  0  0  0  0  0  0
   -7.1687   12.7820    3.5788 C   0  0  0  0  0  0  0  0  0  0  0  0
   -5.7471    7.6297    3.8506 O   0  0  0  0  0  0  0  0  0  0  0  0
   -5.0753    8.8810    3.8933 C   0  0  0  0  0  0  0  0  0  0  0  0
   -6.0378    9.9868    4.3682 C   0  0  0  0  0  0  0  0  0  0  0  0
   -8.5762   10.3485    1.1072 C   0  0  0  0  0  0  0  0  0  0  0  0
   -7.6526    9.2023    2.0220 S   0  0  0  0  0  0  0  0  0  0  0  0
   -6.9633   10.3212    3.2193 C   0  0  0  0  0  0  0  0  0  0  0  0
   -7.5030   11.5152    2.8092 C   0  0  0  0  0  0  0  0  0  0  0  0
   -8.3286   11.5000    1.7182 N   0  0  0  0  0  0  0  0  0  0  0  0
   -8.9808   12.7588    1.2102 C   0  0  0  0  0  0  0  0  0  0  0  0
  -10.5667   14.5877    2.0396 C   0  0  0  0  0  0  0  0  0  0  0  0
  -11.7456   14.9925    2.6036 N   0  0  0  0  0  0  0  0  0  0  0  0
  -12.6603   14.1022    2.9966 C   0  0  0  0  0  0  0  0  0  0  0  0
  -12.4418   12.7922    2.8498 N   0  0  0  0  0  0  0  0  0  0  0  0
  -11.2968   12.3160    2.2954 C   0  0  0  0  0  0  0  0  0  0  0  0
  -10.3034   13.1994    1.8583 C   0  0  0  0  0  0  0  0  0  0  0  0
  5  4  1  0  0  0  0
  5  6  1  0  0  0  0
  7  8  2  0  0  0  0
  7 11  1  0  0  0  0
  8  9  1  0  0  0  0
  9 10  2  0  0  0  0
  9  6  1  0  0  0  0
 10  3  1  0  0  0  0
 11 12  1  0  0  0  0
 11 10  1  0  0  0  0
 12 18  1  0  0  0  0
 13  2  1  0  0  0  0
 13 14  2  0  0  0  0
 15 14  1  0  0  0  0
 15  1  1  0  0  0  0
 16 15  2  0  0  0  0
 17 18  2  0  0  0  0
 17 16  1  0  0  0  0
 18 13  1  0  0  0  0
M  END
>  <CHROM.1>
-75.51074072,36.82888517,93.90567029,143.84354809,-9.00521214,11.81894612
2.63070665,2.40098760,-0.01542358,-0.10644667

>  <Name>
lig.pdb

>  <RI>
0

>  <Rbt.Current_Directory>
/home/itssahil/PROJECTS/Mol_Feturizer/New_Systems/rnas/4nyg

>  <Rbt.Executable>
rbdock ($Id: //depot/dev/client3/rdock/2013.1/src/exe/rbdock.cxx#4 $)

>  <Rbt.Library>
libRbt.so (2013.1, Build901 2013/11/27)

>  <Rbt.Parameter_File>
/export/apps/rDock/src/rDock_2013.1_src/data/scripts/dock_solv.prm

>  <Rbt.Receptor>
prm/pocket_docking_8.prm

>  <SCORE>
-19.5316

>  <SCORE.INTER>
-20.1844

>  <SCORE.INTER.CONST>
1

>  <SCORE.INTER.POLAR>
0

>  <SCORE.INTER.ROT>
4

>  <SCORE.INTER.SOLV>
13.1513

>  <SCORE.INTER.VDW>
-24.1067

>  <SCORE.INTER.norm>
-1.12136

>  <SCORE.INTRA>
0.652847

>  <SCORE.INTRA.DIHEDRAL>
1.73174

>  <SCORE.INTRA.DIHEDRAL.0>
3.20029

>  <SCORE.INTRA.POLAR>
0

>  <SCORE.INTRA.POLAR.0>
0

>  <SCORE.INTRA.REPUL>
0

>  <SCORE.INTRA.REPUL.0>
0

>  <SCORE.INTRA.SOLV>
0.466118

>  <SCORE.INTRA.SOLV.lig_0>
-19.3885

>  <SCORE.INTRA.VDW>
-0.44608

>  <SCORE.INTRA.VDW.0>
-1.12705

>  <SCORE.INTRA.norm>
0.0362693

>  <SCORE.RESTR>
0

>  <SCORE.RESTR.CAVITY>
0

>  <SCORE.RESTR.norm>
0

>  <SCORE.SYSTEM>
0

>  <SCORE.SYSTEM.CONST>
0

>  <SCORE.SYSTEM.DIHEDRAL>
0

>  <SCORE.SYSTEM.SOLV>
0

>  <SCORE.SYSTEM.norm>
0

>  <SCORE.heavy>
18

>  <SCORE.norm>
-1.08509

>  <RMSD>
5.340

$$$$
lig.pdb
 OpenBabel11021811503D
libRbt.so/2013.1/901 2013/11/27
 18 19  0  0  0  0  0  0  0  0999 V2000
  -15.0874   16.1168    4.2087 C   0  0  0  0  0  0  0  0  0  0  0  0
  -10.3378   16.7555    3.4568 N   0  0  0  0  0  0  0  0  0  0  0  0
   -7.2703   13.2181    1.6714 C   0  0  0  0  0  0  0  0  0  0  0  0
   -6.9659   10.1853    3.8688 O   0  0  0  0  0  0  0  0  0  0  0  0
   -6.9282    9.3132    2.7476 C   0  0  0  0  0  0  0  0  0  0  0  0
   -7.1106   10.1136    1.4434 C   0  0  0  0  0  0  0  0  0  0  0  0
  -10.7952   11.9729    1.8619 C   0  0  0  0  0  0  0  0  0  0  0  0
  -10.0385   10.4236    1.6853 S   0  0  0  0  0  0  0  0  0  0  0  0
   -8.3490   10.9692    1.5935 C   0  0  0  0  0  0  0  0  0  0  0  0
   -8.5024   12.3293    1.7011 C   0  0  0  0  0  0  0  0  0  0  0  0
   -9.7730   12.8186    1.8368 N   0  0  0  0  0  0  0  0  0  0  0  0
  -10.0342   14.2947    1.9814 C   0  0  0  0  0  0  0  0  0  0  0  0
  -11.4723   15.9629    3.2838 C   0  0  0  0  0  0  0  0  0  0  0  0
  -12.6724   16.3717    3.7981 N   0  0  0  0  0  0  0  0  0  0  0  0
  -13.7735   15.6317    3.6439 C   0  0  0  0  0  0  0  0  0  0  0  0
  -13.7261   14.4706    2.9845 N   0  0  0  0  0  0  0  0  0  0  0  0
  -12.5715   14.0020    2.4437 C   0  0  0  0  0  0  0  0  0  0  0  0
  -11.3859   14.7352    2.5664 C   0  0  0  0  0  0  0  0  0  0  0  0
  5  4  1  0  0  0  0
  5  6  1  0  0  0  0
  7  8  2  0  0  0  0
  7 11  1  0  0  0  0
  8  9  1  0  0  0  0
  9 10  2  0  0  0  0
  9  6  1  0  0  0  0
 10  3  1  0  0  0  0
 11 12  1  0  0  0  0
 11 10  1  0  0  0  0
 12 18  1  0  0  0  0
 13  2  1  0  0  0  0
 13 14  2  0  0  0  0
 15 14  1  0  0  0  0
 15  1  1  0  0  0  0
 16 15  2  0  0  0  0
 17 18  2  0  0  0  0
 17 16  1  0  0  0  0
 18 13  1  0  0  0  0
M  END
>  <CHROM.1>
-51.71838490,-68.41998204,18.07965600,151.04048798,-10.31198063,13.08240148
2.55298319,2.34815140,0.05439233,0.19064597

>  <Name>
lig.pdb

>  <RI>
0

>  <Rbt.Current_Directory>
/home/itssahil/PROJECTS/Mol_Feturizer/New_Systems/rnas/4nyg

>  <Rbt.Executable>
rbdock ($Id: //depot/dev/client3/rdock/2013.1/src/exe/rbdock.cxx#4 $)

>  <Rbt.Library>
libRbt.so (2013.1, Build901 2013/11/27)

>  <Rbt.Parameter_File>
/export/apps/rDock/src/rDock_2013.1_src/data/scripts/dock_solv.prm

>  <Rbt.Receptor>
prm/blind_docking_40.prm

>  <SCORE>
-13.2241

>  <SCORE.INTER>
-15.9047

>  <SCORE.INTER.CONST>
1

>  <SCORE.INTER.POLAR>
0

>  <SCORE.INTER.ROT>
4

>  <SCORE.INTER.SOLV>
16.9538

>  <SCORE.INTER.VDW>
-22.5211

>  <SCORE.INTER.norm>
-0.883593

>  <SCORE.INTRA>
2.03368

>  <SCORE.INTRA.DIHEDRAL>
0.255683

>  <SCORE.INTRA.DIHEDRAL.0>
3.20029

>  <SCORE.INTRA.POLAR>
0

>  <SCORE.INTRA.POLAR.0>
0

>  <SCORE.INTRA.REPUL>
0

>  <SCORE.INTRA.REPUL.0>
0

>  <SCORE.INTRA.SOLV>
0.680121

>  <SCORE.INTRA.SOLV.lig_0>
-19.3885

>  <SCORE.INTRA.VDW>
1.56578

>  <SCORE.INTRA.VDW.0>
-1.12705

>  <SCORE.INTRA.norm>
0.112982

>  <SCORE.RESTR>
0.646893

>  <SCORE.RESTR.CAVITY>
0.646893

>  <SCORE.RESTR.norm>
0.0359385

>  <SCORE.SYSTEM>
0

>  <SCORE.SYSTEM.CONST>
0

>  <SCORE.SYSTEM.DIHEDRAL>
0

>  <SCORE.SYSTEM.SOLV>
0

>  <SCORE.SYSTEM.norm>
0

>  <SCORE.heavy>
18

>  <SCORE.norm>
-0.734672

>  <RMSD>
5.591

$$$$
lig.pdb
 OpenBabel11021811503D
libRbt.so/2013.1/901 2013/11/27
 18 19  0  0  0  0  0  0  0  0999 V2000
  -15.1355   16.0471    4.1282 C   0  0  0  0  0  0  0  0  0  0  0  0
  -11.1435   16.8616    1.4951 N   0  0  0  0  0  0  0  0  0  0  0  0
   -7.2652   13.1614    1.6937 C   0  0  0  0  0  0  0  0  0  0  0  0
   -6.9864   10.1148    3.8270 O   0  0  0  0  0  0  0  0  0  0  0  0
   -6.9462    9.2514    2.6992 C   0  0  0  0  0  0  0  0  0  0  0  0
   -7.1337   10.0610    1.4014 C   0  0  0  0  0  0  0  0  0  0  0  0
  -10.8018   11.9452    1.8519 C   0  0  0  0  0  0  0  0  0  0  0  0
  -10.0591   10.3930    1.6443 S   0  0  0  0  0  0  0  0  0  0  0  0
   -8.3645   10.9247    1.5670 C   0  0  0  0  0  0  0  0  0  0  0  0
   -8.5056   12.2836    1.7026 C   0  0  0  0  0  0  0  0  0  0  0  0
   -9.7718   12.7817    1.8462 N   0  0  0  0  0  0  0  0  0  0  0  0
  -10.0197   14.2568    2.0211 C   0  0  0  0  0  0  0  0  0  0  0  0
  -11.8736   15.9966    2.3100 C   0  0  0  0  0  0  0  0  0  0  0  0
  -13.0803   16.3957    2.8164 N   0  0  0  0  0  0  0  0  0  0  0  0
  -13.7993   15.5851    3.5972 C   0  0  0  0  0  0  0  0  0  0  0  0
  -13.3528   14.3638    3.9044 N   0  0  0  0  0  0  0  0  0  0  0  0
  -12.1659   13.8977    3.4360 C   0  0  0  0  0  0  0  0  0  0  0  0
  -11.3703   14.6977    2.6083 C   0  0  0  0  0  0  0  0  0  0  0  0
  5  4  1  0  0  0  0
  5  6  1  0  0  0  0
  7  8  2  0  0  0  0
  7 11  1  0  0  0  0
  8  9  1  0  0  0  0
  9 10  2  0  0  0  0
  9  6  1  0  0  0  0
 10  3  1  0  0  0  0
 11 12  1  0  0  0  0
 11 10  1  0  0  0  0
 12 18  1  0  0  0  0
 13  2  1  0  0  0  0
 13 14  2  0  0  0  0
 15 14  1  0  0  0  0
 15  1  1  0  0  0  0
 16 15  2  0  0  0  0
 17 18  2  0  0  0  0
 17 16  1  0  0  0  0
 18 13  1  0  0  0  0
M  END
>  <CHROM.1>
-50.92433672,-69.46373512,17.88118907,-154.86681511,-10.36432473,13.04525395
2.43464013,2.42516931,0.36172486,-0.19906824

>  <Name>
lig.pdb

>  <RI>
0

>  <Rbt.Current_Directory>
/home/itssahil/PROJECTS/Mol_Feturizer/New_Systems/rnas/4nyg

>  <Rbt.Executable>
rbdock ($Id: //depot/dev/client3/rdock/2013.1/src/exe/rbdock.cxx#4 $)

>  <Rbt.Library>
libRbt.so (2013.1, Build901 2013/11/27)

>  <Rbt.Parameter_File>
/export/apps/rDock/src/rDock_2013.1_src/data/scripts/dock_solv.prm

>  <Rbt.Receptor>
prm/blind_docking_40.prm

>  <SCORE>
-14.7953

>  <SCORE.INTER>
-16.7777

>  <SCORE.INTER.CONST>
1

>  <SCORE.INTER.POLAR>
0

>  <SCORE.INTER.ROT>
4

>  <SCORE.INTER.SOLV>
16.6003

>  <SCORE.INTER.VDW>
-22.9852

>  <SCORE.INTER.norm>
-0.932093

>  <SCORE.INTRA>
1.3556

>  <SCORE.INTRA.DIHEDRAL>
0.338603

>  <SCORE.INTRA.DIHEDRAL.0>
3.20029

>  <SCORE.INTRA.POLAR>
0

>  <SCORE.INTRA.POLAR.0>
0

>  <SCORE.INTRA.REPUL>
0

>  <SCORE.INTRA.REPUL.0>
0

>  <SCORE.INTRA.SOLV>
0.676857

>  <SCORE.INTRA.SOLV.lig_0>
-19.3885

>  <SCORE.INTRA.VDW>
0.847868

>  <SCORE.INTRA.VDW.0>
-1.12705

>  <SCORE.INTRA.norm>
0.075311

>  <SCORE.RESTR>
0.626769

>  <SCORE.RESTR.CAVITY>
0.626769

>  <SCORE.RESTR.norm>
0.0348205

>  <SCORE.SYSTEM>
0

>  <SCORE.SYSTEM.CONST>
0

>  <SCORE.SYSTEM.DIHEDRAL>
0

>  <SCORE.SYSTEM.SOLV>
0

>  <SCORE.SYSTEM.norm>
0

>  <SCORE.heavy>
18

>  <SCORE.norm>
-0.821962

>  <RMSD>
5.632

$$$$
lig.pdb
 OpenBabel11021811503D
libRbt.so/2013.1/901 2013/11/27
 18 19  0  0  0  0  0  0  0  0999 V2000
  -14.3877   17.1440    3.5890 C   0  0  0  0  0  0  0  0  0  0  0  0
  -10.3117   16.9312    0.9673 N   0  0  0  0  0  0  0  0  0  0  0  0
   -7.1225   12.8049    1.1919 C   0  0  0  0  0  0  0  0  0  0  0  0
   -6.6186    9.4969    3.1563 O   0  0  0  0  0  0  0  0  0  0  0  0
   -7.3770    8.8208    2.1630 C   0  0  0  0  0  0  0  0  0  0  0  0
   -7.5843    9.7329    0.9382 C   0  0  0  0  0  0  0  0  0  0  0  0
  -10.7221   12.2156    2.0327 C   0  0  0  0  0  0  0  0  0  0  0  0
  -10.3103   10.5616    1.7187 S   0  0  0  0  0  0  0  0  0  0  0  0
   -8.5945   10.7938    1.3153 C   0  0  0  0  0  0  0  0  0  0  0  0
   -8.4714   12.1546    1.4495 C   0  0  0  0  0  0  0  0  0  0  0  0
   -9.5831   12.8617    1.8184 N   0  0  0  0  0  0  0  0  0  0  0  0
   -9.5359   14.3548    2.0091 C   0  0  0  0  0  0  0  0  0  0  0  0
  -11.1511   16.3368    1.9094 C   0  0  0  0  0  0  0  0  0  0  0  0
  -12.2986   16.9740    2.2957 N   0  0  0  0  0  0  0  0  0  0  0  0
  -13.1199   16.4247    3.1943 C   0  0  0  0  0  0  0  0  0  0  0  0
  -12.8361   15.2384    3.7398 N   0  0  0  0  0  0  0  0  0  0  0  0
  -11.7171   14.5459    3.4030 C   0  0  0  0  0  0  0  0  0  0  0  0
  -10.8211   15.0662    2.4625 C   0  0  0  0  0  0  0  0  0  0  0  0
  5  4  1  0  0  0  0
  5  6  1  0  0  0  0
  7  8  2  0  0  0  0
  7 11  1  0  0  0  0
  8  9  1  0  0  0  0
  9 10  2  0  0  0  0
  9  6  1  0  0  0  0
 10  3  1  0  0  0  0
 11 12  1  0  0  0  0
 11 10  1  0  0  0  0
 12 18  1  0  0  0  0
 13  2  1  0  0  0  0
 13 14  2  0  0  0  0
 15 14  1  0  0  0  0
 15  1  1  0  0  0  0
 16 15  2  0  0  0  0
 17 18  2  0  0  0  0
 17 16  1  0  0  0  0
 18 13  1  0  0  0  0
M  END
>  <CHROM.1>
-73.23235683,-65.34480189,0.63702163,-140.94186728,-10.11239982,13.22542483
2.16358691,2.26297518,0.40444149,-0.16411011

>  <Name>
lig.pdb

>  <RI>
0

>  <Rbt.Current_Directory>
/home/itssahil/PROJECTS/Mol_Feturizer/New_Systems/rnas/4nyg

>  <Rbt.Executable>
rbdock ($Id: //depot/dev/client3/rdock/2013.1/src/exe/rbdock.cxx#4 $)

>  <Rbt.Library>
libRbt.so (2013.1, Build901 2013/11/27)

>  <Rbt.Parameter_File>
/export/apps/rDock/src/rDock_2013.1_src/data/scripts/dock_solv.prm

>  <Rbt.Receptor>
prm/blind_docking_80.prm

>  <SCORE>
-11.7962

>  <SCORE.INTER>
-13.1544

>  <SCORE.INTER.CONST>
1

>  <SCORE.INTER.POLAR>
0

>  <SCORE.INTER.ROT>
4

>  <SCORE.INTER.SOLV>
17.6241

>  <SCORE.INTER.VDW>
-20.9109

>  <SCORE.INTER.norm>
-0.730797

>  <SCORE.INTRA>
1.3018

>  <SCORE.INTRA.DIHEDRAL>
0.60716

>  <SCORE.INTRA.DIHEDRAL.0>
3.20029

>  <SCORE.INTRA.POLAR>
0

>  <SCORE.INTRA.POLAR.0>
0

>  <SCORE.INTRA.REPUL>
0

>  <SCORE.INTRA.REPUL.0>
0

>  <SCORE.INTRA.SOLV>
0.531065

>  <SCORE.INTRA.SOLV.lig_0>
-19.3885

>  <SCORE.INTRA.VDW>
0.732685

>  <SCORE.INTRA.VDW.0>
-1.12705

>  <SCORE.INTRA.norm>
0.0723221

>  <SCORE.RESTR>
0.0563315

>  <SCORE.RESTR.CAVITY>
0.0563315

>  <SCORE.RESTR.norm>
0.00312953

>  <SCORE.SYSTEM>
0

>  <SCORE.SYSTEM.CONST>
0

>  <SCORE.SYSTEM.DIHEDRAL>
0

>  <SCORE.SYSTEM.SOLV>
0

>  <SCORE.SYSTEM.norm>
0

>  <SCORE.heavy>
18

>  <SCORE.norm>
-0.655346

>  <RMSD>
5.662

$$$$
lig.pdb
 OpenBabel11021811503D
libRbt.so/2013.1/901 2013/11/27
 18 19  0  0  0  0  0  0  0  0999 V2000
  -15.1591   16.0350    4.0848 C   0  0  0  0  0  0  0  0  0  0  0  0
  -11.1478   16.8668    1.4867 N   0  0  0  0  0  0  0  0  0  0  0  0
   -7.2458   13.2132    1.6326 C   0  0  0  0  0  0  0  0  0  0  0  0
   -6.8929    8.4335    3.0580 O   0  0  0  0  0  0  0  0  0  0  0  0
   -6.5267    9.7591    2.7009 C   0  0  0  0  0  0  0  0  0  0  0  0
   -7.1008   10.1158    1.3159 C   0  0  0  0  0  0  0  0  0  0  0  0
  -10.7654   11.9683    1.9050 C   0  0  0  0  0  0  0  0  0  0  0  0
  -10.0185   10.4233    1.6620 S   0  0  0  0  0  0  0  0  0  0  0  0
   -8.3316   10.9688    1.5296 C   0  0  0  0  0  0  0  0  0  0  0  0
   -8.4784   12.3257    1.6787 C   0  0  0  0  0  0  0  0  0  0  0  0
   -9.7427   12.8129    1.8692 N   0  0  0  0  0  0  0  0  0  0  0  0
   -9.9956   14.2849    2.0620 C   0  0  0  0  0  0  0  0  0  0  0  0
  -11.8758   16.0034    2.3052 C   0  0  0  0  0  0  0  0  0  0  0  0
  -13.0936   16.3931    2.7920 N   0  0  0  0  0  0  0  0  0  0  0  0
  -13.8108   15.5837    3.5758 C   0  0  0  0  0  0  0  0  0  0  0  0
  -13.3517   14.3729    3.9051 N   0  0  0  0  0  0  0  0  0  0  0  0
  -12.1533   13.9165    3.4570 C   0  0  0  0  0  0  0  0  0  0  0  0
  -11.3588   14.7156    2.6274 C   0  0  0  0  0  0  0  0  0  0  0  0
  5  4  1  0  0  0  0
  5  6  1  0  0  0  0
  7  8  2  0  0  0  0
  7 11  1  0  0  0  0
  8  9  1  0  0  0  0
  9 10  2  0  0  0  0
  9  6  1  0  0  0  0
 10  3  1  0  0  0  0
 11 12  1  0  0  0  0
 11 10  1  0  0  0  0
 12 18  1  0  0  0  0
 13  2  1  0  0  0  0
 13 14  2  0  0  0  0
 15 14  1  0  0  0  0
 15  1  1  0  0  0  0
 16 15  2  0  0  0  0
 17 18  2  0  0  0  0
 17 16  1  0  0  0  0
 18 13  1  0  0  0  0
M  END
>  <CHROM.1>
101.28633911,-92.17059775,14.61681452,-152.94068067,-10.32266666,12.98964991
2.38167812,2.41513746,0.37519022,-0.20091380

>  <Name>
lig.pdb

>  <RI>
0

>  <Rbt.Current_Directory>
/home/itssahil/PROJECTS/Mol_Feturizer/New_Systems/rnas/4nyg

>  <Rbt.Executable>
rbdock ($Id: //depot/dev/client3/rdock/2013.1/src/exe/rbdock.cxx#4 $)

>  <Rbt.Library>
libRbt.so (2013.1, Build901 2013/11/27)

>  <Rbt.Parameter_File>
/export/apps/rDock/src/rDock_2013.1_src/data/scripts/dock_solv.prm

>  <Rbt.Receptor>
prm/blind_docking_40.prm

>  <SCORE>
-11.7255

>  <SCORE.INTER>
-15.5985

>  <SCORE.INTER.CONST>
1

>  <SCORE.INTER.POLAR>
0

>  <SCORE.INTER.ROT>
4

>  <SCORE.INTER.SOLV>
17.6003

>  <SCORE.INTER.VDW>
-22.5324

>  <SCORE.INTER.norm>
-0.866584

>  <SCORE.INTRA>
3.86345

>  <SCORE.INTRA.DIHEDRAL>
5.68053

>  <SCORE.INTRA.DIHEDRAL.0>
3.20029

>  <SCORE.INTRA.POLAR>
0

>  <SCORE.INTRA.POLAR.0>
0

>  <SCORE.INTRA.REPUL>
0

>  <SCORE.INTRA.REPUL.0>
0

>  <SCORE.INTRA.SOLV>
0.242951

>  <SCORE.INTRA.SOLV.lig_0>
-19.3885

>  <SCORE.INTRA.VDW>
0.90171

>  <SCORE.INTRA.VDW.0>
-1.12705

>  <SCORE.INTRA.norm>
0.214636

>  <SCORE.RESTR>
0.00952298

>  <SCORE.RESTR.CAVITY>
0.00952298

>  <SCORE.RESTR.norm>
0.000529054

>  <SCORE.SYSTEM>
0

>  <SCORE.SYSTEM.CONST>
0

>  <SCORE.SYSTEM.DIHEDRAL>
0

>  <SCORE.SYSTEM.SOLV>
0

>  <SCORE.SYSTEM.norm>
0

>  <SCORE.heavy>
18

>  <SCORE.norm>
-0.651419

>  <RMSD>
5.669

$$$$
lig.pdb
 OpenBabel11021811503D
libRbt.so/2013.1/901 2013/11/27
 18 19  0  0  0  0  0  0  0  0999 V2000
  -15.1463   15.9875    4.0558 C   0  0  0  0  0  0  0  0  0  0  0  0
  -11.1330   16.8646    1.4757 N   0  0  0  0  0  0  0  0  0  0  0  0
   -7.2017   13.2170    1.7958 C   0  0  0  0  0  0  0  0  0  0  0  0
   -6.8420    8.1911    3.0013 O   0  0  0  0  0  0  0  0  0  0  0  0
   -6.6652    9.5996    2.9384 C   0  0  0  0  0  0  0  0  0  0  0  0
   -7.0100   10.1175    1.5284 C   0  0  0  0  0  0  0  0  0  0  0  0
  -10.7225   11.9460    1.8141 C   0  0  0  0  0  0  0  0  0  0  0  0
   -9.9478   10.4046    1.6473 S   0  0  0  0  0  0  0  0  0  0  0  0
   -8.2598   10.9626    1.6373 C   0  0  0  0  0  0  0  0  0  0  0  0
   -8.4276   12.3198    1.7585 C   0  0  0  0  0  0  0  0  0  0  0  0
   -9.7063   12.7986    1.8461 N   0  0  0  0  0  0  0  0  0  0  0  0
   -9.9842   14.2706    2.0014 C   0  0  0  0  0  0  0  0  0  0  0  0
  -11.8623   15.9863    2.2771 C   0  0  0  0  0  0  0  0  0  0  0  0
  -13.0798   16.3681    2.7709 N   0  0  0  0  0  0  0  0  0  0  0  0
  -13.7984   15.5446    3.5386 C   0  0  0  0  0  0  0  0  0  0  0  0
  -13.3408   14.3271    3.8446 N   0  0  0  0  0  0  0  0  0  0  0  0
  -12.1428   13.8779    3.3882 C   0  0  0  0  0  0  0  0  0  0  0  0
  -11.3470   14.6920    2.5745 C   0  0  0  0  0  0  0  0  0  0  0  0
  5  4  1  0  0  0  0
  5  6  1  0  0  0  0
  7  8  2  0  0  0  0
  7 11  1  0  0  0  0
  8  9  1  0  0  0  0
  9 10  2  0  0  0  0
  9  6  1  0  0  0  0
 10  3  1  0  0  0  0
 11 12  1  0  0  0  0
 11 10  1  0  0  0  0
 12 18  1  0  0  0  0
 13  2  1  0  0  0  0
 13 14  2  0  0  0  0
 15 14  1  0  0  0  0
 15  1  1  0  0  0  0
 16 15  2  0  0  0  0
 17 18  2  0  0  0  0
 17 16  1  0  0  0  0
 18 13  1  0  0  0  0
M  END
>  <CHROM.1>
112.49668458,-83.52235233,19.94156498,-156.01027126,-10.29556734,12.94898772
2.39399777,2.40128386,0.35661282,-0.20191888

>  <Name>
lig.pdb

>  <RI>
0

>  <Rbt.Current_Directory>
/home/itssahil/PROJECTS/Mol_Feturizer/New_Systems/rnas/4nyg

>  <Rbt.Executable>
rbdock ($Id: //depot/dev/client3/rdock/2013.1/src/exe/rbdock.cxx#4 $)

>  <Rbt.Library>
libRbt.so (2013.1, Build901 2013/11/27)

>  <Rbt.Parameter_File>
/export/apps/rDock/src/rDock_2013.1_src/data/scripts/dock_solv.prm

>  <Rbt.Receptor>
prm/blind_docking_80.prm

>  <SCORE>
-12.2253

>  <SCORE.INTER>
-16.1591

>  <SCORE.INTER.CONST>
1

>  <SCORE.INTER.POLAR>
0

>  <SCORE.INTER.ROT>
4

>  <SCORE.INTER.SOLV>
17.1804

>  <SCORE.INTER.VDW>
-22.7662

>  <SCORE.INTER.norm>
-0.897725

>  <SCORE.INTRA>
3.91862

>  <SCORE.INTRA.DIHEDRAL>
6.08067

>  <SCORE.INTRA.DIHEDRAL.0>
3.20029

>  <SCORE.INTRA.POLAR>
0

>  <SCORE.INTRA.POLAR.0>
0

>  <SCORE.INTRA.REPUL>
0

>  <SCORE.INTRA.REPUL.0>
0

>  <SCORE.INTRA.SOLV>
0.202719

>  <SCORE.INTRA.SOLV.lig_0>
-19.3885

>  <SCORE.INTRA.VDW>
0.776927

>  <SCORE.INTRA.VDW.0>
-1.12705

>  <SCORE.INTRA.norm>
0.217701

>  <SCORE.RESTR>
0.0151209

>  <SCORE.RESTR.CAVITY>
0.0151209

>  <SCORE.RESTR.norm>
0.00084005

>  <SCORE.SYSTEM>
0

>  <SCORE.SYSTEM.CONST>
0

>  <SCORE.SYSTEM.DIHEDRAL>
0

>  <SCORE.SYSTEM.SOLV>
0

>  <SCORE.SYSTEM.norm>
0

>  <SCORE.heavy>
18

>  <SCORE.norm>
-0.679184

>  <RMSD>
5.677

$$$$
lig.pdb
 OpenBabel11021811503D
libRbt.so/2013.1/901 2013/11/27
 18 19  0  0  0  0  0  0  0  0999 V2000
   -6.4816   18.3937    0.2714 C   0  0  0  0  0  0  0  0  0  0  0  0
   -8.6275   16.5125    4.1942 N   0  0  0  0  0  0  0  0  0  0  0  0
   -8.2450   13.8036    2.9981 C   0  0  0  0  0  0  0  0  0  0  0  0
   -7.1407   11.8485    1.0830 O   0  0  0  0  0  0  0  0  0  0  0  0
   -7.8252   10.6323    1.3502 C   0  0  0  0  0  0  0  0  0  0  0  0
   -8.5478   10.7149    2.7089 C   0  0  0  0  0  0  0  0  0  0  0  0
  -11.8714   13.1670    2.3227 C   0  0  0  0  0  0  0  0  0  0  0  0
  -11.3590   11.5120    2.2745 S   0  0  0  0  0  0  0  0  0  0  0  0
   -9.6292   11.7666    2.5960 C   0  0  0  0  0  0  0  0  0  0  0  0
   -9.5784   13.1338    2.7108 C   0  0  0  0  0  0  0  0  0  0  0  0
  -10.7473   13.8295    2.5641 N   0  0  0  0  0  0  0  0  0  0  0  0
  -10.7894   15.3294    2.6939 C   0  0  0  0  0  0  0  0  0  0  0  0
   -8.6333   16.7020    2.8124 C   0  0  0  0  0  0  0  0  0  0  0  0
   -7.6296   17.4187    2.2201 N   0  0  0  0  0  0  0  0  0  0  0  0
   -7.6114   17.6122    0.8987 C   0  0  0  0  0  0  0  0  0  0  0  0
   -8.5780   17.1111    0.1243 N   0  0  0  0  0  0  0  0  0  0  0  0
   -9.6045   16.3867    0.6407 C   0  0  0  0  0  0  0  0  0  0  0  0
   -9.6754   16.1445    2.0171 C   0  0  0  0  0  0  0  0  0  0  0  0
  5  4  1  0  0  0  0
  5  6  1  0  0  0  0
  7  8  2  0  0  0  0
  7 11  1  0  0  0  0
  8  9  1  0  0  0  0
  9 10  2  0  0  0  0
  9  6  1  0  0  0  0
 10  3  1  0  0  0  0
 11 12  1  0  0  0  0
 11 10  1  0  0  0  0
 12 18  1  0  0  0  0
 13  2  1  0  0  0  0
 13 14  2  0  0  0  0
 15 14  1  0  0  0  0
 15  1  1  0  0  0  0
 16 15  2  0  0  0  0
 17 18  2  0  0  0  0
 17 16  1  0  0  0  0
 18 13  1  0  0  0  0
M  END
>  <CHROM.1>
65.47082254,97.77924961,-137.60938457,-104.02658862,-9.15202387,14.31682850
2.03083644,-1.23749411,-0.34427749,3.11009757

>  <Name>
lig.pdb

>  <RI>
0

>  <Rbt.Current_Directory>
/home/itssahil/PROJECTS/Mol_Feturizer/New_Systems/rnas/4nyg

>  <Rbt.Executable>
rbdock ($Id: //depot/dev/client3/rdock/2013.1/src/exe/rbdock.cxx#4 $)

>  <Rbt.Library>
libRbt.so (2013.1, Build901 2013/11/27)

>  <Rbt.Parameter_File>
/export/apps/rDock/src/rDock_2013.1_src/data/scripts/dock_solv.prm

>  <Rbt.Receptor>
prm/blind_docking_20.prm

>  <SCORE>
-10.2396

>  <SCORE.INTER>
-14.2642

>  <SCORE.INTER.CONST>
1

>  <SCORE.INTER.POLAR>
0

>  <SCORE.INTER.ROT>
4

>  <SCORE.INTER.SOLV>
12.0715

>  <SCORE.INTER.VDW>
-19.7999

>  <SCORE.INTER.norm>
-0.792454

>  <SCORE.INTRA>
3.41757

>  <SCORE.INTRA.DIHEDRAL>
1.95204

>  <SCORE.INTRA.DIHEDRAL.0>
3.20029

>  <SCORE.INTRA.POLAR>
0

>  <SCORE.INTRA.POLAR.0>
0

>  <SCORE.INTRA.REPUL>
0

>  <SCORE.INTRA.REPUL.0>
0

>  <SCORE.INTRA.SOLV>
1.57403

>  <SCORE.INTRA.SOLV.lig_0>
-19.3885

>  <SCORE.INTRA.VDW>
1.65453

>  <SCORE.INTRA.VDW.0>
-1.12705

>  <SCORE.INTRA.norm>
0.189865

>  <SCORE.RESTR>
0.606962

>  <SCORE.RESTR.CAVITY>
0.606962

>  <SCORE.RESTR.norm>
0.0337201

>  <SCORE.SYSTEM>
0

>  <SCORE.SYSTEM.CONST>
0

>  <SCORE.SYSTEM.DIHEDRAL>
0

>  <SCORE.SYSTEM.SOLV>
0

>  <SCORE.SYSTEM.norm>
0

>  <SCORE.heavy>
18

>  <SCORE.norm>
-0.568869

>  <RMSD>
5.869

$$$$
lig.pdb
 OpenBabel11021811503D
libRbt.so/2013.1/901 2013/11/27
 18 19  0  0  0  0  0  0  0  0999 V2000
   -6.5031   18.3925    0.2019 C   0  0  0  0  0  0  0  0  0  0  0  0
   -8.6134   16.5456    4.1602 N   0  0  0  0  0  0  0  0  0  0  0  0
   -8.2513   13.8096    2.9863 C   0  0  0  0  0  0  0  0  0  0  0  0
   -7.1764   11.8473    1.0593 O   0  0  0  0  0  0  0  0  0  0  0  0
   -7.8573   10.6318    1.3386 C   0  0  0  0  0  0  0  0  0  0  0  0
   -8.5720   10.7223    2.7009 C   0  0  0  0  0  0  0  0  0  0  0  0
  -11.8835   13.1923    2.3244 C   0  0  0  0  0  0  0  0  0  0  0  0
  -11.3804   11.5344    2.2758 S   0  0  0  0  0  0  0  0  0  0  0  0
   -9.6481   11.7798    2.5910 C   0  0  0  0  0  0  0  0  0  0  0  0
   -9.5893   13.1468    2.7044 C   0  0  0  0  0  0  0  0  0  0  0  0
  -10.7550   13.8488    2.5612 N   0  0  0  0  0  0  0  0  0  0  0  0
  -10.7884   15.3489    2.6897 C   0  0  0  0  0  0  0  0  0  0  0  0
   -8.6316   16.7229    2.7769 C   0  0  0  0  0  0  0  0  0  0  0  0
   -7.6333   17.4345    2.1694 N   0  0  0  0  0  0  0  0  0  0  0  0
   -7.6270   17.6164    0.8462 C   0  0  0  0  0  0  0  0  0  0  0  0
   -8.6005   17.1084    0.0849 N   0  0  0  0  0  0  0  0  0  0  0  0
   -9.6222   16.3884    0.6169 C   0  0  0  0  0  0  0  0  0  0  0  0
   -9.6807   16.1583    1.9959 C   0  0  0  0  0  0  0  0  0  0  0  0
  5  4  1  0  0  0  0
  5  6  1  0  0  0  0
  7  8  2  0  0  0  0
  7 11  1  0  0  0  0
  8  9  1  0  0  0  0
  9 10  2  0  0  0  0
  9  6  1  0  0  0  0
 10  3  1  0  0  0  0
 11 12  1  0  0  0  0
 11 10  1  0  0  0  0
 12 18  1  0  0  0  0
 13  2  1  0  0  0  0
 13 14  2  0  0  0  0
 15 14  1  0  0  0  0
 15  1  1  0  0  0  0
 16 15  2  0  0  0  0
 17 18  2  0  0  0  0
 17 16  1  0  0  0  0
 18 13  1  0  0  0  0
M  END
>  <CHROM.1>
64.99547071,97.62509080,-136.97800428,-104.63140771,-9.16614248,14.32897901
2.01021609,-1.23533838,-0.35343001,3.10710710

>  <Name>
lig.pdb

>  <RI>
0

>  <Rbt.Current_Directory>
/home/itssahil/PROJECTS/Mol_Feturizer/New_Systems/rnas/4nyg

>  <Rbt.Executable>
rbdock ($Id: //depot/dev/client3/rdock/2013.1/src/exe/rbdock.cxx#4 $)

>  <Rbt.Library>
libRbt.so (2013.1, Build901 2013/11/27)

>  <Rbt.Parameter_File>
/export/apps/rDock/src/rDock_2013.1_src/data/scripts/dock_solv.prm

>  <Rbt.Receptor>
prm/blind_docking_20.prm

>  <SCORE>
-10.4671

>  <SCORE.INTER>
-14.3642

>  <SCORE.INTER.CONST>
1

>  <SCORE.INTER.POLAR>
0

>  <SCORE.INTER.ROT>
4

>  <SCORE.INTER.SOLV>
12.0827

>  <SCORE.INTER.VDW>
-19.8703

>  <SCORE.INTER.norm>
-0.798009

>  <SCORE.INTRA>
3.2555

>  <SCORE.INTRA.DIHEDRAL>
1.92202

>  <SCORE.INTRA.DIHEDRAL.0>
3.20029

>  <SCORE.INTRA.POLAR>
0

>  <SCORE.INTRA.POLAR.0>
0

>  <SCORE.INTRA.REPUL>
0

>  <SCORE.INTRA.REPUL.0>
0

>  <SCORE.INTRA.SOLV>
1.56171

>  <SCORE.INTRA.SOLV.lig_0>
-19.3885

>  <SCORE.INTRA.VDW>
1.51363

>  <SCORE.INTRA.VDW.0>
-1.12705

>  <SCORE.INTRA.norm>
0.180861

>  <SCORE.RESTR>
0.64159

>  <SCORE.RESTR.CAVITY>
0.64159

>  <SCORE.RESTR.norm>
0.0356439

>  <SCORE.SYSTEM>
0

>  <SCORE.SYSTEM.CONST>
0

>  <SCORE.SYSTEM.DIHEDRAL>
0

>  <SCORE.SYSTEM.SOLV>
0

>  <SCORE.SYSTEM.norm>
0

>  <SCORE.heavy>
18

>  <SCORE.norm>
-0.581504

>  <RMSD>
5.880

$$$$
lig.pdb
 OpenBabel11021811503D
libRbt.so/2013.1/901 2013/11/27
 18 19  0  0  0  0  0  0  0  0999 V2000
   -9.7744   15.2829    2.5774 C   0  0  0  0  0  0  0  0  0  0  0  0
   -9.8995   17.8699   -1.5243 N   0  0  0  0  0  0  0  0  0  0  0  0
   -7.1894   20.6499   -3.4758 C   0  0  0  0  0  0  0  0  0  0  0  0
   -3.4197   19.1385   -6.5719 O   0  0  0  0  0  0  0  0  0  0  0  0
   -3.9403   18.8146   -5.2901 C   0  0  0  0  0  0  0  0  0  0  0  0
   -4.3055   20.1002   -4.5228 C   0  0  0  0  0  0  0  0  0  0  0  0
   -5.4314   18.7688   -0.7587 C   0  0  0  0  0  0  0  0  0  0  0  0
   -4.1081   18.7996   -1.8777 S   0  0  0  0  0  0  0  0  0  0  0  0
   -4.9019   19.6936   -3.1934 C   0  0  0  0  0  0  0  0  0  0  0  0
   -6.1511   19.8967   -2.6612 C   0  0  0  0  0  0  0  0  0  0  0  0
   -6.3964   19.4087   -1.4067 N   0  0  0  0  0  0  0  0  0  0  0  0
   -7.7310   19.6025   -0.7365 C   0  0  0  0  0  0  0  0  0  0  0  0
   -9.3244   17.6551   -0.2719 C   0  0  0  0  0  0  0  0  0  0  0  0
   -9.7881   16.6440    0.5248 N   0  0  0  0  0  0  0  0  0  0  0  0
   -9.2527   16.4167    1.7271 C   0  0  0  0  0  0  0  0  0  0  0  0
   -8.2514   17.1763    2.1808 N   0  0  0  0  0  0  0  0  0  0  0  0
   -7.7372   18.1956    1.4448 C   0  0  0  0  0  0  0  0  0  0  0  0
   -8.2517   18.4791    0.1748 C   0  0  0  0  0  0  0  0  0  0  0  0
  5  4  1  0  0  0  0
  5  6  1  0  0  0  0
  7  8  2  0  0  0  0
  7 11  1  0  0  0  0
  8  9  1  0  0  0  0
  9 10  2  0  0  0  0
  9  6  1  0  0  0  0
 10  3  1  0  0  0  0
 11 12  1  0  0  0  0
 11 10  1  0  0  0  0
 12 18  1  0  0  0  0
 13  2  1  0  0  0  0
 13 14  2  0  0  0  0
 15 14  1  0  0  0  0
 15  1  1  0  0  0  0
 16 15  2  0  0  0  0
 17 18  2  0  0  0  0
 17 16  1  0  0  0  0
 18 13  1  0  0  0  0
M  END
>  <CHROM.1>
177.82925513,62.89315917,-35.67055816,-106.80994071,-6.75843390,18.50263037
-1.41728144,-2.23216953,-0.03487924,-1.17530315

>  <Name>
lig.pdb

>  <RI>
0

>  <Rbt.Current_Directory>
/home/itssahil/PROJECTS/Mol_Feturizer/New_Systems/rnas/4nyg

>  <Rbt.Executable>
rbdock ($Id: //depot/dev/client3/rdock/2013.1/src/exe/rbdock.cxx#4 $)

>  <Rbt.Library>
libRbt.so (2013.1, Build901 2013/11/27)

>  <Rbt.Parameter_File>
/export/apps/rDock/src/rDock_2013.1_src/data/scripts/dock_solv.prm

>  <Rbt.Receptor>
prm/blind_docking_100.prm

>  <SCORE>
-13.4327

>  <SCORE.INTER>
-13.3653

>  <SCORE.INTER.CONST>
1

>  <SCORE.INTER.POLAR>
0

>  <SCORE.INTER.ROT>
4

>  <SCORE.INTER.SOLV>
13.0039

>  <SCORE.INTER.VDW>
-19.5115

>  <SCORE.INTER.norm>
-0.742516

>  <SCORE.INTRA>
-0.0673724

>  <SCORE.INTRA.DIHEDRAL>
0.0149114

>  <SCORE.INTRA.DIHEDRAL.0>
3.20029

>  <SCORE.INTRA.POLAR>
0

>  <SCORE.INTRA.POLAR.0>
0

>  <SCORE.INTRA.REPUL>
0

>  <SCORE.INTRA.REPUL.0>
0

>  <SCORE.INTRA.SOLV>
0.199825

>  <SCORE.INTRA.SOLV.lig_0>
-19.3885

>  <SCORE.INTRA.VDW>
-0.174741

>  <SCORE.INTRA.VDW.0>
-1.12705

>  <SCORE.INTRA.norm>
-0.00374291

>  <SCORE.RESTR>
0

>  <SCORE.RESTR.CAVITY>
0

>  <SCORE.RESTR.norm>
0

>  <SCORE.SYSTEM>
0

>  <SCORE.SYSTEM.CONST>
0

>  <SCORE.SYSTEM.DIHEDRAL>
0

>  <SCORE.SYSTEM.SOLV>
0

>  <SCORE.SYSTEM.norm>
0

>  <SCORE.heavy>
18

>  <SCORE.norm>
-0.746259

>  <RMSD>
5.974

$$$$
lig.pdb
 OpenBabel11021811503D
libRbt.so/2013.1/901 2013/11/27
 18 19  0  0  0  0  0  0  0  0999 V2000
   -5.5007    9.1280    3.6346 C   0  0  0  0  0  0  0  0  0  0  0  0
   -9.0631    9.5266    0.3662 N   0  0  0  0  0  0  0  0  0  0  0  0
   -8.6672   13.5482    0.7965 C   0  0  0  0  0  0  0  0  0  0  0  0
   -7.4872   15.8712    2.6696 O   0  0  0  0  0  0  0  0  0  0  0  0
   -8.4906   16.8693    2.5434 C   0  0  0  0  0  0  0  0  0  0  0  0
   -9.4817   16.4903    1.4258 C   0  0  0  0  0  0  0  0  0  0  0  0
  -11.8130   13.3532    2.8157 C   0  0  0  0  0  0  0  0  0  0  0  0
  -11.6821   15.0814    2.8044 S   0  0  0  0  0  0  0  0  0  0  0  0
  -10.1916   15.2222    1.8457 C   0  0  0  0  0  0  0  0  0  0  0  0
   -9.9010   13.9012    1.6102 C   0  0  0  0  0  0  0  0  0  0  0  0
  -10.7520   12.9603    2.1225 N   0  0  0  0  0  0  0  0  0  0  0  0
  -10.5228   11.4890    1.8969 C   0  0  0  0  0  0  0  0  0  0  0  0
   -8.5285    9.9147    1.5946 C   0  0  0  0  0  0  0  0  0  0  0  0
   -7.3475    9.3734    2.0237 N   0  0  0  0  0  0  0  0  0  0  0  0
   -6.8139    9.7303    3.1949 C   0  0  0  0  0  0  0  0  0  0  0  0
   -7.4255   10.6244    3.9770 N   0  0  0  0  0  0  0  0  0  0  0  0
   -8.5986   11.2064    3.6158 C   0  0  0  0  0  0  0  0  0  0  0  0
   -9.2038   10.8783    2.3976 C   0  0  0  0  0  0  0  0  0  0  0  0
  5  4  1  0  0  0  0
  5  6  1  0  0  0  0
  7  8  2  0  0  0  0
  7 11  1  0  0  0  0
  8  9  1  0  0  0  0
  9 10  2  0  0  0  0
  9  6  1  0  0  0  0
 10  3  1  0  0  0  0
 11 12  1  0  0  0  0
 11 10  1  0  0  0  0
 12 18  1  0  0  0  0
 13  2  1  0  0  0  0
 13 14  2  0  0  0  0
 15 14  1  0  0  0  0
 15  1  1  0  0  0  0
 16 15  2  0  0  0  0
 17 18  2  0  0  0  0
 17 16  1  0  0  0  0
 18 13  1  0  0  0  0
M  END
>  <CHROM.1>
64.23665643,88.53105297,-121.62153192,-139.71239180,-9.12359546,12.72706541
2.33293556,-1.11431126,-0.20951019,0.03774176

>  <Name>
lig.pdb

>  <RI>
0

>  <Rbt.Current_Directory>
/home/itssahil/PROJECTS/Mol_Feturizer/New_Systems/rnas/4nyg

>  <Rbt.Executable>
rbdock ($Id: //depot/dev/client3/rdock/2013.1/src/exe/rbdock.cxx#4 $)

>  <Rbt.Library>
libRbt.so (2013.1, Build901 2013/11/27)

>  <Rbt.Parameter_File>
/export/apps/rDock/src/rDock_2013.1_src/data/scripts/dock_solv.prm

>  <Rbt.Receptor>
prm/pocket_docking_5.prm

>  <SCORE>
-17.5744

>  <SCORE.INTER>
-17.8806

>  <SCORE.INTER.CONST>
1

>  <SCORE.INTER.POLAR>
0

>  <SCORE.INTER.ROT>
4

>  <SCORE.INTER.SOLV>
14.8169

>  <SCORE.INTER.VDW>
-23.126

>  <SCORE.INTER.norm>
-0.993366

>  <SCORE.INTRA>
0.306182

>  <SCORE.INTRA.DIHEDRAL>
1.22102

>  <SCORE.INTRA.DIHEDRAL.0>
3.20029

>  <SCORE.INTRA.POLAR>
0

>  <SCORE.INTRA.POLAR.0>
0

>  <SCORE.INTRA.REPUL>
0

>  <SCORE.INTRA.REPUL.0>
0

>  <SCORE.INTRA.SOLV>
0.834155

>  <SCORE.INTRA.SOLV.lig_0>
-19.3885

>  <SCORE.INTRA.VDW>
-0.721404

>  <SCORE.INTRA.VDW.0>
-1.12705

>  <SCORE.INTRA.norm>
0.0170101

>  <SCORE.RESTR>
6.54657e-06

>  <SCORE.RESTR.CAVITY>
6.54657e-06

>  <SCORE.RESTR.norm>
3.63698e-07

>  <SCORE.SYSTEM>
0

>  <SCORE.SYSTEM.CONST>
0

>  <SCORE.SYSTEM.DIHEDRAL>
0

>  <SCORE.SYSTEM.SOLV>
0

>  <SCORE.SYSTEM.norm>
0

>  <SCORE.heavy>
18

>  <SCORE.norm>
-0.976356

>  <RMSD>
5.991

$$$$
lig.pdb
 OpenBabel11021811503D
libRbt.so/2013.1/901 2013/11/27
 18 19  0  0  0  0  0  0  0  0999 V2000
   -4.9602   17.6963    1.4150 C   0  0  0  0  0  0  0  0  0  0  0  0
   -8.4696   15.4717    3.9184 N   0  0  0  0  0  0  0  0  0  0  0  0
   -8.8522   13.8035    0.5978 C   0  0  0  0  0  0  0  0  0  0  0  0
   -7.4238   11.6174    2.4181 O   0  0  0  0  0  0  0  0  0  0  0  0
   -8.4002   10.5862    2.4650 C   0  0  0  0  0  0  0  0  0  0  0  0
   -9.5580   10.9043    1.4989 C   0  0  0  0  0  0  0  0  0  0  0  0
  -11.6325   14.1285    3.0829 C   0  0  0  0  0  0  0  0  0  0  0  0
  -11.5198   12.3995    3.1246 S   0  0  0  0  0  0  0  0  0  0  0  0
  -10.1987   12.1975    1.9523 C   0  0  0  0  0  0  0  0  0  0  0  0
   -9.9468   13.5024    1.6078 C   0  0  0  0  0  0  0  0  0  0  0  0
  -10.7010   14.4758    2.2042 N   0  0  0  0  0  0  0  0  0  0  0  0
  -10.4806   15.9347    1.9018 C   0  0  0  0  0  0  0  0  0  0  0  0
   -8.0855   16.1669    2.7718 C   0  0  0  0  0  0  0  0  0  0  0  0
   -6.7918   16.5904    2.6348 N   0  0  0  0  0  0  0  0  0  0  0  0
   -6.3987   17.2558    1.5455 C   0  0  0  0  0  0  0  0  0  0  0  0
   -7.2642   17.5262    0.5641 N   0  0  0  0  0  0  0  0  0  0  0  0
   -8.5634   17.1348    0.6285 C   0  0  0  0  0  0  0  0  0  0  0  0
   -9.0336   16.4286    1.7413 C   0  0  0  0  0  0  0  0  0  0  0  0
  5  4  1  0  0  0  0
  5  6  1  0  0  0  0
  7  8  2  0  0  0  0
  7 11  1  0  0  0  0
  8  9  1  0  0  0  0
  9 10  2  0  0  0  0
  9  6  1  0  0  0  0
 10  3  1  0  0  0  0
 11 12  1  0  0  0  0
 11 10  1  0  0  0  0
 12 18  1  0  0  0  0
 13  2  1  0  0  0  0
 13 14  2  0  0  0  0
 15 14  1  0  0  0  0
 15  1  1  0  0  0  0
 16 15  2  0  0  0  0
 17 18  2  0  0  0  0
 17 16  1  0  0  0  0
 18 13  1  0  0  0  0
M  END
>  <CHROM.1>
-61.54804276,-88.58966974,139.35668119,-53.52287796,-8.94843760,14.46173790
2.08064971,-0.98422415,-0.17324733,3.07867940

>  <Name>
lig.pdb

>  <RI>
0

>  <Rbt.Current_Directory>
/home/itssahil/PROJECTS/Mol_Feturizer/New_Systems/rnas/4nyg

>  <Rbt.Executable>
rbdock ($Id: //depot/dev/client3/rdock/2013.1/src/exe/rbdock.cxx#4 $)

>  <Rbt.Library>
libRbt.so (2013.1, Build901 2013/11/27)

>  <Rbt.Parameter_File>
/export/apps/rDock/src/rDock_2013.1_src/data/scripts/dock_solv.prm

>  <Rbt.Receptor>
prm/blind_docking_20.prm

>  <SCORE>
-13.0093

>  <SCORE.INTER>
-15.5219

>  <SCORE.INTER.CONST>
1

>  <SCORE.INTER.POLAR>
0

>  <SCORE.INTER.ROT>
4

>  <SCORE.INTER.SOLV>
10.1253

>  <SCORE.INTER.VDW>
-19.9897

>  <SCORE.INTER.norm>
-0.862327

>  <SCORE.INTRA>
1.7412

>  <SCORE.INTRA.DIHEDRAL>
1.13063

>  <SCORE.INTRA.DIHEDRAL.0>
3.20029

>  <SCORE.INTRA.POLAR>
0

>  <SCORE.INTRA.POLAR.0>
0

>  <SCORE.INTRA.REPUL>
0

>  <SCORE.INTRA.REPUL.0>
0

>  <SCORE.INTRA.SOLV>
2.02551

>  <SCORE.INTRA.SOLV.lig_0>
-19.3885

>  <SCORE.INTRA.VDW>
0.163127

>  <SCORE.INTRA.VDW.0>
-1.12705

>  <SCORE.INTRA.norm>
0.0967333

>  <SCORE.RESTR>
0.771407

>  <SCORE.RESTR.CAVITY>
0.771407

>  <SCORE.RESTR.norm>
0.042856

>  <SCORE.SYSTEM>
0

>  <SCORE.SYSTEM.CONST>
0

>  <SCORE.SYSTEM.DIHEDRAL>
0

>  <SCORE.SYSTEM.SOLV>
0

>  <SCORE.SYSTEM.norm>
0

>  <SCORE.heavy>
18

>  <SCORE.norm>
-0.722738

>  <RMSD>
6.110

$$$$
lig.pdb
 OpenBabel11021811503D
libRbt.so/2013.1/901 2013/11/27
 18 19  0  0  0  0  0  0  0  0999 V2000
   -5.3632   17.9844    0.0255 C   0  0  0  0  0  0  0  0  0  0  0  0
   -9.1493   14.9524   -0.0472 N   0  0  0  0  0  0  0  0  0  0  0  0
   -7.8243   14.0385    3.0145 C   0  0  0  0  0  0  0  0  0  0  0  0
   -9.4405    9.7488    1.1934 O   0  0  0  0  0  0  0  0  0  0  0  0
   -8.2427   10.3179    1.7038 C   0  0  0  0  0  0  0  0  0  0  0  0
   -8.5119   10.9987    3.0599 C   0  0  0  0  0  0  0  0  0  0  0  0
  -11.5019   13.7885    2.3631 C   0  0  0  0  0  0  0  0  0  0  0  0
  -11.2011   12.0873    2.5027 S   0  0  0  0  0  0  0  0  0  0  0  0
   -9.4530   12.1582    2.8182 C   0  0  0  0  0  0  0  0  0  0  0  0
   -9.2311   13.5126    2.7838 C   0  0  0  0  0  0  0  0  0  0  0  0
  -10.3036   14.3283    2.5462 N   0  0  0  0  0  0  0  0  0  0  0  0
  -10.1573   15.8267    2.5109 C   0  0  0  0  0  0  0  0  0  0  0  0
   -8.4316   15.9415    0.6251 C   0  0  0  0  0  0  0  0  0  0  0  0
   -7.3011   16.4647    0.0594 N   0  0  0  0  0  0  0  0  0  0  0  0
   -6.5979   17.4142    0.6822 C   0  0  0  0  0  0  0  0  0  0  0  0
   -6.9826   17.8729    1.8767 N   0  0  0  0  0  0  0  0  0  0  0  0
   -8.0956   17.4036    2.4981 C   0  0  0  0  0  0  0  0  0  0  0  0
   -8.8775   16.4132    1.8932 C   0  0  0  0  0  0  0  0  0  0  0  0
  5  4  1  0  0  0  0
  5  6  1  0  0  0  0
  7  8  2  0  0  0  0
  7 11  1  0  0  0  0
  8  9  1  0  0  0  0
  9 10  2  0  0  0  0
  9  6  1  0  0  0  0
 10  3  1  0  0  0  0
 11 12  1  0  0  0  0
 11 10  1  0  0  0  0
 12 18  1  0  0  0  0
 13  2  1  0  0  0  0
 13 14  2  0  0  0  0
 15 14  1  0  0  0  0
 15  1  1  0  0  0  0
 16 15  2  0  0  0  0
 17 18  2  0  0  0  0
 17 16  1  0  0  0  0
 18 13  1  0  0  0  0
M  END
>  <CHROM.1>
-64.75609765,75.49812906,-143.84815814,48.48902601,-8.86348628,14.29209914
1.82293968,-1.09213821,-0.41874414,3.13469979

>  <Name>
lig.pdb

>  <RI>
0

>  <Rbt.Current_Directory>
/home/itssahil/PROJECTS/Mol_Feturizer/New_Systems/rnas/4nyg

>  <Rbt.Executable>
rbdock ($Id: //depot/dev/client3/rdock/2013.1/src/exe/rbdock.cxx#4 $)

>  <Rbt.Library>
libRbt.so (2013.1, Build901 2013/11/27)

>  <Rbt.Parameter_File>
/export/apps/rDock/src/rDock_2013.1_src/data/scripts/dock_solv.prm

>  <Rbt.Receptor>
prm/blind_docking_20.prm

>  <SCORE>
-11.5349

>  <SCORE.INTER>
-14.3663

>  <SCORE.INTER.CONST>
1

>  <SCORE.INTER.POLAR>
0

>  <SCORE.INTER.ROT>
4

>  <SCORE.INTER.SOLV>
10.9241

>  <SCORE.INTER.VDW>
-19.4856

>  <SCORE.INTER.norm>
-0.798126

>  <SCORE.INTRA>
1.90829

>  <SCORE.INTRA.DIHEDRAL>
0.477627

>  <SCORE.INTRA.DIHEDRAL.0>
3.20029

>  <SCORE.INTRA.POLAR>
0

>  <SCORE.INTRA.POLAR.0>
0

>  <SCORE.INTRA.REPUL>
0

>  <SCORE.INTRA.REPUL.0>
0

>  <SCORE.INTRA.SOLV>
1.99722

>  <SCORE.INTRA.SOLV.lig_0>
-19.3885

>  <SCORE.INTRA.VDW>
0.670865

>  <SCORE.INTRA.VDW.0>
-1.12705

>  <SCORE.INTRA.norm>
0.106016

>  <SCORE.RESTR>
0.92304

>  <SCORE.RESTR.CAVITY>
0.92304

>  <SCORE.RESTR.norm>
0.05128

>  <SCORE.SYSTEM>
0

>  <SCORE.SYSTEM.CONST>
0

>  <SCORE.SYSTEM.DIHEDRAL>
0

>  <SCORE.SYSTEM.SOLV>
0

>  <SCORE.SYSTEM.norm>
0

>  <SCORE.heavy>
18

>  <SCORE.norm>
-0.64083

>  <RMSD>
6.110

$$$$
lig.pdb
 OpenBabel11021811503D
libRbt.so/2013.1/901 2013/11/27
 18 19  0  0  0  0  0  0  0  0999 V2000
   -6.0447   18.0764    0.9052 C   0  0  0  0  0  0  0  0  0  0  0  0
   -9.3002   14.5462    0.2185 N   0  0  0  0  0  0  0  0  0  0  0  0
   -8.0644   13.4055    3.0103 C   0  0  0  0  0  0  0  0  0  0  0  0
   -9.2817    9.3894    0.4435 O   0  0  0  0  0  0  0  0  0  0  0  0
   -8.0921    9.8837    1.0431 C   0  0  0  0  0  0  0  0  0  0  0  0
   -8.3755   10.3490    2.4847 C   0  0  0  0  0  0  0  0  0  0  0  0
  -11.6773   12.8450    2.2073 C   0  0  0  0  0  0  0  0  0  0  0  0
  -11.1721   11.1948    2.0473 S   0  0  0  0  0  0  0  0  0  0  0  0
   -9.4489   11.4133    2.4262 C   0  0  0  0  0  0  0  0  0  0  0  0
   -9.3940   12.7678    2.6437 C   0  0  0  0  0  0  0  0  0  0  0  0
  -10.5558   13.4802    2.5229 N   0  0  0  0  0  0  0  0  0  0  0  0
  -10.5935   14.9665    2.7632 C   0  0  0  0  0  0  0  0  0  0  0  0
   -8.7897   15.5479    1.0441 C   0  0  0  0  0  0  0  0  0  0  0  0
   -7.7206   16.2931    0.6276 N   0  0  0  0  0  0  0  0  0  0  0  0
   -7.2149   17.2593    1.3987 C   0  0  0  0  0  0  0  0  0  0  0  0
   -7.7420   17.5178    2.5989 N   0  0  0  0  0  0  0  0  0  0  0  0
   -8.8058   16.8219    3.0776 C   0  0  0  0  0  0  0  0  0  0  0  0
   -9.3838   15.8018    2.3137 C   0  0  0  0  0  0  0  0  0  0  0  0
  5  4  1  0  0  0  0
  5  6  1  0  0  0  0
  7  8  2  0  0  0  0
  7 11  1  0  0  0  0
  8  9  1  0  0  0  0
  9 10  2  0  0  0  0
  9  6  1  0  0  0  0
 10  3  1  0  0  0  0
 11 12  1  0  0  0  0
 11 10  1  0  0  0  0
 12 18  1  0  0  0  0
 13  2  1  0  0  0  0
 13 14  2  0  0  0  0
 15 14  1  0  0  0  0
 15  1  1  0  0  0  0
 16 15  2  0  0  0  0
 17 18  2  0  0  0  0
 17 16  1  0  0  0  0
 18 13  1  0  0  0  0
M  END
>  <CHROM.1>
-58.11796033,71.04150449,-144.36946028,43.26061685,-9.11456957,13.73404016
1.86889742,-1.21590236,-0.40650320,-3.00759796

>  <Name>
lig.pdb

>  <RI>
0

>  <Rbt.Current_Directory>
/home/itssahil/PROJECTS/Mol_Feturizer/New_Systems/rnas/4nyg

>  <Rbt.Executable>
rbdock ($Id: //depot/dev/client3/rdock/2013.1/src/exe/rbdock.cxx#4 $)

>  <Rbt.Library>
libRbt.so (2013.1, Build901 2013/11/27)

>  <Rbt.Parameter_File>
/export/apps/rDock/src/rDock_2013.1_src/data/scripts/dock_solv.prm

>  <Rbt.Receptor>
prm/blind_docking_20.prm

>  <SCORE>
-9.10451

>  <SCORE.INTER>
-12.0095

>  <SCORE.INTER.CONST>
1

>  <SCORE.INTER.POLAR>
0

>  <SCORE.INTER.ROT>
4

>  <SCORE.INTER.SOLV>
12.5341

>  <SCORE.INTER.VDW>
-18.451

>  <SCORE.INTER.norm>
-0.667196

>  <SCORE.INTRA>
2.45227

>  <SCORE.INTRA.DIHEDRAL>
0.208161

>  <SCORE.INTRA.DIHEDRAL.0>
3.20029

>  <SCORE.INTRA.POLAR>
0

>  <SCORE.INTRA.POLAR.0>
0

>  <SCORE.INTRA.REPUL>
0

>  <SCORE.INTRA.REPUL.0>
0

>  <SCORE.INTRA.SOLV>
2.21986

>  <SCORE.INTRA.SOLV.lig_0>
-19.3885

>  <SCORE.INTRA.VDW>
1.23826

>  <SCORE.INTRA.VDW.0>
-1.12705

>  <SCORE.INTRA.norm>
0.136237

>  <SCORE.RESTR>
0.452745

>  <SCORE.RESTR.CAVITY>
0.452745

>  <SCORE.RESTR.norm>
0.0251525

>  <SCORE.SYSTEM>
0

>  <SCORE.SYSTEM.CONST>
0

>  <SCORE.SYSTEM.DIHEDRAL>
0

>  <SCORE.SYSTEM.SOLV>
0

>  <SCORE.SYSTEM.norm>
0

>  <SCORE.heavy>
18

>  <SCORE.norm>
-0.505806

>  <RMSD>
6.114

$$$$
lig.pdb
 OpenBabel11021811503D
libRbt.so/2013.1/901 2013/11/27
 18 19  0  0  0  0  0  0  0  0999 V2000
   -5.3787   17.9882    0.0067 C   0  0  0  0  0  0  0  0  0  0  0  0
   -9.1479   14.9346   -0.0261 N   0  0  0  0  0  0  0  0  0  0  0  0
   -7.8247   14.0265    3.0058 C   0  0  0  0  0  0  0  0  0  0  0  0
   -9.4885    9.7539    1.1692 O   0  0  0  0  0  0  0  0  0  0  0  0
   -8.2778   10.3064    1.6671 C   0  0  0  0  0  0  0  0  0  0  0  0
   -8.5230   10.9889    3.0269 C   0  0  0  0  0  0  0  0  0  0  0  0
  -11.5056   13.7953    2.3660 C   0  0  0  0  0  0  0  0  0  0  0  0
  -11.2103   12.0918    2.4894 S   0  0  0  0  0  0  0  0  0  0  0  0
   -9.4608   12.1537    2.7990 C   0  0  0  0  0  0  0  0  0  0  0  0
   -9.2342   13.5076    2.7758 C   0  0  0  0  0  0  0  0  0  0  0  0
  -10.3047   14.3291    2.5494 N   0  0  0  0  0  0  0  0  0  0  0  0
  -10.1532   15.8273    2.5268 C   0  0  0  0  0  0  0  0  0  0  0  0
   -8.4338   15.9340    0.6348 C   0  0  0  0  0  0  0  0  0  0  0  0
   -7.3080   16.4581    0.0608 N   0  0  0  0  0  0  0  0  0  0  0  0
   -6.6081   17.4173    0.6724 C   0  0  0  0  0  0  0  0  0  0  0  0
   -6.9919   17.8850    1.8637 N   0  0  0  0  0  0  0  0  0  0  0  0
   -8.1004   17.4154    2.4930 C   0  0  0  0  0  0  0  0  0  0  0  0
   -8.8785   16.4151    1.8997 C   0  0  0  0  0  0  0  0  0  0  0  0
  5  4  1  0  0  0  0
  5  6  1  0  0  0  0
  7  8  2  0  0  0  0
  7 11  1  0  0  0  0
  8  9  1  0  0  0  0
  9 10  2  0  0  0  0
  9  6  1  0  0  0  0
 10  3  1  0  0  0  0
 11 12  1  0  0  0  0
 11 10  1  0  0  0  0
 12 18  1  0  0  0  0
 13  2  1  0  0  0  0
 13 14  2  0  0  0  0
 15 14  1  0  0  0  0
 15  1  1  0  0  0  0
 16 15  2  0  0  0  0
 17 18  2  0  0  0  0
 17 16  1  0  0  0  0
 18 13  1  0  0  0  0
M  END
>  <CHROM.1>
-64.27501895,74.67417680,-143.38500234,47.17723862,-8.87308051,14.29112327
1.81501502,-1.08850667,-0.42884495,-3.13867198

>  <Name>
lig.pdb

>  <RI>
0

>  <Rbt.Current_Directory>
/home/itssahil/PROJECTS/Mol_Feturizer/New_Systems/rnas/4nyg

>  <Rbt.Executable>
rbdock ($Id: //depot/dev/client3/rdock/2013.1/src/exe/rbdock.cxx#4 $)

>  <Rbt.Library>
libRbt.so (2013.1, Build901 2013/11/27)

>  <Rbt.Parameter_File>
/export/apps/rDock/src/rDock_2013.1_src/data/scripts/dock_solv.prm

>  <Rbt.Receptor>
prm/blind_docking_20.prm

>  <SCORE>
-11.5599

>  <SCORE.INTER>
-14.346

>  <SCORE.INTER.CONST>
1

>  <SCORE.INTER.POLAR>
0

>  <SCORE.INTER.ROT>
4

>  <SCORE.INTER.SOLV>
10.9712

>  <SCORE.INTER.VDW>
-19.4877

>  <SCORE.INTER.norm>
-0.796999

>  <SCORE.INTRA>
1.86855

>  <SCORE.INTRA.DIHEDRAL>
0.419951

>  <SCORE.INTRA.DIHEDRAL.0>
3.20029

>  <SCORE.INTRA.POLAR>
0

>  <SCORE.INTRA.POLAR.0>
0

>  <SCORE.INTRA.REPUL>
0

>  <SCORE.INTRA.REPUL.0>
0

>  <SCORE.INTRA.SOLV>
2.03413

>  <SCORE.INTRA.SOLV.lig_0>
-19.3885

>  <SCORE.INTRA.VDW>
0.641509

>  <SCORE.INTRA.VDW.0>
-1.12705

>  <SCORE.INTRA.norm>
0.103808

>  <SCORE.RESTR>
0.917575

>  <SCORE.RESTR.CAVITY>
0.917575

>  <SCORE.RESTR.norm>
0.0509764

>  <SCORE.SYSTEM>
0

>  <SCORE.SYSTEM.CONST>
0

>  <SCORE.SYSTEM.DIHEDRAL>
0

>  <SCORE.SYSTEM.SOLV>
0

>  <SCORE.SYSTEM.norm>
0

>  <SCORE.heavy>
18

>  <SCORE.norm>
-0.642215

>  <RMSD>
6.116

$$$$
lig.pdb
 OpenBabel11021811503D
libRbt.so/2013.1/901 2013/11/27
 18 19  0  0  0  0  0  0  0  0999 V2000
   -4.8974   17.6050    1.4531 C   0  0  0  0  0  0  0  0  0  0  0  0
   -8.4221   15.4034    3.9554 N   0  0  0  0  0  0  0  0  0  0  0  0
   -8.8748   13.8204    0.6043 C   0  0  0  0  0  0  0  0  0  0  0  0
   -7.4058   11.5738    2.1527 O   0  0  0  0  0  0  0  0  0  0  0  0
   -8.4198   10.5948    2.3324 C   0  0  0  0  0  0  0  0  0  0  0  0
   -9.6336   10.9146    1.4383 C   0  0  0  0  0  0  0  0  0  0  0  0
  -11.6277   14.1399    3.1204 C   0  0  0  0  0  0  0  0  0  0  0  0
  -11.5508   12.4084    3.1177 S   0  0  0  0  0  0  0  0  0  0  0  0
  -10.2435   12.2088    1.9295 C   0  0  0  0  0  0  0  0  0  0  0  0
   -9.9673   13.5165    1.6157 C   0  0  0  0  0  0  0  0  0  0  0  0
  -10.6962   14.4900    2.2427 N   0  0  0  0  0  0  0  0  0  0  0  0
  -10.4479   15.9511    1.9752 C   0  0  0  0  0  0  0  0  0  0  0  0
   -8.0376   16.1141    2.8186 C   0  0  0  0  0  0  0  0  0  0  0  0
   -6.7369   16.5128    2.6735 N   0  0  0  0  0  0  0  0  0  0  0  0
   -6.3434   17.1925    1.5932 C   0  0  0  0  0  0  0  0  0  0  0  0
   -7.2151   17.5017    0.6289 N   0  0  0  0  0  0  0  0  0  0  0  0
   -8.5215   17.1367    0.7022 C   0  0  0  0  0  0  0  0  0  0  0  0
   -8.9928   16.4175    1.8061 C   0  0  0  0  0  0  0  0  0  0  0  0
  5  4  1  0  0  0  0
  5  6  1  0  0  0  0
  7  8  2  0  0  0  0
  7 11  1  0  0  0  0
  8  9  1  0  0  0  0
  9 10  2  0  0  0  0
  9  6  1  0  0  0  0
 10  3  1  0  0  0  0
 11 12  1  0  0  0  0
 11 10  1  0  0  0  0
 12 18  1  0  0  0  0
 13  2  1  0  0  0  0
 13 14  2  0  0  0  0
 15 14  1  0  0  0  0
 15  1  1  0  0  0  0
 16 15  2  0  0  0  0
 17 18  2  0  0  0  0
 17 16  1  0  0  0  0
 18 13  1  0  0  0  0
M  END
>  <CHROM.1>
-65.75074693,-92.10623571,139.72770471,-53.84812455,-8.93788538,14.44544842
2.08146104,-0.95659457,-0.20532020,3.12477888

>  <Name>
lig.pdb

>  <RI>
0

>  <Rbt.Current_Directory>
/home/itssahil/PROJECTS/Mol_Feturizer/New_Systems/rnas/4nyg

>  <Rbt.Executable>
rbdock ($Id: //depot/dev/client3/rdock/2013.1/src/exe/rbdock.cxx#4 $)

>  <Rbt.Library>
libRbt.so (2013.1, Build901 2013/11/27)

>  <Rbt.Parameter_File>
/export/apps/rDock/src/rDock_2013.1_src/data/scripts/dock_solv.prm

>  <Rbt.Receptor>
prm/blind_docking_20.prm

>  <SCORE>
-12.9569

>  <SCORE.INTER>
-15.7699

>  <SCORE.INTER.CONST>
1

>  <SCORE.INTER.POLAR>
0

>  <SCORE.INTER.ROT>
4

>  <SCORE.INTER.SOLV>
10.1109

>  <SCORE.INTER.VDW>
-20.1502

>  <SCORE.INTER.norm>
-0.876104

>  <SCORE.INTRA>
2.04858

>  <SCORE.INTRA.DIHEDRAL>
1.49251

>  <SCORE.INTRA.DIHEDRAL.0>
3.20029

>  <SCORE.INTRA.POLAR>
0

>  <SCORE.INTRA.POLAR.0>
0

>  <SCORE.INTRA.REPUL>
0

>  <SCORE.INTRA.REPUL.0>
0

>  <SCORE.INTRA.SOLV>
2.01108

>  <SCORE.INTRA.SOLV.lig_0>
-19.3885

>  <SCORE.INTRA.VDW>
0.296785

>  <SCORE.INTRA.VDW.0>
-1.12705

>  <SCORE.INTRA.norm>
0.11381

>  <SCORE.RESTR>
0.764423

>  <SCORE.RESTR.CAVITY>
0.764423

>  <SCORE.RESTR.norm>
0.0424679

>  <SCORE.SYSTEM>
0

>  <SCORE.SYSTEM.CONST>
0

>  <SCORE.SYSTEM.DIHEDRAL>
0

>  <SCORE.SYSTEM.SOLV>
0

>  <SCORE.SYSTEM.norm>
0

>  <SCORE.heavy>
18

>  <SCORE.norm>
-0.719826

>  <RMSD>
6.118

$$$$
lig.pdb
 OpenBabel11021811503D
libRbt.so/2013.1/901 2013/11/27
 18 19  0  0  0  0  0  0  0  0999 V2000
   -5.4649   18.4463   -0.2049 C   0  0  0  0  0  0  0  0  0  0  0  0
   -9.2474   15.4609    0.3542 N   0  0  0  0  0  0  0  0  0  0  0  0
   -7.6338   14.0328    3.0975 C   0  0  0  0  0  0  0  0  0  0  0  0
   -8.3530    9.2939    1.1161 O   0  0  0  0  0  0  0  0  0  0  0  0
   -9.0971   10.4971    1.2482 C   0  0  0  0  0  0  0  0  0  0  0  0
   -8.7764   11.1770    2.5935 C   0  0  0  0  0  0  0  0  0  0  0  0
  -11.3277   14.4474    2.6553 C   0  0  0  0  0  0  0  0  0  0  0  0
  -11.2859   12.7282    2.4395 S   0  0  0  0  0  0  0  0  0  0  0  0
   -9.5371   12.4835    2.6460 C   0  0  0  0  0  0  0  0  0  0  0  0
   -9.1120   13.7709    2.8624 C   0  0  0  0  0  0  0  0  0  0  0  0
  -10.0551   14.7622    2.8604 N   0  0  0  0  0  0  0  0  0  0  0  0
   -9.6826   16.2001    3.1090 C   0  0  0  0  0  0  0  0  0  0  0  0
   -8.3846   16.4035    0.9133 C   0  0  0  0  0  0  0  0  0  0  0  0
   -7.3855   16.9464    0.1525 N   0  0  0  0  0  0  0  0  0  0  0  0
   -6.5480   17.8523    0.6639 C   0  0  0  0  0  0  0  0  0  0  0  0
   -6.6660   18.2470    1.9350 N   0  0  0  0  0  0  0  0  0  0  0  0
   -7.6352   17.7546    2.7495 C   0  0  0  0  0  0  0  0  0  0  0  0
   -8.5469   16.8076    2.2696 C   0  0  0  0  0  0  0  0  0  0  0  0
  5  4  1  0  0  0  0
  5  6  1  0  0  0  0
  7  8  2  0  0  0  0
  7 11  1  0  0  0  0
  8  9  1  0  0  0  0
  9 10  2  0  0  0  0
  9  6  1  0  0  0  0
 10  3  1  0  0  0  0
 11 12  1  0  0  0  0
 11 10  1  0  0  0  0
 12 18  1  0  0  0  0
 13  2  1  0  0  0  0
 13 14  2  0  0  0  0
 15 14  1  0  0  0  0
 15  1  1  0  0  0  0
 16 15  2  0  0  0  0
 17 18  2  0  0  0  0
 17 16  1  0  0  0  0
 18 13  1  0  0  0  0
M  END
>  <CHROM.1>
177.02848181,55.04066842,-129.33252675,34.81106759,-8.76376745,14.64002170
1.88330573,-1.10128968,-0.52823351,-3.04595011

>  <Name>
lig.pdb

>  <RI>
0

>  <Rbt.Current_Directory>
/home/itssahil/PROJECTS/Mol_Feturizer/New_Systems/rnas/4nyg

>  <Rbt.Executable>
rbdock ($Id: //depot/dev/client3/rdock/2013.1/src/exe/rbdock.cxx#4 $)

>  <Rbt.Library>
libRbt.so (2013.1, Build901 2013/11/27)

>  <Rbt.Parameter_File>
/export/apps/rDock/src/rDock_2013.1_src/data/scripts/dock_solv.prm

>  <Rbt.Receptor>
prm/blind_docking_60.prm

>  <SCORE>
-14.4978

>  <SCORE.INTER>
-14.9404

>  <SCORE.INTER.CONST>
1

>  <SCORE.INTER.POLAR>
0

>  <SCORE.INTER.ROT>
4

>  <SCORE.INTER.SOLV>
12.0604

>  <SCORE.INTER.VDW>
-20.2471

>  <SCORE.INTER.norm>
-0.830023

>  <SCORE.INTRA>
0.442596

>  <SCORE.INTRA.DIHEDRAL>
0.0313233

>  <SCORE.INTRA.DIHEDRAL.0>
3.20029

>  <SCORE.INTRA.POLAR>
0

>  <SCORE.INTRA.POLAR.0>
0

>  <SCORE.INTRA.REPUL>
0

>  <SCORE.INTRA.REPUL.0>
0

>  <SCORE.INTRA.SOLV>
1.70105

>  <SCORE.INTRA.SOLV.lig_0>
-19.3885

>  <SCORE.INTRA.VDW>
-0.423589

>  <SCORE.INTRA.VDW.0>
-1.12705

>  <SCORE.INTRA.norm>
0.0245887

>  <SCORE.RESTR>
0

>  <SCORE.RESTR.CAVITY>
0

>  <SCORE.RESTR.norm>
0

>  <SCORE.SYSTEM>
0

>  <SCORE.SYSTEM.CONST>
0

>  <SCORE.SYSTEM.DIHEDRAL>
0

>  <SCORE.SYSTEM.SOLV>
0

>  <SCORE.SYSTEM.norm>
0

>  <SCORE.heavy>
18

>  <SCORE.norm>
-0.805434

>  <RMSD>
6.126

$$$$
lig.pdb
 OpenBabel11021811503D
libRbt.so/2013.1/901 2013/11/27
 18 19  0  0  0  0  0  0  0  0999 V2000
   -6.4449   18.2089    0.2520 C   0  0  0  0  0  0  0  0  0  0  0  0
   -8.1550   15.9802    4.2068 N   0  0  0  0  0  0  0  0  0  0  0  0
   -8.3443   13.4254    1.9907 C   0  0  0  0  0  0  0  0  0  0  0  0
   -7.4095    9.0362    2.0151 O   0  0  0  0  0  0  0  0  0  0  0  0
   -8.1285   10.2227    2.3223 C   0  0  0  0  0  0  0  0  0  0  0  0
   -9.1641   10.5186    1.2201 C   0  0  0  0  0  0  0  0  0  0  0  0
  -12.0400   13.2006    2.5410 C   0  0  0  0  0  0  0  0  0  0  0  0
  -11.8151   11.5745    1.9849 S   0  0  0  0  0  0  0  0  0  0  0  0
  -10.0593   11.6344    1.7121 C   0  0  0  0  0  0  0  0  0  0  0  0
   -9.7784   12.9295    2.0708 C   0  0  0  0  0  0  0  0  0  0  0  0
  -10.8173   13.7137    2.4923 N   0  0  0  0  0  0  0  0  0  0  0  0
  -10.5990   15.1398    2.9241 C   0  0  0  0  0  0  0  0  0  0  0  0
   -8.3427   16.3456    2.8739 C   0  0  0  0  0  0  0  0  0  0  0  0
   -7.3786   17.0669    2.2244 N   0  0  0  0  0  0  0  0  0  0  0  0
   -7.5337   17.4270    0.9476 C   0  0  0  0  0  0  0  0  0  0  0  0
   -8.6390   17.0922    0.2757 N   0  0  0  0  0  0  0  0  0  0  0  0
   -9.6371   16.3744    0.8534 C   0  0  0  0  0  0  0  0  0  0  0  0
   -9.5301   15.9624    2.1864 C   0  0  0  0  0  0  0  0  0  0  0  0
  5  4  1  0  0  0  0
  5  6  1  0  0  0  0
  7  8  2  0  0  0  0
  7 11  1  0  0  0  0
  8  9  1  0  0  0  0
  9 10  2  0  0  0  0
  9  6  1  0  0  0  0
 10  3  1  0  0  0  0
 11 12  1  0  0  0  0
 11 10  1  0  0  0  0
 12 18  1  0  0  0  0
 13  2  1  0  0  0  0
 13 14  2  0  0  0  0
 15 14  1  0  0  0  0
 15  1  1  0  0  0  0
 16 15  2  0  0  0  0
 17 18  2  0  0  0  0
 17 16  1  0  0  0  0
 18 13  1  0  0  0  0
M  END
>  <CHROM.1>
170.02069690,-118.53849569,-145.61490293,-111.58917739,-9.25042392,13.97623754
1.94768933,-1.27488786,-0.16137846,3.10724534

>  <Name>
lig.pdb

>  <RI>
0

>  <Rbt.Current_Directory>
/home/itssahil/PROJECTS/Mol_Feturizer/New_Systems/rnas/4nyg

>  <Rbt.Executable>
rbdock ($Id: //depot/dev/client3/rdock/2013.1/src/exe/rbdock.cxx#4 $)

>  <Rbt.Library>
libRbt.so (2013.1, Build901 2013/11/27)

>  <Rbt.Parameter_File>
/export/apps/rDock/src/rDock_2013.1_src/data/scripts/dock_solv.prm

>  <Rbt.Receptor>
prm/blind_docking_20.prm

>  <SCORE>
-13.7651

>  <SCORE.INTER>
-18.2941

>  <SCORE.INTER.CONST>
1

>  <SCORE.INTER.POLAR>
0

>  <SCORE.INTER.ROT>
4

>  <SCORE.INTER.SOLV>
13.3226

>  <SCORE.INTER.VDW>
-22.9036

>  <SCORE.INTER.norm>
-1.01634

>  <SCORE.INTRA>
4.05576

>  <SCORE.INTRA.DIHEDRAL>
3.04059

>  <SCORE.INTRA.DIHEDRAL.0>
3.20029

>  <SCORE.INTRA.POLAR>
0

>  <SCORE.INTRA.POLAR.0>
0

>  <SCORE.INTRA.REPUL>
0

>  <SCORE.INTRA.REPUL.0>
0

>  <SCORE.INTRA.SOLV>
0.84987

>  <SCORE.INTRA.SOLV.lig_0>
-19.3885

>  <SCORE.INTRA.VDW>
2.11053

>  <SCORE.INTRA.VDW.0>
-1.12705

>  <SCORE.INTRA.norm>
0.22532

>  <SCORE.RESTR>
0.473246

>  <SCORE.RESTR.CAVITY>
0.473246

>  <SCORE.RESTR.norm>
0.0262914

>  <SCORE.SYSTEM>
0

>  <SCORE.SYSTEM.CONST>
0

>  <SCORE.SYSTEM.DIHEDRAL>
0

>  <SCORE.SYSTEM.SOLV>
0

>  <SCORE.SYSTEM.norm>
0

>  <SCORE.heavy>
18

>  <SCORE.norm>
-0.76473

>  <RMSD>
6.189

$$$$
lig.pdb
 OpenBabel11021811503D
libRbt.so/2013.1/901 2013/11/27
 18 19  0  0  0  0  0  0  0  0999 V2000
   -6.5195   18.7052   -0.1834 C   0  0  0  0  0  0  0  0  0  0  0  0
   -8.2242   17.1483    4.0830 N   0  0  0  0  0  0  0  0  0  0  0  0
   -7.8831   13.9594    3.0551 C   0  0  0  0  0  0  0  0  0  0  0  0
   -9.5950    9.5027    1.1085 O   0  0  0  0  0  0  0  0  0  0  0  0
   -8.3647   10.1920    1.2825 C   0  0  0  0  0  0  0  0  0  0  0  0
   -8.3411   10.9031    2.6495 C   0  0  0  0  0  0  0  0  0  0  0  0
  -11.5549   13.5202    2.4751 C   0  0  0  0  0  0  0  0  0  0  0  0
  -11.1235   11.8469    2.3419 S   0  0  0  0  0  0  0  0  0  0  0  0
   -9.3744   12.0074    2.6160 C   0  0  0  0  0  0  0  0  0  0  0  0
   -9.2550   13.3647    2.7851 C   0  0  0  0  0  0  0  0  0  0  0  0
  -10.3937   14.1192    2.7060 N   0  0  0  0  0  0  0  0  0  0  0  0
  -10.3604   15.6125    2.8986 C   0  0  0  0  0  0  0  0  0  0  0  0
   -8.3369   17.1651    2.6929 C   0  0  0  0  0  0  0  0  0  0  0  0
   -7.4440   17.8849    1.9469 N   0  0  0  0  0  0  0  0  0  0  0  0
   -7.5293   17.9151    0.6144 C   0  0  0  0  0  0  0  0  0  0  0  0
   -8.4938   17.2433   -0.0211 N   0  0  0  0  0  0  0  0  0  0  0  0
   -9.4135   16.5046    0.6525 C   0  0  0  0  0  0  0  0  0  0  0  0
   -9.3725   16.4286    2.0491 C   0  0  0  0  0  0  0  0  0  0  0  0
  5  4  1  0  0  0  0
  5  6  1  0  0  0  0
  7  8  2  0  0  0  0
  7 11  1  0  0  0  0
  8  9  1  0  0  0  0
  9 10  2  0  0  0  0
  9  6  1  0  0  0  0
 10  3  1  0  0  0  0
 11 12  1  0  0  0  0
 11 10  1  0  0  0  0
 12 18  1  0  0  0  0
 13  2  1  0  0  0  0
 13 14  2  0  0  0  0
 15 14  1  0  0  0  0
 15  1  1  0  0  0  0
 16 15  2  0  0  0  0
 17 18  2  0  0  0  0
 17 16  1  0  0  0  0
 18 13  1  0  0  0  0
M  END
>  <CHROM.1>
-67.20443085,59.71563042,-128.18591663,-117.54169944,-9.11153528,14.41752268
1.99669990,-1.21348677,-0.64509811,-3.03557292

>  <Name>
lig.pdb

>  <RI>
0

>  <Rbt.Current_Directory>
/home/itssahil/PROJECTS/Mol_Feturizer/New_Systems/rnas/4nyg

>  <Rbt.Executable>
rbdock ($Id: //depot/dev/client3/rdock/2013.1/src/exe/rbdock.cxx#4 $)

>  <Rbt.Library>
libRbt.so (2013.1, Build901 2013/11/27)

>  <Rbt.Parameter_File>
/export/apps/rDock/src/rDock_2013.1_src/data/scripts/dock_solv.prm

>  <Rbt.Receptor>
prm/blind_docking_40.prm

>  <SCORE>
-15.9442

>  <SCORE.INTER>
-16.2204

>  <SCORE.INTER.CONST>
1

>  <SCORE.INTER.POLAR>
0

>  <SCORE.INTER.ROT>
4

>  <SCORE.INTER.SOLV>
13.0969

>  <SCORE.INTER.VDW>
-21.4459

>  <SCORE.INTER.norm>
-0.901132

>  <SCORE.INTRA>
0.276211

>  <SCORE.INTRA.DIHEDRAL>
0.139899

>  <SCORE.INTRA.DIHEDRAL.0>
3.20029

>  <SCORE.INTRA.POLAR>
0

>  <SCORE.INTRA.POLAR.0>
0

>  <SCORE.INTRA.REPUL>
0

>  <SCORE.INTRA.REPUL.0>
0

>  <SCORE.INTRA.SOLV>
1.02066

>  <SCORE.INTRA.SOLV.lig_0>
-19.3885

>  <SCORE.INTRA.VDW>
-0.30407

>  <SCORE.INTRA.VDW.0>
-1.12705

>  <SCORE.INTRA.norm>
0.0153451

>  <SCORE.RESTR>
0

>  <SCORE.RESTR.CAVITY>
0

>  <SCORE.RESTR.norm>
0

>  <SCORE.SYSTEM>
0

>  <SCORE.SYSTEM.CONST>
0

>  <SCORE.SYSTEM.DIHEDRAL>
0

>  <SCORE.SYSTEM.SOLV>
0

>  <SCORE.SYSTEM.norm>
0

>  <SCORE.heavy>
18

>  <SCORE.norm>
-0.885787

>  <RMSD>
6.206

$$$$
lig.pdb
 OpenBabel11021811503D
libRbt.so/2013.1/901 2013/11/27
 18 19  0  0  0  0  0  0  0  0999 V2000
   -6.4942   18.5634   -0.0449 C   0  0  0  0  0  0  0  0  0  0  0  0
   -8.3130   16.9575    4.1558 N   0  0  0  0  0  0  0  0  0  0  0  0
   -8.1556   13.9044    2.8451 C   0  0  0  0  0  0  0  0  0  0  0  0
   -7.9342    9.2038    0.8773 O   0  0  0  0  0  0  0  0  0  0  0  0
   -8.9664   10.1585    1.0828 C   0  0  0  0  0  0  0  0  0  0  0  0
   -8.7676   10.8762    2.4320 C   0  0  0  0  0  0  0  0  0  0  0  0
  -11.8768   13.6193    2.5576 C   0  0  0  0  0  0  0  0  0  0  0  0
  -11.5254   11.9331    2.3648 S   0  0  0  0  0  0  0  0  0  0  0  0
   -9.7548   12.0204    2.4988 C   0  0  0  0  0  0  0  0  0  0  0  0
   -9.5677   13.3686    2.6780 C   0  0  0  0  0  0  0  0  0  0  0  0
  -10.6776   14.1683    2.7028 N   0  0  0  0  0  0  0  0  0  0  0  0
  -10.5688   15.6554    2.9144 C   0  0  0  0  0  0  0  0  0  0  0  0
   -8.4262   17.0465    2.7684 C   0  0  0  0  0  0  0  0  0  0  0  0
   -7.4789   17.7248    2.0511 N   0  0  0  0  0  0  0  0  0  0  0  0
   -7.5636   17.8223    0.7217 C   0  0  0  0  0  0  0  0  0  0  0  0
   -8.5805   17.2605    0.0617 N   0  0  0  0  0  0  0  0  0  0  0  0
   -9.5561   16.5689    0.7059 C   0  0  0  0  0  0  0  0  0  0  0  0
   -9.5192   16.4264    2.0975 C   0  0  0  0  0  0  0  0  0  0  0  0
  5  4  1  0  0  0  0
  5  6  1  0  0  0  0
  7  8  2  0  0  0  0
  7 11  1  0  0  0  0
  8  9  1  0  0  0  0
  9 10  2  0  0  0  0
  9  6  1  0  0  0  0
 10  3  1  0  0  0  0
 11 12  1  0  0  0  0
 11 10  1  0  0  0  0
 12 18  1  0  0  0  0
 13  2  1  0  0  0  0
 13 14  2  0  0  0  0
 15 14  1  0  0  0  0
 15  1  1  0  0  0  0
 16 15  2  0  0  0  0
 17 18  2  0  0  0  0
 17 16  1  0  0  0  0
 18 13  1  0  0  0  0
M  END
>  <CHROM.1>
171.21199090,57.60196097,-134.17875802,-114.63325716,-9.23319447,14.38152087
1.98059804,-1.26174145,-0.52197132,-3.06609936

>  <Name>
lig.pdb

>  <RI>
0

>  <Rbt.Current_Directory>
/home/itssahil/PROJECTS/Mol_Feturizer/New_Systems/rnas/4nyg

>  <Rbt.Executable>
rbdock ($Id: //depot/dev/client3/rdock/2013.1/src/exe/rbdock.cxx#4 $)

>  <Rbt.Library>
libRbt.so (2013.1, Build901 2013/11/27)

>  <Rbt.Parameter_File>
/export/apps/rDock/src/rDock_2013.1_src/data/scripts/dock_solv.prm

>  <Rbt.Receptor>
prm/pocket_docking_7.prm

>  <SCORE>
-17.6175

>  <SCORE.INTER>
-18.3449

>  <SCORE.INTER.CONST>
1

>  <SCORE.INTER.POLAR>
0

>  <SCORE.INTER.ROT>
4

>  <SCORE.INTER.SOLV>
14.0484

>  <SCORE.INTER.VDW>
-23.1794

>  <SCORE.INTER.norm>
-1.01916

>  <SCORE.INTRA>
0.727338

>  <SCORE.INTRA.DIHEDRAL>
0.262176

>  <SCORE.INTRA.DIHEDRAL.0>
3.20029

>  <SCORE.INTRA.POLAR>
0

>  <SCORE.INTRA.POLAR.0>
0

>  <SCORE.INTRA.REPUL>
0

>  <SCORE.INTRA.REPUL.0>
0

>  <SCORE.INTRA.SOLV>
0.69385

>  <SCORE.INTRA.SOLV.lig_0>
-19.3885

>  <SCORE.INTRA.VDW>
0.249325

>  <SCORE.INTRA.VDW.0>
-1.12705

>  <SCORE.INTRA.norm>
0.0404076

>  <SCORE.RESTR>
0

>  <SCORE.RESTR.CAVITY>
0

>  <SCORE.RESTR.norm>
0

>  <SCORE.SYSTEM>
0

>  <SCORE.SYSTEM.CONST>
0

>  <SCORE.SYSTEM.DIHEDRAL>
0

>  <SCORE.SYSTEM.SOLV>
0

>  <SCORE.SYSTEM.norm>
0

>  <SCORE.heavy>
18

>  <SCORE.norm>
-0.978751

>  <RMSD>
6.230

$$$$
lig.pdb
 OpenBabel11021811503D
libRbt.so/2013.1/901 2013/11/27
 18 19  0  0  0  0  0  0  0  0999 V2000
   -6.4808   18.3085    0.2903 C   0  0  0  0  0  0  0  0  0  0  0  0
   -8.6398   16.4938    4.2372 N   0  0  0  0  0  0  0  0  0  0  0  0
   -8.3388   13.6747    2.7071 C   0  0  0  0  0  0  0  0  0  0  0  0
   -7.7971    9.1086    0.6883 O   0  0  0  0  0  0  0  0  0  0  0  0
   -8.9098    9.9674    0.8967 C   0  0  0  0  0  0  0  0  0  0  0  0
   -8.8227   10.6242    2.2880 C   0  0  0  0  0  0  0  0  0  0  0  0
  -12.0425   13.2380    2.3855 C   0  0  0  0  0  0  0  0  0  0  0  0
  -11.6207   11.5677    2.1957 S   0  0  0  0  0  0  0  0  0  0  0  0
   -9.8565   11.7271    2.3459 C   0  0  0  0  0  0  0  0  0  0  0  0
   -9.7262   13.0818    2.5271 C   0  0  0  0  0  0  0  0  0  0  0  0
  -10.8681   13.8355    2.5417 N   0  0  0  0  0  0  0  0  0  0  0  0
  -10.8220   15.3257    2.7546 C   0  0  0  0  0  0  0  0  0  0  0  0
   -8.6472   16.6702    2.8536 C   0  0  0  0  0  0  0  0  0  0  0  0
   -7.6358   17.3677    2.2516 N   0  0  0  0  0  0  0  0  0  0  0  0
   -7.6190   17.5483    0.9284 C   0  0  0  0  0  0  0  0  0  0  0  0
   -8.5947   17.0529    0.1616 N   0  0  0  0  0  0  0  0  0  0  0  0
   -9.6293   16.3474    0.6880 C   0  0  0  0  0  0  0  0  0  0  0  0
   -9.6992   16.1192    2.0668 C   0  0  0  0  0  0  0  0  0  0  0  0
  5  4  1  0  0  0  0
  5  6  1  0  0  0  0
  7  8  2  0  0  0  0
  7 11  1  0  0  0  0
  8  9  1  0  0  0  0
  9 10  2  0  0  0  0
  9  6  1  0  0  0  0
 10  3  1  0  0  0  0
 11 12  1  0  0  0  0
 11 10  1  0  0  0  0
 12 18  1  0  0  0  0
 13  2  1  0  0  0  0
 13 14  2  0  0  0  0
 15 14  1  0  0  0  0
 15  1  1  0  0  0  0
 16 15  2  0  0  0  0
 17 18  2  0  0  0  0
 17 16  1  0  0  0  0
 18 13  1  0  0  0  0
M  END
>  <CHROM.1>
168.55619505,61.71677824,-140.76250142,-109.15894110,-9.34109939,14.08897008
1.93392144,-1.27525152,-0.45659362,-3.04553009

>  <Name>
lig.pdb

>  <RI>
0

>  <Rbt.Current_Directory>
/home/itssahil/PROJECTS/Mol_Feturizer/New_Systems/rnas/4nyg

>  <Rbt.Executable>
rbdock ($Id: //depot/dev/client3/rdock/2013.1/src/exe/rbdock.cxx#4 $)

>  <Rbt.Library>
libRbt.so (2013.1, Build901 2013/11/27)

>  <Rbt.Parameter_File>
/export/apps/rDock/src/rDock_2013.1_src/data/scripts/dock_solv.prm

>  <Rbt.Receptor>
prm/blind_docking_20.prm

>  <SCORE>
-15.0037

>  <SCORE.INTER>
-17.348

>  <SCORE.INTER.CONST>
1

>  <SCORE.INTER.POLAR>
0

>  <SCORE.INTER.ROT>
4

>  <SCORE.INTER.SOLV>
14.6158

>  <SCORE.INTER.VDW>
-22.7039

>  <SCORE.INTER.norm>
-0.963777

>  <SCORE.INTRA>
1.78206

>  <SCORE.INTRA.DIHEDRAL>
0.462595

>  <SCORE.INTRA.DIHEDRAL.0>
3.20029

>  <SCORE.INTRA.POLAR>
0

>  <SCORE.INTRA.POLAR.0>
0

>  <SCORE.INTRA.REPUL>
0

>  <SCORE.INTRA.REPUL.0>
0

>  <SCORE.INTRA.SOLV>
0.8277

>  <SCORE.INTRA.SOLV.lig_0>
-19.3885

>  <SCORE.INTRA.VDW>
1.13692

>  <SCORE.INTRA.VDW.0>
-1.12705

>  <SCORE.INTRA.norm>
0.0990036

>  <SCORE.RESTR>
0.562241

>  <SCORE.RESTR.CAVITY>
0.562241

>  <SCORE.RESTR.norm>
0.0312356

>  <SCORE.SYSTEM>
0

>  <SCORE.SYSTEM.CONST>
0

>  <SCORE.SYSTEM.DIHEDRAL>
0

>  <SCORE.SYSTEM.SOLV>
0

>  <SCORE.SYSTEM.norm>
0

>  <SCORE.heavy>
18

>  <SCORE.norm>
-0.833538

>  <RMSD>
6.248

$$$$
lig.pdb
 OpenBabel11021811503D
libRbt.so/2013.1/901 2013/11/27
 18 19  0  0  0  0  0  0  0  0999 V2000
   -5.0331   17.8147    1.8317 C   0  0  0  0  0  0  0  0  0  0  0  0
   -9.1679   16.7815   -0.4853 N   0  0  0  0  0  0  0  0  0  0  0  0
   -8.9080   13.7555    0.6926 C   0  0  0  0  0  0  0  0  0  0  0  0
   -7.4373   11.5082    2.0611 O   0  0  0  0  0  0  0  0  0  0  0  0
   -8.4949   10.6456    2.4567 C   0  0  0  0  0  0  0  0  0  0  0  0
   -9.7342   10.8815    1.5717 C   0  0  0  0  0  0  0  0  0  0  0  0
  -11.7910   14.1695    3.0439 C   0  0  0  0  0  0  0  0  0  0  0  0
  -11.7278   12.4383    3.0980 S   0  0  0  0  0  0  0  0  0  0  0  0
  -10.3596   12.1941    1.9894 C   0  0  0  0  0  0  0  0  0  0  0  0
  -10.0563   13.4898    1.6517 C   0  0  0  0  0  0  0  0  0  0  0  0
  -10.8104   14.4866    2.2082 N   0  0  0  0  0  0  0  0  0  0  0  0
  -10.5362   15.9372    1.9105 C   0  0  0  0  0  0  0  0  0  0  0  0
   -8.4550   16.8214    0.7129 C   0  0  0  0  0  0  0  0  0  0  0  0
   -7.1592   17.2604    0.7189 N   0  0  0  0  0  0  0  0  0  0  0  0
   -6.4562   17.3100    1.8535 C   0  0  0  0  0  0  0  0  0  0  0  0
   -7.0040   16.9277    3.0107 N   0  0  0  0  0  0  0  0  0  0  0  0
   -8.2858   16.4838    3.0828 C   0  0  0  0  0  0  0  0  0  0  0  0
   -9.0751   16.4150    1.9293 C   0  0  0  0  0  0  0  0  0  0  0  0
  5  4  1  0  0  0  0
  5  6  1  0  0  0  0
  7  8  2  0  0  0  0
  7 11  1  0  0  0  0
  8  9  1  0  0  0  0
  9 10  2  0  0  0  0
  9  6  1  0  0  0  0
 10  3  1  0  0  0  0
 11 12  1  0  0  0  0
 11 10  1  0  0  0  0
 12 18  1  0  0  0  0
 13  2  1  0  0  0  0
 13 14  2  0  0  0  0
 15 14  1  0  0  0  0
 15  1  1  0  0  0  0
 16 15  2  0  0  0  0
 17 18  2  0  0  0  0
 17 16  1  0  0  0  0
 18 13  1  0  0  0  0
M  END
>  <CHROM.1>
-73.86149296,-97.23001566,134.44135990,112.30453806,-9.07628533,14.54110586
1.93427968,-0.99672099,-0.11772694,3.05297691

>  <Name>
lig.pdb

>  <RI>
0

>  <Rbt.Current_Directory>
/home/itssahil/PROJECTS/Mol_Feturizer/New_Systems/rnas/4nyg

>  <Rbt.Executable>
rbdock ($Id: //depot/dev/client3/rdock/2013.1/src/exe/rbdock.cxx#4 $)

>  <Rbt.Library>
libRbt.so (2013.1, Build901 2013/11/27)

>  <Rbt.Parameter_File>
/export/apps/rDock/src/rDock_2013.1_src/data/scripts/dock_solv.prm

>  <Rbt.Receptor>
prm/blind_docking_20.prm

>  <SCORE>
-13.0539

>  <SCORE.INTER>
-16.2141

>  <SCORE.INTER.CONST>
1

>  <SCORE.INTER.POLAR>
0

>  <SCORE.INTER.ROT>
4

>  <SCORE.INTER.SOLV>
10.8183

>  <SCORE.INTER.VDW>
-20.6822

>  <SCORE.INTER.norm>
-0.900783

>  <SCORE.INTRA>
2.35816

>  <SCORE.INTRA.DIHEDRAL>
2.4233

>  <SCORE.INTRA.DIHEDRAL.0>
3.20029

>  <SCORE.INTRA.POLAR>
0

>  <SCORE.INTRA.POLAR.0>
0

>  <SCORE.INTRA.REPUL>
0

>  <SCORE.INTRA.REPUL.0>
0

>  <SCORE.INTRA.SOLV>
1.34097

>  <SCORE.INTRA.SOLV.lig_0>
-19.3885

>  <SCORE.INTRA.VDW>
0.476028

>  <SCORE.INTRA.VDW.0>
-1.12705

>  <SCORE.INTRA.norm>
0.131009

>  <SCORE.RESTR>
0.802065

>  <SCORE.RESTR.CAVITY>
0.802065

>  <SCORE.RESTR.norm>
0.0445591

>  <SCORE.SYSTEM>
0

>  <SCORE.SYSTEM.CONST>
0

>  <SCORE.SYSTEM.DIHEDRAL>
0

>  <SCORE.SYSTEM.SOLV>
0

>  <SCORE.SYSTEM.norm>
0

>  <SCORE.heavy>
18

>  <SCORE.norm>
-0.725215

>  <RMSD>
6.255

$$$$
lig.pdb
 OpenBabel11021811503D
libRbt.so/2013.1/901 2013/11/27
 18 19  0  0  0  0  0  0  0  0999 V2000
   -6.4774   18.3917    0.2039 C   0  0  0  0  0  0  0  0  0  0  0  0
   -8.5994   16.5156    4.1421 N   0  0  0  0  0  0  0  0  0  0  0  0
   -8.2733   13.8512    2.8051 C   0  0  0  0  0  0  0  0  0  0  0  0
   -9.3261   10.3891    0.2500 O   0  0  0  0  0  0  0  0  0  0  0  0
   -8.9408    9.7310    1.4489 C   0  0  0  0  0  0  0  0  0  0  0  0
   -8.6278   10.7652    2.5477 C   0  0  0  0  0  0  0  0  0  0  0  0
  -11.9434   13.2525    2.3767 C   0  0  0  0  0  0  0  0  0  0  0  0
  -11.4532   11.5918    2.3000 S   0  0  0  0  0  0  0  0  0  0  0  0
   -9.7031   11.8284    2.5040 C   0  0  0  0  0  0  0  0  0  0  0  0
   -9.6300   13.1952    2.6103 C   0  0  0  0  0  0  0  0  0  0  0  0
  -10.7986   13.9033    2.5399 N   0  0  0  0  0  0  0  0  0  0  0  0
  -10.8158   15.4038    2.6669 C   0  0  0  0  0  0  0  0  0  0  0  0
   -8.6249   16.7221    2.7629 C   0  0  0  0  0  0  0  0  0  0  0  0
   -7.6144   17.4213    2.1612 N   0  0  0  0  0  0  0  0  0  0  0  0
   -7.6148   17.6304    0.8421 C   0  0  0  0  0  0  0  0  0  0  0  0
   -8.6070   17.1625    0.0793 N   0  0  0  0  0  0  0  0  0  0  0  0
   -9.6417   16.4570    0.6055 C   0  0  0  0  0  0  0  0  0  0  0  0
   -9.6942   16.1998    1.9799 C   0  0  0  0  0  0  0  0  0  0  0  0
  5  4  1  0  0  0  0
  5  6  1  0  0  0  0
  7  8  2  0  0  0  0
  7 11  1  0  0  0  0
  8  9  1  0  0  0  0
  9 10  2  0  0  0  0
  9  6  1  0  0  0  0
 10  3  1  0  0  0  0
 11 12  1  0  0  0  0
 11 10  1  0  0  0  0
 12 18  1  0  0  0  0
 13  2  1  0  0  0  0
 13 14  2  0  0  0  0
 15 14  1  0  0  0  0
 15  1  1  0  0  0  0
 16 15  2  0  0  0  0
 17 18  2  0  0  0  0
 17 16  1  0  0  0  0
 18 13  1  0  0  0  0
M  END
>  <CHROM.1>
43.41167881,42.31552953,-141.02761542,-102.92694574,-9.37732437,14.22328178
1.93936411,-1.18410740,-0.56383083,-3.01304517

>  <Name>
lig.pdb

>  <RI>
0

>  <Rbt.Current_Directory>
/home/itssahil/PROJECTS/Mol_Feturizer/New_Systems/rnas/4nyg

>  <Rbt.Executable>
rbdock ($Id: //depot/dev/client3/rdock/2013.1/src/exe/rbdock.cxx#4 $)

>  <Rbt.Library>
libRbt.so (2013.1, Build901 2013/11/27)

>  <Rbt.Parameter_File>
/export/apps/rDock/src/rDock_2013.1_src/data/scripts/dock_solv.prm

>  <Rbt.Receptor>
prm/blind_docking_20.prm

>  <SCORE>
-11.3198

>  <SCORE.INTER>
-15.8922

>  <SCORE.INTER.CONST>
1

>  <SCORE.INTER.POLAR>
0

>  <SCORE.INTER.ROT>
4

>  <SCORE.INTER.SOLV>
13.0051

>  <SCORE.INTER.VDW>
-21.1965

>  <SCORE.INTER.norm>
-0.882898

>  <SCORE.INTRA>
3.77637

>  <SCORE.INTRA.DIHEDRAL>
1.50182

>  <SCORE.INTRA.DIHEDRAL.0>
3.20029

>  <SCORE.INTRA.POLAR>
0

>  <SCORE.INTRA.POLAR.0>
0

>  <SCORE.INTRA.REPUL>
0

>  <SCORE.INTRA.REPUL.0>
0

>  <SCORE.INTRA.SOLV>
1.53102

>  <SCORE.INTRA.SOLV.lig_0>
-19.3885

>  <SCORE.INTRA.VDW>
2.25995

>  <SCORE.INTRA.VDW.0>
-1.12705

>  <SCORE.INTRA.norm>
0.209798

>  <SCORE.RESTR>
0.795999

>  <SCORE.RESTR.CAVITY>
0.795999

>  <SCORE.RESTR.norm>
0.0442222

>  <SCORE.SYSTEM>
0

>  <SCORE.SYSTEM.CONST>
0

>  <SCORE.SYSTEM.DIHEDRAL>
0

>  <SCORE.SYSTEM.SOLV>
0

>  <SCORE.SYSTEM.norm>
0

>  <SCORE.heavy>
18

>  <SCORE.norm>
-0.628877

>  <RMSD>
6.259

$$$$
lig.pdb
 OpenBabel11021811503D
libRbt.so/2013.1/901 2013/11/27
 18 19  0  0  0  0  0  0  0  0999 V2000
   -7.3348   19.5253   -1.1425 C   0  0  0  0  0  0  0  0  0  0  0  0
   -6.9367   18.1095    3.4802 N   0  0  0  0  0  0  0  0  0  0  0  0
   -7.3943   13.6879    3.0268 C   0  0  0  0  0  0  0  0  0  0  0  0
   -8.7446    9.3722    0.7599 O   0  0  0  0  0  0  0  0  0  0  0  0
   -9.3594   10.6253    1.0257 C   0  0  0  0  0  0  0  0  0  0  0  0
   -9.0220   11.0919    2.4551 C   0  0  0  0  0  0  0  0  0  0  0  0
  -10.9861   14.7254    2.8408 C   0  0  0  0  0  0  0  0  0  0  0  0
  -11.2428   13.0383    2.5377 S   0  0  0  0  0  0  0  0  0  0  0  0
   -9.5507   12.4996    2.6206 C   0  0  0  0  0  0  0  0  0  0  0  0
   -8.9061   13.6852    2.8732 C   0  0  0  0  0  0  0  0  0  0  0  0
   -9.6696   14.8155    2.9802 N   0  0  0  0  0  0  0  0  0  0  0  0
   -9.0500   16.1559    3.2758 C   0  0  0  0  0  0  0  0  0  0  0  0
   -7.5816   17.9831    2.2500 C   0  0  0  0  0  0  0  0  0  0  0  0
   -7.1945   18.7646    1.1958 N   0  0  0  0  0  0  0  0  0  0  0  0
   -7.7948   18.6609    0.0072 C   0  0  0  0  0  0  0  0  0  0  0  0
   -8.7920   17.7910   -0.1779 N   0  0  0  0  0  0  0  0  0  0  0  0
   -9.2281   16.9802    0.8209 C   0  0  0  0  0  0  0  0  0  0  0  0
   -8.6346   17.0377    2.0869 C   0  0  0  0  0  0  0  0  0  0  0  0
  5  4  1  0  0  0  0
  5  6  1  0  0  0  0
  7  8  2  0  0  0  0
  7 11  1  0  0  0  0
  8  9  1  0  0  0  0
  9 10  2  0  0  0  0
  9  6  1  0  0  0  0
 10  3  1  0  0  0  0
 11 12  1  0  0  0  0
 11 10  1  0  0  0  0
 12 18  1  0  0  0  0
 13  2  1  0  0  0  0
 13 14  2  0  0  0  0
 15 14  1  0  0  0  0
 15  1  1  0  0  0  0
 16 15  2  0  0  0  0
 17 18  2  0  0  0  0
 17 16  1  0  0  0  0
 18 13  1  0  0  0  0
M  END
>  <CHROM.1>
172.92205922,62.63358113,-89.69796691,-153.23030663,-8.90614226,15.03375932
1.85720548,-0.95585645,-1.11229752,-2.73629057

>  <Name>
lig.pdb

>  <RI>
0

>  <Rbt.Current_Directory>
/home/itssahil/PROJECTS/Mol_Feturizer/New_Systems/rnas/4nyg

>  <Rbt.Executable>
rbdock ($Id: //depot/dev/client3/rdock/2013.1/src/exe/rbdock.cxx#4 $)

>  <Rbt.Library>
libRbt.so (2013.1, Build901 2013/11/27)

>  <Rbt.Parameter_File>
/export/apps/rDock/src/rDock_2013.1_src/data/scripts/dock_solv.prm

>  <Rbt.Receptor>
prm/blind_docking_100.prm

>  <SCORE>
-15.3746

>  <SCORE.INTER>
-14.8876

>  <SCORE.INTER.CONST>
1

>  <SCORE.INTER.POLAR>
0

>  <SCORE.INTER.ROT>
4

>  <SCORE.INTER.SOLV>
16.0441

>  <SCORE.INTER.VDW>
-21.5398

>  <SCORE.INTER.norm>
-0.827089

>  <SCORE.INTRA>
-0.492714

>  <SCORE.INTRA.DIHEDRAL>
0.0520356

>  <SCORE.INTRA.DIHEDRAL.0>
3.20029

>  <SCORE.INTRA.POLAR>
0

>  <SCORE.INTRA.POLAR.0>
0

>  <SCORE.INTRA.REPUL>
0

>  <SCORE.INTRA.REPUL.0>
0

>  <SCORE.INTRA.SOLV>
0.0165338

>  <SCORE.INTRA.SOLV.lig_0>
-19.3885

>  <SCORE.INTRA.VDW>
-0.526998

>  <SCORE.INTRA.VDW.0>
-1.12705

>  <SCORE.INTRA.norm>
-0.027373

>  <SCORE.RESTR>
0.00567115

>  <SCORE.RESTR.CAVITY>
0.00567115

>  <SCORE.RESTR.norm>
0.000315064

>  <SCORE.SYSTEM>
0

>  <SCORE.SYSTEM.CONST>
0

>  <SCORE.SYSTEM.DIHEDRAL>
0

>  <SCORE.SYSTEM.SOLV>
0

>  <SCORE.SYSTEM.norm>
0

>  <SCORE.heavy>
18

>  <SCORE.norm>
-0.854147

>  <RMSD>
6.278

$$$$
lig.pdb
 OpenBabel11021811503D
libRbt.so/2013.1/901 2013/11/27
 18 19  0  0  0  0  0  0  0  0999 V2000
   -5.0458   17.7113    1.6667 C   0  0  0  0  0  0  0  0  0  0  0  0
   -9.2759   16.6913   -0.4776 N   0  0  0  0  0  0  0  0  0  0  0  0
   -8.9974   13.7945    0.7976 C   0  0  0  0  0  0  0  0  0  0  0  0
   -7.9098    9.5692    2.0347 O   0  0  0  0  0  0  0  0  0  0  0  0
   -8.5450   10.7810    2.4180 C   0  0  0  0  0  0  0  0  0  0  0  0
   -9.8856   10.9383    1.6743 C   0  0  0  0  0  0  0  0  0  0  0  0
  -11.8948   14.2672    3.1199 C   0  0  0  0  0  0  0  0  0  0  0  0
  -11.8645   12.5353    3.1780 S   0  0  0  0  0  0  0  0  0  0  0  0
  -10.4904   12.2632    2.0833 C   0  0  0  0  0  0  0  0  0  0  0  0
  -10.1597   13.5523    1.7459 C   0  0  0  0  0  0  0  0  0  0  0  0
  -10.9004   14.5642    2.2932 N   0  0  0  0  0  0  0  0  0  0  0  0
  -10.5964   16.0088    1.9953 C   0  0  0  0  0  0  0  0  0  0  0  0
   -8.5269   16.7687    0.6964 C   0  0  0  0  0  0  0  0  0  0  0  0
   -7.2193   17.1677    0.6437 N   0  0  0  0  0  0  0  0  0  0  0  0
   -6.4817   17.2520    1.7540 C   0  0  0  0  0  0  0  0  0  0  0  0
   -7.0058   16.9443    2.9440 N   0  0  0  0  0  0  0  0  0  0  0  0
   -8.2972   16.5438    3.0745 C   0  0  0  0  0  0  0  0  0  0  0  0
   -9.1221   16.4421    1.9488 C   0  0  0  0  0  0  0  0  0  0  0  0
  5  4  1  0  0  0  0
  5  6  1  0  0  0  0
  7  8  2  0  0  0  0
  7 11  1  0  0  0  0
  8  9  1  0  0  0  0
  9 10  2  0  0  0  0
  9  6  1  0  0  0  0
 10  3  1  0  0  0  0
 11 12  1  0  0  0  0
 11 10  1  0  0  0  0
 12 18  1  0  0  0  0
 13  2  1  0  0  0  0
 13 14  2  0  0  0  0
 15 14  1  0  0  0  0
 15  1  1  0  0  0  0
 16 15  2  0  0  0  0
 17 18  2  0  0  0  0
 17 16  1  0  0  0  0
 18 13  1  0  0  0  0
M  END
>  <CHROM.1>
-178.03020713,-105.67456586,137.84503369,108.74775009,-9.17856941,14.45040073
1.95189102,-1.05408275,-0.18104281,3.07579978

>  <Name>
lig.pdb

>  <RI>
0

>  <Rbt.Current_Directory>
/home/itssahil/PROJECTS/Mol_Feturizer/New_Systems/rnas/4nyg

>  <Rbt.Executable>
rbdock ($Id: //depot/dev/client3/rdock/2013.1/src/exe/rbdock.cxx#4 $)

>  <Rbt.Library>
libRbt.so (2013.1, Build901 2013/11/27)

>  <Rbt.Parameter_File>
/export/apps/rDock/src/rDock_2013.1_src/data/scripts/dock_solv.prm

>  <Rbt.Receptor>
prm/blind_docking_20.prm

>  <SCORE>
-13.8206

>  <SCORE.INTER>
-17.2345

>  <SCORE.INTER.CONST>
1

>  <SCORE.INTER.POLAR>
0

>  <SCORE.INTER.ROT>
4

>  <SCORE.INTER.SOLV>
11.9996

>  <SCORE.INTER.VDW>
-21.7562

>  <SCORE.INTER.norm>
-0.957473

>  <SCORE.INTRA>
2.67615

>  <SCORE.INTRA.DIHEDRAL>
2.21906

>  <SCORE.INTRA.DIHEDRAL.0>
3.20029

>  <SCORE.INTRA.POLAR>
0

>  <SCORE.INTRA.POLAR.0>
0

>  <SCORE.INTRA.REPUL>
0

>  <SCORE.INTRA.REPUL.0>
0

>  <SCORE.INTRA.SOLV>
0.873729

>  <SCORE.INTRA.SOLV.lig_0>
-19.3885

>  <SCORE.INTRA.VDW>
1.12975

>  <SCORE.INTRA.VDW.0>
-1.12705

>  <SCORE.INTRA.norm>
0.148675

>  <SCORE.RESTR>
0.737792

>  <SCORE.RESTR.CAVITY>
0.737792

>  <SCORE.RESTR.norm>
0.0409885

>  <SCORE.SYSTEM>
0

>  <SCORE.SYSTEM.CONST>
0

>  <SCORE.SYSTEM.DIHEDRAL>
0

>  <SCORE.SYSTEM.SOLV>
0

>  <SCORE.SYSTEM.norm>
0

>  <SCORE.heavy>
18

>  <SCORE.norm>
-0.767809

>  <RMSD>
6.412

$$$$
lig.pdb
 OpenBabel11021811503D
libRbt.so/2013.1/901 2013/11/27
 18 19  0  0  0  0  0  0  0  0999 V2000
   -7.5267   18.7675   -0.0908 C   0  0  0  0  0  0  0  0  0  0  0  0
   -8.7005   14.0859   -0.5772 N   0  0  0  0  0  0  0  0  0  0  0  0
   -9.2262   14.3978    2.9398 C   0  0  0  0  0  0  0  0  0  0  0  0
  -13.5864   14.0104    3.0046 O   0  0  0  0  0  0  0  0  0  0  0  0
  -12.2568   13.7840    2.5574 C   0  0  0  0  0  0  0  0  0  0  0  0
  -11.6885   12.5046    3.2017 C   0  0  0  0  0  0  0  0  0  0  0  0
   -8.2570   11.1860    1.2795 C   0  0  0  0  0  0  0  0  0  0  0  0
   -9.8524   10.7006    1.7520 S   0  0  0  0  0  0  0  0  0  0  0  0
  -10.3569   12.2080    2.5480 C   0  0  0  0  0  0  0  0  0  0  0  0
   -9.2330   12.9808    2.3912 C   0  0  0  0  0  0  0  0  0  0  0  0
   -8.1665   12.4287    1.7356 N   0  0  0  0  0  0  0  0  0  0  0  0
   -6.9003   13.2095    1.5003 C   0  0  0  0  0  0  0  0  0  0  0  0
   -7.9361   15.0587    0.0668 C   0  0  0  0  0  0  0  0  0  0  0  0
   -8.0673   16.3729   -0.2900 N   0  0  0  0  0  0  0  0  0  0  0  0
   -7.3484   17.3233    0.3131 C   0  0  0  0  0  0  0  0  0  0  0  0
   -6.4803   17.0098    1.2792 N   0  0  0  0  0  0  0  0  0  0  0  0
   -6.2987   15.7274    1.6887 C   0  0  0  0  0  0  0  0  0  0  0  0
   -7.0274   14.6882    1.0995 C   0  0  0  0  0  0  0  0  0  0  0  0
  5  4  1  0  0  0  0
  5  6  1  0  0  0  0
  7  8  2  0  0  0  0
  7 11  1  0  0  0  0
  8  9  1  0  0  0  0
  9 10  2  0  0  0  0
  9  6  1  0  0  0  0
 10  3  1  0  0  0  0
 11 12  1  0  0  0  0
 11 10  1  0  0  0  0
 12 18  1  0  0  0  0
 13  2  1  0  0  0  0
 13 14  2  0  0  0  0
 15 14  1  0  0  0  0
 15  1  1  0  0  0  0
 16 15  2  0  0  0  0
 17 18  2  0  0  0  0
 17 16  1  0  0  0  0
 18 13  1  0  0  0  0
M  END
>  <CHROM.1>
172.20559436,-125.15815651,138.40111661,-47.48846701,-8.96042897,14.01725346
1.50467441,0.89020603,0.33128805,-0.13556712

>  <Name>
lig.pdb

>  <RI>
0

>  <Rbt.Current_Directory>
/home/itssahil/PROJECTS/Mol_Feturizer/New_Systems/rnas/4nyg

>  <Rbt.Executable>
rbdock ($Id: //depot/dev/client3/rdock/2013.1/src/exe/rbdock.cxx#4 $)

>  <Rbt.Library>
libRbt.so (2013.1, Build901 2013/11/27)

>  <Rbt.Parameter_File>
/export/apps/rDock/src/rDock_2013.1_src/data/scripts/dock_solv.prm

>  <Rbt.Receptor>
prm/blind_docking_20.prm

>  <SCORE>
-8.43583

>  <SCORE.INTER>
-12.535

>  <SCORE.INTER.CONST>
1

>  <SCORE.INTER.POLAR>
0

>  <SCORE.INTER.ROT>
4

>  <SCORE.INTER.SOLV>
11.8287

>  <SCORE.INTER.VDW>
-18.5662

>  <SCORE.INTER.norm>
-0.696388

>  <SCORE.INTRA>
3.3847

>  <SCORE.INTRA.DIHEDRAL>
2.73097

>  <SCORE.INTRA.DIHEDRAL.0>
3.20029

>  <SCORE.INTRA.POLAR>
0

>  <SCORE.INTRA.POLAR.0>
0

>  <SCORE.INTRA.REPUL>
0

>  <SCORE.INTRA.REPUL.0>
0

>  <SCORE.INTRA.SOLV>
1.63433

>  <SCORE.INTRA.SOLV.lig_0>
-19.3885

>  <SCORE.INTRA.VDW>
1.20205

>  <SCORE.INTRA.VDW.0>
-1.12705

>  <SCORE.INTRA.norm>
0.188039

>  <SCORE.RESTR>
0.714459

>  <SCORE.RESTR.CAVITY>
0.714459

>  <SCORE.RESTR.norm>
0.0396922

>  <SCORE.SYSTEM>
0

>  <SCORE.SYSTEM.CONST>
0

>  <SCORE.SYSTEM.DIHEDRAL>
0

>  <SCORE.SYSTEM.SOLV>
0

>  <SCORE.SYSTEM.norm>
0

>  <SCORE.heavy>
18

>  <SCORE.norm>
-0.468657

>  <RMSD>
6.476

$$$$
lig.pdb
 OpenBabel11021811503D
libRbt.so/2013.1/901 2013/11/27
 18 19  0  0  0  0  0  0  0  0999 V2000
   -7.5246   18.7575   -0.0874 C   0  0  0  0  0  0  0  0  0  0  0  0
   -8.6840   14.0763   -0.6112 N   0  0  0  0  0  0  0  0  0  0  0  0
   -9.2217   14.4001    2.9263 C   0  0  0  0  0  0  0  0  0  0  0  0
  -13.5954   14.0054    2.9937 O   0  0  0  0  0  0  0  0  0  0  0  0
  -12.2585   13.7887    2.5638 C   0  0  0  0  0  0  0  0  0  0  0  0
  -11.6875   12.5163    3.2194 C   0  0  0  0  0  0  0  0  0  0  0  0
   -8.2712   11.1711    1.2887 C   0  0  0  0  0  0  0  0  0  0  0  0
   -9.8651   10.6944    1.7749 S   0  0  0  0  0  0  0  0  0  0  0  0
  -10.3607   12.2102    2.5605 C   0  0  0  0  0  0  0  0  0  0  0  0
   -9.2356   12.9784    2.3903 C   0  0  0  0  0  0  0  0  0  0  0  0
   -8.1745   12.4175    1.7333 N   0  0  0  0  0  0  0  0  0  0  0  0
   -6.9076   13.1926    1.4836 C   0  0  0  0  0  0  0  0  0  0  0  0
   -7.9293   15.0472    0.0469 C   0  0  0  0  0  0  0  0  0  0  0  0
   -8.0584   16.3630   -0.3050 N   0  0  0  0  0  0  0  0  0  0  0  0
   -7.3486   17.3116    0.3115 C   0  0  0  0  0  0  0  0  0  0  0  0
   -6.4917   16.9947    1.2865 N   0  0  0  0  0  0  0  0  0  0  0  0
   -6.3128   15.7106    1.6918 C   0  0  0  0  0  0  0  0  0  0  0  0
   -7.0325   14.6731    1.0886 C   0  0  0  0  0  0  0  0  0  0  0  0
  5  4  1  0  0  0  0
  5  6  1  0  0  0  0
  7  8  2  0  0  0  0
  7 11  1  0  0  0  0
  8  9  1  0  0  0  0
  9 10  2  0  0  0  0
  9  6  1  0  0  0  0
 10  3  1  0  0  0  0
 11 12  1  0  0  0  0
 11 10  1  0  0  0  0
 12 18  1  0  0  0  0
 13  2  1  0  0  0  0
 13 14  2  0  0  0  0
 15 14  1  0  0  0  0
 15  1  1  0  0  0  0
 16 15  2  0  0  0  0
 17 18  2  0  0  0  0
 17 16  1  0  0  0  0
 18 13  1  0  0  0  0
M  END
>  <CHROM.1>
170.89295826,-124.95885313,139.19408342,-48.98799727,-8.96388622,14.00994399
1.50392930,0.88877255,0.33414143,-0.13669421

>  <Name>
lig.pdb

>  <RI>
0

>  <Rbt.Current_Directory>
/home/itssahil/PROJECTS/Mol_Feturizer/New_Systems/rnas/4nyg

>  <Rbt.Executable>
rbdock ($Id: //depot/dev/client3/rdock/2013.1/src/exe/rbdock.cxx#4 $)

>  <Rbt.Library>
libRbt.so (2013.1, Build901 2013/11/27)

>  <Rbt.Parameter_File>
/export/apps/rDock/src/rDock_2013.1_src/data/scripts/dock_solv.prm

>  <Rbt.Receptor>
prm/blind_docking_20.prm

>  <SCORE>
-8.36425

>  <SCORE.INTER>
-12.5504

>  <SCORE.INTER.CONST>
1

>  <SCORE.INTER.POLAR>
0

>  <SCORE.INTER.ROT>
4

>  <SCORE.INTER.SOLV>
11.9189

>  <SCORE.INTER.VDW>
-18.6066

>  <SCORE.INTER.norm>
-0.697245

>  <SCORE.INTRA>
3.48434

>  <SCORE.INTRA.DIHEDRAL>
2.81458

>  <SCORE.INTRA.DIHEDRAL.0>
3.20029

>  <SCORE.INTRA.POLAR>
0

>  <SCORE.INTRA.POLAR.0>
0

>  <SCORE.INTRA.REPUL>
0

>  <SCORE.INTRA.REPUL.0>
0

>  <SCORE.INTRA.SOLV>
1.60109

>  <SCORE.INTRA.SOLV.lig_0>
-19.3885

>  <SCORE.INTRA.VDW>
1.27651

>  <SCORE.INTRA.VDW.0>
-1.12705

>  <SCORE.INTRA.norm>
0.193575

>  <SCORE.RESTR>
0.701804

>  <SCORE.RESTR.CAVITY>
0.701804

>  <SCORE.RESTR.norm>
0.0389891

>  <SCORE.SYSTEM>
0

>  <SCORE.SYSTEM.CONST>
0

>  <SCORE.SYSTEM.DIHEDRAL>
0

>  <SCORE.SYSTEM.SOLV>
0

>  <SCORE.SYSTEM.norm>
0

>  <SCORE.heavy>
18

>  <SCORE.norm>
-0.464681

>  <RMSD>
6.480

$$$$
lig.pdb
 OpenBabel11021811503D
libRbt.so/2013.1/901 2013/11/27
 18 19  0  0  0  0  0  0  0  0999 V2000
   -8.5928   19.5724    0.8817 C   0  0  0  0  0  0  0  0  0  0  0  0
   -6.8158   16.1821    3.8617 N   0  0  0  0  0  0  0  0  0  0  0  0
   -9.6455   14.4772    3.2590 C   0  0  0  0  0  0  0  0  0  0  0  0
  -13.8598   12.8494    2.6496 O   0  0  0  0  0  0  0  0  0  0  0  0
  -12.5329   12.8793    2.1421 C   0  0  0  0  0  0  0  0  0  0  0  0
  -11.5971   12.0560    3.0483 C   0  0  0  0  0  0  0  0  0  0  0  0
   -7.8375   11.8434    1.3079 C   0  0  0  0  0  0  0  0  0  0  0  0
   -9.2975   10.9450    1.5635 S   0  0  0  0  0  0  0  0  0  0  0  0
  -10.1952   12.1674    2.4910 C   0  0  0  0  0  0  0  0  0  0  0  0
   -9.2803   13.1899    2.5389 C   0  0  0  0  0  0  0  0  0  0  0  0
   -8.0743   12.9953    1.9227 N   0  0  0  0  0  0  0  0  0  0  0  0
   -7.0185   14.0692    1.9074 C   0  0  0  0  0  0  0  0  0  0  0  0
   -7.3312   16.5102    2.6079 C   0  0  0  0  0  0  0  0  0  0  0  0
   -7.7073   17.7988    2.3433 N   0  0  0  0  0  0  0  0  0  0  0  0
   -8.2015   18.1387    1.1499 C   0  0  0  0  0  0  0  0  0  0  0  0
   -8.3426   17.2239    0.1863 N   0  0  0  0  0  0  0  0  0  0  0  0
   -7.9878   15.9263    0.3748 C   0  0  0  0  0  0  0  0  0  0  0  0
   -7.4582   15.5102    1.6014 C   0  0  0  0  0  0  0  0  0  0  0  0
  5  4  1  0  0  0  0
  5  6  1  0  0  0  0
  7  8  2  0  0  0  0
  7 11  1  0  0  0  0
  8  9  1  0  0  0  0
  9 10  2  0  0  0  0
  9  6  1  0  0  0  0
 10  3  1  0  0  0  0
 11 12  1  0  0  0  0
 11 10  1  0  0  0  0
 12 18  1  0  0  0  0
 13  2  1  0  0  0  0
 13 14  2  0  0  0  0
 15 14  1  0  0  0  0
 15  1  1  0  0  0  0
 16 15  2  0  0  0  0
 17 18  2  0  0  0  0
 17 16  1  0  0  0  0
 18 13  1  0  0  0  0
M  END
>  <CHROM.1>
-177.86608515,-103.82030084,134.81005158,115.00082460,-9.07414081,14.42197956
1.97260529,1.07782453,0.10228033,-0.06428030

>  <Name>
lig.pdb

>  <RI>
0

>  <Rbt.Current_Directory>
/home/itssahil/PROJECTS/Mol_Feturizer/New_Systems/rnas/4nyg

>  <Rbt.Executable>
rbdock ($Id: //depot/dev/client3/rdock/2013.1/src/exe/rbdock.cxx#4 $)

>  <Rbt.Library>
libRbt.so (2013.1, Build901 2013/11/27)

>  <Rbt.Parameter_File>
/export/apps/rDock/src/rDock_2013.1_src/data/scripts/dock_solv.prm

>  <Rbt.Receptor>
prm/blind_docking_20.prm

>  <SCORE>
53.1555

>  <SCORE.INTER>
48.8384

>  <SCORE.INTER.CONST>
1

>  <SCORE.INTER.POLAR>
0

>  <SCORE.INTER.ROT>
4

>  <SCORE.INTER.SOLV>
12.9595

>  <SCORE.INTER.VDW>
21.9724

>  <SCORE.INTER.norm>
2.71324

>  <SCORE.INTRA>
1.87994

>  <SCORE.INTRA.DIHEDRAL>
2.1357

>  <SCORE.INTRA.DIHEDRAL.0>
3.20029

>  <SCORE.INTRA.POLAR>
0

>  <SCORE.INTRA.POLAR.0>
0

>  <SCORE.INTRA.REPUL>
0

>  <SCORE.INTRA.REPUL.0>
0

>  <SCORE.INTRA.SOLV>
0.736011

>  <SCORE.INTRA.SOLV.lig_0>
-19.3885

>  <SCORE.INTRA.VDW>
0.444087

>  <SCORE.INTRA.VDW.0>
-1.12705

>  <SCORE.INTRA.norm>
0.104441

>  <SCORE.RESTR>
2.43724

>  <SCORE.RESTR.CAVITY>
2.43724

>  <SCORE.RESTR.norm>
0.135402

>  <SCORE.SYSTEM>
0

>  <SCORE.SYSTEM.CONST>
0

>  <SCORE.SYSTEM.DIHEDRAL>
0

>  <SCORE.SYSTEM.SOLV>
0

>  <SCORE.SYSTEM.norm>
0

>  <SCORE.heavy>
18

>  <SCORE.norm>
2.95309

>  <RMSD>
6.513

$$$$
lig.pdb
 OpenBabel11021811503D
libRbt.so/2013.1/901 2013/11/27
 18 19  0  0  0  0  0  0  0  0999 V2000
   -7.2414   19.6613   -1.2451 C   0  0  0  0  0  0  0  0  0  0  0  0
   -6.7378   18.0893    3.3164 N   0  0  0  0  0  0  0  0  0  0  0  0
   -8.2244   13.3456    2.6959 C   0  0  0  0  0  0  0  0  0  0  0  0
   -9.4731    9.7512    1.0419 O   0  0  0  0  0  0  0  0  0  0  0  0
   -9.6010   11.1561    1.2119 C   0  0  0  0  0  0  0  0  0  0  0  0
  -10.6765   11.4691    2.2703 C   0  0  0  0  0  0  0  0  0  0  0  0
  -11.2576   15.5317    2.8750 C   0  0  0  0  0  0  0  0  0  0  0  0
  -12.0943   14.0414    2.5869 S   0  0  0  0  0  0  0  0  0  0  0  0
  -10.6825   12.9646    2.4975 C   0  0  0  0  0  0  0  0  0  0  0  0
   -9.6560   13.8550    2.6932 C   0  0  0  0  0  0  0  0  0  0  0  0
   -9.9809   15.1704    2.8835 N   0  0  0  0  0  0  0  0  0  0  0  0
   -8.9217   16.2132    3.1256 C   0  0  0  0  0  0  0  0  0  0  0  0
   -7.4272   18.0226    2.1057 C   0  0  0  0  0  0  0  0  0  0  0  0
   -7.0492   18.8236    1.0630 N   0  0  0  0  0  0  0  0  0  0  0  0
   -7.6918   18.7769   -0.1069 C   0  0  0  0  0  0  0  0  0  0  0  0
   -8.7234   17.9463   -0.2839 N   0  0  0  0  0  0  0  0  0  0  0  0
   -9.1532   17.1194    0.7043 C   0  0  0  0  0  0  0  0  0  0  0  0
   -8.5164   17.1177    1.9504 C   0  0  0  0  0  0  0  0  0  0  0  0
  5  4  1  0  0  0  0
  5  6  1  0  0  0  0
  7  8  2  0  0  0  0
  7 11  1  0  0  0  0
  8  9  1  0  0  0  0
  9 10  2  0  0  0  0
  9  6  1  0  0  0  0
 10  3  1  0  0  0  0
 11 12  1  0  0  0  0
 11 10  1  0  0  0  0
 12 18  1  0  0  0  0
 13  2  1  0  0  0  0
 13 14  2  0  0  0  0
 15 14  1  0  0  0  0
 15  1  1  0  0  0  0
 16 15  2  0  0  0  0
 17 18  2  0  0  0  0
 17 16  1  0  0  0  0
 18 13  1  0  0  0  0
M  END
>  <CHROM.1>
175.06534021,134.07148650,-79.41760191,-173.77353558,-9.26468756,15.33534865
1.78489703,-1.04312385,-0.68633124,-2.99291141

>  <Name>
lig.pdb

>  <RI>
0

>  <Rbt.Current_Directory>
/home/itssahil/PROJECTS/Mol_Feturizer/New_Systems/rnas/4nyg

>  <Rbt.Executable>
rbdock ($Id: //depot/dev/client3/rdock/2013.1/src/exe/rbdock.cxx#4 $)

>  <Rbt.Library>
libRbt.so (2013.1, Build901 2013/11/27)

>  <Rbt.Parameter_File>
/export/apps/rDock/src/rDock_2013.1_src/data/scripts/dock_solv.prm

>  <Rbt.Receptor>
prm/blind_docking_60.prm

>  <SCORE>
-15.7732

>  <SCORE.INTER>
-18.4243

>  <SCORE.INTER.CONST>
1

>  <SCORE.INTER.POLAR>
0

>  <SCORE.INTER.ROT>
4

>  <SCORE.INTER.SOLV>
16.5182

>  <SCORE.INTER.VDW>
-24.0556

>  <SCORE.INTER.norm>
-1.02357

>  <SCORE.INTRA>
2.65109

>  <SCORE.INTRA.DIHEDRAL>
2.30718

>  <SCORE.INTRA.DIHEDRAL.0>
3.20029

>  <SCORE.INTRA.POLAR>
0

>  <SCORE.INTRA.POLAR.0>
0

>  <SCORE.INTRA.REPUL>
0

>  <SCORE.INTRA.REPUL.0>
0

>  <SCORE.INTRA.SOLV>
0.0887055

>  <SCORE.INTRA.SOLV.lig_0>
-19.3885

>  <SCORE.INTRA.VDW>
1.45314

>  <SCORE.INTRA.VDW.0>
-1.12705

>  <SCORE.INTRA.norm>
0.147283

>  <SCORE.RESTR>
0

>  <SCORE.RESTR.CAVITY>
0

>  <SCORE.RESTR.norm>
0

>  <SCORE.SYSTEM>
0

>  <SCORE.SYSTEM.CONST>
0

>  <SCORE.SYSTEM.DIHEDRAL>
0

>  <SCORE.SYSTEM.SOLV>
0

>  <SCORE.SYSTEM.norm>
0

>  <SCORE.heavy>
18

>  <SCORE.norm>
-0.87629

>  <RMSD>
6.571

$$$$
lig.pdb
 OpenBabel11021811503D
libRbt.so/2013.1/901 2013/11/27
 18 19  0  0  0  0  0  0  0  0999 V2000
   -7.0457   21.5494   -2.4950 C   0  0  0  0  0  0  0  0  0  0  0  0
   -4.4007   17.9873   -0.5336 N   0  0  0  0  0  0  0  0  0  0  0  0
   -8.6924   16.5350    3.1349 C   0  0  0  0  0  0  0  0  0  0  0  0
   -9.2492   12.2158    3.1597 O   0  0  0  0  0  0  0  0  0  0  0  0
  -10.4954   12.6033    2.5979 C   0  0  0  0  0  0  0  0  0  0  0  0
  -10.5860   14.1392    2.5105 C   0  0  0  0  0  0  0  0  0  0  0  0
   -7.4958   15.0707   -0.0955 C   0  0  0  0  0  0  0  0  0  0  0  0
   -8.8047   13.9637    0.1603 S   0  0  0  0  0  0  0  0  0  0  0  0
   -9.4097   14.6278    1.6945 C   0  0  0  0  0  0  0  0  0  0  0  0
   -8.5351   15.6663    1.8981 C   0  0  0  0  0  0  0  0  0  0  0  0
   -7.5590   15.8704    0.9614 N   0  0  0  0  0  0  0  0  0  0  0  0
   -6.5690   16.9977    1.0925 C   0  0  0  0  0  0  0  0  0  0  0  0
   -5.6237   18.6531   -0.6144 C   0  0  0  0  0  0  0  0  0  0  0  0
   -5.7597   19.7260   -1.4523 N   0  0  0  0  0  0  0  0  0  0  0  0
   -6.9209   20.3788   -1.5492 C   0  0  0  0  0  0  0  0  0  0  0  0
   -7.9776   19.9988   -0.8250 N   0  0  0  0  0  0  0  0  0  0  0  0
   -7.9185   18.9412    0.0254 C   0  0  0  0  0  0  0  0  0  0  0  0
   -6.7316   18.2135    0.1657 C   0  0  0  0  0  0  0  0  0  0  0  0
  5  4  1  0  0  0  0
  5  6  1  0  0  0  0
  7  8  2  0  0  0  0
  7 11  1  0  0  0  0
  8  9  1  0  0  0  0
  9 10  2  0  0  0  0
  9  6  1  0  0  0  0
 10  3  1  0  0  0  0
 11 12  1  0  0  0  0
 11 10  1  0  0  0  0
 12 18  1  0  0  0  0
 13  2  1  0  0  0  0
 13 14  2  0  0  0  0
 15 14  1  0  0  0  0
 15  1  1  0  0  0  0
 16 15  2  0  0  0  0
 17 18  2  0  0  0  0
 17 16  1  0  0  0  0
 18 13  1  0  0  0  0
M  END
>  <CHROM.1>
56.97711373,45.34713609,72.74173335,-127.08214773,-7.86186018,16.59798386
0.55132953,1.13333942,0.40259215,-0.30758508

>  <Name>
lig.pdb

>  <RI>
0

>  <Rbt.Current_Directory>
/home/itssahil/PROJECTS/Mol_Feturizer/New_Systems/rnas/4nyg

>  <Rbt.Executable>
rbdock ($Id: //depot/dev/client3/rdock/2013.1/src/exe/rbdock.cxx#4 $)

>  <Rbt.Library>
libRbt.so (2013.1, Build901 2013/11/27)

>  <Rbt.Parameter_File>
/export/apps/rDock/src/rDock_2013.1_src/data/scripts/dock_solv.prm

>  <Rbt.Receptor>
prm/blind_docking_60.prm

>  <SCORE>
-12.9367

>  <SCORE.INTER>
-12.9212

>  <SCORE.INTER.CONST>
1

>  <SCORE.INTER.POLAR>
0

>  <SCORE.INTER.ROT>
4

>  <SCORE.INTER.SOLV>
12.7836

>  <SCORE.INTER.VDW>
-19.142

>  <SCORE.INTER.norm>
-0.717847

>  <SCORE.INTRA>
-0.019416

>  <SCORE.INTRA.DIHEDRAL>
0.381359

>  <SCORE.INTRA.DIHEDRAL.0>
3.20029

>  <SCORE.INTRA.POLAR>
0

>  <SCORE.INTRA.POLAR.0>
0

>  <SCORE.INTRA.REPUL>
0

>  <SCORE.INTRA.REPUL.0>
0

>  <SCORE.INTRA.SOLV>
0.571736

>  <SCORE.INTRA.SOLV.lig_0>
-19.3885

>  <SCORE.INTRA.VDW>
-0.495964

>  <SCORE.INTRA.VDW.0>
-1.12705

>  <SCORE.INTRA.norm>
-0.00107867

>  <SCORE.RESTR>
0.00394592

>  <SCORE.RESTR.CAVITY>
0.00394592

>  <SCORE.RESTR.norm>
0.000219218

>  <SCORE.SYSTEM>
0

>  <SCORE.SYSTEM.CONST>
0

>  <SCORE.SYSTEM.DIHEDRAL>
0

>  <SCORE.SYSTEM.SOLV>
0

>  <SCORE.SYSTEM.norm>
0

>  <SCORE.heavy>
18

>  <SCORE.norm>
-0.718706

>  <RMSD>
6.707

$$$$
lig.pdb
 OpenBabel11021811503D
libRbt.so/2013.1/901 2013/11/27
 18 19  0  0  0  0  0  0  0  0999 V2000
   -3.2877   17.0634    3.0210 C   0  0  0  0  0  0  0  0  0  0  0  0
   -6.4108   13.3525    3.1111 N   0  0  0  0  0  0  0  0  0  0  0  0
   -9.4012   16.4392    1.0274 C   0  0  0  0  0  0  0  0  0  0  0  0
  -13.5985   14.0057    2.7209 O   0  0  0  0  0  0  0  0  0  0  0  0
  -13.0500   15.0824    3.4684 C   0  0  0  0  0  0  0  0  0  0  0  0
  -12.0129   15.8453    2.6215 C   0  0  0  0  0  0  0  0  0  0  0  0
   -9.3124   12.7904    1.8578 C   0  0  0  0  0  0  0  0  0  0  0  0
  -10.8263   13.1399    2.6259 S   0  0  0  0  0  0  0  0  0  0  0  0
  -10.9123   14.8757    2.2515 C   0  0  0  0  0  0  0  0  0  0  0  0
   -9.7421   15.0563    1.5566 C   0  0  0  0  0  0  0  0  0  0  0  0
   -8.9370   13.9658    1.3700 N   0  0  0  0  0  0  0  0  0  0  0  0
   -7.6450   14.0665    0.6027 C   0  0  0  0  0  0  0  0  0  0  0  0
   -5.9329   14.4880    2.4570 C   0  0  0  0  0  0  0  0  0  0  0  0
   -4.9078   15.2083    3.0065 N   0  0  0  0  0  0  0  0  0  0  0  0
   -4.4310   16.2978    2.3986 C   0  0  0  0  0  0  0  0  0  0  0  0
   -4.9488   16.7111    1.2383 N   0  0  0  0  0  0  0  0  0  0  0  0
   -5.9655   16.0452    0.6315 C   0  0  0  0  0  0  0  0  0  0  0  0
   -6.5032   14.8932    1.2160 C   0  0  0  0  0  0  0  0  0  0  0  0
  5  4  1  0  0  0  0
  5  6  1  0  0  0  0
  7  8  2  0  0  0  0
  7 11  1  0  0  0  0
  8  9  1  0  0  0  0
  9 10  2  0  0  0  0
  9  6  1  0  0  0  0
 10  3  1  0  0  0  0
 11 12  1  0  0  0  0
 11 10  1  0  0  0  0
 12 18  1  0  0  0  0
 13  2  1  0  0  0  0
 13 14  2  0  0  0  0
 15 14  1  0  0  0  0
 15  1  1  0  0  0  0
 16 15  2  0  0  0  0
 17 18  2  0  0  0  0
 17 16  1  0  0  0  0
 18 13  1  0  0  0  0
M  END
>  <CHROM.1>
-60.50874790,3.04215654,-113.74104144,62.86410134,-8.45056016,14.84194899
2.11855296,0.22638411,0.03278593,-0.13178155

>  <Name>
lig.pdb

>  <RI>
0

>  <Rbt.Current_Directory>
/home/itssahil/PROJECTS/Mol_Feturizer/New_Systems/rnas/4nyg

>  <Rbt.Executable>
rbdock ($Id: //depot/dev/client3/rdock/2013.1/src/exe/rbdock.cxx#4 $)

>  <Rbt.Library>
libRbt.so (2013.1, Build901 2013/11/27)

>  <Rbt.Parameter_File>
/export/apps/rDock/src/rDock_2013.1_src/data/scripts/dock_solv.prm

>  <Rbt.Receptor>
prm/pocket_docking_2.prm

>  <SCORE>
-11.8288

>  <SCORE.INTER>
-13.8611

>  <SCORE.INTER.CONST>
1

>  <SCORE.INTER.POLAR>
0

>  <SCORE.INTER.ROT>
4

>  <SCORE.INTER.SOLV>
8.14166

>  <SCORE.INTER.VDW>
-18.2213

>  <SCORE.INTER.norm>
-0.770061

>  <SCORE.INTRA>
2.03235

>  <SCORE.INTRA.DIHEDRAL>
2.57454

>  <SCORE.INTRA.DIHEDRAL.0>
3.20029

>  <SCORE.INTRA.POLAR>
0

>  <SCORE.INTRA.POLAR.0>
0

>  <SCORE.INTRA.REPUL>
0

>  <SCORE.INTRA.REPUL.0>
0

>  <SCORE.INTRA.SOLV>
1.23918

>  <SCORE.INTRA.SOLV.lig_0>
-19.3885

>  <SCORE.INTRA.VDW>
0.125487

>  <SCORE.INTRA.VDW.0>
-1.12705

>  <SCORE.INTRA.norm>
0.112908

>  <SCORE.RESTR>
0

>  <SCORE.RESTR.CAVITY>
0

>  <SCORE.RESTR.norm>
0

>  <SCORE.SYSTEM>
0

>  <SCORE.SYSTEM.CONST>
0

>  <SCORE.SYSTEM.DIHEDRAL>
0

>  <SCORE.SYSTEM.SOLV>
0

>  <SCORE.SYSTEM.norm>
0

>  <SCORE.heavy>
18

>  <SCORE.norm>
-0.657153

>  <RMSD>
6.870

$$$$
lig.pdb
 OpenBabel11021811503D
libRbt.so/2013.1/901 2013/11/27
 18 19  0  0  0  0  0  0  0  0999 V2000
   -3.5595   17.9596    3.6058 C   0  0  0  0  0  0  0  0  0  0  0  0
   -5.7904   15.7041   -0.0641 N   0  0  0  0  0  0  0  0  0  0  0  0
   -8.7789   13.7673    0.5032 C   0  0  0  0  0  0  0  0  0  0  0  0
  -12.9014   13.4687    3.0071 O   0  0  0  0  0  0  0  0  0  0  0  0
  -11.4854   13.3914    3.0971 C   0  0  0  0  0  0  0  0  0  0  0  0
  -10.9524   12.2809    2.1710 C   0  0  0  0  0  0  0  0  0  0  0  0
   -6.9350   11.7336    3.0479 C   0  0  0  0  0  0  0  0  0  0  0  0
   -8.5333   11.2704    3.5326 S   0  0  0  0  0  0  0  0  0  0  0  0
   -9.4505   12.2172    2.3398 C   0  0  0  0  0  0  0  0  0  0  0  0
   -8.4349   12.8341    1.6520 C   0  0  0  0  0  0  0  0  0  0  0  0
   -7.1498   12.5680    2.0389 N   0  0  0  0  0  0  0  0  0  0  0  0
   -5.9731   13.1840    1.3289 C   0  0  0  0  0  0  0  0  0  0  0  0
   -5.2572   15.6383    1.2231 C   0  0  0  0  0  0  0  0  0  0  0  0
   -4.6852   16.7495    1.7798 N   0  0  0  0  0  0  0  0  0  0  0  0
   -4.1697   16.7127    3.0113 C   0  0  0  0  0  0  0  0  0  0  0  0
   -4.1987   15.5851    3.7276 N   0  0  0  0  0  0  0  0  0  0  0  0
   -4.7528   14.4438    3.2423 C   0  0  0  0  0  0  0  0  0  0  0  0
   -5.3148   14.4212    1.9610 C   0  0  0  0  0  0  0  0  0  0  0  0
  5  4  1  0  0  0  0
  5  6  1  0  0  0  0
  7  8  2  0  0  0  0
  7 11  1  0  0  0  0
  8  9  1  0  0  0  0
  9 10  2  0  0  0  0
  9  6  1  0  0  0  0
 10  3  1  0  0  0  0
 11 12  1  0  0  0  0
 11 10  1  0  0  0  0
 12 18  1  0  0  0  0
 13  2  1  0  0  0  0
 13 14  2  0  0  0  0
 15 14  1  0  0  0  0
 15  1  1  0  0  0  0
 16 15  2  0  0  0  0
 17 18  2  0  0  0  0
 17 16  1  0  0  0  0
 18 13  1  0  0  0  0
M  END
>  <CHROM.1>
-178.31058763,87.87446387,-82.09939556,-120.85332415,-7.29521042,13.91850814
2.38147922,0.54230457,-0.14156057,-0.28398182

>  <Name>
lig.pdb

>  <RI>
0

>  <Rbt.Current_Directory>
/home/itssahil/PROJECTS/Mol_Feturizer/New_Systems/rnas/4nyg

>  <Rbt.Executable>
rbdock ($Id: //depot/dev/client3/rdock/2013.1/src/exe/rbdock.cxx#4 $)

>  <Rbt.Library>
libRbt.so (2013.1, Build901 2013/11/27)

>  <Rbt.Parameter_File>
/export/apps/rDock/src/rDock_2013.1_src/data/scripts/dock_solv.prm

>  <Rbt.Receptor>
prm/pocket_docking_3.prm

>  <SCORE>
-8.39942

>  <SCORE.INTER>
-8.417

>  <SCORE.INTER.CONST>
1

>  <SCORE.INTER.POLAR>
0

>  <SCORE.INTER.ROT>
4

>  <SCORE.INTER.SOLV>
10.2382

>  <SCORE.INTER.VDW>
-15.2907

>  <SCORE.INTER.norm>
-0.467611

>  <SCORE.INTRA>
0.0175806

>  <SCORE.INTRA.DIHEDRAL>
1.05578

>  <SCORE.INTRA.DIHEDRAL.0>
3.20029

>  <SCORE.INTRA.POLAR>
0

>  <SCORE.INTRA.POLAR.0>
0

>  <SCORE.INTRA.REPUL>
0

>  <SCORE.INTRA.REPUL.0>
0

>  <SCORE.INTRA.SOLV>
0.347179

>  <SCORE.INTRA.SOLV.lig_0>
-19.3885

>  <SCORE.INTRA.VDW>
-0.683898

>  <SCORE.INTRA.VDW.0>
-1.12705

>  <SCORE.INTRA.norm>
0.000976702

>  <SCORE.RESTR>
0

>  <SCORE.RESTR.CAVITY>
0

>  <SCORE.RESTR.norm>
0

>  <SCORE.SYSTEM>
0

>  <SCORE.SYSTEM.CONST>
0

>  <SCORE.SYSTEM.DIHEDRAL>
0

>  <SCORE.SYSTEM.SOLV>
0

>  <SCORE.SYSTEM.norm>
0

>  <SCORE.heavy>
18

>  <SCORE.norm>
-0.466634

>  <RMSD>
6.891

$$$$
lig.pdb
 OpenBabel11021811503D
libRbt.so/2013.1/901 2013/11/27
 18 19  0  0  0  0  0  0  0  0999 V2000
   -3.6435   16.2183    2.4303 C   0  0  0  0  0  0  0  0  0  0  0  0
   -7.4874   13.4926    3.5823 N   0  0  0  0  0  0  0  0  0  0  0  0
   -9.4938   16.0315    1.3924 C   0  0  0  0  0  0  0  0  0  0  0  0
  -14.1797   14.9708    2.5001 O   0  0  0  0  0  0  0  0  0  0  0  0
  -13.4845   15.5939    3.5713 C   0  0  0  0  0  0  0  0  0  0  0  0
  -12.1036   16.0857    3.0957 C   0  0  0  0  0  0  0  0  0  0  0  0
  -10.3076   12.4621    2.1727 C   0  0  0  0  0  0  0  0  0  0  0  0
  -11.6493   13.1679    3.0129 S   0  0  0  0  0  0  0  0  0  0  0  0
  -11.3036   14.8765    2.6643 C   0  0  0  0  0  0  0  0  0  0  0  0
  -10.1554   14.7691    1.9193 C   0  0  0  0  0  0  0  0  0  0  0  0
   -9.6642   13.5141    1.6830 N   0  0  0  0  0  0  0  0  0  0  0  0
   -8.4217   13.3000    0.8593 C   0  0  0  0  0  0  0  0  0  0  0  0
   -6.7480   14.1491    2.5985 C   0  0  0  0  0  0  0  0  0  0  0  0
   -5.6196   14.8412    2.9444 N   0  0  0  0  0  0  0  0  0  0  0  0
   -4.8934   15.4762    2.0208 C   0  0  0  0  0  0  0  0  0  0  0  0
   -5.2560   15.4519    0.7350 N   0  0  0  0  0  0  0  0  0  0  0  0
   -6.3617   14.7830    0.3165 C   0  0  0  0  0  0  0  0  0  0  0  0
   -7.1598   14.0931    1.2359 C   0  0  0  0  0  0  0  0  0  0  0  0
  5  4  1  0  0  0  0
  5  6  1  0  0  0  0
  7  8  2  0  0  0  0
  7 11  1  0  0  0  0
  8  9  1  0  0  0  0
  9 10  2  0  0  0  0
  9  6  1  0  0  0  0
 10  3  1  0  0  0  0
 11 12  1  0  0  0  0
 11 10  1  0  0  0  0
 12 18  1  0  0  0  0
 13  2  1  0  0  0  0
 13 14  2  0  0  0  0
 15 14  1  0  0  0  0
 15  1  1  0  0  0  0
 16 15  2  0  0  0  0
 17 18  2  0  0  0  0
 17 16  1  0  0  0  0
 18 13  1  0  0  0  0
M  END
>  <CHROM.1>
-62.46564513,-15.10929022,-129.21578573,47.27936806,-9.02706245,14.54635847
2.22128466,0.06923516,0.14159726,0.06834282

>  <Name>
lig.pdb

>  <RI>
0

>  <Rbt.Current_Directory>
/home/itssahil/PROJECTS/Mol_Feturizer/New_Systems/rnas/4nyg

>  <Rbt.Executable>
rbdock ($Id: //depot/dev/client3/rdock/2013.1/src/exe/rbdock.cxx#4 $)

>  <Rbt.Library>
libRbt.so (2013.1, Build901 2013/11/27)

>  <Rbt.Parameter_File>
/export/apps/rDock/src/rDock_2013.1_src/data/scripts/dock_solv.prm

>  <Rbt.Receptor>
prm/pocket_docking_2.prm

>  <SCORE>
-13.375

>  <SCORE.INTER>
-15.5346

>  <SCORE.INTER.CONST>
1

>  <SCORE.INTER.POLAR>
0

>  <SCORE.INTER.ROT>
4

>  <SCORE.INTER.SOLV>
9.53384

>  <SCORE.INTER.VDW>
-19.801

>  <SCORE.INTER.norm>
-0.863033

>  <SCORE.INTRA>
1.96111

>  <SCORE.INTRA.DIHEDRAL>
2.25568

>  <SCORE.INTRA.DIHEDRAL.0>
3.20029

>  <SCORE.INTRA.POLAR>
0

>  <SCORE.INTRA.POLAR.0>
0

>  <SCORE.INTRA.REPUL>
0

>  <SCORE.INTRA.REPUL.0>
0

>  <SCORE.INTRA.SOLV>
1.79534

>  <SCORE.INTRA.SOLV.lig_0>
-19.3885

>  <SCORE.INTRA.VDW>
-0.0644043

>  <SCORE.INTRA.VDW.0>
-1.12705

>  <SCORE.INTRA.norm>
0.10895

>  <SCORE.RESTR>
0.198481

>  <SCORE.RESTR.CAVITY>
0.198481

>  <SCORE.RESTR.norm>
0.0110267

>  <SCORE.SYSTEM>
0

>  <SCORE.SYSTEM.CONST>
0

>  <SCORE.SYSTEM.DIHEDRAL>
0

>  <SCORE.SYSTEM.SOLV>
0

>  <SCORE.SYSTEM.norm>
0

>  <SCORE.heavy>
18

>  <SCORE.norm>
-0.743056

>  <RMSD>
6.949

$$$$
lig.pdb
 OpenBabel11021811503D
libRbt.so/2013.1/901 2013/11/27
 18 19  0  0  0  0  0  0  0  0999 V2000
   -2.9081   16.6519    2.5184 C   0  0  0  0  0  0  0  0  0  0  0  0
   -6.7739   13.7745    3.0729 N   0  0  0  0  0  0  0  0  0  0  0  0
   -9.6024   12.3436    1.7390 C   0  0  0  0  0  0  0  0  0  0  0  0
  -13.5562   15.3017    3.5426 O   0  0  0  0  0  0  0  0  0  0  0  0
  -13.4816   13.9873    3.0080 C   0  0  0  0  0  0  0  0  0  0  0  0
  -12.0985   13.3722    3.2968 C   0  0  0  0  0  0  0  0  0  0  0  0
   -9.5466   16.0758    1.4565 C   0  0  0  0  0  0  0  0  0  0  0  0
  -10.9976   15.9619    2.3975 S   0  0  0  0  0  0  0  0  0  0  0  0
  -11.0628   14.1928    2.5604 C   0  0  0  0  0  0  0  0  0  0  0  0
   -9.9440   13.8195    1.8577 C   0  0  0  0  0  0  0  0  0  0  0  0
   -9.1827   14.8095    1.2988 N   0  0  0  0  0  0  0  0  0  0  0  0
   -7.9278   14.4940    0.5281 C   0  0  0  0  0  0  0  0  0  0  0  0
   -6.0841   14.7003    2.2903 C   0  0  0  0  0  0  0  0  0  0  0  0
   -4.9005   15.2209    2.7376 N   0  0  0  0  0  0  0  0  0  0  0  0
   -4.2200   16.1071    2.0060 C   0  0  0  0  0  0  0  0  0  0  0  0
   -4.6835   16.5083    0.8187 N   0  0  0  0  0  0  0  0  0  0  0  0
   -5.8491   16.0329    0.3085 C   0  0  0  0  0  0  0  0  0  0  0  0
   -6.6040   15.0975    1.0249 C   0  0  0  0  0  0  0  0  0  0  0  0
  5  4  1  0  0  0  0
  5  6  1  0  0  0  0
  7  8  2  0  0  0  0
  7 11  1  0  0  0  0
  8  9  1  0  0  0  0
  9 10  2  0  0  0  0
  9  6  1  0  0  0  0
 10  3  1  0  0  0  0
 11 12  1  0  0  0  0
 11 10  1  0  0  0  0
 12 18  1  0  0  0  0
 13  2  1  0  0  0  0
 13 14  2  0  0  0  0
 15 14  1  0  0  0  0
 15  1  1  0  0  0  0
 16 15  2  0  0  0  0
 17 18  2  0  0  0  0
 17 16  1  0  0  0  0
 18 13  1  0  0  0  0
M  END
>  <CHROM.1>
-64.19355506,41.12221925,58.10809412,65.13594714,-8.54326606,14.98193882
2.07525298,0.18504223,0.11894232,-0.08861837

>  <Name>
lig.pdb

>  <RI>
0

>  <Rbt.Current_Directory>
/home/itssahil/PROJECTS/Mol_Feturizer/New_Systems/rnas/4nyg

>  <Rbt.Executable>
rbdock ($Id: //depot/dev/client3/rdock/2013.1/src/exe/rbdock.cxx#4 $)

>  <Rbt.Library>
libRbt.so (2013.1, Build901 2013/11/27)

>  <Rbt.Parameter_File>
/export/apps/rDock/src/rDock_2013.1_src/data/scripts/dock_solv.prm

>  <Rbt.Receptor>
prm/pocket_docking_2.prm

>  <SCORE>
-13.4584

>  <SCORE.INTER>
-14.1393

>  <SCORE.INTER.CONST>
1

>  <SCORE.INTER.POLAR>
0

>  <SCORE.INTER.ROT>
4

>  <SCORE.INTER.SOLV>
7.46584

>  <SCORE.INTER.VDW>
-18.1815

>  <SCORE.INTER.norm>
-0.785517

>  <SCORE.INTRA>
0.680918

>  <SCORE.INTRA.DIHEDRAL>
0.596857

>  <SCORE.INTRA.DIHEDRAL.0>
3.20029

>  <SCORE.INTRA.POLAR>
0

>  <SCORE.INTRA.POLAR.0>
0

>  <SCORE.INTRA.REPUL>
0

>  <SCORE.INTRA.REPUL.0>
0

>  <SCORE.INTRA.SOLV>
1.43017

>  <SCORE.INTRA.SOLV.lig_0>
-19.3885

>  <SCORE.INTRA.VDW>
-0.332595

>  <SCORE.INTRA.VDW.0>
-1.12705

>  <SCORE.INTRA.norm>
0.0378288

>  <SCORE.RESTR>
0

>  <SCORE.RESTR.CAVITY>
0

>  <SCORE.RESTR.norm>
0

>  <SCORE.SYSTEM>
0

>  <SCORE.SYSTEM.CONST>
0

>  <SCORE.SYSTEM.DIHEDRAL>
0

>  <SCORE.SYSTEM.SOLV>
0

>  <SCORE.SYSTEM.norm>
0

>  <SCORE.heavy>
18

>  <SCORE.norm>
-0.747688

>  <RMSD>
6.953

$$$$
lig.pdb
 OpenBabel11021811503D
libRbt.so/2013.1/901 2013/11/27
 18 19  0  0  0  0  0  0  0  0999 V2000
   -2.9826   17.4802    2.0768 C   0  0  0  0  0  0  0  0  0  0  0  0
   -6.1933   14.0971    3.4105 N   0  0  0  0  0  0  0  0  0  0  0  0
   -9.4422   11.9313    1.6765 C   0  0  0  0  0  0  0  0  0  0  0  0
  -13.6112   14.9290    2.5869 O   0  0  0  0  0  0  0  0  0  0  0  0
  -13.0646   14.0326    3.5444 C   0  0  0  0  0  0  0  0  0  0  0  0
  -12.1037   13.0418    2.8590 C   0  0  0  0  0  0  0  0  0  0  0  0
   -9.1623   15.6622    1.5592 C   0  0  0  0  0  0  0  0  0  0  0  0
  -10.7494   15.5962    2.2524 S   0  0  0  0  0  0  0  0  0  0  0  0
  -10.9249   13.8288    2.3305 C   0  0  0  0  0  0  0  0  0  0  0  0
   -9.7270   13.4188    1.7996 C   0  0  0  0  0  0  0  0  0  0  0  0
   -8.8391   14.3840    1.4096 N   0  0  0  0  0  0  0  0  0  0  0  0
   -7.4934   14.0265    0.8357 C   0  0  0  0  0  0  0  0  0  0  0  0
   -5.7094   14.9514    2.4197 C   0  0  0  0  0  0  0  0  0  0  0  0
   -4.6484   15.7723    2.6884 N   0  0  0  0  0  0  0  0  0  0  0  0
   -4.1653   16.5975    1.7561 C   0  0  0  0  0  0  0  0  0  0  0  0
   -4.7115   16.6418    0.5375 N   0  0  0  0  0  0  0  0  0  0  0  0
   -5.7646   15.8541    0.1970 C   0  0  0  0  0  0  0  0  0  0  0  0
   -6.3110   14.9643    1.1285 C   0  0  0  0  0  0  0  0  0  0  0  0
  5  4  1  0  0  0  0
  5  6  1  0  0  0  0
  7  8  2  0  0  0  0
  7 11  1  0  0  0  0
  8  9  1  0  0  0  0
  9 10  2  0  0  0  0
  9  6  1  0  0  0  0
 10  3  1  0  0  0  0
 11 12  1  0  0  0  0
 11 10  1  0  0  0  0
 12 18  1  0  0  0  0
 13  2  1  0  0  0  0
 13 14  2  0  0  0  0
 15 14  1  0  0  0  0
 15  1  1  0  0  0  0
 16 15  2  0  0  0  0
 17 18  2  0  0  0  0
 17 16  1  0  0  0  0
 18 13  1  0  0  0  0
M  END
>  <CHROM.1>
65.52686013,-9.08433732,32.16939760,75.14340054,-8.33223721,14.89262661,1.98396037
0.26610898,0.12259072,0.00699263

>  <Name>
lig.pdb

>  <RI>
0

>  <Rbt.Current_Directory>
/home/itssahil/PROJECTS/Mol_Feturizer/New_Systems/rnas/4nyg

>  <Rbt.Executable>
rbdock ($Id: //depot/dev/client3/rdock/2013.1/src/exe/rbdock.cxx#4 $)

>  <Rbt.Library>
libRbt.so (2013.1, Build901 2013/11/27)

>  <Rbt.Parameter_File>
/export/apps/rDock/src/rDock_2013.1_src/data/scripts/dock_solv.prm

>  <Rbt.Receptor>
prm/pocket_docking_2.prm

>  <SCORE>
-11.6895

>  <SCORE.INTER>
-13.7793

>  <SCORE.INTER.CONST>
1

>  <SCORE.INTER.POLAR>
0

>  <SCORE.INTER.ROT>
4

>  <SCORE.INTER.SOLV>
8.06313

>  <SCORE.INTER.VDW>
-18.1406

>  <SCORE.INTER.norm>
-0.765517

>  <SCORE.INTRA>
2.08691

>  <SCORE.INTRA.DIHEDRAL>
2.50599

>  <SCORE.INTRA.DIHEDRAL.0>
3.20029

>  <SCORE.INTRA.POLAR>
0

>  <SCORE.INTRA.POLAR.0>
0

>  <SCORE.INTRA.REPUL>
0

>  <SCORE.INTRA.REPUL.0>
0

>  <SCORE.INTRA.SOLV>
1.04873

>  <SCORE.INTRA.SOLV.lig_0>
-19.3885

>  <SCORE.INTRA.VDW>
0.309551

>  <SCORE.INTRA.VDW.0>
-1.12705

>  <SCORE.INTRA.norm>
0.115939

>  <SCORE.RESTR>
0.00290266

>  <SCORE.RESTR.CAVITY>
0.00290266

>  <SCORE.RESTR.norm>
0.000161259

>  <SCORE.SYSTEM>
0

>  <SCORE.SYSTEM.CONST>
0

>  <SCORE.SYSTEM.DIHEDRAL>
0

>  <SCORE.SYSTEM.SOLV>
0

>  <SCORE.SYSTEM.norm>
0

>  <SCORE.heavy>
18

>  <SCORE.norm>
-0.649416

>  <RMSD>
6.971

$$$$
lig.pdb
 OpenBabel11021811503D
libRbt.so/2013.1/901 2013/11/27
 18 19  0  0  0  0  0  0  0  0999 V2000
   -3.0299   17.2530    2.1386 C   0  0  0  0  0  0  0  0  0  0  0  0
   -6.2333   13.6602    2.7409 N   0  0  0  0  0  0  0  0  0  0  0  0
   -9.5845   12.3437    1.7307 C   0  0  0  0  0  0  0  0  0  0  0  0
  -13.5946   15.2308    3.5010 O   0  0  0  0  0  0  0  0  0  0  0  0
  -13.4852   13.9156    2.9745 C   0  0  0  0  0  0  0  0  0  0  0  0
  -12.0962   13.3284    3.2918 C   0  0  0  0  0  0  0  0  0  0  0  0
   -9.5539   16.0803    1.5109 C   0  0  0  0  0  0  0  0  0  0  0  0
  -11.0091   15.9405    2.4419 S   0  0  0  0  0  0  0  0  0  0  0  0
  -11.0625   14.1685    2.5749 C   0  0  0  0  0  0  0  0  0  0  0  0
   -9.9373   13.8149    1.8721 C   0  0  0  0  0  0  0  0  0  0  0  0
   -9.1801   14.8195    1.3341 N   0  0  0  0  0  0  0  0  0  0  0  0
   -7.9189   14.5258    0.5651 C   0  0  0  0  0  0  0  0  0  0  0  0
   -5.8479   14.8040    2.0418 C   0  0  0  0  0  0  0  0  0  0  0  0
   -4.7009   15.4617    2.3935 N   0  0  0  0  0  0  0  0  0  0  0  0
   -4.3093   16.5576    1.7383 C   0  0  0  0  0  0  0  0  0  0  0  0
   -5.0334   17.0390    0.7237 N   0  0  0  0  0  0  0  0  0  0  0  0
   -6.1812   16.4378    0.3161 C   0  0  0  0  0  0  0  0  0  0  0  0
   -6.6400   15.2826    0.9589 C   0  0  0  0  0  0  0  0  0  0  0  0
  5  4  1  0  0  0  0
  5  6  1  0  0  0  0
  7  8  2  0  0  0  0
  7 11  1  0  0  0  0
  8  9  1  0  0  0  0
  9 10  2  0  0  0  0
  9  6  1  0  0  0  0
 10  3  1  0  0  0  0
 11 12  1  0  0  0  0
 11 10  1  0  0  0  0
 12 18  1  0  0  0  0
 13  2  1  0  0  0  0
 13 14  2  0  0  0  0
 15 14  1  0  0  0  0
 15  1  1  0  0  0  0
 16 15  2  0  0  0  0
 17 18  2  0  0  0  0
 17 16  1  0  0  0  0
 18 13  1  0  0  0  0
M  END
>  <CHROM.1>
-63.97118965,42.63958962,49.74885155,83.41740227,-8.54303738,15.09344278
1.99427156,0.23689218,0.14427729,-0.06846419

>  <Name>
lig.pdb

>  <RI>
0

>  <Rbt.Current_Directory>
/home/itssahil/PROJECTS/Mol_Feturizer/New_Systems/rnas/4nyg

>  <Rbt.Executable>
rbdock ($Id: //depot/dev/client3/rdock/2013.1/src/exe/rbdock.cxx#4 $)

>  <Rbt.Library>
libRbt.so (2013.1, Build901 2013/11/27)

>  <Rbt.Parameter_File>
/export/apps/rDock/src/rDock_2013.1_src/data/scripts/dock_solv.prm

>  <Rbt.Receptor>
prm/pocket_docking_2.prm

>  <SCORE>
-13.5684

>  <SCORE.INTER>
-14.2213

>  <SCORE.INTER.CONST>
1

>  <SCORE.INTER.POLAR>
0

>  <SCORE.INTER.ROT>
4

>  <SCORE.INTER.SOLV>
7.33333

>  <SCORE.INTER.VDW>
-18.192

>  <SCORE.INTER.norm>
-0.790071

>  <SCORE.INTRA>
0.652899

>  <SCORE.INTRA.DIHEDRAL>
0.474794

>  <SCORE.INTRA.DIHEDRAL.0>
3.20029

>  <SCORE.INTRA.POLAR>
0

>  <SCORE.INTRA.POLAR.0>
0

>  <SCORE.INTRA.REPUL>
0

>  <SCORE.INTRA.REPUL.0>
0

>  <SCORE.INTRA.SOLV>
1.07333

>  <SCORE.INTRA.SOLV.lig_0>
-19.3885

>  <SCORE.INTRA.VDW>
-0.121161

>  <SCORE.INTRA.VDW.0>
-1.12705

>  <SCORE.INTRA.norm>
0.0362722

>  <SCORE.RESTR>
0

>  <SCORE.RESTR.CAVITY>
0

>  <SCORE.RESTR.norm>
0

>  <SCORE.SYSTEM>
0

>  <SCORE.SYSTEM.CONST>
0

>  <SCORE.SYSTEM.DIHEDRAL>
0

>  <SCORE.SYSTEM.SOLV>
0

>  <SCORE.SYSTEM.norm>
0

>  <SCORE.heavy>
18

>  <SCORE.norm>
-0.753798

>  <RMSD>
6.977

$$$$
lig.pdb
 OpenBabel11021811503D
libRbt.so/2013.1/901 2013/11/27
 18 19  0  0  0  0  0  0  0  0999 V2000
   -3.5679   17.0276    2.9106 C   0  0  0  0  0  0  0  0  0  0  0  0
   -6.2331   12.9837    3.1861 N   0  0  0  0  0  0  0  0  0  0  0  0
   -9.6293   15.7603    1.4420 C   0  0  0  0  0  0  0  0  0  0  0  0
  -14.4766   15.0125    2.9915 O   0  0  0  0  0  0  0  0  0  0  0  0
  -13.3695   14.1242    2.9264 C   0  0  0  0  0  0  0  0  0  0  0  0
  -12.0573   14.8879    3.1909 C   0  0  0  0  0  0  0  0  0  0  0  0
   -9.1851   12.1017    2.0972 C   0  0  0  0  0  0  0  0  0  0  0  0
  -10.6601   12.2930    2.9871 S   0  0  0  0  0  0  0  0  0  0  0  0
  -10.9134   14.0289    2.6992 C   0  0  0  0  0  0  0  0  0  0  0  0
   -9.8171   14.3339    1.9309 C   0  0  0  0  0  0  0  0  0  0  0  0
   -8.9433   13.3228    1.6376 N   0  0  0  0  0  0  0  0  0  0  0  0
   -7.7250   13.5611    0.7849 C   0  0  0  0  0  0  0  0  0  0  0  0
   -5.9378   14.1687    2.5124 C   0  0  0  0  0  0  0  0  0  0  0  0
   -4.9630   14.9995    2.9933 N   0  0  0  0  0  0  0  0  0  0  0  0
   -4.6601   16.1386    2.3652 C   0  0  0  0  0  0  0  0  0  0  0  0
   -5.3071   16.4943    1.2515 N   0  0  0  0  0  0  0  0  0  0  0  0
   -6.2840   15.7188    0.7135 C   0  0  0  0  0  0  0  0  0  0  0  0
   -6.6418   14.5107    1.3221 C   0  0  0  0  0  0  0  0  0  0  0  0
  5  4  1  0  0  0  0
  5  6  1  0  0  0  0
  7  8  2  0  0  0  0
  7 11  1  0  0  0  0
  8  9  1  0  0  0  0
  9 10  2  0  0  0  0
  9  6  1  0  0  0  0
 10  3  1  0  0  0  0
 11 12  1  0  0  0  0
 11 10  1  0  0  0  0
 12 18  1  0  0  0  0
 13  2  1  0  0  0  0
 13 14  2  0  0  0  0
 15 14  1  0  0  0  0
 15  1  1  0  0  0  0
 16 15  2  0  0  0  0
 17 18  2  0  0  0  0
 17 16  1  0  0  0  0
 18 13  1  0  0  0  0
M  END
>  <CHROM.1>
-162.77702316,-46.25542299,-116.69620838,63.54022524,-8.57964119,14.39105558
2.28557388,0.23510716,0.06682823,-0.09315088

>  <Name>
lig.pdb

>  <RI>
0

>  <Rbt.Current_Directory>
/home/itssahil/PROJECTS/Mol_Feturizer/New_Systems/rnas/4nyg

>  <Rbt.Executable>
rbdock ($Id: //depot/dev/client3/rdock/2013.1/src/exe/rbdock.cxx#4 $)

>  <Rbt.Library>
libRbt.so (2013.1, Build901 2013/11/27)

>  <Rbt.Parameter_File>
/export/apps/rDock/src/rDock_2013.1_src/data/scripts/dock_solv.prm

>  <Rbt.Receptor>
prm/pocket_docking_2.prm

>  <SCORE>
-13.3256

>  <SCORE.INTER>
-14.3878

>  <SCORE.INTER.CONST>
1

>  <SCORE.INTER.POLAR>
0

>  <SCORE.INTER.ROT>
4

>  <SCORE.INTER.SOLV>
8.30464

>  <SCORE.INTER.VDW>
-18.6267

>  <SCORE.INTER.norm>
-0.79932

>  <SCORE.INTRA>
0.463282

>  <SCORE.INTRA.DIHEDRAL>
1.28069

>  <SCORE.INTRA.DIHEDRAL.0>
3.20029

>  <SCORE.INTRA.POLAR>
0

>  <SCORE.INTRA.POLAR.0>
0

>  <SCORE.INTRA.REPUL>
0

>  <SCORE.INTRA.REPUL.0>
0

>  <SCORE.INTRA.SOLV>
0.778128

>  <SCORE.INTRA.SOLV.lig_0>
-19.3885

>  <SCORE.INTRA.VDW>
-0.566126

>  <SCORE.INTRA.VDW.0>
-1.12705

>  <SCORE.INTRA.norm>
0.0257379

>  <SCORE.RESTR>
0.598931

>  <SCORE.RESTR.CAVITY>
0.598931

>  <SCORE.RESTR.norm>
0.0332739

>  <SCORE.SYSTEM>
0

>  <SCORE.SYSTEM.CONST>
0

>  <SCORE.SYSTEM.DIHEDRAL>
0

>  <SCORE.SYSTEM.SOLV>
0

>  <SCORE.SYSTEM.norm>
0

>  <SCORE.heavy>
18

>  <SCORE.norm>
-0.740308

>  <RMSD>
6.984

$$$$
lig.pdb
 OpenBabel11021811503D
libRbt.so/2013.1/901 2013/11/27
 18 19  0  0  0  0  0  0  0  0999 V2000
   -4.6334   20.2632   -3.0534 C   0  0  0  0  0  0  0  0  0  0  0  0
   -5.4458   17.1393    0.5679 N   0  0  0  0  0  0  0  0  0  0  0  0
   -8.9606   16.3174    3.2962 C   0  0  0  0  0  0  0  0  0  0  0  0
  -11.4468   12.0160    3.3415 O   0  0  0  0  0  0  0  0  0  0  0  0
  -10.9931   13.0146    2.4382 C   0  0  0  0  0  0  0  0  0  0  0  0
   -9.4998   13.3105    2.6771 C   0  0  0  0  0  0  0  0  0  0  0  0
   -8.3838   15.8864   -0.3771 C   0  0  0  0  0  0  0  0  0  0  0  0
   -8.7934   14.2368   -0.0378 S   0  0  0  0  0  0  0  0  0  0  0  0
   -9.0811   14.3953    1.7094 C   0  0  0  0  0  0  0  0  0  0  0  0
   -8.8275   15.7310    1.9007 C   0  0  0  0  0  0  0  0  0  0  0  0
   -8.4692   16.4743    0.8093 N   0  0  0  0  0  0  0  0  0  0  0  0
   -8.1920   17.9503    0.9219 C   0  0  0  0  0  0  0  0  0  0  0  0
   -5.9317   18.1507   -0.2606 C   0  0  0  0  0  0  0  0  0  0  0  0
   -5.1130   18.7091   -1.2039 N   0  0  0  0  0  0  0  0  0  0  0  0
   -5.5553   19.6773   -2.0106 C   0  0  0  0  0  0  0  0  0  0  0  0
   -6.8102   20.1253   -1.9115 N   0  0  0  0  0  0  0  0  0  0  0  0
   -7.6812   19.6167   -1.0015 C   0  0  0  0  0  0  0  0  0  0  0  0
   -7.2787   18.5963   -0.1327 C   0  0  0  0  0  0  0  0  0  0  0  0
  5  4  1  0  0  0  0
  5  6  1  0  0  0  0
  7  8  2  0  0  0  0
  7 11  1  0  0  0  0
  8  9  1  0  0  0  0
  9 10  2  0  0  0  0
  9  6  1  0  0  0  0
 10  3  1  0  0  0  0
 11 12  1  0  0  0  0
 11 10  1  0  0  0  0
 12 18  1  0  0  0  0
 13  2  1  0  0  0  0
 13 14  2  0  0  0  0
 15 14  1  0  0  0  0
 15  1  1  0  0  0  0
 16 15  2  0  0  0  0
 17 18  2  0  0  0  0
 17 16  1  0  0  0  0
 18 13  1  0  0  0  0
M  END
>  <CHROM.1>
-178.91658728,-74.66225734,-25.43230127,-61.18472678,-7.94175922,16.52973294
0.42990954,-0.28952044,-1.00283725,-2.49249533

>  <Name>
lig.pdb

>  <RI>
0

>  <Rbt.Current_Directory>
/home/itssahil/PROJECTS/Mol_Feturizer/New_Systems/rnas/4nyg

>  <Rbt.Executable>
rbdock ($Id: //depot/dev/client3/rdock/2013.1/src/exe/rbdock.cxx#4 $)

>  <Rbt.Library>
libRbt.so (2013.1, Build901 2013/11/27)

>  <Rbt.Parameter_File>
/export/apps/rDock/src/rDock_2013.1_src/data/scripts/dock_solv.prm

>  <Rbt.Receptor>
prm/blind_docking_80.prm

>  <SCORE>
-12.7135

>  <SCORE.INTER>
-12.8588

>  <SCORE.INTER.CONST>
1

>  <SCORE.INTER.POLAR>
0

>  <SCORE.INTER.ROT>
4

>  <SCORE.INTER.SOLV>
12.0257

>  <SCORE.INTER.VDW>
-18.8478

>  <SCORE.INTER.norm>
-0.714378

>  <SCORE.INTRA>
0.14526

>  <SCORE.INTRA.DIHEDRAL>
0.373393

>  <SCORE.INTRA.DIHEDRAL.0>
3.20029

>  <SCORE.INTRA.POLAR>
0

>  <SCORE.INTRA.POLAR.0>
0

>  <SCORE.INTRA.REPUL>
0

>  <SCORE.INTRA.REPUL.0>
0

>  <SCORE.INTRA.SOLV>
0.807476

>  <SCORE.INTRA.SOLV.lig_0>
-19.3885

>  <SCORE.INTRA.VDW>
-0.445175

>  <SCORE.INTRA.VDW.0>
-1.12705

>  <SCORE.INTRA.norm>
0.00806999

>  <SCORE.RESTR>
5.92624e-05

>  <SCORE.RESTR.CAVITY>
5.92624e-05

>  <SCORE.RESTR.norm>
3.29236e-06

>  <SCORE.SYSTEM>
0

>  <SCORE.SYSTEM.CONST>
0

>  <SCORE.SYSTEM.DIHEDRAL>
0

>  <SCORE.SYSTEM.SOLV>
0

>  <SCORE.SYSTEM.norm>
0

>  <SCORE.heavy>
18

>  <SCORE.norm>
-0.706304

>  <RMSD>
7.039

$$$$
lig.pdb
 OpenBabel11021811503D
libRbt.so/2013.1/901 2013/11/27
 18 19  0  0  0  0  0  0  0  0999 V2000
   -7.6028   19.1822   -0.6119 C   0  0  0  0  0  0  0  0  0  0  0  0
   -7.1034   16.0841    3.0874 N   0  0  0  0  0  0  0  0  0  0  0  0
  -10.6130   16.1853    3.1285 C   0  0  0  0  0  0  0  0  0  0  0  0
  -13.2275   17.1030    2.2487 O   0  0  0  0  0  0  0  0  0  0  0  0
  -14.1253   16.0708    2.6326 C   0  0  0  0  0  0  0  0  0  0  0  0
  -13.5087   15.2203    3.7602 C   0  0  0  0  0  0  0  0  0  0  0  0
  -10.7634   12.5883    2.1037 C   0  0  0  0  0  0  0  0  0  0  0  0
  -12.3972   12.7100    2.6693 S   0  0  0  0  0  0  0  0  0  0  0  0
  -12.3728   14.4165    3.1670 C   0  0  0  0  0  0  0  0  0  0  0  0
  -11.0809   14.7649    2.8594 C   0  0  0  0  0  0  0  0  0  0  0  0
  -10.2741   13.8035    2.3145 N   0  0  0  0  0  0  0  0  0  0  0  0
   -8.8495   14.1016    1.9276 C   0  0  0  0  0  0  0  0  0  0  0  0
   -7.6823   16.3774    1.8528 C   0  0  0  0  0  0  0  0  0  0  0  0
   -7.4029   17.5662    1.2359 N   0  0  0  0  0  0  0  0  0  0  0  0
   -7.9428   17.8694    0.0526 C   0  0  0  0  0  0  0  0  0  0  0  0
   -8.7729   17.0167   -0.5551 N   0  0  0  0  0  0  0  0  0  0  0  0
   -9.0941   15.8170   -0.0051 C   0  0  0  0  0  0  0  0  0  0  0  0
   -8.5553   15.4396    1.2300 C   0  0  0  0  0  0  0  0  0  0  0  0
  5  4  1  0  0  0  0
  5  6  1  0  0  0  0
  7  8  2  0  0  0  0
  7 11  1  0  0  0  0
  8  9  1  0  0  0  0
  9 10  2  0  0  0  0
  9  6  1  0  0  0  0
 10  3  1  0  0  0  0
 11 12  1  0  0  0  0
 11 10  1  0  0  0  0
 12 18  1  0  0  0  0
 13  2  1  0  0  0  0
 13 14  2  0  0  0  0
 15 14  1  0  0  0  0
 15  1  1  0  0  0  0
 16 15  2  0  0  0  0
 17 18  2  0  0  0  0
 17 16  1  0  0  0  0
 18 13  1  0  0  0  0
M  END
>  <CHROM.1>
-70.34198325,-100.10955539,137.29184424,118.48120370,-10.27461583,15.51367087
1.90091168,0.64896481,0.25037200,-0.30757565

>  <Name>
lig.pdb

>  <RI>
0

>  <Rbt.Current_Directory>
/home/itssahil/PROJECTS/Mol_Feturizer/New_Systems/rnas/4nyg

>  <Rbt.Executable>
rbdock ($Id: //depot/dev/client3/rdock/2013.1/src/exe/rbdock.cxx#4 $)

>  <Rbt.Library>
libRbt.so (2013.1, Build901 2013/11/27)

>  <Rbt.Parameter_File>
/export/apps/rDock/src/rDock_2013.1_src/data/scripts/dock_solv.prm

>  <Rbt.Receptor>
prm/blind_docking_60.prm

>  <SCORE>
-17.8512

>  <SCORE.INTER>
-20.4578

>  <SCORE.INTER.CONST>
1

>  <SCORE.INTER.POLAR>
0

>  <SCORE.INTER.ROT>
4

>  <SCORE.INTER.SOLV>
12.289

>  <SCORE.INTER.VDW>
-24.0016

>  <SCORE.INTER.norm>
-1.13655

>  <SCORE.INTRA>
2.60666

>  <SCORE.INTRA.DIHEDRAL>
2.29785

>  <SCORE.INTRA.DIHEDRAL.0>
3.20029

>  <SCORE.INTRA.POLAR>
0

>  <SCORE.INTRA.POLAR.0>
0

>  <SCORE.INTRA.REPUL>
0

>  <SCORE.INTRA.REPUL.0>
0

>  <SCORE.INTRA.SOLV>
1.27663

>  <SCORE.INTRA.SOLV.lig_0>
-19.3885

>  <SCORE.INTRA.VDW>
0.819422

>  <SCORE.INTRA.VDW.0>
-1.12705

>  <SCORE.INTRA.norm>
0.144815

>  <SCORE.RESTR>
0

>  <SCORE.RESTR.CAVITY>
0

>  <SCORE.RESTR.norm>
0

>  <SCORE.SYSTEM>
0

>  <SCORE.SYSTEM.CONST>
0

>  <SCORE.SYSTEM.DIHEDRAL>
0

>  <SCORE.SYSTEM.SOLV>
0

>  <SCORE.SYSTEM.norm>
0

>  <SCORE.heavy>
18

>  <SCORE.norm>
-0.991731

>  <RMSD>
7.063

$$$$
lig.pdb
 OpenBabel11021811503D
libRbt.so/2013.1/901 2013/11/27
 18 19  0  0  0  0  0  0  0  0999 V2000
   -2.0430   18.9422    4.7139 C   0  0  0  0  0  0  0  0  0  0  0  0
   -2.4460   18.2703   -0.0734 N   0  0  0  0  0  0  0  0  0  0  0  0
   -6.3443   14.7120    0.9433 C   0  0  0  0  0  0  0  0  0  0  0  0
  -11.1256   16.2011    2.1107 O   0  0  0  0  0  0  0  0  0  0  0  0
  -10.2178   15.1541    2.4249 C   0  0  0  0  0  0  0  0  0  0  0  0
   -9.4536   14.7142    1.1610 C   0  0  0  0  0  0  0  0  0  0  0  0
   -7.4582   18.1510   -0.0286 C   0  0  0  0  0  0  0  0  0  0  0  0
   -9.0364   17.5000    0.2709 S   0  0  0  0  0  0  0  0  0  0  0  0
   -8.5532   15.8554    0.7425 C   0  0  0  0  0  0  0  0  0  0  0  0
   -7.1878   15.9348    0.6234 C   0  0  0  0  0  0  0  0  0  0  0  0
   -6.6513   17.1282    0.2233 N   0  0  0  0  0  0  0  0  0  0  0  0
   -5.1630   17.3125    0.0851 C   0  0  0  0  0  0  0  0  0  0  0  0
   -3.0286   18.1890    1.1912 C   0  0  0  0  0  0  0  0  0  0  0  0
   -2.3141   18.5679    2.2947 N   0  0  0  0  0  0  0  0  0  0  0  0
   -2.8504   18.5016    3.5161 C   0  0  0  0  0  0  0  0  0  0  0  0
   -4.0994   18.0592    3.6877 N   0  0  0  0  0  0  0  0  0  0  0  0
   -4.8701   17.6690    2.6394 C   0  0  0  0  0  0  0  0  0  0  0  0
   -4.3666   17.7215    1.3349 C   0  0  0  0  0  0  0  0  0  0  0  0
  5  4  1  0  0  0  0
  5  6  1  0  0  0  0
  7  8  2  0  0  0  0
  7 11  1  0  0  0  0
  8  9  1  0  0  0  0
  9 10  2  0  0  0  0
  9  6  1  0  0  0  0
 10  3  1  0  0  0  0
 11 12  1  0  0  0  0
 11 10  1  0  0  0  0
 12 18  1  0  0  0  0
 13  2  1  0  0  0  0
 13 14  2  0  0  0  0
 15 14  1  0  0  0  0
 15  1  1  0  0  0  0
 16 15  2  0  0  0  0
 17 18  2  0  0  0  0
 17 16  1  0  0  0  0
 18 13  1  0  0  0  0
M  END
>  <CHROM.1>
67.42607489,-60.78466325,92.56042630,-166.22396397,-6.22135774,17.14865550
1.47854022,0.18472900,0.34485855,1.61054535

>  <Name>
lig.pdb

>  <RI>
0

>  <Rbt.Current_Directory>
/home/itssahil/PROJECTS/Mol_Feturizer/New_Systems/rnas/4nyg

>  <Rbt.Executable>
rbdock ($Id: //depot/dev/client3/rdock/2013.1/src/exe/rbdock.cxx#4 $)

>  <Rbt.Library>
libRbt.so (2013.1, Build901 2013/11/27)

>  <Rbt.Parameter_File>
/export/apps/rDock/src/rDock_2013.1_src/data/scripts/dock_solv.prm

>  <Rbt.Receptor>
prm/pocket_docking_8.prm

>  <SCORE>
-10.1937

>  <SCORE.INTER>
-9.8306

>  <SCORE.INTER.CONST>
1

>  <SCORE.INTER.POLAR>
0

>  <SCORE.INTER.ROT>
4

>  <SCORE.INTER.SOLV>
10.8053

>  <SCORE.INTER.VDW>
-16.4222

>  <SCORE.INTER.norm>
-0.546144

>  <SCORE.INTRA>
-0.363102

>  <SCORE.INTRA.DIHEDRAL>
0.191613

>  <SCORE.INTRA.DIHEDRAL.0>
3.20029

>  <SCORE.INTRA.POLAR>
0

>  <SCORE.INTRA.POLAR.0>
0

>  <SCORE.INTRA.REPUL>
0

>  <SCORE.INTRA.REPUL.0>
0

>  <SCORE.INTRA.SOLV>
0.384541

>  <SCORE.INTRA.SOLV.lig_0>
-19.3885

>  <SCORE.INTRA.VDW>
-0.651178

>  <SCORE.INTRA.VDW.0>
-1.12705

>  <SCORE.INTRA.norm>
-0.0201723

>  <SCORE.RESTR>
0

>  <SCORE.RESTR.CAVITY>
0

>  <SCORE.RESTR.norm>
0

>  <SCORE.SYSTEM>
0

>  <SCORE.SYSTEM.CONST>
0

>  <SCORE.SYSTEM.DIHEDRAL>
0

>  <SCORE.SYSTEM.SOLV>
0

>  <SCORE.SYSTEM.norm>
0

>  <SCORE.heavy>
18

>  <SCORE.norm>
-0.566317

>  <RMSD>
7.065

$$$$
lig.pdb
 OpenBabel11021811503D
libRbt.so/2013.1/901 2013/11/27
 18 19  0  0  0  0  0  0  0  0999 V2000
   -4.8529   18.9331   -1.1910 C   0  0  0  0  0  0  0  0  0  0  0  0
   -9.4417   18.1237    0.1582 N   0  0  0  0  0  0  0  0  0  0  0  0
  -11.4469   15.7505    2.8732 C   0  0  0  0  0  0  0  0  0  0  0  0
  -12.6620   10.9101    1.6871 O   0  0  0  0  0  0  0  0  0  0  0  0
  -11.4060   11.5368    1.9082 C   0  0  0  0  0  0  0  0  0  0  0  0
  -11.5405   12.6368    2.9791 C   0  0  0  0  0  0  0  0  0  0  0  0
   -7.8914   14.5913    2.7108 C   0  0  0  0  0  0  0  0  0  0  0  0
   -8.6161   13.0201    2.8120 S   0  0  0  0  0  0  0  0  0  0  0  0
  -10.3191   13.5246    2.8883 C   0  0  0  0  0  0  0  0  0  0  0  0
  -10.1944   14.8908    2.8360 C   0  0  0  0  0  0  0  0  0  0  0  0
   -8.9328   15.4127    2.7463 N   0  0  0  0  0  0  0  0  0  0  0  0
   -8.7024   16.8987    2.6637 C   0  0  0  0  0  0  0  0  0  0  0  0
   -8.0813   18.0102    0.4442 C   0  0  0  0  0  0  0  0  0  0  0  0
   -7.1573   18.4827   -0.4473 N   0  0  0  0  0  0  0  0  0  0  0  0
   -5.8490   18.3879   -0.1955 C   0  0  0  0  0  0  0  0  0  0  0  0
   -5.4128   17.8247    0.9349 N   0  0  0  0  0  0  0  0  0  0  0  0
   -6.2708   17.3365    1.8680 C   0  0  0  0  0  0  0  0  0  0  0  0
   -7.6532   17.4125    1.6644 C   0  0  0  0  0  0  0  0  0  0  0  0
  5  4  1  0  0  0  0
  5  6  1  0  0  0  0
  7  8  2  0  0  0  0
  7 11  1  0  0  0  0
  8  9  1  0  0  0  0
  9 10  2  0  0  0  0
  9  6  1  0  0  0  0
 10  3  1  0  0  0  0
 11 12  1  0  0  0  0
 11 10  1  0  0  0  0
 12 18  1  0  0  0  0
 13  2  1  0  0  0  0
 13 14  2  0  0  0  0
 15 14  1  0  0  0  0
 15  1  1  0  0  0  0
 16 15  2  0  0  0  0
 17 18  2  0  0  0  0
 17 16  1  0  0  0  0
 18 13  1  0  0  0  0
M  END
>  <CHROM.1>
-163.68668469,-48.20255653,41.56124401,103.84256167,-8.73425084,15.51911947
1.70476011,-0.92282338,0.04140099,2.73019801

>  <Name>
lig.pdb

>  <RI>
0

>  <Rbt.Current_Directory>
/home/itssahil/PROJECTS/Mol_Feturizer/New_Systems/rnas/4nyg

>  <Rbt.Executable>
rbdock ($Id: //depot/dev/client3/rdock/2013.1/src/exe/rbdock.cxx#4 $)

>  <Rbt.Library>
libRbt.so (2013.1, Build901 2013/11/27)

>  <Rbt.Parameter_File>
/export/apps/rDock/src/rDock_2013.1_src/data/scripts/dock_solv.prm

>  <Rbt.Receptor>
prm/blind_docking_100.prm

>  <SCORE>
-10.5672

>  <SCORE.INTER>
-11.113

>  <SCORE.INTER.CONST>
1

>  <SCORE.INTER.POLAR>
0

>  <SCORE.INTER.ROT>
4

>  <SCORE.INTER.SOLV>
14.6107

>  <SCORE.INTER.VDW>
-18.5455

>  <SCORE.INTER.norm>
-0.617386

>  <SCORE.INTRA>
0.532233

>  <SCORE.INTRA.DIHEDRAL>
1.0552

>  <SCORE.INTRA.DIHEDRAL.0>
3.20029

>  <SCORE.INTRA.POLAR>
0

>  <SCORE.INTRA.POLAR.0>
0

>  <SCORE.INTRA.REPUL>
0

>  <SCORE.INTRA.REPUL.0>
0

>  <SCORE.INTRA.SOLV>
0.289975

>  <SCORE.INTRA.SOLV.lig_0>
-19.3885

>  <SCORE.INTRA.VDW>
-0.140355

>  <SCORE.INTRA.VDW.0>
-1.12705

>  <SCORE.INTRA.norm>
0.0295685

>  <SCORE.RESTR>
0.0135183

>  <SCORE.RESTR.CAVITY>
0.0135183

>  <SCORE.RESTR.norm>
0.000751018

>  <SCORE.SYSTEM>
0

>  <SCORE.SYSTEM.CONST>
0

>  <SCORE.SYSTEM.DIHEDRAL>
0

>  <SCORE.SYSTEM.SOLV>
0

>  <SCORE.SYSTEM.norm>
0

>  <SCORE.heavy>
18

>  <SCORE.norm>
-0.587067

>  <RMSD>
7.069

$$$$
lig.pdb
 OpenBabel11021811503D
libRbt.so/2013.1/901 2013/11/27
 18 19  0  0  0  0  0  0  0  0999 V2000
   -3.1198   15.9678    0.4754 C   0  0  0  0  0  0  0  0  0  0  0  0
   -5.8084   14.1586    4.0852 N   0  0  0  0  0  0  0  0  0  0  0  0
  -10.5771   11.9305    2.5730 C   0  0  0  0  0  0  0  0  0  0  0  0
  -13.6208   16.1958    2.5219 O   0  0  0  0  0  0  0  0  0  0  0  0
  -13.6868   15.1525    3.4843 C   0  0  0  0  0  0  0  0  0  0  0  0
  -12.9651   13.8963    2.9589 C   0  0  0  0  0  0  0  0  0  0  0  0
   -9.1089   15.3738    2.5644 C   0  0  0  0  0  0  0  0  0  0  0  0
  -10.7603   15.8544    2.7783 S   0  0  0  0  0  0  0  0  0  0  0  0
  -11.5010   14.2383    2.7917 C   0  0  0  0  0  0  0  0  0  0  0  0
  -10.3982   13.4388    2.6200 C   0  0  0  0  0  0  0  0  0  0  0  0
   -9.1796   14.0501    2.5043 N   0  0  0  0  0  0  0  0  0  0  0  0
   -7.9142   13.2517    2.3336 C   0  0  0  0  0  0  0  0  0  0  0  0
   -5.6605   14.4003    2.7195 C   0  0  0  0  0  0  0  0  0  0  0  0
   -4.5404   15.0369    2.2590 N   0  0  0  0  0  0  0  0  0  0  0  0
   -4.3743   15.2779    0.9559 C   0  0  0  0  0  0  0  0  0  0  0  0
   -5.3030   14.9041    0.0710 N   0  0  0  0  0  0  0  0  0  0  0  0
   -6.4389   14.2649    0.4536 C   0  0  0  0  0  0  0  0  0  0  0  0
   -6.6673   13.9786    1.8041 C   0  0  0  0  0  0  0  0  0  0  0  0
  5  4  1  0  0  0  0
  5  6  1  0  0  0  0
  7  8  2  0  0  0  0
  7 11  1  0  0  0  0
  8  9  1  0  0  0  0
  9 10  2  0  0  0  0
  9  6  1  0  0  0  0
 10  3  1  0  0  0  0
 11 12  1  0  0  0  0
 11 10  1  0  0  0  0
 12 18  1  0  0  0  0
 13  2  1  0  0  0  0
 13 14  2  0  0  0  0
 15 14  1  0  0  0  0
 15  1  1  0  0  0  0
 16 15  2  0  0  0  0
 17 18  2  0  0  0  0
 17 16  1  0  0  0  0
 18 13  1  0  0  0  0
M  END
>  <CHROM.1>
63.97487018,-14.59045514,-18.71021367,99.95931047,-8.64389235,14.62795540
2.26205399,0.06738274,0.18501446,-0.27371111

>  <Name>
lig.pdb

>  <RI>
0

>  <Rbt.Current_Directory>
/home/itssahil/PROJECTS/Mol_Feturizer/New_Systems/rnas/4nyg

>  <Rbt.Executable>
rbdock ($Id: //depot/dev/client3/rdock/2013.1/src/exe/rbdock.cxx#4 $)

>  <Rbt.Library>
libRbt.so (2013.1, Build901 2013/11/27)

>  <Rbt.Parameter_File>
/export/apps/rDock/src/rDock_2013.1_src/data/scripts/dock_solv.prm

>  <Rbt.Receptor>
prm/pocket_docking_2.prm

>  <SCORE>
-14.0062

>  <SCORE.INTER>
-16.5539

>  <SCORE.INTER.CONST>
1

>  <SCORE.INTER.POLAR>
0

>  <SCORE.INTER.ROT>
4

>  <SCORE.INTER.SOLV>
8.46573

>  <SCORE.INTER.VDW>
-20.1245

>  <SCORE.INTER.norm>
-0.91966

>  <SCORE.INTRA>
2.26898

>  <SCORE.INTRA.DIHEDRAL>
2.34152

>  <SCORE.INTRA.DIHEDRAL.0>
3.20029

>  <SCORE.INTRA.POLAR>
0

>  <SCORE.INTRA.POLAR.0>
0

>  <SCORE.INTRA.REPUL>
0

>  <SCORE.INTRA.REPUL.0>
0

>  <SCORE.INTRA.SOLV>
0.701782

>  <SCORE.INTRA.SOLV.lig_0>
-19.3885

>  <SCORE.INTRA.VDW>
0.747327

>  <SCORE.INTRA.VDW.0>
-1.12705

>  <SCORE.INTRA.norm>
0.126054

>  <SCORE.RESTR>
0.278749

>  <SCORE.RESTR.CAVITY>
0.278749

>  <SCORE.RESTR.norm>
0.0154861

>  <SCORE.SYSTEM>
0

>  <SCORE.SYSTEM.CONST>
0

>  <SCORE.SYSTEM.DIHEDRAL>
0

>  <SCORE.SYSTEM.SOLV>
0

>  <SCORE.SYSTEM.norm>
0

>  <SCORE.heavy>
18

>  <SCORE.norm>
-0.77812

>  <RMSD>
7.114

$$$$
lig.pdb
 OpenBabel11021811503D
libRbt.so/2013.1/901 2013/11/27
 18 19  0  0  0  0  0  0  0  0999 V2000
   -3.3788   15.0819    3.0922 C   0  0  0  0  0  0  0  0  0  0  0  0
   -6.9277   15.2235   -0.2120 N   0  0  0  0  0  0  0  0  0  0  0  0
   -9.5079   15.8297    1.5028 C   0  0  0  0  0  0  0  0  0  0  0  0
  -14.0681   14.4946    3.5342 O   0  0  0  0  0  0  0  0  0  0  0  0
  -13.5964   15.6449    2.8461 C   0  0  0  0  0  0  0  0  0  0  0  0
  -12.1204   15.9102    3.2009 C   0  0  0  0  0  0  0  0  0  0  0  0
  -10.3203   12.2731    2.3409 C   0  0  0  0  0  0  0  0  0  0  0  0
  -11.6638   12.9917    3.1671 S   0  0  0  0  0  0  0  0  0  0  0  0
  -11.3189   14.6946    2.7908 C   0  0  0  0  0  0  0  0  0  0  0  0
  -10.1694   14.5757    2.0496 C   0  0  0  0  0  0  0  0  0  0  0  0
   -9.6769   13.3174    1.8348 N   0  0  0  0  0  0  0  0  0  0  0  0
   -8.4329   13.0906    1.0168 C   0  0  0  0  0  0  0  0  0  0  0  0
   -6.3974   14.6391    0.9381 C   0  0  0  0  0  0  0  0  0  0  0  0
   -5.2101   15.0917    1.4452 N   0  0  0  0  0  0  0  0  0  0  0  0
   -4.6827   14.5503    2.5464 C   0  0  0  0  0  0  0  0  0  0  0  0
   -5.3038   13.5492    3.1769 N   0  0  0  0  0  0  0  0  0  0  0  0
   -6.4869   13.0500    2.7340 C   0  0  0  0  0  0  0  0  0  0  0  0
   -7.0927   13.5799    1.5893 C   0  0  0  0  0  0  0  0  0  0  0  0
  5  4  1  0  0  0  0
  5  6  1  0  0  0  0
  7  8  2  0  0  0  0
  7 11  1  0  0  0  0
  8  9  1  0  0  0  0
  9 10  2  0  0  0  0
  9  6  1  0  0  0  0
 10  3  1  0  0  0  0
 11 12  1  0  0  0  0
 11 10  1  0  0  0  0
 12 18  1  0  0  0  0
 13  2  1  0  0  0  0
 13 14  2  0  0  0  0
 15 14  1  0  0  0  0
 15  1  1  0  0  0  0
 16 15  2  0  0  0  0
 17 18  2  0  0  0  0
 17 16  1  0  0  0  0
 18 13  1  0  0  0  0
M  END
>  <CHROM.1>
59.78883154,-49.60162208,-113.04055519,-113.65498685,-8.94604349,14.23892344
2.28288731,0.04904941,0.11708643,-0.34658026

>  <Name>
lig.pdb

>  <RI>
0

>  <Rbt.Current_Directory>
/home/itssahil/PROJECTS/Mol_Feturizer/New_Systems/rnas/4nyg

>  <Rbt.Executable>
rbdock ($Id: //depot/dev/client3/rdock/2013.1/src/exe/rbdock.cxx#4 $)

>  <Rbt.Library>
libRbt.so (2013.1, Build901 2013/11/27)

>  <Rbt.Parameter_File>
/export/apps/rDock/src/rDock_2013.1_src/data/scripts/dock_solv.prm

>  <Rbt.Receptor>
prm/pocket_docking_2.prm

>  <SCORE>
-15.0113

>  <SCORE.INTER>
-15.9498

>  <SCORE.INTER.CONST>
1

>  <SCORE.INTER.POLAR>
0

>  <SCORE.INTER.ROT>
4

>  <SCORE.INTER.SOLV>
8.97395

>  <SCORE.INTER.VDW>
-19.8912

>  <SCORE.INTER.norm>
-0.886102

>  <SCORE.INTRA>
0.454758

>  <SCORE.INTRA.DIHEDRAL>
0.0836128

>  <SCORE.INTRA.DIHEDRAL.0>
3.20029

>  <SCORE.INTRA.POLAR>
0

>  <SCORE.INTRA.POLAR.0>
0

>  <SCORE.INTRA.REPUL>
0

>  <SCORE.INTRA.REPUL.0>
0

>  <SCORE.INTRA.SOLV>
1.08831

>  <SCORE.INTRA.SOLV.lig_0>
-19.3885

>  <SCORE.INTRA.VDW>
-0.131206

>  <SCORE.INTRA.VDW.0>
-1.12705

>  <SCORE.INTRA.norm>
0.0252643

>  <SCORE.RESTR>
0.483776

>  <SCORE.RESTR.CAVITY>
0.483776

>  <SCORE.RESTR.norm>
0.0268765

>  <SCORE.SYSTEM>
0

>  <SCORE.SYSTEM.CONST>
0

>  <SCORE.SYSTEM.DIHEDRAL>
0

>  <SCORE.SYSTEM.SOLV>
0

>  <SCORE.SYSTEM.norm>
0

>  <SCORE.heavy>
18

>  <SCORE.norm>
-0.833961

>  <RMSD>
7.126

$$$$
lig.pdb
 OpenBabel11021811503D
libRbt.so/2013.1/901 2013/11/27
 18 19  0  0  0  0  0  0  0  0999 V2000
   -2.7687   14.9220    2.6790 C   0  0  0  0  0  0  0  0  0  0  0  0
   -6.6666   15.0870   -0.2039 N   0  0  0  0  0  0  0  0  0  0  0  0
  -10.6512   11.9046    2.4007 C   0  0  0  0  0  0  0  0  0  0  0  0
  -13.5053   16.1671    3.0039 O   0  0  0  0  0  0  0  0  0  0  0  0
  -13.8301   14.7974    2.8108 C   0  0  0  0  0  0  0  0  0  0  0  0
  -12.7814   13.8994    3.4955 C   0  0  0  0  0  0  0  0  0  0  0  0
   -9.2018   15.3277    1.9609 C   0  0  0  0  0  0  0  0  0  0  0  0
  -10.7044   15.8289    2.6647 S   0  0  0  0  0  0  0  0  0  0  0  0
  -11.4309   14.2228    2.8956 C   0  0  0  0  0  0  0  0  0  0  0  0
  -10.4435   13.4099    2.3965 C   0  0  0  0  0  0  0  0  0  0  0  0
   -9.3075   14.0057    1.9206 N   0  0  0  0  0  0  0  0  0  0  0  0
   -8.1647   13.1916    1.3734 C   0  0  0  0  0  0  0  0  0  0  0  0
   -6.0466   14.5560    0.9270 C   0  0  0  0  0  0  0  0  0  0  0  0
   -4.7777   14.9490    1.2545 N   0  0  0  0  0  0  0  0  0  0  0  0
   -4.1633   14.4570    2.3335 C   0  0  0  0  0  0  0  0  0  0  0  0
   -4.7755   13.5647    3.1174 N   0  0  0  0  0  0  0  0  0  0  0  0
   -6.0359   13.1302    2.8572 C   0  0  0  0  0  0  0  0  0  0  0  0
   -6.7340   13.6138    1.7450 C   0  0  0  0  0  0  0  0  0  0  0  0
  5  4  1  0  0  0  0
  5  6  1  0  0  0  0
  7  8  2  0  0  0  0
  7 11  1  0  0  0  0
  8  9  1  0  0  0  0
  9 10  2  0  0  0  0
  9  6  1  0  0  0  0
 10  3  1  0  0  0  0
 11 12  1  0  0  0  0
 11 10  1  0  0  0  0
 12 18  1  0  0  0  0
 13  2  1  0  0  0  0
 13 14  2  0  0  0  0
 15 14  1  0  0  0  0
 15  1  1  0  0  0  0
 16 15  2  0  0  0  0
 17 18  2  0  0  0  0
 17 16  1  0  0  0  0
 18 13  1  0  0  0  0
M  END
>  <CHROM.1>
-58.82303722,49.20828545,40.55455752,-88.96201894,-8.65708331,14.40283944
2.24633012,-0.03836044,0.11879959,-0.15820015

>  <Name>
lig.pdb

>  <RI>
0

>  <Rbt.Current_Directory>
/home/itssahil/PROJECTS/Mol_Feturizer/New_Systems/rnas/4nyg

>  <Rbt.Executable>
rbdock ($Id: //depot/dev/client3/rdock/2013.1/src/exe/rbdock.cxx#4 $)

>  <Rbt.Library>
libRbt.so (2013.1, Build901 2013/11/27)

>  <Rbt.Parameter_File>
/export/apps/rDock/src/rDock_2013.1_src/data/scripts/dock_solv.prm

>  <Rbt.Receptor>
prm/pocket_docking_2.prm

>  <SCORE>
-13.17

>  <SCORE.INTER>
-13.9994

>  <SCORE.INTER.CONST>
1

>  <SCORE.INTER.POLAR>
0

>  <SCORE.INTER.ROT>
4

>  <SCORE.INTER.SOLV>
8.01692

>  <SCORE.INTER.VDW>
-18.2719

>  <SCORE.INTER.norm>
-0.777744

>  <SCORE.INTRA>
0.598449

>  <SCORE.INTRA.DIHEDRAL>
0.0866855

>  <SCORE.INTRA.DIHEDRAL.0>
3.20029

>  <SCORE.INTRA.POLAR>
0

>  <SCORE.INTRA.POLAR.0>
0

>  <SCORE.INTRA.REPUL>
0

>  <SCORE.INTRA.REPUL.0>
0

>  <SCORE.INTRA.SOLV>
0.917997

>  <SCORE.INTRA.SOLV.lig_0>
-19.3885

>  <SCORE.INTRA.VDW>
0.0961077

>  <SCORE.INTRA.VDW.0>
-1.12705

>  <SCORE.INTRA.norm>
0.0332472

>  <SCORE.RESTR>
0.23093

>  <SCORE.RESTR.CAVITY>
0.23093

>  <SCORE.RESTR.norm>
0.0128294

>  <SCORE.SYSTEM>
0

>  <SCORE.SYSTEM.CONST>
0

>  <SCORE.SYSTEM.DIHEDRAL>
0

>  <SCORE.SYSTEM.SOLV>
0

>  <SCORE.SYSTEM.norm>
0

>  <SCORE.heavy>
18

>  <SCORE.norm>
-0.731667

>  <RMSD>
7.153

$$$$
lig.pdb
 OpenBabel11021811503D
libRbt.so/2013.1/901 2013/11/27
 18 19  0  0  0  0  0  0  0  0999 V2000
   -7.7323   19.2050   -0.5869 C   0  0  0  0  0  0  0  0  0  0  0  0
   -7.0305   16.1467    3.1126 N   0  0  0  0  0  0  0  0  0  0  0  0
  -10.6872   15.9734    3.0754 C   0  0  0  0  0  0  0  0  0  0  0  0
  -14.8187   16.7791    3.2133 O   0  0  0  0  0  0  0  0  0  0  0  0
  -13.7425   16.0204    2.6793 C   0  0  0  0  0  0  0  0  0  0  0  0
  -13.5187   14.7483    3.5198 C   0  0  0  0  0  0  0  0  0  0  0  0
  -10.4539   12.3901    2.0183 C   0  0  0  0  0  0  0  0  0  0  0  0
  -12.1235   12.3598    2.4825 S   0  0  0  0  0  0  0  0  0  0  0  0
  -12.2816   14.0555    2.9925 C   0  0  0  0  0  0  0  0  0  0  0  0
  -11.0095   14.5206    2.7680 C   0  0  0  0  0  0  0  0  0  0  0  0
  -10.0886   13.6411    2.2675 N   0  0  0  0  0  0  0  0  0  0  0  0
   -8.6752   14.0688    1.9716 C   0  0  0  0  0  0  0  0  0  0  0  0
   -7.6356   16.4051    1.8828 C   0  0  0  0  0  0  0  0  0  0  0  0
   -7.4274   17.6062    1.2616 N   0  0  0  0  0  0  0  0  0  0  0  0
   -7.9937   17.8768    0.0826 C   0  0  0  0  0  0  0  0  0  0  0  0
   -8.7810   16.9786   -0.5163 N   0  0  0  0  0  0  0  0  0  0  0  0
   -9.0308   15.7641    0.0385 C   0  0  0  0  0  0  0  0  0  0  0  0
   -8.4612   15.4195    1.2694 C   0  0  0  0  0  0  0  0  0  0  0  0
  5  4  1  0  0  0  0
  5  6  1  0  0  0  0
  7  8  2  0  0  0  0
  7 11  1  0  0  0  0
  8  9  1  0  0  0  0
  9 10  2  0  0  0  0
  9  6  1  0  0  0  0
 10  3  1  0  0  0  0
 11 12  1  0  0  0  0
 11 10  1  0  0  0  0
 12 18  1  0  0  0  0
 13  2  1  0  0  0  0
 13 14  2  0  0  0  0
 15 14  1  0  0  0  0
 15  1  1  0  0  0  0
 16 15  2  0  0  0  0
 17 18  2  0  0  0  0
 17 16  1  0  0  0  0
 18 13  1  0  0  0  0
M  END
>  <CHROM.1>
-174.42307649,-127.26146358,135.70691102,123.53824983,-10.27853554,15.36587526
1.91987128,0.60956137,0.28248189,-0.23338993

>  <Name>
lig.pdb

>  <RI>
0

>  <Rbt.Current_Directory>
/home/itssahil/PROJECTS/Mol_Feturizer/New_Systems/rnas/4nyg

>  <Rbt.Executable>
rbdock ($Id: //depot/dev/client3/rdock/2013.1/src/exe/rbdock.cxx#4 $)

>  <Rbt.Library>
libRbt.so (2013.1, Build901 2013/11/27)

>  <Rbt.Parameter_File>
/export/apps/rDock/src/rDock_2013.1_src/data/scripts/dock_solv.prm

>  <Rbt.Receptor>
prm/blind_docking_100.prm

>  <SCORE>
-18.651

>  <SCORE.INTER>
-21.7135

>  <SCORE.INTER.CONST>
1

>  <SCORE.INTER.POLAR>
0

>  <SCORE.INTER.ROT>
4

>  <SCORE.INTER.SOLV>
12.4805

>  <SCORE.INTER.VDW>
-24.9025

>  <SCORE.INTER.norm>
-1.20631

>  <SCORE.INTRA>
3.06258

>  <SCORE.INTRA.DIHEDRAL>
2.57879

>  <SCORE.INTRA.DIHEDRAL.0>
3.20029

>  <SCORE.INTRA.POLAR>
0

>  <SCORE.INTRA.POLAR.0>
0

>  <SCORE.INTRA.REPUL>
0

>  <SCORE.INTRA.REPUL.0>
0

>  <SCORE.INTRA.SOLV>
0.649804

>  <SCORE.INTRA.SOLV.lig_0>
-19.3885

>  <SCORE.INTRA.VDW>
1.44829

>  <SCORE.INTRA.VDW.0>
-1.12705

>  <SCORE.INTRA.norm>
0.170144

>  <SCORE.RESTR>
0

>  <SCORE.RESTR.CAVITY>
0

>  <SCORE.RESTR.norm>
0

>  <SCORE.SYSTEM>
0

>  <SCORE.SYSTEM.CONST>
0

>  <SCORE.SYSTEM.DIHEDRAL>
0

>  <SCORE.SYSTEM.SOLV>
0

>  <SCORE.SYSTEM.norm>
0

>  <SCORE.heavy>
18

>  <SCORE.norm>
-1.03616

>  <RMSD>
7.176

$$$$
lig.pdb
 OpenBabel11021811503D
libRbt.so/2013.1/901 2013/11/27
 18 19  0  0  0  0  0  0  0  0999 V2000
   -3.8486   14.1701    4.5841 C   0  0  0  0  0  0  0  0  0  0  0  0
   -7.1753   11.6318    2.1300 N   0  0  0  0  0  0  0  0  0  0  0  0
  -10.9180   12.2894    2.5706 C   0  0  0  0  0  0  0  0  0  0  0  0
  -14.3593   16.1027    3.9476 O   0  0  0  0  0  0  0  0  0  0  0  0
  -14.5135   14.8565    3.2826 C   0  0  0  0  0  0  0  0  0  0  0  0
  -13.3527   13.9107    3.6472 C   0  0  0  0  0  0  0  0  0  0  0  0
  -10.1238   15.8964    1.9621 C   0  0  0  0  0  0  0  0  0  0  0  0
  -11.6779   16.1470    2.6873 S   0  0  0  0  0  0  0  0  0  0  0  0
  -12.0958   14.4473    2.9987 C   0  0  0  0  0  0  0  0  0  0  0  0
  -10.9874   13.8059    2.5037 C   0  0  0  0  0  0  0  0  0  0  0  0
   -9.9883   14.5765    1.9747 N   0  0  0  0  0  0  0  0  0  0  0  0
   -8.7279   13.9600    1.4275 C   0  0  0  0  0  0  0  0  0  0  0  0
   -6.7248   12.8699    2.5878 C   0  0  0  0  0  0  0  0  0  0  0  0
   -5.5787   12.9440    3.3314 N   0  0  0  0  0  0  0  0  0  0  0  0
   -5.1255   14.1177    3.7795 C   0  0  0  0  0  0  0  0  0  0  0  0
   -5.7855   15.2485    3.5131 N   0  0  0  0  0  0  0  0  0  0  0  0
   -6.9281   15.2534    2.7786 C   0  0  0  0  0  0  0  0  0  0  0  0
   -7.4495   14.0560    2.2759 C   0  0  0  0  0  0  0  0  0  0  0  0
  5  4  1  0  0  0  0
  5  6  1  0  0  0  0
  7  8  2  0  0  0  0
  7 11  1  0  0  0  0
  8  9  1  0  0  0  0
  9 10  2  0  0  0  0
  9  6  1  0  0  0  0
 10  3  1  0  0  0  0
 11 12  1  0  0  0  0
 11 10  1  0  0  0  0
 12 18  1  0  0  0  0
 13  2  1  0  0  0  0
 13 14  2  0  0  0  0
 15 14  1  0  0  0  0
 15  1  1  0  0  0  0
 16 15  2  0  0  0  0
 17 18  2  0  0  0  0
 17 16  1  0  0  0  0
 18 13  1  0  0  0  0
M  END
>  <CHROM.1>
-69.91534453,32.25589534,74.80581892,126.38278910,-9.41599637,14.37996127
2.89368038,-0.16813626,-0.06255690,0.22937832

>  <Name>
lig.pdb

>  <RI>
0

>  <Rbt.Current_Directory>
/home/itssahil/PROJECTS/Mol_Feturizer/New_Systems/rnas/4nyg

>  <Rbt.Executable>
rbdock ($Id: //depot/dev/client3/rdock/2013.1/src/exe/rbdock.cxx#4 $)

>  <Rbt.Library>
libRbt.so (2013.1, Build901 2013/11/27)

>  <Rbt.Parameter_File>
/export/apps/rDock/src/rDock_2013.1_src/data/scripts/dock_solv.prm

>  <Rbt.Receptor>
prm/pocket_docking_3.prm

>  <SCORE>
-17.2994

>  <SCORE.INTER>
-18.2538

>  <SCORE.INTER.CONST>
1

>  <SCORE.INTER.POLAR>
0

>  <SCORE.INTER.ROT>
4

>  <SCORE.INTER.SOLV>
9.51189

>  <SCORE.INTER.VDW>
-21.6065

>  <SCORE.INTER.norm>
-1.0141

>  <SCORE.INTRA>
0.954465

>  <SCORE.INTRA.DIHEDRAL>
1.5301

>  <SCORE.INTRA.DIHEDRAL.0>
3.20029

>  <SCORE.INTRA.POLAR>
0

>  <SCORE.INTRA.POLAR.0>
0

>  <SCORE.INTRA.REPUL>
0

>  <SCORE.INTRA.REPUL.0>
0

>  <SCORE.INTRA.SOLV>
0.643459

>  <SCORE.INTRA.SOLV.lig_0>
-19.3885

>  <SCORE.INTRA.VDW>
-0.132315

>  <SCORE.INTRA.VDW.0>
-1.12705

>  <SCORE.INTRA.norm>
0.0530259

>  <SCORE.RESTR>
0

>  <SCORE.RESTR.CAVITY>
0

>  <SCORE.RESTR.norm>
0

>  <SCORE.SYSTEM>
0

>  <SCORE.SYSTEM.CONST>
0

>  <SCORE.SYSTEM.DIHEDRAL>
0

>  <SCORE.SYSTEM.SOLV>
0

>  <SCORE.SYSTEM.norm>
0

>  <SCORE.heavy>
18

>  <SCORE.norm>
-0.961076

>  <RMSD>
7.179

$$$$
lig.pdb
 OpenBabel11021811503D
libRbt.so/2013.1/901 2013/11/27
 18 19  0  0  0  0  0  0  0  0999 V2000
   -4.9840   16.6345   -0.0625 C   0  0  0  0  0  0  0  0  0  0  0  0
   -6.2681   14.3937    4.0439 N   0  0  0  0  0  0  0  0  0  0  0  0
   -9.6814   15.4796    2.9751 C   0  0  0  0  0  0  0  0  0  0  0  0
  -14.9755   15.9752    3.5991 O   0  0  0  0  0  0  0  0  0  0  0  0
  -14.0011   14.9413    3.5738 C   0  0  0  0  0  0  0  0  0  0  0  0
  -12.7869   15.3740    2.7292 C   0  0  0  0  0  0  0  0  0  0  0  0
  -10.5730   11.8715    2.5295 C   0  0  0  0  0  0  0  0  0  0  0  0
  -12.1910   12.4911    2.4819 S   0  0  0  0  0  0  0  0  0  0  0  0
  -11.8141   14.2162    2.6880 C   0  0  0  0  0  0  0  0  0  0  0  0
  -10.4452   14.1796    2.7866 C   0  0  0  0  0  0  0  0  0  0  0  0
   -9.8327   12.9590    2.7030 N   0  0  0  0  0  0  0  0  0  0  0  0
   -8.3346   12.8258    2.7806 C   0  0  0  0  0  0  0  0  0  0  0  0
   -6.4713   14.5763    2.6761 C   0  0  0  0  0  0  0  0  0  0  0  0
   -5.6944   15.4663    1.9861 N   0  0  0  0  0  0  0  0  0  0  0  0
   -5.8678   15.6574    0.6757 C   0  0  0  0  0  0  0  0  0  0  0  0
   -6.8091   14.9836    0.0085 N   0  0  0  0  0  0  0  0  0  0  0  0
   -7.6158   14.0816    0.6257 C   0  0  0  0  0  0  0  0  0  0  0  0
   -7.4783   13.8330    1.9959 C   0  0  0  0  0  0  0  0  0  0  0  0
  5  4  1  0  0  0  0
  5  6  1  0  0  0  0
  7  8  2  0  0  0  0
  7 11  1  0  0  0  0
  8  9  1  0  0  0  0
  9 10  2  0  0  0  0
  9  6  1  0  0  0  0
 10  3  1  0  0  0  0
 11 12  1  0  0  0  0
 11 10  1  0  0  0  0
 12 18  1  0  0  0  0
 13  2  1  0  0  0  0
 13 14  2  0  0  0  0
 15 14  1  0  0  0  0
 15  1  1  0  0  0  0
 16 15  2  0  0  0  0
 17 18  2  0  0  0  0
 17 16  1  0  0  0  0
 18 13  1  0  0  0  0
M  END
>  <CHROM.1>
-177.55398307,41.76031125,135.70468043,125.88576213,-9.47827079,14.34027994
2.29430416,0.16139848,0.22021287,-0.17096383

>  <Name>
lig.pdb

>  <RI>
0

>  <Rbt.Current_Directory>
/home/itssahil/PROJECTS/Mol_Feturizer/New_Systems/rnas/4nyg

>  <Rbt.Executable>
rbdock ($Id: //depot/dev/client3/rdock/2013.1/src/exe/rbdock.cxx#4 $)

>  <Rbt.Library>
libRbt.so (2013.1, Build901 2013/11/27)

>  <Rbt.Parameter_File>
/export/apps/rDock/src/rDock_2013.1_src/data/scripts/dock_solv.prm

>  <Rbt.Receptor>
prm/pocket_docking_3.prm

>  <SCORE>
-18.7921

>  <SCORE.INTER>
-19.8658

>  <SCORE.INTER.CONST>
1

>  <SCORE.INTER.POLAR>
0

>  <SCORE.INTER.ROT>
4

>  <SCORE.INTER.SOLV>
9.67271

>  <SCORE.INTER.VDW>
-22.7348

>  <SCORE.INTER.norm>
-1.10366

>  <SCORE.INTRA>
1.07374

>  <SCORE.INTRA.DIHEDRAL>
0.471777

>  <SCORE.INTRA.DIHEDRAL.0>
3.20029

>  <SCORE.INTRA.POLAR>
0

>  <SCORE.INTRA.POLAR.0>
0

>  <SCORE.INTRA.REPUL>
0

>  <SCORE.INTRA.REPUL.0>
0

>  <SCORE.INTRA.SOLV>
0.501075

>  <SCORE.INTRA.SOLV.lig_0>
-19.3885

>  <SCORE.INTRA.VDW>
0.587314

>  <SCORE.INTRA.VDW.0>
-1.12705

>  <SCORE.INTRA.norm>
0.0596522

>  <SCORE.RESTR>
0

>  <SCORE.RESTR.CAVITY>
0

>  <SCORE.RESTR.norm>
0

>  <SCORE.SYSTEM>
0

>  <SCORE.SYSTEM.CONST>
0

>  <SCORE.SYSTEM.DIHEDRAL>
0

>  <SCORE.SYSTEM.SOLV>
0

>  <SCORE.SYSTEM.norm>
0

>  <SCORE.heavy>
18

>  <SCORE.norm>
-1.04401

>  <RMSD>
7.187

$$$$
lig.pdb
 OpenBabel11021811503D
libRbt.so/2013.1/901 2013/11/27
 18 19  0  0  0  0  0  0  0  0999 V2000
   -3.6781   11.5527    2.1674 C   0  0  0  0  0  0  0  0  0  0  0  0
   -8.2535   10.2690    1.1925 N   0  0  0  0  0  0  0  0  0  0  0  0
  -12.3364   12.7787    3.0660 C   0  0  0  0  0  0  0  0  0  0  0  0
  -14.4453   17.5857    3.5184 O   0  0  0  0  0  0  0  0  0  0  0  0
  -13.1531   16.9979    3.4589 C   0  0  0  0  0  0  0  0  0  0  0  0
  -13.1810   15.7381    2.5718 C   0  0  0  0  0  0  0  0  0  0  0  0
   -9.1755   14.6718    2.4054 C   0  0  0  0  0  0  0  0  0  0  0  0
  -10.2589   16.0141    2.2366 S   0  0  0  0  0  0  0  0  0  0  0  0
  -11.7847   15.1565    2.5477 C   0  0  0  0  0  0  0  0  0  0  0  0
  -11.3331   13.8766    2.7546 C   0  0  0  0  0  0  0  0  0  0  0  0
   -9.9853   13.6555    2.6739 N   0  0  0  0  0  0  0  0  0  0  0  0
   -9.3991   12.2879    2.9061 C   0  0  0  0  0  0  0  0  0  0  0  0
   -7.3747   11.1023    1.8845 C   0  0  0  0  0  0  0  0  0  0  0  0
   -6.0246   10.9486    1.7256 N   0  0  0  0  0  0  0  0  0  0  0  0
   -5.1627   11.7353    2.3753 C   0  0  0  0  0  0  0  0  0  0  0  0
   -5.6018   12.6907    3.1998 N   0  0  0  0  0  0  0  0  0  0  0  0
   -6.9275   12.9043    3.4048 C   0  0  0  0  0  0  0  0  0  0  0  0
   -7.8795   12.1168    2.7478 C   0  0  0  0  0  0  0  0  0  0  0  0
  5  4  1  0  0  0  0
  5  6  1  0  0  0  0
  7  8  2  0  0  0  0
  7 11  1  0  0  0  0
  8  9  1  0  0  0  0
  9 10  2  0  0  0  0
  9  6  1  0  0  0  0
 10  3  1  0  0  0  0
 11 12  1  0  0  0  0
 11 10  1  0  0  0  0
 12 18  1  0  0  0  0
 13  2  1  0  0  0  0
 13 14  2  0  0  0  0
 15 14  1  0  0  0  0
 15  1  1  0  0  0  0
 16 15  2  0  0  0  0
 17 18  2  0  0  0  0
 17 16  1  0  0  0  0
 18 13  1  0  0  0  0
M  END
>  <CHROM.1>
-179.90876352,-48.88932754,-3.13705709,-126.77339606,-9.35033436,13.66950737
2.58710035,-0.59232125,0.00231385,0.14922053

>  <Name>
lig.pdb

>  <RI>
0

>  <Rbt.Current_Directory>
/home/itssahil/PROJECTS/Mol_Feturizer/New_Systems/rnas/4nyg

>  <Rbt.Executable>
rbdock ($Id: //depot/dev/client3/rdock/2013.1/src/exe/rbdock.cxx#4 $)

>  <Rbt.Library>
libRbt.so (2013.1, Build901 2013/11/27)

>  <Rbt.Parameter_File>
/export/apps/rDock/src/rDock_2013.1_src/data/scripts/dock_solv.prm

>  <Rbt.Receptor>
prm/pocket_docking_7.prm

>  <SCORE>
-15.3808

>  <SCORE.INTER>
-16.0593

>  <SCORE.INTER.CONST>
1

>  <SCORE.INTER.POLAR>
0

>  <SCORE.INTER.ROT>
4

>  <SCORE.INTER.SOLV>
12.1644

>  <SCORE.INTER.VDW>
-21.0277

>  <SCORE.INTER.norm>
-0.892184

>  <SCORE.INTRA>
0.676319

>  <SCORE.INTRA.DIHEDRAL>
0.143307

>  <SCORE.INTRA.DIHEDRAL.0>
3.20029

>  <SCORE.INTRA.POLAR>
0

>  <SCORE.INTRA.POLAR.0>
0

>  <SCORE.INTRA.REPUL>
0

>  <SCORE.INTRA.REPUL.0>
0

>  <SCORE.INTRA.SOLV>
0.0758573

>  <SCORE.INTRA.SOLV.lig_0>
-19.3885

>  <SCORE.INTRA.VDW>
0.566737

>  <SCORE.INTRA.VDW.0>
-1.12705

>  <SCORE.INTRA.norm>
0.0375733

>  <SCORE.RESTR>
0.0022063

>  <SCORE.RESTR.CAVITY>
0.0022063

>  <SCORE.RESTR.norm>
0.000122572

>  <SCORE.SYSTEM>
0

>  <SCORE.SYSTEM.CONST>
0

>  <SCORE.SYSTEM.DIHEDRAL>
0

>  <SCORE.SYSTEM.SOLV>
0

>  <SCORE.SYSTEM.norm>
0

>  <SCORE.heavy>
18

>  <SCORE.norm>
-0.854488

>  <RMSD>
7.190

$$$$
lig.pdb
 OpenBabel11021811503D
libRbt.so/2013.1/901 2013/11/27
 18 19  0  0  0  0  0  0  0  0999 V2000
   -5.6122   17.3043    0.2200 C   0  0  0  0  0  0  0  0  0  0  0  0
   -8.9721   13.8120    0.0024 N   0  0  0  0  0  0  0  0  0  0  0  0
  -10.0524   15.9598    2.9170 C   0  0  0  0  0  0  0  0  0  0  0  0
  -15.0323   14.7189    3.7229 O   0  0  0  0  0  0  0  0  0  0  0  0
  -14.1703   15.8173    3.9864 C   0  0  0  0  0  0  0  0  0  0  0  0
  -13.1679   15.9975    2.8299 C   0  0  0  0  0  0  0  0  0  0  0  0
  -11.1370   12.3813    2.7458 C   0  0  0  0  0  0  0  0  0  0  0  0
  -12.7239   13.0783    2.7377 S   0  0  0  0  0  0  0  0  0  0  0  0
  -12.2550   14.7913    2.8151 C   0  0  0  0  0  0  0  0  0  0  0  0
  -10.8861   14.6912    2.8490 C   0  0  0  0  0  0  0  0  0  0  0  0
  -10.3377   13.4382    2.8136 N   0  0  0  0  0  0  0  0  0  0  0  0
   -8.8457   13.2340    2.8264 C   0  0  0  0  0  0  0  0  0  0  0  0
   -8.0738   14.5505    0.7725 C   0  0  0  0  0  0  0  0  0  0  0  0
   -7.3033   15.5141    0.1812 N   0  0  0  0  0  0  0  0  0  0  0  0
   -6.4374   16.2362    0.8973 C   0  0  0  0  0  0  0  0  0  0  0  0
   -6.3022   16.0303    2.2105 N   0  0  0  0  0  0  0  0  0  0  0  0
   -7.0353   15.0937    2.8666 C   0  0  0  0  0  0  0  0  0  0  0  0
   -7.9637   14.3100    2.1723 C   0  0  0  0  0  0  0  0  0  0  0  0
  5  4  1  0  0  0  0
  5  6  1  0  0  0  0
  7  8  2  0  0  0  0
  7 11  1  0  0  0  0
  8  9  1  0  0  0  0
  9 10  2  0  0  0  0
  9  6  1  0  0  0  0
 10  3  1  0  0  0  0
 11 12  1  0  0  0  0
 11 10  1  0  0  0  0
 12 18  1  0  0  0  0
 13  2  1  0  0  0  0
 13 14  2  0  0  0  0
 15 14  1  0  0  0  0
 15  1  1  0  0  0  0
 16 15  2  0  0  0  0
 17 18  2  0  0  0  0
 17 16  1  0  0  0  0
 18 13  1  0  0  0  0
M  END
>  <CHROM.1>
-66.35770624,54.46988227,147.80605762,-63.82659552,-10.05228672,14.72874085
2.24888482,0.17719771,0.32120272,0.04650120

>  <Name>
lig.pdb

>  <RI>
0

>  <Rbt.Current_Directory>
/home/itssahil/PROJECTS/Mol_Feturizer/New_Systems/rnas/4nyg

>  <Rbt.Executable>
rbdock ($Id: //depot/dev/client3/rdock/2013.1/src/exe/rbdock.cxx#4 $)

>  <Rbt.Library>
libRbt.so (2013.1, Build901 2013/11/27)

>  <Rbt.Parameter_File>
/export/apps/rDock/src/rDock_2013.1_src/data/scripts/dock_solv.prm

>  <Rbt.Receptor>
prm/blind_docking_100.prm

>  <SCORE>
-18.7222

>  <SCORE.INTER>
-21.4953

>  <SCORE.INTER.CONST>
1

>  <SCORE.INTER.POLAR>
0

>  <SCORE.INTER.ROT>
4

>  <SCORE.INTER.SOLV>
11.838

>  <SCORE.INTER.VDW>
-24.5429

>  <SCORE.INTER.norm>
-1.19418

>  <SCORE.INTRA>
2.77307

>  <SCORE.INTRA.DIHEDRAL>
0.065669

>  <SCORE.INTRA.DIHEDRAL.0>
3.20029

>  <SCORE.INTRA.POLAR>
0

>  <SCORE.INTRA.POLAR.0>
0

>  <SCORE.INTRA.REPUL>
0

>  <SCORE.INTRA.REPUL.0>
0

>  <SCORE.INTRA.SOLV>
1.65898

>  <SCORE.INTRA.SOLV.lig_0>
-19.3885

>  <SCORE.INTRA.VDW>
1.91074

>  <SCORE.INTRA.VDW.0>
-1.12705

>  <SCORE.INTRA.norm>
0.154059

>  <SCORE.RESTR>
0

>  <SCORE.RESTR.CAVITY>
0

>  <SCORE.RESTR.norm>
0

>  <SCORE.SYSTEM>
0

>  <SCORE.SYSTEM.CONST>
0

>  <SCORE.SYSTEM.DIHEDRAL>
0

>  <SCORE.SYSTEM.SOLV>
0

>  <SCORE.SYSTEM.norm>
0

>  <SCORE.heavy>
18

>  <SCORE.norm>
-1.04012

>  <RMSD>
7.204

$$$$
lig.pdb
 OpenBabel11021811503D
libRbt.so/2013.1/901 2013/11/27
 18 19  0  0  0  0  0  0  0  0999 V2000
   -5.6286   17.2294    0.1699 C   0  0  0  0  0  0  0  0  0  0  0  0
   -9.0018   13.7457    0.0349 N   0  0  0  0  0  0  0  0  0  0  0  0
  -10.1002   15.9729    2.9378 C   0  0  0  0  0  0  0  0  0  0  0  0
  -15.0490   14.7303    3.7548 O   0  0  0  0  0  0  0  0  0  0  0  0
  -14.2062   15.8534    3.9719 C   0  0  0  0  0  0  0  0  0  0  0  0
  -13.2140   16.0090    2.8030 C   0  0  0  0  0  0  0  0  0  0  0  0
  -11.1807   12.3934    2.7621 C   0  0  0  0  0  0  0  0  0  0  0  0
  -12.7675   13.0897    2.7275 S   0  0  0  0  0  0  0  0  0  0  0  0
  -12.3005   14.8032    2.8062 C   0  0  0  0  0  0  0  0  0  0  0  0
  -10.9323   14.7038    2.8613 C   0  0  0  0  0  0  0  0  0  0  0  0
  -10.3829   13.4509    2.8384 N   0  0  0  0  0  0  0  0  0  0  0  0
   -8.8912   13.2474    2.8747 C   0  0  0  0  0  0  0  0  0  0  0  0
   -8.1042   14.5022    0.7882 C   0  0  0  0  0  0  0  0  0  0  0  0
   -7.3269   15.4456    0.1736 N   0  0  0  0  0  0  0  0  0  0  0  0
   -6.4615   16.1842    0.8732 C   0  0  0  0  0  0  0  0  0  0  0  0
   -6.3334   16.0150    2.1924 N   0  0  0  0  0  0  0  0  0  0  0  0
   -7.0735   15.1003    2.8711 C   0  0  0  0  0  0  0  0  0  0  0  0
   -8.0017   14.3009    2.1947 C   0  0  0  0  0  0  0  0  0  0  0  0
  5  4  1  0  0  0  0
  5  6  1  0  0  0  0
  7  8  2  0  0  0  0
  7 11  1  0  0  0  0
  8  9  1  0  0  0  0
  9 10  2  0  0  0  0
  9  6  1  0  0  0  0
 10  3  1  0  0  0  0
 11 12  1  0  0  0  0
 11 10  1  0  0  0  0
 12 18  1  0  0  0  0
 13  2  1  0  0  0  0
 13 14  2  0  0  0  0
 15 14  1  0  0  0  0
 15  1  1  0  0  0  0
 16 15  2  0  0  0  0
 17 18  2  0  0  0  0
 17 16  1  0  0  0  0
 18 13  1  0  0  0  0
M  END
>  <CHROM.1>
-64.99270271,56.19681883,146.06095533,-63.30491139,-10.08856174,14.72024967
2.25178708,0.16682725,0.32286379,0.04945861

>  <Name>
lig.pdb

>  <RI>
0

>  <Rbt.Current_Directory>
/home/itssahil/PROJECTS/Mol_Feturizer/New_Systems/rnas/4nyg

>  <Rbt.Executable>
rbdock ($Id: //depot/dev/client3/rdock/2013.1/src/exe/rbdock.cxx#4 $)

>  <Rbt.Library>
libRbt.so (2013.1, Build901 2013/11/27)

>  <Rbt.Parameter_File>
/export/apps/rDock/src/rDock_2013.1_src/data/scripts/dock_solv.prm

>  <Rbt.Receptor>
prm/pocket_docking_6.prm

>  <SCORE>
-18.7839

>  <SCORE.INTER>
-21.183

>  <SCORE.INTER.CONST>
1

>  <SCORE.INTER.POLAR>
0

>  <SCORE.INTER.ROT>
4

>  <SCORE.INTER.SOLV>
11.9056

>  <SCORE.INTER.VDW>
-24.3572

>  <SCORE.INTER.norm>
-1.17683

>  <SCORE.INTRA>
2.39913

>  <SCORE.INTRA.DIHEDRAL>
-0.0217881

>  <SCORE.INTRA.DIHEDRAL.0>
3.20029

>  <SCORE.INTRA.POLAR>
0

>  <SCORE.INTRA.POLAR.0>
0

>  <SCORE.INTRA.REPUL>
0

>  <SCORE.INTRA.REPUL.0>
0

>  <SCORE.INTRA.SOLV>
1.64992

>  <SCORE.INTRA.SOLV.lig_0>
-19.3885

>  <SCORE.INTRA.VDW>
1.58506

>  <SCORE.INTRA.VDW.0>
-1.12705

>  <SCORE.INTRA.norm>
0.133285

>  <SCORE.RESTR>
0

>  <SCORE.RESTR.CAVITY>
0

>  <SCORE.RESTR.norm>
0

>  <SCORE.SYSTEM>
0

>  <SCORE.SYSTEM.CONST>
0

>  <SCORE.SYSTEM.DIHEDRAL>
0

>  <SCORE.SYSTEM.SOLV>
0

>  <SCORE.SYSTEM.norm>
0

>  <SCORE.heavy>
18

>  <SCORE.norm>
-1.04355

>  <RMSD>
7.218

$$$$
lig.pdb
 OpenBabel11021811503D
libRbt.so/2013.1/901 2013/11/27
 18 19  0  0  0  0  0  0  0  0999 V2000
   -4.5503   13.3387    4.2044 C   0  0  0  0  0  0  0  0  0  0  0  0
   -8.8904   11.2166    3.7655 N   0  0  0  0  0  0  0  0  0  0  0  0
  -10.0153   15.8883    1.9088 C   0  0  0  0  0  0  0  0  0  0  0  0
  -14.8520   16.5224    2.3989 O   0  0  0  0  0  0  0  0  0  0  0  0
  -14.1463   16.7691    3.6072 C   0  0  0  0  0  0  0  0  0  0  0  0
  -12.6287   16.8012    3.3411 C   0  0  0  0  0  0  0  0  0  0  0  0
  -11.8862   12.7610    2.7639 C   0  0  0  0  0  0  0  0  0  0  0  0
  -13.0311   13.8761    3.4345 S   0  0  0  0  0  0  0  0  0  0  0  0
  -12.1794   15.3873    3.0456 C   0  0  0  0  0  0  0  0  0  0  0  0
  -11.0541   14.9060    2.4237 C   0  0  0  0  0  0  0  0  0  0  0  0
  -10.9285   13.5498    2.2936 N   0  0  0  0  0  0  0  0  0  0  0  0
   -9.7376   12.9342    1.6075 C   0  0  0  0  0  0  0  0  0  0  0  0
   -8.0003   12.2015    3.3373 C   0  0  0  0  0  0  0  0  0  0  0  0
   -6.7738   12.3149    3.9328 N   0  0  0  0  0  0  0  0  0  0  0  0
   -5.9031   13.2481    3.5394 C   0  0  0  0  0  0  0  0  0  0  0  0
   -6.2133   14.0961    2.5545 N   0  0  0  0  0  0  0  0  0  0  0  0
   -7.4103   14.0417    1.9146 C   0  0  0  0  0  0  0  0  0  0  0  0
   -8.3618   13.0819    2.2774 C   0  0  0  0  0  0  0  0  0  0  0  0
  5  4  1  0  0  0  0
  5  6  1  0  0  0  0
  7  8  2  0  0  0  0
  7 11  1  0  0  0  0
  8  9  1  0  0  0  0
  9 10  2  0  0  0  0
  9  6  1  0  0  0  0
 10  3  1  0  0  0  0
 11 12  1  0  0  0  0
 11 10  1  0  0  0  0
 12 18  1  0  0  0  0
 13  2  1  0  0  0  0
 13 14  2  0  0  0  0
 15 14  1  0  0  0  0
 15  1  1  0  0  0  0
 16 15  2  0  0  0  0
 17 18  2  0  0  0  0
 17 16  1  0  0  0  0
 18 13  1  0  0  0  0
M  END
>  <CHROM.1>
-71.25868410,-18.81076644,-114.45534972,81.25444432,-10.07800825,14.07915735
2.94552501,-0.36233906,0.00542923,-0.13185264

>  <Name>
lig.pdb

>  <RI>
0

>  <Rbt.Current_Directory>
/home/itssahil/PROJECTS/Mol_Feturizer/New_Systems/rnas/4nyg

>  <Rbt.Executable>
rbdock ($Id: //depot/dev/client3/rdock/2013.1/src/exe/rbdock.cxx#4 $)

>  <Rbt.Library>
libRbt.so (2013.1, Build901 2013/11/27)

>  <Rbt.Parameter_File>
/export/apps/rDock/src/rDock_2013.1_src/data/scripts/dock_solv.prm

>  <Rbt.Receptor>
prm/pocket_docking_4.prm

>  <SCORE>
-18.8754

>  <SCORE.INTER>
-20.6245

>  <SCORE.INTER.CONST>
1

>  <SCORE.INTER.POLAR>
0

>  <SCORE.INTER.ROT>
4

>  <SCORE.INTER.SOLV>
12.0242

>  <SCORE.INTER.VDW>
-24.0244

>  <SCORE.INTER.norm>
-1.14581

>  <SCORE.INTRA>
1.74802

>  <SCORE.INTRA.DIHEDRAL>
2.44451

>  <SCORE.INTRA.DIHEDRAL.0>
3.20029

>  <SCORE.INTRA.POLAR>
0

>  <SCORE.INTRA.POLAR.0>
0

>  <SCORE.INTRA.REPUL>
0

>  <SCORE.INTRA.REPUL.0>
0

>  <SCORE.INTRA.SOLV>
0.906626

>  <SCORE.INTRA.SOLV.lig_0>
-19.3885

>  <SCORE.INTRA.VDW>
0.0724456

>  <SCORE.INTRA.VDW.0>
-1.12705

>  <SCORE.INTRA.norm>
0.097112

>  <SCORE.RESTR>
0.00112895

>  <SCORE.RESTR.CAVITY>
0.00112895

>  <SCORE.RESTR.norm>
6.27192e-05

>  <SCORE.SYSTEM>
0

>  <SCORE.SYSTEM.CONST>
0

>  <SCORE.SYSTEM.DIHEDRAL>
0

>  <SCORE.SYSTEM.SOLV>
0

>  <SCORE.SYSTEM.norm>
0

>  <SCORE.heavy>
18

>  <SCORE.norm>
-1.04863

>  <RMSD>
7.219

$$$$
lig.pdb
 OpenBabel11021811503D
libRbt.so/2013.1/901 2013/11/27
 18 19  0  0  0  0  0  0  0  0999 V2000
   -3.6341   14.6147    0.4959 C   0  0  0  0  0  0  0  0  0  0  0  0
   -6.9836   11.7329    2.4981 N   0  0  0  0  0  0  0  0  0  0  0  0
  -11.7390   12.1157    2.4211 C   0  0  0  0  0  0  0  0  0  0  0  0
  -13.8821   16.7732    3.5313 O   0  0  0  0  0  0  0  0  0  0  0  0
  -14.3888   15.4963    3.1683 C   0  0  0  0  0  0  0  0  0  0  0  0
  -13.4576   14.3851    3.6907 C   0  0  0  0  0  0  0  0  0  0  0  0
   -9.8549   15.2991    1.8483 C   0  0  0  0  0  0  0  0  0  0  0  0
  -11.2035   16.0041    2.6781 S   0  0  0  0  0  0  0  0  0  0  0  0
  -12.1312   14.5170    2.9753 C   0  0  0  0  0  0  0  0  0  0  0  0
  -11.3178   13.5755    2.3949 C   0  0  0  0  0  0  0  0  0  0  0  0
  -10.1530   14.0064    1.8209 N   0  0  0  0  0  0  0  0  0  0  0  0
   -9.1907   13.0419    1.1791 C   0  0  0  0  0  0  0  0  0  0  0  0
   -6.6885   12.8081    1.6601 C   0  0  0  0  0  0  0  0  0  0  0  0
   -5.3883   13.1955    1.4833 N   0  0  0  0  0  0  0  0  0  0  0  0
   -5.0797   14.2204    0.6845 C   0  0  0  0  0  0  0  0  0  0  0  0
   -6.0376   14.8940    0.0410 N   0  0  0  0  0  0  0  0  0  0  0  0
   -7.3497   14.5650    0.1651 C   0  0  0  0  0  0  0  0  0  0  0  0
   -7.7354   13.4967    0.9825 C   0  0  0  0  0  0  0  0  0  0  0  0
  5  4  1  0  0  0  0
  5  6  1  0  0  0  0
  7  8  2  0  0  0  0
  7 11  1  0  0  0  0
  8  9  1  0  0  0  0
  9 10  2  0  0  0  0
  9  6  1  0  0  0  0
 10  3  1  0  0  0  0
 11 12  1  0  0  0  0
 11 10  1  0  0  0  0
 12 18  1  0  0  0  0
 13  2  1  0  0  0  0
 13 14  2  0  0  0  0
 15 14  1  0  0  0  0
 15  1  1  0  0  0  0
 16 15  2  0  0  0  0
 17 18  2  0  0  0  0
 17 16  1  0  0  0  0
 18 13  1  0  0  0  0
M  END
>  <CHROM.1>
-65.08036156,45.22791070,18.97300727,116.69608831,-9.42284851,14.30395936
1.94978108,-0.14757018,0.31113150,-0.11603625

>  <Name>
lig.pdb

>  <RI>
0

>  <Rbt.Current_Directory>
/home/itssahil/PROJECTS/Mol_Feturizer/New_Systems/rnas/4nyg

>  <Rbt.Executable>
rbdock ($Id: //depot/dev/client3/rdock/2013.1/src/exe/rbdock.cxx#4 $)

>  <Rbt.Library>
libRbt.so (2013.1, Build901 2013/11/27)

>  <Rbt.Parameter_File>
/export/apps/rDock/src/rDock_2013.1_src/data/scripts/dock_solv.prm

>  <Rbt.Receptor>
prm/pocket_docking_3.prm

>  <SCORE>
-19.8923

>  <SCORE.INTER>
-20.7822

>  <SCORE.INTER.CONST>
1

>  <SCORE.INTER.POLAR>
0

>  <SCORE.INTER.ROT>
4

>  <SCORE.INTER.SOLV>
10.5126

>  <SCORE.INTER.VDW>
-23.6257

>  <SCORE.INTER.norm>
-1.15457

>  <SCORE.INTRA>
0.889886

>  <SCORE.INTRA.DIHEDRAL>
0.352184

>  <SCORE.INTRA.DIHEDRAL.0>
3.20029

>  <SCORE.INTRA.POLAR>
0

>  <SCORE.INTRA.POLAR.0>
0

>  <SCORE.INTRA.REPUL>
0

>  <SCORE.INTRA.REPUL.0>
0

>  <SCORE.INTRA.SOLV>
0.523055

>  <SCORE.INTRA.SOLV.lig_0>
-19.3885

>  <SCORE.INTRA.VDW>
0.452266

>  <SCORE.INTRA.VDW.0>
-1.12705

>  <SCORE.INTRA.norm>
0.0494381

>  <SCORE.RESTR>
0

>  <SCORE.RESTR.CAVITY>
0

>  <SCORE.RESTR.norm>
0

>  <SCORE.SYSTEM>
0

>  <SCORE.SYSTEM.CONST>
0

>  <SCORE.SYSTEM.DIHEDRAL>
0

>  <SCORE.SYSTEM.SOLV>
0

>  <SCORE.SYSTEM.norm>
0

>  <SCORE.heavy>
18

>  <SCORE.norm>
-1.10513

>  <RMSD>
7.223

$$$$
lig.pdb
 OpenBabel11021811503D
libRbt.so/2013.1/901 2013/11/27
 18 19  0  0  0  0  0  0  0  0999 V2000
   -3.6289   14.8483    0.4735 C   0  0  0  0  0  0  0  0  0  0  0  0
   -6.8571   11.9473    2.6402 N   0  0  0  0  0  0  0  0  0  0  0  0
  -11.6726   12.0966    2.4171 C   0  0  0  0  0  0  0  0  0  0  0  0
  -13.9348   16.7167    3.5478 O   0  0  0  0  0  0  0  0  0  0  0  0
  -14.3989   15.4455    3.1147 C   0  0  0  0  0  0  0  0  0  0  0  0
  -13.4693   14.3327    3.6367 C   0  0  0  0  0  0  0  0  0  0  0  0
   -9.8408   15.3171    1.8835 C   0  0  0  0  0  0  0  0  0  0  0  0
  -11.2243   15.9958    2.6770 S   0  0  0  0  0  0  0  0  0  0  0  0
  -12.1283   14.4904    2.9547 C   0  0  0  0  0  0  0  0  0  0  0  0
  -11.2811   13.5647    2.3976 C   0  0  0  0  0  0  0  0  0  0  0  0
  -10.1113   14.0185    1.8521 N   0  0  0  0  0  0  0  0  0  0  0  0
   -9.1133   13.0727    1.2374 C   0  0  0  0  0  0  0  0  0  0  0  0
   -6.6058   12.9813    1.7385 C   0  0  0  0  0  0  0  0  0  0  0  0
   -5.3232   13.4151    1.5416 N   0  0  0  0  0  0  0  0  0  0  0  0
   -5.0564   14.4019    0.6821 C   0  0  0  0  0  0  0  0  0  0  0  0
   -6.0399   14.9911   -0.0041 N   0  0  0  0  0  0  0  0  0  0  0  0
   -7.3366   14.6118    0.1366 C   0  0  0  0  0  0  0  0  0  0  0  0
   -7.6787   13.5794    1.0171 C   0  0  0  0  0  0  0  0  0  0  0  0
  5  4  1  0  0  0  0
  5  6  1  0  0  0  0
  7  8  2  0  0  0  0
  7 11  1  0  0  0  0
  8  9  1  0  0  0  0
  9 10  2  0  0  0  0
  9  6  1  0  0  0  0
 10  3  1  0  0  0  0
 11 12  1  0  0  0  0
 11 10  1  0  0  0  0
 12 18  1  0  0  0  0
 13  2  1  0  0  0  0
 13 14  2  0  0  0  0
 15 14  1  0  0  0  0
 15  1  1  0  0  0  0
 16 15  2  0  0  0  0
 17 18  2  0  0  0  0
 17 16  1  0  0  0  0
 18 13  1  0  0  0  0
M  END
>  <CHROM.1>
-66.82559317,43.79867153,16.21595349,115.00896257,-9.39858411,14.35845582
1.96103450,-0.11343875,0.30438503,-0.13828283

>  <Name>
lig.pdb

>  <RI>
0

>  <Rbt.Current_Directory>
/home/itssahil/PROJECTS/Mol_Feturizer/New_Systems/rnas/4nyg

>  <Rbt.Executable>
rbdock ($Id: //depot/dev/client3/rdock/2013.1/src/exe/rbdock.cxx#4 $)

>  <Rbt.Library>
libRbt.so (2013.1, Build901 2013/11/27)

>  <Rbt.Parameter_File>
/export/apps/rDock/src/rDock_2013.1_src/data/scripts/dock_solv.prm

>  <Rbt.Receptor>
prm/pocket_docking_3.prm

>  <SCORE>
-19.9476

>  <SCORE.INTER>
-20.8618

>  <SCORE.INTER.CONST>
1

>  <SCORE.INTER.POLAR>
0

>  <SCORE.INTER.ROT>
4

>  <SCORE.INTER.SOLV>
10.2072

>  <SCORE.INTER.VDW>
-23.5769

>  <SCORE.INTER.norm>
-1.15899

>  <SCORE.INTRA>
0.91414

>  <SCORE.INTRA.DIHEDRAL>
0.508555

>  <SCORE.INTRA.DIHEDRAL.0>
3.20029

>  <SCORE.INTRA.POLAR>
0

>  <SCORE.INTRA.POLAR.0>
0

>  <SCORE.INTRA.REPUL>
0

>  <SCORE.INTRA.REPUL.0>
0

>  <SCORE.INTRA.SOLV>
0.513442

>  <SCORE.INTRA.SOLV.lig_0>
-19.3885

>  <SCORE.INTRA.VDW>
0.403141

>  <SCORE.INTRA.VDW.0>
-1.12705

>  <SCORE.INTRA.norm>
0.0507855

>  <SCORE.RESTR>
0

>  <SCORE.RESTR.CAVITY>
0

>  <SCORE.RESTR.norm>
0

>  <SCORE.SYSTEM>
0

>  <SCORE.SYSTEM.CONST>
0

>  <SCORE.SYSTEM.DIHEDRAL>
0

>  <SCORE.SYSTEM.SOLV>
0

>  <SCORE.SYSTEM.norm>
0

>  <SCORE.heavy>
18

>  <SCORE.norm>
-1.1082

>  <RMSD>
7.228

$$$$
lig.pdb
 OpenBabel11021811503D
libRbt.so/2013.1/901 2013/11/27
 18 19  0  0  0  0  0  0  0  0999 V2000
   -3.6499   14.9566    0.4434 C   0  0  0  0  0  0  0  0  0  0  0  0
   -6.8286   12.0013    2.6099 N   0  0  0  0  0  0  0  0  0  0  0  0
  -11.6287   12.0730    2.4318 C   0  0  0  0  0  0  0  0  0  0  0  0
  -13.9536   16.6546    3.5988 O   0  0  0  0  0  0  0  0  0  0  0  0
  -14.4081   15.3796    3.1663 C   0  0  0  0  0  0  0  0  0  0  0  0
  -13.4553   14.2764    3.6662 C   0  0  0  0  0  0  0  0  0  0  0  0
   -9.8702   15.3282    1.8636 C   0  0  0  0  0  0  0  0  0  0  0  0
  -11.2571   15.9815    2.6723 S   0  0  0  0  0  0  0  0  0  0  0  0
  -12.1265   14.4590    2.9667 C   0  0  0  0  0  0  0  0  0  0  0  0
  -11.2677   13.5487    2.4021 C   0  0  0  0  0  0  0  0  0  0  0  0
  -10.1143   14.0242    1.8402 N   0  0  0  0  0  0  0  0  0  0  0  0
   -9.1051   13.0968    1.2162 C   0  0  0  0  0  0  0  0  0  0  0  0
   -6.5951   13.0415    1.7105 C   0  0  0  0  0  0  0  0  0  0  0  0
   -5.3198   13.4950    1.5116 N   0  0  0  0  0  0  0  0  0  0  0  0
   -5.0700   14.4882    0.6543 C   0  0  0  0  0  0  0  0  0  0  0  0
   -6.0640   15.0646   -0.0276 N   0  0  0  0  0  0  0  0  0  0  0  0
   -7.3545   14.6655    0.1153 C   0  0  0  0  0  0  0  0  0  0  0  0
   -7.6788   13.6256    0.9937 C   0  0  0  0  0  0  0  0  0  0  0  0
  5  4  1  0  0  0  0
  5  6  1  0  0  0  0
  7  8  2  0  0  0  0
  7 11  1  0  0  0  0
  8  9  1  0  0  0  0
  9 10  2  0  0  0  0
  9  6  1  0  0  0  0
 10  3  1  0  0  0  0
 11 12  1  0  0  0  0
 11 10  1  0  0  0  0
 12 18  1  0  0  0  0
 13  2  1  0  0  0  0
 13 14  2  0  0  0  0
 15 14  1  0  0  0  0
 15  1  1  0  0  0  0
 16 15  2  0  0  0  0
 17 18  2  0  0  0  0
 17 16  1  0  0  0  0
 18 13  1  0  0  0  0
M  END
>  <CHROM.1>
-66.60428448,43.05022678,17.04327240,114.82081988,-9.40326099,14.37378393
1.95587532,-0.09571616,0.30952989,-0.14187342

>  <Name>
lig.pdb

>  <RI>
0

>  <Rbt.Current_Directory>
/home/itssahil/PROJECTS/Mol_Feturizer/New_Systems/rnas/4nyg

>  <Rbt.Executable>
rbdock ($Id: //depot/dev/client3/rdock/2013.1/src/exe/rbdock.cxx#4 $)

>  <Rbt.Library>
libRbt.so (2013.1, Build901 2013/11/27)

>  <Rbt.Parameter_File>
/export/apps/rDock/src/rDock_2013.1_src/data/scripts/dock_solv.prm

>  <Rbt.Receptor>
prm/pocket_docking_3.prm

>  <SCORE>
-20.0064

>  <SCORE.INTER>
-20.9527

>  <SCORE.INTER.CONST>
1

>  <SCORE.INTER.POLAR>
0

>  <SCORE.INTER.ROT>
4

>  <SCORE.INTER.SOLV>
10.2308

>  <SCORE.INTER.VDW>
-23.6454

>  <SCORE.INTER.norm>
-1.16404

>  <SCORE.INTRA>
0.946315

>  <SCORE.INTRA.DIHEDRAL>
0.536308

>  <SCORE.INTRA.DIHEDRAL.0>
3.20029

>  <SCORE.INTRA.POLAR>
0

>  <SCORE.INTRA.POLAR.0>
0

>  <SCORE.INTRA.REPUL>
0

>  <SCORE.INTRA.REPUL.0>
0

>  <SCORE.INTRA.SOLV>
0.515422

>  <SCORE.INTRA.SOLV.lig_0>
-19.3885

>  <SCORE.INTRA.VDW>
0.42045

>  <SCORE.INTRA.VDW.0>
-1.12705

>  <SCORE.INTRA.norm>
0.052573

>  <SCORE.RESTR>
0

>  <SCORE.RESTR.CAVITY>
0

>  <SCORE.RESTR.norm>
0

>  <SCORE.SYSTEM>
0

>  <SCORE.SYSTEM.CONST>
0

>  <SCORE.SYSTEM.DIHEDRAL>
0

>  <SCORE.SYSTEM.SOLV>
0

>  <SCORE.SYSTEM.norm>
0

>  <SCORE.heavy>
18

>  <SCORE.norm>
-1.11147

>  <RMSD>
7.230

$$$$
lig.pdb
 OpenBabel11021811503D
libRbt.so/2013.1/901 2013/11/27
 18 19  0  0  0  0  0  0  0  0999 V2000
   -5.0354   13.3557    5.9542 C   0  0  0  0  0  0  0  0  0  0  0  0
   -8.2114   10.7025    3.4233 N   0  0  0  0  0  0  0  0  0  0  0  0
  -10.0819   15.8270    1.8461 C   0  0  0  0  0  0  0  0  0  0  0  0
  -14.5014   17.6613    4.0772 O   0  0  0  0  0  0  0  0  0  0  0  0
  -13.8893   16.3872    3.9324 C   0  0  0  0  0  0  0  0  0  0  0  0
  -13.0518   16.3422    2.6395 C   0  0  0  0  0  0  0  0  0  0  0  0
  -11.5285   12.4843    2.7097 C   0  0  0  0  0  0  0  0  0  0  0  0
  -12.9604   13.4130    3.0120 S   0  0  0  0  0  0  0  0  0  0  0  0
  -12.3169   15.0204    2.6086 C   0  0  0  0  0  0  0  0  0  0  0  0
  -11.0219   14.7119    2.2726 C   0  0  0  0  0  0  0  0  0  0  0  0
  -10.6430   13.3987    2.3350 N   0  0  0  0  0  0  0  0  0  0  0  0
   -9.2487   12.9659    1.9652 C   0  0  0  0  0  0  0  0  0  0  0  0
   -7.6703   11.9562    3.7077 C   0  0  0  0  0  0  0  0  0  0  0  0
   -6.6774   12.0722    4.6418 N   0  0  0  0  0  0  0  0  0  0  0  0
   -6.1415   13.2610    4.9304 C   0  0  0  0  0  0  0  0  0  0  0  0
   -6.5671   14.3670    4.3133 N   0  0  0  0  0  0  0  0  0  0  0  0
   -7.5465   14.3292    3.3728 C   0  0  0  0  0  0  0  0  0  0  0  0
   -8.1424   13.1125    3.0226 C   0  0  0  0  0  0  0  0  0  0  0  0
  5  4  1  0  0  0  0
  5  6  1  0  0  0  0
  7  8  2  0  0  0  0
  7 11  1  0  0  0  0
  8  9  1  0  0  0  0
  9 10  2  0  0  0  0
  9  6  1  0  0  0  0
 10  3  1  0  0  0  0
 11 12  1  0  0  0  0
 11 10  1  0  0  0  0
 12 18  1  0  0  0  0
 13  2  1  0  0  0  0
 13 14  2  0  0  0  0
 15 14  1  0  0  0  0
 15  1  1  0  0  0  0
 16 15  2  0  0  0  0
 17 18  2  0  0  0  0
 17 16  1  0  0  0  0
 18 13  1  0  0  0  0
M  END
>  <CHROM.1>
174.41670987,43.46681556,-99.10644217,104.37871356,-10.00418043,13.97780924
3.36517070,-0.32233622,-0.30094580,0.31663031

>  <Name>
lig.pdb

>  <RI>
0

>  <Rbt.Current_Directory>
/home/itssahil/PROJECTS/Mol_Feturizer/New_Systems/rnas/4nyg

>  <Rbt.Executable>
rbdock ($Id: //depot/dev/client3/rdock/2013.1/src/exe/rbdock.cxx#4 $)

>  <Rbt.Library>
libRbt.so (2013.1, Build901 2013/11/27)

>  <Rbt.Parameter_File>
/export/apps/rDock/src/rDock_2013.1_src/data/scripts/dock_solv.prm

>  <Rbt.Receptor>
prm/pocket_docking_4.prm

>  <SCORE>
-22.3752

>  <SCORE.INTER>
-22.558

>  <SCORE.INTER.CONST>
1

>  <SCORE.INTER.POLAR>
0

>  <SCORE.INTER.ROT>
4

>  <SCORE.INTER.SOLV>
13.4016

>  <SCORE.INTER.VDW>
-25.7726

>  <SCORE.INTER.norm>
-1.25322

>  <SCORE.INTRA>
0.182791

>  <SCORE.INTRA.DIHEDRAL>
0.460026

>  <SCORE.INTRA.DIHEDRAL.0>
3.20029

>  <SCORE.INTRA.POLAR>
0

>  <SCORE.INTRA.POLAR.0>
0

>  <SCORE.INTRA.REPUL>
0

>  <SCORE.INTRA.REPUL.0>
0

>  <SCORE.INTRA.SOLV>
0.313301

>  <SCORE.INTRA.SOLV.lig_0>
-19.3885

>  <SCORE.INTRA.VDW>
-0.203872

>  <SCORE.INTRA.VDW.0>
-1.12705

>  <SCORE.INTRA.norm>
0.010155

>  <SCORE.RESTR>
0

>  <SCORE.RESTR.CAVITY>
0

>  <SCORE.RESTR.norm>
0

>  <SCORE.SYSTEM>
0

>  <SCORE.SYSTEM.CONST>
0

>  <SCORE.SYSTEM.DIHEDRAL>
0

>  <SCORE.SYSTEM.SOLV>
0

>  <SCORE.SYSTEM.norm>
0

>  <SCORE.heavy>
18

>  <SCORE.norm>
-1.24307

>  <RMSD>
7.232

$$$$
lig.pdb
 OpenBabel11021811503D
libRbt.so/2013.1/901 2013/11/27
 18 19  0  0  0  0  0  0  0  0999 V2000
   -3.7005   15.0634    0.3586 C   0  0  0  0  0  0  0  0  0  0  0  0
   -6.8166   12.1277    2.6399 N   0  0  0  0  0  0  0  0  0  0  0  0
  -11.6326   12.0841    2.4308 C   0  0  0  0  0  0  0  0  0  0  0  0
  -13.9661   16.6453    3.5971 O   0  0  0  0  0  0  0  0  0  0  0  0
  -14.4304   15.3649    3.1920 C   0  0  0  0  0  0  0  0  0  0  0  0
  -13.4680   14.2679    3.6870 C   0  0  0  0  0  0  0  0  0  0  0  0
   -9.8930   15.3531    1.8841 C   0  0  0  0  0  0  0  0  0  0  0  0
  -11.2814   15.9925    2.7011 S   0  0  0  0  0  0  0  0  0  0  0  0
  -12.1419   14.4631    2.9857 C   0  0  0  0  0  0  0  0  0  0  0  0
  -11.2796   13.5619    2.4119 C   0  0  0  0  0  0  0  0  0  0  0  0
  -10.1302   14.0480    1.8510 N   0  0  0  0  0  0  0  0  0  0  0  0
   -9.1175   13.1309    1.2173 C   0  0  0  0  0  0  0  0  0  0  0  0
   -6.6054   13.1398    1.7036 C   0  0  0  0  0  0  0  0  0  0  0  0
   -5.3394   13.6096    1.4840 N   0  0  0  0  0  0  0  0  0  0  0  0
   -5.1110   14.5765    0.5914 C   0  0  0  0  0  0  0  0  0  0  0  0
   -6.1178   15.1099   -0.1066 N   0  0  0  0  0  0  0  0  0  0  0  0
   -7.4001   14.6922    0.0552 C   0  0  0  0  0  0  0  0  0  0  0  0
   -7.7021   13.6780    0.9708 C   0  0  0  0  0  0  0  0  0  0  0  0
  5  4  1  0  0  0  0
  5  6  1  0  0  0  0
  7  8  2  0  0  0  0
  7 11  1  0  0  0  0
  8  9  1  0  0  0  0
  9 10  2  0  0  0  0
  9  6  1  0  0  0  0
 10  3  1  0  0  0  0
 11 12  1  0  0  0  0
 11 10  1  0  0  0  0
 12 18  1  0  0  0  0
 13  2  1  0  0  0  0
 13 14  2  0  0  0  0
 15 14  1  0  0  0  0
 15  1  1  0  0  0  0
 16 15  2  0  0  0  0
 17 18  2  0  0  0  0
 17 16  1  0  0  0  0
 18 13  1  0  0  0  0
M  END
>  <CHROM.1>
-65.05305116,43.36856715,15.89380774,112.98636505,-9.42485473,14.41274565
1.94851493,-0.07923746,0.31731673,-0.15056684

>  <Name>
lig.pdb

>  <RI>
0

>  <Rbt.Current_Directory>
/home/itssahil/PROJECTS/Mol_Feturizer/New_Systems/rnas/4nyg

>  <Rbt.Executable>
rbdock ($Id: //depot/dev/client3/rdock/2013.1/src/exe/rbdock.cxx#4 $)

>  <Rbt.Library>
libRbt.so (2013.1, Build901 2013/11/27)

>  <Rbt.Parameter_File>
/export/apps/rDock/src/rDock_2013.1_src/data/scripts/dock_solv.prm

>  <Rbt.Receptor>
prm/pocket_docking_3.prm

>  <SCORE>
-19.9925

>  <SCORE.INTER>
-20.936

>  <SCORE.INTER.CONST>
1

>  <SCORE.INTER.POLAR>
0

>  <SCORE.INTER.ROT>
4

>  <SCORE.INTER.SOLV>
10.3726

>  <SCORE.INTER.VDW>
-23.6815

>  <SCORE.INTER.norm>
-1.16311

>  <SCORE.INTRA>
0.943494

>  <SCORE.INTRA.DIHEDRAL>
0.453971

>  <SCORE.INTRA.DIHEDRAL.0>
3.20029

>  <SCORE.INTRA.POLAR>
0

>  <SCORE.INTRA.POLAR.0>
0

>  <SCORE.INTRA.REPUL>
0

>  <SCORE.INTRA.REPUL.0>
0

>  <SCORE.INTRA.SOLV>
0.534907

>  <SCORE.INTRA.SOLV.lig_0>
-19.3885

>  <SCORE.INTRA.VDW>
0.449055

>  <SCORE.INTRA.VDW.0>
-1.12705

>  <SCORE.INTRA.norm>
0.0524163

>  <SCORE.RESTR>
0

>  <SCORE.RESTR.CAVITY>
0

>  <SCORE.RESTR.norm>
0

>  <SCORE.SYSTEM>
0

>  <SCORE.SYSTEM.CONST>
0

>  <SCORE.SYSTEM.DIHEDRAL>
0

>  <SCORE.SYSTEM.SOLV>
0

>  <SCORE.SYSTEM.norm>
0

>  <SCORE.heavy>
18

>  <SCORE.norm>
-1.1107

>  <RMSD>
7.236

$$$$
lig.pdb
 OpenBabel11021811503D
libRbt.so/2013.1/901 2013/11/27
 18 19  0  0  0  0  0  0  0  0999 V2000
   -2.3289   15.7692    2.6473 C   0  0  0  0  0  0  0  0  0  0  0  0
   -6.3474   15.2176   -0.0135 N   0  0  0  0  0  0  0  0  0  0  0  0
  -10.1545   11.9713    2.2464 C   0  0  0  0  0  0  0  0  0  0  0  0
  -14.6615   14.8680    3.1460 O   0  0  0  0  0  0  0  0  0  0  0  0
  -13.2893   15.1592    2.9194 C   0  0  0  0  0  0  0  0  0  0  0  0
  -12.4324   13.8988    3.1472 C   0  0  0  0  0  0  0  0  0  0  0  0
   -8.6347   15.3889    2.3951 C   0  0  0  0  0  0  0  0  0  0  0  0
  -10.2339   15.8533    2.8758 S   0  0  0  0  0  0  0  0  0  0  0  0
  -10.9970   14.2485    2.8221 C   0  0  0  0  0  0  0  0  0  0  0  0
   -9.9421   13.4655    2.4235 C   0  0  0  0  0  0  0  0  0  0  0  0
   -8.7380   14.0792    2.2096 N   0  0  0  0  0  0  0  0  0  0  0  0
   -7.5218   13.2962    1.7904 C   0  0  0  0  0  0  0  0  0  0  0  0
   -5.6137   14.8632    1.1186 C   0  0  0  0  0  0  0  0  0  0  0  0
   -4.3899   15.4327    1.3416 N   0  0  0  0  0  0  0  0  0  0  0  0
   -3.6692   15.1118    2.4192 C   0  0  0  0  0  0  0  0  0  0  0  0
   -4.1278   14.2220    3.3042 N   0  0  0  0  0  0  0  0  0  0  0  0
   -5.3349   13.6182    3.1511 C   0  0  0  0  0  0  0  0  0  0  0  0
   -6.1391   13.9179    2.0458 C   0  0  0  0  0  0  0  0  0  0  0  0
  5  4  1  0  0  0  0
  5  6  1  0  0  0  0
  7  8  2  0  0  0  0
  7 11  1  0  0  0  0
  8  9  1  0  0  0  0
  9 10  2  0  0  0  0
  9  6  1  0  0  0  0
 10  3  1  0  0  0  0
 11 12  1  0  0  0  0
 11 10  1  0  0  0  0
 12 18  1  0  0  0  0
 13  2  1  0  0  0  0
 13 14  2  0  0  0  0
 15 14  1  0  0  0  0
 15  1  1  0  0  0  0
 16 15  2  0  0  0  0
 17 18  2  0  0  0  0
 17 16  1  0  0  0  0
 18 13  1  0  0  0  0
M  END
>  <CHROM.1>
177.06682545,25.31047404,20.24927282,-82.73960500,-8.25628075,14.56464981
2.38031145,0.03964865,0.09156691,0.01309709

>  <Name>
lig.pdb

>  <RI>
0

>  <Rbt.Current_Directory>
/home/itssahil/PROJECTS/Mol_Feturizer/New_Systems/rnas/4nyg

>  <Rbt.Executable>
rbdock ($Id: //depot/dev/client3/rdock/2013.1/src/exe/rbdock.cxx#4 $)

>  <Rbt.Library>
libRbt.so (2013.1, Build901 2013/11/27)

>  <Rbt.Parameter_File>
/export/apps/rDock/src/rDock_2013.1_src/data/scripts/dock_solv.prm

>  <Rbt.Receptor>
prm/pocket_docking_2.prm

>  <SCORE>
-10.6456

>  <SCORE.INTER>
-12.8441

>  <SCORE.INTER.CONST>
1

>  <SCORE.INTER.POLAR>
0

>  <SCORE.INTER.ROT>
4

>  <SCORE.INTER.SOLV>
7.46596

>  <SCORE.INTER.VDW>
-17.318

>  <SCORE.INTER.norm>
-0.713561

>  <SCORE.INTRA>
1.34418

>  <SCORE.INTRA.DIHEDRAL>
1.57974

>  <SCORE.INTRA.DIHEDRAL.0>
3.20029

>  <SCORE.INTRA.POLAR>
0

>  <SCORE.INTRA.POLAR.0>
0

>  <SCORE.INTRA.REPUL>
0

>  <SCORE.INTRA.REPUL.0>
0

>  <SCORE.INTRA.SOLV>
0.483498

>  <SCORE.INTRA.SOLV.lig_0>
-19.3885

>  <SCORE.INTRA.VDW>
0.312559

>  <SCORE.INTRA.VDW.0>
-1.12705

>  <SCORE.INTRA.norm>
0.0746764

>  <SCORE.RESTR>
0.854334

>  <SCORE.RESTR.CAVITY>
0.854334

>  <SCORE.RESTR.norm>
0.047463

>  <SCORE.SYSTEM>
0

>  <SCORE.SYSTEM.CONST>
0

>  <SCORE.SYSTEM.DIHEDRAL>
0

>  <SCORE.SYSTEM.SOLV>
0

>  <SCORE.SYSTEM.norm>
0

>  <SCORE.heavy>
18

>  <SCORE.norm>
-0.591421

>  <RMSD>
7.237

$$$$
lig.pdb
 OpenBabel11021811503D
libRbt.so/2013.1/901 2013/11/27
 18 19  0  0  0  0  0  0  0  0999 V2000
   -3.7696   15.7900    0.1347 C   0  0  0  0  0  0  0  0  0  0  0  0
   -6.4963   12.1647    1.8535 N   0  0  0  0  0  0  0  0  0  0  0  0
  -11.2960   11.9829    2.2637 C   0  0  0  0  0  0  0  0  0  0  0  0
  -14.0751   16.2100    3.7116 O   0  0  0  0  0  0  0  0  0  0  0  0
  -14.4005   14.9003    3.2668 C   0  0  0  0  0  0  0  0  0  0  0  0
  -13.2968   13.9075    3.6806 C   0  0  0  0  0  0  0  0  0  0  0  0
   -9.9610   15.4420    1.7504 C   0  0  0  0  0  0  0  0  0  0  0  0
  -11.3686   15.8963    2.6539 S   0  0  0  0  0  0  0  0  0  0  0  0
  -12.0380   14.2718    2.9249 C   0  0  0  0  0  0  0  0  0  0  0  0
  -11.1110   13.4910    2.2799 C   0  0  0  0  0  0  0  0  0  0  0  0
  -10.0528   14.1201    1.6828 N   0  0  0  0  0  0  0  0  0  0  0  0
   -8.9779   13.3423    0.9704 C   0  0  0  0  0  0  0  0  0  0  0  0
   -6.4299   13.3949    1.1996 C   0  0  0  0  0  0  0  0  0  0  0  0
   -5.2155   13.9893    0.9909 N   0  0  0  0  0  0  0  0  0  0  0  0
   -5.1253   15.1659    0.3653 C   0  0  0  0  0  0  0  0  0  0  0  0
   -6.2232   15.7917   -0.0688 N   0  0  0  0  0  0  0  0  0  0  0  0
   -7.4623   15.2611    0.0996 C   0  0  0  0  0  0  0  0  0  0  0  0
   -7.6211   14.0281    0.7418 C   0  0  0  0  0  0  0  0  0  0  0  0
  5  4  1  0  0  0  0
  5  6  1  0  0  0  0
  7  8  2  0  0  0  0
  7 11  1  0  0  0  0
  8  9  1  0  0  0  0
  9 10  2  0  0  0  0
  9  6  1  0  0  0  0
 10  3  1  0  0  0  0
 11 12  1  0  0  0  0
 11 10  1  0  0  0  0
 12 18  1  0  0  0  0
 13  2  1  0  0  0  0
 13 14  2  0  0  0  0
 15 14  1  0  0  0  0
 15  1  1  0  0  0  0
 16 15  2  0  0  0  0
 17 18  2  0  0  0  0
 17 16  1  0  0  0  0
 18 13  1  0  0  0  0
M  END
>  <CHROM.1>
-66.07359889,43.54580083,19.01586263,125.22152149,-9.36928026,14.51530452
1.78532070,0.00258263,0.33737506,-0.09239783

>  <Name>
lig.pdb

>  <RI>
0

>  <Rbt.Current_Directory>
/home/itssahil/PROJECTS/Mol_Feturizer/New_Systems/rnas/4nyg

>  <Rbt.Executable>
rbdock ($Id: //depot/dev/client3/rdock/2013.1/src/exe/rbdock.cxx#4 $)

>  <Rbt.Library>
libRbt.so (2013.1, Build901 2013/11/27)

>  <Rbt.Parameter_File>
/export/apps/rDock/src/rDock_2013.1_src/data/scripts/dock_solv.prm

>  <Rbt.Receptor>
prm/pocket_docking_3.prm

>  <SCORE>
-19.638

>  <SCORE.INTER>
-20.8173

>  <SCORE.INTER.CONST>
1

>  <SCORE.INTER.POLAR>
0

>  <SCORE.INTER.ROT>
4

>  <SCORE.INTER.SOLV>
10.6651

>  <SCORE.INTER.VDW>
-23.6999

>  <SCORE.INTER.norm>
-1.15652

>  <SCORE.INTRA>
1.17226

>  <SCORE.INTRA.DIHEDRAL>
0.480947

>  <SCORE.INTRA.DIHEDRAL.0>
3.20029

>  <SCORE.INTRA.POLAR>
0

>  <SCORE.INTRA.POLAR.0>
0

>  <SCORE.INTRA.REPUL>
0

>  <SCORE.INTRA.REPUL.0>
0

>  <SCORE.INTRA.SOLV>
0.512872

>  <SCORE.INTRA.SOLV.lig_0>
-19.3885

>  <SCORE.INTRA.VDW>
0.675354

>  <SCORE.INTRA.VDW.0>
-1.12705

>  <SCORE.INTRA.norm>
0.0651258

>  <SCORE.RESTR>
0.00708701

>  <SCORE.RESTR.CAVITY>
0.00708701

>  <SCORE.RESTR.norm>
0.000393723

>  <SCORE.SYSTEM>
0

>  <SCORE.SYSTEM.CONST>
0

>  <SCORE.SYSTEM.DIHEDRAL>
0

>  <SCORE.SYSTEM.SOLV>
0

>  <SCORE.SYSTEM.norm>
0

>  <SCORE.heavy>
18

>  <SCORE.norm>
-1.091

>  <RMSD>
7.239

$$$$
lig.pdb
 OpenBabel11021811503D
libRbt.so/2013.1/901 2013/11/27
 18 19  0  0  0  0  0  0  0  0999 V2000
   -6.1305    9.4980    4.7334 C   0  0  0  0  0  0  0  0  0  0  0  0
   -9.1236   10.2514    0.9908 N   0  0  0  0  0  0  0  0  0  0  0  0
  -11.5981   12.0608    2.4701 C   0  0  0  0  0  0  0  0  0  0  0  0
  -13.9894   16.6068    3.8805 O   0  0  0  0  0  0  0  0  0  0  0  0
  -14.4063   15.4034    3.2503 C   0  0  0  0  0  0  0  0  0  0  0  0
  -13.4828   14.2397    3.6600 C   0  0  0  0  0  0  0  0  0  0  0  0
   -9.8983   15.3447    1.8882 C   0  0  0  0  0  0  0  0  0  0  0  0
  -11.3074   15.9783    2.6738 S   0  0  0  0  0  0  0  0  0  0  0  0
  -12.1497   14.4417    2.9741 C   0  0  0  0  0  0  0  0  0  0  0  0
  -11.2663   13.5431    2.4291 C   0  0  0  0  0  0  0  0  0  0  0  0
  -10.1161   14.0358    1.8757 N   0  0  0  0  0  0  0  0  0  0  0  0
   -9.0813   13.1225    1.2733 C   0  0  0  0  0  0  0  0  0  0  0  0
   -8.3564   10.7866    2.0254 C   0  0  0  0  0  0  0  0  0  0  0  0
   -7.6529    9.9534    2.8516 N   0  0  0  0  0  0  0  0  0  0  0  0
   -6.9092   10.4415    3.8479 C   0  0  0  0  0  0  0  0  0  0  0  0
   -6.8386   11.7584    4.0621 N   0  0  0  0  0  0  0  0  0  0  0  0
   -7.5067   12.6467    3.2812 C   0  0  0  0  0  0  0  0  0  0  0  0
   -8.2971   12.1969    2.2177 C   0  0  0  0  0  0  0  0  0  0  0  0
  5  4  1  0  0  0  0
  5  6  1  0  0  0  0
  7  8  2  0  0  0  0
  7 11  1  0  0  0  0
  8  9  1  0  0  0  0
  9 10  2  0  0  0  0
  9  6  1  0  0  0  0
 10  3  1  0  0  0  0
 11 12  1  0  0  0  0
 11 10  1  0  0  0  0
 12 18  1  0  0  0  0
 13  2  1  0  0  0  0
 13 14  2  0  0  0  0
 15 14  1  0  0  0  0
 15  1  1  0  0  0  0
 16 15  2  0  0  0  0
 17 18  2  0  0  0  0
 17 16  1  0  0  0  0
 18 13  1  0  0  0  0
M  END
>  <CHROM.1>
-71.95780401,37.25219034,110.88400160,120.89829612,-10.04378665,13.14480727
2.81047414,0.72163203,0.05332090,-3.10599921

>  <Name>
lig.pdb

>  <RI>
0

>  <Rbt.Current_Directory>
/home/itssahil/PROJECTS/Mol_Feturizer/New_Systems/rnas/4nyg

>  <Rbt.Executable>
rbdock ($Id: //depot/dev/client3/rdock/2013.1/src/exe/rbdock.cxx#4 $)

>  <Rbt.Library>
libRbt.so (2013.1, Build901 2013/11/27)

>  <Rbt.Parameter_File>
/export/apps/rDock/src/rDock_2013.1_src/data/scripts/dock_solv.prm

>  <Rbt.Receptor>
prm/pocket_docking_7.prm

>  <SCORE>
-23.0945

>  <SCORE.INTER>
-23.7668

>  <SCORE.INTER.CONST>
1

>  <SCORE.INTER.POLAR>
0

>  <SCORE.INTER.ROT>
4

>  <SCORE.INTER.SOLV>
12.4314

>  <SCORE.INTER.VDW>
-26.255

>  <SCORE.INTER.norm>
-1.32038

>  <SCORE.INTRA>
0.67235

>  <SCORE.INTRA.DIHEDRAL>
1.33007

>  <SCORE.INTRA.DIHEDRAL.0>
3.20029

>  <SCORE.INTRA.POLAR>
0

>  <SCORE.INTRA.POLAR.0>
0

>  <SCORE.INTRA.REPUL>
0

>  <SCORE.INTRA.REPUL.0>
0

>  <SCORE.INTRA.SOLV>
0.85708

>  <SCORE.INTRA.SOLV.lig_0>
-19.3885

>  <SCORE.INTRA.VDW>
-0.421223

>  <SCORE.INTRA.VDW.0>
-1.12705

>  <SCORE.INTRA.norm>
0.0373528

>  <SCORE.RESTR>
0

>  <SCORE.RESTR.CAVITY>
0

>  <SCORE.RESTR.norm>
0

>  <SCORE.SYSTEM>
0

>  <SCORE.SYSTEM.CONST>
0

>  <SCORE.SYSTEM.DIHEDRAL>
0

>  <SCORE.SYSTEM.SOLV>
0

>  <SCORE.SYSTEM.norm>
0

>  <SCORE.heavy>
18

>  <SCORE.norm>
-1.28303

>  <RMSD>
7.239

$$$$
lig.pdb
 OpenBabel11021811503D
libRbt.so/2013.1/901 2013/11/27
 18 19  0  0  0  0  0  0  0  0999 V2000
   -3.7388   15.1296    0.2451 C   0  0  0  0  0  0  0  0  0  0  0  0
   -6.7758   11.8428    2.1174 N   0  0  0  0  0  0  0  0  0  0  0  0
  -11.6236   12.0759    2.3692 C   0  0  0  0  0  0  0  0  0  0  0  0
  -13.9931   16.5874    3.8686 O   0  0  0  0  0  0  0  0  0  0  0  0
  -14.4168   15.3637    3.2837 C   0  0  0  0  0  0  0  0  0  0  0  0
  -13.4614   14.2227    3.6840 C   0  0  0  0  0  0  0  0  0  0  0  0
   -9.9294   15.3709    1.8362 C   0  0  0  0  0  0  0  0  0  0  0  0
  -11.3108   15.9842    2.6845 S   0  0  0  0  0  0  0  0  0  0  0  0
  -12.1495   14.4417    2.9634 C   0  0  0  0  0  0  0  0  0  0  0  0
  -11.2872   13.5577    2.3636 C   0  0  0  0  0  0  0  0  0  0  0  0
  -10.1528   14.0638    1.7900 N   0  0  0  0  0  0  0  0  0  0  0  0
   -9.1409   13.1663    1.1276 C   0  0  0  0  0  0  0  0  0  0  0  0
   -6.6003   13.0241    1.3969 C   0  0  0  0  0  0  0  0  0  0  0  0
   -5.3385   13.5047    1.1760 N   0  0  0  0  0  0  0  0  0  0  0  0
   -5.1441   14.6323    0.4872 C   0  0  0  0  0  0  0  0  0  0  0  0
   -6.1812   15.3196    0.0001 N   0  0  0  0  0  0  0  0  0  0  0  0
   -7.4618   14.9023    0.1768 C   0  0  0  0  0  0  0  0  0  0  0  0
   -7.7295   13.7250    0.8842 C   0  0  0  0  0  0  0  0  0  0  0  0
  5  4  1  0  0  0  0
  5  6  1  0  0  0  0
  7  8  2  0  0  0  0
  7 11  1  0  0  0  0
  8  9  1  0  0  0  0
  9 10  2  0  0  0  0
  9  6  1  0  0  0  0
 10  3  1  0  0  0  0
 11 12  1  0  0  0  0
 11 10  1  0  0  0  0
 12 18  1  0  0  0  0
 13  2  1  0  0  0  0
 13 14  2  0  0  0  0
 15 14  1  0  0  0  0
 15  1  1  0  0  0  0
 16 15  2  0  0  0  0
 17 18  2  0  0  0  0
 17 16  1  0  0  0  0
 18 13  1  0  0  0  0
M  END
>  <CHROM.1>
-70.82678337,40.04949031,16.80752418,124.59824611,-9.44240339,14.41170231
1.88869008,-0.09883378,0.33575647,-0.07940653

>  <Name>
lig.pdb

>  <RI>
0

>  <Rbt.Current_Directory>
/home/itssahil/PROJECTS/Mol_Feturizer/New_Systems/rnas/4nyg

>  <Rbt.Executable>
rbdock ($Id: //depot/dev/client3/rdock/2013.1/src/exe/rbdock.cxx#4 $)

>  <Rbt.Library>
libRbt.so (2013.1, Build901 2013/11/27)

>  <Rbt.Parameter_File>
/export/apps/rDock/src/rDock_2013.1_src/data/scripts/dock_solv.prm

>  <Rbt.Receptor>
prm/pocket_docking_4.prm

>  <SCORE>
-20.1668

>  <SCORE.INTER>
-21.5044

>  <SCORE.INTER.CONST>
1

>  <SCORE.INTER.POLAR>
0

>  <SCORE.INTER.ROT>
4

>  <SCORE.INTER.SOLV>
10.8635

>  <SCORE.INTER.VDW>
-24.2241

>  <SCORE.INTER.norm>
-1.19469

>  <SCORE.INTRA>
1.33757

>  <SCORE.INTRA.DIHEDRAL>
0.98042

>  <SCORE.INTRA.DIHEDRAL.0>
3.20029

>  <SCORE.INTRA.POLAR>
0

>  <SCORE.INTRA.POLAR.0>
0

>  <SCORE.INTRA.REPUL>
0

>  <SCORE.INTRA.REPUL.0>
0

>  <SCORE.INTRA.SOLV>
0.481718

>  <SCORE.INTRA.SOLV.lig_0>
-19.3885

>  <SCORE.INTRA.VDW>
0.606498

>  <SCORE.INTRA.VDW.0>
-1.12705

>  <SCORE.INTRA.norm>
0.0743093

>  <SCORE.RESTR>
0

>  <SCORE.RESTR.CAVITY>
0

>  <SCORE.RESTR.norm>
0

>  <SCORE.SYSTEM>
0

>  <SCORE.SYSTEM.CONST>
0

>  <SCORE.SYSTEM.DIHEDRAL>
0

>  <SCORE.SYSTEM.SOLV>
0

>  <SCORE.SYSTEM.norm>
0

>  <SCORE.heavy>
18

>  <SCORE.norm>
-1.12038

>  <RMSD>
7.243

$$$$
lig.pdb
 OpenBabel11021811503D
libRbt.so/2013.1/901 2013/11/27
 18 19  0  0  0  0  0  0  0  0999 V2000
   -6.2957   18.3778    0.0663 C   0  0  0  0  0  0  0  0  0  0  0  0
   -8.8739   14.2703   -0.0495 N   0  0  0  0  0  0  0  0  0  0  0  0
  -10.3521   16.1161    2.9449 C   0  0  0  0  0  0  0  0  0  0  0  0
  -15.4093   15.9040    4.0699 O   0  0  0  0  0  0  0  0  0  0  0  0
  -14.3366   14.9834    3.9255 C   0  0  0  0  0  0  0  0  0  0  0  0
  -13.3912   15.4395    2.7972 C   0  0  0  0  0  0  0  0  0  0  0  0
  -10.5798   12.3950    2.6090 C   0  0  0  0  0  0  0  0  0  0  0  0
  -12.2845   12.7077    2.5972 S   0  0  0  0  0  0  0  0  0  0  0  0
  -12.2244   14.4777    2.7524 C   0  0  0  0  0  0  0  0  0  0  0  0
  -10.8698   14.6939    2.8095 C   0  0  0  0  0  0  0  0  0  0  0  0
  -10.0467   13.6035    2.7349 N   0  0  0  0  0  0  0  0  0  0  0  0
   -8.5480   13.7479    2.7693 C   0  0  0  0  0  0  0  0  0  0  0  0
   -8.1235   15.1819    0.6930 C   0  0  0  0  0  0  0  0  0  0  0  0
   -7.5846   16.2792    0.0787 N   0  0  0  0  0  0  0  0  0  0  0  0
   -6.8642   17.1676    0.7682 C   0  0  0  0  0  0  0  0  0  0  0  0
   -6.6507   17.0019    2.0768 N   0  0  0  0  0  0  0  0  0  0  0  0
   -7.1567   15.9390    2.7547 C   0  0  0  0  0  0  0  0  0  0  0  0
   -7.9249   14.9776    2.0888 C   0  0  0  0  0  0  0  0  0  0  0  0
  5  4  1  0  0  0  0
  5  6  1  0  0  0  0
  7  8  2  0  0  0  0
  7 11  1  0  0  0  0
  8  9  1  0  0  0  0
  9 10  2  0  0  0  0
  9  6  1  0  0  0  0
 10  3  1  0  0  0  0
 11 12  1  0  0  0  0
 11 10  1  0  0  0  0
 12 18  1  0  0  0  0
 13  2  1  0  0  0  0
 13 14  2  0  0  0  0
 15 14  1  0  0  0  0
 15  1  1  0  0  0  0
 16 15  2  0  0  0  0
 17 18  2  0  0  0  0
 17 16  1  0  0  0  0
 18 13  1  0  0  0  0
M  END
>  <CHROM.1>
176.22298256,54.47461365,143.58074046,-60.49819774,-10.09196930,15.03582152
2.18760926,0.31527559,0.34484525,-0.00673501

>  <Name>
lig.pdb

>  <RI>
0

>  <Rbt.Current_Directory>
/home/itssahil/PROJECTS/Mol_Feturizer/New_Systems/rnas/4nyg

>  <Rbt.Executable>
rbdock ($Id: //depot/dev/client3/rdock/2013.1/src/exe/rbdock.cxx#4 $)

>  <Rbt.Library>
libRbt.so (2013.1, Build901 2013/11/27)

>  <Rbt.Parameter_File>
/export/apps/rDock/src/rDock_2013.1_src/data/scripts/dock_solv.prm

>  <Rbt.Receptor>
prm/pocket_docking_4.prm

>  <SCORE>
-19.6

>  <SCORE.INTER>
-21.3845

>  <SCORE.INTER.CONST>
1

>  <SCORE.INTER.POLAR>
0

>  <SCORE.INTER.ROT>
4

>  <SCORE.INTER.SOLV>
11.8259

>  <SCORE.INTER.VDW>
-24.4649

>  <SCORE.INTER.norm>
-1.18803

>  <SCORE.INTRA>
1.78451

>  <SCORE.INTRA.DIHEDRAL>
-0.0294419

>  <SCORE.INTRA.DIHEDRAL.0>
3.20029

>  <SCORE.INTRA.POLAR>
0

>  <SCORE.INTRA.POLAR.0>
0

>  <SCORE.INTRA.REPUL>
0

>  <SCORE.INTRA.REPUL.0>
0

>  <SCORE.INTRA.SOLV>
1.24855

>  <SCORE.INTRA.SOLV.lig_0>
-19.3885

>  <SCORE.INTRA.VDW>
1.17495

>  <SCORE.INTRA.VDW.0>
-1.12705

>  <SCORE.INTRA.norm>
0.0991392

>  <SCORE.RESTR>
0

>  <SCORE.RESTR.CAVITY>
0

>  <SCORE.RESTR.norm>
0

>  <SCORE.SYSTEM>
0

>  <SCORE.SYSTEM.CONST>
0

>  <SCORE.SYSTEM.DIHEDRAL>
0

>  <SCORE.SYSTEM.SOLV>
0

>  <SCORE.SYSTEM.norm>
0

>  <SCORE.heavy>
18

>  <SCORE.norm>
-1.08889

>  <RMSD>
7.248

$$$$
lig.pdb
 OpenBabel11021811503D
libRbt.so/2013.1/901 2013/11/27
 18 19  0  0  0  0  0  0  0  0999 V2000
   -3.8568   15.1590    0.3630 C   0  0  0  0  0  0  0  0  0  0  0  0
   -6.9530   12.4066    2.8868 N   0  0  0  0  0  0  0  0  0  0  0  0
  -11.8395   12.2839    2.5093 C   0  0  0  0  0  0  0  0  0  0  0  0
  -14.0223   16.9090    3.9216 O   0  0  0  0  0  0  0  0  0  0  0  0
  -14.5159   15.7231    3.3143 C   0  0  0  0  0  0  0  0  0  0  0  0
  -13.6477   14.5159    3.7191 C   0  0  0  0  0  0  0  0  0  0  0  0
   -9.9892   15.5025    2.0308 C   0  0  0  0  0  0  0  0  0  0  0  0
  -11.3826   16.1793    2.8082 S   0  0  0  0  0  0  0  0  0  0  0  0
  -12.2957   14.6748    3.0595 C   0  0  0  0  0  0  0  0  0  0  0  0
  -11.4430   13.7508    2.5080 C   0  0  0  0  0  0  0  0  0  0  0  0
  -10.2633   14.2050    1.9845 N   0  0  0  0  0  0  0  0  0  0  0  0
   -9.2590   13.2610    1.3777 C   0  0  0  0  0  0  0  0  0  0  0  0
   -6.7483   13.3347    1.8660 C   0  0  0  0  0  0  0  0  0  0  0  0
   -5.4859   13.7948    1.6083 N   0  0  0  0  0  0  0  0  0  0  0  0
   -5.2635   14.6818    0.6349 C   0  0  0  0  0  0  0  0  0  0  0  0
   -6.2731   15.1431   -0.1089 N   0  0  0  0  0  0  0  0  0  0  0  0
   -7.5522   14.7297    0.0865 C   0  0  0  0  0  0  0  0  0  0  0  0
   -7.8477   13.7969    1.0868 C   0  0  0  0  0  0  0  0  0  0  0  0
  5  4  1  0  0  0  0
  5  6  1  0  0  0  0
  7  8  2  0  0  0  0
  7 11  1  0  0  0  0
  8  9  1  0  0  0  0
  9 10  2  0  0  0  0
  9  6  1  0  0  0  0
 10  3  1  0  0  0  0
 11 12  1  0  0  0  0
 11 10  1  0  0  0  0
 12 18  1  0  0  0  0
 13  2  1  0  0  0  0
 13 14  2  0  0  0  0
 15 14  1  0  0  0  0
 15  1  1  0  0  0  0
 16 15  2  0  0  0  0
 17 18  2  0  0  0  0
 17 16  1  0  0  0  0
 18 13  1  0  0  0  0
M  END
>  <CHROM.1>
-69.15781359,37.62094065,11.73571526,110.29333783,-9.56075035,14.58971051
2.06116007,-0.09781146,0.32818679,-0.13532164

>  <Name>
lig.pdb

>  <RI>
0

>  <Rbt.Current_Directory>
/home/itssahil/PROJECTS/Mol_Feturizer/New_Systems/rnas/4nyg

>  <Rbt.Executable>
rbdock ($Id: //depot/dev/client3/rdock/2013.1/src/exe/rbdock.cxx#4 $)

>  <Rbt.Library>
libRbt.so (2013.1, Build901 2013/11/27)

>  <Rbt.Parameter_File>
/export/apps/rDock/src/rDock_2013.1_src/data/scripts/dock_solv.prm

>  <Rbt.Receptor>
prm/pocket_docking_5.prm

>  <SCORE>
-20.2535

>  <SCORE.INTER>
-21.449

>  <SCORE.INTER.CONST>
1

>  <SCORE.INTER.POLAR>
0

>  <SCORE.INTER.ROT>
4

>  <SCORE.INTER.SOLV>
10.5861

>  <SCORE.INTER.VDW>
-24.0947

>  <SCORE.INTER.norm>
-1.19161

>  <SCORE.INTRA>
1.19541

>  <SCORE.INTRA.DIHEDRAL>
1.02549

>  <SCORE.INTRA.DIHEDRAL.0>
3.20029

>  <SCORE.INTRA.POLAR>
0

>  <SCORE.INTRA.POLAR.0>
0

>  <SCORE.INTRA.REPUL>
0

>  <SCORE.INTRA.REPUL.0>
0

>  <SCORE.INTRA.SOLV>
0.535854

>  <SCORE.INTRA.SOLV.lig_0>
-19.3885

>  <SCORE.INTRA.VDW>
0.414741

>  <SCORE.INTRA.VDW.0>
-1.12705

>  <SCORE.INTRA.norm>
0.0664119

>  <SCORE.RESTR>
0

>  <SCORE.RESTR.CAVITY>
0

>  <SCORE.RESTR.norm>
0

>  <SCORE.SYSTEM>
0

>  <SCORE.SYSTEM.CONST>
0

>  <SCORE.SYSTEM.DIHEDRAL>
0

>  <SCORE.SYSTEM.SOLV>
0

>  <SCORE.SYSTEM.norm>
0

>  <SCORE.heavy>
18

>  <SCORE.norm>
-1.1252

>  <RMSD>
7.261

$$$$
lig.pdb
 OpenBabel11021811503D
libRbt.so/2013.1/901 2013/11/27
 18 19  0  0  0  0  0  0  0  0999 V2000
   -3.8446   15.3716    0.3744 C   0  0  0  0  0  0  0  0  0  0  0  0
   -6.8626   12.3702    2.7016 N   0  0  0  0  0  0  0  0  0  0  0  0
  -11.6983   12.1635    2.4447 C   0  0  0  0  0  0  0  0  0  0  0  0
  -14.0323   16.6576    4.0728 O   0  0  0  0  0  0  0  0  0  0  0  0
  -14.5010   15.5029    3.3901 C   0  0  0  0  0  0  0  0  0  0  0  0
  -13.5939   14.2961    3.6993 C   0  0  0  0  0  0  0  0  0  0  0  0
  -10.0262   15.4744    1.9410 C   0  0  0  0  0  0  0  0  0  0  0  0
  -11.4364   16.0764    2.7490 S   0  0  0  0  0  0  0  0  0  0  0  0
  -12.2656   14.5262    3.0130 C   0  0  0  0  0  0  0  0  0  0  0  0
  -11.3779   13.6489    2.4408 C   0  0  0  0  0  0  0  0  0  0  0  0
  -10.2341   14.1647    1.8953 N   0  0  0  0  0  0  0  0  0  0  0  0
   -9.1952   13.2753    1.2647 C   0  0  0  0  0  0  0  0  0  0  0  0
   -6.6848   13.3742    1.7499 C   0  0  0  0  0  0  0  0  0  0  0  0
   -5.4348   13.8821    1.5225 N   0  0  0  0  0  0  0  0  0  0  0  0
   -5.2382   14.8421    0.6151 C   0  0  0  0  0  0  0  0  0  0  0  0
   -6.2620   15.3314   -0.0905 N   0  0  0  0  0  0  0  0  0  0  0  0
   -7.5299   14.8742    0.0782 C   0  0  0  0  0  0  0  0  0  0  0  0
   -7.7985   13.8648    1.0093 C   0  0  0  0  0  0  0  0  0  0  0  0
  5  4  1  0  0  0  0
  5  6  1  0  0  0  0
  7  8  2  0  0  0  0
  7 11  1  0  0  0  0
  8  9  1  0  0  0  0
  9 10  2  0  0  0  0
  9  6  1  0  0  0  0
 10  3  1  0  0  0  0
 11 12  1  0  0  0  0
 11 10  1  0  0  0  0
 12 18  1  0  0  0  0
 13  2  1  0  0  0  0
 13 14  2  0  0  0  0
 15 14  1  0  0  0  0
 15  1  1  0  0  0  0
 16 15  2  0  0  0  0
 17 18  2  0  0  0  0
 17 16  1  0  0  0  0
 18 13  1  0  0  0  0
M  END
>  <CHROM.1>
-70.28628731,34.06006850,14.61637179,112.48130154,-9.53240662,14.56150700
2.01894334,-0.06414599,0.32881059,-0.11598883

>  <Name>
lig.pdb

>  <RI>
0

>  <Rbt.Current_Directory>
/home/itssahil/PROJECTS/Mol_Feturizer/New_Systems/rnas/4nyg

>  <Rbt.Executable>
rbdock ($Id: //depot/dev/client3/rdock/2013.1/src/exe/rbdock.cxx#4 $)

>  <Rbt.Library>
libRbt.so (2013.1, Build901 2013/11/27)

>  <Rbt.Parameter_File>
/export/apps/rDock/src/rDock_2013.1_src/data/scripts/dock_solv.prm

>  <Rbt.Receptor>
prm/pocket_docking_4.prm

>  <SCORE>
-20.134

>  <SCORE.INTER>
-21.5236

>  <SCORE.INTER.CONST>
1

>  <SCORE.INTER.POLAR>
0

>  <SCORE.INTER.ROT>
4

>  <SCORE.INTER.SOLV>
10.5192

>  <SCORE.INTER.VDW>
-24.1221

>  <SCORE.INTER.norm>
-1.19575

>  <SCORE.INTRA>
1.38957

>  <SCORE.INTRA.DIHEDRAL>
1.33722

>  <SCORE.INTRA.DIHEDRAL.0>
3.20029

>  <SCORE.INTRA.POLAR>
0

>  <SCORE.INTRA.POLAR.0>
0

>  <SCORE.INTRA.REPUL>
0

>  <SCORE.INTRA.REPUL.0>
0

>  <SCORE.INTRA.SOLV>
0.507441

>  <SCORE.INTRA.SOLV.lig_0>
-19.3885

>  <SCORE.INTRA.VDW>
0.467245

>  <SCORE.INTRA.VDW.0>
-1.12705

>  <SCORE.INTRA.norm>
0.0771986

>  <SCORE.RESTR>
0

>  <SCORE.RESTR.CAVITY>
0

>  <SCORE.RESTR.norm>
0

>  <SCORE.SYSTEM>
0

>  <SCORE.SYSTEM.CONST>
0

>  <SCORE.SYSTEM.DIHEDRAL>
0

>  <SCORE.SYSTEM.SOLV>
0

>  <SCORE.SYSTEM.norm>
0

>  <SCORE.heavy>
18

>  <SCORE.norm>
-1.11856

>  <RMSD>
7.264

$$$$
lig.pdb
 OpenBabel11021811503D
libRbt.so/2013.1/901 2013/11/27
 18 19  0  0  0  0  0  0  0  0999 V2000
   -3.8609   15.1318    0.3864 C   0  0  0  0  0  0  0  0  0  0  0  0
   -6.9887   12.4181    2.9132 N   0  0  0  0  0  0  0  0  0  0  0  0
  -11.8518   12.2795    2.5119 C   0  0  0  0  0  0  0  0  0  0  0  0
  -14.0296   16.9098    3.9034 O   0  0  0  0  0  0  0  0  0  0  0  0
  -14.5277   15.7176    3.3124 C   0  0  0  0  0  0  0  0  0  0  0  0
  -13.6555   14.5150    3.7221 C   0  0  0  0  0  0  0  0  0  0  0  0
  -10.0044   15.4969    2.0152 C   0  0  0  0  0  0  0  0  0  0  0  0
  -11.3947   16.1759    2.7963 S   0  0  0  0  0  0  0  0  0  0  0  0
  -12.3064   14.6720    3.0562 C   0  0  0  0  0  0  0  0  0  0  0  0
  -11.4558   13.7465    2.5041 C   0  0  0  0  0  0  0  0  0  0  0  0
  -10.2784   14.1993    1.9742 N   0  0  0  0  0  0  0  0  0  0  0  0
   -9.2764   13.2536    1.3662 C   0  0  0  0  0  0  0  0  0  0  0  0
   -6.7714   13.3316    1.8818 C   0  0  0  0  0  0  0  0  0  0  0  0
   -5.5055   13.7867    1.6322 N   0  0  0  0  0  0  0  0  0  0  0  0
   -5.2711   14.6598    0.6490 C   0  0  0  0  0  0  0  0  0  0  0  0
   -6.2717   15.1117   -0.1126 N   0  0  0  0  0  0  0  0  0  0  0  0
   -7.5534   14.7024    0.0741 C   0  0  0  0  0  0  0  0  0  0  0  0
   -7.8613   13.7840    1.0839 C   0  0  0  0  0  0  0  0  0  0  0  0
  5  4  1  0  0  0  0
  5  6  1  0  0  0  0
  7  8  2  0  0  0  0
  7 11  1  0  0  0  0
  8  9  1  0  0  0  0
  9 10  2  0  0  0  0
  9  6  1  0  0  0  0
 10  3  1  0  0  0  0
 11 12  1  0  0  0  0
 11 10  1  0  0  0  0
 12 18  1  0  0  0  0
 13  2  1  0  0  0  0
 13 14  2  0  0  0  0
 15 14  1  0  0  0  0
 15  1  1  0  0  0  0
 16 15  2  0  0  0  0
 17 18  2  0  0  0  0
 17 16  1  0  0  0  0
 18 13  1  0  0  0  0
M  END
>  <CHROM.1>
-68.81524507,37.85209323,12.48781738,109.07779797,-9.57320262,14.58129382
2.06097218,-0.09907757,0.32658261,-0.13707886

>  <Name>
lig.pdb

>  <RI>
0

>  <Rbt.Current_Directory>
/home/itssahil/PROJECTS/Mol_Feturizer/New_Systems/rnas/4nyg

>  <Rbt.Executable>
rbdock ($Id: //depot/dev/client3/rdock/2013.1/src/exe/rbdock.cxx#4 $)

>  <Rbt.Library>
libRbt.so (2013.1, Build901 2013/11/27)

>  <Rbt.Parameter_File>
/export/apps/rDock/src/rDock_2013.1_src/data/scripts/dock_solv.prm

>  <Rbt.Receptor>
prm/pocket_docking_5.prm

>  <SCORE>
-20.2369

>  <SCORE.INTER>
-21.4052

>  <SCORE.INTER.CONST>
1

>  <SCORE.INTER.POLAR>
0

>  <SCORE.INTER.ROT>
4

>  <SCORE.INTER.SOLV>
10.6439

>  <SCORE.INTER.VDW>
-24.0848

>  <SCORE.INTER.norm>
-1.18918

>  <SCORE.INTRA>
1.16835

>  <SCORE.INTRA.DIHEDRAL>
0.985937

>  <SCORE.INTRA.DIHEDRAL.0>
3.20029

>  <SCORE.INTRA.POLAR>
0

>  <SCORE.INTRA.POLAR.0>
0

>  <SCORE.INTRA.REPUL>
0

>  <SCORE.INTRA.REPUL.0>
0

>  <SCORE.INTRA.SOLV>
0.544059

>  <SCORE.INTRA.SOLV.lig_0>
-19.3885

>  <SCORE.INTRA.VDW>
0.40335

>  <SCORE.INTRA.VDW.0>
-1.12705

>  <SCORE.INTRA.norm>
0.0649082

>  <SCORE.RESTR>
0

>  <SCORE.RESTR.CAVITY>
0

>  <SCORE.RESTR.norm>
0

>  <SCORE.SYSTEM>
0

>  <SCORE.SYSTEM.CONST>
0

>  <SCORE.SYSTEM.DIHEDRAL>
0

>  <SCORE.SYSTEM.SOLV>
0

>  <SCORE.SYSTEM.norm>
0

>  <SCORE.heavy>
18

>  <SCORE.norm>
-1.12427

>  <RMSD>
7.265

$$$$
lig.pdb
 OpenBabel11021811503D
libRbt.so/2013.1/901 2013/11/27
 18 19  0  0  0  0  0  0  0  0999 V2000
   -5.4434   10.9021    4.8799 C   0  0  0  0  0  0  0  0  0  0  0  0
   -8.8841   10.6906    1.4669 N   0  0  0  0  0  0  0  0  0  0  0  0
  -11.7920   12.3565    2.5321 C   0  0  0  0  0  0  0  0  0  0  0  0
  -14.2037   16.7637    4.2678 O   0  0  0  0  0  0  0  0  0  0  0  0
  -14.6756   15.6522    3.5189 C   0  0  0  0  0  0  0  0  0  0  0  0
  -13.7734   14.4261    3.7592 C   0  0  0  0  0  0  0  0  0  0  0  0
  -10.2013   15.7160    2.0904 C   0  0  0  0  0  0  0  0  0  0  0  0
  -11.6454   16.2726    2.8708 S   0  0  0  0  0  0  0  0  0  0  0  0
  -12.4370   14.6980    3.1047 C   0  0  0  0  0  0  0  0  0  0  0  0
  -11.5128   13.8501    2.5463 C   0  0  0  0  0  0  0  0  0  0  0  0
  -10.3718   14.4015    2.0305 N   0  0  0  0  0  0  0  0  0  0  0  0
   -9.2948   13.5460    1.4170 C   0  0  0  0  0  0  0  0  0  0  0  0
   -8.1165   11.4680    2.3339 C   0  0  0  0  0  0  0  0  0  0  0  0
   -7.2033   10.8681    3.1573 N   0  0  0  0  0  0  0  0  0  0  0  0
   -6.4548   11.5907    3.9948 C   0  0  0  0  0  0  0  0  0  0  0  0
   -6.5844   12.9194    4.0492 N   0  0  0  0  0  0  0  0  0  0  0  0
   -7.4675   13.5846    3.2600 C   0  0  0  0  0  0  0  0  0  0  0  0
   -8.2751   12.8835    2.3576 C   0  0  0  0  0  0  0  0  0  0  0  0
  5  4  1  0  0  0  0
  5  6  1  0  0  0  0
  7  8  2  0  0  0  0
  7 11  1  0  0  0  0
  8  9  1  0  0  0  0
  9 10  2  0  0  0  0
  9  6  1  0  0  0  0
 10  3  1  0  0  0  0
 11 12  1  0  0  0  0
 11 10  1  0  0  0  0
 12 18  1  0  0  0  0
 13  2  1  0  0  0  0
 13 14  2  0  0  0  0
 15 14  1  0  0  0  0
 15  1  1  0  0  0  0
 16 15  2  0  0  0  0
 17 18  2  0  0  0  0
 17 16  1  0  0  0  0
 18 13  1  0  0  0  0
M  END
>  <CHROM.1>
-69.54829366,30.30830969,96.27710310,123.09264204,-10.07928378,13.69349897
2.99436903,-0.54573186,-0.20011412,0.29877038

>  <Name>
lig.pdb

>  <RI>
0

>  <Rbt.Current_Directory>
/home/itssahil/PROJECTS/Mol_Feturizer/New_Systems/rnas/4nyg

>  <Rbt.Executable>
rbdock ($Id: //depot/dev/client3/rdock/2013.1/src/exe/rbdock.cxx#4 $)

>  <Rbt.Library>
libRbt.so (2013.1, Build901 2013/11/27)

>  <Rbt.Parameter_File>
/export/apps/rDock/src/rDock_2013.1_src/data/scripts/dock_solv.prm

>  <Rbt.Receptor>
prm/pocket_docking_4.prm

>  <SCORE>
-20.4388

>  <SCORE.INTER>
-21.3927

>  <SCORE.INTER.CONST>
1

>  <SCORE.INTER.POLAR>
0

>  <SCORE.INTER.ROT>
4

>  <SCORE.INTER.SOLV>
11.0395

>  <SCORE.INTER.VDW>
-24.2083

>  <SCORE.INTER.norm>
-1.18848

>  <SCORE.INTRA>
0.953862

>  <SCORE.INTRA.DIHEDRAL>
1.65535

>  <SCORE.INTRA.DIHEDRAL.0>
3.20029

>  <SCORE.INTRA.POLAR>
0

>  <SCORE.INTRA.POLAR.0>
0

>  <SCORE.INTRA.REPUL>
0

>  <SCORE.INTRA.REPUL.0>
0

>  <SCORE.INTRA.SOLV>
0.772309

>  <SCORE.INTRA.SOLV.lig_0>
-19.3885

>  <SCORE.INTRA.VDW>
-0.259968

>  <SCORE.INTRA.VDW.0>
-1.12705

>  <SCORE.INTRA.norm>
0.0529924

>  <SCORE.RESTR>
0

>  <SCORE.RESTR.CAVITY>
0

>  <SCORE.RESTR.norm>
0

>  <SCORE.SYSTEM>
0

>  <SCORE.SYSTEM.CONST>
0

>  <SCORE.SYSTEM.DIHEDRAL>
0

>  <SCORE.SYSTEM.SOLV>
0

>  <SCORE.SYSTEM.norm>
0

>  <SCORE.heavy>
18

>  <SCORE.norm>
-1.13549

>  <RMSD>
7.273

$$$$
lig.pdb
 OpenBabel11021811503D
libRbt.so/2013.1/901 2013/11/27
 18 19  0  0  0  0  0  0  0  0999 V2000
   -4.4571   13.5912    4.9180 C   0  0  0  0  0  0  0  0  0  0  0  0
   -8.4675   11.0868    3.8333 N   0  0  0  0  0  0  0  0  0  0  0  0
  -10.0056   15.8320    2.0088 C   0  0  0  0  0  0  0  0  0  0  0  0
  -14.9933   15.4198    3.6377 O   0  0  0  0  0  0  0  0  0  0  0  0
  -14.2678   16.3049    2.7956 C   0  0  0  0  0  0  0  0  0  0  0  0
  -12.8021   16.4025    3.2616 C   0  0  0  0  0  0  0  0  0  0  0  0
  -11.4894   12.4923    2.8192 C   0  0  0  0  0  0  0  0  0  0  0  0
  -12.8132   13.4513    3.3953 S   0  0  0  0  0  0  0  0  0  0  0  0
  -12.1495   15.0585    3.0248 C   0  0  0  0  0  0  0  0  0  0  0  0
  -10.9332   14.7254    2.4821 C   0  0  0  0  0  0  0  0  0  0  0  0
  -10.6189   13.3970    2.3898 N   0  0  0  0  0  0  0  0  0  0  0  0
   -9.3157   12.9388    1.7899 C   0  0  0  0  0  0  0  0  0  0  0  0
   -7.6633   12.2021    3.5995 C   0  0  0  0  0  0  0  0  0  0  0  0
   -6.5150   12.3761    4.3226 N   0  0  0  0  0  0  0  0  0  0  0  0
   -5.7270   13.4345    4.1158 C   0  0  0  0  0  0  0  0  0  0  0  0
   -6.0458   14.3511    3.1975 N   0  0  0  0  0  0  0  0  0  0  0  0
   -7.1679   14.2436    2.4395 C   0  0  0  0  0  0  0  0  0  0  0  0
   -8.0301   13.1540    2.6050 C   0  0  0  0  0  0  0  0  0  0  0  0
  5  4  1  0  0  0  0
  5  6  1  0  0  0  0
  7  8  2  0  0  0  0
  7 11  1  0  0  0  0
  8  9  1  0  0  0  0
  9 10  2  0  0  0  0
  9  6  1  0  0  0  0
 10  3  1  0  0  0  0
 11 12  1  0  0  0  0
 11 10  1  0  0  0  0
 12 18  1  0  0  0  0
 13  2  1  0  0  0  0
 13 14  2  0  0  0  0
 15 14  1  0  0  0  0
 15  1  1  0  0  0  0
 16 15  2  0  0  0  0
 17 18  2  0  0  0  0
 17 16  1  0  0  0  0
 18 13  1  0  0  0  0
M  END
>  <CHROM.1>
67.16997200,-44.71184309,-108.36846574,83.79088124,-9.90812252,13.91236920
3.17283154,-0.27186579,-0.05934284,-0.13132871

>  <Name>
lig.pdb

>  <RI>
0

>  <Rbt.Current_Directory>
/home/itssahil/PROJECTS/Mol_Feturizer/New_Systems/rnas/4nyg

>  <Rbt.Executable>
rbdock ($Id: //depot/dev/client3/rdock/2013.1/src/exe/rbdock.cxx#4 $)

>  <Rbt.Library>
libRbt.so (2013.1, Build901 2013/11/27)

>  <Rbt.Parameter_File>
/export/apps/rDock/src/rDock_2013.1_src/data/scripts/dock_solv.prm

>  <Rbt.Receptor>
prm/pocket_docking_3.prm

>  <SCORE>
-21.5077

>  <SCORE.INTER>
-21.9396

>  <SCORE.INTER.CONST>
1

>  <SCORE.INTER.POLAR>
0

>  <SCORE.INTER.ROT>
4

>  <SCORE.INTER.SOLV>
11.2565

>  <SCORE.INTER.VDW>
-24.6452

>  <SCORE.INTER.norm>
-1.21887

>  <SCORE.INTRA>
0.431897

>  <SCORE.INTRA.DIHEDRAL>
0.472368

>  <SCORE.INTRA.DIHEDRAL.0>
3.20029

>  <SCORE.INTRA.POLAR>
0

>  <SCORE.INTRA.POLAR.0>
0

>  <SCORE.INTRA.REPUL>
0

>  <SCORE.INTRA.REPUL.0>
0

>  <SCORE.INTRA.SOLV>
0.932574

>  <SCORE.INTRA.SOLV.lig_0>
-19.3885

>  <SCORE.INTRA.VDW>
-0.270574

>  <SCORE.INTRA.VDW.0>
-1.12705

>  <SCORE.INTRA.norm>
0.0239943

>  <SCORE.RESTR>
0

>  <SCORE.RESTR.CAVITY>
0

>  <SCORE.RESTR.norm>
0

>  <SCORE.SYSTEM>
0

>  <SCORE.SYSTEM.CONST>
0

>  <SCORE.SYSTEM.DIHEDRAL>
0

>  <SCORE.SYSTEM.SOLV>
0

>  <SCORE.SYSTEM.norm>
0

>  <SCORE.heavy>
18

>  <SCORE.norm>
-1.19487

>  <RMSD>
7.275

$$$$
lig.pdb
 OpenBabel11021811503D
libRbt.so/2013.1/901 2013/11/27
 18 19  0  0  0  0  0  0  0  0999 V2000
   -4.9216   10.8819    4.5391 C   0  0  0  0  0  0  0  0  0  0  0  0
   -8.5109    9.6492    1.5174 N   0  0  0  0  0  0  0  0  0  0  0  0
   -9.7822   15.2597    1.6989 C   0  0  0  0  0  0  0  0  0  0  0  0
  -14.2367   17.7949    3.5412 O   0  0  0  0  0  0  0  0  0  0  0  0
  -13.8306   16.5068    3.0997 C   0  0  0  0  0  0  0  0  0  0  0  0
  -12.2958   16.3818    3.1611 C   0  0  0  0  0  0  0  0  0  0  0  0
  -11.8058   12.2850    2.7322 C   0  0  0  0  0  0  0  0  0  0  0  0
  -12.8643   13.4916    3.3862 S   0  0  0  0  0  0  0  0  0  0  0  0
  -11.9380   14.9332    2.9126 C   0  0  0  0  0  0  0  0  0  0  0  0
  -10.8609   14.3619    2.2814 C   0  0  0  0  0  0  0  0  0  0  0  0
  -10.8180   12.9965    2.2044 N   0  0  0  0  0  0  0  0  0  0  0  0
   -9.6851   12.2848    1.5130 C   0  0  0  0  0  0  0  0  0  0  0  0
   -7.8977   10.6301    2.2967 C   0  0  0  0  0  0  0  0  0  0  0  0
   -6.7753   10.3234    3.0165 N   0  0  0  0  0  0  0  0  0  0  0  0
   -6.1685   11.2454    3.7685 C   0  0  0  0  0  0  0  0  0  0  0  0
   -6.6479   12.4907    3.8369 N   0  0  0  0  0  0  0  0  0  0  0  0
   -7.7557   12.8693    3.1479 C   0  0  0  0  0  0  0  0  0  0  0  0
   -8.4316   11.9501    2.3378 C   0  0  0  0  0  0  0  0  0  0  0  0
  5  4  1  0  0  0  0
  5  6  1  0  0  0  0
  7  8  2  0  0  0  0
  7 11  1  0  0  0  0
  8  9  1  0  0  0  0
  9 10  2  0  0  0  0
  9  6  1  0  0  0  0
 10  3  1  0  0  0  0
 11 12  1  0  0  0  0
 11 10  1  0  0  0  0
 12 18  1  0  0  0  0
 13  2  1  0  0  0  0
 13 14  2  0  0  0  0
 15 14  1  0  0  0  0
 15  1  1  0  0  0  0
 16 15  2  0  0  0  0
 17 18  2  0  0  0  0
 17 16  1  0  0  0  0
 18 13  1  0  0  0  0
M  END
>  <CHROM.1>
170.44695866,-33.46135246,-93.49835860,130.77990224,-9.99154253,13.21351850
2.88202130,-0.61491323,-0.23051556,0.29960937

>  <Name>
lig.pdb

>  <RI>
0

>  <Rbt.Current_Directory>
/home/itssahil/PROJECTS/Mol_Feturizer/New_Systems/rnas/4nyg

>  <Rbt.Executable>
rbdock ($Id: //depot/dev/client3/rdock/2013.1/src/exe/rbdock.cxx#4 $)

>  <Rbt.Library>
libRbt.so (2013.1, Build901 2013/11/27)

>  <Rbt.Parameter_File>
/export/apps/rDock/src/rDock_2013.1_src/data/scripts/dock_solv.prm

>  <Rbt.Receptor>
prm/pocket_docking_4.prm

>  <SCORE>
-22.3303

>  <SCORE.INTER>
-22.8691

>  <SCORE.INTER.CONST>
1

>  <SCORE.INTER.POLAR>
0

>  <SCORE.INTER.ROT>
4

>  <SCORE.INTER.SOLV>
12.9638

>  <SCORE.INTER.VDW>
-25.834

>  <SCORE.INTER.norm>
-1.27051

>  <SCORE.INTRA>
0.537768

>  <SCORE.INTRA.DIHEDRAL>
1.28513

>  <SCORE.INTRA.DIHEDRAL.0>
3.20029

>  <SCORE.INTRA.POLAR>
0

>  <SCORE.INTRA.POLAR.0>
0

>  <SCORE.INTRA.REPUL>
0

>  <SCORE.INTRA.REPUL.0>
0

>  <SCORE.INTRA.SOLV>
0.0594706

>  <SCORE.INTRA.SOLV.lig_0>
-19.3885

>  <SCORE.INTRA.VDW>
-0.134531

>  <SCORE.INTRA.VDW.0>
-1.12705

>  <SCORE.INTRA.norm>
0.029876

>  <SCORE.RESTR>
0.00106748

>  <SCORE.RESTR.CAVITY>
0.00106748

>  <SCORE.RESTR.norm>
5.93044e-05

>  <SCORE.SYSTEM>
0

>  <SCORE.SYSTEM.CONST>
0

>  <SCORE.SYSTEM.DIHEDRAL>
0

>  <SCORE.SYSTEM.SOLV>
0

>  <SCORE.SYSTEM.norm>
0

>  <SCORE.heavy>
18

>  <SCORE.norm>
-1.24057

>  <RMSD>
7.278

$$$$
lig.pdb
 OpenBabel11021811503D
libRbt.so/2013.1/901 2013/11/27
 18 19  0  0  0  0  0  0  0  0999 V2000
   -5.9464    9.5506    4.8888 C   0  0  0  0  0  0  0  0  0  0  0  0
   -6.3502   12.1576    0.8179 N   0  0  0  0  0  0  0  0  0  0  0  0
  -11.7490   12.1168    2.3731 C   0  0  0  0  0  0  0  0  0  0  0  0
  -13.7841   16.8383    3.5625 O   0  0  0  0  0  0  0  0  0  0  0  0
  -14.2770   15.6099    3.0456 C   0  0  0  0  0  0  0  0  0  0  0  0
  -13.4459   14.4314    3.5890 C   0  0  0  0  0  0  0  0  0  0  0  0
   -9.6748   15.2159    2.0489 C   0  0  0  0  0  0  0  0  0  0  0  0
  -11.0461   15.9633    2.8006 S   0  0  0  0  0  0  0  0  0  0  0  0
  -12.0646   14.5170    2.9781 C   0  0  0  0  0  0  0  0  0  0  0  0
  -11.2566   13.5533    2.4275 C   0  0  0  0  0  0  0  0  0  0  0  0
  -10.0323   13.9415    1.9558 N   0  0  0  0  0  0  0  0  0  0  0  0
   -9.0725   12.9490    1.3542 C   0  0  0  0  0  0  0  0  0  0  0  0
   -6.9411   11.6836    1.9890 C   0  0  0  0  0  0  0  0  0  0  0  0
   -6.2247   10.8833    2.8364 N   0  0  0  0  0  0  0  0  0  0  0  0
   -6.7672   10.4185    3.9649 C   0  0  0  0  0  0  0  0  0  0  0  0
   -8.0267   10.7234    4.2903 N   0  0  0  0  0  0  0  0  0  0  0  0
   -8.7977   11.5149    3.5001 C   0  0  0  0  0  0  0  0  0  0  0  0
   -8.2836   12.0375    2.3082 C   0  0  0  0  0  0  0  0  0  0  0  0
  5  4  1  0  0  0  0
  5  6  1  0  0  0  0
  7  8  2  0  0  0  0
  7 11  1  0  0  0  0
  8  9  1  0  0  0  0
  9 10  2  0  0  0  0
  9  6  1  0  0  0  0
 10  3  1  0  0  0  0
 11 12  1  0  0  0  0
 11 10  1  0  0  0  0
 12 18  1  0  0  0  0
 13  2  1  0  0  0  0
 13 14  2  0  0  0  0
 15 14  1  0  0  0  0
 15  1  1  0  0  0  0
 16 15  2  0  0  0  0
 17 18  2  0  0  0  0
 17 16  1  0  0  0  0
 18 13  1  0  0  0  0
M  END
>  <CHROM.1>
-68.67127997,44.81264365,101.82492078,-144.11641732,-9.79941631,13.24053772
2.83268267,0.52745674,-0.43343107,2.48097517

>  <Name>
lig.pdb

>  <RI>
0

>  <Rbt.Current_Directory>
/home/itssahil/PROJECTS/Mol_Feturizer/New_Systems/rnas/4nyg

>  <Rbt.Executable>
rbdock ($Id: //depot/dev/client3/rdock/2013.1/src/exe/rbdock.cxx#4 $)

>  <Rbt.Library>
libRbt.so (2013.1, Build901 2013/11/27)

>  <Rbt.Parameter_File>
/export/apps/rDock/src/rDock_2013.1_src/data/scripts/dock_solv.prm

>  <Rbt.Receptor>
prm/pocket_docking_7.prm

>  <SCORE>
-21.6882

>  <SCORE.INTER>
-22.153

>  <SCORE.INTER.CONST>
1

>  <SCORE.INTER.POLAR>
0

>  <SCORE.INTER.ROT>
4

>  <SCORE.INTER.SOLV>
12.2385

>  <SCORE.INTER.VDW>
-25.1148

>  <SCORE.INTER.norm>
-1.23072

>  <SCORE.INTRA>
0.464819

>  <SCORE.INTRA.DIHEDRAL>
0.66313

>  <SCORE.INTRA.DIHEDRAL.0>
3.20029

>  <SCORE.INTRA.POLAR>
0

>  <SCORE.INTRA.POLAR.0>
0

>  <SCORE.INTRA.REPUL>
0

>  <SCORE.INTRA.REPUL.0>
0

>  <SCORE.INTRA.SOLV>
0.464054

>  <SCORE.INTRA.SOLV.lig_0>
-19.3885

>  <SCORE.INTRA.VDW>
-0.0987734

>  <SCORE.INTRA.VDW.0>
-1.12705

>  <SCORE.INTRA.norm>
0.0258233

>  <SCORE.RESTR>
0

>  <SCORE.RESTR.CAVITY>
0

>  <SCORE.RESTR.norm>
0

>  <SCORE.SYSTEM>
0

>  <SCORE.SYSTEM.CONST>
0

>  <SCORE.SYSTEM.DIHEDRAL>
0

>  <SCORE.SYSTEM.SOLV>
0

>  <SCORE.SYSTEM.norm>
0

>  <SCORE.heavy>
18

>  <SCORE.norm>
-1.2049

>  <RMSD>
7.278

$$$$
lig.pdb
 OpenBabel11021811503D
libRbt.so/2013.1/901 2013/11/27
 18 19  0  0  0  0  0  0  0  0999 V2000
   -4.1309   14.9834    3.9085 C   0  0  0  0  0  0  0  0  0  0  0  0
   -6.8092   14.3867   -0.0919 N   0  0  0  0  0  0  0  0  0  0  0  0
   -9.9550   15.7850    1.6983 C   0  0  0  0  0  0  0  0  0  0  0  0
  -14.8208   14.6408    3.1558 O   0  0  0  0  0  0  0  0  0  0  0  0
  -13.9739   15.5176    3.8860 C   0  0  0  0  0  0  0  0  0  0  0  0
  -12.7741   15.9448    3.0184 C   0  0  0  0  0  0  0  0  0  0  0  0
  -11.0213   12.2508    2.3180 C   0  0  0  0  0  0  0  0  0  0  0  0
  -12.4368   13.0103    2.9688 S   0  0  0  0  0  0  0  0  0  0  0  0
  -11.9733   14.7039    2.6907 C   0  0  0  0  0  0  0  0  0  0  0  0
  -10.7372   14.5501    2.1134 C   0  0  0  0  0  0  0  0  0  0  0  0
  -10.2713   13.2761    1.9349 N   0  0  0  0  0  0  0  0  0  0  0  0
   -8.9353   13.0120    1.2918 C   0  0  0  0  0  0  0  0  0  0  0  0
   -6.6593   14.1811    1.2795 C   0  0  0  0  0  0  0  0  0  0  0  0
   -5.5377   14.6370    1.9168 N   0  0  0  0  0  0  0  0  0  0  0  0
   -5.3718   14.4545    3.2295 C   0  0  0  0  0  0  0  0  0  0  0  0
   -6.2992   13.8179    3.9506 N   0  0  0  0  0  0  0  0  0  0  0  0
   -7.4395   13.3406    3.3875 C   0  0  0  0  0  0  0  0  0  0  0  0
   -7.6737   13.5065    2.0179 C   0  0  0  0  0  0  0  0  0  0  0  0
  5  4  1  0  0  0  0
  5  6  1  0  0  0  0
  7  8  2  0  0  0  0
  7 11  1  0  0  0  0
  8  9  1  0  0  0  0
  9 10  2  0  0  0  0
  9  6  1  0  0  0  0
 10  3  1  0  0  0  0
 11 12  1  0  0  0  0
 11 10  1  0  0  0  0
 12 18  1  0  0  0  0
 13  2  1  0  0  0  0
 13 14  2  0  0  0  0
 15 14  1  0  0  0  0
 15  1  1  0  0  0  0
 16 15  2  0  0  0  0
 17 18  2  0  0  0  0
 17 16  1  0  0  0  0
 18 13  1  0  0  0  0
M  END
>  <CHROM.1>
-62.81398536,10.41495703,-116.72291542,-134.51852126,-9.54134599,14.15978368
2.52852127,-0.05441532,0.03607235,0.77731098

>  <Name>
lig.pdb

>  <RI>
0

>  <Rbt.Current_Directory>
/home/itssahil/PROJECTS/Mol_Feturizer/New_Systems/rnas/4nyg

>  <Rbt.Executable>
rbdock ($Id: //depot/dev/client3/rdock/2013.1/src/exe/rbdock.cxx#4 $)

>  <Rbt.Library>
libRbt.so (2013.1, Build901 2013/11/27)

>  <Rbt.Parameter_File>
/export/apps/rDock/src/rDock_2013.1_src/data/scripts/dock_solv.prm

>  <Rbt.Receptor>
prm/pocket_docking_7.prm

>  <SCORE>
-18.3678

>  <SCORE.INTER>
-20.1624

>  <SCORE.INTER.CONST>
1

>  <SCORE.INTER.POLAR>
0

>  <SCORE.INTER.ROT>
4

>  <SCORE.INTER.SOLV>
11.6158

>  <SCORE.INTER.VDW>
-23.5802

>  <SCORE.INTER.norm>
-1.12013

>  <SCORE.INTRA>
1.79453

>  <SCORE.INTRA.DIHEDRAL>
2.43901

>  <SCORE.INTRA.DIHEDRAL.0>
3.20029

>  <SCORE.INTRA.POLAR>
0

>  <SCORE.INTRA.POLAR.0>
0

>  <SCORE.INTRA.REPUL>
0

>  <SCORE.INTRA.REPUL.0>
0

>  <SCORE.INTRA.SOLV>
0.677004

>  <SCORE.INTRA.SOLV.lig_0>
-19.3885

>  <SCORE.INTRA.VDW>
0.236525

>  <SCORE.INTRA.VDW.0>
-1.12705

>  <SCORE.INTRA.norm>
0.0996963

>  <SCORE.RESTR>
0

>  <SCORE.RESTR.CAVITY>
0

>  <SCORE.RESTR.norm>
0

>  <SCORE.SYSTEM>
0

>  <SCORE.SYSTEM.CONST>
0

>  <SCORE.SYSTEM.DIHEDRAL>
0

>  <SCORE.SYSTEM.SOLV>
0

>  <SCORE.SYSTEM.norm>
0

>  <SCORE.heavy>
18

>  <SCORE.norm>
-1.02044

>  <RMSD>
7.287

$$$$
lig.pdb
 OpenBabel11021811503D
libRbt.so/2013.1/901 2013/11/27
 18 19  0  0  0  0  0  0  0  0999 V2000
   -5.9119    9.9498    5.0380 C   0  0  0  0  0  0  0  0  0  0  0  0
   -7.7315   14.1279    3.3753 N   0  0  0  0  0  0  0  0  0  0  0  0
  -11.9582   12.1560    2.4196 C   0  0  0  0  0  0  0  0  0  0  0  0
  -13.6985   16.9910    3.7388 O   0  0  0  0  0  0  0  0  0  0  0  0
  -14.2941   15.8435    3.1494 C   0  0  0  0  0  0  0  0  0  0  0  0
  -13.5463   14.5697    3.5888 C   0  0  0  0  0  0  0  0  0  0  0  0
   -9.7951   15.1703    1.9228 C   0  0  0  0  0  0  0  0  0  0  0  0
  -11.1208   15.9905    2.6802 S   0  0  0  0  0  0  0  0  0  0  0  0
  -12.1801   14.5865    2.9396 C   0  0  0  0  0  0  0  0  0  0  0  0
  -11.4186   13.5764    2.4059 C   0  0  0  0  0  0  0  0  0  0  0  0
  -10.1957   13.9058    1.8881 N   0  0  0  0  0  0  0  0  0  0  0  0
   -9.2849   12.8602    1.3006 C   0  0  0  0  0  0  0  0  0  0  0  0
   -7.6523   12.7396    3.2672 C   0  0  0  0  0  0  0  0  0  0  0  0
   -6.8659   12.0336    4.1361 N   0  0  0  0  0  0  0  0  0  0  0  0
   -6.7752   10.7036    4.0546 C   0  0  0  0  0  0  0  0  0  0  0  0
   -7.4502   10.0316    3.1174 N   0  0  0  0  0  0  0  0  0  0  0  0
   -8.2529   10.6642    2.2227 C   0  0  0  0  0  0  0  0  0  0  0  0
   -8.3941   12.0559    2.2613 C   0  0  0  0  0  0  0  0  0  0  0  0
  5  4  1  0  0  0  0
  5  6  1  0  0  0  0
  7  8  2  0  0  0  0
  7 11  1  0  0  0  0
  8  9  1  0  0  0  0
  9 10  2  0  0  0  0
  9  6  1  0  0  0  0
 10  3  1  0  0  0  0
 11 12  1  0  0  0  0
 11 10  1  0  0  0  0
 12 18  1  0  0  0  0
 13  2  1  0  0  0  0
 13 14  2  0  0  0  0
 15 14  1  0  0  0  0
 15  1  1  0  0  0  0
 16 15  2  0  0  0  0
 17 18  2  0  0  0  0
 17 16  1  0  0  0  0
 18 13  1  0  0  0  0
M  END
>  <CHROM.1>
-69.30519106,38.29730768,95.76715588,-46.92524978,-9.94654121,13.44321113
2.97041674,-0.67545522,-0.12565773,0.03197686

>  <Name>
lig.pdb

>  <RI>
0

>  <Rbt.Current_Directory>
/home/itssahil/PROJECTS/Mol_Feturizer/New_Systems/rnas/4nyg

>  <Rbt.Executable>
rbdock ($Id: //depot/dev/client3/rdock/2013.1/src/exe/rbdock.cxx#4 $)

>  <Rbt.Library>
libRbt.so (2013.1, Build901 2013/11/27)

>  <Rbt.Parameter_File>
/export/apps/rDock/src/rDock_2013.1_src/data/scripts/dock_solv.prm

>  <Rbt.Receptor>
prm/pocket_docking_5.prm

>  <SCORE>
-20.5495

>  <SCORE.INTER>
-21.7973

>  <SCORE.INTER.CONST>
1

>  <SCORE.INTER.POLAR>
0

>  <SCORE.INTER.ROT>
4

>  <SCORE.INTER.SOLV>
11.1151

>  <SCORE.INTER.VDW>
-24.5032

>  <SCORE.INTER.norm>
-1.21096

>  <SCORE.INTRA>
1.24781

>  <SCORE.INTRA.DIHEDRAL>
1.09276

>  <SCORE.INTRA.DIHEDRAL.0>
3.20029

>  <SCORE.INTRA.POLAR>
0

>  <SCORE.INTRA.POLAR.0>
0

>  <SCORE.INTRA.REPUL>
0

>  <SCORE.INTRA.REPUL.0>
0

>  <SCORE.INTRA.SOLV>
1.48285

>  <SCORE.INTRA.SOLV.lig_0>
-19.3885

>  <SCORE.INTRA.VDW>
-0.039994

>  <SCORE.INTRA.VDW.0>
-1.12705

>  <SCORE.INTRA.norm>
0.069323

>  <SCORE.RESTR>
0

>  <SCORE.RESTR.CAVITY>
0

>  <SCORE.RESTR.norm>
0

>  <SCORE.SYSTEM>
0

>  <SCORE.SYSTEM.CONST>
0

>  <SCORE.SYSTEM.DIHEDRAL>
0

>  <SCORE.SYSTEM.SOLV>
0

>  <SCORE.SYSTEM.norm>
0

>  <SCORE.heavy>
18

>  <SCORE.norm>
-1.14164

>  <RMSD>
7.290

$$$$
lig.pdb
 OpenBabel11021811503D
libRbt.so/2013.1/901 2013/11/27
 18 19  0  0  0  0  0  0  0  0999 V2000
   -5.3640   15.9106   -0.0059 C   0  0  0  0  0  0  0  0  0  0  0  0
   -7.0574   13.8716    4.0570 N   0  0  0  0  0  0  0  0  0  0  0  0
  -10.0403   15.9054    2.8904 C   0  0  0  0  0  0  0  0  0  0  0  0
  -15.1672   15.8490    3.7987 O   0  0  0  0  0  0  0  0  0  0  0  0
  -14.0807   16.7275    4.0570 C   0  0  0  0  0  0  0  0  0  0  0  0
  -13.0621   16.6693    2.9021 C   0  0  0  0  0  0  0  0  0  0  0  0
  -11.9351   12.6776    2.8387 C   0  0  0  0  0  0  0  0  0  0  0  0
  -13.3148   13.7262    2.8649 S   0  0  0  0  0  0  0  0  0  0  0  0
  -12.4568   15.2831    2.8866 C   0  0  0  0  0  0  0  0  0  0  0  0
  -11.1488   14.8661    2.8791 C   0  0  0  0  0  0  0  0  0  0  0  0
  -10.9094   13.5192    2.8558 N   0  0  0  0  0  0  0  0  0  0  0  0
   -9.5067   12.9719    2.8257 C   0  0  0  0  0  0  0  0  0  0  0  0
   -7.2507   14.1736    2.7091 C   0  0  0  0  0  0  0  0  0  0  0  0
   -6.2893   14.8633    2.0221 N   0  0  0  0  0  0  0  0  0  0  0  0
   -6.4498   15.1626    0.7304 C   0  0  0  0  0  0  0  0  0  0  0  0
   -7.5579   14.7966    0.0797 N   0  0  0  0  0  0  0  0  0  0  0  0
   -8.5535   14.1070    0.6949 C   0  0  0  0  0  0  0  0  0  0  0  0
   -8.4409   13.7585    2.0454 C   0  0  0  0  0  0  0  0  0  0  0  0
  5  4  1  0  0  0  0
  5  6  1  0  0  0  0
  7  8  2  0  0  0  0
  7 11  1  0  0  0  0
  8  9  1  0  0  0  0
  9 10  2  0  0  0  0
  9  6  1  0  0  0  0
 10  3  1  0  0  0  0
 11 12  1  0  0  0  0
 11 10  1  0  0  0  0
 12 18  1  0  0  0  0
 13  2  1  0  0  0  0
 13 14  2  0  0  0  0
 15 14  1  0  0  0  0
 15  1  1  0  0  0  0
 16 15  2  0  0  0  0
 17 18  2  0  0  0  0
 17 16  1  0  0  0  0
 18 13  1  0  0  0  0
M  END
>  <CHROM.1>
-65.62676389,52.07834753,144.15063981,124.18928811,-10.20485064,14.67591226
2.44211734,0.01331890,0.28661434,-0.24337574

>  <Name>
lig.pdb

>  <RI>
0

>  <Rbt.Current_Directory>
/home/itssahil/PROJECTS/Mol_Feturizer/New_Systems/rnas/4nyg

>  <Rbt.Executable>
rbdock ($Id: //depot/dev/client3/rdock/2013.1/src/exe/rbdock.cxx#4 $)

>  <Rbt.Library>
libRbt.so (2013.1, Build901 2013/11/27)

>  <Rbt.Parameter_File>
/export/apps/rDock/src/rDock_2013.1_src/data/scripts/dock_solv.prm

>  <Rbt.Receptor>
prm/pocket_docking_6.prm

>  <SCORE>
-21.2949

>  <SCORE.INTER>
-23.438

>  <SCORE.INTER.CONST>
1

>  <SCORE.INTER.POLAR>
0

>  <SCORE.INTER.ROT>
4

>  <SCORE.INTER.SOLV>
11.2223

>  <SCORE.INTER.VDW>
-25.6328

>  <SCORE.INTER.norm>
-1.30211

>  <SCORE.INTRA>
2.1431

>  <SCORE.INTRA.DIHEDRAL>
0.0948713

>  <SCORE.INTRA.DIHEDRAL.0>
3.20029

>  <SCORE.INTRA.POLAR>
0

>  <SCORE.INTRA.POLAR.0>
0

>  <SCORE.INTRA.REPUL>
0

>  <SCORE.INTRA.REPUL.0>
0

>  <SCORE.INTRA.SOLV>
0.993734

>  <SCORE.INTRA.SOLV.lig_0>
-19.3885

>  <SCORE.INTRA.VDW>
1.5988

>  <SCORE.INTRA.VDW.0>
-1.12705

>  <SCORE.INTRA.norm>
0.119061

>  <SCORE.RESTR>
0

>  <SCORE.RESTR.CAVITY>
0

>  <SCORE.RESTR.norm>
0

>  <SCORE.SYSTEM>
0

>  <SCORE.SYSTEM.CONST>
0

>  <SCORE.SYSTEM.DIHEDRAL>
0

>  <SCORE.SYSTEM.SOLV>
0

>  <SCORE.SYSTEM.norm>
0

>  <SCORE.heavy>
18

>  <SCORE.norm>
-1.18305

>  <RMSD>
7.291

$$$$
lig.pdb
 OpenBabel11021811503D
libRbt.so/2013.1/901 2013/11/27
 18 19  0  0  0  0  0  0  0  0999 V2000
   -5.0876   13.4172    5.6833 C   0  0  0  0  0  0  0  0  0  0  0  0
   -8.2830   10.8024    3.1368 N   0  0  0  0  0  0  0  0  0  0  0  0
  -10.2031   16.0123    1.7710 C   0  0  0  0  0  0  0  0  0  0  0  0
  -15.0313   15.9401    3.9423 O   0  0  0  0  0  0  0  0  0  0  0  0
  -13.9131   16.8156    3.9863 C   0  0  0  0  0  0  0  0  0  0  0  0
  -13.1017   16.7099    2.6803 C   0  0  0  0  0  0  0  0  0  0  0  0
  -11.7867   12.7770    2.7894 C   0  0  0  0  0  0  0  0  0  0  0  0
  -13.1512   13.7903    3.1290 S   0  0  0  0  0  0  0  0  0  0  0  0
  -12.4412   15.3492    2.6534 C   0  0  0  0  0  0  0  0  0  0  0  0
  -11.1814   14.9616    2.2692 C   0  0  0  0  0  0  0  0  0  0  0  0
  -10.8712   13.6315    2.3509 N   0  0  0  0  0  0  0  0  0  0  0  0
   -9.5206   13.1136    1.9320 C   0  0  0  0  0  0  0  0  0  0  0  0
   -7.7873   12.0573    3.4900 C   0  0  0  0  0  0  0  0  0  0  0  0
   -6.7442   12.1534    4.3701 N   0  0  0  0  0  0  0  0  0  0  0  0
   -6.2502   13.3432    4.7224 C   0  0  0  0  0  0  0  0  0  0  0  0
   -6.7680   14.4696    4.2237 N   0  0  0  0  0  0  0  0  0  0  0  0
   -7.8019   14.4525    3.3429 C   0  0  0  0  0  0  0  0  0  0  0  0
   -8.3582   13.2365    2.9306 C   0  0  0  0  0  0  0  0  0  0  0  0
  5  4  1  0  0  0  0
  5  6  1  0  0  0  0
  7  8  2  0  0  0  0
  7 11  1  0  0  0  0
  8  9  1  0  0  0  0
  9 10  2  0  0  0  0
  9  6  1  0  0  0  0
 10  3  1  0  0  0  0
 11 12  1  0  0  0  0
 11 10  1  0  0  0  0
 12 18  1  0  0  0  0
 13  2  1  0  0  0  0
 13 14  2  0  0  0  0
 15 14  1  0  0  0  0
 15  1  1  0  0  0  0
 16 15  2  0  0  0  0
 17 18  2  0  0  0  0
 17 16  1  0  0  0  0
 18 13  1  0  0  0  0
M  END
>  <CHROM.1>
-69.19504744,41.65809572,-99.62133751,113.27704082,-10.17723566,14.07234000
3.30161751,-0.31280430,-0.23234838,0.22797352

>  <Name>
lig.pdb

>  <RI>
0

>  <Rbt.Current_Directory>
/home/itssahil/PROJECTS/Mol_Feturizer/New_Systems/rnas/4nyg

>  <Rbt.Executable>
rbdock ($Id: //depot/dev/client3/rdock/2013.1/src/exe/rbdock.cxx#4 $)

>  <Rbt.Library>
libRbt.so (2013.1, Build901 2013/11/27)

>  <Rbt.Parameter_File>
/export/apps/rDock/src/rDock_2013.1_src/data/scripts/dock_solv.prm

>  <Rbt.Receptor>
prm/pocket_docking_8.prm

>  <SCORE>
-23.0732

>  <SCORE.INTER>
-23.6422

>  <SCORE.INTER.CONST>
1

>  <SCORE.INTER.POLAR>
0

>  <SCORE.INTER.ROT>
4

>  <SCORE.INTER.SOLV>
12.695

>  <SCORE.INTER.VDW>
-26.2598

>  <SCORE.INTER.norm>
-1.31345

>  <SCORE.INTRA>
0.568935

>  <SCORE.INTRA.DIHEDRAL>
0.7593

>  <SCORE.INTRA.DIHEDRAL.0>
3.20029

>  <SCORE.INTRA.POLAR>
0

>  <SCORE.INTRA.POLAR.0>
0

>  <SCORE.INTRA.REPUL>
0

>  <SCORE.INTRA.REPUL.0>
0

>  <SCORE.INTRA.SOLV>
0.654412

>  <SCORE.INTRA.SOLV.lig_0>
-19.3885

>  <SCORE.INTRA.VDW>
-0.137921

>  <SCORE.INTRA.VDW.0>
-1.12705

>  <SCORE.INTRA.norm>
0.0316075

>  <SCORE.RESTR>
0

>  <SCORE.RESTR.CAVITY>
0

>  <SCORE.RESTR.norm>
0

>  <SCORE.SYSTEM>
0

>  <SCORE.SYSTEM.CONST>
0

>  <SCORE.SYSTEM.DIHEDRAL>
0

>  <SCORE.SYSTEM.SOLV>
0

>  <SCORE.SYSTEM.norm>
0

>  <SCORE.heavy>
18

>  <SCORE.norm>
-1.28185

>  <RMSD>
7.292

$$$$
lig.pdb
 OpenBabel11021811503D
libRbt.so/2013.1/901 2013/11/27
 18 19  0  0  0  0  0  0  0  0999 V2000
   -4.9832   16.9502    2.8023 C   0  0  0  0  0  0  0  0  0  0  0  0
   -7.7642   14.3170   -0.1751 N   0  0  0  0  0  0  0  0  0  0  0  0
  -10.3329   16.0938    1.7097 C   0  0  0  0  0  0  0  0  0  0  0  0
  -15.0021   15.6980    4.1208 O   0  0  0  0  0  0  0  0  0  0  0  0
  -13.9944   16.6957    4.0309 C   0  0  0  0  0  0  0  0  0  0  0  0
  -13.2525   16.5841    2.6848 C   0  0  0  0  0  0  0  0  0  0  0  0
  -11.6096   12.7809    2.8955 C   0  0  0  0  0  0  0  0  0  0  0  0
  -13.0440   13.6903    3.2412 S   0  0  0  0  0  0  0  0  0  0  0  0
  -12.4812   15.2828    2.6866 C   0  0  0  0  0  0  0  0  0  0  0  0
  -11.2049   14.9861    2.2768 C   0  0  0  0  0  0  0  0  0  0  0  0
  -10.7820   13.6904    2.3972 N   0  0  0  0  0  0  0  0  0  0  0  0
   -9.4052   13.2700    1.9546 C   0  0  0  0  0  0  0  0  0  0  0  0
   -7.4632   14.7160    1.1270 C   0  0  0  0  0  0  0  0  0  0  0  0
   -6.4278   15.5820    1.3507 N   0  0  0  0  0  0  0  0  0  0  0  0
   -6.1211   15.9807    2.5879 C   0  0  0  0  0  0  0  0  0  0  0  0
   -6.8192   15.5386    3.6380 N   0  0  0  0  0  0  0  0  0  0  0  0
   -7.8620   14.6802    3.4931 C   0  0  0  0  0  0  0  0  0  0  0  0
   -8.2357   14.2315    2.2215 C   0  0  0  0  0  0  0  0  0  0  0  0
  5  4  1  0  0  0  0
  5  6  1  0  0  0  0
  7  8  2  0  0  0  0
  7 11  1  0  0  0  0
  8  9  1  0  0  0  0
  9 10  2  0  0  0  0
  9  6  1  0  0  0  0
 10  3  1  0  0  0  0
 11 12  1  0  0  0  0
 11 10  1  0  0  0  0
 12 18  1  0  0  0  0
 13  2  1  0  0  0  0
 13 14  2  0  0  0  0
 15 14  1  0  0  0  0
 15  1  1  0  0  0  0
 16 15  2  0  0  0  0
 17 18  2  0  0  0  0
 17 16  1  0  0  0  0
 18 13  1  0  0  0  0
M  END
>  <CHROM.1>
-67.03044099,43.53508282,-142.17620894,-120.96297811,-10.09416875,14.97630441
2.57076429,-0.01575396,0.18722080,0.39305259

>  <Name>
lig.pdb

>  <RI>
0

>  <Rbt.Current_Directory>
/home/itssahil/PROJECTS/Mol_Feturizer/New_Systems/rnas/4nyg

>  <Rbt.Executable>
rbdock ($Id: //depot/dev/client3/rdock/2013.1/src/exe/rbdock.cxx#4 $)

>  <Rbt.Library>
libRbt.so (2013.1, Build901 2013/11/27)

>  <Rbt.Parameter_File>
/export/apps/rDock/src/rDock_2013.1_src/data/scripts/dock_solv.prm

>  <Rbt.Receptor>
prm/pocket_docking_4.prm

>  <SCORE>
-20.8258

>  <SCORE.INTER>
-22.835

>  <SCORE.INTER.CONST>
1

>  <SCORE.INTER.POLAR>
0

>  <SCORE.INTER.ROT>
4

>  <SCORE.INTER.SOLV>
12.4458

>  <SCORE.INTER.VDW>
-25.6386

>  <SCORE.INTER.norm>
-1.26861

>  <SCORE.INTRA>
2.00925

>  <SCORE.INTRA.DIHEDRAL>
0.643095

>  <SCORE.INTRA.DIHEDRAL.0>
3.20029

>  <SCORE.INTRA.POLAR>
0

>  <SCORE.INTRA.POLAR.0>
0

>  <SCORE.INTRA.REPUL>
0

>  <SCORE.INTRA.REPUL.0>
0

>  <SCORE.INTRA.SOLV>
1.03765

>  <SCORE.INTRA.SOLV.lig_0>
-19.3885

>  <SCORE.INTRA.VDW>
1.16888

>  <SCORE.INTRA.VDW.0>
-1.12705

>  <SCORE.INTRA.norm>
0.111625

>  <SCORE.RESTR>
0

>  <SCORE.RESTR.CAVITY>
0

>  <SCORE.RESTR.norm>
0

>  <SCORE.SYSTEM>
0

>  <SCORE.SYSTEM.CONST>
0

>  <SCORE.SYSTEM.DIHEDRAL>
0

>  <SCORE.SYSTEM.SOLV>
0

>  <SCORE.SYSTEM.norm>
0

>  <SCORE.heavy>
18

>  <SCORE.norm>
-1.15699

>  <RMSD>
7.302

$$$$
lig.pdb
 OpenBabel11021811503D
libRbt.so/2013.1/901 2013/11/27
 18 19  0  0  0  0  0  0  0  0999 V2000
   -6.0016    9.7099    4.7857 C   0  0  0  0  0  0  0  0  0  0  0  0
   -6.4227   12.5700    0.8902 N   0  0  0  0  0  0  0  0  0  0  0  0
  -11.8697   12.2519    2.3897 C   0  0  0  0  0  0  0  0  0  0  0  0
  -13.8803   16.9347    3.7623 O   0  0  0  0  0  0  0  0  0  0  0  0
  -14.4036   15.7353    3.2086 C   0  0  0  0  0  0  0  0  0  0  0  0
  -13.5710   14.5254    3.6752 C   0  0  0  0  0  0  0  0  0  0  0  0
   -9.8287   15.3764    2.1004 C   0  0  0  0  0  0  0  0  0  0  0  0
  -11.1964   16.0955    2.8856 S   0  0  0  0  0  0  0  0  0  0  0  0
  -12.1991   14.6364    3.0475 C   0  0  0  0  0  0  0  0  0  0  0  0
  -11.3899   13.6916    2.4665 C   0  0  0  0  0  0  0  0  0  0  0  0
  -10.1758   14.1008    1.9863 N   0  0  0  0  0  0  0  0  0  0  0  0
   -9.2153   13.1298    1.3517 C   0  0  0  0  0  0  0  0  0  0  0  0
   -7.0262   11.9727    1.9968 C   0  0  0  0  0  0  0  0  0  0  0  0
   -6.2896   11.1649    2.8195 N   0  0  0  0  0  0  0  0  0  0  0  0
   -6.8438   10.5833    3.8865 C   0  0  0  0  0  0  0  0  0  0  0  0
   -8.1346   10.7758    4.1728 N   0  0  0  0  0  0  0  0  0  0  0  0
   -8.9272   11.5669    3.4039 C   0  0  0  0  0  0  0  0  0  0  0  0
   -8.4029   12.2086    2.2764 C   0  0  0  0  0  0  0  0  0  0  0  0
  5  4  1  0  0  0  0
  5  6  1  0  0  0  0
  7  8  2  0  0  0  0
  7 11  1  0  0  0  0
  8  9  1  0  0  0  0
  9 10  2  0  0  0  0
  9  6  1  0  0  0  0
 10  3  1  0  0  0  0
 11 12  1  0  0  0  0
 11 10  1  0  0  0  0
 12 18  1  0  0  0  0
 13  2  1  0  0  0  0
 13 14  2  0  0  0  0
 15 14  1  0  0  0  0
 15  1  1  0  0  0  0
 16 15  2  0  0  0  0
 17 18  2  0  0  0  0
 17 16  1  0  0  0  0
 18 13  1  0  0  0  0
M  END
>  <CHROM.1>
-67.60078407,42.73909777,101.70592249,-138.40471938,-9.91476851,13.40015898
2.85987248,0.52682876,-0.41145935,2.53765403

>  <Name>
lig.pdb

>  <RI>
0

>  <Rbt.Current_Directory>
/home/itssahil/PROJECTS/Mol_Feturizer/New_Systems/rnas/4nyg

>  <Rbt.Executable>
rbdock ($Id: //depot/dev/client3/rdock/2013.1/src/exe/rbdock.cxx#4 $)

>  <Rbt.Library>
libRbt.so (2013.1, Build901 2013/11/27)

>  <Rbt.Parameter_File>
/export/apps/rDock/src/rDock_2013.1_src/data/scripts/dock_solv.prm

>  <Rbt.Receptor>
prm/pocket_docking_7.prm

>  <SCORE>
-21.7077

>  <SCORE.INTER>
-22.3338

>  <SCORE.INTER.CONST>
1

>  <SCORE.INTER.POLAR>
0

>  <SCORE.INTER.ROT>
4

>  <SCORE.INTER.SOLV>
12.0117

>  <SCORE.INTER.VDW>
-25.1598

>  <SCORE.INTER.norm>
-1.24077

>  <SCORE.INTRA>
0.62616

>  <SCORE.INTRA.DIHEDRAL>
0.710101

>  <SCORE.INTRA.DIHEDRAL.0>
3.20029

>  <SCORE.INTRA.POLAR>
0

>  <SCORE.INTRA.POLAR.0>
0

>  <SCORE.INTRA.REPUL>
0

>  <SCORE.INTRA.REPUL.0>
0

>  <SCORE.INTRA.SOLV>
0.487798

>  <SCORE.INTRA.SOLV.lig_0>
-19.3885

>  <SCORE.INTRA.VDW>
0.0272107

>  <SCORE.INTRA.VDW.0>
-1.12705

>  <SCORE.INTRA.norm>
0.0347867

>  <SCORE.RESTR>
0

>  <SCORE.RESTR.CAVITY>
0

>  <SCORE.RESTR.norm>
0

>  <SCORE.SYSTEM>
0

>  <SCORE.SYSTEM.CONST>
0

>  <SCORE.SYSTEM.DIHEDRAL>
0

>  <SCORE.SYSTEM.SOLV>
0

>  <SCORE.SYSTEM.norm>
0

>  <SCORE.heavy>
18

>  <SCORE.norm>
-1.20598

>  <RMSD>
7.303

$$$$
lig.pdb
 OpenBabel11021811503D
libRbt.so/2013.1/901 2013/11/27
 18 19  0  0  0  0  0  0  0  0999 V2000
   -4.3440   13.5358    5.5913 C   0  0  0  0  0  0  0  0  0  0  0  0
   -8.0737   11.2120    3.5368 N   0  0  0  0  0  0  0  0  0  0  0  0
  -11.6585   12.3299    2.6625 C   0  0  0  0  0  0  0  0  0  0  0  0
  -14.5684   16.5284    2.5015 O   0  0  0  0  0  0  0  0  0  0  0  0
  -14.5674   15.7384    3.6826 C   0  0  0  0  0  0  0  0  0  0  0  0
  -13.8738   14.3876    3.4197 C   0  0  0  0  0  0  0  0  0  0  0  0
  -10.0389   15.7023    2.5404 C   0  0  0  0  0  0  0  0  0  0  0  0
  -11.6209   16.2495    2.9895 S   0  0  0  0  0  0  0  0  0  0  0  0
  -12.4308   14.6686    3.0631 C   0  0  0  0  0  0  0  0  0  0  0  0
  -11.4015   13.8263    2.7226 C   0  0  0  0  0  0  0  0  0  0  0  0
  -10.1814   14.3858    2.4573 N   0  0  0  0  0  0  0  0  0  0  0  0
   -8.9910   13.5372    2.0955 C   0  0  0  0  0  0  0  0  0  0  0  0
   -7.3595   12.3983    3.7044 C   0  0  0  0  0  0  0  0  0  0  0  0
   -6.2622   12.4217    4.5212 N   0  0  0  0  0  0  0  0  0  0  0  0
   -5.5604   13.5445    4.6965 C   0  0  0  0  0  0  0  0  0  0  0  0
   -5.9179   14.6738    4.0783 N   0  0  0  0  0  0  0  0  0  0  0  0
   -6.9933   14.7260    3.2502 C   0  0  0  0  0  0  0  0  0  0  0  0
   -7.7645   13.5810    3.0214 C   0  0  0  0  0  0  0  0  0  0  0  0
  5  4  1  0  0  0  0
  5  6  1  0  0  0  0
  7  8  2  0  0  0  0
  7 11  1  0  0  0  0
  8  9  1  0  0  0  0
  9 10  2  0  0  0  0
  9  6  1  0  0  0  0
 10  3  1  0  0  0  0
 11 12  1  0  0  0  0
 11 10  1  0  0  0  0
 12 18  1  0  0  0  0
 13  2  1  0  0  0  0
 13 14  2  0  0  0  0
 15 14  1  0  0  0  0
 15  1  1  0  0  0  0
 16 15  2  0  0  0  0
 17 18  2  0  0  0  0
 17 16  1  0  0  0  0
 18 13  1  0  0  0  0
M  END
>  <CHROM.1>
63.05815525,1.52301403,60.28465587,116.77428259,-9.73597702,14.24897763,3.33723961
-0.27863141,-0.19872557,0.05734365

>  <Name>
lig.pdb

>  <RI>
0

>  <Rbt.Current_Directory>
/home/itssahil/PROJECTS/Mol_Feturizer/New_Systems/rnas/4nyg

>  <Rbt.Executable>
rbdock ($Id: //depot/dev/client3/rdock/2013.1/src/exe/rbdock.cxx#4 $)

>  <Rbt.Library>
libRbt.so (2013.1, Build901 2013/11/27)

>  <Rbt.Parameter_File>
/export/apps/rDock/src/rDock_2013.1_src/data/scripts/dock_solv.prm

>  <Rbt.Receptor>
prm/pocket_docking_3.prm

>  <SCORE>
-19.2304

>  <SCORE.INTER>
-21.2417

>  <SCORE.INTER.CONST>
1

>  <SCORE.INTER.POLAR>
0

>  <SCORE.INTER.ROT>
4

>  <SCORE.INTER.SOLV>
11.8743

>  <SCORE.INTER.VDW>
-24.3859

>  <SCORE.INTER.norm>
-1.1801

>  <SCORE.INTRA>
2.01137

>  <SCORE.INTRA.DIHEDRAL>
2.64621

>  <SCORE.INTRA.DIHEDRAL.0>
3.20029

>  <SCORE.INTRA.POLAR>
0

>  <SCORE.INTRA.POLAR.0>
0

>  <SCORE.INTRA.REPUL>
0

>  <SCORE.INTRA.REPUL.0>
0

>  <SCORE.INTRA.SOLV>
0.727248

>  <SCORE.INTRA.SOLV.lig_0>
-19.3885

>  <SCORE.INTRA.VDW>
0.324644

>  <SCORE.INTRA.VDW.0>
-1.12705

>  <SCORE.INTRA.norm>
0.111743

>  <SCORE.RESTR>
0

>  <SCORE.RESTR.CAVITY>
0

>  <SCORE.RESTR.norm>
0

>  <SCORE.SYSTEM>
0

>  <SCORE.SYSTEM.CONST>
0

>  <SCORE.SYSTEM.DIHEDRAL>
0

>  <SCORE.SYSTEM.SOLV>
0

>  <SCORE.SYSTEM.norm>
0

>  <SCORE.heavy>
18

>  <SCORE.norm>
-1.06835

>  <RMSD>
7.306

$$$$
lig.pdb
 OpenBabel11021811503D
libRbt.so/2013.1/901 2013/11/27
 18 19  0  0  0  0  0  0  0  0999 V2000
   -4.0399   15.3268    0.2945 C   0  0  0  0  0  0  0  0  0  0  0  0
   -7.0663   12.6596    2.9889 N   0  0  0  0  0  0  0  0  0  0  0  0
  -12.0046   12.3882    2.4970 C   0  0  0  0  0  0  0  0  0  0  0  0
  -14.1101   16.9746    4.1930 O   0  0  0  0  0  0  0  0  0  0  0  0
  -14.6199   15.8799    3.4442 C   0  0  0  0  0  0  0  0  0  0  0  0
  -13.8067   14.6054    3.7427 C   0  0  0  0  0  0  0  0  0  0  0  0
  -10.1088   15.5966    2.1453 C   0  0  0  0  0  0  0  0  0  0  0  0
  -11.5071   16.2671    2.9194 S   0  0  0  0  0  0  0  0  0  0  0  0
  -12.4419   14.7671    3.1105 C   0  0  0  0  0  0  0  0  0  0  0  0
  -11.5910   13.8495    2.5459 C   0  0  0  0  0  0  0  0  0  0  0  0
  -10.3973   14.3045    2.0558 N   0  0  0  0  0  0  0  0  0  0  0  0
   -9.3941   13.3666    1.4378 C   0  0  0  0  0  0  0  0  0  0  0  0
   -6.8851   13.5289    1.9133 C   0  0  0  0  0  0  0  0  0  0  0  0
   -5.6343   14.0022    1.6247 N   0  0  0  0  0  0  0  0  0  0  0  0
   -5.4345   14.8338    0.5989 C   0  0  0  0  0  0  0  0  0  0  0  0
   -6.4559   15.2254   -0.1685 N   0  0  0  0  0  0  0  0  0  0  0  0
   -7.7246   14.7945    0.0553 C   0  0  0  0  0  0  0  0  0  0  0  0
   -7.9964   13.9171    1.1110 C   0  0  0  0  0  0  0  0  0  0  0  0
  5  4  1  0  0  0  0
  5  6  1  0  0  0  0
  7  8  2  0  0  0  0
  7 11  1  0  0  0  0
  8  9  1  0  0  0  0
  9 10  2  0  0  0  0
  9  6  1  0  0  0  0
 10  3  1  0  0  0  0
 11 12  1  0  0  0  0
 11 10  1  0  0  0  0
 12 18  1  0  0  0  0
 13  2  1  0  0  0  0
 13 14  2  0  0  0  0
 15 14  1  0  0  0  0
 15  1  1  0  0  0  0
 16 15  2  0  0  0  0
 17 18  2  0  0  0  0
 17 16  1  0  0  0  0
 18 13  1  0  0  0  0
M  END
>  <CHROM.1>
-70.92663511,33.64862946,8.24266547,107.18799939,-9.70230672,14.71111704
2.11486220,-0.09881299,0.34228366,-0.09898710

>  <Name>
lig.pdb

>  <RI>
0

>  <Rbt.Current_Directory>
/home/itssahil/PROJECTS/Mol_Feturizer/New_Systems/rnas/4nyg

>  <Rbt.Executable>
rbdock ($Id: //depot/dev/client3/rdock/2013.1/src/exe/rbdock.cxx#4 $)

>  <Rbt.Library>
libRbt.so (2013.1, Build901 2013/11/27)

>  <Rbt.Parameter_File>
/export/apps/rDock/src/rDock_2013.1_src/data/scripts/dock_solv.prm

>  <Rbt.Receptor>
prm/pocket_docking_5.prm

>  <SCORE>
-20.2205

>  <SCORE.INTER>
-21.6185

>  <SCORE.INTER.CONST>
1

>  <SCORE.INTER.POLAR>
0

>  <SCORE.INTER.ROT>
4

>  <SCORE.INTER.SOLV>
11.001

>  <SCORE.INTER.VDW>
-24.346

>  <SCORE.INTER.norm>
-1.20103

>  <SCORE.INTRA>
1.39796

>  <SCORE.INTRA.DIHEDRAL>
1.43191

>  <SCORE.INTRA.DIHEDRAL.0>
3.20029

>  <SCORE.INTRA.POLAR>
0

>  <SCORE.INTRA.POLAR.0>
0

>  <SCORE.INTRA.REPUL>
0

>  <SCORE.INTRA.REPUL.0>
0

>  <SCORE.INTRA.SOLV>
0.552937

>  <SCORE.INTRA.SOLV.lig_0>
-19.3885

>  <SCORE.INTRA.VDW>
0.40554

>  <SCORE.INTRA.VDW.0>
-1.12705

>  <SCORE.INTRA.norm>
0.0776647

>  <SCORE.RESTR>
0

>  <SCORE.RESTR.CAVITY>
0

>  <SCORE.RESTR.norm>
0

>  <SCORE.SYSTEM>
0

>  <SCORE.SYSTEM.CONST>
0

>  <SCORE.SYSTEM.DIHEDRAL>
0

>  <SCORE.SYSTEM.SOLV>
0

>  <SCORE.SYSTEM.norm>
0

>  <SCORE.heavy>
18

>  <SCORE.norm>
-1.12336

>  <RMSD>
7.306

$$$$
lig.pdb
 OpenBabel11021811503D
libRbt.so/2013.1/901 2013/11/27
 18 19  0  0  0  0  0  0  0  0999 V2000
   -3.8583   17.4721    3.0901 C   0  0  0  0  0  0  0  0  0  0  0  0
   -6.4142   13.5310    4.3014 N   0  0  0  0  0  0  0  0  0  0  0  0
  -10.9255   12.3431    2.7590 C   0  0  0  0  0  0  0  0  0  0  0  0
  -14.6634   16.0997    3.2029 O   0  0  0  0  0  0  0  0  0  0  0  0
  -14.3790   14.9099    3.9258 C   0  0  0  0  0  0  0  0  0  0  0  0
  -13.5994   13.9204    3.0381 C   0  0  0  0  0  0  0  0  0  0  0  0
  -10.0340   15.9685    2.4885 C   0  0  0  0  0  0  0  0  0  0  0  0
  -11.7410   16.1905    2.6905 S   0  0  0  0  0  0  0  0  0  0  0  0
  -12.2103   14.4812    2.8275 C   0  0  0  0  0  0  0  0  0  0  0  0
  -10.9929   13.8598    2.6975 C   0  0  0  0  0  0  0  0  0  0  0  0
   -9.8897   14.6499    2.5226 N   0  0  0  0  0  0  0  0  0  0  0  0
   -8.5120   14.0559    2.3912 C   0  0  0  0  0  0  0  0  0  0  0  0
   -6.2985   14.6769    3.5147 C   0  0  0  0  0  0  0  0  0  0  0  0
   -5.2118   15.4952    3.6608 N   0  0  0  0  0  0  0  0  0  0  0  0
   -5.0769   16.5969    2.9179 C   0  0  0  0  0  0  0  0  0  0  0  0
   -6.0050   16.9266    2.0150 N   0  0  0  0  0  0  0  0  0  0  0  0
   -7.1087   16.1612    1.8120 C   0  0  0  0  0  0  0  0  0  0  0  0
   -7.3032   14.9916    2.5550 C   0  0  0  0  0  0  0  0  0  0  0  0
  5  4  1  0  0  0  0
  5  6  1  0  0  0  0
  7  8  2  0  0  0  0
  7 11  1  0  0  0  0
  8  9  1  0  0  0  0
  9 10  2  0  0  0  0
  9  6  1  0  0  0  0
 10  3  1  0  0  0  0
 11 12  1  0  0  0  0
 11 10  1  0  0  0  0
 12 18  1  0  0  0  0
 13  2  1  0  0  0  0
 13 14  2  0  0  0  0
 15 14  1  0  0  0  0
 15  1  1  0  0  0  0
 16 15  2  0  0  0  0
 17 18  2  0  0  0  0
 17 16  1  0  0  0  0
 18 13  1  0  0  0  0
M  END
>  <CHROM.1>
70.13249433,-33.89511360,14.17398287,125.14465655,-9.36545655,15.20878776
2.90491940,0.13787510,-0.01171942,-0.15632613

>  <Name>
lig.pdb

>  <RI>
0

>  <Rbt.Current_Directory>
/home/itssahil/PROJECTS/Mol_Feturizer/New_Systems/rnas/4nyg

>  <Rbt.Executable>
rbdock ($Id: //depot/dev/client3/rdock/2013.1/src/exe/rbdock.cxx#4 $)

>  <Rbt.Library>
libRbt.so (2013.1, Build901 2013/11/27)

>  <Rbt.Parameter_File>
/export/apps/rDock/src/rDock_2013.1_src/data/scripts/dock_solv.prm

>  <Rbt.Receptor>
prm/pocket_docking_3.prm

>  <SCORE>
-18.2128

>  <SCORE.INTER>
-19.8804

>  <SCORE.INTER.CONST>
1

>  <SCORE.INTER.POLAR>
0

>  <SCORE.INTER.ROT>
4

>  <SCORE.INTER.SOLV>
10.9794

>  <SCORE.INTER.VDW>
-23.1801

>  <SCORE.INTER.norm>
-1.10447

>  <SCORE.INTRA>
1.66758

>  <SCORE.INTRA.DIHEDRAL>
1.31537

>  <SCORE.INTRA.DIHEDRAL.0>
3.20029

>  <SCORE.INTRA.POLAR>
0

>  <SCORE.INTRA.POLAR.0>
0

>  <SCORE.INTRA.REPUL>
0

>  <SCORE.INTRA.REPUL.0>
0

>  <SCORE.INTRA.SOLV>
0.488012

>  <SCORE.INTRA.SOLV.lig_0>
-19.3885

>  <SCORE.INTRA.VDW>
0.765884

>  <SCORE.INTRA.VDW.0>
-1.12705

>  <SCORE.INTRA.norm>
0.0926431

>  <SCORE.RESTR>
0

>  <SCORE.RESTR.CAVITY>
0

>  <SCORE.RESTR.norm>
0

>  <SCORE.SYSTEM>
0

>  <SCORE.SYSTEM.CONST>
0

>  <SCORE.SYSTEM.DIHEDRAL>
0

>  <SCORE.SYSTEM.SOLV>
0

>  <SCORE.SYSTEM.norm>
0

>  <SCORE.heavy>
18

>  <SCORE.norm>
-1.01182

>  <RMSD>
7.307

$$$$
lig.pdb
 OpenBabel11021811503D
libRbt.so/2013.1/901 2013/11/27
 18 19  0  0  0  0  0  0  0  0999 V2000
   -4.3476   13.5152    5.4878 C   0  0  0  0  0  0  0  0  0  0  0  0
   -8.1949   11.2376    3.6054 N   0  0  0  0  0  0  0  0  0  0  0  0
  -11.7023   12.3315    2.6869 C   0  0  0  0  0  0  0  0  0  0  0  0
  -14.5541   16.5394    2.4903 O   0  0  0  0  0  0  0  0  0  0  0  0
  -14.5853   15.7682    3.6833 C   0  0  0  0  0  0  0  0  0  0  0  0
  -13.8938   14.4096    3.4578 C   0  0  0  0  0  0  0  0  0  0  0  0
  -10.0702   15.6943    2.4893 C   0  0  0  0  0  0  0  0  0  0  0  0
  -11.6411   16.2549    2.9606 S   0  0  0  0  0  0  0  0  0  0  0  0
  -12.4565   14.6790    3.0705 C   0  0  0  0  0  0  0  0  0  0  0  0
  -11.4376   13.8273    2.7221 C   0  0  0  0  0  0  0  0  0  0  0  0
  -10.2202   14.3775    2.4265 N   0  0  0  0  0  0  0  0  0  0  0  0
   -9.0406   13.5185    2.0539 C   0  0  0  0  0  0  0  0  0  0  0  0
   -7.4323   12.4015    3.7011 C   0  0  0  0  0  0  0  0  0  0  0  0
   -6.3233   12.4240    4.5020 N   0  0  0  0  0  0  0  0  0  0  0  0
   -5.5755   13.5254    4.6087 C   0  0  0  0  0  0  0  0  0  0  0  0
   -5.8971   14.6341    3.9358 N   0  0  0  0  0  0  0  0  0  0  0  0
   -6.9814   14.6856    3.1193 C   0  0  0  0  0  0  0  0  0  0  0  0
   -7.8002   13.5619    2.9611 C   0  0  0  0  0  0  0  0  0  0  0  0
  5  4  1  0  0  0  0
  5  6  1  0  0  0  0
  7  8  2  0  0  0  0
  7 11  1  0  0  0  0
  8  9  1  0  0  0  0
  9 10  2  0  0  0  0
  9  6  1  0  0  0  0
 10  3  1  0  0  0  0
 11 12  1  0  0  0  0
 11 10  1  0  0  0  0
 12 18  1  0  0  0  0
 13  2  1  0  0  0  0
 13 14  2  0  0  0  0
 15 14  1  0  0  0  0
 15  1  1  0  0  0  0
 16 15  2  0  0  0  0
 17 18  2  0  0  0  0
 17 16  1  0  0  0  0
 18 13  1  0  0  0  0
M  END
>  <CHROM.1>
60.59457669,2.82982969,60.67674539,113.56356431,-9.76511861,14.24643661,3.30607589
-0.28959957,-0.17815021,0.01564901

>  <Name>
lig.pdb

>  <RI>
0

>  <Rbt.Current_Directory>
/home/itssahil/PROJECTS/Mol_Feturizer/New_Systems/rnas/4nyg

>  <Rbt.Executable>
rbdock ($Id: //depot/dev/client3/rdock/2013.1/src/exe/rbdock.cxx#4 $)

>  <Rbt.Library>
libRbt.so (2013.1, Build901 2013/11/27)

>  <Rbt.Parameter_File>
/export/apps/rDock/src/rDock_2013.1_src/data/scripts/dock_solv.prm

>  <Rbt.Receptor>
prm/pocket_docking_3.prm

>  <SCORE>
-19.2904

>  <SCORE.INTER>
-21.3399

>  <SCORE.INTER.CONST>
1

>  <SCORE.INTER.POLAR>
0

>  <SCORE.INTER.ROT>
4

>  <SCORE.INTER.SOLV>
11.811

>  <SCORE.INTER.VDW>
-24.4302

>  <SCORE.INTER.norm>
-1.18555

>  <SCORE.INTRA>
2.04944

>  <SCORE.INTRA.DIHEDRAL>
2.6038

>  <SCORE.INTRA.DIHEDRAL.0>
3.20029

>  <SCORE.INTRA.POLAR>
0

>  <SCORE.INTRA.POLAR.0>
0

>  <SCORE.INTRA.REPUL>
0

>  <SCORE.INTRA.REPUL.0>
0

>  <SCORE.INTRA.SOLV>
0.781801

>  <SCORE.INTRA.SOLV.lig_0>
-19.3885

>  <SCORE.INTRA.VDW>
0.356639

>  <SCORE.INTRA.VDW.0>
-1.12705

>  <SCORE.INTRA.norm>
0.113858

>  <SCORE.RESTR>
0

>  <SCORE.RESTR.CAVITY>
0

>  <SCORE.RESTR.norm>
0

>  <SCORE.SYSTEM>
0

>  <SCORE.SYSTEM.CONST>
0

>  <SCORE.SYSTEM.DIHEDRAL>
0

>  <SCORE.SYSTEM.SOLV>
0

>  <SCORE.SYSTEM.norm>
0

>  <SCORE.heavy>
18

>  <SCORE.norm>
-1.07169

>  <RMSD>
7.307

$$$$
lig.pdb
 OpenBabel11021811503D
libRbt.so/2013.1/901 2013/11/27
 18 19  0  0  0  0  0  0  0  0999 V2000
   -4.4004   13.4954    5.5897 C   0  0  0  0  0  0  0  0  0  0  0  0
   -8.2079   11.2702    3.5688 N   0  0  0  0  0  0  0  0  0  0  0  0
  -11.6860   12.3730    2.6927 C   0  0  0  0  0  0  0  0  0  0  0  0
  -14.5572   16.5379    2.5068 O   0  0  0  0  0  0  0  0  0  0  0  0
  -14.6202   15.7623    3.6957 C   0  0  0  0  0  0  0  0  0  0  0  0
  -13.9021   14.4142    3.4912 C   0  0  0  0  0  0  0  0  0  0  0  0
  -10.0921   15.7568    2.5481 C   0  0  0  0  0  0  0  0  0  0  0  0
  -11.6699   16.2923    3.0252 S   0  0  0  0  0  0  0  0  0  0  0  0
  -12.4675   14.7057    3.1103 C   0  0  0  0  0  0  0  0  0  0  0  0
  -11.4384   13.8710    2.7507 C   0  0  0  0  0  0  0  0  0  0  0  0
  -10.2270   14.4393    2.4653 N   0  0  0  0  0  0  0  0  0  0  0  0
   -9.0371   13.5995    2.0818 C   0  0  0  0  0  0  0  0  0  0  0  0
   -7.4514   12.4328    3.7162 C   0  0  0  0  0  0  0  0  0  0  0  0
   -6.3556   12.4317    4.5354 N   0  0  0  0  0  0  0  0  0  0  0  0
   -5.6139   13.5314    4.6915 C   0  0  0  0  0  0  0  0  0  0  0  0
   -5.9288   14.6611    4.0513 N   0  0  0  0  0  0  0  0  0  0  0  0
   -7.0000   14.7367    3.2194 C   0  0  0  0  0  0  0  0  0  0  0  0
   -7.8118   13.6163    3.0100 C   0  0  0  0  0  0  0  0  0  0  0  0
  5  4  1  0  0  0  0
  5  6  1  0  0  0  0
  7  8  2  0  0  0  0
  7 11  1  0  0  0  0
  8  9  1  0  0  0  0
  9 10  2  0  0  0  0
  9  6  1  0  0  0  0
 10  3  1  0  0  0  0
 11 12  1  0  0  0  0
 11 10  1  0  0  0  0
 12 18  1  0  0  0  0
 13  2  1  0  0  0  0
 13 14  2  0  0  0  0
 15 14  1  0  0  0  0
 15  1  1  0  0  0  0
 16 15  2  0  0  0  0
 17 18  2  0  0  0  0
 17 16  1  0  0  0  0
 18 13  1  0  0  0  0
M  END
>  <CHROM.1>
58.69757842,4.46082619,62.17321784,113.44253496,-9.78322941,14.27636660,3.35089920
-0.28719464,-0.18853469,0.03336375

>  <Name>
lig.pdb

>  <RI>
0

>  <Rbt.Current_Directory>
/home/itssahil/PROJECTS/Mol_Feturizer/New_Systems/rnas/4nyg

>  <Rbt.Executable>
rbdock ($Id: //depot/dev/client3/rdock/2013.1/src/exe/rbdock.cxx#4 $)

>  <Rbt.Library>
libRbt.so (2013.1, Build901 2013/11/27)

>  <Rbt.Parameter_File>
/export/apps/rDock/src/rDock_2013.1_src/data/scripts/dock_solv.prm

>  <Rbt.Receptor>
prm/pocket_docking_3.prm

>  <SCORE>
-19.3444

>  <SCORE.INTER>
-21.4228

>  <SCORE.INTER.CONST>
1

>  <SCORE.INTER.POLAR>
0

>  <SCORE.INTER.ROT>
4

>  <SCORE.INTER.SOLV>
12.003

>  <SCORE.INTER.VDW>
-24.5495

>  <SCORE.INTER.norm>
-1.19015

>  <SCORE.INTRA>
2.07841

>  <SCORE.INTRA.DIHEDRAL>
2.59319

>  <SCORE.INTRA.DIHEDRAL.0>
3.20029

>  <SCORE.INTRA.POLAR>
0

>  <SCORE.INTRA.POLAR.0>
0

>  <SCORE.INTRA.REPUL>
0

>  <SCORE.INTRA.REPUL.0>
0

>  <SCORE.INTRA.SOLV>
0.80462

>  <SCORE.INTRA.SOLV.lig_0>
-19.3885

>  <SCORE.INTRA.VDW>
0.379505

>  <SCORE.INTRA.VDW.0>
-1.12705

>  <SCORE.INTRA.norm>
0.115467

>  <SCORE.RESTR>
0

>  <SCORE.RESTR.CAVITY>
0

>  <SCORE.RESTR.norm>
0

>  <SCORE.SYSTEM>
0

>  <SCORE.SYSTEM.CONST>
0

>  <SCORE.SYSTEM.DIHEDRAL>
0

>  <SCORE.SYSTEM.SOLV>
0

>  <SCORE.SYSTEM.norm>
0

>  <SCORE.heavy>
18

>  <SCORE.norm>
-1.07469

>  <RMSD>
7.312

$$$$
lig.pdb
 OpenBabel11021811503D
libRbt.so/2013.1/901 2013/11/27
 18 19  0  0  0  0  0  0  0  0999 V2000
   -5.5233   16.9639    0.1823 C   0  0  0  0  0  0  0  0  0  0  0  0
   -7.1157   14.7018    4.1672 N   0  0  0  0  0  0  0  0  0  0  0  0
  -10.1530   15.9802    2.8879 C   0  0  0  0  0  0  0  0  0  0  0  0
  -15.1671   15.0224    3.8139 O   0  0  0  0  0  0  0  0  0  0  0  0
  -14.2509   16.0804    4.0593 C   0  0  0  0  0  0  0  0  0  0  0  0
  -13.2613   16.2114    2.8851 C   0  0  0  0  0  0  0  0  0  0  0  0
  -11.4620   12.4770    2.7282 C   0  0  0  0  0  0  0  0  0  0  0  0
  -13.0022   13.2710    2.7664 S   0  0  0  0  0  0  0  0  0  0  0  0
  -12.4258   14.9512    2.8397 C   0  0  0  0  0  0  0  0  0  0  0  0
  -11.0654   14.7662    2.8361 C   0  0  0  0  0  0  0  0  0  0  0  0
  -10.5971   13.4819    2.7795 N   0  0  0  0  0  0  0  0  0  0  0  0
   -9.1208   13.1855    2.7510 C   0  0  0  0  0  0  0  0  0  0  0  0
   -7.2245   14.9030    2.7913 C   0  0  0  0  0  0  0  0  0  0  0  0
   -6.3882   15.7864    2.1651 N   0  0  0  0  0  0  0  0  0  0  0  0
   -6.4709   15.9950    0.8485 C   0  0  0  0  0  0  0  0  0  0  0  0
   -7.3775   15.3457    0.1124 N   0  0  0  0  0  0  0  0  0  0  0  0
   -8.2389   14.4517    0.6639 C   0  0  0  0  0  0  0  0  0  0  0  0
   -8.1969   14.1856    2.0370 C   0  0  0  0  0  0  0  0  0  0  0  0
  5  4  1  0  0  0  0
  5  6  1  0  0  0  0
  7  8  2  0  0  0  0
  7 11  1  0  0  0  0
  8  9  1  0  0  0  0
  9 10  2  0  0  0  0
  9  6  1  0  0  0  0
 10  3  1  0  0  0  0
 11 12  1  0  0  0  0
 11 10  1  0  0  0  0
 12 18  1  0  0  0  0
 13  2  1  0  0  0  0
 13 14  2  0  0  0  0
 15 14  1  0  0  0  0
 15  1  1  0  0  0  0
 16 15  2  0  0  0  0
 17 18  2  0  0  0  0
 17 16  1  0  0  0  0
 18 13  1  0  0  0  0
M  END
>  <CHROM.1>
-65.14606631,53.94583404,145.76972493,115.33471577,-10.10771120,14.78625611
2.44572343,0.16986225,0.24981174,-0.14275611

>  <Name>
lig.pdb

>  <RI>
0

>  <Rbt.Current_Directory>
/home/itssahil/PROJECTS/Mol_Feturizer/New_Systems/rnas/4nyg

>  <Rbt.Executable>
rbdock ($Id: //depot/dev/client3/rdock/2013.1/src/exe/rbdock.cxx#4 $)

>  <Rbt.Library>
libRbt.so (2013.1, Build901 2013/11/27)

>  <Rbt.Parameter_File>
/export/apps/rDock/src/rDock_2013.1_src/data/scripts/dock_solv.prm

>  <Rbt.Receptor>
prm/blind_docking_80.prm

>  <SCORE>
-19.9588

>  <SCORE.INTER>
-22.341

>  <SCORE.INTER.CONST>
1

>  <SCORE.INTER.POLAR>
0

>  <SCORE.INTER.ROT>
4

>  <SCORE.INTER.SOLV>
11.299

>  <SCORE.INTER.VDW>
-24.927

>  <SCORE.INTER.norm>
-1.24117

>  <SCORE.INTRA>
2.38222

>  <SCORE.INTRA.DIHEDRAL>
0.0256996

>  <SCORE.INTRA.DIHEDRAL.0>
3.20029

>  <SCORE.INTRA.POLAR>
0

>  <SCORE.INTRA.POLAR.0>
0

>  <SCORE.INTRA.REPUL>
0

>  <SCORE.INTRA.REPUL.0>
0

>  <SCORE.INTRA.SOLV>
1.15399

>  <SCORE.INTRA.SOLV.lig_0>
-19.3885

>  <SCORE.INTRA.VDW>
1.79237

>  <SCORE.INTRA.VDW.0>
-1.12705

>  <SCORE.INTRA.norm>
0.132345

>  <SCORE.RESTR>
0

>  <SCORE.RESTR.CAVITY>
0

>  <SCORE.RESTR.norm>
0

>  <SCORE.SYSTEM>
0

>  <SCORE.SYSTEM.CONST>
0

>  <SCORE.SYSTEM.DIHEDRAL>
0

>  <SCORE.SYSTEM.SOLV>
0

>  <SCORE.SYSTEM.norm>
0

>  <SCORE.heavy>
18

>  <SCORE.norm>
-1.10882

>  <RMSD>
7.315

$$$$
lig.pdb
 OpenBabel11021811503D
libRbt.so/2013.1/901 2013/11/27
 18 19  0  0  0  0  0  0  0  0999 V2000
   -5.1101   13.0202    6.2751 C   0  0  0  0  0  0  0  0  0  0  0  0
   -8.2762   10.6902    3.4328 N   0  0  0  0  0  0  0  0  0  0  0  0
  -10.1564   15.8502    2.0418 C   0  0  0  0  0  0  0  0  0  0  0  0
  -14.8014   17.1122    4.2364 O   0  0  0  0  0  0  0  0  0  0  0  0
  -14.0988   15.8993    4.0037 C   0  0  0  0  0  0  0  0  0  0  0  0
  -13.1798   16.0431    2.7751 C   0  0  0  0  0  0  0  0  0  0  0  0
  -11.3089   12.3425    2.6579 C   0  0  0  0  0  0  0  0  0  0  0  0
  -12.8273   13.1167    2.9725 S   0  0  0  0  0  0  0  0  0  0  0  0
  -12.3253   14.7979    2.6865 C   0  0  0  0  0  0  0  0  0  0  0  0
  -10.9996   14.6299    2.3717 C   0  0  0  0  0  0  0  0  0  0  0  0
  -10.5026   13.3551    2.3660 N   0  0  0  0  0  0  0  0  0  0  0  0
   -9.0657   13.0747    2.0129 C   0  0  0  0  0  0  0  0  0  0  0  0
   -7.6751   11.8922    3.8061 C   0  0  0  0  0  0  0  0  0  0  0  0
   -6.7410   11.9036    4.8056 N   0  0  0  0  0  0  0  0  0  0  0  0
   -6.1496   13.0411    5.1798 C   0  0  0  0  0  0  0  0  0  0  0  0
   -6.4607   14.1971    4.5863 N   0  0  0  0  0  0  0  0  0  0  0  0
   -7.3760   14.2629    3.5847 C   0  0  0  0  0  0  0  0  0  0  0  0
   -8.0249   13.1041    3.1440 C   0  0  0  0  0  0  0  0  0  0  0  0
  5  4  1  0  0  0  0
  5  6  1  0  0  0  0
  7  8  2  0  0  0  0
  7 11  1  0  0  0  0
  8  9  1  0  0  0  0
  9 10  2  0  0  0  0
  9  6  1  0  0  0  0
 10  3  1  0  0  0  0
 11 12  1  0  0  0  0
 11 10  1  0  0  0  0
 12 18  1  0  0  0  0
 13  2  1  0  0  0  0
 13 14  2  0  0  0  0
 15 14  1  0  0  0  0
 15  1  1  0  0  0  0
 16 15  2  0  0  0  0
 17 18  2  0  0  0  0
 17 16  1  0  0  0  0
 18 13  1  0  0  0  0
M  END
>  <CHROM.1>
172.50671724,40.71835658,-92.54760952,93.92282293,-9.99192125,13.79523618
3.47630028,-0.26622566,-0.32110823,0.37883209

>  <Name>
lig.pdb

>  <RI>
0

>  <Rbt.Current_Directory>
/home/itssahil/PROJECTS/Mol_Feturizer/New_Systems/rnas/4nyg

>  <Rbt.Executable>
rbdock ($Id: //depot/dev/client3/rdock/2013.1/src/exe/rbdock.cxx#4 $)

>  <Rbt.Library>
libRbt.so (2013.1, Build901 2013/11/27)

>  <Rbt.Parameter_File>
/export/apps/rDock/src/rDock_2013.1_src/data/scripts/dock_solv.prm

>  <Rbt.Receptor>
prm/pocket_docking_7.prm

>  <SCORE>
-22.1337

>  <SCORE.INTER>
-22.3746

>  <SCORE.INTER.CONST>
1

>  <SCORE.INTER.POLAR>
0

>  <SCORE.INTER.ROT>
4

>  <SCORE.INTER.SOLV>
13.1938

>  <SCORE.INTER.VDW>
-25.581

>  <SCORE.INTER.norm>
-1.24304

>  <SCORE.INTRA>
0.240967

>  <SCORE.INTRA.DIHEDRAL>
0.70333

>  <SCORE.INTRA.DIHEDRAL.0>
3.20029

>  <SCORE.INTRA.POLAR>
0

>  <SCORE.INTRA.POLAR.0>
0

>  <SCORE.INTRA.REPUL>
0

>  <SCORE.INTRA.REPUL.0>
0

>  <SCORE.INTRA.SOLV>
0.378894

>  <SCORE.INTRA.SOLV.lig_0>
-19.3885

>  <SCORE.INTRA.VDW>
-0.300145

>  <SCORE.INTRA.VDW.0>
-1.12705

>  <SCORE.INTRA.norm>
0.013387

>  <SCORE.RESTR>
0

>  <SCORE.RESTR.CAVITY>
0

>  <SCORE.RESTR.norm>
0

>  <SCORE.SYSTEM>
0

>  <SCORE.SYSTEM.CONST>
0

>  <SCORE.SYSTEM.DIHEDRAL>
0

>  <SCORE.SYSTEM.SOLV>
0

>  <SCORE.SYSTEM.norm>
0

>  <SCORE.heavy>
18

>  <SCORE.norm>
-1.22965

>  <RMSD>
7.322

$$$$
lig.pdb
 OpenBabel11021811503D
libRbt.so/2013.1/901 2013/11/27
 18 19  0  0  0  0  0  0  0  0999 V2000
   -5.1594   13.1017    6.1145 C   0  0  0  0  0  0  0  0  0  0  0  0
   -8.3372   10.7530    3.3006 N   0  0  0  0  0  0  0  0  0  0  0  0
  -10.2486   15.9134    2.0470 C   0  0  0  0  0  0  0  0  0  0  0  0
  -14.8371   17.1291    4.3415 O   0  0  0  0  0  0  0  0  0  0  0  0
  -14.1596   15.9151    4.0478 C   0  0  0  0  0  0  0  0  0  0  0  0
  -13.2670   16.0906    2.8038 C   0  0  0  0  0  0  0  0  0  0  0  0
  -11.4134   12.3894    2.5326 C   0  0  0  0  0  0  0  0  0  0  0  0
  -12.9267   13.1572    2.8854 S   0  0  0  0  0  0  0  0  0  0  0  0
  -12.4187   14.8461    2.6622 C   0  0  0  0  0  0  0  0  0  0  0  0
  -11.0954   14.6848    2.3338 C   0  0  0  0  0  0  0  0  0  0  0  0
  -10.6042   13.4091    2.2759 N   0  0  0  0  0  0  0  0  0  0  0  0
   -9.1705   13.1364    1.9042 C   0  0  0  0  0  0  0  0  0  0  0  0
   -7.7442   11.9594    3.6727 C   0  0  0  0  0  0  0  0  0  0  0  0
   -6.7973   11.9755    4.6601 N   0  0  0  0  0  0  0  0  0  0  0  0
   -6.2132   13.1174    5.0329 C   0  0  0  0  0  0  0  0  0  0  0  0
   -6.5444   14.2730    4.4498 N   0  0  0  0  0  0  0  0  0  0  0  0
   -7.4733   14.3343    3.4605 C   0  0  0  0  0  0  0  0  0  0  0  0
   -8.1154   13.1710    3.0219 C   0  0  0  0  0  0  0  0  0  0  0  0
  5  4  1  0  0  0  0
  5  6  1  0  0  0  0
  7  8  2  0  0  0  0
  7 11  1  0  0  0  0
  8  9  1  0  0  0  0
  9 10  2  0  0  0  0
  9  6  1  0  0  0  0
 10  3  1  0  0  0  0
 11 12  1  0  0  0  0
 11 10  1  0  0  0  0
 12 18  1  0  0  0  0
 13  2  1  0  0  0  0
 13 14  2  0  0  0  0
 15 14  1  0  0  0  0
 15  1  1  0  0  0  0
 16 15  2  0  0  0  0
 17 18  2  0  0  0  0
 17 16  1  0  0  0  0
 18 13  1  0  0  0  0
M  END
>  <CHROM.1>
171.60182123,41.86142262,-94.86239335,94.34511129,-10.07292219,13.85055499
3.40064347,-0.25908264,-0.30757426,0.41207745

>  <Name>
lig.pdb

>  <RI>
0

>  <Rbt.Current_Directory>
/home/itssahil/PROJECTS/Mol_Feturizer/New_Systems/rnas/4nyg

>  <Rbt.Executable>
rbdock ($Id: //depot/dev/client3/rdock/2013.1/src/exe/rbdock.cxx#4 $)

>  <Rbt.Library>
libRbt.so (2013.1, Build901 2013/11/27)

>  <Rbt.Parameter_File>
/export/apps/rDock/src/rDock_2013.1_src/data/scripts/dock_solv.prm

>  <Rbt.Receptor>
prm/pocket_docking_5.prm

>  <SCORE>
-22.1781

>  <SCORE.INTER>
-22.3981

>  <SCORE.INTER.CONST>
1

>  <SCORE.INTER.POLAR>
0

>  <SCORE.INTER.ROT>
4

>  <SCORE.INTER.SOLV>
13.2783

>  <SCORE.INTER.VDW>
-25.6248

>  <SCORE.INTER.norm>
-1.24434

>  <SCORE.INTRA>
0.218497

>  <SCORE.INTRA.DIHEDRAL>
0.690221

>  <SCORE.INTRA.DIHEDRAL.0>
3.20029

>  <SCORE.INTRA.POLAR>
0

>  <SCORE.INTRA.POLAR.0>
0

>  <SCORE.INTRA.REPUL>
0

>  <SCORE.INTRA.REPUL.0>
0

>  <SCORE.INTRA.SOLV>
0.379695

>  <SCORE.INTRA.SOLV.lig_0>
-19.3885

>  <SCORE.INTRA.VDW>
-0.316461

>  <SCORE.INTRA.VDW.0>
-1.12705

>  <SCORE.INTRA.norm>
0.0121387

>  <SCORE.RESTR>
0.00150506

>  <SCORE.RESTR.CAVITY>
0.00150506

>  <SCORE.RESTR.norm>
8.36145e-05

>  <SCORE.SYSTEM>
0

>  <SCORE.SYSTEM.CONST>
0

>  <SCORE.SYSTEM.DIHEDRAL>
0

>  <SCORE.SYSTEM.SOLV>
0

>  <SCORE.SYSTEM.norm>
0

>  <SCORE.heavy>
18

>  <SCORE.norm>
-1.23211

>  <RMSD>
7.330

$$$$
lig.pdb
 OpenBabel11021811503D
libRbt.so/2013.1/901 2013/11/27
 18 19  0  0  0  0  0  0  0  0999 V2000
   -5.6233    8.9803    4.7039 C   0  0  0  0  0  0  0  0  0  0  0  0
   -8.0209    9.3696    0.5048 N   0  0  0  0  0  0  0  0  0  0  0  0
   -9.2319   14.5501    1.6694 C   0  0  0  0  0  0  0  0  0  0  0  0
  -13.9805   15.8626    3.5542 O   0  0  0  0  0  0  0  0  0  0  0  0
  -13.0590   16.4642    2.6554 C   0  0  0  0  0  0  0  0  0  0  0  0
  -11.6190   16.0426    3.0072 C   0  0  0  0  0  0  0  0  0  0  0  0
  -11.7846   11.9324    2.4715 C   0  0  0  0  0  0  0  0  0  0  0  0
  -12.6711   13.2836    3.0979 S   0  0  0  0  0  0  0  0  0  0  0  0
  -11.4894   14.5606    2.7328 C   0  0  0  0  0  0  0  0  0  0  0  0
  -10.4811   13.8320    2.1519 C   0  0  0  0  0  0  0  0  0  0  0  0
  -10.6593   12.4808    2.0315 N   0  0  0  0  0  0  0  0  0  0  0  0
   -9.6152   11.6058    1.3892 C   0  0  0  0  0  0  0  0  0  0  0  0
   -7.8201    9.8306    1.8058 C   0  0  0  0  0  0  0  0  0  0  0  0
   -6.8856    9.2291    2.6038 N   0  0  0  0  0  0  0  0  0  0  0  0
   -6.6731    9.6534    3.8522 C   0  0  0  0  0  0  0  0  0  0  0  0
   -7.3731   10.6760    4.3517 N   0  0  0  0  0  0  0  0  0  0  0  0
   -8.3148   11.3241    3.6179 C   0  0  0  0  0  0  0  0  0  0  0  0
   -8.5785   10.9300    2.3013 C   0  0  0  0  0  0  0  0  0  0  0  0
  5  4  1  0  0  0  0
  5  6  1  0  0  0  0
  7  8  2  0  0  0  0
  7 11  1  0  0  0  0
  8  9  1  0  0  0  0
  9 10  2  0  0  0  0
  9  6  1  0  0  0  0
 10  3  1  0  0  0  0
 11 12  1  0  0  0  0
 11 10  1  0  0  0  0
 12 18  1  0  0  0  0
 13  2  1  0  0  0  0
 13 14  2  0  0  0  0
 15 14  1  0  0  0  0
 15  1  1  0  0  0  0
 16 15  2  0  0  0  0
 17 18  2  0  0  0  0
 17 16  1  0  0  0  0
 18 13  1  0  0  0  0
M  END
>  <CHROM.1>
66.88755010,-41.55558730,-87.29382756,162.91288389,-9.90482909,12.37437070
2.73479583,-0.39515854,-0.68235080,0.95432077

>  <Name>
lig.pdb

>  <RI>
0

>  <Rbt.Current_Directory>
/home/itssahil/PROJECTS/Mol_Feturizer/New_Systems/rnas/4nyg

>  <Rbt.Executable>
rbdock ($Id: //depot/dev/client3/rdock/2013.1/src/exe/rbdock.cxx#4 $)

>  <Rbt.Library>
libRbt.so (2013.1, Build901 2013/11/27)

>  <Rbt.Parameter_File>
/export/apps/rDock/src/rDock_2013.1_src/data/scripts/dock_solv.prm

>  <Rbt.Receptor>
prm/pocket_docking_7.prm

>  <SCORE>
-25.9254

>  <SCORE.INTER>
-26.2072

>  <SCORE.INTER.CONST>
1

>  <SCORE.INTER.POLAR>
0

>  <SCORE.INTER.ROT>
4

>  <SCORE.INTER.SOLV>
16.4209

>  <SCORE.INTER.VDW>
-29.2118

>  <SCORE.INTER.norm>
-1.45595

>  <SCORE.INTRA>
0.281801

>  <SCORE.INTRA.DIHEDRAL>
0.603855

>  <SCORE.INTRA.DIHEDRAL.0>
3.20029

>  <SCORE.INTRA.POLAR>
0

>  <SCORE.INTRA.POLAR.0>
0

>  <SCORE.INTRA.REPUL>
0

>  <SCORE.INTRA.REPUL.0>
0

>  <SCORE.INTRA.SOLV>
0.398288

>  <SCORE.INTRA.SOLV.lig_0>
-19.3885

>  <SCORE.INTRA.VDW>
-0.219271

>  <SCORE.INTRA.VDW.0>
-1.12705

>  <SCORE.INTRA.norm>
0.0156556

>  <SCORE.RESTR>
0

>  <SCORE.RESTR.CAVITY>
0

>  <SCORE.RESTR.norm>
0

>  <SCORE.SYSTEM>
0

>  <SCORE.SYSTEM.CONST>
0

>  <SCORE.SYSTEM.DIHEDRAL>
0

>  <SCORE.SYSTEM.SOLV>
0

>  <SCORE.SYSTEM.norm>
0

>  <SCORE.heavy>
18

>  <SCORE.norm>
-1.4403

>  <RMSD>
7.332

$$$$
lig.pdb
 OpenBabel11021811503D
libRbt.so/2013.1/901 2013/11/27
 18 19  0  0  0  0  0  0  0  0999 V2000
   -4.9470   13.7937    5.7689 C   0  0  0  0  0  0  0  0  0  0  0  0
   -7.9355   10.9136    3.2576 N   0  0  0  0  0  0  0  0  0  0  0  0
  -10.2368   15.9123    1.9494 C   0  0  0  0  0  0  0  0  0  0  0  0
  -15.0939   15.0293    3.8124 O   0  0  0  0  0  0  0  0  0  0  0  0
  -14.1477   16.0669    4.0292 C   0  0  0  0  0  0  0  0  0  0  0  0
  -13.2190   16.2052    2.8071 C   0  0  0  0  0  0  0  0  0  0  0  0
  -11.4695   12.4473    2.6465 C   0  0  0  0  0  0  0  0  0  0  0  0
  -12.9488   13.2709    3.0173 S   0  0  0  0  0  0  0  0  0  0  0  0
  -12.4078   14.9333    2.6945 C   0  0  0  0  0  0  0  0  0  0  0  0
  -11.1024   14.7215    2.3259 C   0  0  0  0  0  0  0  0  0  0  0  0
  -10.6455   13.4319    2.3114 N   0  0  0  0  0  0  0  0  0  0  0  0
   -9.2341   13.1040    1.9010 C   0  0  0  0  0  0  0  0  0  0  0  0
   -7.5084   12.2058    3.5631 C   0  0  0  0  0  0  0  0  0  0  0  0
   -6.5006   12.3925    4.4693 N   0  0  0  0  0  0  0  0  0  0  0  0
   -6.0724   13.6196    4.7770 C   0  0  0  0  0  0  0  0  0  0  0  0
   -6.6230   14.6953    4.2069 N   0  0  0  0  0  0  0  0  0  0  0  0
   -7.6251   14.5878    3.2962 C   0  0  0  0  0  0  0  0  0  0  0  0
   -8.1124   13.3288    2.9279 C   0  0  0  0  0  0  0  0  0  0  0  0
  5  4  1  0  0  0  0
  5  6  1  0  0  0  0
  7  8  2  0  0  0  0
  7 11  1  0  0  0  0
  8  9  1  0  0  0  0
  9 10  2  0  0  0  0
  9  6  1  0  0  0  0
 10  3  1  0  0  0  0
 11 12  1  0  0  0  0
 11 10  1  0  0  0  0
 12 18  1  0  0  0  0
 13  2  1  0  0  0  0
 13 14  2  0  0  0  0
 15 14  1  0  0  0  0
 15  1  1  0  0  0  0
 16 15  2  0  0  0  0
 17 18  2  0  0  0  0
 17 16  1  0  0  0  0
 18 13  1  0  0  0  0
M  END
>  <CHROM.1>
-65.22158361,37.55368647,-102.22541410,106.35059652,-10.04049976,13.90571328
3.31213135,-0.18555421,-0.20970446,0.23500916

>  <Name>
lig.pdb

>  <RI>
0

>  <Rbt.Current_Directory>
/home/itssahil/PROJECTS/Mol_Feturizer/New_Systems/rnas/4nyg

>  <Rbt.Executable>
rbdock ($Id: //depot/dev/client3/rdock/2013.1/src/exe/rbdock.cxx#4 $)

>  <Rbt.Library>
libRbt.so (2013.1, Build901 2013/11/27)

>  <Rbt.Parameter_File>
/export/apps/rDock/src/rDock_2013.1_src/data/scripts/dock_solv.prm

>  <Rbt.Receptor>
prm/pocket_docking_3.prm

>  <SCORE>
-21.83

>  <SCORE.INTER>
-22.7677

>  <SCORE.INTER.CONST>
1

>  <SCORE.INTER.POLAR>
0

>  <SCORE.INTER.ROT>
4

>  <SCORE.INTER.SOLV>
12.8859

>  <SCORE.INTER.VDW>
-25.7404

>  <SCORE.INTER.norm>
-1.26487

>  <SCORE.INTRA>
0.936259

>  <SCORE.INTRA.DIHEDRAL>
0.806613

>  <SCORE.INTRA.DIHEDRAL.0>
3.20029

>  <SCORE.INTRA.POLAR>
0

>  <SCORE.INTRA.POLAR.0>
0

>  <SCORE.INTRA.REPUL>
0

>  <SCORE.INTRA.REPUL.0>
0

>  <SCORE.INTRA.SOLV>
0.753572

>  <SCORE.INTRA.SOLV.lig_0>
-19.3885

>  <SCORE.INTRA.VDW>
0.156166

>  <SCORE.INTRA.VDW.0>
-1.12705

>  <SCORE.INTRA.norm>
0.0520144

>  <SCORE.RESTR>
0.00138646

>  <SCORE.RESTR.CAVITY>
0.00138646

>  <SCORE.RESTR.norm>
7.70256e-05

>  <SCORE.SYSTEM>
0

>  <SCORE.SYSTEM.CONST>
0

>  <SCORE.SYSTEM.DIHEDRAL>
0

>  <SCORE.SYSTEM.SOLV>
0

>  <SCORE.SYSTEM.norm>
0

>  <SCORE.heavy>
18

>  <SCORE.norm>
-1.21278

>  <RMSD>
7.337

$$$$
lig.pdb
 OpenBabel11021811503D
libRbt.so/2013.1/901 2013/11/27
 18 19  0  0  0  0  0  0  0  0999 V2000
   -4.4494   16.6757   -0.0520 C   0  0  0  0  0  0  0  0  0  0  0  0
   -7.1033   12.7241    0.8829 N   0  0  0  0  0  0  0  0  0  0  0  0
  -11.3657   12.5240    2.9575 C   0  0  0  0  0  0  0  0  0  0  0  0
  -14.8059   16.5274    3.3160 O   0  0  0  0  0  0  0  0  0  0  0  0
  -14.6996   15.2629    3.9553 C   0  0  0  0  0  0  0  0  0  0  0  0
  -13.9465   14.2694    3.0495 C   0  0  0  0  0  0  0  0  0  0  0  0
  -10.2283   16.0842    2.7485 C   0  0  0  0  0  0  0  0  0  0  0  0
  -11.9276   16.4151    2.8312 S   0  0  0  0  0  0  0  0  0  0  0  0
  -12.5132   14.7398    2.9358 C   0  0  0  0  0  0  0  0  0  0  0  0
  -11.3319   14.0417    2.8909 C   0  0  0  0  0  0  0  0  0  0  0  0
  -10.1710   14.7593    2.7930 N   0  0  0  0  0  0  0  0  0  0  0  0
   -8.8282   14.0783    2.7579 C   0  0  0  0  0  0  0  0  0  0  0  0
   -6.8560   14.0748    1.1276 C   0  0  0  0  0  0  0  0  0  0  0  0
   -5.8318   14.7073    0.4774 N   0  0  0  0  0  0  0  0  0  0  0  0
   -5.5763   16.0004    0.6927 C   0  0  0  0  0  0  0  0  0  0  0  0
   -6.3159   16.7060    1.5532 N   0  0  0  0  0  0  0  0  0  0  0  0
   -7.3508   16.1468    2.2326 C   0  0  0  0  0  0  0  0  0  0  0  0
   -7.6718   14.7977    2.0448 C   0  0  0  0  0  0  0  0  0  0  0  0
  5  4  1  0  0  0  0
  5  6  1  0  0  0  0
  7  8  2  0  0  0  0
  7 11  1  0  0  0  0
  8  9  1  0  0  0  0
  9 10  2  0  0  0  0
  9  6  1  0  0  0  0
 10  3  1  0  0  0  0
 11 12  1  0  0  0  0
 11 10  1  0  0  0  0
 12 18  1  0  0  0  0
 13  2  1  0  0  0  0
 13 14  2  0  0  0  0
 15 14  1  0  0  0  0
 15  1  1  0  0  0  0
 16 15  2  0  0  0  0
 17 18  2  0  0  0  0
 17 16  1  0  0  0  0
 18 13  1  0  0  0  0
M  END
>  <CHROM.1>
67.22853857,-37.46323142,-27.92633503,-132.97352180,-9.72651166,15.13613668
2.23242887,0.01902557,0.30699354,-0.01212842

>  <Name>
lig.pdb

>  <RI>
0

>  <Rbt.Current_Directory>
/home/itssahil/PROJECTS/Mol_Feturizer/New_Systems/rnas/4nyg

>  <Rbt.Executable>
rbdock ($Id: //depot/dev/client3/rdock/2013.1/src/exe/rbdock.cxx#4 $)

>  <Rbt.Library>
libRbt.so (2013.1, Build901 2013/11/27)

>  <Rbt.Parameter_File>
/export/apps/rDock/src/rDock_2013.1_src/data/scripts/dock_solv.prm

>  <Rbt.Receptor>
prm/pocket_docking_6.prm

>  <SCORE>
-19.1721

>  <SCORE.INTER>
-20.8896

>  <SCORE.INTER.CONST>
1

>  <SCORE.INTER.POLAR>
0

>  <SCORE.INTER.ROT>
4

>  <SCORE.INTER.SOLV>
10.0139

>  <SCORE.INTER.VDW>
-23.531

>  <SCORE.INTER.norm>
-1.16053

>  <SCORE.INTRA>
1.7175

>  <SCORE.INTRA.DIHEDRAL>
1.0017

>  <SCORE.INTRA.DIHEDRAL.0>
3.20029

>  <SCORE.INTRA.POLAR>
0

>  <SCORE.INTRA.POLAR.0>
0

>  <SCORE.INTRA.REPUL>
0

>  <SCORE.INTRA.REPUL.0>
0

>  <SCORE.INTRA.SOLV>
0.500858

>  <SCORE.INTRA.SOLV.lig_0>
-19.3885

>  <SCORE.INTRA.VDW>
0.966215

>  <SCORE.INTRA.VDW.0>
-1.12705

>  <SCORE.INTRA.norm>
0.0954164

>  <SCORE.RESTR>
0

>  <SCORE.RESTR.CAVITY>
0

>  <SCORE.RESTR.norm>
0

>  <SCORE.SYSTEM>
0

>  <SCORE.SYSTEM.CONST>
0

>  <SCORE.SYSTEM.DIHEDRAL>
0

>  <SCORE.SYSTEM.SOLV>
0

>  <SCORE.SYSTEM.norm>
0

>  <SCORE.heavy>
18

>  <SCORE.norm>
-1.06512

>  <RMSD>
7.349

$$$$
lig.pdb
 OpenBabel11021811503D
libRbt.so/2013.1/901 2013/11/27
 18 19  0  0  0  0  0  0  0  0999 V2000
   -3.9689   14.4073    4.0349 C   0  0  0  0  0  0  0  0  0  0  0  0
   -6.6247   14.3548   -0.0242 N   0  0  0  0  0  0  0  0  0  0  0  0
  -11.3049   16.2397    2.7015 C   0  0  0  0  0  0  0  0  0  0  0  0
  -14.0112   16.8663    3.4605 O   0  0  0  0  0  0  0  0  0  0  0  0
  -14.2967   15.5744    2.9422 C   0  0  0  0  0  0  0  0  0  0  0  0
  -13.6329   14.4915    3.8150 C   0  0  0  0  0  0  0  0  0  0  0  0
  -10.4152   12.6897    1.9153 C   0  0  0  0  0  0  0  0  0  0  0  0
  -11.9172   12.3542    2.7125 S   0  0  0  0  0  0  0  0  0  0  0  0
  -12.3819   14.0249    3.1039 C   0  0  0  0  0  0  0  0  0  0  0  0
  -11.3200   14.7246    2.5863 C   0  0  0  0  0  0  0  0  0  0  0  0
  -10.3212   14.0116    1.9813 N   0  0  0  0  0  0  0  0  0  0  0  0
   -9.1285   14.6969    1.3682 C   0  0  0  0  0  0  0  0  0  0  0  0
   -6.5822   14.4444    1.3670 C   0  0  0  0  0  0  0  0  0  0  0  0
   -5.3796   14.3797    2.0161 N   0  0  0  0  0  0  0  0  0  0  0  0
   -5.3122   14.4653    3.3473 C   0  0  0  0  0  0  0  0  0  0  0  0
   -6.4220   14.6133    4.0766 N   0  0  0  0  0  0  0  0  0  0  0  0
   -7.6505   14.6886    3.5020 C   0  0  0  0  0  0  0  0  0  0  0  0
   -7.7853   14.6116    2.1113 C   0  0  0  0  0  0  0  0  0  0  0  0
  5  4  1  0  0  0  0
  5  6  1  0  0  0  0
  7  8  2  0  0  0  0
  7 11  1  0  0  0  0
  8  9  1  0  0  0  0
  9 10  2  0  0  0  0
  9  6  1  0  0  0  0
 10  3  1  0  0  0  0
 11 12  1  0  0  0  0
 11 10  1  0  0  0  0
 12 18  1  0  0  0  0
 13  2  1  0  0  0  0
 13 14  2  0  0  0  0
 15 14  1  0  0  0  0
 15  1  1  0  0  0  0
 16 15  2  0  0  0  0
 17 18  2  0  0  0  0
 17 16  1  0  0  0  0
 18 13  1  0  0  0  0
M  END
>  <CHROM.1>
-101.60744517,-127.69138824,-75.00059591,140.96687514,-9.58564105,14.41880668
2.63482056,-0.06326177,0.02908636,0.45344527

>  <Name>
lig.pdb

>  <RI>
0

>  <Rbt.Current_Directory>
/home/itssahil/PROJECTS/Mol_Feturizer/New_Systems/rnas/4nyg

>  <Rbt.Executable>
rbdock ($Id: //depot/dev/client3/rdock/2013.1/src/exe/rbdock.cxx#4 $)

>  <Rbt.Library>
libRbt.so (2013.1, Build901 2013/11/27)

>  <Rbt.Parameter_File>
/export/apps/rDock/src/rDock_2013.1_src/data/scripts/dock_solv.prm

>  <Rbt.Receptor>
prm/pocket_docking_3.prm

>  <SCORE>
-14.6586

>  <SCORE.INTER>
-19.481

>  <SCORE.INTER.CONST>
1

>  <SCORE.INTER.POLAR>
0

>  <SCORE.INTER.ROT>
4

>  <SCORE.INTER.SOLV>
11.3174

>  <SCORE.INTER.VDW>
-23.0264

>  <SCORE.INTER.norm>
-1.08228

>  <SCORE.INTRA>
4.82232

>  <SCORE.INTRA.DIHEDRAL>
6.79094

>  <SCORE.INTRA.DIHEDRAL.0>
3.20029

>  <SCORE.INTRA.POLAR>
0

>  <SCORE.INTRA.POLAR.0>
0

>  <SCORE.INTRA.REPUL>
0

>  <SCORE.INTRA.REPUL.0>
0

>  <SCORE.INTRA.SOLV>
0.52991

>  <SCORE.INTRA.SOLV.lig_0>
-19.3885

>  <SCORE.INTRA.VDW>
1.16189

>  <SCORE.INTRA.VDW.0>
-1.12705

>  <SCORE.INTRA.norm>
0.267907

>  <SCORE.RESTR>
0

>  <SCORE.RESTR.CAVITY>
0

>  <SCORE.RESTR.norm>
0

>  <SCORE.SYSTEM>
0

>  <SCORE.SYSTEM.CONST>
0

>  <SCORE.SYSTEM.DIHEDRAL>
0

>  <SCORE.SYSTEM.SOLV>
0

>  <SCORE.SYSTEM.norm>
0

>  <SCORE.heavy>
18

>  <SCORE.norm>
-0.814369

>  <RMSD>
7.352

$$$$
lig.pdb
 OpenBabel11021811503D
libRbt.so/2013.1/901 2013/11/27
 18 19  0  0  0  0  0  0  0  0999 V2000
   -3.0695   14.6278    3.2759 C   0  0  0  0  0  0  0  0  0  0  0  0
   -6.3405   13.6446   -0.1688 N   0  0  0  0  0  0  0  0  0  0  0  0
  -11.0846   12.0066    2.5934 C   0  0  0  0  0  0  0  0  0  0  0  0
  -15.1613   15.4566    3.9889 O   0  0  0  0  0  0  0  0  0  0  0  0
  -14.0168   15.4122    3.1479 C   0  0  0  0  0  0  0  0  0  0  0  0
  -13.1926   14.1423    3.4362 C   0  0  0  0  0  0  0  0  0  0  0  0
   -9.4413   15.3377    2.1298 C   0  0  0  0  0  0  0  0  0  0  0  0
  -10.9670   15.9371    2.6929 S   0  0  0  0  0  0  0  0  0  0  0  0
  -11.7862   14.3774    2.9312 C   0  0  0  0  0  0  0  0  0  0  0  0
  -10.8043   13.4993    2.5443 C   0  0  0  0  0  0  0  0  0  0  0  0
   -9.6076   14.0213    2.1351 N   0  0  0  0  0  0  0  0  0  0  0  0
   -8.4674   13.1329    1.7125 C   0  0  0  0  0  0  0  0  0  0  0  0
   -6.0414   13.7557    1.1890 C   0  0  0  0  0  0  0  0  0  0  0  0
   -4.7785   14.1071    1.5805 N   0  0  0  0  0  0  0  0  0  0  0  0
   -4.4677   14.2223    2.8743 C   0  0  0  0  0  0  0  0  0  0  0  0
   -5.3858   13.9930    3.8177 N   0  0  0  0  0  0  0  0  0  0  0  0
   -6.6606   13.6435    3.5047 C   0  0  0  0  0  0  0  0  0  0  0  0
   -7.0487   13.5131    2.1666 C   0  0  0  0  0  0  0  0  0  0  0  0
  5  4  1  0  0  0  0
  5  6  1  0  0  0  0
  7  8  2  0  0  0  0
  7 11  1  0  0  0  0
  8  9  1  0  0  0  0
  9 10  2  0  0  0  0
  9  6  1  0  0  0  0
 10  3  1  0  0  0  0
 11 12  1  0  0  0  0
 11 10  1  0  0  0  0
 12 18  1  0  0  0  0
 13  2  1  0  0  0  0
 13 14  2  0  0  0  0
 15 14  1  0  0  0  0
 15  1  1  0  0  0  0
 16 15  2  0  0  0  0
 17 18  2  0  0  0  0
 17 16  1  0  0  0  0
 18 13  1  0  0  0  0
M  END
>  <CHROM.1>
-159.31552679,24.15095322,39.99991498,-121.04399542,-9.01542882,14.29132089
2.56118668,-0.14875167,0.01727416,0.67255687

>  <Name>
lig.pdb

>  <RI>
0

>  <Rbt.Current_Directory>
/home/itssahil/PROJECTS/Mol_Feturizer/New_Systems/rnas/4nyg

>  <Rbt.Executable>
rbdock ($Id: //depot/dev/client3/rdock/2013.1/src/exe/rbdock.cxx#4 $)

>  <Rbt.Library>
libRbt.so (2013.1, Build901 2013/11/27)

>  <Rbt.Parameter_File>
/export/apps/rDock/src/rDock_2013.1_src/data/scripts/dock_solv.prm

>  <Rbt.Receptor>
prm/pocket_docking_3.prm

>  <SCORE>
-15.6529

>  <SCORE.INTER>
-17.5896

>  <SCORE.INTER.CONST>
1

>  <SCORE.INTER.POLAR>
0

>  <SCORE.INTER.ROT>
4

>  <SCORE.INTER.SOLV>
10.4857

>  <SCORE.INTER.VDW>
-21.4883

>  <SCORE.INTER.norm>
-0.977201

>  <SCORE.INTRA>
1.8754

>  <SCORE.INTRA.DIHEDRAL>
3.09358

>  <SCORE.INTRA.DIHEDRAL.0>
3.20029

>  <SCORE.INTRA.POLAR>
0

>  <SCORE.INTRA.POLAR.0>
0

>  <SCORE.INTRA.REPUL>
0

>  <SCORE.INTRA.REPUL.0>
0

>  <SCORE.INTRA.SOLV>
0.119924

>  <SCORE.INTRA.SOLV.lig_0>
-19.3885

>  <SCORE.INTRA.VDW>
0.268644

>  <SCORE.INTRA.VDW.0>
-1.12705

>  <SCORE.INTRA.norm>
0.104189

>  <SCORE.RESTR>
0.0612816

>  <SCORE.RESTR.CAVITY>
0.0612816

>  <SCORE.RESTR.norm>
0.00340453

>  <SCORE.SYSTEM>
0

>  <SCORE.SYSTEM.CONST>
0

>  <SCORE.SYSTEM.DIHEDRAL>
0

>  <SCORE.SYSTEM.SOLV>
0

>  <SCORE.SYSTEM.norm>
0

>  <SCORE.heavy>
18

>  <SCORE.norm>
-0.869608

>  <RMSD>
7.355

$$$$
lig.pdb
 OpenBabel11021811503D
libRbt.so/2013.1/901 2013/11/27
 18 19  0  0  0  0  0  0  0  0999 V2000
   -5.6782    8.9035    4.7436 C   0  0  0  0  0  0  0  0  0  0  0  0
   -8.0861    9.3381    0.5549 N   0  0  0  0  0  0  0  0  0  0  0  0
   -9.3500   14.6873    1.7471 C   0  0  0  0  0  0  0  0  0  0  0  0
  -13.7211   17.5261    3.2293 O   0  0  0  0  0  0  0  0  0  0  0  0
  -13.3968   16.1999    2.8357 C   0  0  0  0  0  0  0  0  0  0  0  0
  -11.8938   15.9336    3.0475 C   0  0  0  0  0  0  0  0  0  0  0  0
  -11.6977   11.8430    2.3870 C   0  0  0  0  0  0  0  0  0  0  0  0
  -12.7131   13.0954    3.0227 S   0  0  0  0  0  0  0  0  0  0  0  0
  -11.6320   14.4770    2.7346 C   0  0  0  0  0  0  0  0  0  0  0  0
  -10.5488   13.8532    2.1666 C   0  0  0  0  0  0  0  0  0  0  0  0
  -10.6093   12.4964    2.0009 N   0  0  0  0  0  0  0  0  0  0  0  0
   -9.4763   11.7318    1.3686 C   0  0  0  0  0  0  0  0  0  0  0  0
   -7.8314    9.8283    1.8356 C   0  0  0  0  0  0  0  0  0  0  0  0
   -6.9409    9.1800    2.6472 N   0  0  0  0  0  0  0  0  0  0  0  0
   -6.6782    9.6308    3.8767 C   0  0  0  0  0  0  0  0  0  0  0  0
   -7.2839   10.7265    4.3435 N   0  0  0  0  0  0  0  0  0  0  0  0
   -8.1768   11.4240    3.5943 C   0  0  0  0  0  0  0  0  0  0  0  0
   -8.4887   11.0052    2.2961 C   0  0  0  0  0  0  0  0  0  0  0  0
  5  4  1  0  0  0  0
  5  6  1  0  0  0  0
  7  8  2  0  0  0  0
  7 11  1  0  0  0  0
  8  9  1  0  0  0  0
  9 10  2  0  0  0  0
  9  6  1  0  0  0  0
 10  3  1  0  0  0  0
 11 12  1  0  0  0  0
 11 10  1  0  0  0  0
 12 18  1  0  0  0  0
 13  2  1  0  0  0  0
 13 14  2  0  0  0  0
 15 14  1  0  0  0  0
 15  1  1  0  0  0  0
 16 15  2  0  0  0  0
 17 18  2  0  0  0  0
 17 16  1  0  0  0  0
 18 13  1  0  0  0  0
M  END
>  <CHROM.1>
174.88130648,-34.26776545,-81.69146931,150.84491119,-9.92349143,12.44226341
2.72375898,-0.55227698,-0.61764851,0.71377860

>  <Name>
lig.pdb

>  <RI>
0

>  <Rbt.Current_Directory>
/home/itssahil/PROJECTS/Mol_Feturizer/New_Systems/rnas/4nyg

>  <Rbt.Executable>
rbdock ($Id: //depot/dev/client3/rdock/2013.1/src/exe/rbdock.cxx#4 $)

>  <Rbt.Library>
libRbt.so (2013.1, Build901 2013/11/27)

>  <Rbt.Parameter_File>
/export/apps/rDock/src/rDock_2013.1_src/data/scripts/dock_solv.prm

>  <Rbt.Receptor>
prm/pocket_docking_6.prm

>  <SCORE>
-25.9977

>  <SCORE.INTER>
-26.33

>  <SCORE.INTER.CONST>
1

>  <SCORE.INTER.POLAR>
0

>  <SCORE.INTER.ROT>
4

>  <SCORE.INTER.SOLV>
17.0915

>  <SCORE.INTER.VDW>
-29.5172

>  <SCORE.INTER.norm>
-1.46278

>  <SCORE.INTRA>
0.332319

>  <SCORE.INTRA.DIHEDRAL>
0.996434

>  <SCORE.INTRA.DIHEDRAL.0>
3.20029

>  <SCORE.INTRA.POLAR>
0

>  <SCORE.INTRA.POLAR.0>
0

>  <SCORE.INTRA.REPUL>
0

>  <SCORE.INTRA.REPUL.0>
0

>  <SCORE.INTRA.SOLV>
-0.0361383

>  <SCORE.INTRA.SOLV.lig_0>
-19.3885

>  <SCORE.INTRA.VDW>
-0.147829

>  <SCORE.INTRA.VDW.0>
-1.12705

>  <SCORE.INTRA.norm>
0.0184622

>  <SCORE.RESTR>
0

>  <SCORE.RESTR.CAVITY>
0

>  <SCORE.RESTR.norm>
0

>  <SCORE.SYSTEM>
0

>  <SCORE.SYSTEM.CONST>
0

>  <SCORE.SYSTEM.DIHEDRAL>
0

>  <SCORE.SYSTEM.SOLV>
0

>  <SCORE.SYSTEM.norm>
0

>  <SCORE.heavy>
18

>  <SCORE.norm>
-1.44432

>  <RMSD>
7.360

$$$$
lig.pdb
 OpenBabel11021811503D
libRbt.so/2013.1/901 2013/11/27
 18 19  0  0  0  0  0  0  0  0999 V2000
   -6.0608   17.9934    0.1130 C   0  0  0  0  0  0  0  0  0  0  0  0
   -6.9320   15.1690    3.9596 N   0  0  0  0  0  0  0  0  0  0  0  0
  -10.3619   16.0566    2.9013 C   0  0  0  0  0  0  0  0  0  0  0  0
  -15.4223   16.2730    4.2817 O   0  0  0  0  0  0  0  0  0  0  0  0
  -14.4817   15.2416    4.0160 C   0  0  0  0  0  0  0  0  0  0  0  0
  -13.4590   15.7114    2.9632 C   0  0  0  0  0  0  0  0  0  0  0  0
  -11.0127   12.3887    2.5346 C   0  0  0  0  0  0  0  0  0  0  0  0
  -12.6703   12.8818    2.6491 S   0  0  0  0  0  0  0  0  0  0  0  0
  -12.4089   14.6317    2.8224 C   0  0  0  0  0  0  0  0  0  0  0  0
  -11.0382   14.7009    2.7851 C   0  0  0  0  0  0  0  0  0  0  0  0
  -10.3448   13.5306    2.6376 N   0  0  0  0  0  0  0  0  0  0  0  0
   -8.8406   13.5134    2.5663 C   0  0  0  0  0  0  0  0  0  0  0  0
   -7.2014   15.4773    2.6262 C   0  0  0  0  0  0  0  0  0  0  0  0
   -6.5587   16.5263    2.0276 N   0  0  0  0  0  0  0  0  0  0  0  0
   -6.7977   16.8402    0.7516 C   0  0  0  0  0  0  0  0  0  0  0  0
   -7.6750   16.1362    0.0305 N   0  0  0  0  0  0  0  0  0  0  0  0
   -8.3482   15.0799    0.5560 C   0  0  0  0  0  0  0  0  0  0  0  0
   -8.1361   14.6982    1.8855 C   0  0  0  0  0  0  0  0  0  0  0  0
  5  4  1  0  0  0  0
  5  6  1  0  0  0  0
  7  8  2  0  0  0  0
  7 11  1  0  0  0  0
  8  9  1  0  0  0  0
  9 10  2  0  0  0  0
  9  6  1  0  0  0  0
 10  3  1  0  0  0  0
 11 12  1  0  0  0  0
 11 10  1  0  0  0  0
 12 18  1  0  0  0  0
 13  2  1  0  0  0  0
 13 14  2  0  0  0  0
 15 14  1  0  0  0  0
 15  1  1  0  0  0  0
 16 15  2  0  0  0  0
 17 18  2  0  0  0  0
 17 16  1  0  0  0  0
 18 13  1  0  0  0  0
M  END
>  <CHROM.1>
174.47107684,46.64813261,144.87034910,120.78333807,-10.12735981,15.03119540
2.38130258,0.26057615,0.27977049,-0.08622709

>  <Name>
lig.pdb

>  <RI>
0

>  <Rbt.Current_Directory>
/home/itssahil/PROJECTS/Mol_Feturizer/New_Systems/rnas/4nyg

>  <Rbt.Executable>
rbdock ($Id: //depot/dev/client3/rdock/2013.1/src/exe/rbdock.cxx#4 $)

>  <Rbt.Library>
libRbt.so (2013.1, Build901 2013/11/27)

>  <Rbt.Parameter_File>
/export/apps/rDock/src/rDock_2013.1_src/data/scripts/dock_solv.prm

>  <Rbt.Receptor>
prm/blind_docking_40.prm

>  <SCORE>
-18.8241

>  <SCORE.INTER>
-21.0178

>  <SCORE.INTER.CONST>
1

>  <SCORE.INTER.POLAR>
0

>  <SCORE.INTER.ROT>
4

>  <SCORE.INTER.SOLV>
11.4074

>  <SCORE.INTER.VDW>
-24.081

>  <SCORE.INTER.norm>
-1.16765

>  <SCORE.INTRA>
2.19365

>  <SCORE.INTRA.DIHEDRAL>
0.294506

>  <SCORE.INTRA.DIHEDRAL.0>
3.20029

>  <SCORE.INTRA.POLAR>
0

>  <SCORE.INTRA.POLAR.0>
0

>  <SCORE.INTRA.REPUL>
0

>  <SCORE.INTRA.REPUL.0>
0

>  <SCORE.INTRA.SOLV>
0.621252

>  <SCORE.INTRA.SOLV.lig_0>
-19.3885

>  <SCORE.INTRA.VDW>
1.73577

>  <SCORE.INTRA.VDW.0>
-1.12705

>  <SCORE.INTRA.norm>
0.12187

>  <SCORE.RESTR>
0

>  <SCORE.RESTR.CAVITY>
0

>  <SCORE.RESTR.norm>
0

>  <SCORE.SYSTEM>
0

>  <SCORE.SYSTEM.CONST>
0

>  <SCORE.SYSTEM.DIHEDRAL>
0

>  <SCORE.SYSTEM.SOLV>
0

>  <SCORE.SYSTEM.norm>
0

>  <SCORE.heavy>
18

>  <SCORE.norm>
-1.04578

>  <RMSD>
7.361

$$$$
lig.pdb
 OpenBabel11021811503D
libRbt.so/2013.1/901 2013/11/27
 18 19  0  0  0  0  0  0  0  0999 V2000
   -5.2087   12.9903    6.0898 C   0  0  0  0  0  0  0  0  0  0  0  0
   -8.4450   10.7750    3.2347 N   0  0  0  0  0  0  0  0  0  0  0  0
  -10.3305   15.9673    2.0777 C   0  0  0  0  0  0  0  0  0  0  0  0
  -14.9019   17.1000    4.4347 O   0  0  0  0  0  0  0  0  0  0  0  0
  -14.2361   15.8905    4.0986 C   0  0  0  0  0  0  0  0  0  0  0  0
  -13.3451   16.0994    2.8587 C   0  0  0  0  0  0  0  0  0  0  0  0
  -11.4521   12.4237    2.5211 C   0  0  0  0  0  0  0  0  0  0  0  0
  -12.9713   13.1692    2.8958 S   0  0  0  0  0  0  0  0  0  0  0  0
  -12.4839   14.8669    2.6931 C   0  0  0  0  0  0  0  0  0  0  0  0
  -11.1614   14.7252    2.3529 C   0  0  0  0  0  0  0  0  0  0  0  0
  -10.6563   13.4561    2.2732 N   0  0  0  0  0  0  0  0  0  0  0  0
   -9.2223   13.2051    1.8874 C   0  0  0  0  0  0  0  0  0  0  0  0
   -7.8228   11.9592    3.6298 C   0  0  0  0  0  0  0  0  0  0  0  0
   -6.8747   11.9329    4.6159 N   0  0  0  0  0  0  0  0  0  0  0  0
   -6.2630   13.0528    5.0104 C   0  0  0  0  0  0  0  0  0  0  0  0
   -6.5670   14.2275    4.4509 N   0  0  0  0  0  0  0  0  0  0  0  0
   -7.4952   14.3307    3.4645 C   0  0  0  0  0  0  0  0  0  0  0  0
   -8.1656   13.1920    3.0038 C   0  0  0  0  0  0  0  0  0  0  0  0
  5  4  1  0  0  0  0
  5  6  1  0  0  0  0
  7  8  2  0  0  0  0
  7 11  1  0  0  0  0
  8  9  1  0  0  0  0
  9 10  2  0  0  0  0
  9  6  1  0  0  0  0
 10  3  1  0  0  0  0
 11 12  1  0  0  0  0
 11 10  1  0  0  0  0
 12 18  1  0  0  0  0
 13  2  1  0  0  0  0
 13 14  2  0  0  0  0
 15 14  1  0  0  0  0
 15  1  1  0  0  0  0
 16 15  2  0  0  0  0
 17 18  2  0  0  0  0
 17 16  1  0  0  0  0
 18 13  1  0  0  0  0
M  END
>  <CHROM.1>
170.22922311,41.33013404,-92.98662766,92.21334144,-10.13194536,13.85108366
3.40482051,-0.26399574,-0.30396768,0.42548416

>  <Name>
lig.pdb

>  <RI>
0

>  <Rbt.Current_Directory>
/home/itssahil/PROJECTS/Mol_Feturizer/New_Systems/rnas/4nyg

>  <Rbt.Executable>
rbdock ($Id: //depot/dev/client3/rdock/2013.1/src/exe/rbdock.cxx#4 $)

>  <Rbt.Library>
libRbt.so (2013.1, Build901 2013/11/27)

>  <Rbt.Parameter_File>
/export/apps/rDock/src/rDock_2013.1_src/data/scripts/dock_solv.prm

>  <Rbt.Receptor>
prm/pocket_docking_7.prm

>  <SCORE>
-22.0766

>  <SCORE.INTER>
-22.3294

>  <SCORE.INTER.CONST>
1

>  <SCORE.INTER.POLAR>
0

>  <SCORE.INTER.ROT>
4

>  <SCORE.INTER.SOLV>
13.314

>  <SCORE.INTER.VDW>
-25.5909

>  <SCORE.INTER.norm>
-1.24052

>  <SCORE.INTRA>
0.252773

>  <SCORE.INTRA.DIHEDRAL>
0.810817

>  <SCORE.INTRA.DIHEDRAL.0>
3.20029

>  <SCORE.INTRA.POLAR>
0

>  <SCORE.INTRA.POLAR.0>
0

>  <SCORE.INTRA.REPUL>
0

>  <SCORE.INTRA.REPUL.0>
0

>  <SCORE.INTRA.SOLV>
0.395537

>  <SCORE.INTRA.SOLV.lig_0>
-19.3885

>  <SCORE.INTRA.VDW>
-0.350405

>  <SCORE.INTRA.VDW.0>
-1.12705

>  <SCORE.INTRA.norm>
0.0140429

>  <SCORE.RESTR>
0

>  <SCORE.RESTR.CAVITY>
0

>  <SCORE.RESTR.norm>
0

>  <SCORE.SYSTEM>
0

>  <SCORE.SYSTEM.CONST>
0

>  <SCORE.SYSTEM.DIHEDRAL>
0

>  <SCORE.SYSTEM.SOLV>
0

>  <SCORE.SYSTEM.norm>
0

>  <SCORE.heavy>
18

>  <SCORE.norm>
-1.22648

>  <RMSD>
7.361

$$$$
lig.pdb
 OpenBabel11021811503D
libRbt.so/2013.1/901 2013/11/27
 18 19  0  0  0  0  0  0  0  0999 V2000
   -4.7366   17.9971   -0.3180 C   0  0  0  0  0  0  0  0  0  0  0  0
   -7.5727   17.0453    3.5008 N   0  0  0  0  0  0  0  0  0  0  0  0
  -10.6063   12.5001    2.8883 C   0  0  0  0  0  0  0  0  0  0  0  0
  -14.2916   15.6592    4.4575 O   0  0  0  0  0  0  0  0  0  0  0  0
  -14.5344   14.8460    3.3179 C   0  0  0  0  0  0  0  0  0  0  0  0
  -13.4358   13.7735    3.1846 C   0  0  0  0  0  0  0  0  0  0  0  0
  -10.1220   16.2012    2.6070 C   0  0  0  0  0  0  0  0  0  0  0  0
  -11.8417   16.2340    2.8209 S   0  0  0  0  0  0  0  0  0  0  0  0
  -12.1186   14.4837    2.9634 C   0  0  0  0  0  0  0  0  0  0  0  0
  -10.8411   14.0001    2.8253 C   0  0  0  0  0  0  0  0  0  0  0  0
   -9.8329   14.9067    2.6416 N   0  0  0  0  0  0  0  0  0  0  0  0
   -8.3991   14.4680    2.5011 C   0  0  0  0  0  0  0  0  0  0  0  0
   -7.0659   16.6393    2.2664 C   0  0  0  0  0  0  0  0  0  0  0  0
   -6.2019   17.4526    1.5853 N   0  0  0  0  0  0  0  0  0  0  0  0
   -5.7011   17.0856    0.4028 C   0  0  0  0  0  0  0  0  0  0  0  0
   -6.0367   15.9136   -0.1441 N   0  0  0  0  0  0  0  0  0  0  0  0
   -6.8860   15.0529    0.4748 C   0  0  0  0  0  0  0  0  0  0  0  0
   -7.4385   15.3782    1.7186 C   0  0  0  0  0  0  0  0  0  0  0  0
  5  4  1  0  0  0  0
  5  6  1  0  0  0  0
  7  8  2  0  0  0  0
  7 11  1  0  0  0  0
  8  9  1  0  0  0  0
  9 10  2  0  0  0  0
  9  6  1  0  0  0  0
 10  3  1  0  0  0  0
 11 12  1  0  0  0  0
 11 10  1  0  0  0  0
 12 18  1  0  0  0  0
 13  2  1  0  0  0  0
 13 14  2  0  0  0  0
 15 14  1  0  0  0  0
 15  1  1  0  0  0  0
 16 15  2  0  0  0  0
 17 18  2  0  0  0  0
 17 16  1  0  0  0  0
 18 13  1  0  0  0  0
M  END
>  <CHROM.1>
-62.94113036,-1.87717372,-27.21330436,68.96513269,-9.54610683,15.58189059
2.26916697,0.21548969,0.37997683,0.11209165

>  <Name>
lig.pdb

>  <RI>
0

>  <Rbt.Current_Directory>
/home/itssahil/PROJECTS/Mol_Feturizer/New_Systems/rnas/4nyg

>  <Rbt.Executable>
rbdock ($Id: //depot/dev/client3/rdock/2013.1/src/exe/rbdock.cxx#4 $)

>  <Rbt.Library>
libRbt.so (2013.1, Build901 2013/11/27)

>  <Rbt.Parameter_File>
/export/apps/rDock/src/rDock_2013.1_src/data/scripts/dock_solv.prm

>  <Rbt.Receptor>
prm/blind_docking_40.prm

>  <SCORE>
-16.8631

>  <SCORE.INTER>
-19.6554

>  <SCORE.INTER.CONST>
1

>  <SCORE.INTER.POLAR>
0

>  <SCORE.INTER.ROT>
4

>  <SCORE.INTER.SOLV>
11.2273

>  <SCORE.INTER.VDW>
-23.1127

>  <SCORE.INTER.norm>
-1.09197

>  <SCORE.INTRA>
2.79231

>  <SCORE.INTRA.DIHEDRAL>
2.70077

>  <SCORE.INTRA.DIHEDRAL.0>
3.20029

>  <SCORE.INTRA.POLAR>
0

>  <SCORE.INTRA.POLAR.0>
0

>  <SCORE.INTRA.REPUL>
0

>  <SCORE.INTRA.REPUL.0>
0

>  <SCORE.INTRA.SOLV>
1.17835

>  <SCORE.INTRA.SOLV.lig_0>
-19.3885

>  <SCORE.INTRA.VDW>
0.852748

>  <SCORE.INTRA.VDW.0>
-1.12705

>  <SCORE.INTRA.norm>
0.155128

>  <SCORE.RESTR>
0

>  <SCORE.RESTR.CAVITY>
0

>  <SCORE.RESTR.norm>
0

>  <SCORE.SYSTEM>
0

>  <SCORE.SYSTEM.CONST>
0

>  <SCORE.SYSTEM.DIHEDRAL>
0

>  <SCORE.SYSTEM.SOLV>
0

>  <SCORE.SYSTEM.norm>
0

>  <SCORE.heavy>
18

>  <SCORE.norm>
-0.936838

>  <RMSD>
7.366

$$$$
lig.pdb
 OpenBabel11021811503D
libRbt.so/2013.1/901 2013/11/27
 18 19  0  0  0  0  0  0  0  0999 V2000
   -4.6703   13.4619    5.8064 C   0  0  0  0  0  0  0  0  0  0  0  0
   -7.2794   15.9481    2.5593 N   0  0  0  0  0  0  0  0  0  0  0  0
  -11.3745   12.3115    2.7187 C   0  0  0  0  0  0  0  0  0  0  0  0
  -14.5974   16.3437    2.5495 O   0  0  0  0  0  0  0  0  0  0  0  0
  -14.4698   15.5520    3.7225 C   0  0  0  0  0  0  0  0  0  0  0  0
  -13.7244   14.2417    3.4025 C   0  0  0  0  0  0  0  0  0  0  0  0
  -10.1059   15.7734    2.0727 C   0  0  0  0  0  0  0  0  0  0  0  0
  -11.6997   16.2290    2.5788 S   0  0  0  0  0  0  0  0  0  0  0  0
  -12.3436   14.6037    2.9019 C   0  0  0  0  0  0  0  0  0  0  0  0
  -11.2622   13.8207    2.5819 C   0  0  0  0  0  0  0  0  0  0  0  0
  -10.1238   14.4493    2.1565 N   0  0  0  0  0  0  0  0  0  0  0  0
   -8.8833   13.6718    1.8035 C   0  0  0  0  0  0  0  0  0  0  0  0
   -7.0124   14.7329    3.1897 C   0  0  0  0  0  0  0  0  0  0  0  0
   -6.0265   14.6597    4.1354 N   0  0  0  0  0  0  0  0  0  0  0  0
   -5.7533   13.5084    4.7549 C   0  0  0  0  0  0  0  0  0  0  0  0
   -6.4371   12.3987    4.4611 N   0  0  0  0  0  0  0  0  0  0  0  0
   -7.4316   12.3955    3.5359 C   0  0  0  0  0  0  0  0  0  0  0  0
   -7.7688   13.5722    2.8578 C   0  0  0  0  0  0  0  0  0  0  0  0
  5  4  1  0  0  0  0
  5  6  1  0  0  0  0
  7  8  2  0  0  0  0
  7 11  1  0  0  0  0
  8  9  1  0  0  0  0
  9 10  2  0  0  0  0
  9  6  1  0  0  0  0
 10  3  1  0  0  0  0
 11 12  1  0  0  0  0
 11 10  1  0  0  0  0
 12 18  1  0  0  0  0
 13  2  1  0  0  0  0
 13 14  2  0  0  0  0
 15 14  1  0  0  0  0
 15  1  1  0  0  0  0
 16 15  2  0  0  0  0
 17 18  2  0  0  0  0
 17 16  1  0  0  0  0
 18 13  1  0  0  0  0
M  END
>  <CHROM.1>
61.17096602,-5.25261307,80.14774497,-69.51086375,-9.70832744,14.46310300
3.17148513,0.27642509,0.13127162,2.89761277

>  <Name>
lig.pdb

>  <RI>
0

>  <Rbt.Current_Directory>
/home/itssahil/PROJECTS/Mol_Feturizer/New_Systems/rnas/4nyg

>  <Rbt.Executable>
rbdock ($Id: //depot/dev/client3/rdock/2013.1/src/exe/rbdock.cxx#4 $)

>  <Rbt.Library>
libRbt.so (2013.1, Build901 2013/11/27)

>  <Rbt.Parameter_File>
/export/apps/rDock/src/rDock_2013.1_src/data/scripts/dock_solv.prm

>  <Rbt.Receptor>
prm/pocket_docking_3.prm

>  <SCORE>
-18.6106

>  <SCORE.INTER>
-20.8849

>  <SCORE.INTER.CONST>
1

>  <SCORE.INTER.POLAR>
0

>  <SCORE.INTER.ROT>
4

>  <SCORE.INTER.SOLV>
10.6314

>  <SCORE.INTER.VDW>
-23.7338

>  <SCORE.INTER.norm>
-1.16027

>  <SCORE.INTRA>
2.27437

>  <SCORE.INTRA.DIHEDRAL>
2.6212

>  <SCORE.INTRA.DIHEDRAL.0>
3.20029

>  <SCORE.INTRA.POLAR>
0

>  <SCORE.INTRA.POLAR.0>
0

>  <SCORE.INTRA.REPUL>
0

>  <SCORE.INTRA.REPUL.0>
0

>  <SCORE.INTRA.SOLV>
1.13391

>  <SCORE.INTRA.SOLV.lig_0>
-19.3885

>  <SCORE.INTRA.VDW>
0.396812

>  <SCORE.INTRA.VDW.0>
-1.12705

>  <SCORE.INTRA.norm>
0.126354

>  <SCORE.RESTR>
0

>  <SCORE.RESTR.CAVITY>
0

>  <SCORE.RESTR.norm>
0

>  <SCORE.SYSTEM>
0

>  <SCORE.SYSTEM.CONST>
0

>  <SCORE.SYSTEM.DIHEDRAL>
0

>  <SCORE.SYSTEM.SOLV>
0

>  <SCORE.SYSTEM.norm>
0

>  <SCORE.heavy>
18

>  <SCORE.norm>
-1.03392

>  <RMSD>
7.366

$$$$
lig.pdb
 OpenBabel11021811503D
libRbt.so/2013.1/901 2013/11/27
 18 19  0  0  0  0  0  0  0  0999 V2000
   -3.7241   15.6379    2.4617 C   0  0  0  0  0  0  0  0  0  0  0  0
   -7.3666   14.3129   -0.4553 N   0  0  0  0  0  0  0  0  0  0  0  0
  -11.6454   12.3063    2.6626 C   0  0  0  0  0  0  0  0  0  0  0  0
  -14.5904   16.4895    2.5078 O   0  0  0  0  0  0  0  0  0  0  0  0
  -14.5048   15.7467    3.7160 C   0  0  0  0  0  0  0  0  0  0  0  0
  -13.8240   14.3883    3.4593 C   0  0  0  0  0  0  0  0  0  0  0  0
  -10.1325   15.6794    2.0757 C   0  0  0  0  0  0  0  0  0  0  0  0
  -11.6742   16.2396    2.6356 S   0  0  0  0  0  0  0  0  0  0  0  0
  -12.4321   14.6590    2.9322 C   0  0  0  0  0  0  0  0  0  0  0  0
  -11.4217   13.8059    2.5631 C   0  0  0  0  0  0  0  0  0  0  0  0
  -10.2494   14.3586    2.1247 N   0  0  0  0  0  0  0  0  0  0  0  0
   -9.0807   13.5000    1.7186 C   0  0  0  0  0  0  0  0  0  0  0  0
   -6.8666   14.4354    0.8410 C   0  0  0  0  0  0  0  0  0  0  0  0
   -5.6093   14.9367    1.0403 N   0  0  0  0  0  0  0  0  0  0  0  0
   -5.1088   15.0660    2.2718 C   0  0  0  0  0  0  0  0  0  0  0  0
   -5.8264   14.7042    3.3394 N   0  0  0  0  0  0  0  0  0  0  0  0
   -7.0827   14.2018    3.2195 C   0  0  0  0  0  0  0  0  0  0  0  0
   -7.6643   14.0485    1.9560 C   0  0  0  0  0  0  0  0  0  0  0  0
  5  4  1  0  0  0  0
  5  6  1  0  0  0  0
  7  8  2  0  0  0  0
  7 11  1  0  0  0  0
  8  9  1  0  0  0  0
  9 10  2  0  0  0  0
  9  6  1  0  0  0  0
 10  3  1  0  0  0  0
 11 12  1  0  0  0  0
 11 10  1  0  0  0  0
 12 18  1  0  0  0  0
 13  2  1  0  0  0  0
 13 14  2  0  0  0  0
 15 14  1  0  0  0  0
 15  1  1  0  0  0  0
 16 15  2  0  0  0  0
 17 18  2  0  0  0  0
 17 16  1  0  0  0  0
 18 13  1  0  0  0  0
M  END
>  <CHROM.1>
60.44686174,-0.32203371,30.91715987,-109.74561013,-9.59469554,14.81885269
2.31377367,-0.09108231,0.11964523,0.23180333

>  <Name>
lig.pdb

>  <RI>
0

>  <Rbt.Current_Directory>
/home/itssahil/PROJECTS/Mol_Feturizer/New_Systems/rnas/4nyg

>  <Rbt.Executable>
rbdock ($Id: //depot/dev/client3/rdock/2013.1/src/exe/rbdock.cxx#4 $)

>  <Rbt.Library>
libRbt.so (2013.1, Build901 2013/11/27)

>  <Rbt.Parameter_File>
/export/apps/rDock/src/rDock_2013.1_src/data/scripts/dock_solv.prm

>  <Rbt.Receptor>
prm/pocket_docking_3.prm

>  <SCORE>
-18.9341

>  <SCORE.INTER>
-21.2179

>  <SCORE.INTER.CONST>
1

>  <SCORE.INTER.POLAR>
0

>  <SCORE.INTER.ROT>
4

>  <SCORE.INTER.SOLV>
11.2047

>  <SCORE.INTER.VDW>
-24.1468

>  <SCORE.INTER.norm>
-1.17877

>  <SCORE.INTRA>
2.28381

>  <SCORE.INTRA.DIHEDRAL>
2.54703

>  <SCORE.INTRA.DIHEDRAL.0>
3.20029

>  <SCORE.INTRA.POLAR>
0

>  <SCORE.INTRA.POLAR.0>
0

>  <SCORE.INTRA.REPUL>
0

>  <SCORE.INTRA.REPUL.0>
0

>  <SCORE.INTRA.SOLV>
0.648497

>  <SCORE.INTRA.SOLV.lig_0>
-19.3885

>  <SCORE.INTRA.VDW>
0.686051

>  <SCORE.INTRA.VDW.0>
-1.12705

>  <SCORE.INTRA.norm>
0.126879

>  <SCORE.RESTR>
0

>  <SCORE.RESTR.CAVITY>
0

>  <SCORE.RESTR.norm>
0

>  <SCORE.SYSTEM>
0

>  <SCORE.SYSTEM.CONST>
0

>  <SCORE.SYSTEM.DIHEDRAL>
0

>  <SCORE.SYSTEM.SOLV>
0

>  <SCORE.SYSTEM.norm>
0

>  <SCORE.heavy>
18

>  <SCORE.norm>
-1.05189

>  <RMSD>
7.369

$$$$
lig.pdb
 OpenBabel11021811503D
libRbt.so/2013.1/901 2013/11/27
 18 19  0  0  0  0  0  0  0  0999 V2000
   -5.6973    9.0207    4.7396 C   0  0  0  0  0  0  0  0  0  0  0  0
   -8.0943    9.4372    0.5428 N   0  0  0  0  0  0  0  0  0  0  0  0
   -9.3977   14.7114    1.5071 C   0  0  0  0  0  0  0  0  0  0  0  0
  -14.2012   15.8913    2.4756 O   0  0  0  0  0  0  0  0  0  0  0  0
  -13.2391   16.3362    3.4218 C   0  0  0  0  0  0  0  0  0  0  0  0
  -11.8148   16.1306    2.8704 C   0  0  0  0  0  0  0  0  0  0  0  0
  -11.7458   11.9943    2.5632 C   0  0  0  0  0  0  0  0  0  0  0  0
  -12.6878   13.3229    3.1562 S   0  0  0  0  0  0  0  0  0  0  0  0
  -11.6045   14.6461    2.6701 C   0  0  0  0  0  0  0  0  0  0  0  0
  -10.5782   13.9478    2.0836 C   0  0  0  0  0  0  0  0  0  0  0  0
  -10.6765   12.5837    2.0438 N   0  0  0  0  0  0  0  0  0  0  0  0
   -9.6079   11.7383    1.4023 C   0  0  0  0  0  0  0  0  0  0  0  0
   -7.8734    9.9081    1.8370 C   0  0  0  0  0  0  0  0  0  0  0  0
   -6.9574    9.2853    2.6401 N   0  0  0  0  0  0  0  0  0  0  0  0
   -6.7262    9.7183    3.8822 C   0  0  0  0  0  0  0  0  0  0  0  0
   -7.3891   10.7708    4.3702 N   0  0  0  0  0  0  0  0  0  0  0  0
   -8.3104   11.4412    3.6307 C   0  0  0  0  0  0  0  0  0  0  0  0
   -8.5919   11.0393    2.3202 C   0  0  0  0  0  0  0  0  0  0  0  0
  5  4  1  0  0  0  0
  5  6  1  0  0  0  0
  7  8  2  0  0  0  0
  7 11  1  0  0  0  0
  8  9  1  0  0  0  0
  9 10  2  0  0  0  0
  9  6  1  0  0  0  0
 10  3  1  0  0  0  0
 11 12  1  0  0  0  0
 11 10  1  0  0  0  0
 12 18  1  0  0  0  0
 13  2  1  0  0  0  0
 13 14  2  0  0  0  0
 15 14  1  0  0  0  0
 15  1  1  0  0  0  0
 16 15  2  0  0  0  0
 17 18  2  0  0  0  0
 17 16  1  0  0  0  0
 18 13  1  0  0  0  0
M  END
>  <CHROM.1>
-62.85625638,-7.14872129,-80.05473152,158.88704515,-9.97636660,12.44421907
2.71171277,-0.31716362,-0.70701151,1.03667391

>  <Name>
lig.pdb

>  <RI>
0

>  <Rbt.Current_Directory>
/home/itssahil/PROJECTS/Mol_Feturizer/New_Systems/rnas/4nyg

>  <Rbt.Executable>
rbdock ($Id: //depot/dev/client3/rdock/2013.1/src/exe/rbdock.cxx#4 $)

>  <Rbt.Library>
libRbt.so (2013.1, Build901 2013/11/27)

>  <Rbt.Parameter_File>
/export/apps/rDock/src/rDock_2013.1_src/data/scripts/dock_solv.prm

>  <Rbt.Receptor>
prm/pocket_docking_6.prm

>  <SCORE>
-24.6243

>  <SCORE.INTER>
-26.2321

>  <SCORE.INTER.CONST>
1

>  <SCORE.INTER.POLAR>
0

>  <SCORE.INTER.ROT>
4

>  <SCORE.INTER.SOLV>
16.7482

>  <SCORE.INTER.VDW>
-29.3375

>  <SCORE.INTER.norm>
-1.45734

>  <SCORE.INTRA>
1.60784

>  <SCORE.INTRA.DIHEDRAL>
2.48962

>  <SCORE.INTRA.DIHEDRAL.0>
3.20029

>  <SCORE.INTRA.POLAR>
0

>  <SCORE.INTRA.POLAR.0>
0

>  <SCORE.INTRA.REPUL>
0

>  <SCORE.INTRA.REPUL.0>
0

>  <SCORE.INTRA.SOLV>
0.405939

>  <SCORE.INTRA.SOLV.lig_0>
-19.3885

>  <SCORE.INTRA.VDW>
0.160063

>  <SCORE.INTRA.VDW.0>
-1.12705

>  <SCORE.INTRA.norm>
0.0893246

>  <SCORE.RESTR>
0

>  <SCORE.RESTR.CAVITY>
0

>  <SCORE.RESTR.norm>
0

>  <SCORE.SYSTEM>
0

>  <SCORE.SYSTEM.CONST>
0

>  <SCORE.SYSTEM.DIHEDRAL>
0

>  <SCORE.SYSTEM.SOLV>
0

>  <SCORE.SYSTEM.norm>
0

>  <SCORE.heavy>
18

>  <SCORE.norm>
-1.36801

>  <RMSD>
7.369

$$$$
lig.pdb
 OpenBabel11021811503D
libRbt.so/2013.1/901 2013/11/27
 18 19  0  0  0  0  0  0  0  0999 V2000
   -4.9358   12.4427    5.1926 C   0  0  0  0  0  0  0  0  0  0  0  0
   -8.3959   10.4305    2.4519 N   0  0  0  0  0  0  0  0  0  0  0  0
  -10.1450   15.8787    2.0357 C   0  0  0  0  0  0  0  0  0  0  0  0
  -15.1396   15.7313    3.8259 O   0  0  0  0  0  0  0  0  0  0  0  0
  -14.4261   16.5195    2.8833 C   0  0  0  0  0  0  0  0  0  0  0  0
  -12.9307   16.5679    3.2524 C   0  0  0  0  0  0  0  0  0  0  0  0
  -11.8160   12.6047    2.7432 C   0  0  0  0  0  0  0  0  0  0  0  0
  -13.0984   13.6192    3.3181 S   0  0  0  0  0  0  0  0  0  0  0  0
  -12.3449   15.1969    2.9963 C   0  0  0  0  0  0  0  0  0  0  0  0
  -11.1377   14.8123    2.4673 C   0  0  0  0  0  0  0  0  0  0  0  0
  -10.8916   13.4715    2.3500 N   0  0  0  0  0  0  0  0  0  0  0  0
   -9.6031   12.9587    1.7625 C   0  0  0  0  0  0  0  0  0  0  0  0
   -7.8243   11.5853    2.9859 C   0  0  0  0  0  0  0  0  0  0  0  0
   -6.7251   11.4885    3.7948 N   0  0  0  0  0  0  0  0  0  0  0  0
   -6.1582   12.5795    4.3165 C   0  0  0  0  0  0  0  0  0  0  0  0
   -6.6559   13.7930    4.0615 N   0  0  0  0  0  0  0  0  0  0  0  0
   -7.7425   13.9673    3.2652 C   0  0  0  0  0  0  0  0  0  0  0  0
   -8.3765   12.8634    2.6843 C   0  0  0  0  0  0  0  0  0  0  0  0
  5  4  1  0  0  0  0
  5  6  1  0  0  0  0
  7  8  2  0  0  0  0
  7 11  1  0  0  0  0
  8  9  1  0  0  0  0
  9 10  2  0  0  0  0
  9  6  1  0  0  0  0
 10  3  1  0  0  0  0
 11 12  1  0  0  0  0
 11 10  1  0  0  0  0
 12 18  1  0  0  0  0
 13  2  1  0  0  0  0
 13 14  2  0  0  0  0
 15 14  1  0  0  0  0
 15  1  1  0  0  0  0
 16 15  2  0  0  0  0
 17 18  2  0  0  0  0
 17 16  1  0  0  0  0
 18 13  1  0  0  0  0
M  END
>  <CHROM.1>
70.23395497,-39.43607163,-98.04965407,114.87931479,-10.17858022,13.72335264
3.15691179,-0.39066628,-0.17334589,0.18424153

>  <Name>
lig.pdb

>  <RI>
0

>  <Rbt.Current_Directory>
/home/itssahil/PROJECTS/Mol_Feturizer/New_Systems/rnas/4nyg

>  <Rbt.Executable>
rbdock ($Id: //depot/dev/client3/rdock/2013.1/src/exe/rbdock.cxx#4 $)

>  <Rbt.Library>
libRbt.so (2013.1, Build901 2013/11/27)

>  <Rbt.Parameter_File>
/export/apps/rDock/src/rDock_2013.1_src/data/scripts/dock_solv.prm

>  <Rbt.Receptor>
prm/pocket_docking_8.prm

>  <SCORE>
-22.5812

>  <SCORE.INTER>
-23.19

>  <SCORE.INTER.CONST>
1

>  <SCORE.INTER.POLAR>
0

>  <SCORE.INTER.ROT>
4

>  <SCORE.INTER.SOLV>
10.9874

>  <SCORE.INTER.VDW>
-25.3891

>  <SCORE.INTER.norm>
-1.28833

>  <SCORE.INTRA>
0.608852

>  <SCORE.INTRA.DIHEDRAL>
0.943016

>  <SCORE.INTRA.DIHEDRAL.0>
3.20029

>  <SCORE.INTRA.POLAR>
0

>  <SCORE.INTRA.POLAR.0>
0

>  <SCORE.INTRA.REPUL>
0

>  <SCORE.INTRA.REPUL.0>
0

>  <SCORE.INTRA.SOLV>
0.626355

>  <SCORE.INTRA.SOLV.lig_0>
-19.3885

>  <SCORE.INTRA.VDW>
-0.175833

>  <SCORE.INTRA.VDW.0>
-1.12705

>  <SCORE.INTRA.norm>
0.0338251

>  <SCORE.RESTR>
0

>  <SCORE.RESTR.CAVITY>
0

>  <SCORE.RESTR.norm>
0

>  <SCORE.SYSTEM>
0

>  <SCORE.SYSTEM.CONST>
0

>  <SCORE.SYSTEM.DIHEDRAL>
0

>  <SCORE.SYSTEM.SOLV>
0

>  <SCORE.SYSTEM.norm>
0

>  <SCORE.heavy>
18

>  <SCORE.norm>
-1.25451

>  <RMSD>
7.373

$$$$
lig.pdb
 OpenBabel11021811503D
libRbt.so/2013.1/901 2013/11/27
 18 19  0  0  0  0  0  0  0  0999 V2000
   -4.9171   12.8629    5.5340 C   0  0  0  0  0  0  0  0  0  0  0  0
   -8.4257   10.6642    3.0065 N   0  0  0  0  0  0  0  0  0  0  0  0
  -10.1713   16.0259    2.0829 C   0  0  0  0  0  0  0  0  0  0  0  0
  -15.1845   15.7188    3.8354 O   0  0  0  0  0  0  0  0  0  0  0  0
  -14.5048   16.4751    2.8428 C   0  0  0  0  0  0  0  0  0  0  0  0
  -13.0154   16.6208    3.2109 C   0  0  0  0  0  0  0  0  0  0  0  0
  -11.6946   12.7020    2.8845 C   0  0  0  0  0  0  0  0  0  0  0  0
  -13.0387   13.6722    3.3906 S   0  0  0  0  0  0  0  0  0  0  0  0
  -12.3568   15.2721    3.0224 C   0  0  0  0  0  0  0  0  0  0  0  0
  -11.1200   14.9285    2.5353 C   0  0  0  0  0  0  0  0  0  0  0  0
  -10.8052   13.5983    2.4769 N   0  0  0  0  0  0  0  0  0  0  0  0
   -9.4795   13.1286    1.9382 C   0  0  0  0  0  0  0  0  0  0  0  0
   -7.8030   11.8520    3.3898 C   0  0  0  0  0  0  0  0  0  0  0  0
   -6.7272   11.8141    4.2342 N   0  0  0  0  0  0  0  0  0  0  0  0
   -6.1124   12.9372    4.6140 C   0  0  0  0  0  0  0  0  0  0  0  0
   -6.5381   14.1266    4.1787 N   0  0  0  0  0  0  0  0  0  0  0  0
   -7.5974   14.2423    3.3362 C   0  0  0  0  0  0  0  0  0  0  0  0
   -8.2786   13.1014    2.8977 C   0  0  0  0  0  0  0  0  0  0  0  0
  5  4  1  0  0  0  0
  5  6  1  0  0  0  0
  7  8  2  0  0  0  0
  7 11  1  0  0  0  0
  8  9  1  0  0  0  0
  9 10  2  0  0  0  0
  9  6  1  0  0  0  0
 10  3  1  0  0  0  0
 11 12  1  0  0  0  0
 11 10  1  0  0  0  0
 12 18  1  0  0  0  0
 13  2  1  0  0  0  0
 13 14  2  0  0  0  0
 15 14  1  0  0  0  0
 15  1  1  0  0  0  0
 16 15  2  0  0  0  0
 17 18  2  0  0  0  0
 17 16  1  0  0  0  0
 18 13  1  0  0  0  0
M  END
>  <CHROM.1>
71.37482378,-38.15761424,-96.72093344,106.07161491,-10.14633519,13.89228604
3.31647493,-0.35795761,-0.16843542,0.07677226

>  <Name>
lig.pdb

>  <RI>
0

>  <Rbt.Current_Directory>
/home/itssahil/PROJECTS/Mol_Feturizer/New_Systems/rnas/4nyg

>  <Rbt.Executable>
rbdock ($Id: //depot/dev/client3/rdock/2013.1/src/exe/rbdock.cxx#4 $)

>  <Rbt.Library>
libRbt.so (2013.1, Build901 2013/11/27)

>  <Rbt.Parameter_File>
/export/apps/rDock/src/rDock_2013.1_src/data/scripts/dock_solv.prm

>  <Rbt.Receptor>
prm/pocket_docking_7.prm

>  <SCORE>
-22.6576

>  <SCORE.INTER>
-23.3355

>  <SCORE.INTER.CONST>
1

>  <SCORE.INTER.POLAR>
0

>  <SCORE.INTER.ROT>
4

>  <SCORE.INTER.SOLV>
11.6339

>  <SCORE.INTER.VDW>
-25.7016

>  <SCORE.INTER.norm>
-1.29642

>  <SCORE.INTRA>
0.677918

>  <SCORE.INTRA.DIHEDRAL>
1.10978

>  <SCORE.INTRA.DIHEDRAL.0>
3.20029

>  <SCORE.INTRA.POLAR>
0

>  <SCORE.INTRA.POLAR.0>
0

>  <SCORE.INTRA.REPUL>
0

>  <SCORE.INTRA.REPUL.0>
0

>  <SCORE.INTRA.SOLV>
0.686787

>  <SCORE.INTRA.SOLV.lig_0>
-19.3885

>  <SCORE.INTRA.VDW>
-0.220365

>  <SCORE.INTRA.VDW.0>
-1.12705

>  <SCORE.INTRA.norm>
0.0376621

>  <SCORE.RESTR>
0

>  <SCORE.RESTR.CAVITY>
0

>  <SCORE.RESTR.norm>
0

>  <SCORE.SYSTEM>
0

>  <SCORE.SYSTEM.CONST>
0

>  <SCORE.SYSTEM.DIHEDRAL>
0

>  <SCORE.SYSTEM.SOLV>
0

>  <SCORE.SYSTEM.norm>
0

>  <SCORE.heavy>
18

>  <SCORE.norm>
-1.25875

>  <RMSD>
7.374

$$$$
lig.pdb
 OpenBabel11021811503D
libRbt.so/2013.1/901 2013/11/27
 18 19  0  0  0  0  0  0  0  0999 V2000
   -4.9569   12.4893    5.2065 C   0  0  0  0  0  0  0  0  0  0  0  0
   -8.4283   10.4603    2.4927 N   0  0  0  0  0  0  0  0  0  0  0  0
  -10.1623   15.9101    2.0338 C   0  0  0  0  0  0  0  0  0  0  0  0
  -15.1385   15.8101    3.8890 O   0  0  0  0  0  0  0  0  0  0  0  0
  -14.4425   16.5765    2.9158 C   0  0  0  0  0  0  0  0  0  0  0  0
  -12.9396   16.6279    3.2531 C   0  0  0  0  0  0  0  0  0  0  0  0
  -11.8483   12.6533    2.7839 C   0  0  0  0  0  0  0  0  0  0  0  0
  -13.1230   13.6811    3.3522 S   0  0  0  0  0  0  0  0  0  0  0  0
  -12.3622   15.2510    3.0100 C   0  0  0  0  0  0  0  0  0  0  0  0
  -11.1592   14.8540    2.4809 C   0  0  0  0  0  0  0  0  0  0  0  0
  -10.9207   13.5107    2.3776 N   0  0  0  0  0  0  0  0  0  0  0  0
   -9.6373   12.9844    1.7911 C   0  0  0  0  0  0  0  0  0  0  0  0
   -7.8543   11.6184    3.0168 C   0  0  0  0  0  0  0  0  0  0  0  0
   -6.7520   11.5266    3.8220 N   0  0  0  0  0  0  0  0  0  0  0  0
   -6.1827   12.6208    4.3343 C   0  0  0  0  0  0  0  0  0  0  0  0
   -6.6808   13.8328    4.0731 N   0  0  0  0  0  0  0  0  0  0  0  0
   -7.7704   14.0022    3.2799 C   0  0  0  0  0  0  0  0  0  0  0  0
   -8.4071   12.8947    2.7087 C   0  0  0  0  0  0  0  0  0  0  0  0
  5  4  1  0  0  0  0
  5  6  1  0  0  0  0
  7  8  2  0  0  0  0
  7 11  1  0  0  0  0
  8  9  1  0  0  0  0
  9 10  2  0  0  0  0
  9  6  1  0  0  0  0
 10  3  1  0  0  0  0
 11 12  1  0  0  0  0
 11 10  1  0  0  0  0
 12 18  1  0  0  0  0
 13  2  1  0  0  0  0
 13 14  2  0  0  0  0
 15 14  1  0  0  0  0
 15  1  1  0  0  0  0
 16 15  2  0  0  0  0
 17 18  2  0  0  0  0
 17 16  1  0  0  0  0
 18 13  1  0  0  0  0
M  END
>  <CHROM.1>
70.37047619,-38.36991544,-98.14211786,115.29924462,-10.20160764,13.76902445
3.18199740,-0.39543590,-0.17074072,0.17936569

>  <Name>
lig.pdb

>  <RI>
0

>  <Rbt.Current_Directory>
/home/itssahil/PROJECTS/Mol_Feturizer/New_Systems/rnas/4nyg

>  <Rbt.Executable>
rbdock ($Id: //depot/dev/client3/rdock/2013.1/src/exe/rbdock.cxx#4 $)

>  <Rbt.Library>
libRbt.so (2013.1, Build901 2013/11/27)

>  <Rbt.Parameter_File>
/export/apps/rDock/src/rDock_2013.1_src/data/scripts/dock_solv.prm

>  <Rbt.Receptor>
prm/pocket_docking_8.prm

>  <SCORE>
-22.5808

>  <SCORE.INTER>
-23.248

>  <SCORE.INTER.CONST>
1

>  <SCORE.INTER.POLAR>
0

>  <SCORE.INTER.ROT>
4

>  <SCORE.INTER.SOLV>
11.0973

>  <SCORE.INTER.VDW>
-25.4644

>  <SCORE.INTER.norm>
-1.29155

>  <SCORE.INTRA>
0.667133

>  <SCORE.INTRA.DIHEDRAL>
1.0201

>  <SCORE.INTRA.DIHEDRAL.0>
3.20029

>  <SCORE.INTRA.POLAR>
0

>  <SCORE.INTRA.POLAR.0>
0

>  <SCORE.INTRA.REPUL>
0

>  <SCORE.INTRA.REPUL.0>
0

>  <SCORE.INTRA.SOLV>
0.622655

>  <SCORE.INTRA.SOLV.lig_0>
-19.3885

>  <SCORE.INTRA.VDW>
-0.154243

>  <SCORE.INTRA.VDW.0>
-1.12705

>  <SCORE.INTRA.norm>
0.0370629

>  <SCORE.RESTR>
0

>  <SCORE.RESTR.CAVITY>
0

>  <SCORE.RESTR.norm>
0

>  <SCORE.SYSTEM>
0

>  <SCORE.SYSTEM.CONST>
0

>  <SCORE.SYSTEM.DIHEDRAL>
0

>  <SCORE.SYSTEM.SOLV>
0

>  <SCORE.SYSTEM.norm>
0

>  <SCORE.heavy>
18

>  <SCORE.norm>
-1.25449

>  <RMSD>
7.374

$$$$
lig.pdb
 OpenBabel11021811503D
libRbt.so/2013.1/901 2013/11/27
 18 19  0  0  0  0  0  0  0  0999 V2000
   -4.9297   12.9163    5.5065 C   0  0  0  0  0  0  0  0  0  0  0  0
   -8.4060   10.6124    3.0286 N   0  0  0  0  0  0  0  0  0  0  0  0
  -10.1633   15.9539    2.0763 C   0  0  0  0  0  0  0  0  0  0  0  0
  -15.1688   15.7518    3.8626 O   0  0  0  0  0  0  0  0  0  0  0  0
  -14.4977   16.4897    2.8507 C   0  0  0  0  0  0  0  0  0  0  0  0
  -12.9992   16.6153    3.1879 C   0  0  0  0  0  0  0  0  0  0  0  0
  -11.7590   12.6677    2.8927 C   0  0  0  0  0  0  0  0  0  0  0  0
  -13.0847   13.6690    3.3866 S   0  0  0  0  0  0  0  0  0  0  0  0
  -12.3680   15.2520    3.0110 C   0  0  0  0  0  0  0  0  0  0  0  0
  -11.1366   14.8795    2.5316 C   0  0  0  0  0  0  0  0  0  0  0  0
  -10.8493   13.5426    2.4832 N   0  0  0  0  0  0  0  0  0  0  0  0
   -9.5315   13.0419    1.9535 C   0  0  0  0  0  0  0  0  0  0  0  0
   -7.8097   11.8181    3.3975 C   0  0  0  0  0  0  0  0  0  0  0  0
   -6.7252   11.8132    4.2317 N   0  0  0  0  0  0  0  0  0  0  0  0
   -6.1352   12.9542    4.5977 C   0  0  0  0  0  0  0  0  0  0  0  0
   -6.5948   14.1293    4.1583 N   0  0  0  0  0  0  0  0  0  0  0  0
   -7.6646   14.2124    3.3253 C   0  0  0  0  0  0  0  0  0  0  0  0
   -8.3212   13.0517    2.9014 C   0  0  0  0  0  0  0  0  0  0  0  0
  5  4  1  0  0  0  0
  5  6  1  0  0  0  0
  7  8  2  0  0  0  0
  7 11  1  0  0  0  0
  8  9  1  0  0  0  0
  9 10  2  0  0  0  0
  9  6  1  0  0  0  0
 10  3  1  0  0  0  0
 11 12  1  0  0  0  0
 11 10  1  0  0  0  0
 12 18  1  0  0  0  0
 13  2  1  0  0  0  0
 13 14  2  0  0  0  0
 15 14  1  0  0  0  0
 15  1  1  0  0  0  0
 16 15  2  0  0  0  0
 17 18  2  0  0  0  0
 17 16  1  0  0  0  0
 18 13  1  0  0  0  0
M  END
>  <CHROM.1>
70.79760358,-36.66131305,-99.25146050,108.86319851,-10.16812818,13.87366291
3.31493297,-0.35684915,-0.17158020,0.09082079

>  <Name>
lig.pdb

>  <RI>
0

>  <Rbt.Current_Directory>
/home/itssahil/PROJECTS/Mol_Feturizer/New_Systems/rnas/4nyg

>  <Rbt.Executable>
rbdock ($Id: //depot/dev/client3/rdock/2013.1/src/exe/rbdock.cxx#4 $)

>  <Rbt.Library>
libRbt.so (2013.1, Build901 2013/11/27)

>  <Rbt.Parameter_File>
/export/apps/rDock/src/rDock_2013.1_src/data/scripts/dock_solv.prm

>  <Rbt.Receptor>
prm/pocket_docking_4.prm

>  <SCORE>
-22.6144

>  <SCORE.INTER>
-23.4511

>  <SCORE.INTER.CONST>
1

>  <SCORE.INTER.POLAR>
0

>  <SCORE.INTER.ROT>
4

>  <SCORE.INTER.SOLV>
11.7186

>  <SCORE.INTER.VDW>
-25.8069

>  <SCORE.INTER.norm>
-1.30284

>  <SCORE.INTRA>
0.836682

>  <SCORE.INTRA.DIHEDRAL>
1.16466

>  <SCORE.INTRA.DIHEDRAL.0>
3.20029

>  <SCORE.INTRA.POLAR>
0

>  <SCORE.INTRA.POLAR.0>
0

>  <SCORE.INTRA.REPUL>
0

>  <SCORE.INTRA.REPUL.0>
0

>  <SCORE.INTRA.SOLV>
0.680553

>  <SCORE.INTRA.SOLV.lig_0>
-19.3885

>  <SCORE.INTRA.VDW>
-0.0859256

>  <SCORE.INTRA.VDW.0>
-1.12705

>  <SCORE.INTRA.norm>
0.0464823

>  <SCORE.RESTR>
0

>  <SCORE.RESTR.CAVITY>
0

>  <SCORE.RESTR.norm>
0

>  <SCORE.SYSTEM>
0

>  <SCORE.SYSTEM.CONST>
0

>  <SCORE.SYSTEM.DIHEDRAL>
0

>  <SCORE.SYSTEM.SOLV>
0

>  <SCORE.SYSTEM.norm>
0

>  <SCORE.heavy>
18

>  <SCORE.norm>
-1.25635

>  <RMSD>
7.376

$$$$
lig.pdb
 OpenBabel11021811503D
libRbt.so/2013.1/901 2013/11/27
 18 19  0  0  0  0  0  0  0  0999 V2000
   -5.3828    9.8872    4.6573 C   0  0  0  0  0  0  0  0  0  0  0  0
   -8.7708    9.5788    1.1992 N   0  0  0  0  0  0  0  0  0  0  0  0
   -9.8248   15.2933    1.7129 C   0  0  0  0  0  0  0  0  0  0  0  0
  -14.4089   17.6022    3.4867 O   0  0  0  0  0  0  0  0  0  0  0  0
  -13.9166   16.3703    2.9778 C   0  0  0  0  0  0  0  0  0  0  0  0
  -12.3914   16.2819    3.1794 C   0  0  0  0  0  0  0  0  0  0  0  0
  -11.7218   12.2174    2.6889 C   0  0  0  0  0  0  0  0  0  0  0  0
  -12.8346   13.3665    3.3563 S   0  0  0  0  0  0  0  0  0  0  0  0
  -11.9698   14.8542    2.9101 C   0  0  0  0  0  0  0  0  0  0  0  0
  -10.8660   14.3403    2.2757 C   0  0  0  0  0  0  0  0  0  0  0  0
  -10.7635   12.9795    2.1774 N   0  0  0  0  0  0  0  0  0  0  0  0
   -9.5976   12.3287    1.4808 C   0  0  0  0  0  0  0  0  0  0  0  0
   -8.1220   10.3522    2.1616 C   0  0  0  0  0  0  0  0  0  0  0  0
   -7.1265    9.7995    2.9202 N   0  0  0  0  0  0  0  0  0  0  0  0
   -6.4887   10.5198    3.8465 C   0  0  0  0  0  0  0  0  0  0  0  0
   -6.8122   11.7993    4.0554 N   0  0  0  0  0  0  0  0  0  0  0  0
   -7.7872   12.4164    3.3388 C   0  0  0  0  0  0  0  0  0  0  0  0
   -8.4871   11.7163    2.3498 C   0  0  0  0  0  0  0  0  0  0  0  0
  5  4  1  0  0  0  0
  5  6  1  0  0  0  0
  7  8  2  0  0  0  0
  7 11  1  0  0  0  0
  8  9  1  0  0  0  0
  9 10  2  0  0  0  0
  9  6  1  0  0  0  0
 10  3  1  0  0  0  0
 11 12  1  0  0  0  0
 11 10  1  0  0  0  0
 12 18  1  0  0  0  0
 13  2  1  0  0  0  0
 13 14  2  0  0  0  0
 15 14  1  0  0  0  0
 15  1  1  0  0  0  0
 16 15  2  0  0  0  0
 17 18  2  0  0  0  0
 17 16  1  0  0  0  0
 18 13  1  0  0  0  0
M  END
>  <CHROM.1>
167.66470081,-38.85886202,-78.39978396,125.12277616,-10.09738656,12.96444387
2.86833226,-0.65175470,-0.31814025,0.35911705

>  <Name>
lig.pdb

>  <RI>
0

>  <Rbt.Current_Directory>
/home/itssahil/PROJECTS/Mol_Feturizer/New_Systems/rnas/4nyg

>  <Rbt.Executable>
rbdock ($Id: //depot/dev/client3/rdock/2013.1/src/exe/rbdock.cxx#4 $)

>  <Rbt.Library>
libRbt.so (2013.1, Build901 2013/11/27)

>  <Rbt.Parameter_File>
/export/apps/rDock/src/rDock_2013.1_src/data/scripts/dock_solv.prm

>  <Rbt.Receptor>
prm/pocket_docking_5.prm

>  <SCORE>
-24.3472

>  <SCORE.INTER>
-24.7438

>  <SCORE.INTER.CONST>
1

>  <SCORE.INTER.POLAR>
0

>  <SCORE.INTER.ROT>
4

>  <SCORE.INTER.SOLV>
13.6564

>  <SCORE.INTER.VDW>
-27.3147

>  <SCORE.INTER.norm>
-1.37465

>  <SCORE.INTRA>
0.389865

>  <SCORE.INTRA.DIHEDRAL>
1.1562

>  <SCORE.INTRA.DIHEDRAL.0>
3.20029

>  <SCORE.INTRA.POLAR>
0

>  <SCORE.INTRA.POLAR.0>
0

>  <SCORE.INTRA.REPUL>
0

>  <SCORE.INTRA.REPUL.0>
0

>  <SCORE.INTRA.SOLV>
0.0972553

>  <SCORE.INTRA.SOLV.lig_0>
-19.3885

>  <SCORE.INTRA.VDW>
-0.236862

>  <SCORE.INTRA.VDW.0>
-1.12705

>  <SCORE.INTRA.norm>
0.0216592

>  <SCORE.RESTR>
0.00674899

>  <SCORE.RESTR.CAVITY>
0.00674899

>  <SCORE.RESTR.norm>
0.000374944

>  <SCORE.SYSTEM>
0

>  <SCORE.SYSTEM.CONST>
0

>  <SCORE.SYSTEM.DIHEDRAL>
0

>  <SCORE.SYSTEM.SOLV>
0

>  <SCORE.SYSTEM.norm>
0

>  <SCORE.heavy>
18

>  <SCORE.norm>
-1.35262

>  <RMSD>
7.376

$$$$
lig.pdb
 OpenBabel11021811503D
libRbt.so/2013.1/901 2013/11/27
 18 19  0  0  0  0  0  0  0  0999 V2000
   -4.9557   12.9410    5.4257 C   0  0  0  0  0  0  0  0  0  0  0  0
   -8.4338   10.5976    2.9877 N   0  0  0  0  0  0  0  0  0  0  0  0
  -10.1848   15.9312    2.0257 C   0  0  0  0  0  0  0  0  0  0  0  0
  -15.1899   15.7840    3.8182 O   0  0  0  0  0  0  0  0  0  0  0  0
  -14.5138   16.5137    2.8036 C   0  0  0  0  0  0  0  0  0  0  0  0
  -13.0132   16.6244    3.1369 C   0  0  0  0  0  0  0  0  0  0  0  0
  -11.8156   12.6634    2.8462 C   0  0  0  0  0  0  0  0  0  0  0  0
  -13.1304   13.6794    3.3391 S   0  0  0  0  0  0  0  0  0  0  0  0
  -12.3967   15.2542    2.9615 C   0  0  0  0  0  0  0  0  0  0  0  0
  -11.1695   14.8679    2.4824 C   0  0  0  0  0  0  0  0  0  0  0  0
  -10.8966   13.5280    2.4355 N   0  0  0  0  0  0  0  0  0  0  0  0
   -9.5843   13.0124    1.9062 C   0  0  0  0  0  0  0  0  0  0  0  0
   -7.8433   11.8097    3.3449 C   0  0  0  0  0  0  0  0  0  0  0  0
   -6.7528   11.8175    4.1710 N   0  0  0  0  0  0  0  0  0  0  0  0
   -6.1681   12.9647    4.5257 C   0  0  0  0  0  0  0  0  0  0  0  0
   -6.6392   14.1339    4.0825 N   0  0  0  0  0  0  0  0  0  0  0  0
   -7.7157   14.2044    3.2570 C   0  0  0  0  0  0  0  0  0  0  0  0
   -8.3672   13.0365    2.8451 C   0  0  0  0  0  0  0  0  0  0  0  0
  5  4  1  0  0  0  0
  5  6  1  0  0  0  0
  7  8  2  0  0  0  0
  7 11  1  0  0  0  0
  8  9  1  0  0  0  0
  9 10  2  0  0  0  0
  9  6  1  0  0  0  0
 10  3  1  0  0  0  0
 11 12  1  0  0  0  0
 11 10  1  0  0  0  0
 12 18  1  0  0  0  0
 13  2  1  0  0  0  0
 13 14  2  0  0  0  0
 15 14  1  0  0  0  0
 15  1  1  0  0  0  0
 16 15  2  0  0  0  0
 17 18  2  0  0  0  0
 17 16  1  0  0  0  0
 18 13  1  0  0  0  0
M  END
>  <CHROM.1>
70.74152179,-36.51425789,-100.45363503,109.83506495,-10.20332986,13.87446706
3.26059914,-0.35827440,-0.16995614,0.09374385

>  <Name>
lig.pdb

>  <RI>
0

>  <Rbt.Current_Directory>
/home/itssahil/PROJECTS/Mol_Feturizer/New_Systems/rnas/4nyg

>  <Rbt.Executable>
rbdock ($Id: //depot/dev/client3/rdock/2013.1/src/exe/rbdock.cxx#4 $)

>  <Rbt.Library>
libRbt.so (2013.1, Build901 2013/11/27)

>  <Rbt.Parameter_File>
/export/apps/rDock/src/rDock_2013.1_src/data/scripts/dock_solv.prm

>  <Rbt.Receptor>
prm/pocket_docking_4.prm

>  <SCORE>
-22.5005

>  <SCORE.INTER>
-23.3825

>  <SCORE.INTER.CONST>
1

>  <SCORE.INTER.POLAR>
0

>  <SCORE.INTER.ROT>
4

>  <SCORE.INTER.SOLV>
11.6649

>  <SCORE.INTER.VDW>
-25.7433

>  <SCORE.INTER.norm>
-1.29903

>  <SCORE.INTRA>
0.88199

>  <SCORE.INTRA.DIHEDRAL>
1.17202

>  <SCORE.INTRA.DIHEDRAL.0>
3.20029

>  <SCORE.INTRA.POLAR>
0

>  <SCORE.INTRA.POLAR.0>
0

>  <SCORE.INTRA.REPUL>
0

>  <SCORE.INTRA.REPUL.0>
0

>  <SCORE.INTRA.SOLV>
0.67916

>  <SCORE.INTRA.SOLV.lig_0>
-19.3885

>  <SCORE.INTRA.VDW>
-0.0436013

>  <SCORE.INTRA.VDW.0>
-1.12705

>  <SCORE.INTRA.norm>
0.0489995

>  <SCORE.RESTR>
0

>  <SCORE.RESTR.CAVITY>
0

>  <SCORE.RESTR.norm>
0

>  <SCORE.SYSTEM>
0

>  <SCORE.SYSTEM.CONST>
0

>  <SCORE.SYSTEM.DIHEDRAL>
0

>  <SCORE.SYSTEM.SOLV>
0

>  <SCORE.SYSTEM.norm>
0

>  <SCORE.heavy>
18

>  <SCORE.norm>
-1.25003

>  <RMSD>
7.378

$$$$
lig.pdb
 OpenBabel11021811503D
libRbt.so/2013.1/901 2013/11/27
 18 19  0  0  0  0  0  0  0  0999 V2000
   -4.8961   13.0362    5.4464 C   0  0  0  0  0  0  0  0  0  0  0  0
   -8.2924   10.6448    2.9408 N   0  0  0  0  0  0  0  0  0  0  0  0
  -10.1919   15.9525    2.0606 C   0  0  0  0  0  0  0  0  0  0  0  0
  -15.0888   15.6383    4.0738 O   0  0  0  0  0  0  0  0  0  0  0  0
  -14.5540   16.4036    3.0026 C   0  0  0  0  0  0  0  0  0  0  0  0
  -13.0331   16.5779    3.1795 C   0  0  0  0  0  0  0  0  0  0  0  0
  -11.7477   12.6458    2.8712 C   0  0  0  0  0  0  0  0  0  0  0  0
  -13.0840   13.6303    3.3704 S   0  0  0  0  0  0  0  0  0  0  0  0
  -12.3864   15.2225    2.9977 C   0  0  0  0  0  0  0  0  0  0  0  0
  -11.1518   14.8656    2.5149 C   0  0  0  0  0  0  0  0  0  0  0  0
  -10.8491   13.5323    2.4623 N   0  0  0  0  0  0  0  0  0  0  0  0
   -9.5266   13.0484    1.9286 C   0  0  0  0  0  0  0  0  0  0  0  0
   -7.7441   11.8658    3.3328 C   0  0  0  0  0  0  0  0  0  0  0  0
   -6.6539   11.8877    4.1592 N   0  0  0  0  0  0  0  0  0  0  0  0
   -6.1092   13.0439    4.5470 C   0  0  0  0  0  0  0  0  0  0  0  0
   -6.6208   14.2083    4.1374 N   0  0  0  0  0  0  0  0  0  0  0  0
   -7.6996   14.2651    3.3139 C   0  0  0  0  0  0  0  0  0  0  0  0
   -8.3104   13.0876    2.8682 C   0  0  0  0  0  0  0  0  0  0  0  0
  5  4  1  0  0  0  0
  5  6  1  0  0  0  0
  7  8  2  0  0  0  0
  7 11  1  0  0  0  0
  8  9  1  0  0  0  0
  9 10  2  0  0  0  0
  9  6  1  0  0  0  0
 10  3  1  0  0  0  0
 11 12  1  0  0  0  0
 11 10  1  0  0  0  0
 12 18  1  0  0  0  0
 13  2  1  0  0  0  0
 13 14  2  0  0  0  0
 15 14  1  0  0  0  0
 15  1  1  0  0  0  0
 16 15  2  0  0  0  0
 17 18  2  0  0  0  0
 17 16  1  0  0  0  0
 18 13  1  0  0  0  0
M  END
>  <CHROM.1>
67.81952256,-30.30677720,-100.07040743,111.20932381,-10.15696780,13.87939129
3.30724651,-0.33471241,-0.16574450,0.13101348

>  <Name>
lig.pdb

>  <RI>
0

>  <Rbt.Current_Directory>
/home/itssahil/PROJECTS/Mol_Feturizer/New_Systems/rnas/4nyg

>  <Rbt.Executable>
rbdock ($Id: //depot/dev/client3/rdock/2013.1/src/exe/rbdock.cxx#4 $)

>  <Rbt.Library>
libRbt.so (2013.1, Build901 2013/11/27)

>  <Rbt.Parameter_File>
/export/apps/rDock/src/rDock_2013.1_src/data/scripts/dock_solv.prm

>  <Rbt.Receptor>
prm/pocket_docking_4.prm

>  <SCORE>
-22.4267

>  <SCORE.INTER>
-23.6351

>  <SCORE.INTER.CONST>
1

>  <SCORE.INTER.POLAR>
0

>  <SCORE.INTER.ROT>
4

>  <SCORE.INTER.SOLV>
11.6684

>  <SCORE.INTER.VDW>
-25.9128

>  <SCORE.INTER.norm>
-1.31306

>  <SCORE.INTRA>
1.20835

>  <SCORE.INTRA.DIHEDRAL>
1.40232

>  <SCORE.INTRA.DIHEDRAL.0>
3.20029

>  <SCORE.INTRA.POLAR>
0

>  <SCORE.INTRA.POLAR.0>
0

>  <SCORE.INTRA.REPUL>
0

>  <SCORE.INTRA.REPUL.0>
0

>  <SCORE.INTRA.SOLV>
0.68642

>  <SCORE.INTRA.SOLV.lig_0>
-19.3885

>  <SCORE.INTRA.VDW>
0.163982

>  <SCORE.INTRA.VDW.0>
-1.12705

>  <SCORE.INTRA.norm>
0.0671307

>  <SCORE.RESTR>
0

>  <SCORE.RESTR.CAVITY>
0

>  <SCORE.RESTR.norm>
0

>  <SCORE.SYSTEM>
0

>  <SCORE.SYSTEM.CONST>
0

>  <SCORE.SYSTEM.DIHEDRAL>
0

>  <SCORE.SYSTEM.SOLV>
0

>  <SCORE.SYSTEM.norm>
0

>  <SCORE.heavy>
18

>  <SCORE.norm>
-1.24593

>  <RMSD>
7.378

$$$$
lig.pdb
 OpenBabel11021811503D
libRbt.so/2013.1/901 2013/11/27
 18 19  0  0  0  0  0  0  0  0999 V2000
   -3.9550   17.4477    3.1300 C   0  0  0  0  0  0  0  0  0  0  0  0
   -7.8084   16.7057    0.2782 N   0  0  0  0  0  0  0  0  0  0  0  0
  -10.7706   12.4969    2.7155 C   0  0  0  0  0  0  0  0  0  0  0  0
  -14.4511   16.0606    4.0427 O   0  0  0  0  0  0  0  0  0  0  0  0
  -14.5785   14.8319    3.3406 C   0  0  0  0  0  0  0  0  0  0  0  0
  -13.3840   13.9111    3.6568 C   0  0  0  0  0  0  0  0  0  0  0  0
  -10.2356   16.1599    2.1604 C   0  0  0  0  0  0  0  0  0  0  0  0
  -11.8430   16.2805    2.7976 S   0  0  0  0  0  0  0  0  0  0  0  0
  -12.1399   14.5508    3.0813 C   0  0  0  0  0  0  0  0  0  0  0  0
  -10.9576   14.0034    2.6481 C   0  0  0  0  0  0  0  0  0  0  0  0
   -9.9956   14.8550    2.1779 N   0  0  0  0  0  0  0  0  0  0  0  0
   -8.6611   14.3450    1.7011 C   0  0  0  0  0  0  0  0  0  0  0  0
   -7.0341   16.2904    1.3614 C   0  0  0  0  0  0  0  0  0  0  0  0
   -5.9229   17.0052    1.7167 N   0  0  0  0  0  0  0  0  0  0  0  0
   -5.1664   16.6294    2.7513 C   0  0  0  0  0  0  0  0  0  0  0  0
   -5.4777   15.5417    3.4622 N   0  0  0  0  0  0  0  0  0  0  0  0
   -6.5672   14.7846    3.1706 C   0  0  0  0  0  0  0  0  0  0  0  0
   -7.4022   15.1308    2.1024 C   0  0  0  0  0  0  0  0  0  0  0  0
  5  4  1  0  0  0  0
  5  6  1  0  0  0  0
  7  8  2  0  0  0  0
  7 11  1  0  0  0  0
  8  9  1  0  0  0  0
  9 10  2  0  0  0  0
  9  6  1  0  0  0  0
 10  3  1  0  0  0  0
 11 12  1  0  0  0  0
 11 10  1  0  0  0  0
 12 18  1  0  0  0  0
 13  2  1  0  0  0  0
 13 14  2  0  0  0  0
 15 14  1  0  0  0  0
 15  1  1  0  0  0  0
 16 15  2  0  0  0  0
 17 18  2  0  0  0  0
 17 16  1  0  0  0  0
 18 13  1  0  0  0  0
M  END
>  <CHROM.1>
-66.40309549,27.11896885,41.01340406,-81.52913436,-9.47927348,15.45544675
2.60772367,0.19527360,0.09996705,-0.08103105

>  <Name>
lig.pdb

>  <RI>
0

>  <Rbt.Current_Directory>
/home/itssahil/PROJECTS/Mol_Feturizer/New_Systems/rnas/4nyg

>  <Rbt.Executable>
rbdock ($Id: //depot/dev/client3/rdock/2013.1/src/exe/rbdock.cxx#4 $)

>  <Rbt.Library>
libRbt.so (2013.1, Build901 2013/11/27)

>  <Rbt.Parameter_File>
/export/apps/rDock/src/rDock_2013.1_src/data/scripts/dock_solv.prm

>  <Rbt.Receptor>
prm/pocket_docking_3.prm

>  <SCORE>
-17.7042

>  <SCORE.INTER>
-19.2483

>  <SCORE.INTER.CONST>
1

>  <SCORE.INTER.POLAR>
0

>  <SCORE.INTER.ROT>
4

>  <SCORE.INTER.SOLV>
10.8504

>  <SCORE.INTER.VDW>
-22.7156

>  <SCORE.INTER.norm>
-1.06935

>  <SCORE.INTRA>
1.54383

>  <SCORE.INTRA.DIHEDRAL>
1.58031

>  <SCORE.INTRA.DIHEDRAL.0>
3.20029

>  <SCORE.INTRA.POLAR>
0

>  <SCORE.INTRA.POLAR.0>
0

>  <SCORE.INTRA.REPUL>
0

>  <SCORE.INTRA.REPUL.0>
0

>  <SCORE.INTRA.SOLV>
0.974426

>  <SCORE.INTRA.SOLV.lig_0>
-19.3885

>  <SCORE.INTRA.VDW>
0.266465

>  <SCORE.INTRA.VDW.0>
-1.12705

>  <SCORE.INTRA.norm>
0.0857684

>  <SCORE.RESTR>
0.000257041

>  <SCORE.RESTR.CAVITY>
0.000257041

>  <SCORE.RESTR.norm>
1.428e-05

>  <SCORE.SYSTEM>
0

>  <SCORE.SYSTEM.CONST>
0

>  <SCORE.SYSTEM.DIHEDRAL>
0

>  <SCORE.SYSTEM.SOLV>
0

>  <SCORE.SYSTEM.norm>
0

>  <SCORE.heavy>
18

>  <SCORE.norm>
-0.983566

>  <RMSD>
7.379

$$$$
lig.pdb
 OpenBabel11021811503D
libRbt.so/2013.1/901 2013/11/27
 18 19  0  0  0  0  0  0  0  0999 V2000
   -5.8237    8.9935    4.3466 C   0  0  0  0  0  0  0  0  0  0  0  0
   -9.0392    9.7625    0.7968 N   0  0  0  0  0  0  0  0  0  0  0  0
   -9.7335   15.4940    1.8104 C   0  0  0  0  0  0  0  0  0  0  0  0
  -14.4459   17.5526    3.4608 O   0  0  0  0  0  0  0  0  0  0  0  0
  -13.8985   16.3284    2.9911 C   0  0  0  0  0  0  0  0  0  0  0  0
  -12.3802   16.2886    3.2522 C   0  0  0  0  0  0  0  0  0  0  0  0
  -11.5173   12.2902    2.5621 C   0  0  0  0  0  0  0  0  0  0  0  0
  -12.6978   13.3515    3.2577 S   0  0  0  0  0  0  0  0  0  0  0  0
  -11.8883   14.8976    2.9185 C   0  0  0  0  0  0  0  0  0  0  0  0
  -10.7460   14.4675    2.2898 C   0  0  0  0  0  0  0  0  0  0  0  0
  -10.5804   13.1198    2.1211 N   0  0  0  0  0  0  0  0  0  0  0  0
   -9.3683   12.5593    1.4249 C   0  0  0  0  0  0  0  0  0  0  0  0
   -8.3090   10.2730    1.8699 C   0  0  0  0  0  0  0  0  0  0  0  0
   -7.4680    9.4531    2.5714 N   0  0  0  0  0  0  0  0  0  0  0  0
   -6.7563    9.9184    3.6014 C   0  0  0  0  0  0  0  0  0  0  0  0
   -6.8531   11.1984    3.9723 N   0  0  0  0  0  0  0  0  0  0  0  0
   -7.6645   12.0720    3.3214 C   0  0  0  0  0  0  0  0  0  0  0  0
   -8.4304   11.6458    2.2306 C   0  0  0  0  0  0  0  0  0  0  0  0
  5  4  1  0  0  0  0
  5  6  1  0  0  0  0
  7  8  2  0  0  0  0
  7 11  1  0  0  0  0
  8  9  1  0  0  0  0
  9 10  2  0  0  0  0
  9  6  1  0  0  0  0
 10  3  1  0  0  0  0
 11 12  1  0  0  0  0
 11 10  1  0  0  0  0
 12 18  1  0  0  0  0
 13  2  1  0  0  0  0
 13 14  2  0  0  0  0
 15 14  1  0  0  0  0
 15  1  1  0  0  0  0
 16 15  2  0  0  0  0
 17 18  2  0  0  0  0
 17 16  1  0  0  0  0
 18 13  1  0  0  0  0
M  END
>  <CHROM.1>
172.00664499,-39.67305676,-63.39104734,114.04450662,-10.10685947,12.85698492
2.76037793,-0.72969075,-0.30065672,0.32561813

>  <Name>
lig.pdb

>  <RI>
0

>  <Rbt.Current_Directory>
/home/itssahil/PROJECTS/Mol_Feturizer/New_Systems/rnas/4nyg

>  <Rbt.Executable>
rbdock ($Id: //depot/dev/client3/rdock/2013.1/src/exe/rbdock.cxx#4 $)

>  <Rbt.Library>
libRbt.so (2013.1, Build901 2013/11/27)

>  <Rbt.Parameter_File>
/export/apps/rDock/src/rDock_2013.1_src/data/scripts/dock_solv.prm

>  <Rbt.Receptor>
prm/pocket_docking_8.prm

>  <SCORE>
-25.5891

>  <SCORE.INTER>
-25.911

>  <SCORE.INTER.CONST>
1

>  <SCORE.INTER.POLAR>
0

>  <SCORE.INTER.ROT>
4

>  <SCORE.INTER.SOLV>
14.7659

>  <SCORE.INTER.VDW>
-28.4626

>  <SCORE.INTER.norm>
-1.4395

>  <SCORE.INTRA>
0.32198

>  <SCORE.INTRA.DIHEDRAL>
0.830471

>  <SCORE.INTRA.DIHEDRAL.0>
3.20029

>  <SCORE.INTRA.POLAR>
0

>  <SCORE.INTRA.POLAR.0>
0

>  <SCORE.INTRA.REPUL>
0

>  <SCORE.INTRA.REPUL.0>
0

>  <SCORE.INTRA.SOLV>
0.190154

>  <SCORE.INTRA.SOLV.lig_0>
-19.3885

>  <SCORE.INTRA.VDW>
-0.188333

>  <SCORE.INTRA.VDW.0>
-1.12705

>  <SCORE.INTRA.norm>
0.0178878

>  <SCORE.RESTR>
0

>  <SCORE.RESTR.CAVITY>
0

>  <SCORE.RESTR.norm>
0

>  <SCORE.SYSTEM>
0

>  <SCORE.SYSTEM.CONST>
0

>  <SCORE.SYSTEM.DIHEDRAL>
0

>  <SCORE.SYSTEM.SOLV>
0

>  <SCORE.SYSTEM.norm>
0

>  <SCORE.heavy>
18

>  <SCORE.norm>
-1.42161

>  <RMSD>
7.379

$$$$
lig.pdb
 OpenBabel11021811503D
libRbt.so/2013.1/901 2013/11/27
 18 19  0  0  0  0  0  0  0  0999 V2000
   -4.9194   13.0385    5.4665 C   0  0  0  0  0  0  0  0  0  0  0  0
   -8.3591   10.6410    3.0266 N   0  0  0  0  0  0  0  0  0  0  0  0
  -10.1823   15.9457    2.0813 C   0  0  0  0  0  0  0  0  0  0  0  0
  -15.1757   15.7509    3.9498 O   0  0  0  0  0  0  0  0  0  0  0  0
  -14.5327   16.4485    2.8920 C   0  0  0  0  0  0  0  0  0  0  0  0
  -13.0260   16.5881    3.1840 C   0  0  0  0  0  0  0  0  0  0  0  0
  -11.7714   12.6473    2.8606 C   0  0  0  0  0  0  0  0  0  0  0  0
  -13.1029   13.6400    3.3565 S   0  0  0  0  0  0  0  0  0  0  0  0
  -12.3894   15.2285    2.9984 C   0  0  0  0  0  0  0  0  0  0  0  0
  -11.1544   14.8642    2.5221 C   0  0  0  0  0  0  0  0  0  0  0  0
  -10.8625   13.5287    2.4635 N   0  0  0  0  0  0  0  0  0  0  0  0
   -9.5404   13.0369    1.9361 C   0  0  0  0  0  0  0  0  0  0  0  0
   -7.7863   11.8620    3.3819 C   0  0  0  0  0  0  0  0  0  0  0  0
   -6.6979   11.8871    4.2105 N   0  0  0  0  0  0  0  0  0  0  0  0
   -6.1300   13.0432    4.5636 C   0  0  0  0  0  0  0  0  0  0  0  0
   -6.6161   14.2046    4.1163 N   0  0  0  0  0  0  0  0  0  0  0  0
   -7.6916   14.2581    3.2882 C   0  0  0  0  0  0  0  0  0  0  0  0
   -8.3259   13.0802    2.8777 C   0  0  0  0  0  0  0  0  0  0  0  0
  5  4  1  0  0  0  0
  5  6  1  0  0  0  0
  7  8  2  0  0  0  0
  7 11  1  0  0  0  0
  8  9  1  0  0  0  0
  9 10  2  0  0  0  0
  9  6  1  0  0  0  0
 10  3  1  0  0  0  0
 11 12  1  0  0  0  0
 11 10  1  0  0  0  0
 12 18  1  0  0  0  0
 13  2  1  0  0  0  0
 13 14  2  0  0  0  0
 15 14  1  0  0  0  0
 15  1  1  0  0  0  0
 16 15  2  0  0  0  0
 17 18  2  0  0  0  0
 17 16  1  0  0  0  0
 18 13  1  0  0  0  0
M  END
>  <CHROM.1>
72.70150277,-34.46616422,-100.98403725,109.51508403,-10.17558650,13.88828056
3.30329246,-0.34064377,-0.16963042,0.11135697

>  <Name>
lig.pdb

>  <RI>
0

>  <Rbt.Current_Directory>
/home/itssahil/PROJECTS/Mol_Feturizer/New_Systems/rnas/4nyg

>  <Rbt.Executable>
rbdock ($Id: //depot/dev/client3/rdock/2013.1/src/exe/rbdock.cxx#4 $)

>  <Rbt.Library>
libRbt.so (2013.1, Build901 2013/11/27)

>  <Rbt.Parameter_File>
/export/apps/rDock/src/rDock_2013.1_src/data/scripts/dock_solv.prm

>  <Rbt.Receptor>
prm/pocket_docking_4.prm

>  <SCORE>
-22.585

>  <SCORE.INTER>
-23.6216

>  <SCORE.INTER.CONST>
1

>  <SCORE.INTER.POLAR>
0

>  <SCORE.INTER.ROT>
4

>  <SCORE.INTER.SOLV>
11.7821

>  <SCORE.INTER.VDW>
-25.9418

>  <SCORE.INTER.norm>
-1.31231

>  <SCORE.INTRA>
1.03659

>  <SCORE.INTRA.DIHEDRAL>
1.47397

>  <SCORE.INTRA.DIHEDRAL.0>
3.20029

>  <SCORE.INTRA.POLAR>
0

>  <SCORE.INTRA.POLAR.0>
0

>  <SCORE.INTRA.REPUL>
0

>  <SCORE.INTRA.REPUL.0>
0

>  <SCORE.INTRA.SOLV>
0.670782

>  <SCORE.INTRA.SOLV.lig_0>
-19.3885

>  <SCORE.INTRA.VDW>
-0.0357812

>  <SCORE.INTRA.VDW.0>
-1.12705

>  <SCORE.INTRA.norm>
0.0575886

>  <SCORE.RESTR>
0

>  <SCORE.RESTR.CAVITY>
0

>  <SCORE.RESTR.norm>
0

>  <SCORE.SYSTEM>
0

>  <SCORE.SYSTEM.CONST>
0

>  <SCORE.SYSTEM.DIHEDRAL>
0

>  <SCORE.SYSTEM.SOLV>
0

>  <SCORE.SYSTEM.norm>
0

>  <SCORE.heavy>
18

>  <SCORE.norm>
-1.25472

>  <RMSD>
7.381

$$$$
lig.pdb
 OpenBabel11021811503D
libRbt.so/2013.1/901 2013/11/27
 18 19  0  0  0  0  0  0  0  0999 V2000
   -4.9334   12.8945    5.4876 C   0  0  0  0  0  0  0  0  0  0  0  0
   -8.4426   10.6426    3.0083 N   0  0  0  0  0  0  0  0  0  0  0  0
  -10.1887   15.9992    2.0881 C   0  0  0  0  0  0  0  0  0  0  0  0
  -15.1774   15.7673    3.9135 O   0  0  0  0  0  0  0  0  0  0  0  0
  -14.5178   16.5146    2.9008 C   0  0  0  0  0  0  0  0  0  0  0  0
  -13.0173   16.6452    3.2268 C   0  0  0  0  0  0  0  0  0  0  0  0
  -11.7630   12.7039    2.9092 C   0  0  0  0  0  0  0  0  0  0  0  0
  -13.0885   13.6981    3.4178 S   0  0  0  0  0  0  0  0  0  0  0  0
  -12.3819   15.2851    3.0404 C   0  0  0  0  0  0  0  0  0  0  0  0
  -11.1532   14.9193    2.5489 C   0  0  0  0  0  0  0  0  0  0  0  0
  -10.8607   13.5838    2.4941 N   0  0  0  0  0  0  0  0  0  0  0  0
   -9.5456   13.0903    1.9512 C   0  0  0  0  0  0  0  0  0  0  0  0
   -7.8321   11.8397    3.3821 C   0  0  0  0  0  0  0  0  0  0  0  0
   -6.7450   11.8182    4.2125 N   0  0  0  0  0  0  0  0  0  0  0  0
   -6.1415   12.9506    4.5832 C   0  0  0  0  0  0  0  0  0  0  0  0
   -6.5899   14.1332    4.1521 N   0  0  0  0  0  0  0  0  0  0  0  0
   -7.6616   14.2326    3.3234 C   0  0  0  0  0  0  0  0  0  0  0  0
   -8.3320   13.0815    2.8950 C   0  0  0  0  0  0  0  0  0  0  0  0
  5  4  1  0  0  0  0
  5  6  1  0  0  0  0
  7  8  2  0  0  0  0
  7 11  1  0  0  0  0
  8  9  1  0  0  0  0
  9 10  2  0  0  0  0
  9  6  1  0  0  0  0
 10  3  1  0  0  0  0
 11 12  1  0  0  0  0
 11 10  1  0  0  0  0
 12 18  1  0  0  0  0
 13  2  1  0  0  0  0
 13 14  2  0  0  0  0
 15 14  1  0  0  0  0
 15  1  1  0  0  0  0
 16 15  2  0  0  0  0
 17 18  2  0  0  0  0
 17 16  1  0  0  0  0
 18 13  1  0  0  0  0
M  END
>  <CHROM.1>
70.63750985,-36.73711457,-98.29456086,108.01737073,-10.18020407,13.89763580
3.32543087,-0.36095838,-0.16371420,0.08826180

>  <Name>
lig.pdb

>  <RI>
0

>  <Rbt.Current_Directory>
/home/itssahil/PROJECTS/Mol_Feturizer/New_Systems/rnas/4nyg

>  <Rbt.Executable>
rbdock ($Id: //depot/dev/client3/rdock/2013.1/src/exe/rbdock.cxx#4 $)

>  <Rbt.Library>
libRbt.so (2013.1, Build901 2013/11/27)

>  <Rbt.Parameter_File>
/export/apps/rDock/src/rDock_2013.1_src/data/scripts/dock_solv.prm

>  <Rbt.Receptor>
prm/pocket_docking_5.prm

>  <SCORE>
-22.5701

>  <SCORE.INTER>
-23.3646

>  <SCORE.INTER.CONST>
1

>  <SCORE.INTER.POLAR>
0

>  <SCORE.INTER.ROT>
4

>  <SCORE.INTER.SOLV>
11.7587

>  <SCORE.INTER.VDW>
-25.7627

>  <SCORE.INTER.norm>
-1.29804

>  <SCORE.INTRA>
0.794567

>  <SCORE.INTRA.DIHEDRAL>
1.14595

>  <SCORE.INTRA.DIHEDRAL.0>
3.20029

>  <SCORE.INTRA.POLAR>
0

>  <SCORE.INTRA.POLAR.0>
0

>  <SCORE.INTRA.REPUL>
0

>  <SCORE.INTRA.REPUL.0>
0

>  <SCORE.INTRA.SOLV>
0.683782

>  <SCORE.INTRA.SOLV.lig_0>
-19.3885

>  <SCORE.INTRA.VDW>
-0.120297

>  <SCORE.INTRA.VDW.0>
-1.12705

>  <SCORE.INTRA.norm>
0.0441426

>  <SCORE.RESTR>
0

>  <SCORE.RESTR.CAVITY>
0

>  <SCORE.RESTR.norm>
0

>  <SCORE.SYSTEM>
0

>  <SCORE.SYSTEM.CONST>
0

>  <SCORE.SYSTEM.DIHEDRAL>
0

>  <SCORE.SYSTEM.SOLV>
0

>  <SCORE.SYSTEM.norm>
0

>  <SCORE.heavy>
18

>  <SCORE.norm>
-1.25389

>  <RMSD>
7.382

$$$$
lig.pdb
 OpenBabel11021811503D
libRbt.so/2013.1/901 2013/11/27
 18 19  0  0  0  0  0  0  0  0999 V2000
   -3.5651   14.5066    0.5978 C   0  0  0  0  0  0  0  0  0  0  0  0
   -6.9901   11.8007    2.7144 N   0  0  0  0  0  0  0  0  0  0  0  0
  -11.7436   12.1943    2.4701 C   0  0  0  0  0  0  0  0  0  0  0  0
  -15.4673   15.8358    3.9755 O   0  0  0  0  0  0  0  0  0  0  0  0
  -14.2747   15.7576    3.2070 C   0  0  0  0  0  0  0  0  0  0  0  0
  -13.4442   14.5321    3.6353 C   0  0  0  0  0  0  0  0  0  0  0  0
   -9.7867   15.3234    1.8449 C   0  0  0  0  0  0  0  0  0  0  0  0
  -11.1385   16.0778    2.6244 S   0  0  0  0  0  0  0  0  0  0  0  0
  -12.1008   14.6178    2.9451 C   0  0  0  0  0  0  0  0  0  0  0  0
  -11.2938   13.6444    2.4101 C   0  0  0  0  0  0  0  0  0  0  0  0
  -10.1090   14.0363    1.8490 N   0  0  0  0  0  0  0  0  0  0  0  0
   -9.1524   13.0353    1.2566 C   0  0  0  0  0  0  0  0  0  0  0  0
   -6.6644   12.8126    1.8115 C   0  0  0  0  0  0  0  0  0  0  0  0
   -5.3565   13.1751    1.6390 N   0  0  0  0  0  0  0  0  0  0  0  0
   -5.0187   14.1394    0.7789 C   0  0  0  0  0  0  0  0  0  0  0  0
   -5.9544   14.7755    0.0681 N   0  0  0  0  0  0  0  0  0  0  0  0
   -7.2724   14.4678    0.1837 C   0  0  0  0  0  0  0  0  0  0  0  0
   -7.6881   13.4622    1.0635 C   0  0  0  0  0  0  0  0  0  0  0  0
  5  4  1  0  0  0  0
  5  6  1  0  0  0  0
  7  8  2  0  0  0  0
  7 11  1  0  0  0  0
  8  9  1  0  0  0  0
  9 10  2  0  0  0  0
  9  6  1  0  0  0  0
 10  3  1  0  0  0  0
 11 12  1  0  0  0  0
 11 10  1  0  0  0  0
 12 18  1  0  0  0  0
 13  2  1  0  0  0  0
 13 14  2  0  0  0  0
 15 14  1  0  0  0  0
 15  1  1  0  0  0  0
 16 15  2  0  0  0  0
 17 18  2  0  0  0  0
 17 16  1  0  0  0  0
 18 13  1  0  0  0  0
M  END
>  <CHROM.1>
-171.35329615,37.52299470,18.29720310,114.75834893,-9.47511166,14.27245848
2.02006480,-0.11710715,0.30518296,-0.17974602

>  <Name>
lig.pdb

>  <RI>
0

>  <Rbt.Current_Directory>
/home/itssahil/PROJECTS/Mol_Feturizer/New_Systems/rnas/4nyg

>  <Rbt.Executable>
rbdock ($Id: //depot/dev/client3/rdock/2013.1/src/exe/rbdock.cxx#4 $)

>  <Rbt.Library>
libRbt.so (2013.1, Build901 2013/11/27)

>  <Rbt.Parameter_File>
/export/apps/rDock/src/rDock_2013.1_src/data/scripts/dock_solv.prm

>  <Rbt.Receptor>
prm/pocket_docking_7.prm

>  <SCORE>
-19.7501

>  <SCORE.INTER>
-20.7327

>  <SCORE.INTER.CONST>
1

>  <SCORE.INTER.POLAR>
0

>  <SCORE.INTER.ROT>
4

>  <SCORE.INTER.SOLV>
10.8448

>  <SCORE.INTER.VDW>
-23.7034

>  <SCORE.INTER.norm>
-1.15182

>  <SCORE.INTRA>
0.982642

>  <SCORE.INTRA.DIHEDRAL>
0.983472

>  <SCORE.INTRA.DIHEDRAL.0>
3.20029

>  <SCORE.INTRA.POLAR>
0

>  <SCORE.INTRA.POLAR.0>
0

>  <SCORE.INTRA.REPUL>
0

>  <SCORE.INTRA.REPUL.0>
0

>  <SCORE.INTRA.SOLV>
0.0841334

>  <SCORE.INTRA.SOLV.lig_0>
-19.3885

>  <SCORE.INTRA.VDW>
0.448839

>  <SCORE.INTRA.VDW.0>
-1.12705

>  <SCORE.INTRA.norm>
0.0545912

>  <SCORE.RESTR>
0

>  <SCORE.RESTR.CAVITY>
0

>  <SCORE.RESTR.norm>
0

>  <SCORE.SYSTEM>
0

>  <SCORE.SYSTEM.CONST>
0

>  <SCORE.SYSTEM.DIHEDRAL>
0

>  <SCORE.SYSTEM.SOLV>
0

>  <SCORE.SYSTEM.norm>
0

>  <SCORE.heavy>
18

>  <SCORE.norm>
-1.09723

>  <RMSD>
7.384

$$$$
lig.pdb
 OpenBabel11021811503D
libRbt.so/2013.1/901 2013/11/27
 18 19  0  0  0  0  0  0  0  0999 V2000
   -5.8086    8.9229    4.3479 C   0  0  0  0  0  0  0  0  0  0  0  0
   -8.9027    9.6937    0.6921 N   0  0  0  0  0  0  0  0  0  0  0  0
   -9.6953   15.3948    1.7628 C   0  0  0  0  0  0  0  0  0  0  0  0
  -14.3857   17.5059    3.4322 O   0  0  0  0  0  0  0  0  0  0  0  0
  -13.8524   16.2767    2.9592 C   0  0  0  0  0  0  0  0  0  0  0  0
  -12.3315   16.2269    3.2026 C   0  0  0  0  0  0  0  0  0  0  0  0
  -11.5127   12.2151    2.5366 C   0  0  0  0  0  0  0  0  0  0  0  0
  -12.6808   13.2935    3.2269 S   0  0  0  0  0  0  0  0  0  0  0  0
  -11.8551   14.8286    2.8770 C   0  0  0  0  0  0  0  0  0  0  0  0
  -10.7183   14.3822    2.2498 C   0  0  0  0  0  0  0  0  0  0  0  0
  -10.5674   13.0319    2.0893 N   0  0  0  0  0  0  0  0  0  0  0  0
   -9.3623   12.4540    1.3952 C   0  0  0  0  0  0  0  0  0  0  0  0
   -8.2368   10.1939    1.8109 C   0  0  0  0  0  0  0  0  0  0  0  0
   -7.3949    9.3820    2.5206 N   0  0  0  0  0  0  0  0  0  0  0  0
   -6.7441    9.8379    3.5941 C   0  0  0  0  0  0  0  0  0  0  0  0
   -6.9041   11.1004    4.0014 N   0  0  0  0  0  0  0  0  0  0  0  0
   -7.7205   11.9653    3.3453 C   0  0  0  0  0  0  0  0  0  0  0  0
   -8.4244   11.5485    2.2100 C   0  0  0  0  0  0  0  0  0  0  0  0
  5  4  1  0  0  0  0
  5  6  1  0  0  0  0
  7  8  2  0  0  0  0
  7 11  1  0  0  0  0
  8  9  1  0  0  0  0
  9 10  2  0  0  0  0
  9  6  1  0  0  0  0
 10  3  1  0  0  0  0
 11 12  1  0  0  0  0
 11 10  1  0  0  0  0
 12 18  1  0  0  0  0
 13  2  1  0  0  0  0
 13 14  2  0  0  0  0
 15 14  1  0  0  0  0
 15  1  1  0  0  0  0
 16 15  2  0  0  0  0
 17 18  2  0  0  0  0
 17 16  1  0  0  0  0
 18 13  1  0  0  0  0
M  END
>  <CHROM.1>
171.57093583,-39.00274968,-64.08605140,118.63269418,-10.07911930,12.78038439
2.73003234,-0.70654320,-0.36927479,0.40560772

>  <Name>
lig.pdb

>  <RI>
0

>  <Rbt.Current_Directory>
/home/itssahil/PROJECTS/Mol_Feturizer/New_Systems/rnas/4nyg

>  <Rbt.Executable>
rbdock ($Id: //depot/dev/client3/rdock/2013.1/src/exe/rbdock.cxx#4 $)

>  <Rbt.Library>
libRbt.so (2013.1, Build901 2013/11/27)

>  <Rbt.Parameter_File>
/export/apps/rDock/src/rDock_2013.1_src/data/scripts/dock_solv.prm

>  <Rbt.Receptor>
prm/pocket_docking_6.prm

>  <SCORE>
-25.6773

>  <SCORE.INTER>
-26.0259

>  <SCORE.INTER.CONST>
1

>  <SCORE.INTER.POLAR>
0

>  <SCORE.INTER.ROT>
4

>  <SCORE.INTER.SOLV>
15.2174

>  <SCORE.INTER.VDW>
-28.6897

>  <SCORE.INTER.norm>
-1.44588

>  <SCORE.INTRA>
0.348634

>  <SCORE.INTRA.DIHEDRAL>
0.896059

>  <SCORE.INTRA.DIHEDRAL.0>
3.20029

>  <SCORE.INTRA.POLAR>
0

>  <SCORE.INTRA.POLAR.0>
0

>  <SCORE.INTRA.REPUL>
0

>  <SCORE.INTRA.REPUL.0>
0

>  <SCORE.INTRA.SOLV>
0.147715

>  <SCORE.INTRA.SOLV.lig_0>
-19.3885

>  <SCORE.INTRA.VDW>
-0.173253

>  <SCORE.INTRA.VDW.0>
-1.12705

>  <SCORE.INTRA.norm>
0.0193686

>  <SCORE.RESTR>
0

>  <SCORE.RESTR.CAVITY>
0

>  <SCORE.RESTR.norm>
0

>  <SCORE.SYSTEM>
0

>  <SCORE.SYSTEM.CONST>
0

>  <SCORE.SYSTEM.DIHEDRAL>
0

>  <SCORE.SYSTEM.SOLV>
0

>  <SCORE.SYSTEM.norm>
0

>  <SCORE.heavy>
18

>  <SCORE.norm>
-1.42651

>  <RMSD>
7.387

$$$$
lig.pdb
 OpenBabel11021811503D
libRbt.so/2013.1/901 2013/11/27
 18 19  0  0  0  0  0  0  0  0999 V2000
   -5.7166    8.7906    4.6006 C   0  0  0  0  0  0  0  0  0  0  0  0
   -8.1623    9.4663    0.4660 N   0  0  0  0  0  0  0  0  0  0  0  0
   -9.4814   14.8518    1.5949 C   0  0  0  0  0  0  0  0  0  0  0  0
  -13.9056   17.5103    3.2644 O   0  0  0  0  0  0  0  0  0  0  0  0
  -13.5262   16.1921    2.8934 C   0  0  0  0  0  0  0  0  0  0  0  0
  -11.9987   16.0244    3.0103 C   0  0  0  0  0  0  0  0  0  0  0  0
  -11.5999   11.9201    2.5587 C   0  0  0  0  0  0  0  0  0  0  0  0
  -12.6428   13.1475    3.1990 S   0  0  0  0  0  0  0  0  0  0  0  0
  -11.6711   14.5693    2.7579 C   0  0  0  0  0  0  0  0  0  0  0  0
  -10.5945   13.9764    2.1460 C   0  0  0  0  0  0  0  0  0  0  0  0
  -10.5834   12.6110    2.0587 N   0  0  0  0  0  0  0  0  0  0  0  0
   -9.4532   11.8769    1.3867 C   0  0  0  0  0  0  0  0  0  0  0  0
   -7.8729    9.8993    1.7599 C   0  0  0  0  0  0  0  0  0  0  0  0
   -6.9960    9.1898    2.5342 N   0  0  0  0  0  0  0  0  0  0  0  0
   -6.7008    9.5850    3.7754 C   0  0  0  0  0  0  0  0  0  0  0  0
   -7.2597   10.6838    4.2907 N   0  0  0  0  0  0  0  0  0  0  0  0
   -8.1364   11.4403    3.5805 C   0  0  0  0  0  0  0  0  0  0  0  0
   -8.4806   11.0814    2.2726 C   0  0  0  0  0  0  0  0  0  0  0  0
  5  4  1  0  0  0  0
  5  6  1  0  0  0  0
  7  8  2  0  0  0  0
  7 11  1  0  0  0  0
  8  9  1  0  0  0  0
  9 10  2  0  0  0  0
  9  6  1  0  0  0  0
 10  3  1  0  0  0  0
 11 12  1  0  0  0  0
 11 10  1  0  0  0  0
 12 18  1  0  0  0  0
 13  2  1  0  0  0  0
 13 14  2  0  0  0  0
 15 14  1  0  0  0  0
 15  1  1  0  0  0  0
 16 15  2  0  0  0  0
 17 18  2  0  0  0  0
 17 16  1  0  0  0  0
 18 13  1  0  0  0  0
M  END
>  <CHROM.1>
173.66927734,-34.36684481,-72.47621692,148.33058114,-9.95109549,12.49316379
2.72087885,-0.37898297,-0.72896316,1.01163306

>  <Name>
lig.pdb

>  <RI>
0

>  <Rbt.Current_Directory>
/home/itssahil/PROJECTS/Mol_Feturizer/New_Systems/rnas/4nyg

>  <Rbt.Executable>
rbdock ($Id: //depot/dev/client3/rdock/2013.1/src/exe/rbdock.cxx#4 $)

>  <Rbt.Library>
libRbt.so (2013.1, Build901 2013/11/27)

>  <Rbt.Parameter_File>
/export/apps/rDock/src/rDock_2013.1_src/data/scripts/dock_solv.prm

>  <Rbt.Receptor>
prm/pocket_docking_6.prm

>  <SCORE>
-26.03

>  <SCORE.INTER>
-26.4604

>  <SCORE.INTER.CONST>
1

>  <SCORE.INTER.POLAR>
0

>  <SCORE.INTER.ROT>
4

>  <SCORE.INTER.SOLV>
17.1678

>  <SCORE.INTER.VDW>
-29.6295

>  <SCORE.INTER.norm>
-1.47002

>  <SCORE.INTRA>
0.430396

>  <SCORE.INTRA.DIHEDRAL>
1.06161

>  <SCORE.INTRA.DIHEDRAL.0>
3.20029

>  <SCORE.INTRA.POLAR>
0

>  <SCORE.INTRA.POLAR.0>
0

>  <SCORE.INTRA.REPUL>
0

>  <SCORE.INTRA.REPUL.0>
0

>  <SCORE.INTRA.SOLV>
-0.0363297

>  <SCORE.INTRA.SOLV.lig_0>
-19.3885

>  <SCORE.INTRA.VDW>
-0.0822453

>  <SCORE.INTRA.VDW.0>
-1.12705

>  <SCORE.INTRA.norm>
0.0239109

>  <SCORE.RESTR>
0

>  <SCORE.RESTR.CAVITY>
0

>  <SCORE.RESTR.norm>
0

>  <SCORE.SYSTEM>
0

>  <SCORE.SYSTEM.CONST>
0

>  <SCORE.SYSTEM.DIHEDRAL>
0

>  <SCORE.SYSTEM.SOLV>
0

>  <SCORE.SYSTEM.norm>
0

>  <SCORE.heavy>
18

>  <SCORE.norm>
-1.44611

>  <RMSD>
7.391

$$$$
lig.pdb
 OpenBabel11021811503D
libRbt.so/2013.1/901 2013/11/27
 18 19  0  0  0  0  0  0  0  0999 V2000
   -5.4167    9.6261    4.7247 C   0  0  0  0  0  0  0  0  0  0  0  0
   -6.4333   12.2465    0.7710 N   0  0  0  0  0  0  0  0  0  0  0  0
   -9.6408   15.5337    1.8992 C   0  0  0  0  0  0  0  0  0  0  0  0
  -14.4855   17.4492    3.4368 O   0  0  0  0  0  0  0  0  0  0  0  0
  -13.9003   16.2494    2.9498 C   0  0  0  0  0  0  0  0  0  0  0  0
  -12.3795   16.2591    3.1986 C   0  0  0  0  0  0  0  0  0  0  0  0
  -11.4130   12.2888    2.4835 C   0  0  0  0  0  0  0  0  0  0  0  0
  -12.6491   13.3180    3.1291 S   0  0  0  0  0  0  0  0  0  0  0  0
  -11.8465   14.8826    2.8676 C   0  0  0  0  0  0  0  0  0  0  0  0
  -10.6627   14.4826    2.2987 C   0  0  0  0  0  0  0  0  0  0  0  0
  -10.4656   13.1413    2.1141 N   0  0  0  0  0  0  0  0  0  0  0  0
   -9.2061   12.6133    1.4793 C   0  0  0  0  0  0  0  0  0  0  0  0
   -6.8794   11.6610    1.9557 C   0  0  0  0  0  0  0  0  0  0  0  0
   -6.0056   10.9543    2.7360 N   0  0  0  0  0  0  0  0  0  0  0  0
   -6.4078   10.3862    3.8759 C   0  0  0  0  0  0  0  0  0  0  0  0
   -7.6773   10.4934    4.2787 N   0  0  0  0  0  0  0  0  0  0  0  0
   -8.6003   11.1819    3.5581 C   0  0  0  0  0  0  0  0  0  0  0  0
   -8.2383   11.8045    2.3584 C   0  0  0  0  0  0  0  0  0  0  0  0
  5  4  1  0  0  0  0
  5  6  1  0  0  0  0
  7  8  2  0  0  0  0
  7 11  1  0  0  0  0
  8  9  1  0  0  0  0
  9 10  2  0  0  0  0
  9  6  1  0  0  0  0
 10  3  1  0  0  0  0
 11 12  1  0  0  0  0
 11 10  1  0  0  0  0
 12 18  1  0  0  0  0
 13  2  1  0  0  0  0
 13 14  2  0  0  0  0
 15 14  1  0  0  0  0
 15  1  1  0  0  0  0
 16 15  2  0  0  0  0
 17 18  2  0  0  0  0
 17 16  1  0  0  0  0
 18 13  1  0  0  0  0
M  END
>  <CHROM.1>
171.10801556,-35.50694043,-68.86727182,-159.76365556,-9.83205607,13.10647334
2.81947193,0.52076983,-0.40607980,2.50059578

>  <Name>
lig.pdb

>  <RI>
0

>  <Rbt.Current_Directory>
/home/itssahil/PROJECTS/Mol_Feturizer/New_Systems/rnas/4nyg

>  <Rbt.Executable>
rbdock ($Id: //depot/dev/client3/rdock/2013.1/src/exe/rbdock.cxx#4 $)

>  <Rbt.Library>
libRbt.so (2013.1, Build901 2013/11/27)

>  <Rbt.Parameter_File>
/export/apps/rDock/src/rDock_2013.1_src/data/scripts/dock_solv.prm

>  <Rbt.Receptor>
prm/pocket_docking_7.prm

>  <SCORE>
-22.5695

>  <SCORE.INTER>
-23.191

>  <SCORE.INTER.CONST>
1

>  <SCORE.INTER.POLAR>
0

>  <SCORE.INTER.ROT>
4

>  <SCORE.INTER.SOLV>
12.7697

>  <SCORE.INTER.VDW>
-25.9839

>  <SCORE.INTER.norm>
-1.28839

>  <SCORE.INTRA>
0.621435

>  <SCORE.INTRA.DIHEDRAL>
1.1368

>  <SCORE.INTRA.DIHEDRAL.0>
3.20029

>  <SCORE.INTRA.POLAR>
0

>  <SCORE.INTRA.POLAR.0>
0

>  <SCORE.INTRA.REPUL>
0

>  <SCORE.INTRA.REPUL.0>
0

>  <SCORE.INTRA.SOLV>
-0.0297747

>  <SCORE.INTRA.SOLV.lig_0>
-19.3885

>  <SCORE.INTRA.VDW>
0.0679243

>  <SCORE.INTRA.VDW.0>
-1.12705

>  <SCORE.INTRA.norm>
0.0345242

>  <SCORE.RESTR>
0

>  <SCORE.RESTR.CAVITY>
0

>  <SCORE.RESTR.norm>
0

>  <SCORE.SYSTEM>
0

>  <SCORE.SYSTEM.CONST>
0

>  <SCORE.SYSTEM.DIHEDRAL>
0

>  <SCORE.SYSTEM.SOLV>
0

>  <SCORE.SYSTEM.norm>
0

>  <SCORE.heavy>
18

>  <SCORE.norm>
-1.25386

>  <RMSD>
7.392

$$$$
lig.pdb
 OpenBabel11021811503D
libRbt.so/2013.1/901 2013/11/27
 18 19  0  0  0  0  0  0  0  0999 V2000
   -5.8605    8.9266    4.3221 C   0  0  0  0  0  0  0  0  0  0  0  0
   -8.9231    9.7853    0.6594 N   0  0  0  0  0  0  0  0  0  0  0  0
   -9.7116   15.4601    1.8904 C   0  0  0  0  0  0  0  0  0  0  0  0
  -14.4515   17.5051    3.4485 O   0  0  0  0  0  0  0  0  0  0  0  0
  -13.8982   16.2929    2.9551 C   0  0  0  0  0  0  0  0  0  0  0  0
  -12.3942   16.2213    3.2831 C   0  0  0  0  0  0  0  0  0  0  0  0
  -11.5417   12.2453    2.4627 C   0  0  0  0  0  0  0  0  0  0  0  0
  -12.7343   13.2891    3.1641 S   0  0  0  0  0  0  0  0  0  0  0  0
  -11.9032   14.8400    2.9099 C   0  0  0  0  0  0  0  0  0  0  0  0
  -10.7460   14.4246    2.2990 C   0  0  0  0  0  0  0  0  0  0  0  0
  -10.5857   13.0832    2.0825 N   0  0  0  0  0  0  0  0  0  0  0  0
   -9.3576   12.5396    1.4010 C   0  0  0  0  0  0  0  0  0  0  0  0
   -8.2589   10.2616    1.7897 C   0  0  0  0  0  0  0  0  0  0  0  0
   -7.4302    9.4300    2.4922 N   0  0  0  0  0  0  0  0  0  0  0  0
   -6.7813    9.8629    3.5764 C   0  0  0  0  0  0  0  0  0  0  0  0
   -6.9304   11.1207    4.0017 N   0  0  0  0  0  0  0  0  0  0  0  0
   -7.7334   12.0042    3.3536 C   0  0  0  0  0  0  0  0  0  0  0  0
   -8.4346   11.6120    2.2079 C   0  0  0  0  0  0  0  0  0  0  0  0
  5  4  1  0  0  0  0
  5  6  1  0  0  0  0
  7  8  2  0  0  0  0
  7 11  1  0  0  0  0
  8  9  1  0  0  0  0
  9 10  2  0  0  0  0
  9  6  1  0  0  0  0
 10  3  1  0  0  0  0
 11 12  1  0  0  0  0
 11 10  1  0  0  0  0
 12 18  1  0  0  0  0
 13  2  1  0  0  0  0
 13 14  2  0  0  0  0
 15 14  1  0  0  0  0
 15  1  1  0  0  0  0
 16 15  2  0  0  0  0
 17 18  2  0  0  0  0
 17 16  1  0  0  0  0
 18 13  1  0  0  0  0
M  END
>  <CHROM.1>
172.27981171,-40.68234810,-64.72529193,116.62663391,-10.11322487,12.81321185
2.72861426,-0.70448138,-0.36118170,0.40460535

>  <Name>
lig.pdb

>  <RI>
0

>  <Rbt.Current_Directory>
/home/itssahil/PROJECTS/Mol_Feturizer/New_Systems/rnas/4nyg

>  <Rbt.Executable>
rbdock ($Id: //depot/dev/client3/rdock/2013.1/src/exe/rbdock.cxx#4 $)

>  <Rbt.Library>
libRbt.so (2013.1, Build901 2013/11/27)

>  <Rbt.Parameter_File>
/export/apps/rDock/src/rDock_2013.1_src/data/scripts/dock_solv.prm

>  <Rbt.Receptor>
prm/pocket_docking_7.prm

>  <SCORE>
-25.6836

>  <SCORE.INTER>
-25.9342

>  <SCORE.INTER.CONST>
1

>  <SCORE.INTER.POLAR>
0

>  <SCORE.INTER.ROT>
4

>  <SCORE.INTER.SOLV>
15.1847

>  <SCORE.INTER.VDW>
-28.6177

>  <SCORE.INTER.norm>
-1.44079

>  <SCORE.INTRA>
0.250658

>  <SCORE.INTRA.DIHEDRAL>
0.74936

>  <SCORE.INTRA.DIHEDRAL.0>
3.20029

>  <SCORE.INTRA.POLAR>
0

>  <SCORE.INTRA.POLAR.0>
0

>  <SCORE.INTRA.REPUL>
0

>  <SCORE.INTRA.REPUL.0>
0

>  <SCORE.INTRA.SOLV>
0.166555

>  <SCORE.INTRA.SOLV.lig_0>
-19.3885

>  <SCORE.INTRA.VDW>
-0.2073

>  <SCORE.INTRA.VDW.0>
-1.12705

>  <SCORE.INTRA.norm>
0.0139254

>  <SCORE.RESTR>
0

>  <SCORE.RESTR.CAVITY>
0

>  <SCORE.RESTR.norm>
0

>  <SCORE.SYSTEM>
0

>  <SCORE.SYSTEM.CONST>
0

>  <SCORE.SYSTEM.DIHEDRAL>
0

>  <SCORE.SYSTEM.SOLV>
0

>  <SCORE.SYSTEM.norm>
0

>  <SCORE.heavy>
18

>  <SCORE.norm>
-1.42686

>  <RMSD>
7.393

$$$$
lig.pdb
 OpenBabel11021811503D
libRbt.so/2013.1/901 2013/11/27
 18 19  0  0  0  0  0  0  0  0999 V2000
   -5.7383    8.9840    4.8823 C   0  0  0  0  0  0  0  0  0  0  0  0
   -7.9961    9.3742    0.6065 N   0  0  0  0  0  0  0  0  0  0  0  0
   -9.3504   14.6425    1.5841 C   0  0  0  0  0  0  0  0  0  0  0  0
  -14.2346   15.8284    2.4929 O   0  0  0  0  0  0  0  0  0  0  0  0
  -13.2494   16.2100    3.4430 C   0  0  0  0  0  0  0  0  0  0  0  0
  -11.8387   16.0289    2.8498 C   0  0  0  0  0  0  0  0  0  0  0  0
  -11.7430   11.9001    2.4596 C   0  0  0  0  0  0  0  0  0  0  0  0
  -12.7179   13.2144    3.0307 S   0  0  0  0  0  0  0  0  0  0  0  0
  -11.6144   14.5492    2.6294 C   0  0  0  0  0  0  0  0  0  0  0  0
  -10.5572   13.8651    2.0824 C   0  0  0  0  0  0  0  0  0  0  0  0
  -10.6498   12.5020    2.0089 N   0  0  0  0  0  0  0  0  0  0  0  0
   -9.5471   11.6720    1.4061 C   0  0  0  0  0  0  0  0  0  0  0  0
   -7.8204    9.8509    1.9054 C   0  0  0  0  0  0  0  0  0  0  0  0
   -6.9290    9.2351    2.7410 N   0  0  0  0  0  0  0  0  0  0  0  0
   -6.7411    9.6739    3.9884 C   0  0  0  0  0  0  0  0  0  0  0  0
   -7.4242   10.7254    4.4499 N   0  0  0  0  0  0  0  0  0  0  0  0
   -8.3232   11.3890    3.6775 C   0  0  0  0  0  0  0  0  0  0  0  0
   -8.5592   10.9808    2.3600 C   0  0  0  0  0  0  0  0  0  0  0  0
  5  4  1  0  0  0  0
  5  6  1  0  0  0  0
  7  8  2  0  0  0  0
  7 11  1  0  0  0  0
  8  9  1  0  0  0  0
  9 10  2  0  0  0  0
  9  6  1  0  0  0  0
 10  3  1  0  0  0  0
 11 12  1  0  0  0  0
 11 10  1  0  0  0  0
 12 18  1  0  0  0  0
 13  2  1  0  0  0  0
 13 14  2  0  0  0  0
 15 14  1  0  0  0  0
 15  1  1  0  0  0  0
 16 15  2  0  0  0  0
 17 18  2  0  0  0  0
 17 16  1  0  0  0  0
 18 13  1  0  0  0  0
M  END
>  <CHROM.1>
-65.98983309,-2.46191204,-81.40056745,158.17933806,-9.97073548,12.36966820
2.72651326,-0.31744626,-0.69947307,1.01062034

>  <Name>
lig.pdb

>  <RI>
0

>  <Rbt.Current_Directory>
/home/itssahil/PROJECTS/Mol_Feturizer/New_Systems/rnas/4nyg

>  <Rbt.Executable>
rbdock ($Id: //depot/dev/client3/rdock/2013.1/src/exe/rbdock.cxx#4 $)

>  <Rbt.Library>
libRbt.so (2013.1, Build901 2013/11/27)

>  <Rbt.Parameter_File>
/export/apps/rDock/src/rDock_2013.1_src/data/scripts/dock_solv.prm

>  <Rbt.Receptor>
prm/pocket_docking_8.prm

>  <SCORE>
-24.6149

>  <SCORE.INTER>
-26.2922

>  <SCORE.INTER.CONST>
1

>  <SCORE.INTER.POLAR>
0

>  <SCORE.INTER.ROT>
4

>  <SCORE.INTER.SOLV>
16.7921

>  <SCORE.INTER.VDW>
-29.3922

>  <SCORE.INTER.norm>
-1.46068

>  <SCORE.INTRA>
1.67726

>  <SCORE.INTRA.DIHEDRAL>
2.67606

>  <SCORE.INTRA.DIHEDRAL.0>
3.20029

>  <SCORE.INTRA.POLAR>
0

>  <SCORE.INTRA.POLAR.0>
0

>  <SCORE.INTRA.REPUL>
0

>  <SCORE.INTRA.REPUL.0>
0

>  <SCORE.INTRA.SOLV>
0.388133

>  <SCORE.INTRA.SOLV.lig_0>
-19.3885

>  <SCORE.INTRA.VDW>
0.145162

>  <SCORE.INTRA.VDW.0>
-1.12705

>  <SCORE.INTRA.norm>
0.093181

>  <SCORE.RESTR>
0

>  <SCORE.RESTR.CAVITY>
0

>  <SCORE.RESTR.norm>
0

>  <SCORE.SYSTEM>
0

>  <SCORE.SYSTEM.CONST>
0

>  <SCORE.SYSTEM.DIHEDRAL>
0

>  <SCORE.SYSTEM.SOLV>
0

>  <SCORE.SYSTEM.norm>
0

>  <SCORE.heavy>
18

>  <SCORE.norm>
-1.3675

>  <RMSD>
7.394

$$$$
lig.pdb
 OpenBabel11021811503D
libRbt.so/2013.1/901 2013/11/27
 18 19  0  0  0  0  0  0  0  0999 V2000
   -4.1269   15.7931    0.4123 C   0  0  0  0  0  0  0  0  0  0  0  0
   -8.6365   14.7419   -1.0336 N   0  0  0  0  0  0  0  0  0  0  0  0
  -11.9078   12.3837    2.5506 C   0  0  0  0  0  0  0  0  0  0  0  0
  -14.1620   16.9000    4.1652 O   0  0  0  0  0  0  0  0  0  0  0  0
  -14.6877   15.7752    3.4743 C   0  0  0  0  0  0  0  0  0  0  0  0
  -13.8245   14.5288    3.7506 C   0  0  0  0  0  0  0  0  0  0  0  0
  -10.1908   15.6812    2.1145 C   0  0  0  0  0  0  0  0  0  0  0  0
  -11.6213   16.2930    2.8782 S   0  0  0  0  0  0  0  0  0  0  0  0
  -12.4724   14.7494    3.1090 C   0  0  0  0  0  0  0  0  0  0  0  0
  -11.5743   13.8661    2.5629 C   0  0  0  0  0  0  0  0  0  0  0  0
  -10.4087   14.3736    2.0571 N   0  0  0  0  0  0  0  0  0  0  0  0
   -9.3575   13.4771    1.4575 C   0  0  0  0  0  0  0  0  0  0  0  0
   -7.6636   14.6803   -0.0360 C   0  0  0  0  0  0  0  0  0  0  0  0
   -6.4261   15.2193   -0.2589 N   0  0  0  0  0  0  0  0  0  0  0  0
   -5.4783   15.1751    0.6811 C   0  0  0  0  0  0  0  0  0  0  0  0
   -5.7180   14.5986    1.8624 N   0  0  0  0  0  0  0  0  0  0  0  0
   -6.9233   14.0455    2.1566 C   0  0  0  0  0  0  0  0  0  0  0  0
   -7.9583   14.0662    1.2152 C   0  0  0  0  0  0  0  0  0  0  0  0
  5  4  1  0  0  0  0
  5  6  1  0  0  0  0
  7  8  2  0  0  0  0
  7 11  1  0  0  0  0
  8  9  1  0  0  0  0
  9 10  2  0  0  0  0
  9  6  1  0  0  0  0
 10  3  1  0  0  0  0
 11 12  1  0  0  0  0
 11 10  1  0  0  0  0
 12 18  1  0  0  0  0
 13  2  1  0  0  0  0
 13 14  2  0  0  0  0
 15 14  1  0  0  0  0
 15  1  1  0  0  0  0
 16 15  2  0  0  0  0
 17 18  2  0  0  0  0
 17 16  1  0  0  0  0
 18 13  1  0  0  0  0
M  END
>  <CHROM.1>
-67.21150329,31.36034566,13.00132627,-90.47585246,-9.80964899,14.92096233
1.93694845,-0.13208154,0.35221579,0.20250288

>  <Name>
lig.pdb

>  <RI>
0

>  <Rbt.Current_Directory>
/home/itssahil/PROJECTS/Mol_Feturizer/New_Systems/rnas/4nyg

>  <Rbt.Executable>
rbdock ($Id: //depot/dev/client3/rdock/2013.1/src/exe/rbdock.cxx#4 $)

>  <Rbt.Library>
libRbt.so (2013.1, Build901 2013/11/27)

>  <Rbt.Parameter_File>
/export/apps/rDock/src/rDock_2013.1_src/data/scripts/dock_solv.prm

>  <Rbt.Receptor>
prm/pocket_docking_5.prm

>  <SCORE>
-20.9406

>  <SCORE.INTER>
-22.4204

>  <SCORE.INTER.CONST>
1

>  <SCORE.INTER.POLAR>
0

>  <SCORE.INTER.ROT>
4

>  <SCORE.INTER.SOLV>
13.0902

>  <SCORE.INTER.VDW>
-25.577

>  <SCORE.INTER.norm>
-1.24558

>  <SCORE.INTRA>
1.47977

>  <SCORE.INTRA.DIHEDRAL>
1.33453

>  <SCORE.INTRA.DIHEDRAL.0>
3.20029

>  <SCORE.INTRA.POLAR>
0

>  <SCORE.INTRA.POLAR.0>
0

>  <SCORE.INTRA.REPUL>
0

>  <SCORE.INTRA.REPUL.0>
0

>  <SCORE.INTRA.SOLV>
0.782101

>  <SCORE.INTRA.SOLV.lig_0>
-19.3885

>  <SCORE.INTRA.VDW>
0.421452

>  <SCORE.INTRA.VDW.0>
-1.12705

>  <SCORE.INTRA.norm>
0.0822093

>  <SCORE.RESTR>
0

>  <SCORE.RESTR.CAVITY>
0

>  <SCORE.RESTR.norm>
0

>  <SCORE.SYSTEM>
0

>  <SCORE.SYSTEM.CONST>
0

>  <SCORE.SYSTEM.DIHEDRAL>
0

>  <SCORE.SYSTEM.SOLV>
0

>  <SCORE.SYSTEM.norm>
0

>  <SCORE.heavy>
18

>  <SCORE.norm>
-1.16337

>  <RMSD>
7.396

$$$$
lig.pdb
 OpenBabel11021811503D
libRbt.so/2013.1/901 2013/11/27
 18 19  0  0  0  0  0  0  0  0999 V2000
   -6.0379    8.5190    3.8083 C   0  0  0  0  0  0  0  0  0  0  0  0
   -9.0569    9.7246    0.2077 N   0  0  0  0  0  0  0  0  0  0  0  0
  -11.8488   11.7060    2.0653 C   0  0  0  0  0  0  0  0  0  0  0  0
  -14.0557   15.8942    2.4224 O   0  0  0  0  0  0  0  0  0  0  0  0
  -13.8967   15.3680    3.7326 C   0  0  0  0  0  0  0  0  0  0  0  0
  -13.3122   13.9436    3.6675 C   0  0  0  0  0  0  0  0  0  0  0  0
   -9.5966   14.6946    1.9827 C   0  0  0  0  0  0  0  0  0  0  0  0
  -10.8676   15.4199    2.9114 S   0  0  0  0  0  0  0  0  0  0  0  0
  -11.9675   14.0249    2.9794 C   0  0  0  0  0  0  0  0  0  0  0  0
  -11.2598   13.0929    2.2615 C   0  0  0  0  0  0  0  0  0  0  0  0
  -10.0429   13.4653    1.7588 N   0  0  0  0  0  0  0  0  0  0  0  0
   -9.1890   12.5024    0.9766 C   0  0  0  0  0  0  0  0  0  0  0  0
   -8.3273   10.1191    1.3291 C   0  0  0  0  0  0  0  0  0  0  0  0
   -7.5779    9.1995    2.0107 N   0  0  0  0  0  0  0  0  0  0  0  0
   -6.8688    9.5527    3.0860 C   0  0  0  0  0  0  0  0  0  0  0  0
   -6.8786   10.8154    3.5229 N   0  0  0  0  0  0  0  0  0  0  0  0
   -7.5962   11.7833    2.8957 C   0  0  0  0  0  0  0  0  0  0  0  0
   -8.3540   11.4766    1.7601 C   0  0  0  0  0  0  0  0  0  0  0  0
  5  4  1  0  0  0  0
  5  6  1  0  0  0  0
  7  8  2  0  0  0  0
  7 11  1  0  0  0  0
  8  9  1  0  0  0  0
  9 10  2  0  0  0  0
  9  6  1  0  0  0  0
 10  3  1  0  0  0  0
 11 12  1  0  0  0  0
 11 10  1  0  0  0  0
 12 18  1  0  0  0  0
 13  2  1  0  0  0  0
 13 14  2  0  0  0  0
 15 14  1  0  0  0  0
 15  1  1  0  0  0  0
 16 15  2  0  0  0  0
 17 18  2  0  0  0  0
 17 16  1  0  0  0  0
 18 13  1  0  0  0  0
M  END
>  <CHROM.1>
60.04654533,26.37877330,98.94102656,135.25754479,-9.94344680,12.53753744
2.45333368,-0.72035165,-0.31782615,0.42168241

>  <Name>
lig.pdb

>  <RI>
0

>  <Rbt.Current_Directory>
/home/itssahil/PROJECTS/Mol_Feturizer/New_Systems/rnas/4nyg

>  <Rbt.Executable>
rbdock ($Id: //depot/dev/client3/rdock/2013.1/src/exe/rbdock.cxx#4 $)

>  <Rbt.Library>
libRbt.so (2013.1, Build901 2013/11/27)

>  <Rbt.Parameter_File>
/export/apps/rDock/src/rDock_2013.1_src/data/scripts/dock_solv.prm

>  <Rbt.Receptor>
prm/blind_docking_80.prm

>  <SCORE>
-17.6399

>  <SCORE.INTER>
-19.7428

>  <SCORE.INTER.CONST>
1

>  <SCORE.INTER.POLAR>
0

>  <SCORE.INTER.ROT>
4

>  <SCORE.INTER.SOLV>
17.0317

>  <SCORE.INTER.VDW>
-25.1058

>  <SCORE.INTER.norm>
-1.09682

>  <SCORE.INTRA>
0.735581

>  <SCORE.INTRA.DIHEDRAL>
1.58942

>  <SCORE.INTRA.DIHEDRAL.0>
3.20029

>  <SCORE.INTRA.POLAR>
0

>  <SCORE.INTRA.POLAR.0>
0

>  <SCORE.INTRA.REPUL>
0

>  <SCORE.INTRA.REPUL.0>
0

>  <SCORE.INTRA.SOLV>
0.617902

>  <SCORE.INTRA.SOLV.lig_0>
-19.3885

>  <SCORE.INTRA.VDW>
-0.368077

>  <SCORE.INTRA.VDW.0>
-1.12705

>  <SCORE.INTRA.norm>
0.0408656

>  <SCORE.RESTR>
1.36735

>  <SCORE.RESTR.CAVITY>
1.36735

>  <SCORE.RESTR.norm>
0.0759636

>  <SCORE.SYSTEM>
0

>  <SCORE.SYSTEM.CONST>
0

>  <SCORE.SYSTEM.DIHEDRAL>
0

>  <SCORE.SYSTEM.SOLV>
0

>  <SCORE.SYSTEM.norm>
0

>  <SCORE.heavy>
18

>  <SCORE.norm>
-0.979994

>  <RMSD>
7.398

$$$$
lig.pdb
 OpenBabel11021811503D
libRbt.so/2013.1/901 2013/11/27
 18 19  0  0  0  0  0  0  0  0999 V2000
   -5.1747   10.8947    4.7091 C   0  0  0  0  0  0  0  0  0  0  0  0
   -8.6539   10.1154    1.4197 N   0  0  0  0  0  0  0  0  0  0  0  0
  -10.0736   15.7558    1.8867 C   0  0  0  0  0  0  0  0  0  0  0  0
  -14.9640   15.6324    3.9131 O   0  0  0  0  0  0  0  0  0  0  0  0
  -14.2675   16.4599    2.9916 C   0  0  0  0  0  0  0  0  0  0  0  0
  -12.7589   16.4554    3.3061 C   0  0  0  0  0  0  0  0  0  0  0  0
  -11.7598   12.4913    2.6017 C   0  0  0  0  0  0  0  0  0  0  0  0
  -12.9810   13.5096    3.2914 S   0  0  0  0  0  0  0  0  0  0  0  0
  -12.2188   15.0831    2.9693 C   0  0  0  0  0  0  0  0  0  0  0  0
  -11.0570   14.6941    2.3499 C   0  0  0  0  0  0  0  0  0  0  0  0
  -10.8460   13.3536    2.1750 N   0  0  0  0  0  0  0  0  0  0  0  0
   -9.6095   12.8370    1.4878 C   0  0  0  0  0  0  0  0  0  0  0  0
   -8.0141   11.0023    2.2853 C   0  0  0  0  0  0  0  0  0  0  0  0
   -6.9676   10.5682    3.0523 N   0  0  0  0  0  0  0  0  0  0  0  0
   -6.3372   11.3985    3.8872 C   0  0  0  0  0  0  0  0  0  0  0  0
   -6.7182   12.6747    3.9941 N   0  0  0  0  0  0  0  0  0  0  0  0
   -7.7462   13.1777    3.2624 C   0  0  0  0  0  0  0  0  0  0  0  0
   -8.4416   12.3588    2.3657 C   0  0  0  0  0  0  0  0  0  0  0  0
  5  4  1  0  0  0  0
  5  6  1  0  0  0  0
  7  8  2  0  0  0  0
  7 11  1  0  0  0  0
  8  9  1  0  0  0  0
  9 10  2  0  0  0  0
  9  6  1  0  0  0  0
 10  3  1  0  0  0  0
 11 12  1  0  0  0  0
 11 10  1  0  0  0  0
 12 18  1  0  0  0  0
 13  2  1  0  0  0  0
 13 14  2  0  0  0  0
 15 14  1  0  0  0  0
 15  1  1  0  0  0  0
 16 15  2  0  0  0  0
 17 18  2  0  0  0  0
 17 16  1  0  0  0  0
 18 13  1  0  0  0  0
M  END
>  <CHROM.1>
69.34407035,-41.26975691,-83.10637625,118.58044538,-10.18121875,13.30117496
2.92889940,-0.51832907,-0.19265081,0.28804774

>  <Name>
lig.pdb

>  <RI>
0

>  <Rbt.Current_Directory>
/home/itssahil/PROJECTS/Mol_Feturizer/New_Systems/rnas/4nyg

>  <Rbt.Executable>
rbdock ($Id: //depot/dev/client3/rdock/2013.1/src/exe/rbdock.cxx#4 $)

>  <Rbt.Library>
libRbt.so (2013.1, Build901 2013/11/27)

>  <Rbt.Parameter_File>
/export/apps/rDock/src/rDock_2013.1_src/data/scripts/dock_solv.prm

>  <Rbt.Receptor>
prm/pocket_docking_4.prm

>  <SCORE>
-23.0829

>  <SCORE.INTER>
-23.4404

>  <SCORE.INTER.CONST>
1

>  <SCORE.INTER.POLAR>
0

>  <SCORE.INTER.ROT>
4

>  <SCORE.INTER.SOLV>
11.4905

>  <SCORE.INTER.VDW>
-25.7238

>  <SCORE.INTER.norm>
-1.30225

>  <SCORE.INTRA>
0.352231

>  <SCORE.INTRA.DIHEDRAL>
0.769906

>  <SCORE.INTRA.DIHEDRAL.0>
3.20029

>  <SCORE.INTRA.POLAR>
0

>  <SCORE.INTRA.POLAR.0>
0

>  <SCORE.INTRA.REPUL>
0

>  <SCORE.INTRA.REPUL.0>
0

>  <SCORE.INTRA.SOLV>
0.566117

>  <SCORE.INTRA.SOLV.lig_0>
-19.3885

>  <SCORE.INTRA.VDW>
-0.31578

>  <SCORE.INTRA.VDW.0>
-1.12705

>  <SCORE.INTRA.norm>
0.0195684

>  <SCORE.RESTR>
0.00525175

>  <SCORE.RESTR.CAVITY>
0.00525175

>  <SCORE.RESTR.norm>
0.000291764

>  <SCORE.SYSTEM>
0

>  <SCORE.SYSTEM.CONST>
0

>  <SCORE.SYSTEM.DIHEDRAL>
0

>  <SCORE.SYSTEM.SOLV>
0

>  <SCORE.SYSTEM.norm>
0

>  <SCORE.heavy>
18

>  <SCORE.norm>
-1.28239

>  <RMSD>
7.399

$$$$
lig.pdb
 OpenBabel11021811503D
libRbt.so/2013.1/901 2013/11/27
 18 19  0  0  0  0  0  0  0  0999 V2000
   -5.1452   12.8134    6.2672 C   0  0  0  0  0  0  0  0  0  0  0  0
   -8.4248   10.8072    3.3089 N   0  0  0  0  0  0  0  0  0  0  0  0
  -10.2662   15.9520    2.2410 C   0  0  0  0  0  0  0  0  0  0  0  0
  -15.2298   16.5241    4.2499 O   0  0  0  0  0  0  0  0  0  0  0  0
  -14.3638   15.4358    3.9591 C   0  0  0  0  0  0  0  0  0  0  0  0
  -13.3067   15.8587    2.9205 C   0  0  0  0  0  0  0  0  0  0  0  0
  -11.1841   12.3281    2.4325 C   0  0  0  0  0  0  0  0  0  0  0  0
  -12.7570   12.9587    2.7965 S   0  0  0  0  0  0  0  0  0  0  0  0
  -12.3674   14.6913    2.7127 C   0  0  0  0  0  0  0  0  0  0  0  0
  -11.0285   14.6487    2.4120 C   0  0  0  0  0  0  0  0  0  0  0  0
  -10.4450   13.4187    2.2750 N   0  0  0  0  0  0  0  0  0  0  0  0
   -8.9868   13.2765    1.9263 C   0  0  0  0  0  0  0  0  0  0  0  0
   -7.7370   11.9484    3.7212 C   0  0  0  0  0  0  0  0  0  0  0  0
   -6.8277   11.8634    4.7399 N   0  0  0  0  0  0  0  0  0  0  0  0
   -6.1547   12.9412    5.1514 C   0  0  0  0  0  0  0  0  0  0  0  0
   -6.3580   14.1305    4.5773 N   0  0  0  0  0  0  0  0  0  0  0  0
   -7.2423   14.2910    3.5587 C   0  0  0  0  0  0  0  0  0  0  0  0
   -7.9727   13.1980    3.0790 C   0  0  0  0  0  0  0  0  0  0  0  0
  5  4  1  0  0  0  0
  5  6  1  0  0  0  0
  7  8  2  0  0  0  0
  7 11  1  0  0  0  0
  8  9  1  0  0  0  0
  9 10  2  0  0  0  0
  9  6  1  0  0  0  0
 10  3  1  0  0  0  0
 11 12  1  0  0  0  0
 11 10  1  0  0  0  0
 12 18  1  0  0  0  0
 13  2  1  0  0  0  0
 13 14  2  0  0  0  0
 15 14  1  0  0  0  0
 15  1  1  0  0  0  0
 16 15  2  0  0  0  0
 17 18  2  0  0  0  0
 17 16  1  0  0  0  0
 18 13  1  0  0  0  0
M  END
>  <CHROM.1>
176.68505029,32.49017988,-90.49233110,83.08974387,-10.02959056,13.71308897
3.43426517,-0.21942025,-0.30145968,0.40820015

>  <Name>
lig.pdb

>  <RI>
0

>  <Rbt.Current_Directory>
/home/itssahil/PROJECTS/Mol_Feturizer/New_Systems/rnas/4nyg

>  <Rbt.Executable>
rbdock ($Id: //depot/dev/client3/rdock/2013.1/src/exe/rbdock.cxx#4 $)

>  <Rbt.Library>
libRbt.so (2013.1, Build901 2013/11/27)

>  <Rbt.Parameter_File>
/export/apps/rDock/src/rDock_2013.1_src/data/scripts/dock_solv.prm

>  <Rbt.Receptor>
prm/pocket_docking_5.prm

>  <SCORE>
-21.7865

>  <SCORE.INTER>
-22.2423

>  <SCORE.INTER.CONST>
1

>  <SCORE.INTER.POLAR>
0

>  <SCORE.INTER.ROT>
4

>  <SCORE.INTER.SOLV>
12.6232

>  <SCORE.INTER.VDW>
-25.3026

>  <SCORE.INTER.norm>
-1.23569

>  <SCORE.INTRA>
0.455885

>  <SCORE.INTRA.DIHEDRAL>
1.0778

>  <SCORE.INTRA.DIHEDRAL.0>
3.20029

>  <SCORE.INTRA.POLAR>
0

>  <SCORE.INTRA.POLAR.0>
0

>  <SCORE.INTRA.REPUL>
0

>  <SCORE.INTRA.REPUL.0>
0

>  <SCORE.INTRA.SOLV>
0.488972

>  <SCORE.INTRA.SOLV.lig_0>
-19.3885

>  <SCORE.INTRA.VDW>
-0.327501

>  <SCORE.INTRA.VDW.0>
-1.12705

>  <SCORE.INTRA.norm>
0.025327

>  <SCORE.RESTR>
0

>  <SCORE.RESTR.CAVITY>
0

>  <SCORE.RESTR.norm>
0

>  <SCORE.SYSTEM>
0

>  <SCORE.SYSTEM.CONST>
0

>  <SCORE.SYSTEM.DIHEDRAL>
0

>  <SCORE.SYSTEM.SOLV>
0

>  <SCORE.SYSTEM.norm>
0

>  <SCORE.heavy>
18

>  <SCORE.norm>
-1.21036

>  <RMSD>
7.400

$$$$
lig.pdb
 OpenBabel11021811503D
libRbt.so/2013.1/901 2013/11/27
 18 19  0  0  0  0  0  0  0  0999 V2000
   -5.8972    8.8927    4.3119 C   0  0  0  0  0  0  0  0  0  0  0  0
   -8.9546    9.8200    0.6616 N   0  0  0  0  0  0  0  0  0  0  0  0
   -9.7621   15.5032    1.7828 C   0  0  0  0  0  0  0  0  0  0  0  0
  -14.4778   17.5369    3.5022 O   0  0  0  0  0  0  0  0  0  0  0  0
  -13.9362   16.2965    3.0697 C   0  0  0  0  0  0  0  0  0  0  0  0
  -12.4039   16.2978    3.2336 C   0  0  0  0  0  0  0  0  0  0  0  0
  -11.5109   12.2964    2.6015 C   0  0  0  0  0  0  0  0  0  0  0  0
  -12.6951   13.3585    3.2896 S   0  0  0  0  0  0  0  0  0  0  0  0
  -11.9023   14.9059    2.9185 C   0  0  0  0  0  0  0  0  0  0  0  0
  -10.7615   14.4757    2.2874 C   0  0  0  0  0  0  0  0  0  0  0  0
  -10.5851   13.1270    2.1392 N   0  0  0  0  0  0  0  0  0  0  0  0
   -9.3739   12.5659    1.4420 C   0  0  0  0  0  0  0  0  0  0  0  0
   -8.2879   10.2766    1.7985 C   0  0  0  0  0  0  0  0  0  0  0  0
   -7.4639    9.4307    2.4893 N   0  0  0  0  0  0  0  0  0  0  0  0
   -6.8127    9.8445    3.5795 C   0  0  0  0  0  0  0  0  0  0  0  0
   -6.9549   11.0971    4.0224 N   0  0  0  0  0  0  0  0  0  0  0  0
   -7.7529   11.9940    3.3869 C   0  0  0  0  0  0  0  0  0  0  0  0
   -8.4561   11.6219    2.2357 C   0  0  0  0  0  0  0  0  0  0  0  0
  5  4  1  0  0  0  0
  5  6  1  0  0  0  0
  7  8  2  0  0  0  0
  7 11  1  0  0  0  0
  8  9  1  0  0  0  0
  9 10  2  0  0  0  0
  9  6  1  0  0  0  0
 10  3  1  0  0  0  0
 11 12  1  0  0  0  0
 11 10  1  0  0  0  0
 12 18  1  0  0  0  0
 13  2  1  0  0  0  0
 13 14  2  0  0  0  0
 15 14  1  0  0  0  0
 15  1  1  0  0  0  0
 16 15  2  0  0  0  0
 17 18  2  0  0  0  0
 17 16  1  0  0  0  0
 18 13  1  0  0  0  0
M  END
>  <CHROM.1>
173.30119190,-36.19944930,-60.62421034,117.74321690,-10.12706407,12.84050590
2.76045062,-0.71284896,-0.36157044,0.40574349

>  <Name>
lig.pdb

>  <RI>
0

>  <Rbt.Current_Directory>
/home/itssahil/PROJECTS/Mol_Feturizer/New_Systems/rnas/4nyg

>  <Rbt.Executable>
rbdock ($Id: //depot/dev/client3/rdock/2013.1/src/exe/rbdock.cxx#4 $)

>  <Rbt.Library>
libRbt.so (2013.1, Build901 2013/11/27)

>  <Rbt.Parameter_File>
/export/apps/rDock/src/rDock_2013.1_src/data/scripts/dock_solv.prm

>  <Rbt.Receptor>
prm/pocket_docking_8.prm

>  <SCORE>
-25.6996

>  <SCORE.INTER>
-26.1686

>  <SCORE.INTER.CONST>
1

>  <SCORE.INTER.POLAR>
0

>  <SCORE.INTER.ROT>
4

>  <SCORE.INTER.SOLV>
15.2113

>  <SCORE.INTER.VDW>
-28.7828

>  <SCORE.INTER.norm>
-1.45381

>  <SCORE.INTRA>
0.468965

>  <SCORE.INTRA.DIHEDRAL>
0.992666

>  <SCORE.INTRA.DIHEDRAL.0>
3.20029

>  <SCORE.INTRA.POLAR>
0

>  <SCORE.INTRA.POLAR.0>
0

>  <SCORE.INTRA.REPUL>
0

>  <SCORE.INTRA.REPUL.0>
0

>  <SCORE.INTRA.SOLV>
0.153112

>  <SCORE.INTRA.SOLV.lig_0>
-19.3885

>  <SCORE.INTRA.VDW>
-0.103924

>  <SCORE.INTRA.VDW.0>
-1.12705

>  <SCORE.INTRA.norm>
0.0260536

>  <SCORE.RESTR>
0

>  <SCORE.RESTR.CAVITY>
0

>  <SCORE.RESTR.norm>
0

>  <SCORE.SYSTEM>
0

>  <SCORE.SYSTEM.CONST>
0

>  <SCORE.SYSTEM.DIHEDRAL>
0

>  <SCORE.SYSTEM.SOLV>
0

>  <SCORE.SYSTEM.norm>
0

>  <SCORE.heavy>
18

>  <SCORE.norm>
-1.42776

>  <RMSD>
7.400

$$$$
lig.pdb
 OpenBabel11021811503D
libRbt.so/2013.1/901 2013/11/27
 18 19  0  0  0  0  0  0  0  0999 V2000
   -5.8157    9.9317    4.6853 C   0  0  0  0  0  0  0  0  0  0  0  0
   -6.8405   12.7595    0.8793 N   0  0  0  0  0  0  0  0  0  0  0  0
   -9.9489   15.9200    1.9739 C   0  0  0  0  0  0  0  0  0  0  0  0
  -14.6991   16.5088    2.1477 O   0  0  0  0  0  0  0  0  0  0  0  0
  -14.1500   16.7251    3.4402 C   0  0  0  0  0  0  0  0  0  0  0  0
  -12.6108   16.7479    3.3684 C   0  0  0  0  0  0  0  0  0  0  0  0
  -11.8198   12.7440    2.6254 C   0  0  0  0  0  0  0  0  0  0  0  0
  -12.9928   13.8190    3.3128 S   0  0  0  0  0  0  0  0  0  0  0  0
  -12.1418   15.3523    3.0207 C   0  0  0  0  0  0  0  0  0  0  0  0
  -10.9948   14.9080    2.4109 C   0  0  0  0  0  0  0  0  0  0  0  0
  -10.8548   13.5603    2.2214 N   0  0  0  0  0  0  0  0  0  0  0  0
   -9.6392   12.9853    1.5432 C   0  0  0  0  0  0  0  0  0  0  0  0
   -7.2907   12.0855    2.0144 C   0  0  0  0  0  0  0  0  0  0  0  0
   -6.4091   11.3615    2.7697 N   0  0  0  0  0  0  0  0  0  0  0  0
   -6.8150   10.7092    3.8622 C   0  0  0  0  0  0  0  0  0  0  0  0
   -8.0959   10.7471    4.2407 N   0  0  0  0  0  0  0  0  0  0  0  0
   -9.0273   11.4474    3.5427 C   0  0  0  0  0  0  0  0  0  0  0  0
   -8.6622   12.1565    2.3930 C   0  0  0  0  0  0  0  0  0  0  0  0
  5  4  1  0  0  0  0
  5  6  1  0  0  0  0
  7  8  2  0  0  0  0
  7 11  1  0  0  0  0
  8  9  1  0  0  0  0
  9 10  2  0  0  0  0
  9  6  1  0  0  0  0
 10  3  1  0  0  0  0
 11 12  1  0  0  0  0
 11 10  1  0  0  0  0
 12 18  1  0  0  0  0
 13  2  1  0  0  0  0
 13 14  2  0  0  0  0
 15 14  1  0  0  0  0
 15  1  1  0  0  0  0
 16 15  2  0  0  0  0
 17 18  2  0  0  0  0
 17 16  1  0  0  0  0
 18 13  1  0  0  0  0
M  END
>  <CHROM.1>
-67.91680703,-24.71067591,-69.66510362,-152.97691072,-10.18988800,13.43361538
2.83738594,0.52795841,-0.36986424,2.50744989

>  <Name>
lig.pdb

>  <RI>
0

>  <Rbt.Current_Directory>
/home/itssahil/PROJECTS/Mol_Feturizer/New_Systems/rnas/4nyg

>  <Rbt.Executable>
rbdock ($Id: //depot/dev/client3/rdock/2013.1/src/exe/rbdock.cxx#4 $)

>  <Rbt.Library>
libRbt.so (2013.1, Build901 2013/11/27)

>  <Rbt.Parameter_File>
/export/apps/rDock/src/rDock_2013.1_src/data/scripts/dock_solv.prm

>  <Rbt.Receptor>
prm/pocket_docking_8.prm

>  <SCORE>
-22.0846

>  <SCORE.INTER>
-23.2015

>  <SCORE.INTER.CONST>
1

>  <SCORE.INTER.POLAR>
0

>  <SCORE.INTER.ROT>
4

>  <SCORE.INTER.SOLV>
13.0844

>  <SCORE.INTER.VDW>
-26.0958

>  <SCORE.INTER.norm>
-1.28897

>  <SCORE.INTRA>
1.1169

>  <SCORE.INTRA.DIHEDRAL>
1.8249

>  <SCORE.INTRA.DIHEDRAL.0>
3.20029

>  <SCORE.INTRA.POLAR>
0

>  <SCORE.INTRA.POLAR.0>
0

>  <SCORE.INTRA.REPUL>
0

>  <SCORE.INTRA.REPUL.0>
0

>  <SCORE.INTRA.SOLV>
0.391145

>  <SCORE.INTRA.SOLV.lig_0>
-19.3885

>  <SCORE.INTRA.VDW>
0.00887348

>  <SCORE.INTRA.VDW.0>
-1.12705

>  <SCORE.INTRA.norm>
0.0620498

>  <SCORE.RESTR>
0

>  <SCORE.RESTR.CAVITY>
0

>  <SCORE.RESTR.norm>
0

>  <SCORE.SYSTEM>
0

>  <SCORE.SYSTEM.CONST>
0

>  <SCORE.SYSTEM.DIHEDRAL>
0

>  <SCORE.SYSTEM.SOLV>
0

>  <SCORE.SYSTEM.norm>
0

>  <SCORE.heavy>
18

>  <SCORE.norm>
-1.22692

>  <RMSD>
7.404

$$$$
lig.pdb
 OpenBabel11021811503D
libRbt.so/2013.1/901 2013/11/27
 18 19  0  0  0  0  0  0  0  0999 V2000
   -6.0057    9.5470    4.5227 C   0  0  0  0  0  0  0  0  0  0  0  0
   -7.7628   13.9486    3.4877 N   0  0  0  0  0  0  0  0  0  0  0  0
   -9.9281   15.9020    1.8933 C   0  0  0  0  0  0  0  0  0  0  0  0
  -14.6398   16.4320    2.1320 O   0  0  0  0  0  0  0  0  0  0  0  0
  -14.1012   16.6335    3.4314 C   0  0  0  0  0  0  0  0  0  0  0  0
  -12.5620   16.6757    3.3695 C   0  0  0  0  0  0  0  0  0  0  0  0
  -11.7077   12.6879    2.6105 C   0  0  0  0  0  0  0  0  0  0  0  0
  -12.8815   13.7391    3.3324 S   0  0  0  0  0  0  0  0  0  0  0  0
  -12.0739   15.2897    3.0102 C   0  0  0  0  0  0  0  0  0  0  0  0
  -10.9373   14.8687    2.3654 C   0  0  0  0  0  0  0  0  0  0  0  0
  -10.7740   13.5238    2.1744 N   0  0  0  0  0  0  0  0  0  0  0  0
   -9.5682   12.9734    1.4593 C   0  0  0  0  0  0  0  0  0  0  0  0
   -7.7642   12.5778    3.2303 C   0  0  0  0  0  0  0  0  0  0  0  0
   -6.9352   11.7519    3.9392 N   0  0  0  0  0  0  0  0  0  0  0  0
   -6.9196   10.4357    3.7130 C   0  0  0  0  0  0  0  0  0  0  0  0
   -7.7136    9.8955    2.7839 N   0  0  0  0  0  0  0  0  0  0  0  0
   -8.5649   10.6519    2.0435 C   0  0  0  0  0  0  0  0  0  0  0  0
   -8.6316   12.0359    2.2387 C   0  0  0  0  0  0  0  0  0  0  0  0
  5  4  1  0  0  0  0
  5  6  1  0  0  0  0
  7  8  2  0  0  0  0
  7 11  1  0  0  0  0
  8  9  1  0  0  0  0
  9 10  2  0  0  0  0
  9  6  1  0  0  0  0
 10  3  1  0  0  0  0
 11 12  1  0  0  0  0
 11 10  1  0  0  0  0
 12 18  1  0  0  0  0
 13  2  1  0  0  0  0
 13 14  2  0  0  0  0
 15 14  1  0  0  0  0
 15  1  1  0  0  0  0
 16 15  2  0  0  0  0
 17 18  2  0  0  0  0
 17 16  1  0  0  0  0
 18 13  1  0  0  0  0
M  END
>  <CHROM.1>
-68.25156209,-27.07514555,-62.79678030,-73.90085358,-10.21678078,13.38118908
2.90548624,0.68824474,0.05605647,3.09614244

>  <Name>
lig.pdb

>  <RI>
0

>  <Rbt.Current_Directory>
/home/itssahil/PROJECTS/Mol_Feturizer/New_Systems/rnas/4nyg

>  <Rbt.Executable>
rbdock ($Id: //depot/dev/client3/rdock/2013.1/src/exe/rbdock.cxx#4 $)

>  <Rbt.Library>
libRbt.so (2013.1, Build901 2013/11/27)

>  <Rbt.Parameter_File>
/export/apps/rDock/src/rDock_2013.1_src/data/scripts/dock_solv.prm

>  <Rbt.Receptor>
prm/pocket_docking_8.prm

>  <SCORE>
-23.0534

>  <SCORE.INTER>
-24.1306

>  <SCORE.INTER.CONST>
1

>  <SCORE.INTER.POLAR>
0

>  <SCORE.INTER.ROT>
4

>  <SCORE.INTER.SOLV>
12.4357

>  <SCORE.INTER.VDW>
-26.499

>  <SCORE.INTER.norm>
-1.34059

>  <SCORE.INTRA>
1.07726

>  <SCORE.INTRA.DIHEDRAL>
1.70552

>  <SCORE.INTRA.DIHEDRAL.0>
3.20029

>  <SCORE.INTRA.POLAR>
0

>  <SCORE.INTRA.POLAR.0>
0

>  <SCORE.INTRA.REPUL>
0

>  <SCORE.INTRA.REPUL.0>
0

>  <SCORE.INTRA.SOLV>
1.24106

>  <SCORE.INTRA.SOLV.lig_0>
-19.3885

>  <SCORE.INTRA.VDW>
-0.396029

>  <SCORE.INTRA.VDW.0>
-1.12705

>  <SCORE.INTRA.norm>
0.0598478

>  <SCORE.RESTR>
0

>  <SCORE.RESTR.CAVITY>
0

>  <SCORE.RESTR.norm>
0

>  <SCORE.SYSTEM>
0

>  <SCORE.SYSTEM.CONST>
0

>  <SCORE.SYSTEM.DIHEDRAL>
0

>  <SCORE.SYSTEM.SOLV>
0

>  <SCORE.SYSTEM.norm>
0

>  <SCORE.heavy>
18

>  <SCORE.norm>
-1.28074

>  <RMSD>
7.404

$$$$
lig.pdb
 OpenBabel11021811503D
libRbt.so/2013.1/901 2013/11/27
 18 19  0  0  0  0  0  0  0  0999 V2000
   -5.2422   10.9041    4.8473 C   0  0  0  0  0  0  0  0  0  0  0  0
   -8.8768   10.1250    1.7304 N   0  0  0  0  0  0  0  0  0  0  0  0
  -10.1323   15.8339    1.8683 C   0  0  0  0  0  0  0  0  0  0  0  0
  -15.0398   15.7307    3.8111 O   0  0  0  0  0  0  0  0  0  0  0  0
  -14.3034   16.5427    2.9070 C   0  0  0  0  0  0  0  0  0  0  0  0
  -12.8112   16.5502    3.2918 C   0  0  0  0  0  0  0  0  0  0  0  0
  -11.7530   12.5763    2.7474 C   0  0  0  0  0  0  0  0  0  0  0  0
  -12.9828   13.6033    3.4084 S   0  0  0  0  0  0  0  0  0  0  0  0
  -12.2519   15.1737    3.0079 C   0  0  0  0  0  0  0  0  0  0  0  0
  -11.0914   14.7773    2.3905 C   0  0  0  0  0  0  0  0  0  0  0  0
  -10.8597   13.4341    2.2713 N   0  0  0  0  0  0  0  0  0  0  0  0
   -9.6233   12.9085    1.5908 C   0  0  0  0  0  0  0  0  0  0  0  0
   -8.1441   11.0288    2.4997 C   0  0  0  0  0  0  0  0  0  0  0  0
   -7.1083   10.5804    3.2729 N   0  0  0  0  0  0  0  0  0  0  0  0
   -6.3902   11.4260    4.0165 C   0  0  0  0  0  0  0  0  0  0  0  0
   -6.6709   12.7324    4.0240 N   0  0  0  0  0  0  0  0  0  0  0  0
   -7.6820   13.2507    3.2795 C   0  0  0  0  0  0  0  0  0  0  0  0
   -8.4660   12.4163    2.4750 C   0  0  0  0  0  0  0  0  0  0  0  0
  5  4  1  0  0  0  0
  5  6  1  0  0  0  0
  7  8  2  0  0  0  0
  7 11  1  0  0  0  0
  8  9  1  0  0  0  0
  9 10  2  0  0  0  0
  9  6  1  0  0  0  0
 10  3  1  0  0  0  0
 11 12  1  0  0  0  0
 11 10  1  0  0  0  0
 12 18  1  0  0  0  0
 13  2  1  0  0  0  0
 13 14  2  0  0  0  0
 15 14  1  0  0  0  0
 15  1  1  0  0  0  0
 16 15  2  0  0  0  0
 17 18  2  0  0  0  0
 17 16  1  0  0  0  0
 18 13  1  0  0  0  0
M  END
>  <CHROM.1>
69.34008992,-45.04496878,-79.79654650,111.88633154,-10.22540775,13.36640550
3.01161292,-0.54219694,-0.14489210,0.15538017

>  <Name>
lig.pdb

>  <RI>
0

>  <Rbt.Current_Directory>
/home/itssahil/PROJECTS/Mol_Feturizer/New_Systems/rnas/4nyg

>  <Rbt.Executable>
rbdock ($Id: //depot/dev/client3/rdock/2013.1/src/exe/rbdock.cxx#4 $)

>  <Rbt.Library>
libRbt.so (2013.1, Build901 2013/11/27)

>  <Rbt.Parameter_File>
/export/apps/rDock/src/rDock_2013.1_src/data/scripts/dock_solv.prm

>  <Rbt.Receptor>
prm/pocket_docking_4.prm

>  <SCORE>
-23.437

>  <SCORE.INTER>
-23.6225

>  <SCORE.INTER.CONST>
1

>  <SCORE.INTER.POLAR>
0

>  <SCORE.INTER.ROT>
4

>  <SCORE.INTER.SOLV>
11.4219

>  <SCORE.INTER.VDW>
-25.8223

>  <SCORE.INTER.norm>
-1.31236

>  <SCORE.INTRA>
0.185491

>  <SCORE.INTRA.DIHEDRAL>
0.57102

>  <SCORE.INTRA.DIHEDRAL.0>
3.20029

>  <SCORE.INTRA.POLAR>
0

>  <SCORE.INTRA.POLAR.0>
0

>  <SCORE.INTRA.REPUL>
0

>  <SCORE.INTRA.REPUL.0>
0

>  <SCORE.INTRA.SOLV>
0.626696

>  <SCORE.INTRA.SOLV.lig_0>
-19.3885

>  <SCORE.INTRA.VDW>
-0.413367

>  <SCORE.INTRA.VDW.0>
-1.12705

>  <SCORE.INTRA.norm>
0.0103051

>  <SCORE.RESTR>
0

>  <SCORE.RESTR.CAVITY>
0

>  <SCORE.RESTR.norm>
0

>  <SCORE.SYSTEM>
0

>  <SCORE.SYSTEM.CONST>
0

>  <SCORE.SYSTEM.DIHEDRAL>
0

>  <SCORE.SYSTEM.SOLV>
0

>  <SCORE.SYSTEM.norm>
0

>  <SCORE.heavy>
18

>  <SCORE.norm>
-1.30205

>  <RMSD>
7.406

$$$$
lig.pdb
 OpenBabel11021811503D
libRbt.so/2013.1/901 2013/11/27
 18 19  0  0  0  0  0  0  0  0999 V2000
   -4.1422   15.7254    0.4265 C   0  0  0  0  0  0  0  0  0  0  0  0
   -8.6661   14.7330   -1.0164 N   0  0  0  0  0  0  0  0  0  0  0  0
  -11.9432   12.3716    2.5700 C   0  0  0  0  0  0  0  0  0  0  0  0
  -14.2024   16.9001    4.1704 O   0  0  0  0  0  0  0  0  0  0  0  0
  -14.7092   15.7666    3.4794 C   0  0  0  0  0  0  0  0  0  0  0  0
  -13.8416   14.5286    3.7780 C   0  0  0  0  0  0  0  0  0  0  0  0
  -10.2093   15.6588    2.1234 C   0  0  0  0  0  0  0  0  0  0  0  0
  -11.6325   16.2794    2.8937 S   0  0  0  0  0  0  0  0  0  0  0  0
  -12.4914   14.7409    3.1297 C   0  0  0  0  0  0  0  0  0  0  0  0
  -11.6011   13.8521    2.5797 C   0  0  0  0  0  0  0  0  0  0  0  0
  -10.4351   14.3525    2.0679 N   0  0  0  0  0  0  0  0  0  0  0  0
   -9.3921   13.4496    1.4637 C   0  0  0  0  0  0  0  0  0  0  0  0
   -7.6910   14.6517   -0.0224 C   0  0  0  0  0  0  0  0  0  0  0  0
   -6.4489   15.1809   -0.2435 N   0  0  0  0  0  0  0  0  0  0  0  0
   -5.4988   15.1177    0.6931 C   0  0  0  0  0  0  0  0  0  0  0  0
   -5.7407   14.5314    1.8691 N   0  0  0  0  0  0  0  0  0  0  0  0
   -6.9504   13.9870    2.1612 C   0  0  0  0  0  0  0  0  0  0  0  0
   -7.9880   14.0276    1.2232 C   0  0  0  0  0  0  0  0  0  0  0  0
  5  4  1  0  0  0  0
  5  6  1  0  0  0  0
  7  8  2  0  0  0  0
  7 11  1  0  0  0  0
  8  9  1  0  0  0  0
  9 10  2  0  0  0  0
  9  6  1  0  0  0  0
 10  3  1  0  0  0  0
 11 12  1  0  0  0  0
 11 10  1  0  0  0  0
 12 18  1  0  0  0  0
 13  2  1  0  0  0  0
 13 14  2  0  0  0  0
 15 14  1  0  0  0  0
 15  1  1  0  0  0  0
 16 15  2  0  0  0  0
 17 18  2  0  0  0  0
 17 16  1  0  0  0  0
 18 13  1  0  0  0  0
M  END
>  <CHROM.1>
-68.45628321,32.55875154,13.42025236,-90.10459506,-9.83365784,14.89480203
1.94975878,-0.13368975,0.35272496,0.19021192

>  <Name>
lig.pdb

>  <RI>
0

>  <Rbt.Current_Directory>
/home/itssahil/PROJECTS/Mol_Feturizer/New_Systems/rnas/4nyg

>  <Rbt.Executable>
rbdock ($Id: //depot/dev/client3/rdock/2013.1/src/exe/rbdock.cxx#4 $)

>  <Rbt.Library>
libRbt.so (2013.1, Build901 2013/11/27)

>  <Rbt.Parameter_File>
/export/apps/rDock/src/rDock_2013.1_src/data/scripts/dock_solv.prm

>  <Rbt.Receptor>
prm/pocket_docking_4.prm

>  <SCORE>
-20.9491

>  <SCORE.INTER>
-22.3447

>  <SCORE.INTER.CONST>
1

>  <SCORE.INTER.POLAR>
0

>  <SCORE.INTER.ROT>
4

>  <SCORE.INTER.SOLV>
13.1377

>  <SCORE.INTER.VDW>
-25.5423

>  <SCORE.INTER.norm>
-1.24137

>  <SCORE.INTRA>
1.39559

>  <SCORE.INTRA.DIHEDRAL>
1.3211

>  <SCORE.INTRA.DIHEDRAL.0>
3.20029

>  <SCORE.INTRA.POLAR>
0

>  <SCORE.INTRA.POLAR.0>
0

>  <SCORE.INTRA.REPUL>
0

>  <SCORE.INTRA.REPUL.0>
0

>  <SCORE.INTRA.SOLV>
0.779871

>  <SCORE.INTRA.SOLV.lig_0>
-19.3885

>  <SCORE.INTRA.VDW>
0.34511

>  <SCORE.INTRA.VDW.0>
-1.12705

>  <SCORE.INTRA.norm>
0.077533

>  <SCORE.RESTR>
0

>  <SCORE.RESTR.CAVITY>
0

>  <SCORE.RESTR.norm>
0

>  <SCORE.SYSTEM>
0

>  <SCORE.SYSTEM.CONST>
0

>  <SCORE.SYSTEM.DIHEDRAL>
0

>  <SCORE.SYSTEM.SOLV>
0

>  <SCORE.SYSTEM.norm>
0

>  <SCORE.heavy>
18

>  <SCORE.norm>
-1.16384

>  <RMSD>
7.407

$$$$
lig.pdb
 OpenBabel11021811503D
libRbt.so/2013.1/901 2013/11/27
 18 19  0  0  0  0  0  0  0  0999 V2000
   -5.2112    9.9462    4.4058 C   0  0  0  0  0  0  0  0  0  0  0  0
   -6.4760   13.1227    0.9645 N   0  0  0  0  0  0  0  0  0  0  0  0
   -9.7795   15.6269    1.8298 C   0  0  0  0  0  0  0  0  0  0  0  0
  -14.5528   17.4861    3.4840 O   0  0  0  0  0  0  0  0  0  0  0  0
  -13.9724   16.2678    3.0394 C   0  0  0  0  0  0  0  0  0  0  0  0
  -12.4527   16.2770    3.2950 C   0  0  0  0  0  0  0  0  0  0  0  0
  -11.4441   12.3372    2.4770 C   0  0  0  0  0  0  0  0  0  0  0  0
  -12.6623   13.3316    3.2058 S   0  0  0  0  0  0  0  0  0  0  0  0
  -11.9103   14.9164    2.9169 C   0  0  0  0  0  0  0  0  0  0  0  0
  -10.7534   14.5490    2.2754 C   0  0  0  0  0  0  0  0  0  0  0  0
  -10.5385   13.2145    2.0635 N   0  0  0  0  0  0  0  0  0  0  0  0
   -9.3071   12.7215    1.3502 C   0  0  0  0  0  0  0  0  0  0  0  0
   -6.8709   12.2014    1.9344 C   0  0  0  0  0  0  0  0  0  0  0  0
   -5.9249   11.5371    2.6664 N   0  0  0  0  0  0  0  0  0  0  0  0
   -6.2775   10.6520    3.6023 C   0  0  0  0  0  0  0  0  0  0  0  0
   -7.5660   10.3927    3.8427 N   0  0  0  0  0  0  0  0  0  0  0  0
   -8.5604   11.0156    3.1583 C   0  0  0  0  0  0  0  0  0  0  0  0
   -8.2545   11.9578    2.1700 C   0  0  0  0  0  0  0  0  0  0  0  0
  5  4  1  0  0  0  0
  5  6  1  0  0  0  0
  7  8  2  0  0  0  0
  7 11  1  0  0  0  0
  8  9  1  0  0  0  0
  9 10  2  0  0  0  0
  9  6  1  0  0  0  0
 10  3  1  0  0  0  0
 11 12  1  0  0  0  0
 11 10  1  0  0  0  0
 12 18  1  0  0  0  0
 13  2  1  0  0  0  0
 13 14  2  0  0  0  0
 15 14  1  0  0  0  0
 15  1  1  0  0  0  0
 16 15  2  0  0  0  0
 17 18  2  0  0  0  0
 17 16  1  0  0  0  0
 18 13  1  0  0  0  0
M  END
>  <CHROM.1>
175.10106360,-39.46962195,-70.47758595,-139.61090265,-9.84404849,13.26091629
2.75203726,0.53577524,-0.30860416,2.67530499

>  <Name>
lig.pdb

>  <RI>
0

>  <Rbt.Current_Directory>
/home/itssahil/PROJECTS/Mol_Feturizer/New_Systems/rnas/4nyg

>  <Rbt.Executable>
rbdock ($Id: //depot/dev/client3/rdock/2013.1/src/exe/rbdock.cxx#4 $)

>  <Rbt.Library>
libRbt.so (2013.1, Build901 2013/11/27)

>  <Rbt.Parameter_File>
/export/apps/rDock/src/rDock_2013.1_src/data/scripts/dock_solv.prm

>  <Rbt.Receptor>
prm/pocket_docking_5.prm

>  <SCORE>
-22.2324

>  <SCORE.INTER>
-22.5148

>  <SCORE.INTER.CONST>
1

>  <SCORE.INTER.POLAR>
0

>  <SCORE.INTER.ROT>
4

>  <SCORE.INTER.SOLV>
11.6741

>  <SCORE.INTER.VDW>
-25.1679

>  <SCORE.INTER.norm>
-1.25082

>  <SCORE.INTRA>
0.282426

>  <SCORE.INTRA.DIHEDRAL>
0.671786

>  <SCORE.INTRA.DIHEDRAL.0>
3.20029

>  <SCORE.INTRA.POLAR>
0

>  <SCORE.INTRA.POLAR.0>
0

>  <SCORE.INTRA.REPUL>
0

>  <SCORE.INTRA.REPUL.0>
0

>  <SCORE.INTRA.SOLV>
0.0884715

>  <SCORE.INTRA.SOLV.lig_0>
-19.3885

>  <SCORE.INTRA.VDW>
-0.0977029

>  <SCORE.INTRA.VDW.0>
-1.12705

>  <SCORE.INTRA.norm>
0.0156903

>  <SCORE.RESTR>
0

>  <SCORE.RESTR.CAVITY>
0

>  <SCORE.RESTR.norm>
0

>  <SCORE.SYSTEM>
0

>  <SCORE.SYSTEM.CONST>
0

>  <SCORE.SYSTEM.DIHEDRAL>
0

>  <SCORE.SYSTEM.SOLV>
0

>  <SCORE.SYSTEM.norm>
0

>  <SCORE.heavy>
18

>  <SCORE.norm>
-1.23513

>  <RMSD>
7.409

$$$$
lig.pdb
 OpenBabel11021811503D
libRbt.so/2013.1/901 2013/11/27
 18 19  0  0  0  0  0  0  0  0999 V2000
   -5.7731    8.9307    4.8188 C   0  0  0  0  0  0  0  0  0  0  0  0
   -8.0386    9.5411    0.5729 N   0  0  0  0  0  0  0  0  0  0  0  0
   -9.5007   14.8088    1.4490 C   0  0  0  0  0  0  0  0  0  0  0  0
  -14.3313   15.8229    2.4989 O   0  0  0  0  0  0  0  0  0  0  0  0
  -13.3642   16.3068    3.4207 C   0  0  0  0  0  0  0  0  0  0  0  0
  -11.9469   16.1542    2.8352 C   0  0  0  0  0  0  0  0  0  0  0  0
  -11.6590   12.0181    2.7002 C   0  0  0  0  0  0  0  0  0  0  0  0
  -12.6532   13.3187    3.2694 S   0  0  0  0  0  0  0  0  0  0  0  0
  -11.6614   14.6758    2.6903 C   0  0  0  0  0  0  0  0  0  0  0  0
  -10.6176   14.0088    2.0981 C   0  0  0  0  0  0  0  0  0  0  0  0
  -10.6415   12.6409    2.1193 N   0  0  0  0  0  0  0  0  0  0  0  0
   -9.5492   11.8270    1.4769 C   0  0  0  0  0  0  0  0  0  0  0  0
   -7.8507    9.9585    1.8904 C   0  0  0  0  0  0  0  0  0  0  0  0
   -6.9667    9.2930    2.6951 N   0  0  0  0  0  0  0  0  0  0  0  0
   -6.7675    9.6745    3.9594 C   0  0  0  0  0  0  0  0  0  0  0  0
   -7.4318   10.7160    4.4686 N   0  0  0  0  0  0  0  0  0  0  0  0
   -8.3225   11.4267    3.7291 C   0  0  0  0  0  0  0  0  0  0  0  0
   -8.5696   11.0796    2.3962 C   0  0  0  0  0  0  0  0  0  0  0  0
  5  4  1  0  0  0  0
  5  6  1  0  0  0  0
  7  8  2  0  0  0  0
  7 11  1  0  0  0  0
  8  9  1  0  0  0  0
  9 10  2  0  0  0  0
  9  6  1  0  0  0  0
 10  3  1  0  0  0  0
 11 12  1  0  0  0  0
 11 10  1  0  0  0  0
 12 18  1  0  0  0  0
 13  2  1  0  0  0  0
 13 14  2  0  0  0  0
 15 14  1  0  0  0  0
 15  1  1  0  0  0  0
 16 15  2  0  0  0  0
 17 18  2  0  0  0  0
 17 16  1  0  0  0  0
 18 13  1  0  0  0  0
M  END
>  <CHROM.1>
-65.33986808,-7.41628146,-72.52269500,157.79947026,-9.99939840,12.45722943
2.76676721,-0.02946130,-0.76176293,1.45112370

>  <Name>
lig.pdb

>  <RI>
0

>  <Rbt.Current_Directory>
/home/itssahil/PROJECTS/Mol_Feturizer/New_Systems/rnas/4nyg

>  <Rbt.Executable>
rbdock ($Id: //depot/dev/client3/rdock/2013.1/src/exe/rbdock.cxx#4 $)

>  <Rbt.Library>
libRbt.so (2013.1, Build901 2013/11/27)

>  <Rbt.Parameter_File>
/export/apps/rDock/src/rDock_2013.1_src/data/scripts/dock_solv.prm

>  <Rbt.Receptor>
prm/pocket_docking_6.prm

>  <SCORE>
-24.6079

>  <SCORE.INTER>
-26.2623

>  <SCORE.INTER.CONST>
1

>  <SCORE.INTER.POLAR>
0

>  <SCORE.INTER.ROT>
4

>  <SCORE.INTER.SOLV>
16.6511

>  <SCORE.INTER.VDW>
-29.3252

>  <SCORE.INTER.norm>
-1.45902

>  <SCORE.INTRA>
1.6544

>  <SCORE.INTRA.DIHEDRAL>
2.57625

>  <SCORE.INTRA.DIHEDRAL.0>
3.20029

>  <SCORE.INTRA.POLAR>
0

>  <SCORE.INTRA.POLAR.0>
0

>  <SCORE.INTRA.REPUL>
0

>  <SCORE.INTRA.REPUL.0>
0

>  <SCORE.INTRA.SOLV>
0.38611

>  <SCORE.INTRA.SOLV.lig_0>
-19.3885

>  <SCORE.INTRA.VDW>
0.173216

>  <SCORE.INTRA.VDW.0>
-1.12705

>  <SCORE.INTRA.norm>
0.0919109

>  <SCORE.RESTR>
0

>  <SCORE.RESTR.CAVITY>
0

>  <SCORE.RESTR.norm>
0

>  <SCORE.SYSTEM>
0

>  <SCORE.SYSTEM.CONST>
0

>  <SCORE.SYSTEM.DIHEDRAL>
0

>  <SCORE.SYSTEM.SOLV>
0

>  <SCORE.SYSTEM.norm>
0

>  <SCORE.heavy>
18

>  <SCORE.norm>
-1.3671

>  <RMSD>
7.409

$$$$
lig.pdb
 OpenBabel11021811503D
libRbt.so/2013.1/901 2013/11/27
 18 19  0  0  0  0  0  0  0  0999 V2000
   -4.5109   10.9018    2.5493 C   0  0  0  0  0  0  0  0  0  0  0  0
   -9.0632    9.9975    1.1383 N   0  0  0  0  0  0  0  0  0  0  0  0
  -12.9599   13.1896    2.9980 C   0  0  0  0  0  0  0  0  0  0  0  0
  -15.2196   16.5501    4.2526 O   0  0  0  0  0  0  0  0  0  0  0  0
  -13.9732   15.8973    4.0541 C   0  0  0  0  0  0  0  0  0  0  0  0
  -13.3968   16.2584    2.6713 C   0  0  0  0  0  0  0  0  0  0  0  0
   -9.6329   14.6253    2.0593 C   0  0  0  0  0  0  0  0  0  0  0  0
  -10.5144   16.1175    2.0394 S   0  0  0  0  0  0  0  0  0  0  0  0
  -12.1128   15.4803    2.4863 C   0  0  0  0  0  0  0  0  0  0  0  0
  -11.8396   14.1407    2.6117 C   0  0  0  0  0  0  0  0  0  0  0  0
  -10.5549   13.7283    2.3847 N   0  0  0  0  0  0  0  0  0  0  0  0
  -10.1600   12.2812    2.5190 C   0  0  0  0  0  0  0  0  0  0  0  0
   -8.1796   10.8019    1.8578 C   0  0  0  0  0  0  0  0  0  0  0  0
   -6.8459   10.4975    1.8786 N   0  0  0  0  0  0  0  0  0  0  0  0
   -5.9795   11.2533    2.5582 C   0  0  0  0  0  0  0  0  0  0  0  0
   -6.3984   12.3249    3.2376 N   0  0  0  0  0  0  0  0  0  0  0  0
   -7.7064   12.6908    3.2603 C   0  0  0  0  0  0  0  0  0  0  0  0
   -8.6610   11.9426    2.5624 C   0  0  0  0  0  0  0  0  0  0  0  0
  5  4  1  0  0  0  0
  5  6  1  0  0  0  0
  7  8  2  0  0  0  0
  7 11  1  0  0  0  0
  8  9  1  0  0  0  0
  9 10  2  0  0  0  0
  9  6  1  0  0  0  0
 10  3  1  0  0  0  0
 11 12  1  0  0  0  0
 11 10  1  0  0  0  0
 12 18  1  0  0  0  0
 13  2  1  0  0  0  0
 13 14  2  0  0  0  0
 15 14  1  0  0  0  0
 15  1  1  0  0  0  0
 16 15  2  0  0  0  0
 17 18  2  0  0  0  0
 17 16  1  0  0  0  0
 18 13  1  0  0  0  0
M  END
>  <CHROM.1>
-177.01943623,-127.46016503,12.53271980,-139.30987054,-9.97795257,13.48983782
2.59904766,-0.61762710,0.06787211,0.08662801

>  <Name>
lig.pdb

>  <RI>
0

>  <Rbt.Current_Directory>
/home/itssahil/PROJECTS/Mol_Feturizer/New_Systems/rnas/4nyg

>  <Rbt.Executable>
rbdock ($Id: //depot/dev/client3/rdock/2013.1/src/exe/rbdock.cxx#4 $)

>  <Rbt.Library>
libRbt.so (2013.1, Build901 2013/11/27)

>  <Rbt.Parameter_File>
/export/apps/rDock/src/rDock_2013.1_src/data/scripts/dock_solv.prm

>  <Rbt.Receptor>
prm/pocket_docking_4.prm

>  <SCORE>
-16.4453

>  <SCORE.INTER>
-19.4745

>  <SCORE.INTER.CONST>
1

>  <SCORE.INTER.POLAR>
0

>  <SCORE.INTER.ROT>
4

>  <SCORE.INTER.SOLV>
13.5272

>  <SCORE.INTER.VDW>
-23.7587

>  <SCORE.INTER.norm>
-1.08191

>  <SCORE.INTRA>
3.02915

>  <SCORE.INTRA.DIHEDRAL>
2.49711

>  <SCORE.INTRA.DIHEDRAL.0>
3.20029

>  <SCORE.INTRA.POLAR>
0

>  <SCORE.INTRA.POLAR.0>
0

>  <SCORE.INTRA.REPUL>
0

>  <SCORE.INTRA.REPUL.0>
0

>  <SCORE.INTRA.SOLV>
0.16501

>  <SCORE.INTRA.SOLV.lig_0>
-19.3885

>  <SCORE.INTRA.VDW>
1.69809

>  <SCORE.INTRA.VDW.0>
-1.12705

>  <SCORE.INTRA.norm>
0.168286

>  <SCORE.RESTR>
0

>  <SCORE.RESTR.CAVITY>
0

>  <SCORE.RESTR.norm>
0

>  <SCORE.SYSTEM>
0

>  <SCORE.SYSTEM.CONST>
0

>  <SCORE.SYSTEM.DIHEDRAL>
0

>  <SCORE.SYSTEM.SOLV>
0

>  <SCORE.SYSTEM.norm>
0

>  <SCORE.heavy>
18

>  <SCORE.norm>
-0.913628

>  <RMSD>
7.411

$$$$
lig.pdb
 OpenBabel11021811503D
libRbt.so/2013.1/901 2013/11/27
 18 19  0  0  0  0  0  0  0  0999 V2000
   -5.3063   10.9614    5.1017 C   0  0  0  0  0  0  0  0  0  0  0  0
   -6.8775   13.3327    1.1722 N   0  0  0  0  0  0  0  0  0  0  0  0
   -9.9680   15.6035    1.8047 C   0  0  0  0  0  0  0  0  0  0  0  0
  -14.4927   17.7651    4.0888 O   0  0  0  0  0  0  0  0  0  0  0  0
  -14.0368   16.4594    3.7629 C   0  0  0  0  0  0  0  0  0  0  0  0
  -12.6463   16.5299    3.1023 C   0  0  0  0  0  0  0  0  0  0  0  0
  -11.8350   12.4825    2.6911 C   0  0  0  0  0  0  0  0  0  0  0  0
  -13.0183   13.6045    3.2785 S   0  0  0  0  0  0  0  0  0  0  0  0
  -12.1694   15.1128    2.8725 C   0  0  0  0  0  0  0  0  0  0  0  0
  -11.0149   14.6256    2.3115 C   0  0  0  0  0  0  0  0  0  0  0  0
  -10.8686   13.2676    2.2322 N   0  0  0  0  0  0  0  0  0  0  0  0
   -9.6445   12.6449    1.6143 C   0  0  0  0  0  0  0  0  0  0  0  0
   -7.1767   12.5434    2.2826 C   0  0  0  0  0  0  0  0  0  0  0  0
   -6.1725   12.1362    3.1178 N   0  0  0  0  0  0  0  0  0  0  0  0
   -6.4334   11.3820    4.1887 C   0  0  0  0  0  0  0  0  0  0  0  0
   -7.6847   11.0048    4.4668 N   0  0  0  0  0  0  0  0  0  0  0  0
   -8.7329   11.3733    3.6853 C   0  0  0  0  0  0  0  0  0  0  0  0
   -8.5242   12.1686    2.5531 C   0  0  0  0  0  0  0  0  0  0  0  0
  5  4  1  0  0  0  0
  5  6  1  0  0  0  0
  7  8  2  0  0  0  0
  7 11  1  0  0  0  0
  8  9  1  0  0  0  0
  9 10  2  0  0  0  0
  9  6  1  0  0  0  0
 10  3  1  0  0  0  0
 11 12  1  0  0  0  0
 11 10  1  0  0  0  0
 12 18  1  0  0  0  0
 13  2  1  0  0  0  0
 13 14  2  0  0  0  0
 15 14  1  0  0  0  0
 15  1  1  0  0  0  0
 16 15  2  0  0  0  0
 17 18  2  0  0  0  0
 17 16  1  0  0  0  0
 18 13  1  0  0  0  0
M  END
>  <CHROM.1>
175.87265281,-0.22298709,-83.01755032,-131.25655588,-10.07588449,13.56270377
3.05301000,0.48806151,-0.30285018,2.58557351

>  <Name>
lig.pdb

>  <RI>
0

>  <Rbt.Current_Directory>
/home/itssahil/PROJECTS/Mol_Feturizer/New_Systems/rnas/4nyg

>  <Rbt.Executable>
rbdock ($Id: //depot/dev/client3/rdock/2013.1/src/exe/rbdock.cxx#4 $)

>  <Rbt.Library>
libRbt.so (2013.1, Build901 2013/11/27)

>  <Rbt.Parameter_File>
/export/apps/rDock/src/rDock_2013.1_src/data/scripts/dock_solv.prm

>  <Rbt.Receptor>
prm/pocket_docking_4.prm

>  <SCORE>
-21.2006

>  <SCORE.INTER>
-22.7878

>  <SCORE.INTER.CONST>
1

>  <SCORE.INTER.POLAR>
0

>  <SCORE.INTER.ROT>
4

>  <SCORE.INTER.SOLV>
12.0178

>  <SCORE.INTER.VDW>
-25.4644

>  <SCORE.INTER.norm>
-1.26599

>  <SCORE.INTRA>
1.5872

>  <SCORE.INTRA.DIHEDRAL>
2.61457

>  <SCORE.INTRA.DIHEDRAL.0>
3.20029

>  <SCORE.INTRA.POLAR>
0

>  <SCORE.INTRA.POLAR.0>
0

>  <SCORE.INTRA.REPUL>
0

>  <SCORE.INTRA.REPUL.0>
0

>  <SCORE.INTRA.SOLV>
0.1928

>  <SCORE.INTRA.SOLV.lig_0>
-19.3885

>  <SCORE.INTRA.VDW>
0.18352

>  <SCORE.INTRA.VDW.0>
-1.12705

>  <SCORE.INTRA.norm>
0.0881781

>  <SCORE.RESTR>
0

>  <SCORE.RESTR.CAVITY>
0

>  <SCORE.RESTR.norm>
0

>  <SCORE.SYSTEM>
0

>  <SCORE.SYSTEM.CONST>
0

>  <SCORE.SYSTEM.DIHEDRAL>
0

>  <SCORE.SYSTEM.SOLV>
0

>  <SCORE.SYSTEM.norm>
0

>  <SCORE.heavy>
18

>  <SCORE.norm>
-1.17781

>  <RMSD>
7.413

$$$$
lig.pdb
 OpenBabel11021811503D
libRbt.so/2013.1/901 2013/11/27
 18 19  0  0  0  0  0  0  0  0999 V2000
   -3.7377   14.8937    0.4608 C   0  0  0  0  0  0  0  0  0  0  0  0
   -6.9422   12.0745    2.7662 N   0  0  0  0  0  0  0  0  0  0  0  0
  -11.8349   12.2898    2.5017 C   0  0  0  0  0  0  0  0  0  0  0  0
  -15.5993   15.8999    4.0700 O   0  0  0  0  0  0  0  0  0  0  0  0
  -14.3879   15.8637    3.3282 C   0  0  0  0  0  0  0  0  0  0  0  0
  -13.5963   14.5844    3.6626 C   0  0  0  0  0  0  0  0  0  0  0  0
   -9.8967   15.4524    1.9990 C   0  0  0  0  0  0  0  0  0  0  0  0
  -11.2796   16.1758    2.7528 S   0  0  0  0  0  0  0  0  0  0  0  0
  -12.2341   14.6990    3.0148 C   0  0  0  0  0  0  0  0  0  0  0  0
  -11.4003   13.7458    2.4847 C   0  0  0  0  0  0  0  0  0  0  0  0
  -10.2040   14.1620    1.9673 N   0  0  0  0  0  0  0  0  0  0  0  0
   -9.2187   13.1840    1.3837 C   0  0  0  0  0  0  0  0  0  0  0  0
   -6.7019   13.0837    1.8341 C   0  0  0  0  0  0  0  0  0  0  0  0
   -5.4204   13.5016    1.5995 N   0  0  0  0  0  0  0  0  0  0  0  0
   -5.1640   14.4647    0.7104 C   0  0  0  0  0  0  0  0  0  0  0  0
   -6.1571   15.0451    0.0306 N   0  0  0  0  0  0  0  0  0  0  0  0
   -7.4535   14.6804    0.2079 C   0  0  0  0  0  0  0  0  0  0  0  0
   -7.7851   13.6730    1.1207 C   0  0  0  0  0  0  0  0  0  0  0  0
  5  4  1  0  0  0  0
  5  6  1  0  0  0  0
  7  8  2  0  0  0  0
  7 11  1  0  0  0  0
  8  9  1  0  0  0  0
  9 10  2  0  0  0  0
  9  6  1  0  0  0  0
 10  3  1  0  0  0  0
 11 12  1  0  0  0  0
 11 10  1  0  0  0  0
 12 18  1  0  0  0  0
 13  2  1  0  0  0  0
 13 14  2  0  0  0  0
 15 14  1  0  0  0  0
 15  1  1  0  0  0  0
 16 15  2  0  0  0  0
 17 18  2  0  0  0  0
 17 16  1  0  0  0  0
 18 13  1  0  0  0  0
M  END
>  <CHROM.1>
-171.49429850,33.01136094,12.67465570,116.33322760,-9.58826287,14.44785112
2.07115013,-0.08757135,0.31410887,-0.18130357

>  <Name>
lig.pdb

>  <RI>
0

>  <Rbt.Current_Directory>
/home/itssahil/PROJECTS/Mol_Feturizer/New_Systems/rnas/4nyg

>  <Rbt.Executable>
rbdock ($Id: //depot/dev/client3/rdock/2013.1/src/exe/rbdock.cxx#4 $)

>  <Rbt.Library>
libRbt.so (2013.1, Build901 2013/11/27)

>  <Rbt.Parameter_File>
/export/apps/rDock/src/rDock_2013.1_src/data/scripts/dock_solv.prm

>  <Rbt.Receptor>
prm/pocket_docking_4.prm

>  <SCORE>
-19.7608

>  <SCORE.INTER>
-21.0252

>  <SCORE.INTER.CONST>
1

>  <SCORE.INTER.POLAR>
0

>  <SCORE.INTER.ROT>
4

>  <SCORE.INTER.SOLV>
10.7529

>  <SCORE.INTER.VDW>
-23.8677

>  <SCORE.INTER.norm>
-1.16806

>  <SCORE.INTRA>
1.26434

>  <SCORE.INTRA.DIHEDRAL>
1.29353

>  <SCORE.INTRA.DIHEDRAL.0>
3.20029

>  <SCORE.INTRA.POLAR>
0

>  <SCORE.INTRA.POLAR.0>
0

>  <SCORE.INTRA.REPUL>
0

>  <SCORE.INTRA.REPUL.0>
0

>  <SCORE.INTRA.SOLV>
0.0824844

>  <SCORE.INTRA.SOLV.lig_0>
-19.3885

>  <SCORE.INTRA.VDW>
0.576332

>  <SCORE.INTRA.VDW.0>
-1.12705

>  <SCORE.INTRA.norm>
0.0702412

>  <SCORE.RESTR>
0

>  <SCORE.RESTR.CAVITY>
0

>  <SCORE.RESTR.norm>
0

>  <SCORE.SYSTEM>
0

>  <SCORE.SYSTEM.CONST>
0

>  <SCORE.SYSTEM.DIHEDRAL>
0

>  <SCORE.SYSTEM.SOLV>
0

>  <SCORE.SYSTEM.norm>
0

>  <SCORE.heavy>
18

>  <SCORE.norm>
-1.09782

>  <RMSD>
7.418

$$$$
lig.pdb
 OpenBabel11021811503D
libRbt.so/2013.1/901 2013/11/27
 18 19  0  0  0  0  0  0  0  0999 V2000
   -3.7426   14.8758    0.4860 C   0  0  0  0  0  0  0  0  0  0  0  0
   -6.9888   12.0938    2.7784 N   0  0  0  0  0  0  0  0  0  0  0  0
  -11.8170   12.2666    2.5221 C   0  0  0  0  0  0  0  0  0  0  0  0
  -15.5769   15.8874    4.1339 O   0  0  0  0  0  0  0  0  0  0  0  0
  -14.3851   15.8565    3.3607 C   0  0  0  0  0  0  0  0  0  0  0  0
  -13.5962   14.5644    3.6490 C   0  0  0  0  0  0  0  0  0  0  0  0
   -9.9441   15.4453    1.8898 C   0  0  0  0  0  0  0  0  0  0  0  0
  -11.3251   16.1672    2.6485 S   0  0  0  0  0  0  0  0  0  0  0  0
  -12.2486   14.6829    2.9720 C   0  0  0  0  0  0  0  0  0  0  0  0
  -11.4084   13.7286    2.4541 C   0  0  0  0  0  0  0  0  0  0  0  0
  -10.2294   14.1495    1.9018 N   0  0  0  0  0  0  0  0  0  0  0  0
   -9.2382   13.1715    1.3282 C   0  0  0  0  0  0  0  0  0  0  0  0
   -6.7311   13.0856    1.8322 C   0  0  0  0  0  0  0  0  0  0  0  0
   -5.4458   13.5019    1.6163 N   0  0  0  0  0  0  0  0  0  0  0  0
   -5.1729   14.4483    0.7143 C   0  0  0  0  0  0  0  0  0  0  0  0
   -6.1529   15.0134    0.0032 N   0  0  0  0  0  0  0  0  0  0  0  0
   -7.4520   14.6491    0.1606 C   0  0  0  0  0  0  0  0  0  0  0  0
   -7.8004   13.6586    1.0856 C   0  0  0  0  0  0  0  0  0  0  0  0
  5  4  1  0  0  0  0
  5  6  1  0  0  0  0
  7  8  2  0  0  0  0
  7 11  1  0  0  0  0
  8  9  1  0  0  0  0
  9 10  2  0  0  0  0
  9  6  1  0  0  0  0
 10  3  1  0  0  0  0
 11 12  1  0  0  0  0
 11 10  1  0  0  0  0
 12 18  1  0  0  0  0
 13  2  1  0  0  0  0
 13 14  2  0  0  0  0
 15 14  1  0  0  0  0
 15  1  1  0  0  0  0
 16 15  2  0  0  0  0
 17 18  2  0  0  0  0
 17 16  1  0  0  0  0
 18 13  1  0  0  0  0
M  END
>  <CHROM.1>
-171.34066572,29.75531216,15.50864530,114.97392134,-9.60334594,14.43548846
2.04690274,-0.08203294,0.31630451,-0.19808660

>  <Name>
lig.pdb

>  <RI>
0

>  <Rbt.Current_Directory>
/home/itssahil/PROJECTS/Mol_Feturizer/New_Systems/rnas/4nyg

>  <Rbt.Executable>
rbdock ($Id: //depot/dev/client3/rdock/2013.1/src/exe/rbdock.cxx#4 $)

>  <Rbt.Library>
libRbt.so (2013.1, Build901 2013/11/27)

>  <Rbt.Parameter_File>
/export/apps/rDock/src/rDock_2013.1_src/data/scripts/dock_solv.prm

>  <Rbt.Receptor>
prm/pocket_docking_4.prm

>  <SCORE>
-19.7839

>  <SCORE.INTER>
-21.1844

>  <SCORE.INTER.CONST>
1

>  <SCORE.INTER.POLAR>
0

>  <SCORE.INTER.ROT>
4

>  <SCORE.INTER.SOLV>
10.9521

>  <SCORE.INTER.VDW>
-24.0403

>  <SCORE.INTER.norm>
-1.17691

>  <SCORE.INTRA>
1.40048

>  <SCORE.INTRA.DIHEDRAL>
1.52484

>  <SCORE.INTRA.DIHEDRAL.0>
3.20029

>  <SCORE.INTRA.POLAR>
0

>  <SCORE.INTRA.POLAR.0>
0

>  <SCORE.INTRA.REPUL>
0

>  <SCORE.INTRA.REPUL.0>
0

>  <SCORE.INTRA.SOLV>
0.0854307

>  <SCORE.INTRA.SOLV.lig_0>
-19.3885

>  <SCORE.INTRA.VDW>
0.595342

>  <SCORE.INTRA.VDW.0>
-1.12705

>  <SCORE.INTRA.norm>
0.0778043

>  <SCORE.RESTR>
0

>  <SCORE.RESTR.CAVITY>
0

>  <SCORE.RESTR.norm>
0

>  <SCORE.SYSTEM>
0

>  <SCORE.SYSTEM.CONST>
0

>  <SCORE.SYSTEM.DIHEDRAL>
0

>  <SCORE.SYSTEM.SOLV>
0

>  <SCORE.SYSTEM.norm>
0

>  <SCORE.heavy>
18

>  <SCORE.norm>
-1.09911

>  <RMSD>
7.419

$$$$
lig.pdb
 OpenBabel11021811503D
libRbt.so/2013.1/901 2013/11/27
 18 19  0  0  0  0  0  0  0  0999 V2000
   -4.5248   16.4284   -0.0688 C   0  0  0  0  0  0  0  0  0  0  0  0
   -8.7844   14.1449   -0.4859 N   0  0  0  0  0  0  0  0  0  0  0  0
  -11.7683   12.5570    2.8976 C   0  0  0  0  0  0  0  0  0  0  0  0
  -14.6970   16.8909    3.5001 O   0  0  0  0  0  0  0  0  0  0  0  0
  -14.6893   15.6087    4.1123 C   0  0  0  0  0  0  0  0  0  0  0  0
  -14.1526   14.5514    3.1280 C   0  0  0  0  0  0  0  0  0  0  0  0
  -10.3307   15.9717    2.3637 C   0  0  0  0  0  0  0  0  0  0  0  0
  -11.9747   16.4728    2.5875 S   0  0  0  0  0  0  0  0  0  0  0  0
  -12.7005   14.8713    2.8498 C   0  0  0  0  0  0  0  0  0  0  0  0
  -11.6000   14.0585    2.7353 C   0  0  0  0  0  0  0  0  0  0  0  0
  -10.3930   14.6517    2.4835 N   0  0  0  0  0  0  0  0  0  0  0  0
   -9.1300   13.8405    2.3624 C   0  0  0  0  0  0  0  0  0  0  0  0
   -7.7785   14.6418    0.3428 C   0  0  0  0  0  0  0  0  0  0  0  0
   -6.6861   15.2555   -0.2066 N   0  0  0  0  0  0  0  0  0  0  0  0
   -5.7107   15.7415    0.5655 C   0  0  0  0  0  0  0  0  0  0  0  0
   -5.7793   15.6357    1.8957 N   0  0  0  0  0  0  0  0  0  0  0  0
   -6.8343   15.0424    2.5123 C   0  0  0  0  0  0  0  0  0  0  0  0
   -7.8904   14.5196    1.7577 C   0  0  0  0  0  0  0  0  0  0  0  0
  5  4  1  0  0  0  0
  5  6  1  0  0  0  0
  7  8  2  0  0  0  0
  7 11  1  0  0  0  0
  8  9  1  0  0  0  0
  9 10  2  0  0  0  0
  9  6  1  0  0  0  0
 10  3  1  0  0  0  0
 11 12  1  0  0  0  0
 11 10  1  0  0  0  0
 12 18  1  0  0  0  0
 13  2  1  0  0  0  0
 13 14  2  0  0  0  0
 15 14  1  0  0  0  0
 15  1  1  0  0  0  0
 16 15  2  0  0  0  0
 17 18  2  0  0  0  0
 17 16  1  0  0  0  0
 18 13  1  0  0  0  0
M  END
>  <CHROM.1>
65.45827628,-41.09643337,-15.25976504,-80.13962809,-9.95691639,15.16394290
2.02191580,-0.01633155,0.33791314,0.03464768

>  <Name>
lig.pdb

>  <RI>
0

>  <Rbt.Current_Directory>
/home/itssahil/PROJECTS/Mol_Feturizer/New_Systems/rnas/4nyg

>  <Rbt.Executable>
rbdock ($Id: //depot/dev/client3/rdock/2013.1/src/exe/rbdock.cxx#4 $)

>  <Rbt.Library>
libRbt.so (2013.1, Build901 2013/11/27)

>  <Rbt.Parameter_File>
/export/apps/rDock/src/rDock_2013.1_src/data/scripts/dock_solv.prm

>  <Rbt.Receptor>
prm/pocket_docking_5.prm

>  <SCORE>
-21.7077

>  <SCORE.INTER>
-22.6375

>  <SCORE.INTER.CONST>
1

>  <SCORE.INTER.POLAR>
0

>  <SCORE.INTER.ROT>
4

>  <SCORE.INTER.SOLV>
12.2777

>  <SCORE.INTER.VDW>
-25.4509

>  <SCORE.INTER.norm>
-1.25764

>  <SCORE.INTRA>
0.929733

>  <SCORE.INTRA.DIHEDRAL>
0.675314

>  <SCORE.INTRA.DIHEDRAL.0>
3.20029

>  <SCORE.INTRA.POLAR>
0

>  <SCORE.INTRA.POLAR.0>
0

>  <SCORE.INTRA.REPUL>
0

>  <SCORE.INTRA.REPUL.0>
0

>  <SCORE.INTRA.SOLV>
0.861231

>  <SCORE.INTRA.SOLV.lig_0>
-19.3885

>  <SCORE.INTRA.VDW>
0.161461

>  <SCORE.INTRA.VDW.0>
-1.12705

>  <SCORE.INTRA.norm>
0.0516519

>  <SCORE.RESTR>
0

>  <SCORE.RESTR.CAVITY>
0

>  <SCORE.RESTR.norm>
0

>  <SCORE.SYSTEM>
0

>  <SCORE.SYSTEM.CONST>
0

>  <SCORE.SYSTEM.DIHEDRAL>
0

>  <SCORE.SYSTEM.SOLV>
0

>  <SCORE.SYSTEM.norm>
0

>  <SCORE.heavy>
18

>  <SCORE.norm>
-1.20598

>  <RMSD>
7.420

$$$$
lig.pdb
 OpenBabel11021811503D
libRbt.so/2013.1/901 2013/11/27
 18 19  0  0  0  0  0  0  0  0999 V2000
   -3.7752   14.9998    0.4590 C   0  0  0  0  0  0  0  0  0  0  0  0
   -6.9879   12.3380    2.9339 N   0  0  0  0  0  0  0  0  0  0  0  0
  -11.8268   12.2966    2.5159 C   0  0  0  0  0  0  0  0  0  0  0  0
  -15.6018   15.8942    4.1401 O   0  0  0  0  0  0  0  0  0  0  0  0
  -14.4255   15.8453    3.3445 C   0  0  0  0  0  0  0  0  0  0  0  0
  -13.6164   14.5741    3.6673 C   0  0  0  0  0  0  0  0  0  0  0  0
   -9.9498   15.4863    1.9547 C   0  0  0  0  0  0  0  0  0  0  0  0
  -11.3375   16.1945    2.7141 S   0  0  0  0  0  0  0  0  0  0  0  0
  -12.2631   14.7046    3.0040 C   0  0  0  0  0  0  0  0  0  0  0  0
  -11.4181   13.7596    2.4767 C   0  0  0  0  0  0  0  0  0  0  0  0
  -10.2347   14.1904    1.9419 N   0  0  0  0  0  0  0  0  0  0  0  0
   -9.2383   13.2227    1.3598 C   0  0  0  0  0  0  0  0  0  0  0  0
   -6.7393   13.2507    1.9090 C   0  0  0  0  0  0  0  0  0  0  0  0
   -5.4618   13.6823    1.6778 N   0  0  0  0  0  0  0  0  0  0  0  0
   -5.1976   14.5542    0.7011 C   0  0  0  0  0  0  0  0  0  0  0  0
   -6.1791   15.0278   -0.0720 N   0  0  0  0  0  0  0  0  0  0  0  0
   -7.4708   14.6426    0.0961 C   0  0  0  0  0  0  0  0  0  0  0  0
   -7.8097   13.7267    1.0983 C   0  0  0  0  0  0  0  0  0  0  0  0
  5  4  1  0  0  0  0
  5  6  1  0  0  0  0
  7  8  2  0  0  0  0
  7 11  1  0  0  0  0
  8  9  1  0  0  0  0
  9 10  2  0  0  0  0
  9  6  1  0  0  0  0
 10  3  1  0  0  0  0
 11 12  1  0  0  0  0
 11 10  1  0  0  0  0
 12 18  1  0  0  0  0
 13  2  1  0  0  0  0
 13 14  2  0  0  0  0
 15 14  1  0  0  0  0
 15  1  1  0  0  0  0
 16 15  2  0  0  0  0
 17 18  2  0  0  0  0
 17 16  1  0  0  0  0
 18 13  1  0  0  0  0
M  END
>  <CHROM.1>
-169.13058580,32.12123399,13.69933621,109.83271379,-9.61879984,14.49601423
2.07092317,-0.06432670,0.31637771,-0.20892076

>  <Name>
lig.pdb

>  <RI>
0

>  <Rbt.Current_Directory>
/home/itssahil/PROJECTS/Mol_Feturizer/New_Systems/rnas/4nyg

>  <Rbt.Executable>
rbdock ($Id: //depot/dev/client3/rdock/2013.1/src/exe/rbdock.cxx#4 $)

>  <Rbt.Library>
libRbt.so (2013.1, Build901 2013/11/27)

>  <Rbt.Parameter_File>
/export/apps/rDock/src/rDock_2013.1_src/data/scripts/dock_solv.prm

>  <Rbt.Receptor>
prm/pocket_docking_6.prm

>  <SCORE>
-19.8712

>  <SCORE.INTER>
-21.1727

>  <SCORE.INTER.CONST>
1

>  <SCORE.INTER.POLAR>
0

>  <SCORE.INTER.ROT>
4

>  <SCORE.INTER.SOLV>
11.0706

>  <SCORE.INTER.VDW>
-24.072

>  <SCORE.INTER.norm>
-1.17626

>  <SCORE.INTRA>
1.30152

>  <SCORE.INTRA.DIHEDRAL>
1.51868

>  <SCORE.INTRA.DIHEDRAL.0>
3.20029

>  <SCORE.INTRA.POLAR>
0

>  <SCORE.INTRA.POLAR.0>
0

>  <SCORE.INTRA.REPUL>
0

>  <SCORE.INTRA.REPUL.0>
0

>  <SCORE.INTRA.SOLV>
0.121445

>  <SCORE.INTRA.SOLV.lig_0>
-19.3885

>  <SCORE.INTRA.VDW>
0.481458

>  <SCORE.INTRA.VDW.0>
-1.12705

>  <SCORE.INTRA.norm>
0.0723068

>  <SCORE.RESTR>
0

>  <SCORE.RESTR.CAVITY>
0

>  <SCORE.RESTR.norm>
0

>  <SCORE.SYSTEM>
0

>  <SCORE.SYSTEM.CONST>
0

>  <SCORE.SYSTEM.DIHEDRAL>
0

>  <SCORE.SYSTEM.SOLV>
0

>  <SCORE.SYSTEM.norm>
0

>  <SCORE.heavy>
18

>  <SCORE.norm>
-1.10396

>  <RMSD>
7.427

$$$$
lig.pdb
 OpenBabel11021811503D
libRbt.so/2013.1/901 2013/11/27
 18 19  0  0  0  0  0  0  0  0999 V2000
   -5.8502    8.8199    4.3085 C   0  0  0  0  0  0  0  0  0  0  0  0
   -8.6259    9.6075    0.4088 N   0  0  0  0  0  0  0  0  0  0  0  0
   -9.7336   15.1192    1.6073 C   0  0  0  0  0  0  0  0  0  0  0  0
  -14.1798   17.5830    3.4692 O   0  0  0  0  0  0  0  0  0  0  0  0
  -13.7478   16.3122    3.0030 C   0  0  0  0  0  0  0  0  0  0  0  0
  -12.2206   16.1782    3.1594 C   0  0  0  0  0  0  0  0  0  0  0  0
  -11.6850   12.0972    2.6423 C   0  0  0  0  0  0  0  0  0  0  0  0
  -12.7415   13.2764    3.3476 S   0  0  0  0  0  0  0  0  0  0  0  0
  -11.8494   14.7396    2.8747 C   0  0  0  0  0  0  0  0  0  0  0  0
  -10.7826   14.1954    2.2033 C   0  0  0  0  0  0  0  0  0  0  0  0
  -10.7227   12.8324    2.1002 N   0  0  0  0  0  0  0  0  0  0  0  0
   -9.5998   12.1498    1.3644 C   0  0  0  0  0  0  0  0  0  0  0  0
   -8.1718   10.0462    1.6525 C   0  0  0  0  0  0  0  0  0  0  0  0
   -7.2886    9.2800    2.3629 N   0  0  0  0  0  0  0  0  0  0  0  0
   -6.8373    9.6791    3.5549 C   0  0  0  0  0  0  0  0  0  0  0  0
   -7.2425   10.8378    4.0828 N   0  0  0  0  0  0  0  0  0  0  0  0
   -8.1151   11.6524    3.4345 C   0  0  0  0  0  0  0  0  0  0  0  0
   -8.6183   11.2921    2.1795 C   0  0  0  0  0  0  0  0  0  0  0  0
  5  4  1  0  0  0  0
  5  6  1  0  0  0  0
  7  8  2  0  0  0  0
  7 11  1  0  0  0  0
  8  9  1  0  0  0  0
  9 10  2  0  0  0  0
  9  6  1  0  0  0  0
 10  3  1  0  0  0  0
 11 12  1  0  0  0  0
 11 10  1  0  0  0  0
 12 18  1  0  0  0  0
 13  2  1  0  0  0  0
 13 14  2  0  0  0  0
 15 14  1  0  0  0  0
 15  1  1  0  0  0  0
 16 15  2  0  0  0  0
 17 18  2  0  0  0  0
 17 16  1  0  0  0  0
 18 13  1  0  0  0  0
M  END
>  <CHROM.1>
170.50021199,-39.08752633,-67.66591546,138.95979416,-10.12663082,12.64981843
2.71263917,-0.47296297,-0.68053130,0.91846994

>  <Name>
lig.pdb

>  <RI>
0

>  <Rbt.Current_Directory>
/home/itssahil/PROJECTS/Mol_Feturizer/New_Systems/rnas/4nyg

>  <Rbt.Executable>
rbdock ($Id: //depot/dev/client3/rdock/2013.1/src/exe/rbdock.cxx#4 $)

>  <Rbt.Library>
libRbt.so (2013.1, Build901 2013/11/27)

>  <Rbt.Parameter_File>
/export/apps/rDock/src/rDock_2013.1_src/data/scripts/dock_solv.prm

>  <Rbt.Receptor>
prm/pocket_docking_5.prm

>  <SCORE>
-25.2641

>  <SCORE.INTER>
-25.9887

>  <SCORE.INTER.CONST>
1

>  <SCORE.INTER.POLAR>
0

>  <SCORE.INTER.ROT>
4

>  <SCORE.INTER.SOLV>
17.0904

>  <SCORE.INTER.VDW>
-29.2893

>  <SCORE.INTER.norm>
-1.44382

>  <SCORE.INTRA>
0.320781

>  <SCORE.INTRA.DIHEDRAL>
0.949704

>  <SCORE.INTRA.DIHEDRAL.0>
3.20029

>  <SCORE.INTRA.POLAR>
0

>  <SCORE.INTRA.POLAR.0>
0

>  <SCORE.INTRA.REPUL>
0

>  <SCORE.INTRA.REPUL.0>
0

>  <SCORE.INTRA.SOLV>
-0.0175046

>  <SCORE.INTRA.SOLV.lig_0>
-19.3885

>  <SCORE.INTRA.VDW>
-0.145318

>  <SCORE.INTRA.VDW.0>
-1.12705

>  <SCORE.INTRA.norm>
0.0178212

>  <SCORE.RESTR>
0.403879

>  <SCORE.RESTR.CAVITY>
0.403879

>  <SCORE.RESTR.norm>
0.0224377

>  <SCORE.SYSTEM>
0

>  <SCORE.SYSTEM.CONST>
0

>  <SCORE.SYSTEM.DIHEDRAL>
0

>  <SCORE.SYSTEM.SOLV>
0

>  <SCORE.SYSTEM.norm>
0

>  <SCORE.heavy>
18

>  <SCORE.norm>
-1.40356

>  <RMSD>
7.428

$$$$
lig.pdb
 OpenBabel11021811503D
libRbt.so/2013.1/901 2013/11/27
 18 19  0  0  0  0  0  0  0  0999 V2000
   -4.5258   16.4393   -0.0153 C   0  0  0  0  0  0  0  0  0  0  0  0
   -8.7367   14.1073   -0.6176 N   0  0  0  0  0  0  0  0  0  0  0  0
  -11.8430   12.5746    2.8725 C   0  0  0  0  0  0  0  0  0  0  0  0
  -14.6875   16.9678    3.4858 O   0  0  0  0  0  0  0  0  0  0  0  0
  -14.6778   15.7129    4.1523 C   0  0  0  0  0  0  0  0  0  0  0  0
  -14.1832   14.6073    3.1994 C   0  0  0  0  0  0  0  0  0  0  0  0
  -10.3779   15.9638    2.2575 C   0  0  0  0  0  0  0  0  0  0  0  0
  -12.0022   16.4918    2.5522 S   0  0  0  0  0  0  0  0  0  0  0  0
  -12.7403   14.9030    2.8548 C   0  0  0  0  0  0  0  0  0  0  0  0
  -11.6588   14.0725    2.6953 C   0  0  0  0  0  0  0  0  0  0  0  0
  -10.4553   14.6455    2.3866 N   0  0  0  0  0  0  0  0  0  0  0  0
   -9.2117   13.8139    2.2132 C   0  0  0  0  0  0  0  0  0  0  0  0
   -7.7760   14.6195    0.2543 C   0  0  0  0  0  0  0  0  0  0  0  0
   -6.6657   15.2421   -0.2471 N   0  0  0  0  0  0  0  0  0  0  0  0
   -5.7327   15.7427    0.5669 C   0  0  0  0  0  0  0  0  0  0  0  0
   -5.8622   15.6431    1.8930 N   0  0  0  0  0  0  0  0  0  0  0  0
   -6.9384   15.0416    2.4631 C   0  0  0  0  0  0  0  0  0  0  0  0
   -7.9525   14.5034    1.6631 C   0  0  0  0  0  0  0  0  0  0  0  0
  5  4  1  0  0  0  0
  5  6  1  0  0  0  0
  7  8  2  0  0  0  0
  7 11  1  0  0  0  0
  8  9  1  0  0  0  0
  9 10  2  0  0  0  0
  9  6  1  0  0  0  0
 10  3  1  0  0  0  0
 11 12  1  0  0  0  0
 11 10  1  0  0  0  0
 12 18  1  0  0  0  0
 13  2  1  0  0  0  0
 13 14  2  0  0  0  0
 15 14  1  0  0  0  0
 15  1  1  0  0  0  0
 16 15  2  0  0  0  0
 17 18  2  0  0  0  0
 17 16  1  0  0  0  0
 18 13  1  0  0  0  0
M  END
>  <CHROM.1>
64.88093082,-38.60739403,-10.04656865,-85.53067097,-9.98928367,15.17702367
1.98417808,-0.04003449,0.34259362,0.08076651

>  <Name>
lig.pdb

>  <RI>
0

>  <Rbt.Current_Directory>
/home/itssahil/PROJECTS/Mol_Feturizer/New_Systems/rnas/4nyg

>  <Rbt.Executable>
rbdock ($Id: //depot/dev/client3/rdock/2013.1/src/exe/rbdock.cxx#4 $)

>  <Rbt.Library>
libRbt.so (2013.1, Build901 2013/11/27)

>  <Rbt.Parameter_File>
/export/apps/rDock/src/rDock_2013.1_src/data/scripts/dock_solv.prm

>  <Rbt.Receptor>
prm/pocket_docking_8.prm

>  <SCORE>
-21.6723

>  <SCORE.INTER>
-22.81

>  <SCORE.INTER.CONST>
1

>  <SCORE.INTER.POLAR>
0

>  <SCORE.INTER.ROT>
4

>  <SCORE.INTER.SOLV>
12.6181

>  <SCORE.INTER.VDW>
-25.6794

>  <SCORE.INTER.norm>
-1.26722

>  <SCORE.INTRA>
1.13772

>  <SCORE.INTRA.DIHEDRAL>
0.790435

>  <SCORE.INTRA.DIHEDRAL.0>
3.20029

>  <SCORE.INTRA.POLAR>
0

>  <SCORE.INTRA.POLAR.0>
0

>  <SCORE.INTRA.REPUL>
0

>  <SCORE.INTRA.REPUL.0>
0

>  <SCORE.INTRA.SOLV>
0.781335

>  <SCORE.INTRA.SOLV.lig_0>
-19.3885

>  <SCORE.INTRA.VDW>
0.351838

>  <SCORE.INTRA.VDW.0>
-1.12705

>  <SCORE.INTRA.norm>
0.0632068

>  <SCORE.RESTR>
0

>  <SCORE.RESTR.CAVITY>
0

>  <SCORE.RESTR.norm>
0

>  <SCORE.SYSTEM>
0

>  <SCORE.SYSTEM.CONST>
0

>  <SCORE.SYSTEM.DIHEDRAL>
0

>  <SCORE.SYSTEM.SOLV>
0

>  <SCORE.SYSTEM.norm>
0

>  <SCORE.heavy>
18

>  <SCORE.norm>
-1.20402

>  <RMSD>
7.432

$$$$
lig.pdb
 OpenBabel11021811503D
libRbt.so/2013.1/901 2013/11/27
 18 19  0  0  0  0  0  0  0  0999 V2000
   -6.1547    9.1841    4.1141 C   0  0  0  0  0  0  0  0  0  0  0  0
   -7.6917   13.7380    3.4569 N   0  0  0  0  0  0  0  0  0  0  0  0
  -10.0246   15.9396    1.8040 C   0  0  0  0  0  0  0  0  0  0  0  0
  -14.6777   16.4191    2.1343 O   0  0  0  0  0  0  0  0  0  0  0  0
  -14.1494   16.5722    3.4444 C   0  0  0  0  0  0  0  0  0  0  0  0
  -12.6110   16.6468    3.3933 C   0  0  0  0  0  0  0  0  0  0  0  0
  -11.6525   12.6785    2.6567 C   0  0  0  0  0  0  0  0  0  0  0  0
  -12.8273   13.7006    3.4178 S   0  0  0  0  0  0  0  0  0  0  0  0
  -12.0916   15.2725    3.0327 C   0  0  0  0  0  0  0  0  0  0  0  0
  -10.9728   14.8802    2.3404 C   0  0  0  0  0  0  0  0  0  0  0  0
  -10.7710   13.5386    2.1630 N   0  0  0  0  0  0  0  0  0  0  0  0
   -9.5819   13.0182    1.3993 C   0  0  0  0  0  0  0  0  0  0  0  0
   -7.7709   12.3932    3.0955 C   0  0  0  0  0  0  0  0  0  0  0  0
   -6.9750   11.4729    3.7211 N   0  0  0  0  0  0  0  0  0  0  0  0
   -7.0338   10.1792    3.3946 C   0  0  0  0  0  0  0  0  0  0  0  0
   -7.8716    9.7547    2.4443 N   0  0  0  0  0  0  0  0  0  0  0  0
   -8.6942   10.6094    1.7824 C   0  0  0  0  0  0  0  0  0  0  0  0
   -8.6833   11.9757    2.0843 C   0  0  0  0  0  0  0  0  0  0  0  0
  5  4  1  0  0  0  0
  5  6  1  0  0  0  0
  7  8  2  0  0  0  0
  7 11  1  0  0  0  0
  8  9  1  0  0  0  0
  9 10  2  0  0  0  0
  9  6  1  0  0  0  0
 10  3  1  0  0  0  0
 11 12  1  0  0  0  0
 11 10  1  0  0  0  0
 12 18  1  0  0  0  0
 13  2  1  0  0  0  0
 13 14  2  0  0  0  0
 15 14  1  0  0  0  0
 15  1  1  0  0  0  0
 16 15  2  0  0  0  0
 17 18  2  0  0  0  0
 17 16  1  0  0  0  0
 18 13  1  0  0  0  0
M  END
>  <CHROM.1>
-70.63565564,-30.51888142,-54.51118339,-75.94294993,-10.25308874,13.29595787
2.81564321,0.71562221,-0.01754596,3.06882162

>  <Name>
lig.pdb

>  <RI>
0

>  <Rbt.Current_Directory>
/home/itssahil/PROJECTS/Mol_Feturizer/New_Systems/rnas/4nyg

>  <Rbt.Executable>
rbdock ($Id: //depot/dev/client3/rdock/2013.1/src/exe/rbdock.cxx#4 $)

>  <Rbt.Library>
libRbt.so (2013.1, Build901 2013/11/27)

>  <Rbt.Parameter_File>
/export/apps/rDock/src/rDock_2013.1_src/data/scripts/dock_solv.prm

>  <Rbt.Receptor>
prm/pocket_docking_5.prm

>  <SCORE>
-22.7301

>  <SCORE.INTER>
-23.7271

>  <SCORE.INTER.CONST>
1

>  <SCORE.INTER.POLAR>
0

>  <SCORE.INTER.ROT>
4

>  <SCORE.INTER.SOLV>
13.101

>  <SCORE.INTER.VDW>
-26.4517

>  <SCORE.INTER.norm>
-1.31817

>  <SCORE.INTRA>
0.995891

>  <SCORE.INTRA.DIHEDRAL>
1.65505

>  <SCORE.INTRA.DIHEDRAL.0>
3.20029

>  <SCORE.INTRA.POLAR>
0

>  <SCORE.INTRA.POLAR.0>
0

>  <SCORE.INTRA.REPUL>
0

>  <SCORE.INTRA.REPUL.0>
0

>  <SCORE.INTRA.SOLV>
1.12393

>  <SCORE.INTRA.SOLV.lig_0>
-19.3885

>  <SCORE.INTRA.VDW>
-0.393596

>  <SCORE.INTRA.VDW.0>
-1.12705

>  <SCORE.INTRA.norm>
0.0553273

>  <SCORE.RESTR>
0.0010698

>  <SCORE.RESTR.CAVITY>
0.0010698

>  <SCORE.RESTR.norm>
5.94333e-05

>  <SCORE.SYSTEM>
0

>  <SCORE.SYSTEM.CONST>
0

>  <SCORE.SYSTEM.DIHEDRAL>
0

>  <SCORE.SYSTEM.SOLV>
0

>  <SCORE.SYSTEM.norm>
0

>  <SCORE.heavy>
18

>  <SCORE.norm>
-1.26278

>  <RMSD>
7.435

$$$$
lig.pdb
 OpenBabel11021811503D
libRbt.so/2013.1/901 2013/11/27
 18 19  0  0  0  0  0  0  0  0999 V2000
   -4.5036   16.4040    0.0557 C   0  0  0  0  0  0  0  0  0  0  0  0
   -8.7402   14.1404   -0.6221 N   0  0  0  0  0  0  0  0  0  0  0  0
  -11.8693   12.5490    2.8396 C   0  0  0  0  0  0  0  0  0  0  0  0
  -14.6874   16.9558    3.4908 O   0  0  0  0  0  0  0  0  0  0  0  0
  -14.6837   15.6954    4.1467 C   0  0  0  0  0  0  0  0  0  0  0  0
  -14.1950   14.5953    3.1845 C   0  0  0  0  0  0  0  0  0  0  0  0
  -10.3780   15.9337    2.2638 C   0  0  0  0  0  0  0  0  0  0  0  0
  -11.9989   16.4705    2.5614 S   0  0  0  0  0  0  0  0  0  0  0  0
  -12.7493   14.8841    2.8456 C   0  0  0  0  0  0  0  0  0  0  0  0
  -11.6737   14.0473    2.6789 C   0  0  0  0  0  0  0  0  0  0  0  0
  -10.4654   14.6147    2.3785 N   0  0  0  0  0  0  0  0  0  0  0  0
   -9.2278   13.7758    2.1982 C   0  0  0  0  0  0  0  0  0  0  0  0
   -7.7762   14.6170    0.2662 C   0  0  0  0  0  0  0  0  0  0  0  0
   -6.6569   15.2396   -0.2148 N   0  0  0  0  0  0  0  0  0  0  0  0
   -5.7205   15.7065    0.6153 C   0  0  0  0  0  0  0  0  0  0  0  0
   -5.8555   15.5724    1.9378 N   0  0  0  0  0  0  0  0  0  0  0  0
   -6.9407   14.9686    2.4882 C   0  0  0  0  0  0  0  0  0  0  0  0
   -7.9586   14.4647    1.6708 C   0  0  0  0  0  0  0  0  0  0  0  0
  5  4  1  0  0  0  0
  5  6  1  0  0  0  0
  7  8  2  0  0  0  0
  7 11  1  0  0  0  0
  8  9  1  0  0  0  0
  9 10  2  0  0  0  0
  9  6  1  0  0  0  0
 10  3  1  0  0  0  0
 11 12  1  0  0  0  0
 11 10  1  0  0  0  0
 12 18  1  0  0  0  0
 13  2  1  0  0  0  0
 13 14  2  0  0  0  0
 15 14  1  0  0  0  0
 15  1  1  0  0  0  0
 16 15  2  0  0  0  0
 17 18  2  0  0  0  0
 17 16  1  0  0  0  0
 18 13  1  0  0  0  0
M  END
>  <CHROM.1>
65.07903265,-38.52455148,-9.46025328,-84.97244880,-9.99177661,15.15211409
1.99283387,-0.04343405,0.33604522,0.08733233

>  <Name>
lig.pdb

>  <RI>
0

>  <Rbt.Current_Directory>
/home/itssahil/PROJECTS/Mol_Feturizer/New_Systems/rnas/4nyg

>  <Rbt.Executable>
rbdock ($Id: //depot/dev/client3/rdock/2013.1/src/exe/rbdock.cxx#4 $)

>  <Rbt.Library>
libRbt.so (2013.1, Build901 2013/11/27)

>  <Rbt.Parameter_File>
/export/apps/rDock/src/rDock_2013.1_src/data/scripts/dock_solv.prm

>  <Rbt.Receptor>
prm/pocket_docking_5.prm

>  <SCORE>
-21.7173

>  <SCORE.INTER>
-22.8407

>  <SCORE.INTER.CONST>
1

>  <SCORE.INTER.POLAR>
0

>  <SCORE.INTER.ROT>
4

>  <SCORE.INTER.SOLV>
12.5809

>  <SCORE.INTER.VDW>
-25.6874

>  <SCORE.INTER.norm>
-1.26893

>  <SCORE.INTRA>
1.12336

>  <SCORE.INTRA.DIHEDRAL>
0.801267

>  <SCORE.INTRA.DIHEDRAL.0>
3.20029

>  <SCORE.INTRA.POLAR>
0

>  <SCORE.INTRA.POLAR.0>
0

>  <SCORE.INTRA.REPUL>
0

>  <SCORE.INTRA.REPUL.0>
0

>  <SCORE.INTRA.SOLV>
0.789235

>  <SCORE.INTRA.SOLV.lig_0>
-19.3885

>  <SCORE.INTRA.VDW>
0.328107

>  <SCORE.INTRA.VDW.0>
-1.12705

>  <SCORE.INTRA.norm>
0.0624088

>  <SCORE.RESTR>
0

>  <SCORE.RESTR.CAVITY>
0

>  <SCORE.RESTR.norm>
0

>  <SCORE.SYSTEM>
0

>  <SCORE.SYSTEM.CONST>
0

>  <SCORE.SYSTEM.DIHEDRAL>
0

>  <SCORE.SYSTEM.SOLV>
0

>  <SCORE.SYSTEM.norm>
0

>  <SCORE.heavy>
18

>  <SCORE.norm>
-1.20652

>  <RMSD>
7.437

$$$$
lig.pdb
 OpenBabel11021811503D
libRbt.so/2013.1/901 2013/11/27
 18 19  0  0  0  0  0  0  0  0999 V2000
   -4.5343   16.4174    0.0480 C   0  0  0  0  0  0  0  0  0  0  0  0
   -8.7559   14.1359   -0.6629 N   0  0  0  0  0  0  0  0  0  0  0  0
  -11.9056   12.5644    2.8399 C   0  0  0  0  0  0  0  0  0  0  0  0
  -14.7060   16.9848    3.4984 O   0  0  0  0  0  0  0  0  0  0  0  0
  -14.6934   15.7361    4.1763 C   0  0  0  0  0  0  0  0  0  0  0  0
  -14.2170   14.6193    3.2274 C   0  0  0  0  0  0  0  0  0  0  0  0
  -10.4114   15.9439    2.2417 C   0  0  0  0  0  0  0  0  0  0  0  0
  -12.0248   16.4867    2.5680 S   0  0  0  0  0  0  0  0  0  0  0  0
  -12.7763   14.9028    2.8636 C   0  0  0  0  0  0  0  0  0  0  0  0
  -11.7070   14.0621    2.6773 C   0  0  0  0  0  0  0  0  0  0  0  0
  -10.5019   14.6251    2.3566 N   0  0  0  0  0  0  0  0  0  0  0  0
   -9.2708   13.7817    2.1538 C   0  0  0  0  0  0  0  0  0  0  0  0
   -7.8026   14.6197    0.2330 C   0  0  0  0  0  0  0  0  0  0  0  0
   -6.6807   15.2442   -0.2393 N   0  0  0  0  0  0  0  0  0  0  0  0
   -5.7545   15.7180    0.5982 C   0  0  0  0  0  0  0  0  0  0  0  0
   -5.9024   15.5891    1.9199 N   0  0  0  0  0  0  0  0  0  0  0  0
   -6.9911   14.9839    2.4618 C   0  0  0  0  0  0  0  0  0  0  0  0
   -7.9988   14.4729    1.6363 C   0  0  0  0  0  0  0  0  0  0  0  0
  5  4  1  0  0  0  0
  5  6  1  0  0  0  0
  7  8  2  0  0  0  0
  7 11  1  0  0  0  0
  8  9  1  0  0  0  0
  9 10  2  0  0  0  0
  9  6  1  0  0  0  0
 10  3  1  0  0  0  0
 11 12  1  0  0  0  0
 11 10  1  0  0  0  0
 12 18  1  0  0  0  0
 13  2  1  0  0  0  0
 13 14  2  0  0  0  0
 15 14  1  0  0  0  0
 15  1  1  0  0  0  0
 16 15  2  0  0  0  0
 17 18  2  0  0  0  0
 17 16  1  0  0  0  0
 18 13  1  0  0  0  0
M  END
>  <CHROM.1>
65.02218154,-37.38523036,-8.05195559,-86.74333178,-10.02198584,15.16656788
1.98403191,-0.05103473,0.34130149,0.10197372

>  <Name>
lig.pdb

>  <RI>
0

>  <Rbt.Current_Directory>
/home/itssahil/PROJECTS/Mol_Feturizer/New_Systems/rnas/4nyg

>  <Rbt.Executable>
rbdock ($Id: //depot/dev/client3/rdock/2013.1/src/exe/rbdock.cxx#4 $)

>  <Rbt.Library>
libRbt.so (2013.1, Build901 2013/11/27)

>  <Rbt.Parameter_File>
/export/apps/rDock/src/rDock_2013.1_src/data/scripts/dock_solv.prm

>  <Rbt.Receptor>
prm/pocket_docking_4.prm

>  <SCORE>
-21.7184

>  <SCORE.INTER>
-22.9222

>  <SCORE.INTER.CONST>
1

>  <SCORE.INTER.POLAR>
0

>  <SCORE.INTER.ROT>
4

>  <SCORE.INTER.SOLV>
12.735

>  <SCORE.INTER.VDW>
-25.7931

>  <SCORE.INTER.norm>
-1.27346

>  <SCORE.INTRA>
1.20378

>  <SCORE.INTRA.DIHEDRAL>
0.86787

>  <SCORE.INTRA.DIHEDRAL.0>
3.20029

>  <SCORE.INTRA.POLAR>
0

>  <SCORE.INTRA.POLAR.0>
0

>  <SCORE.INTRA.REPUL>
0

>  <SCORE.INTRA.REPUL.0>
0

>  <SCORE.INTRA.SOLV>
0.764061

>  <SCORE.INTRA.SOLV.lig_0>
-19.3885

>  <SCORE.INTRA.VDW>
0.387818

>  <SCORE.INTRA.VDW.0>
-1.12705

>  <SCORE.INTRA.norm>
0.0668769

>  <SCORE.RESTR>
0

>  <SCORE.RESTR.CAVITY>
0

>  <SCORE.RESTR.norm>
0

>  <SCORE.SYSTEM>
0

>  <SCORE.SYSTEM.CONST>
0

>  <SCORE.SYSTEM.DIHEDRAL>
0

>  <SCORE.SYSTEM.SOLV>
0

>  <SCORE.SYSTEM.norm>
0

>  <SCORE.heavy>
18

>  <SCORE.norm>
-1.20658

>  <RMSD>
7.448

$$$$
lig.pdb
 OpenBabel11021811503D
libRbt.so/2013.1/901 2013/11/27
 18 19  0  0  0  0  0  0  0  0999 V2000
   -5.1265   18.3983   -0.3488 C   0  0  0  0  0  0  0  0  0  0  0  0
   -6.4795   13.9403    1.0032 N   0  0  0  0  0  0  0  0  0  0  0  0
  -11.1698   12.7029    2.4111 C   0  0  0  0  0  0  0  0  0  0  0  0
  -14.5930   16.1875    4.4532 O   0  0  0  0  0  0  0  0  0  0  0  0
  -14.8336   14.9817    3.7411 C   0  0  0  0  0  0  0  0  0  0  0  0
  -13.5976   14.0641    3.8140 C   0  0  0  0  0  0  0  0  0  0  0  0
  -10.7802   16.3816    1.8392 C   0  0  0  0  0  0  0  0  0  0  0  0
  -12.2548   16.4689    2.7457 S   0  0  0  0  0  0  0  0  0  0  0  0
  -12.4787   14.7308    3.0446 C   0  0  0  0  0  0  0  0  0  0  0  0
  -11.3827   14.2074    2.4045 C   0  0  0  0  0  0  0  0  0  0  0  0
  -10.5259   15.0802    1.7912 N   0  0  0  0  0  0  0  0  0  0  0  0
   -9.2879   14.5970    1.0826 C   0  0  0  0  0  0  0  0  0  0  0  0
   -6.8452   15.2489    0.6881 C   0  0  0  0  0  0  0  0  0  0  0  0
   -5.8835   16.1604    0.3474 N   0  0  0  0  0  0  0  0  0  0  0  0
   -6.2083   17.4187    0.0394 C   0  0  0  0  0  0  0  0  0  0  0  0
   -7.4836   17.8169    0.0605 N   0  0  0  0  0  0  0  0  0  0  0  0
   -8.4925   16.9675    0.3858 C   0  0  0  0  0  0  0  0  0  0  0  0
   -8.2162   15.6350    0.7118 C   0  0  0  0  0  0  0  0  0  0  0  0
  5  4  1  0  0  0  0
  5  6  1  0  0  0  0
  7  8  2  0  0  0  0
  7 11  1  0  0  0  0
  8  9  1  0  0  0  0
  9 10  2  0  0  0  0
  9  6  1  0  0  0  0
 10  3  1  0  0  0  0
 11 12  1  0  0  0  0
 11 10  1  0  0  0  0
 12 18  1  0  0  0  0
 13  2  1  0  0  0  0
 13 14  2  0  0  0  0
 15 14  1  0  0  0  0
 15  1  1  0  0  0  0
 16 15  2  0  0  0  0
 17 18  2  0  0  0  0
 17 16  1  0  0  0  0
 18 13  1  0  0  0  0
M  END
>  <CHROM.1>
-66.90376864,26.36737926,13.12191655,148.42274048,-9.98311249,15.67134808
1.78402234,0.24461201,0.41404672,-0.10493660

>  <Name>
lig.pdb

>  <RI>
0

>  <Rbt.Current_Directory>
/home/itssahil/PROJECTS/Mol_Feturizer/New_Systems/rnas/4nyg

>  <Rbt.Executable>
rbdock ($Id: //depot/dev/client3/rdock/2013.1/src/exe/rbdock.cxx#4 $)

>  <Rbt.Library>
libRbt.so (2013.1, Build901 2013/11/27)

>  <Rbt.Parameter_File>
/export/apps/rDock/src/rDock_2013.1_src/data/scripts/dock_solv.prm

>  <Rbt.Receptor>
prm/blind_docking_60.prm

>  <SCORE>
-16.8406

>  <SCORE.INTER>
-20.1678

>  <SCORE.INTER.CONST>
1

>  <SCORE.INTER.POLAR>
0

>  <SCORE.INTER.ROT>
4

>  <SCORE.INTER.SOLV>
11.8265

>  <SCORE.INTER.VDW>
-23.654

>  <SCORE.INTER.norm>
-1.12043

>  <SCORE.INTRA>
3.31074

>  <SCORE.INTRA.DIHEDRAL>
1.6682

>  <SCORE.INTRA.DIHEDRAL.0>
3.20029

>  <SCORE.INTRA.POLAR>
0

>  <SCORE.INTRA.POLAR.0>
0

>  <SCORE.INTRA.REPUL>
0

>  <SCORE.INTRA.REPUL.0>
0

>  <SCORE.INTRA.SOLV>
0.506775

>  <SCORE.INTRA.SOLV.lig_0>
-19.3885

>  <SCORE.INTRA.VDW>
2.22325

>  <SCORE.INTRA.VDW.0>
-1.12705

>  <SCORE.INTRA.norm>
0.18393

>  <SCORE.RESTR>
0.0164895

>  <SCORE.RESTR.CAVITY>
0.0164895

>  <SCORE.RESTR.norm>
0.000916082

>  <SCORE.SYSTEM>
0

>  <SCORE.SYSTEM.CONST>
0

>  <SCORE.SYSTEM.DIHEDRAL>
0

>  <SCORE.SYSTEM.SOLV>
0

>  <SCORE.SYSTEM.norm>
0

>  <SCORE.heavy>
18

>  <SCORE.norm>
-0.935589

>  <RMSD>
7.450

$$$$
lig.pdb
 OpenBabel11021811503D
libRbt.so/2013.1/901 2013/11/27
 18 19  0  0  0  0  0  0  0  0999 V2000
   -5.4864   17.0185    1.9973 C   0  0  0  0  0  0  0  0  0  0  0  0
   -8.6566   14.1199   -0.2566 N   0  0  0  0  0  0  0  0  0  0  0  0
  -10.6444   16.0971    1.8600 C   0  0  0  0  0  0  0  0  0  0  0  0
  -15.3840   16.0246    4.1566 O   0  0  0  0  0  0  0  0  0  0  0  0
  -14.3246   16.9679    4.0736 C   0  0  0  0  0  0  0  0  0  0  0  0
  -13.5501   16.7847    2.7539 C   0  0  0  0  0  0  0  0  0  0  0  0
  -12.1439   12.8967    3.0932 C   0  0  0  0  0  0  0  0  0  0  0  0
  -13.5284   13.8983    3.3832 S   0  0  0  0  0  0  0  0  0  0  0  0
  -12.8586   15.4402    2.8047 C   0  0  0  0  0  0  0  0  0  0  0  0
  -11.5937   15.0578    2.4323 C   0  0  0  0  0  0  0  0  0  0  0  0
  -11.2523   13.7426    2.5932 N   0  0  0  0  0  0  0  0  0  0  0  0
   -9.8938   13.2300    2.1934 C   0  0  0  0  0  0  0  0  0  0  0  0
   -8.1534   14.6268    0.9414 C   0  0  0  0  0  0  0  0  0  0  0  0
   -7.1174   15.5201    0.9199 N   0  0  0  0  0  0  0  0  0  0  0  0
   -6.6194   16.0216    2.0532 C   0  0  0  0  0  0  0  0  0  0  0  0
   -7.1217   15.6580    3.2367 N   0  0  0  0  0  0  0  0  0  0  0  0
   -8.1522   14.7785    3.3363 C   0  0  0  0  0  0  0  0  0  0  0  0
   -8.7207   14.2236    2.1844 C   0  0  0  0  0  0  0  0  0  0  0  0
  5  4  1  0  0  0  0
  5  6  1  0  0  0  0
  7  8  2  0  0  0  0
  7 11  1  0  0  0  0
  8  9  1  0  0  0  0
  9 10  2  0  0  0  0
  9  6  1  0  0  0  0
 10  3  1  0  0  0  0
 11 12  1  0  0  0  0
 11 10  1  0  0  0  0
 12 18  1  0  0  0  0
 13  2  1  0  0  0  0
 13 14  2  0  0  0  0
 15 14  1  0  0  0  0
 15  1  1  0  0  0  0
 16 15  2  0  0  0  0
 17 18  2  0  0  0  0
 17 16  1  0  0  0  0
 18 13  1  0  0  0  0
M  END
>  <CHROM.1>
-66.41778240,42.99974022,-154.89244476,-110.04454015,-10.56139257,15.06276638
2.51309345,-0.03211667,0.24925076,0.25144264

>  <Name>
lig.pdb

>  <RI>
0

>  <Rbt.Current_Directory>
/home/itssahil/PROJECTS/Mol_Feturizer/New_Systems/rnas/4nyg

>  <Rbt.Executable>
rbdock ($Id: //depot/dev/client3/rdock/2013.1/src/exe/rbdock.cxx#4 $)

>  <Rbt.Library>
libRbt.so (2013.1, Build901 2013/11/27)

>  <Rbt.Parameter_File>
/export/apps/rDock/src/rDock_2013.1_src/data/scripts/dock_solv.prm

>  <Rbt.Receptor>
prm/blind_docking_60.prm

>  <SCORE>
-18.64

>  <SCORE.INTER>
-23.5799

>  <SCORE.INTER.CONST>
1

>  <SCORE.INTER.POLAR>
0

>  <SCORE.INTER.ROT>
4

>  <SCORE.INTER.SOLV>
12.7967

>  <SCORE.INTER.VDW>
-26.2521

>  <SCORE.INTER.norm>
-1.30999

>  <SCORE.INTRA>
4.51879

>  <SCORE.INTRA.DIHEDRAL>
0.646659

>  <SCORE.INTRA.DIHEDRAL.0>
3.20029

>  <SCORE.INTRA.POLAR>
0

>  <SCORE.INTRA.POLAR.0>
0

>  <SCORE.INTRA.REPUL>
0

>  <SCORE.INTRA.REPUL.0>
0

>  <SCORE.INTRA.SOLV>
1.25351

>  <SCORE.INTRA.SOLV.lig_0>
-19.3885

>  <SCORE.INTRA.VDW>
3.5687

>  <SCORE.INTRA.VDW.0>
-1.12705

>  <SCORE.INTRA.norm>
0.251044

>  <SCORE.RESTR>
0.421123

>  <SCORE.RESTR.CAVITY>
0.421123

>  <SCORE.RESTR.norm>
0.0233957

>  <SCORE.SYSTEM>
0

>  <SCORE.SYSTEM.CONST>
0

>  <SCORE.SYSTEM.DIHEDRAL>
0

>  <SCORE.SYSTEM.SOLV>
0

>  <SCORE.SYSTEM.norm>
0

>  <SCORE.heavy>
18

>  <SCORE.norm>
-1.03555

>  <RMSD>
7.451

$$$$
lig.pdb
 OpenBabel11021811503D
libRbt.so/2013.1/901 2013/11/27
 18 19  0  0  0  0  0  0  0  0999 V2000
   -5.7986    9.7890    4.8062 C   0  0  0  0  0  0  0  0  0  0  0  0
   -6.2652   13.0558    1.2505 N   0  0  0  0  0  0  0  0  0  0  0  0
  -11.8394   12.2546    2.3568 C   0  0  0  0  0  0  0  0  0  0  0  0
  -15.4502   15.9546    3.8912 O   0  0  0  0  0  0  0  0  0  0  0  0
  -14.2277   15.8459    3.1752 C   0  0  0  0  0  0  0  0  0  0  0  0
  -13.4504   14.5971    3.6345 C   0  0  0  0  0  0  0  0  0  0  0  0
   -9.6734   15.2937    2.0668 C   0  0  0  0  0  0  0  0  0  0  0  0
  -11.0127   16.0687    2.8477 S   0  0  0  0  0  0  0  0  0  0  0  0
  -12.0737   14.6516    3.0098 C   0  0  0  0  0  0  0  0  0  0  0  0
  -11.3020   13.6739    2.4323 C   0  0  0  0  0  0  0  0  0  0  0  0
  -10.0714   14.0329    1.9541 N   0  0  0  0  0  0  0  0  0  0  0  0
   -9.1494   13.0229    1.3233 C   0  0  0  0  0  0  0  0  0  0  0  0
   -6.8777   12.2048    2.1704 C   0  0  0  0  0  0  0  0  0  0  0  0
   -6.1097   11.4352    3.0008 N   0  0  0  0  0  0  0  0  0  0  0  0
   -6.6722   10.6142    3.8915 C   0  0  0  0  0  0  0  0  0  0  0  0
   -8.0017   10.5240    3.9890 N   0  0  0  0  0  0  0  0  0  0  0  0
   -8.8280   11.2593    3.2005 C   0  0  0  0  0  0  0  0  0  0  0  0
   -8.2985   12.1421    2.2527 C   0  0  0  0  0  0  0  0  0  0  0  0
  5  4  1  0  0  0  0
  5  6  1  0  0  0  0
  7  8  2  0  0  0  0
  7 11  1  0  0  0  0
  8  9  1  0  0  0  0
  9 10  2  0  0  0  0
  9  6  1  0  0  0  0
 10  3  1  0  0  0  0
 11 12  1  0  0  0  0
 11 10  1  0  0  0  0
 12 18  1  0  0  0  0
 13  2  1  0  0  0  0
 13 14  2  0  0  0  0
 15 14  1  0  0  0  0
 15  1  1  0  0  0  0
 16 15  2  0  0  0  0
 17 18  2  0  0  0  0
 17 16  1  0  0  0  0
 18 13  1  0  0  0  0
M  END
>  <CHROM.1>
-171.06477864,42.18832788,97.24597211,-119.13089647,-9.88280393,13.35865452
2.86634248,0.49876833,-0.31334355,2.61887648

>  <Name>
lig.pdb

>  <RI>
0

>  <Rbt.Current_Directory>
/home/itssahil/PROJECTS/Mol_Feturizer/New_Systems/rnas/4nyg

>  <Rbt.Executable>
rbdock ($Id: //depot/dev/client3/rdock/2013.1/src/exe/rbdock.cxx#4 $)

>  <Rbt.Library>
libRbt.so (2013.1, Build901 2013/11/27)

>  <Rbt.Parameter_File>
/export/apps/rDock/src/rDock_2013.1_src/data/scripts/dock_solv.prm

>  <Rbt.Receptor>
prm/pocket_docking_8.prm

>  <SCORE>
-20.7977

>  <SCORE.INTER>
-21.1576

>  <SCORE.INTER.CONST>
1

>  <SCORE.INTER.POLAR>
0

>  <SCORE.INTER.ROT>
4

>  <SCORE.INTER.SOLV>
11.305

>  <SCORE.INTER.VDW>
-24.1401

>  <SCORE.INTER.norm>
-1.17542

>  <SCORE.INTRA>
0.359939

>  <SCORE.INTRA.DIHEDRAL>
0.830373

>  <SCORE.INTRA.DIHEDRAL.0>
3.20029

>  <SCORE.INTRA.POLAR>
0

>  <SCORE.INTRA.POLAR.0>
0

>  <SCORE.INTRA.REPUL>
0

>  <SCORE.INTRA.REPUL.0>
0

>  <SCORE.INTRA.SOLV>
0.188016

>  <SCORE.INTRA.SOLV.lig_0>
-19.3885

>  <SCORE.INTRA.VDW>
-0.149255

>  <SCORE.INTRA.VDW.0>
-1.12705

>  <SCORE.INTRA.norm>
0.0199966

>  <SCORE.RESTR>
0

>  <SCORE.RESTR.CAVITY>
0

>  <SCORE.RESTR.norm>
0

>  <SCORE.SYSTEM>
0

>  <SCORE.SYSTEM.CONST>
0

>  <SCORE.SYSTEM.DIHEDRAL>
0

>  <SCORE.SYSTEM.SOLV>
0

>  <SCORE.SYSTEM.norm>
0

>  <SCORE.heavy>
18

>  <SCORE.norm>
-1.15543

>  <RMSD>
7.453

$$$$
lig.pdb
 OpenBabel11021811503D
libRbt.so/2013.1/901 2013/11/27
 18 19  0  0  0  0  0  0  0  0999 V2000
   -4.5005   16.3879    0.1237 C   0  0  0  0  0  0  0  0  0  0  0  0
   -8.7155   14.1791   -0.8184 N   0  0  0  0  0  0  0  0  0  0  0  0
  -11.9630   12.5551    2.7434 C   0  0  0  0  0  0  0  0  0  0  0  0
  -14.6713   17.0157    3.5366 O   0  0  0  0  0  0  0  0  0  0  0  0
  -14.6447   15.7727    4.2246 C   0  0  0  0  0  0  0  0  0  0  0  0
  -14.2172   14.6430    3.2677 C   0  0  0  0  0  0  0  0  0  0  0  0
  -10.4344   15.9182    2.1396 C   0  0  0  0  0  0  0  0  0  0  0  0
  -12.0218   16.4832    2.5458 S   0  0  0  0  0  0  0  0  0  0  0  0
  -12.7887   14.9077    2.8462 C   0  0  0  0  0  0  0  0  0  0  0  0
  -11.7441   14.0518    2.5986 C   0  0  0  0  0  0  0  0  0  0  0  0
  -10.5440   14.5994    2.2353 N   0  0  0  0  0  0  0  0  0  0  0  0
   -9.3386   13.7382    1.9641 C   0  0  0  0  0  0  0  0  0  0  0  0
   -7.7915   14.6223    0.1278 C   0  0  0  0  0  0  0  0  0  0  0  0
   -6.6464   15.2492   -0.2817 N   0  0  0  0  0  0  0  0  0  0  0  0
   -5.7473   15.6847    0.6048 C   0  0  0  0  0  0  0  0  0  0  0  0
   -5.9457   15.5140    1.9151 N   0  0  0  0  0  0  0  0  0  0  0  0
   -7.0599   14.9036    2.3959 C   0  0  0  0  0  0  0  0  0  0  0  0
   -8.0413   14.4316    1.5172 C   0  0  0  0  0  0  0  0  0  0  0  0
  5  4  1  0  0  0  0
  5  6  1  0  0  0  0
  7  8  2  0  0  0  0
  7 11  1  0  0  0  0
  8  9  1  0  0  0  0
  9 10  2  0  0  0  0
  9  6  1  0  0  0  0
 10  3  1  0  0  0  0
 11 12  1  0  0  0  0
 11 10  1  0  0  0  0
 12 18  1  0  0  0  0
 13  2  1  0  0  0  0
 13 14  2  0  0  0  0
 15 14  1  0  0  0  0
 15  1  1  0  0  0  0
 16 15  2  0  0  0  0
 17 18  2  0  0  0  0
 17 16  1  0  0  0  0
 18 13  1  0  0  0  0
M  END
>  <CHROM.1>
65.07347946,-35.79422495,-2.96820892,-90.62064809,-10.03039801,15.15509807
1.93704011,-0.07783264,0.34311196,0.16110175

>  <Name>
lig.pdb

>  <RI>
0

>  <Rbt.Current_Directory>
/home/itssahil/PROJECTS/Mol_Feturizer/New_Systems/rnas/4nyg

>  <Rbt.Executable>
rbdock ($Id: //depot/dev/client3/rdock/2013.1/src/exe/rbdock.cxx#4 $)

>  <Rbt.Library>
libRbt.so (2013.1, Build901 2013/11/27)

>  <Rbt.Parameter_File>
/export/apps/rDock/src/rDock_2013.1_src/data/scripts/dock_solv.prm

>  <Rbt.Receptor>
prm/pocket_docking_5.prm

>  <SCORE>
-21.6612

>  <SCORE.INTER>
-22.961

>  <SCORE.INTER.CONST>
1

>  <SCORE.INTER.POLAR>
0

>  <SCORE.INTER.ROT>
4

>  <SCORE.INTER.SOLV>
13.0649

>  <SCORE.INTER.VDW>
-25.929

>  <SCORE.INTER.norm>
-1.27561

>  <SCORE.INTRA>
1.29978

>  <SCORE.INTRA.DIHEDRAL>
0.958157

>  <SCORE.INTRA.DIHEDRAL.0>
3.20029

>  <SCORE.INTRA.POLAR>
0

>  <SCORE.INTRA.POLAR.0>
0

>  <SCORE.INTRA.REPUL>
0

>  <SCORE.INTRA.REPUL.0>
0

>  <SCORE.INTRA.SOLV>
0.737284

>  <SCORE.INTRA.SOLV.lig_0>
-19.3885

>  <SCORE.INTRA.VDW>
0.452064

>  <SCORE.INTRA.VDW.0>
-1.12705

>  <SCORE.INTRA.norm>
0.0722102

>  <SCORE.RESTR>
0

>  <SCORE.RESTR.CAVITY>
0

>  <SCORE.RESTR.norm>
0

>  <SCORE.SYSTEM>
0

>  <SCORE.SYSTEM.CONST>
0

>  <SCORE.SYSTEM.DIHEDRAL>
0

>  <SCORE.SYSTEM.SOLV>
0

>  <SCORE.SYSTEM.norm>
0

>  <SCORE.heavy>
18

>  <SCORE.norm>
-1.2034

>  <RMSD>
7.455

$$$$
lig.pdb
 OpenBabel11021811503D
libRbt.so/2013.1/901 2013/11/27
 18 19  0  0  0  0  0  0  0  0999 V2000
   -6.2516    9.5633    4.9502 C   0  0  0  0  0  0  0  0  0  0  0  0
   -7.6381   13.9815    3.5048 N   0  0  0  0  0  0  0  0  0  0  0  0
  -11.7454   12.1169    2.4031 C   0  0  0  0  0  0  0  0  0  0  0  0
  -15.4819   15.7301    3.9748 O   0  0  0  0  0  0  0  0  0  0  0  0
  -14.2915   15.6603    3.2020 C   0  0  0  0  0  0  0  0  0  0  0  0
  -13.4677   14.4212    3.6029 C   0  0  0  0  0  0  0  0  0  0  0  0
   -9.7875   15.2648    1.8846 C   0  0  0  0  0  0  0  0  0  0  0  0
  -11.1518   15.9966    2.6639 S   0  0  0  0  0  0  0  0  0  0  0  0
  -12.1150   14.5270    2.9340 C   0  0  0  0  0  0  0  0  0  0  0  0
  -11.2983   13.5691    2.3861 C   0  0  0  0  0  0  0  0  0  0  0  0
  -10.1067   13.9774    1.8517 N   0  0  0  0  0  0  0  0  0  0  0  0
   -9.1395   12.9936    1.2477 C   0  0  0  0  0  0  0  0  0  0  0  0
   -7.6559   12.6026    3.2955 C   0  0  0  0  0  0  0  0  0  0  0  0
   -6.9845   11.7758    4.1542 N   0  0  0  0  0  0  0  0  0  0  0  0
   -6.9882   10.4520    3.9765 C   0  0  0  0  0  0  0  0  0  0  0  0
   -7.6473    9.9050    2.9510 N   0  0  0  0  0  0  0  0  0  0  0  0
   -8.3388   10.6620    2.0600 C   0  0  0  0  0  0  0  0  0  0  0  0
   -8.3777   12.0541    2.1966 C   0  0  0  0  0  0  0  0  0  0  0  0
  5  4  1  0  0  0  0
  5  6  1  0  0  0  0
  7  8  2  0  0  0  0
  7 11  1  0  0  0  0
  8  9  1  0  0  0  0
  9 10  2  0  0  0  0
  9  6  1  0  0  0  0
 10  3  1  0  0  0  0
 11 12  1  0  0  0  0
 11 10  1  0  0  0  0
 12 18  1  0  0  0  0
 13  2  1  0  0  0  0
 13 14  2  0  0  0  0
 15 14  1  0  0  0  0
 15  1  1  0  0  0  0
 16 15  2  0  0  0  0
 17 18  2  0  0  0  0
 17 16  1  0  0  0  0
 18 13  1  0  0  0  0
M  END
>  <CHROM.1>
-170.21352453,37.13527315,107.26769277,-52.61828026,-10.06594276,13.29119589
2.95825458,0.62055382,-0.15799353,2.83608595

>  <Name>
lig.pdb

>  <RI>
0

>  <Rbt.Current_Directory>
/home/itssahil/PROJECTS/Mol_Feturizer/New_Systems/rnas/4nyg

>  <Rbt.Executable>
rbdock ($Id: //depot/dev/client3/rdock/2013.1/src/exe/rbdock.cxx#4 $)

>  <Rbt.Library>
libRbt.so (2013.1, Build901 2013/11/27)

>  <Rbt.Parameter_File>
/export/apps/rDock/src/rDock_2013.1_src/data/scripts/dock_solv.prm

>  <Rbt.Receptor>
prm/pocket_docking_6.prm

>  <SCORE>
-22.0701

>  <SCORE.INTER>
-22.6164

>  <SCORE.INTER.CONST>
1

>  <SCORE.INTER.POLAR>
0

>  <SCORE.INTER.ROT>
4

>  <SCORE.INTER.SOLV>
11.9558

>  <SCORE.INTER.VDW>
-25.3295

>  <SCORE.INTER.norm>
-1.25647

>  <SCORE.INTRA>
0.546288

>  <SCORE.INTRA.DIHEDRAL>
1.17897

>  <SCORE.INTRA.DIHEDRAL.0>
3.20029

>  <SCORE.INTRA.POLAR>
0

>  <SCORE.INTRA.POLAR.0>
0

>  <SCORE.INTRA.REPUL>
0

>  <SCORE.INTRA.REPUL.0>
0

>  <SCORE.INTRA.SOLV>
0.972436

>  <SCORE.INTRA.SOLV.lig_0>
-19.3885

>  <SCORE.INTRA.VDW>
-0.529413

>  <SCORE.INTRA.VDW.0>
-1.12705

>  <SCORE.INTRA.norm>
0.0303493

>  <SCORE.RESTR>
0

>  <SCORE.RESTR.CAVITY>
0

>  <SCORE.RESTR.norm>
0

>  <SCORE.SYSTEM>
0

>  <SCORE.SYSTEM.CONST>
0

>  <SCORE.SYSTEM.DIHEDRAL>
0

>  <SCORE.SYSTEM.SOLV>
0

>  <SCORE.SYSTEM.norm>
0

>  <SCORE.heavy>
18

>  <SCORE.norm>
-1.22612

>  <RMSD>
7.462

$$$$
lig.pdb
 OpenBabel11021811503D
libRbt.so/2013.1/901 2013/11/27
 18 19  0  0  0  0  0  0  0  0999 V2000
   -5.8417    9.0903    4.5336 C   0  0  0  0  0  0  0  0  0  0  0  0
   -8.8165    9.6878    0.7487 N   0  0  0  0  0  0  0  0  0  0  0  0
   -9.8296   15.3371    1.7420 C   0  0  0  0  0  0  0  0  0  0  0  0
  -14.7197   15.6120    3.6299 O   0  0  0  0  0  0  0  0  0  0  0  0
  -13.8913   16.3907    2.7776 C   0  0  0  0  0  0  0  0  0  0  0  0
  -12.4171   16.2677    3.2096 C   0  0  0  0  0  0  0  0  0  0  0  0
  -11.6718   12.2199    2.6915 C   0  0  0  0  0  0  0  0  0  0  0  0
  -12.8071   13.3435    3.3646 S   0  0  0  0  0  0  0  0  0  0  0  0
  -11.9688   14.8501    2.9311 C   0  0  0  0  0  0  0  0  0  0  0  0
  -10.8544   14.3611    2.2955 C   0  0  0  0  0  0  0  0  0  0  0  0
  -10.7266   13.0031    2.1878 N   0  0  0  0  0  0  0  0  0  0  0  0
   -9.5474   12.3789    1.4892 C   0  0  0  0  0  0  0  0  0  0  0  0
   -8.2499   10.2139    1.9095 C   0  0  0  0  0  0  0  0  0  0  0  0
   -7.3746    9.4590    2.6415 N   0  0  0  0  0  0  0  0  0  0  0  0
   -6.8170    9.9409    3.7553 C   0  0  0  0  0  0  0  0  0  0  0  0
   -7.1054   11.1738    4.1821 N   0  0  0  0  0  0  0  0  0  0  0  0
   -7.9625   11.9823    3.5061 C   0  0  0  0  0  0  0  0  0  0  0  0
   -8.5734   11.5364    2.3288 C   0  0  0  0  0  0  0  0  0  0  0  0
  5  4  1  0  0  0  0
  5  6  1  0  0  0  0
  7  8  2  0  0  0  0
  7 11  1  0  0  0  0
  8  9  1  0  0  0  0
  9 10  2  0  0  0  0
  9  6  1  0  0  0  0
 10  3  1  0  0  0  0
 11 12  1  0  0  0  0
 11 10  1  0  0  0  0
 12 18  1  0  0  0  0
 13  2  1  0  0  0  0
 13 14  2  0  0  0  0
 15 14  1  0  0  0  0
 15  1  1  0  0  0  0
 16 15  2  0  0  0  0
 17 18  2  0  0  0  0
 17 16  1  0  0  0  0
 18 13  1  0  0  0  0
M  END
>  <CHROM.1>
67.87229164,-48.29204546,-66.30858065,127.51048544,-10.19674398,12.69388359
2.82602187,-0.65943068,-0.32727005,0.37750511

>  <Name>
lig.pdb

>  <RI>
0

>  <Rbt.Current_Directory>
/home/itssahil/PROJECTS/Mol_Feturizer/New_Systems/rnas/4nyg

>  <Rbt.Executable>
rbdock ($Id: //depot/dev/client3/rdock/2013.1/src/exe/rbdock.cxx#4 $)

>  <Rbt.Library>
libRbt.so (2013.1, Build901 2013/11/27)

>  <Rbt.Parameter_File>
/export/apps/rDock/src/rDock_2013.1_src/data/scripts/dock_solv.prm

>  <Rbt.Receptor>
prm/pocket_docking_8.prm

>  <SCORE>
-26.1871

>  <SCORE.INTER>
-26.2907

>  <SCORE.INTER.CONST>
1

>  <SCORE.INTER.POLAR>
0

>  <SCORE.INTER.ROT>
4

>  <SCORE.INTER.SOLV>
14.6092

>  <SCORE.INTER.VDW>
-28.6635

>  <SCORE.INTER.norm>
-1.4606

>  <SCORE.INTRA>
0.103635

>  <SCORE.INTRA.DIHEDRAL>
0.369898

>  <SCORE.INTRA.DIHEDRAL.0>
3.20029

>  <SCORE.INTRA.POLAR>
0

>  <SCORE.INTRA.POLAR.0>
0

>  <SCORE.INTRA.REPUL>
0

>  <SCORE.INTRA.REPUL.0>
0

>  <SCORE.INTRA.SOLV>
0.491363

>  <SCORE.INTRA.SOLV.lig_0>
-19.3885

>  <SCORE.INTRA.VDW>
-0.326996

>  <SCORE.INTRA.VDW.0>
-1.12705

>  <SCORE.INTRA.norm>
0.00575747

>  <SCORE.RESTR>
0

>  <SCORE.RESTR.CAVITY>
0

>  <SCORE.RESTR.norm>
0

>  <SCORE.SYSTEM>
0

>  <SCORE.SYSTEM.CONST>
0

>  <SCORE.SYSTEM.DIHEDRAL>
0

>  <SCORE.SYSTEM.SOLV>
0

>  <SCORE.SYSTEM.norm>
0

>  <SCORE.heavy>
18

>  <SCORE.norm>
-1.45484

>  <RMSD>
7.463

$$$$
lig.pdb
 OpenBabel11021811503D
libRbt.so/2013.1/901 2013/11/27
 18 19  0  0  0  0  0  0  0  0999 V2000
   -4.5064   16.1335    0.0427 C   0  0  0  0  0  0  0  0  0  0  0  0
   -7.2984   14.8239    3.7872 N   0  0  0  0  0  0  0  0  0  0  0  0
  -12.0561   12.6497    2.8746 C   0  0  0  0  0  0  0  0  0  0  0  0
  -14.6090   17.1628    3.6438 O   0  0  0  0  0  0  0  0  0  0  0  0
  -14.6899   15.8826    4.2549 C   0  0  0  0  0  0  0  0  0  0  0  0
  -14.2957   14.7852    3.2473 C   0  0  0  0  0  0  0  0  0  0  0  0
  -10.4687   15.9645    2.1648 C   0  0  0  0  0  0  0  0  0  0  0  0
  -12.0586   16.5656    2.5039 S   0  0  0  0  0  0  0  0  0  0  0  0
  -12.8535   15.0141    2.8525 C   0  0  0  0  0  0  0  0  0  0  0  0
  -11.8141   14.1358    2.6703 C   0  0  0  0  0  0  0  0  0  0  0  0
  -10.5980   14.6525    2.3151 N   0  0  0  0  0  0  0  0  0  0  0  0
   -9.3973   13.7660    2.1138 C   0  0  0  0  0  0  0  0  0  0  0  0
   -7.1221   14.8998    2.4057 C   0  0  0  0  0  0  0  0  0  0  0  0
   -5.9790   15.4518    1.8954 N   0  0  0  0  0  0  0  0  0  0  0  0
   -5.7855   15.5340    0.5765 C   0  0  0  0  0  0  0  0  0  0  0  0
   -6.7087   15.0802   -0.2762 N   0  0  0  0  0  0  0  0  0  0  0  0
   -7.8665   14.5168    0.1567 C   0  0  0  0  0  0  0  0  0  0  0  0
   -8.1240   14.3967    1.5269 C   0  0  0  0  0  0  0  0  0  0  0  0
  5  4  1  0  0  0  0
  5  6  1  0  0  0  0
  7  8  2  0  0  0  0
  7 11  1  0  0  0  0
  8  9  1  0  0  0  0
  9 10  2  0  0  0  0
  9  6  1  0  0  0  0
 10  3  1  0  0  0  0
 11 12  1  0  0  0  0
 11 10  1  0  0  0  0
 12 18  1  0  0  0  0
 13  2  1  0  0  0  0
 13 14  2  0  0  0  0
 15 14  1  0  0  0  0
 15  1  1  0  0  0  0
 16 15  2  0  0  0  0
 17 18  2  0  0  0  0
 17 16  1  0  0  0  0
 18 13  1  0  0  0  0
M  END
>  <CHROM.1>
62.75035573,-41.41702442,-9.45258991,92.92701650,-10.00164606,15.20089058
2.19642829,-0.01350365,0.31060120,-0.10866669

>  <Name>
lig.pdb

>  <RI>
0

>  <Rbt.Current_Directory>
/home/itssahil/PROJECTS/Mol_Feturizer/New_Systems/rnas/4nyg

>  <Rbt.Executable>
rbdock ($Id: //depot/dev/client3/rdock/2013.1/src/exe/rbdock.cxx#4 $)

>  <Rbt.Library>
libRbt.so (2013.1, Build901 2013/11/27)

>  <Rbt.Parameter_File>
/export/apps/rDock/src/rDock_2013.1_src/data/scripts/dock_solv.prm

>  <Rbt.Receptor>
prm/pocket_docking_7.prm

>  <SCORE>
-21.5275

>  <SCORE.INTER>
-22.6057

>  <SCORE.INTER.CONST>
1

>  <SCORE.INTER.POLAR>
0

>  <SCORE.INTER.ROT>
4

>  <SCORE.INTER.SOLV>
11.6294

>  <SCORE.INTER.VDW>
-25.2136

>  <SCORE.INTER.norm>
-1.25587

>  <SCORE.INTRA>
1.07823

>  <SCORE.INTRA.DIHEDRAL>
0.555587

>  <SCORE.INTRA.DIHEDRAL.0>
3.20029

>  <SCORE.INTRA.POLAR>
0

>  <SCORE.INTRA.POLAR.0>
0

>  <SCORE.INTRA.REPUL>
0

>  <SCORE.INTRA.REPUL.0>
0

>  <SCORE.INTRA.SOLV>
0.763203

>  <SCORE.INTRA.SOLV.lig_0>
-19.3885

>  <SCORE.INTRA.VDW>
0.418837

>  <SCORE.INTRA.VDW.0>
-1.12705

>  <SCORE.INTRA.norm>
0.0599017

>  <SCORE.RESTR>
0

>  <SCORE.RESTR.CAVITY>
0

>  <SCORE.RESTR.norm>
0

>  <SCORE.SYSTEM>
0

>  <SCORE.SYSTEM.CONST>
0

>  <SCORE.SYSTEM.DIHEDRAL>
0

>  <SCORE.SYSTEM.SOLV>
0

>  <SCORE.SYSTEM.norm>
0

>  <SCORE.heavy>
18

>  <SCORE.norm>
-1.19597

>  <RMSD>
7.469

$$$$
lig.pdb
 OpenBabel11021811503D
libRbt.so/2013.1/901 2013/11/27
 18 19  0  0  0  0  0  0  0  0999 V2000
   -4.4601   16.3390    0.2280 C   0  0  0  0  0  0  0  0  0  0  0  0
   -8.7546   14.3882   -0.9053 N   0  0  0  0  0  0  0  0  0  0  0  0
  -11.9446   12.4597    2.7253 C   0  0  0  0  0  0  0  0  0  0  0  0
  -14.8503   16.6934    2.7716 O   0  0  0  0  0  0  0  0  0  0  0  0
  -14.7408   15.8972    3.9434 C   0  0  0  0  0  0  0  0  0  0  0  0
  -14.0905   14.5411    3.6074 C   0  0  0  0  0  0  0  0  0  0  0  0
  -10.3856   15.8306    2.2586 C   0  0  0  0  0  0  0  0  0  0  0  0
  -11.9172   16.3912    2.8449 S   0  0  0  0  0  0  0  0  0  0  0  0
  -12.6967   14.8116    3.0854 C   0  0  0  0  0  0  0  0  0  0  0  0
  -11.6998   13.9587    2.6808 C   0  0  0  0  0  0  0  0  0  0  0  0
  -10.5211   14.5107    2.2588 N   0  0  0  0  0  0  0  0  0  0  0  0
   -9.3662   13.6513    1.8164 C   0  0  0  0  0  0  0  0  0  0  0  0
   -7.8077   14.6903    0.0732 C   0  0  0  0  0  0  0  0  0  0  0  0
   -6.6463   15.3232   -0.2768 N   0  0  0  0  0  0  0  0  0  0  0  0
   -5.7251   15.6253    0.6418 C   0  0  0  0  0  0  0  0  0  0  0  0
   -5.9169   15.3120    1.9265 N   0  0  0  0  0  0  0  0  0  0  0  0
   -7.0462   14.6863    2.3489 C   0  0  0  0  0  0  0  0  0  0  0  0
   -8.0508   14.3496    1.4349 C   0  0  0  0  0  0  0  0  0  0  0  0
  5  4  1  0  0  0  0
  5  6  1  0  0  0  0
  7  8  2  0  0  0  0
  7 11  1  0  0  0  0
  8  9  1  0  0  0  0
  9 10  2  0  0  0  0
  9  6  1  0  0  0  0
 10  3  1  0  0  0  0
 11 12  1  0  0  0  0
 11 10  1  0  0  0  0
 12 18  1  0  0  0  0
 13  2  1  0  0  0  0
 13 14  2  0  0  0  0
 15 14  1  0  0  0  0
 15  1  1  0  0  0  0
 16 15  2  0  0  0  0
 17 18  2  0  0  0  0
 17 16  1  0  0  0  0
 18 13  1  0  0  0  0
M  END
>  <CHROM.1>
61.95868994,-1.41925027,2.43572682,-93.28862963,-10.01513591,15.08491690
1.93831080,-0.03089026,0.33766864,0.05161719

>  <Name>
lig.pdb

>  <RI>
0

>  <Rbt.Current_Directory>
/home/itssahil/PROJECTS/Mol_Feturizer/New_Systems/rnas/4nyg

>  <Rbt.Executable>
rbdock ($Id: //depot/dev/client3/rdock/2013.1/src/exe/rbdock.cxx#4 $)

>  <Rbt.Library>
libRbt.so (2013.1, Build901 2013/11/27)

>  <Rbt.Parameter_File>
/export/apps/rDock/src/rDock_2013.1_src/data/scripts/dock_solv.prm

>  <Rbt.Receptor>
prm/pocket_docking_7.prm

>  <SCORE>
-21.3515

>  <SCORE.INTER>
-23.7878

>  <SCORE.INTER.CONST>
1

>  <SCORE.INTER.POLAR>
0

>  <SCORE.INTER.ROT>
4

>  <SCORE.INTER.SOLV>
13.2798

>  <SCORE.INTER.VDW>
-26.5518

>  <SCORE.INTER.norm>
-1.32154

>  <SCORE.INTRA>
2.43631

>  <SCORE.INTRA.DIHEDRAL>
2.61219

>  <SCORE.INTRA.DIHEDRAL.0>
3.20029

>  <SCORE.INTRA.POLAR>
0

>  <SCORE.INTRA.POLAR.0>
0

>  <SCORE.INTRA.REPUL>
0

>  <SCORE.INTRA.REPUL.0>
0

>  <SCORE.INTRA.SOLV>
0.734939

>  <SCORE.INTRA.SOLV.lig_0>
-19.3885

>  <SCORE.INTRA.VDW>
0.762747

>  <SCORE.INTRA.VDW.0>
-1.12705

>  <SCORE.INTRA.norm>
0.135351

>  <SCORE.RESTR>
0

>  <SCORE.RESTR.CAVITY>
0

>  <SCORE.RESTR.norm>
0

>  <SCORE.SYSTEM>
0

>  <SCORE.SYSTEM.CONST>
0

>  <SCORE.SYSTEM.DIHEDRAL>
0

>  <SCORE.SYSTEM.SOLV>
0

>  <SCORE.SYSTEM.norm>
0

>  <SCORE.heavy>
18

>  <SCORE.norm>
-1.18619

>  <RMSD>
7.470

$$$$
lig.pdb
 OpenBabel11021811503D
libRbt.so/2013.1/901 2013/11/27
 18 19  0  0  0  0  0  0  0  0999 V2000
   -5.8232    9.9247    5.0973 C   0  0  0  0  0  0  0  0  0  0  0  0
   -9.2503   10.1948    1.6747 N   0  0  0  0  0  0  0  0  0  0  0  0
  -10.2470   15.8913    1.9480 C   0  0  0  0  0  0  0  0  0  0  0  0
  -14.8291   17.1063    4.4599 O   0  0  0  0  0  0  0  0  0  0  0  0
  -14.2074   15.8938    4.0570 C   0  0  0  0  0  0  0  0  0  0  0  0
  -13.1930   16.1644    2.9289 C   0  0  0  0  0  0  0  0  0  0  0  0
  -11.5146   12.4031    2.4347 C   0  0  0  0  0  0  0  0  0  0  0  0
  -12.9661   13.2189    2.9160 S   0  0  0  0  0  0  0  0  0  0  0  0
  -12.4080   14.8924    2.6959 C   0  0  0  0  0  0  0  0  0  0  0  0
  -11.1197   14.6890    2.2673 C   0  0  0  0  0  0  0  0  0  0  0  0
  -10.6857   13.3973    2.1433 N   0  0  0  0  0  0  0  0  0  0  0  0
   -9.2949   13.0797    1.6608 C   0  0  0  0  0  0  0  0  0  0  0  0
   -8.3935   10.8575    2.5533 C   0  0  0  0  0  0  0  0  0  0  0  0
   -7.5669   10.1361    3.3708 N   0  0  0  0  0  0  0  0  0  0  0  0
   -6.7358   10.7472    4.2191 C   0  0  0  0  0  0  0  0  0  0  0  0
   -6.6957   12.0809    4.2903 N   0  0  0  0  0  0  0  0  0  0  0  0
   -7.4842   12.8627    3.5079 C   0  0  0  0  0  0  0  0  0  0  0  0
   -8.3711   12.2813    2.5949 C   0  0  0  0  0  0  0  0  0  0  0  0
  5  4  1  0  0  0  0
  5  6  1  0  0  0  0
  7  8  2  0  0  0  0
  7 11  1  0  0  0  0
  8  9  1  0  0  0  0
  9 10  2  0  0  0  0
  9  6  1  0  0  0  0
 10  3  1  0  0  0  0
 11 12  1  0  0  0  0
 11 10  1  0  0  0  0
 12 18  1  0  0  0  0
 13  2  1  0  0  0  0
 13 14  2  0  0  0  0
 15 14  1  0  0  0  0
 15  1  1  0  0  0  0
 16 15  2  0  0  0  0
 17 18  2  0  0  0  0
 17 16  1  0  0  0  0
 18 13  1  0  0  0  0
M  END
>  <CHROM.1>
171.02977620,30.60138213,-60.67075814,88.09910174,-10.29428673,13.15769135
3.05847341,-0.57822025,-0.30976712,0.37037500

>  <Name>
lig.pdb

>  <RI>
0

>  <Rbt.Current_Directory>
/home/itssahil/PROJECTS/Mol_Feturizer/New_Systems/rnas/4nyg

>  <Rbt.Executable>
rbdock ($Id: //depot/dev/client3/rdock/2013.1/src/exe/rbdock.cxx#4 $)

>  <Rbt.Library>
libRbt.so (2013.1, Build901 2013/11/27)

>  <Rbt.Parameter_File>
/export/apps/rDock/src/rDock_2013.1_src/data/scripts/dock_solv.prm

>  <Rbt.Receptor>
prm/pocket_docking_5.prm

>  <SCORE>
-23.0531

>  <SCORE.INTER>
-23.9965

>  <SCORE.INTER.CONST>
1

>  <SCORE.INTER.POLAR>
0

>  <SCORE.INTER.ROT>
4

>  <SCORE.INTER.SOLV>
13.0053

>  <SCORE.INTER.VDW>
-26.5994

>  <SCORE.INTER.norm>
-1.33314

>  <SCORE.INTRA>
0.94261

>  <SCORE.INTRA.DIHEDRAL>
1.53289

>  <SCORE.INTRA.DIHEDRAL.0>
3.20029

>  <SCORE.INTRA.POLAR>
0

>  <SCORE.INTRA.POLAR.0>
0

>  <SCORE.INTRA.REPUL>
0

>  <SCORE.INTRA.REPUL.0>
0

>  <SCORE.INTRA.SOLV>
0.457251

>  <SCORE.INTRA.SOLV.lig_0>
-19.3885

>  <SCORE.INTRA.VDW>
-0.0524595

>  <SCORE.INTRA.VDW.0>
-1.12705

>  <SCORE.INTRA.norm>
0.0523672

>  <SCORE.RESTR>
0.000720519

>  <SCORE.RESTR.CAVITY>
0.000720519

>  <SCORE.RESTR.norm>
4.00288e-05

>  <SCORE.SYSTEM>
0

>  <SCORE.SYSTEM.CONST>
0

>  <SCORE.SYSTEM.DIHEDRAL>
0

>  <SCORE.SYSTEM.SOLV>
0

>  <SCORE.SYSTEM.norm>
0

>  <SCORE.heavy>
18

>  <SCORE.norm>
-1.28073

>  <RMSD>
7.471

$$$$
lig.pdb
 OpenBabel11021811503D
libRbt.so/2013.1/901 2013/11/27
 18 19  0  0  0  0  0  0  0  0999 V2000
   -5.8141    8.4930    3.9959 C   0  0  0  0  0  0  0  0  0  0  0  0
   -7.4885   13.0162    3.4765 N   0  0  0  0  0  0  0  0  0  0  0  0
   -9.6412   15.2615    1.6842 C   0  0  0  0  0  0  0  0  0  0  0  0
  -14.3563   17.1894    3.2734 O   0  0  0  0  0  0  0  0  0  0  0  0
  -13.7845   15.9521    2.8720 C   0  0  0  0  0  0  0  0  0  0  0  0
  -12.2798   15.9279    3.2037 C   0  0  0  0  0  0  0  0  0  0  0  0
  -11.2846   11.9787    2.4152 C   0  0  0  0  0  0  0  0  0  0  0  0
  -12.4867   12.9813    3.1593 S   0  0  0  0  0  0  0  0  0  0  0  0
  -11.7443   14.5630    2.8312 C   0  0  0  0  0  0  0  0  0  0  0  0
  -10.6025   14.1885    2.1674 C   0  0  0  0  0  0  0  0  0  0  0  0
  -10.3906   12.8515    1.9684 N   0  0  0  0  0  0  0  0  0  0  0  0
   -9.1757   12.3505    1.2326 C   0  0  0  0  0  0  0  0  0  0  0  0
   -7.4806   11.6937    3.0333 C   0  0  0  0  0  0  0  0  0  0  0  0
   -6.6983   10.7684    3.6686 N   0  0  0  0  0  0  0  0  0  0  0  0
   -6.6750    9.4955    3.2647 C   0  0  0  0  0  0  0  0  0  0  0  0
   -7.4153    9.0975    2.2260 N   0  0  0  0  0  0  0  0  0  0  0  0
   -8.2185    9.9587    1.5488 C   0  0  0  0  0  0  0  0  0  0  0  0
   -8.2906   11.3036    1.9283 C   0  0  0  0  0  0  0  0  0  0  0  0
  5  4  1  0  0  0  0
  5  6  1  0  0  0  0
  7  8  2  0  0  0  0
  7 11  1  0  0  0  0
  8  9  1  0  0  0  0
  9 10  2  0  0  0  0
  9  6  1  0  0  0  0
 10  3  1  0  0  0  0
 11 12  1  0  0  0  0
 11 10  1  0  0  0  0
 12 18  1  0  0  0  0
 13  2  1  0  0  0  0
 13 14  2  0  0  0  0
 15 14  1  0  0  0  0
 15  1  1  0  0  0  0
 16 15  2  0  0  0  0
 17 18  2  0  0  0  0
 17 16  1  0  0  0  0
 18 13  1  0  0  0  0
M  END
>  <CHROM.1>
176.70636232,-44.19124540,-54.93850952,-71.60677000,-9.89870314,12.69605323
2.70977039,0.75265369,-0.00656206,3.12523325

>  <Name>
lig.pdb

>  <RI>
0

>  <Rbt.Current_Directory>
/home/itssahil/PROJECTS/Mol_Feturizer/New_Systems/rnas/4nyg

>  <Rbt.Executable>
rbdock ($Id: //depot/dev/client3/rdock/2013.1/src/exe/rbdock.cxx#4 $)

>  <Rbt.Library>
libRbt.so (2013.1, Build901 2013/11/27)

>  <Rbt.Parameter_File>
/export/apps/rDock/src/rDock_2013.1_src/data/scripts/dock_solv.prm

>  <Rbt.Receptor>
prm/pocket_docking_8.prm

>  <SCORE>
-24.4861

>  <SCORE.INTER>
-24.6558

>  <SCORE.INTER.CONST>
1

>  <SCORE.INTER.POLAR>
0

>  <SCORE.INTER.ROT>
4

>  <SCORE.INTER.SOLV>
13.6718

>  <SCORE.INTER.VDW>
-27.2611

>  <SCORE.INTER.norm>
-1.36976

>  <SCORE.INTRA>
0.169642

>  <SCORE.INTRA.DIHEDRAL>
0.406607

>  <SCORE.INTRA.DIHEDRAL.0>
3.20029

>  <SCORE.INTRA.POLAR>
0

>  <SCORE.INTRA.POLAR.0>
0

>  <SCORE.INTRA.REPUL>
0

>  <SCORE.INTRA.REPUL.0>
0

>  <SCORE.INTRA.SOLV>
0.818653

>  <SCORE.INTRA.SOLV.lig_0>
-19.3885

>  <SCORE.INTRA.VDW>
-0.442988

>  <SCORE.INTRA.VDW.0>
-1.12705

>  <SCORE.INTRA.norm>
0.00942456

>  <SCORE.RESTR>
0

>  <SCORE.RESTR.CAVITY>
0

>  <SCORE.RESTR.norm>
0

>  <SCORE.SYSTEM>
0

>  <SCORE.SYSTEM.CONST>
0

>  <SCORE.SYSTEM.DIHEDRAL>
0

>  <SCORE.SYSTEM.SOLV>
0

>  <SCORE.SYSTEM.norm>
0

>  <SCORE.heavy>
18

>  <SCORE.norm>
-1.36034

>  <RMSD>
7.472

$$$$
lig.pdb
 OpenBabel11021811503D
libRbt.so/2013.1/901 2013/11/27
 18 19  0  0  0  0  0  0  0  0999 V2000
   -5.9775    8.9826    4.0800 C   0  0  0  0  0  0  0  0  0  0  0  0
   -9.2066    9.9754    0.5987 N   0  0  0  0  0  0  0  0  0  0  0  0
   -9.9731   15.6481    1.8300 C   0  0  0  0  0  0  0  0  0  0  0  0
  -14.7730   17.2245    4.0217 O   0  0  0  0  0  0  0  0  0  0  0  0
  -14.1840   16.2311    3.1938 C   0  0  0  0  0  0  0  0  0  0  0  0
  -12.6476   16.2968    3.2933 C   0  0  0  0  0  0  0  0  0  0  0  0
  -11.6238   12.3560    2.4998 C   0  0  0  0  0  0  0  0  0  0  0  0
  -12.8454   13.3501    3.2232 S   0  0  0  0  0  0  0  0  0  0  0  0
  -12.1001   14.9360    2.9235 C   0  0  0  0  0  0  0  0  0  0  0  0
  -10.9423   14.5692    2.2833 C   0  0  0  0  0  0  0  0  0  0  0  0
  -10.7222   13.2342    2.0798 N   0  0  0  0  0  0  0  0  0  0  0  0
   -9.4894   12.7416    1.3686 C   0  0  0  0  0  0  0  0  0  0  0  0
   -8.4612   10.4207    1.6902 C   0  0  0  0  0  0  0  0  0  0  0  0
   -7.6274    9.5545    2.3431 N   0  0  0  0  0  0  0  0  0  0  0  0
   -6.9015    9.9572    3.3894 C   0  0  0  0  0  0  0  0  0  0  0  0
   -6.9766   11.2183    3.8247 N   0  0  0  0  0  0  0  0  0  0  0  0
   -7.7795   12.1351    3.2248 C   0  0  0  0  0  0  0  0  0  0  0  0
   -8.5595   11.7753    2.1201 C   0  0  0  0  0  0  0  0  0  0  0  0
  5  4  1  0  0  0  0
  5  6  1  0  0  0  0
  7  8  2  0  0  0  0
  7 11  1  0  0  0  0
  8  9  1  0  0  0  0
  9 10  2  0  0  0  0
  9  6  1  0  0  0  0
 10  3  1  0  0  0  0
 11 12  1  0  0  0  0
 11 10  1  0  0  0  0
 12 18  1  0  0  0  0
 13  2  1  0  0  0  0
 13 14  2  0  0  0  0
 15 14  1  0  0  0  0
 15  1  1  0  0  0  0
 16 15  2  0  0  0  0
 17 18  2  0  0  0  0
 17 16  1  0  0  0  0
 18 13  1  0  0  0  0
M  END
>  <CHROM.1>
155.90742197,-33.09900334,-59.60078883,111.27475671,-10.28425523,12.90122268
2.72243922,-0.71582756,-0.26887647,0.37082866

>  <Name>
lig.pdb

>  <RI>
0

>  <Rbt.Current_Directory>
/home/itssahil/PROJECTS/Mol_Feturizer/New_Systems/rnas/4nyg

>  <Rbt.Executable>
rbdock ($Id: //depot/dev/client3/rdock/2013.1/src/exe/rbdock.cxx#4 $)

>  <Rbt.Library>
libRbt.so (2013.1, Build901 2013/11/27)

>  <Rbt.Parameter_File>
/export/apps/rDock/src/rDock_2013.1_src/data/scripts/dock_solv.prm

>  <Rbt.Receptor>
prm/pocket_docking_5.prm

>  <SCORE>
-24.2671

>  <SCORE.INTER>
-25.8167

>  <SCORE.INTER.CONST>
1

>  <SCORE.INTER.POLAR>
0

>  <SCORE.INTER.ROT>
4

>  <SCORE.INTER.SOLV>
15.3367

>  <SCORE.INTER.VDW>
-28.5901

>  <SCORE.INTER.norm>
-1.43426

>  <SCORE.INTRA>
1.52666

>  <SCORE.INTRA.DIHEDRAL>
2.95907

>  <SCORE.INTRA.DIHEDRAL.0>
3.20029

>  <SCORE.INTRA.POLAR>
0

>  <SCORE.INTRA.POLAR.0>
0

>  <SCORE.INTRA.REPUL>
0

>  <SCORE.INTRA.REPUL.0>
0

>  <SCORE.INTRA.SOLV>
0.241437

>  <SCORE.INTRA.SOLV.lig_0>
-19.3885

>  <SCORE.INTRA.VDW>
-0.0735897

>  <SCORE.INTRA.VDW.0>
-1.12705

>  <SCORE.INTRA.norm>
0.0848145

>  <SCORE.RESTR>
0.0230088

>  <SCORE.RESTR.CAVITY>
0.0230088

>  <SCORE.RESTR.norm>
0.00127827

>  <SCORE.SYSTEM>
0

>  <SCORE.SYSTEM.CONST>
0

>  <SCORE.SYSTEM.DIHEDRAL>
0

>  <SCORE.SYSTEM.SOLV>
0

>  <SCORE.SYSTEM.norm>
0

>  <SCORE.heavy>
18

>  <SCORE.norm>
-1.34817

>  <RMSD>
7.476

$$$$
lig.pdb
 OpenBabel11021811503D
libRbt.so/2013.1/901 2013/11/27
 18 19  0  0  0  0  0  0  0  0999 V2000
   -4.7663   13.6290    5.7335 C   0  0  0  0  0  0  0  0  0  0  0  0
   -7.4734   15.7874    2.3356 N   0  0  0  0  0  0  0  0  0  0  0  0
  -10.3538   16.0898    1.7836 C   0  0  0  0  0  0  0  0  0  0  0  0
  -15.0607   14.7300    3.8138 O   0  0  0  0  0  0  0  0  0  0  0  0
  -14.1927   15.8314    4.0432 C   0  0  0  0  0  0  0  0  0  0  0  0
  -13.2960   16.0685    2.8125 C   0  0  0  0  0  0  0  0  0  0  0  0
  -11.1199   12.5389    2.6869 C   0  0  0  0  0  0  0  0  0  0  0  0
  -12.6639   13.1988    3.1170 S   0  0  0  0  0  0  0  0  0  0  0  0
  -12.3457   14.8970    2.6984 C   0  0  0  0  0  0  0  0  0  0  0  0
  -11.0474   14.8237    2.2580 C   0  0  0  0  0  0  0  0  0  0  0  0
  -10.4406   13.5975    2.2643 N   0  0  0  0  0  0  0  0  0  0  0  0
   -9.0257   13.4196    1.7800 C   0  0  0  0  0  0  0  0  0  0  0  0
   -7.1683   14.6323    3.0555 C   0  0  0  0  0  0  0  0  0  0  0  0
   -6.1708   14.6580    3.9915 N   0  0  0  0  0  0  0  0  0  0  0  0
   -5.8613   13.5660    4.6954 C   0  0  0  0  0  0  0  0  0  0  0  0
   -6.5192   12.4199    4.4977 N   0  0  0  0  0  0  0  0  0  0  0  0
   -7.5231   12.3195    3.5881 C   0  0  0  0  0  0  0  0  0  0  0  0
   -7.8978   13.4307    2.8246 C   0  0  0  0  0  0  0  0  0  0  0  0
  5  4  1  0  0  0  0
  5  6  1  0  0  0  0
  7  8  2  0  0  0  0
  7 11  1  0  0  0  0
  8  9  1  0  0  0  0
  9 10  2  0  0  0  0
  9  6  1  0  0  0  0
 10  3  1  0  0  0  0
 11 12  1  0  0  0  0
 11 10  1  0  0  0  0
 12 18  1  0  0  0  0
 13  2  1  0  0  0  0
 13 14  2  0  0  0  0
 15 14  1  0  0  0  0
 15  1  1  0  0  0  0
 16 15  2  0  0  0  0
 17 18  2  0  0  0  0
 17 16  1  0  0  0  0
 18 13  1  0  0  0  0
M  END
>  <CHROM.1>
-67.98418553,33.93003871,-85.16310191,-97.34196841,-9.87378047,14.15320949
3.22754728,0.18314093,0.07799794,2.78883907

>  <Name>
lig.pdb

>  <RI>
0

>  <Rbt.Current_Directory>
/home/itssahil/PROJECTS/Mol_Feturizer/New_Systems/rnas/4nyg

>  <Rbt.Executable>
rbdock ($Id: //depot/dev/client3/rdock/2013.1/src/exe/rbdock.cxx#4 $)

>  <Rbt.Library>
libRbt.so (2013.1, Build901 2013/11/27)

>  <Rbt.Parameter_File>
/export/apps/rDock/src/rDock_2013.1_src/data/scripts/dock_solv.prm

>  <Rbt.Receptor>
prm/pocket_docking_3.prm

>  <SCORE>
-19.4696

>  <SCORE.INTER>
-20.7828

>  <SCORE.INTER.CONST>
1

>  <SCORE.INTER.POLAR>
0

>  <SCORE.INTER.ROT>
4

>  <SCORE.INTER.SOLV>
11.2694

>  <SCORE.INTER.VDW>
-23.8783

>  <SCORE.INTER.norm>
-1.1546

>  <SCORE.INTRA>
1.3132

>  <SCORE.INTRA.DIHEDRAL>
1.17793

>  <SCORE.INTRA.DIHEDRAL.0>
3.20029

>  <SCORE.INTRA.POLAR>
0

>  <SCORE.INTRA.POLAR.0>
0

>  <SCORE.INTRA.REPUL>
0

>  <SCORE.INTRA.REPUL.0>
0

>  <SCORE.INTRA.SOLV>
1.14957

>  <SCORE.INTRA.SOLV.lig_0>
-19.3885

>  <SCORE.INTRA.VDW>
0.149445

>  <SCORE.INTRA.VDW.0>
-1.12705

>  <SCORE.INTRA.norm>
0.0729553

>  <SCORE.RESTR>
0

>  <SCORE.RESTR.CAVITY>
0

>  <SCORE.RESTR.norm>
0

>  <SCORE.SYSTEM>
0

>  <SCORE.SYSTEM.CONST>
0

>  <SCORE.SYSTEM.DIHEDRAL>
0

>  <SCORE.SYSTEM.SOLV>
0

>  <SCORE.SYSTEM.norm>
0

>  <SCORE.heavy>
18

>  <SCORE.norm>
-1.08164

>  <RMSD>
7.478

$$$$
lig.pdb
 OpenBabel11021811503D
libRbt.so/2013.1/901 2013/11/27
 18 19  0  0  0  0  0  0  0  0999 V2000
   -5.8909    8.9783    4.5196 C   0  0  0  0  0  0  0  0  0  0  0  0
   -8.7509    9.7525    0.6786 N   0  0  0  0  0  0  0  0  0  0  0  0
   -9.8592   15.3662    1.7238 C   0  0  0  0  0  0  0  0  0  0  0  0
  -14.7244   15.5311    3.7632 O   0  0  0  0  0  0  0  0  0  0  0  0
  -13.9744   16.2907    2.8254 C   0  0  0  0  0  0  0  0  0  0  0  0
  -12.4747   16.2402    3.1764 C   0  0  0  0  0  0  0  0  0  0  0  0
  -11.6107   12.2094    2.7130 C   0  0  0  0  0  0  0  0  0  0  0  0
  -12.7792   13.3081    3.3699 S   0  0  0  0  0  0  0  0  0  0  0  0
  -11.9847   14.8327    2.9172 C   0  0  0  0  0  0  0  0  0  0  0  0
  -10.8557   14.3681    2.2893 C   0  0  0  0  0  0  0  0  0  0  0  0
  -10.6881   13.0131    2.1997 N   0  0  0  0  0  0  0  0  0  0  0  0
   -9.4903   12.4144    1.5107 C   0  0  0  0  0  0  0  0  0  0  0  0
   -8.2160   10.2259    1.8765 C   0  0  0  0  0  0  0  0  0  0  0  0
   -7.3661    9.4356    2.6010 N   0  0  0  0  0  0  0  0  0  0  0  0
   -6.8390    9.8668    3.7500 C   0  0  0  0  0  0  0  0  0  0  0  0
   -7.1338   11.0824    4.2199 N   0  0  0  0  0  0  0  0  0  0  0  0
   -7.9669   11.9237    3.5541 C   0  0  0  0  0  0  0  0  0  0  0  0
   -8.5452   11.5315    2.3418 C   0  0  0  0  0  0  0  0  0  0  0  0
  5  4  1  0  0  0  0
  5  6  1  0  0  0  0
  7  8  2  0  0  0  0
  7 11  1  0  0  0  0
  8  9  1  0  0  0  0
  9 10  2  0  0  0  0
  9  6  1  0  0  0  0
 10  3  1  0  0  0  0
 11 12  1  0  0  0  0
 11 10  1  0  0  0  0
 12 18  1  0  0  0  0
 13  2  1  0  0  0  0
 13 14  2  0  0  0  0
 15 14  1  0  0  0  0
 15  1  1  0  0  0  0
 16 15  2  0  0  0  0
 17 18  2  0  0  0  0
 17 16  1  0  0  0  0
 18 13  1  0  0  0  0
M  END
>  <CHROM.1>
69.04409944,-44.76512997,-62.16783511,127.37043479,-10.19425479,12.66582954
2.83301563,0.26898274,-0.68163539,1.97551883

>  <Name>
lig.pdb

>  <RI>
0

>  <Rbt.Current_Directory>
/home/itssahil/PROJECTS/Mol_Feturizer/New_Systems/rnas/4nyg

>  <Rbt.Executable>
rbdock ($Id: //depot/dev/client3/rdock/2013.1/src/exe/rbdock.cxx#4 $)

>  <Rbt.Library>
libRbt.so (2013.1, Build901 2013/11/27)

>  <Rbt.Parameter_File>
/export/apps/rDock/src/rDock_2013.1_src/data/scripts/dock_solv.prm

>  <Rbt.Receptor>
prm/pocket_docking_6.prm

>  <SCORE>
-26.1515

>  <SCORE.INTER>
-26.446

>  <SCORE.INTER.CONST>
1

>  <SCORE.INTER.POLAR>
0

>  <SCORE.INTER.ROT>
4

>  <SCORE.INTER.SOLV>
14.8521

>  <SCORE.INTER.VDW>
-28.8481

>  <SCORE.INTER.norm>
-1.46922

>  <SCORE.INTRA>
0.294496

>  <SCORE.INTRA.DIHEDRAL>
0.615582

>  <SCORE.INTRA.DIHEDRAL.0>
3.20029

>  <SCORE.INTRA.POLAR>
0

>  <SCORE.INTRA.POLAR.0>
0

>  <SCORE.INTRA.REPUL>
0

>  <SCORE.INTRA.REPUL.0>
0

>  <SCORE.INTRA.SOLV>
0.483306

>  <SCORE.INTRA.SOLV.lig_0>
-19.3885

>  <SCORE.INTRA.VDW>
-0.254948

>  <SCORE.INTRA.VDW.0>
-1.12705

>  <SCORE.INTRA.norm>
0.0163609

>  <SCORE.RESTR>
0

>  <SCORE.RESTR.CAVITY>
0

>  <SCORE.RESTR.norm>
0

>  <SCORE.SYSTEM>
0

>  <SCORE.SYSTEM.CONST>
0

>  <SCORE.SYSTEM.DIHEDRAL>
0

>  <SCORE.SYSTEM.SOLV>
0

>  <SCORE.SYSTEM.norm>
0

>  <SCORE.heavy>
18

>  <SCORE.norm>
-1.45286

>  <RMSD>
7.486

$$$$
lig.pdb
 OpenBabel11021811503D
libRbt.so/2013.1/901 2013/11/27
 18 19  0  0  0  0  0  0  0  0999 V2000
   -4.5638   16.3060   -0.0011 C   0  0  0  0  0  0  0  0  0  0  0  0
   -7.6748   15.4681    3.6255 N   0  0  0  0  0  0  0  0  0  0  0  0
  -12.0351   12.6552    2.8398 C   0  0  0  0  0  0  0  0  0  0  0  0
  -14.6076   17.1468    3.6375 O   0  0  0  0  0  0  0  0  0  0  0  0
  -14.6839   15.8751    4.2668 C   0  0  0  0  0  0  0  0  0  0  0  0
  -14.2882   14.7648    3.2741 C   0  0  0  0  0  0  0  0  0  0  0  0
  -10.4990   15.9904    2.1131 C   0  0  0  0  0  0  0  0  0  0  0  0
  -12.0871   16.5728    2.4907 S   0  0  0  0  0  0  0  0  0  0  0  0
  -12.8576   15.0111    2.8485 C   0  0  0  0  0  0  0  0  0  0  0  0
  -11.8134   14.1449    2.6383 C   0  0  0  0  0  0  0  0  0  0  0  0
  -10.6110   14.6764    2.2590 N   0  0  0  0  0  0  0  0  0  0  0  0
   -9.4059   13.8038    2.0261 C   0  0  0  0  0  0  0  0  0  0  0  0
   -7.3246   15.2686    2.2902 C   0  0  0  0  0  0  0  0  0  0  0  0
   -6.1892   15.8466    1.7914 N   0  0  0  0  0  0  0  0  0  0  0  0
   -5.8312   15.6689    0.5170 C   0  0  0  0  0  0  0  0  0  0  0  0
   -6.5783   14.9229   -0.3020 N   0  0  0  0  0  0  0  0  0  0  0  0
   -7.7165   14.3155    0.1231 C   0  0  0  0  0  0  0  0  0  0  0  0
   -8.1404   14.4588    1.4489 C   0  0  0  0  0  0  0  0  0  0  0  0
  5  4  1  0  0  0  0
  5  6  1  0  0  0  0
  7  8  2  0  0  0  0
  7 11  1  0  0  0  0
  8  9  1  0  0  0  0
  9 10  2  0  0  0  0
  9  6  1  0  0  0  0
 10  3  1  0  0  0  0
 11 12  1  0  0  0  0
 11 10  1  0  0  0  0
 12 18  1  0  0  0  0
 13  2  1  0  0  0  0
 13 14  2  0  0  0  0
 15 14  1  0  0  0  0
 15  1  1  0  0  0  0
 16 15  2  0  0  0  0
 17 18  2  0  0  0  0
 17 16  1  0  0  0  0
 18 13  1  0  0  0  0
M  END
>  <CHROM.1>
61.42490560,-39.88717715,-7.87470055,75.41367226,-10.03823326,15.27734570
2.15127566,-0.05901593,0.32165823,0.10515832

>  <Name>
lig.pdb

>  <RI>
0

>  <Rbt.Current_Directory>
/home/itssahil/PROJECTS/Mol_Feturizer/New_Systems/rnas/4nyg

>  <Rbt.Executable>
rbdock ($Id: //depot/dev/client3/rdock/2013.1/src/exe/rbdock.cxx#4 $)

>  <Rbt.Library>
libRbt.so (2013.1, Build901 2013/11/27)

>  <Rbt.Parameter_File>
/export/apps/rDock/src/rDock_2013.1_src/data/scripts/dock_solv.prm

>  <Rbt.Receptor>
prm/pocket_docking_6.prm

>  <SCORE>
-21.678

>  <SCORE.INTER>
-22.9976

>  <SCORE.INTER.CONST>
1

>  <SCORE.INTER.POLAR>
0

>  <SCORE.INTER.ROT>
4

>  <SCORE.INTER.SOLV>
11.8632

>  <SCORE.INTER.VDW>
-25.5528

>  <SCORE.INTER.norm>
-1.27764

>  <SCORE.INTRA>
1.31957

>  <SCORE.INTRA.DIHEDRAL>
0.620923

>  <SCORE.INTRA.DIHEDRAL.0>
3.20029

>  <SCORE.INTRA.POLAR>
0

>  <SCORE.INTRA.POLAR.0>
0

>  <SCORE.INTRA.REPUL>
0

>  <SCORE.INTRA.REPUL.0>
0

>  <SCORE.INTRA.SOLV>
1.01787

>  <SCORE.INTRA.SOLV.lig_0>
-19.3885

>  <SCORE.INTRA.VDW>
0.500169

>  <SCORE.INTRA.VDW.0>
-1.12705

>  <SCORE.INTRA.norm>
0.0733092

>  <SCORE.RESTR>
0

>  <SCORE.RESTR.CAVITY>
0

>  <SCORE.RESTR.norm>
0

>  <SCORE.SYSTEM>
0

>  <SCORE.SYSTEM.CONST>
0

>  <SCORE.SYSTEM.DIHEDRAL>
0

>  <SCORE.SYSTEM.SOLV>
0

>  <SCORE.SYSTEM.norm>
0

>  <SCORE.heavy>
18

>  <SCORE.norm>
-1.20433

>  <RMSD>
7.487

$$$$
lig.pdb
 OpenBabel11021811503D
libRbt.so/2013.1/901 2013/11/27
 18 19  0  0  0  0  0  0  0  0999 V2000
   -6.4317   10.5360    5.7071 C   0  0  0  0  0  0  0  0  0  0  0  0
   -7.1194   14.6661    3.2573 N   0  0  0  0  0  0  0  0  0  0  0  0
  -12.0185   12.5019    2.5783 C   0  0  0  0  0  0  0  0  0  0  0  0
  -14.7988   16.7021    2.6431 O   0  0  0  0  0  0  0  0  0  0  0  0
  -14.7525   15.9611    3.8546 C   0  0  0  0  0  0  0  0  0  0  0  0
  -14.0822   14.5938    3.6176 C   0  0  0  0  0  0  0  0  0  0  0  0
  -10.3143   15.8299    2.3996 C   0  0  0  0  0  0  0  0  0  0  0  0
  -11.8261   16.4055    3.0219 S   0  0  0  0  0  0  0  0  0  0  0  0
  -12.6737   14.8463    3.1271 C   0  0  0  0  0  0  0  0  0  0  0  0
  -11.7102   13.9876    2.6589 C   0  0  0  0  0  0  0  0  0  0  0  0
  -10.5055   14.5214    2.2902 N   0  0  0  0  0  0  0  0  0  0  0  0
   -9.3841   13.6526    1.7846 C   0  0  0  0  0  0  0  0  0  0  0  0
   -7.5116   13.3501    3.5020 C   0  0  0  0  0  0  0  0  0  0  0  0
   -6.8325   12.5980    4.4213 N   0  0  0  0  0  0  0  0  0  0  0  0
   -7.1899   11.3364    4.6751 C   0  0  0  0  0  0  0  0  0  0  0  0
   -8.2199   10.7785    4.0323 N   0  0  0  0  0  0  0  0  0  0  0  0
   -8.9428   11.4644    3.1092 C   0  0  0  0  0  0  0  0  0  0  0  0
   -8.6211   12.7917    2.8045 C   0  0  0  0  0  0  0  0  0  0  0  0
  5  4  1  0  0  0  0
  5  6  1  0  0  0  0
  7  8  2  0  0  0  0
  7 11  1  0  0  0  0
  8  9  1  0  0  0  0
  9 10  2  0  0  0  0
  9  6  1  0  0  0  0
 10  3  1  0  0  0  0
 11 12  1  0  0  0  0
 11 10  1  0  0  0  0
 12 18  1  0  0  0  0
 13  2  1  0  0  0  0
 13 14  2  0  0  0  0
 15 14  1  0  0  0  0
 15  1  1  0  0  0  0
 16 15  2  0  0  0  0
 17 18  2  0  0  0  0
 17 16  1  0  0  0  0
 18 13  1  0  0  0  0
M  END
>  <CHROM.1>
60.54113918,7.18361197,104.75547056,-86.89374473,-10.33362171,13.90509077
3.28903171,0.59643546,-0.00742390,2.84575681

>  <Name>
lig.pdb

>  <RI>
0

>  <Rbt.Current_Directory>
/home/itssahil/PROJECTS/Mol_Feturizer/New_Systems/rnas/4nyg

>  <Rbt.Executable>
rbdock ($Id: //depot/dev/client3/rdock/2013.1/src/exe/rbdock.cxx#4 $)

>  <Rbt.Library>
libRbt.so (2013.1, Build901 2013/11/27)

>  <Rbt.Parameter_File>
/export/apps/rDock/src/rDock_2013.1_src/data/scripts/dock_solv.prm

>  <Rbt.Receptor>
prm/pocket_docking_7.prm

>  <SCORE>
-22.4444

>  <SCORE.INTER>
-24.4384

>  <SCORE.INTER.CONST>
1

>  <SCORE.INTER.POLAR>
0

>  <SCORE.INTER.ROT>
4

>  <SCORE.INTER.SOLV>
12.3047

>  <SCORE.INTER.VDW>
-26.6605

>  <SCORE.INTER.norm>
-1.35769

>  <SCORE.INTRA>
1.99404

>  <SCORE.INTRA.DIHEDRAL>
2.5695

>  <SCORE.INTRA.DIHEDRAL.0>
3.20029

>  <SCORE.INTRA.POLAR>
0

>  <SCORE.INTRA.POLAR.0>
0

>  <SCORE.INTRA.REPUL>
0

>  <SCORE.INTRA.REPUL.0>
0

>  <SCORE.INTRA.SOLV>
0.93891

>  <SCORE.INTRA.SOLV.lig_0>
-19.3885

>  <SCORE.INTRA.VDW>
0.239836

>  <SCORE.INTRA.VDW.0>
-1.12705

>  <SCORE.INTRA.norm>
0.11078

>  <SCORE.RESTR>
0

>  <SCORE.RESTR.CAVITY>
0

>  <SCORE.RESTR.norm>
0

>  <SCORE.SYSTEM>
0

>  <SCORE.SYSTEM.CONST>
0

>  <SCORE.SYSTEM.DIHEDRAL>
0

>  <SCORE.SYSTEM.SOLV>
0

>  <SCORE.SYSTEM.norm>
0

>  <SCORE.heavy>
18

>  <SCORE.norm>
-1.24691

>  <RMSD>
7.490

$$$$
lig.pdb
 OpenBabel11021811503D
libRbt.so/2013.1/901 2013/11/27
 18 19  0  0  0  0  0  0  0  0999 V2000
   -6.4224   10.5213    5.5486 C   0  0  0  0  0  0  0  0  0  0  0  0
   -7.2264   14.7170    3.2502 N   0  0  0  0  0  0  0  0  0  0  0  0
  -12.0208   12.5000    2.5781 C   0  0  0  0  0  0  0  0  0  0  0  0
  -14.8362   16.6918    2.7373 O   0  0  0  0  0  0  0  0  0  0  0  0
  -14.7514   15.9334    3.9359 C   0  0  0  0  0  0  0  0  0  0  0  0
  -14.0818   14.5732    3.6596 C   0  0  0  0  0  0  0  0  0  0  0  0
  -10.3679   15.8488    2.3223 C   0  0  0  0  0  0  0  0  0  0  0  0
  -11.8687   16.4096    2.9835 S   0  0  0  0  0  0  0  0  0  0  0  0
  -12.6916   14.8402    3.1262 C   0  0  0  0  0  0  0  0  0  0  0  0
  -11.7305   13.9904    2.6374 C   0  0  0  0  0  0  0  0  0  0  0  0
  -10.5444   14.5370    2.2294 N   0  0  0  0  0  0  0  0  0  0  0  0
   -9.4263   13.6789    1.6986 C   0  0  0  0  0  0  0  0  0  0  0  0
   -7.5722   13.3786    3.4363 C   0  0  0  0  0  0  0  0  0  0  0  0
   -6.8802   12.6164    4.3374 N   0  0  0  0  0  0  0  0  0  0  0  0
   -7.1935   11.3332    4.5353 C   0  0  0  0  0  0  0  0  0  0  0  0
   -8.1908   10.7633    3.8528 N   0  0  0  0  0  0  0  0  0  0  0  0
   -8.9240   11.4578    2.9444 C   0  0  0  0  0  0  0  0  0  0  0  0
   -8.6480   12.8073    2.6976 C   0  0  0  0  0  0  0  0  0  0  0  0
  5  4  1  0  0  0  0
  5  6  1  0  0  0  0
  7  8  2  0  0  0  0
  7 11  1  0  0  0  0
  8  9  1  0  0  0  0
  9 10  2  0  0  0  0
  9  6  1  0  0  0  0
 10  3  1  0  0  0  0
 11 12  1  0  0  0  0
 11 10  1  0  0  0  0
 12 18  1  0  0  0  0
 13  2  1  0  0  0  0
 13 14  2  0  0  0  0
 15 14  1  0  0  0  0
 15  1  1  0  0  0  0
 16 15  2  0  0  0  0
 17 18  2  0  0  0  0
 17 16  1  0  0  0  0
 18 13  1  0  0  0  0
M  END
>  <CHROM.1>
60.27331331,5.87241206,106.43078735,-83.89846823,-10.35933045,13.90888031
3.23794502,0.59280531,-0.02376611,2.85796987

>  <Name>
lig.pdb

>  <RI>
0

>  <Rbt.Current_Directory>
/home/itssahil/PROJECTS/Mol_Feturizer/New_Systems/rnas/4nyg

>  <Rbt.Executable>
rbdock ($Id: //depot/dev/client3/rdock/2013.1/src/exe/rbdock.cxx#4 $)

>  <Rbt.Library>
libRbt.so (2013.1, Build901 2013/11/27)

>  <Rbt.Parameter_File>
/export/apps/rDock/src/rDock_2013.1_src/data/scripts/dock_solv.prm

>  <Rbt.Receptor>
prm/pocket_docking_6.prm

>  <SCORE>
-22.3824

>  <SCORE.INTER>
-24.403

>  <SCORE.INTER.CONST>
1

>  <SCORE.INTER.POLAR>
0

>  <SCORE.INTER.ROT>
4

>  <SCORE.INTER.SOLV>
12.221

>  <SCORE.INTER.VDW>
-26.609

>  <SCORE.INTER.norm>
-1.35572

>  <SCORE.INTRA>
2.02056

>  <SCORE.INTRA.DIHEDRAL>
2.59454

>  <SCORE.INTRA.DIHEDRAL.0>
3.20029

>  <SCORE.INTRA.POLAR>
0

>  <SCORE.INTRA.POLAR.0>
0

>  <SCORE.INTRA.REPUL>
0

>  <SCORE.INTRA.REPUL.0>
0

>  <SCORE.INTRA.SOLV>
0.968147

>  <SCORE.INTRA.SOLV.lig_0>
-19.3885

>  <SCORE.INTRA.VDW>
0.23922

>  <SCORE.INTRA.VDW.0>
-1.12705

>  <SCORE.INTRA.norm>
0.112254

>  <SCORE.RESTR>
0

>  <SCORE.RESTR.CAVITY>
0

>  <SCORE.RESTR.norm>
0

>  <SCORE.SYSTEM>
0

>  <SCORE.SYSTEM.CONST>
0

>  <SCORE.SYSTEM.DIHEDRAL>
0

>  <SCORE.SYSTEM.SOLV>
0

>  <SCORE.SYSTEM.norm>
0

>  <SCORE.heavy>
18

>  <SCORE.norm>
-1.24347

>  <RMSD>
7.492

$$$$
lig.pdb
 OpenBabel11021811503D
libRbt.so/2013.1/901 2013/11/27
 18 19  0  0  0  0  0  0  0  0999 V2000
   -5.8453    8.4712    3.9628 C   0  0  0  0  0  0  0  0  0  0  0  0
   -7.3492   13.0562    3.4637 N   0  0  0  0  0  0  0  0  0  0  0  0
   -9.6787   15.3421    1.7374 C   0  0  0  0  0  0  0  0  0  0  0  0
  -14.4749   17.1353    3.2306 O   0  0  0  0  0  0  0  0  0  0  0  0
  -13.8750   15.8939    2.8867 C   0  0  0  0  0  0  0  0  0  0  0  0
  -12.3671   15.9250    3.2031 C   0  0  0  0  0  0  0  0  0  0  0  0
  -11.2494   12.0106    2.4049 C   0  0  0  0  0  0  0  0  0  0  0  0
  -12.4941   12.9744    3.1301 S   0  0  0  0  0  0  0  0  0  0  0  0
  -11.7873   14.5781    2.8316 C   0  0  0  0  0  0  0  0  0  0  0  0
  -10.6214   14.2398    2.1903 C   0  0  0  0  0  0  0  0  0  0  0  0
  -10.3694   12.9107    1.9852 N   0  0  0  0  0  0  0  0  0  0  0  0
   -9.1257   12.4486    1.2728 C   0  0  0  0  0  0  0  0  0  0  0  0
   -7.4076   11.7323    3.0285 C   0  0  0  0  0  0  0  0  0  0  0  0
   -6.6456   10.7790    3.6469 N   0  0  0  0  0  0  0  0  0  0  0  0
   -6.6855    9.5043    3.2503 C   0  0  0  0  0  0  0  0  0  0  0  0
   -7.4708    9.1316    2.2355 N   0  0  0  0  0  0  0  0  0  0  0  0
   -8.2574   10.0213    1.5762 C   0  0  0  0  0  0  0  0  0  0  0  0
   -8.2641   11.3700    1.9494 C   0  0  0  0  0  0  0  0  0  0  0  0
  5  4  1  0  0  0  0
  5  6  1  0  0  0  0
  7  8  2  0  0  0  0
  7 11  1  0  0  0  0
  8  9  1  0  0  0  0
  9 10  2  0  0  0  0
  9  6  1  0  0  0  0
 10  3  1  0  0  0  0
 11 12  1  0  0  0  0
 11 10  1  0  0  0  0
 12 18  1  0  0  0  0
 13  2  1  0  0  0  0
 13 14  2  0  0  0  0
 15 14  1  0  0  0  0
 15  1  1  0  0  0  0
 16 15  2  0  0  0  0
 17 18  2  0  0  0  0
 17 16  1  0  0  0  0
 18 13  1  0  0  0  0
M  END
>  <CHROM.1>
179.41450696,-42.11974188,-52.06236909,-77.14406987,-9.90814986,12.71786379
2.70921441,0.74167023,-0.01550161,3.11270643

>  <Name>
lig.pdb

>  <RI>
0

>  <Rbt.Current_Directory>
/home/itssahil/PROJECTS/Mol_Feturizer/New_Systems/rnas/4nyg

>  <Rbt.Executable>
rbdock ($Id: //depot/dev/client3/rdock/2013.1/src/exe/rbdock.cxx#4 $)

>  <Rbt.Library>
libRbt.so (2013.1, Build901 2013/11/27)

>  <Rbt.Parameter_File>
/export/apps/rDock/src/rDock_2013.1_src/data/scripts/dock_solv.prm

>  <Rbt.Receptor>
prm/pocket_docking_6.prm

>  <SCORE>
-24.4611

>  <SCORE.INTER>
-24.7112

>  <SCORE.INTER.CONST>
1

>  <SCORE.INTER.POLAR>
0

>  <SCORE.INTER.ROT>
4

>  <SCORE.INTER.SOLV>
13.4145

>  <SCORE.INTER.VDW>
-27.2123

>  <SCORE.INTER.norm>
-1.37284

>  <SCORE.INTRA>
0.250016

>  <SCORE.INTRA.DIHEDRAL>
0.48815

>  <SCORE.INTRA.DIHEDRAL.0>
3.20029

>  <SCORE.INTRA.POLAR>
0

>  <SCORE.INTRA.POLAR.0>
0

>  <SCORE.INTRA.REPUL>
0

>  <SCORE.INTRA.REPUL.0>
0

>  <SCORE.INTRA.SOLV>
0.714418

>  <SCORE.INTRA.SOLV.lig_0>
-19.3885

>  <SCORE.INTRA.VDW>
-0.351268

>  <SCORE.INTRA.VDW.0>
-1.12705

>  <SCORE.INTRA.norm>
0.0138898

>  <SCORE.RESTR>
0

>  <SCORE.RESTR.CAVITY>
0

>  <SCORE.RESTR.norm>
0

>  <SCORE.SYSTEM>
0

>  <SCORE.SYSTEM.CONST>
0

>  <SCORE.SYSTEM.DIHEDRAL>
0

>  <SCORE.SYSTEM.SOLV>
0

>  <SCORE.SYSTEM.norm>
0

>  <SCORE.heavy>
18

>  <SCORE.norm>
-1.35895

>  <RMSD>
7.492

$$$$
lig.pdb
 OpenBabel11021811503D
libRbt.so/2013.1/901 2013/11/27
 18 19  0  0  0  0  0  0  0  0999 V2000
   -5.2288   12.4037    0.3152 C   0  0  0  0  0  0  0  0  0  0  0  0
   -9.4801   10.6757    1.8878 N   0  0  0  0  0  0  0  0  0  0  0  0
  -13.3203   13.4647    3.3654 C   0  0  0  0  0  0  0  0  0  0  0  0
  -14.7497   16.1317    5.1514 O   0  0  0  0  0  0  0  0  0  0  0  0
  -14.6337   17.0407    4.0654 C   0  0  0  0  0  0  0  0  0  0  0  0
  -14.5228   16.2705    2.7353 C   0  0  0  0  0  0  0  0  0  0  0  0
  -10.4786   15.5680    2.1355 C   0  0  0  0  0  0  0  0  0  0  0  0
  -11.7085   16.7813    1.9964 S   0  0  0  0  0  0  0  0  0  0  0  0
  -13.0870   15.8210    2.5777 C   0  0  0  0  0  0  0  0  0  0  0  0
  -12.4826   14.6148    2.8320 C   0  0  0  0  0  0  0  0  0  0  0  0
  -11.1391   14.5125    2.5940 N   0  0  0  0  0  0  0  0  0  0  0  0
  -10.3896   13.2343    2.8632 C   0  0  0  0  0  0  0  0  0  0  0  0
   -8.6201   11.7642    1.7429 C   0  0  0  0  0  0  0  0  0  0  0  0
   -7.4012   11.5930    1.1456 N   0  0  0  0  0  0  0  0  0  0  0  0
   -6.5609   12.6198    0.9931 C   0  0  0  0  0  0  0  0  0  0  0  0
   -6.8922   13.8401    1.4249 N   0  0  0  0  0  0  0  0  0  0  0  0
   -8.0860   14.0868    2.0242 C   0  0  0  0  0  0  0  0  0  0  0  0
   -9.0113   13.0531    2.2068 C   0  0  0  0  0  0  0  0  0  0  0  0
  5  4  1  0  0  0  0
  5  6  1  0  0  0  0
  7  8  2  0  0  0  0
  7 11  1  0  0  0  0
  8  9  1  0  0  0  0
  9 10  2  0  0  0  0
  9  6  1  0  0  0  0
 10  3  1  0  0  0  0
 11 12  1  0  0  0  0
 11 10  1  0  0  0  0
 12 18  1  0  0  0  0
 13  2  1  0  0  0  0
 13 14  2  0  0  0  0
 15 14  1  0  0  0  0
 15  1  1  0  0  0  0
 16 15  2  0  0  0  0
 17 18  2  0  0  0  0
 17 16  1  0  0  0  0
 18 13  1  0  0  0  0
M  END
>  <CHROM.1>
-81.04725170,-80.92920589,-18.53941639,-143.17697502,-10.57198939,14.28834542
2.34282641,-0.43743328,0.39517639,-0.15020852

>  <Name>
lig.pdb

>  <RI>
0

>  <Rbt.Current_Directory>
/home/itssahil/PROJECTS/Mol_Feturizer/New_Systems/rnas/4nyg

>  <Rbt.Executable>
rbdock ($Id: //depot/dev/client3/rdock/2013.1/src/exe/rbdock.cxx#4 $)

>  <Rbt.Library>
libRbt.so (2013.1, Build901 2013/11/27)

>  <Rbt.Parameter_File>
/export/apps/rDock/src/rDock_2013.1_src/data/scripts/dock_solv.prm

>  <Rbt.Receptor>
prm/blind_docking_40.prm

>  <SCORE>
-5.15938

>  <SCORE.INTER>
-9.50215

>  <SCORE.INTER.CONST>
1

>  <SCORE.INTER.POLAR>
0

>  <SCORE.INTER.ROT>
4

>  <SCORE.INTER.SOLV>
14.3583

>  <SCORE.INTER.VDW>
-17.3875

>  <SCORE.INTER.norm>
-0.527897

>  <SCORE.INTRA>
2.34829

>  <SCORE.INTRA.DIHEDRAL>
2.22629

>  <SCORE.INTRA.DIHEDRAL.0>
3.20029

>  <SCORE.INTRA.POLAR>
0

>  <SCORE.INTRA.POLAR.0>
0

>  <SCORE.INTRA.REPUL>
0

>  <SCORE.INTRA.REPUL.0>
0

>  <SCORE.INTRA.SOLV>
0.544235

>  <SCORE.INTRA.SOLV.lig_0>
-19.3885

>  <SCORE.INTRA.VDW>
0.963032

>  <SCORE.INTRA.VDW.0>
-1.12705

>  <SCORE.INTRA.norm>
0.130461

>  <SCORE.RESTR>
1.99447

>  <SCORE.RESTR.CAVITY>
1.99447

>  <SCORE.RESTR.norm>
0.110804

>  <SCORE.SYSTEM>
0

>  <SCORE.SYSTEM.CONST>
0

>  <SCORE.SYSTEM.DIHEDRAL>
0

>  <SCORE.SYSTEM.SOLV>
0

>  <SCORE.SYSTEM.norm>
0

>  <SCORE.heavy>
18

>  <SCORE.norm>
-0.286632

>  <RMSD>
7.496

$$$$
lig.pdb
 OpenBabel11021811503D
libRbt.so/2013.1/901 2013/11/27
 18 19  0  0  0  0  0  0  0  0999 V2000
   -4.6079   16.4126   -0.0277 C   0  0  0  0  0  0  0  0  0  0  0  0
   -7.6898   15.5348    3.6142 N   0  0  0  0  0  0  0  0  0  0  0  0
  -12.0019   12.6590    2.8860 C   0  0  0  0  0  0  0  0  0  0  0  0
  -14.6726   17.1104    3.6286 O   0  0  0  0  0  0  0  0  0  0  0  0
  -14.6977   15.8492    4.2827 C   0  0  0  0  0  0  0  0  0  0  0  0
  -14.2920   14.7320    3.3018 C   0  0  0  0  0  0  0  0  0  0  0  0
  -10.5388   16.0090    2.0808 C   0  0  0  0  0  0  0  0  0  0  0  0
  -12.1346   16.5674    2.4627 S   0  0  0  0  0  0  0  0  0  0  0  0
  -12.8707   14.9981    2.8577 C   0  0  0  0  0  0  0  0  0  0  0  0
  -11.8115   14.1486    2.6539 C   0  0  0  0  0  0  0  0  0  0  0  0
  -10.6235   14.6961    2.2529 N   0  0  0  0  0  0  0  0  0  0  0  0
   -9.4036   13.8429    2.0250 C   0  0  0  0  0  0  0  0  0  0  0  0
   -7.3428   15.3385    2.2776 C   0  0  0  0  0  0  0  0  0  0  0  0
   -6.2183   15.9322    1.7727 N   0  0  0  0  0  0  0  0  0  0  0  0
   -5.8634   15.7578    0.4970 C   0  0  0  0  0  0  0  0  0  0  0  0
   -6.6032   14.9998   -0.3175 N   0  0  0  0  0  0  0  0  0  0  0  0
   -7.7305   14.3764    0.1136 C   0  0  0  0  0  0  0  0  0  0  0  0
   -8.1505   14.5155    1.4411 C   0  0  0  0  0  0  0  0  0  0  0  0
  5  4  1  0  0  0  0
  5  6  1  0  0  0  0
  7  8  2  0  0  0  0
  7 11  1  0  0  0  0
  8  9  1  0  0  0  0
  9 10  2  0  0  0  0
  9  6  1  0  0  0  0
 10  3  1  0  0  0  0
 11 12  1  0  0  0  0
 11 10  1  0  0  0  0
 12 18  1  0  0  0  0
 13  2  1  0  0  0  0
 13 14  2  0  0  0  0
 15 14  1  0  0  0  0
 15  1  1  0  0  0  0
 16 15  2  0  0  0  0
 17 18  2  0  0  0  0
 17 16  1  0  0  0  0
 18 13  1  0  0  0  0
M  END
>  <CHROM.1>
62.38530946,-40.18044955,-7.04948704,75.84411035,-10.05973912,15.30642507
2.14517248,-0.03704966,0.32700243,0.07703308

>  <Name>
lig.pdb

>  <RI>
0

>  <Rbt.Current_Directory>
/home/itssahil/PROJECTS/Mol_Feturizer/New_Systems/rnas/4nyg

>  <Rbt.Executable>
rbdock ($Id: //depot/dev/client3/rdock/2013.1/src/exe/rbdock.cxx#4 $)

>  <Rbt.Library>
libRbt.so (2013.1, Build901 2013/11/27)

>  <Rbt.Parameter_File>
/export/apps/rDock/src/rDock_2013.1_src/data/scripts/dock_solv.prm

>  <Rbt.Receptor>
prm/pocket_docking_8.prm

>  <SCORE>
-21.7258

>  <SCORE.INTER>
-22.9647

>  <SCORE.INTER.CONST>
1

>  <SCORE.INTER.POLAR>
0

>  <SCORE.INTER.ROT>
4

>  <SCORE.INTER.SOLV>
11.8209

>  <SCORE.INTER.VDW>
-25.5168

>  <SCORE.INTER.norm>
-1.27582

>  <SCORE.INTRA>
1.23896

>  <SCORE.INTRA.DIHEDRAL>
0.614296

>  <SCORE.INTRA.DIHEDRAL.0>
3.20029

>  <SCORE.INTRA.POLAR>
0

>  <SCORE.INTRA.POLAR.0>
0

>  <SCORE.INTRA.REPUL>
0

>  <SCORE.INTRA.REPUL.0>
0

>  <SCORE.INTRA.SOLV>
1.00238

>  <SCORE.INTRA.SOLV.lig_0>
-19.3885

>  <SCORE.INTRA.VDW>
0.43062

>  <SCORE.INTRA.VDW.0>
-1.12705

>  <SCORE.INTRA.norm>
0.068831

>  <SCORE.RESTR>
0

>  <SCORE.RESTR.CAVITY>
0

>  <SCORE.RESTR.norm>
0

>  <SCORE.SYSTEM>
0

>  <SCORE.SYSTEM.CONST>
0

>  <SCORE.SYSTEM.DIHEDRAL>
0

>  <SCORE.SYSTEM.SOLV>
0

>  <SCORE.SYSTEM.norm>
0

>  <SCORE.heavy>
18

>  <SCORE.norm>
-1.20699

>  <RMSD>
7.498

$$$$
lig.pdb
 OpenBabel11021811503D
libRbt.so/2013.1/901 2013/11/27
 18 19  0  0  0  0  0  0  0  0999 V2000
   -4.6048   16.3958   -0.0290 C   0  0  0  0  0  0  0  0  0  0  0  0
   -7.6976   15.5620    3.6141 N   0  0  0  0  0  0  0  0  0  0  0  0
  -12.0074   12.6481    2.8614 C   0  0  0  0  0  0  0  0  0  0  0  0
  -14.6805   17.0963    3.6297 O   0  0  0  0  0  0  0  0  0  0  0  0
  -14.7099   15.8267    4.2671 C   0  0  0  0  0  0  0  0  0  0  0  0
  -14.2968   14.7225    3.2746 C   0  0  0  0  0  0  0  0  0  0  0  0
  -10.5256   16.0034    2.1143 C   0  0  0  0  0  0  0  0  0  0  0  0
  -12.1243   16.5617    2.4837 S   0  0  0  0  0  0  0  0  0  0  0  0
  -12.8694   14.9898    2.8508 C   0  0  0  0  0  0  0  0  0  0  0  0
  -11.8102   14.1398    2.6496 C   0  0  0  0  0  0  0  0  0  0  0  0
  -10.6159   14.6887    2.2696 N   0  0  0  0  0  0  0  0  0  0  0  0
   -9.3956   13.8349    2.0461 C   0  0  0  0  0  0  0  0  0  0  0  0
   -7.3438   15.3454    2.2824 C   0  0  0  0  0  0  0  0  0  0  0  0
   -6.2204   15.9366    1.7725 N   0  0  0  0  0  0  0  0  0  0  0  0
   -5.8592   15.7431    0.5013 C   0  0  0  0  0  0  0  0  0  0  0  0
   -6.5915   14.9677   -0.3036 N   0  0  0  0  0  0  0  0  0  0  0  0
   -7.7173   14.3455    0.1331 C   0  0  0  0  0  0  0  0  0  0  0  0
   -8.1437   14.5044    1.4564 C   0  0  0  0  0  0  0  0  0  0  0  0
  5  4  1  0  0  0  0
  5  6  1  0  0  0  0
  7  8  2  0  0  0  0
  7 11  1  0  0  0  0
  8  9  1  0  0  0  0
  9 10  2  0  0  0  0
  9  6  1  0  0  0  0
 10  3  1  0  0  0  0
 11 12  1  0  0  0  0
 11 10  1  0  0  0  0
 12 18  1  0  0  0  0
 13  2  1  0  0  0  0
 13 14  2  0  0  0  0
 15 14  1  0  0  0  0
 15  1  1  0  0  0  0
 16 15  2  0  0  0  0
 17 18  2  0  0  0  0
 17 16  1  0  0  0  0
 18 13  1  0  0  0  0
M  END
>  <CHROM.1>
62.73731684,-40.34322579,-8.37643929,75.15094265,-10.05719809,15.29726758
2.15000506,-0.04263258,0.32470612,0.09445014

>  <Name>
lig.pdb

>  <RI>
0

>  <Rbt.Current_Directory>
/home/itssahil/PROJECTS/Mol_Feturizer/New_Systems/rnas/4nyg

>  <Rbt.Executable>
rbdock ($Id: //depot/dev/client3/rdock/2013.1/src/exe/rbdock.cxx#4 $)

>  <Rbt.Library>
libRbt.so (2013.1, Build901 2013/11/27)

>  <Rbt.Parameter_File>
/export/apps/rDock/src/rDock_2013.1_src/data/scripts/dock_solv.prm

>  <Rbt.Receptor>
prm/pocket_docking_4.prm

>  <SCORE>
-21.6906

>  <SCORE.INTER>
-22.9133

>  <SCORE.INTER.CONST>
1

>  <SCORE.INTER.POLAR>
0

>  <SCORE.INTER.ROT>
4

>  <SCORE.INTER.SOLV>
11.8167

>  <SCORE.INTER.VDW>
-25.4811

>  <SCORE.INTER.norm>
-1.27296

>  <SCORE.INTRA>
1.22271

>  <SCORE.INTRA.DIHEDRAL>
0.61555

>  <SCORE.INTRA.DIHEDRAL.0>
3.20029

>  <SCORE.INTRA.POLAR>
0

>  <SCORE.INTRA.POLAR.0>
0

>  <SCORE.INTRA.REPUL>
0

>  <SCORE.INTRA.REPUL.0>
0

>  <SCORE.INTRA.SOLV>
1.01437

>  <SCORE.INTRA.SOLV.lig_0>
-19.3885

>  <SCORE.INTRA.VDW>
0.407747

>  <SCORE.INTRA.VDW.0>
-1.12705

>  <SCORE.INTRA.norm>
0.0679281

>  <SCORE.RESTR>
0

>  <SCORE.RESTR.CAVITY>
0

>  <SCORE.RESTR.norm>
0

>  <SCORE.SYSTEM>
0

>  <SCORE.SYSTEM.CONST>
0

>  <SCORE.SYSTEM.DIHEDRAL>
0

>  <SCORE.SYSTEM.SOLV>
0

>  <SCORE.SYSTEM.norm>
0

>  <SCORE.heavy>
18

>  <SCORE.norm>
-1.20503

>  <RMSD>
7.501

$$$$
lig.pdb
 OpenBabel11021811503D
libRbt.so/2013.1/901 2013/11/27
 18 19  0  0  0  0  0  0  0  0999 V2000
   -5.4156   12.7084    5.6768 C   0  0  0  0  0  0  0  0  0  0  0  0
   -8.8903   11.1433    2.6753 N   0  0  0  0  0  0  0  0  0  0  0  0
  -12.1282   12.7558    2.9410 C   0  0  0  0  0  0  0  0  0  0  0  0
  -15.9935   16.2083    4.7293 O   0  0  0  0  0  0  0  0  0  0  0  0
  -14.6744   16.3069    4.2105 C   0  0  0  0  0  0  0  0  0  0  0  0
  -14.2311   14.9537    3.6211 C   0  0  0  0  0  0  0  0  0  0  0  0
  -10.5831   16.0208    1.9591 C   0  0  0  0  0  0  0  0  0  0  0  0
  -12.0878   16.6672    2.5268 S   0  0  0  0  0  0  0  0  0  0  0  0
  -12.8598   15.1405    3.0104 C   0  0  0  0  0  0  0  0  0  0  0  0
  -11.8824   14.2332    2.6842 C   0  0  0  0  0  0  0  0  0  0  0  0
  -10.7213   14.7141    2.1434 N   0  0  0  0  0  0  0  0  0  0  0  0
   -9.5876   13.7940    1.7741 C   0  0  0  0  0  0  0  0  0  0  0  0
   -8.1864   12.2164    3.2216 C   0  0  0  0  0  0  0  0  0  0  0  0
   -7.1999   11.9852    4.1408 N   0  0  0  0  0  0  0  0  0  0  0  0
   -6.5101   12.9956    4.6768 C   0  0  0  0  0  0  0  0  0  0  0  0
   -6.7716   14.2586    4.3279 N   0  0  0  0  0  0  0  0  0  0  0  0
   -7.7341   14.5648    3.4196 C   0  0  0  0  0  0  0  0  0  0  0  0
   -8.4863   13.5495    2.8184 C   0  0  0  0  0  0  0  0  0  0  0  0
  5  4  1  0  0  0  0
  5  6  1  0  0  0  0
  7  8  2  0  0  0  0
  7 11  1  0  0  0  0
  8  9  1  0  0  0  0
  9 10  2  0  0  0  0
  9  6  1  0  0  0  0
 10  3  1  0  0  0  0
 11 12  1  0  0  0  0
 11 10  1  0  0  0  0
 12 18  1  0  0  0  0
 13  2  1  0  0  0  0
 13 14  2  0  0  0  0
 15 14  1  0  0  0  0
 15  1  1  0  0  0  0
 16 15  2  0  0  0  0
 17 18  2  0  0  0  0
 17 16  1  0  0  0  0
 18 13  1  0  0  0  0
M  END
>  <CHROM.1>
176.57506800,-19.32697778,86.01548509,123.98210837,-10.41290603,14.31341410
3.33258643,-0.41643520,-0.05487759,-0.06864509

>  <Name>
lig.pdb

>  <RI>
0

>  <Rbt.Current_Directory>
/home/itssahil/PROJECTS/Mol_Feturizer/New_Systems/rnas/4nyg

>  <Rbt.Executable>
rbdock ($Id: //depot/dev/client3/rdock/2013.1/src/exe/rbdock.cxx#4 $)

>  <Rbt.Library>
libRbt.so (2013.1, Build901 2013/11/27)

>  <Rbt.Parameter_File>
/export/apps/rDock/src/rDock_2013.1_src/data/scripts/dock_solv.prm

>  <Rbt.Receptor>
prm/pocket_docking_7.prm

>  <SCORE>
-20.401

>  <SCORE.INTER>
-21.5545

>  <SCORE.INTER.CONST>
1

>  <SCORE.INTER.POLAR>
0

>  <SCORE.INTER.ROT>
4

>  <SCORE.INTER.SOLV>
13.0183

>  <SCORE.INTER.VDW>
-24.9758

>  <SCORE.INTER.norm>
-1.19747

>  <SCORE.INTRA>
1.1535

>  <SCORE.INTRA.DIHEDRAL>
2.07801

>  <SCORE.INTRA.DIHEDRAL.0>
3.20029

>  <SCORE.INTRA.POLAR>
0

>  <SCORE.INTRA.POLAR.0>
0

>  <SCORE.INTRA.REPUL>
0

>  <SCORE.INTRA.REPUL.0>
0

>  <SCORE.INTRA.SOLV>
0.318563

>  <SCORE.INTRA.SOLV.lig_0>
-19.3885

>  <SCORE.INTRA.VDW>
-0.0447835

>  <SCORE.INTRA.VDW.0>
-1.12705

>  <SCORE.INTRA.norm>
0.0640834

>  <SCORE.RESTR>
0

>  <SCORE.RESTR.CAVITY>
0

>  <SCORE.RESTR.norm>
0

>  <SCORE.SYSTEM>
0

>  <SCORE.SYSTEM.CONST>
0

>  <SCORE.SYSTEM.DIHEDRAL>
0

>  <SCORE.SYSTEM.SOLV>
0

>  <SCORE.SYSTEM.norm>
0

>  <SCORE.heavy>
18

>  <SCORE.norm>
-1.13339

>  <RMSD>
7.503

$$$$
lig.pdb
 OpenBabel11021811503D
libRbt.so/2013.1/901 2013/11/27
 18 19  0  0  0  0  0  0  0  0999 V2000
   -5.9473   11.0479    5.9794 C   0  0  0  0  0  0  0  0  0  0  0  0
   -7.2391   14.5571    2.8893 N   0  0  0  0  0  0  0  0  0  0  0  0
  -10.2064   16.0017    1.8408 C   0  0  0  0  0  0  0  0  0  0  0  0
  -15.0950   15.7775    3.8666 O   0  0  0  0  0  0  0  0  0  0  0  0
  -13.9921   16.6612    4.0139 C   0  0  0  0  0  0  0  0  0  0  0  0
  -13.1204   16.6419    2.7432 C   0  0  0  0  0  0  0  0  0  0  0  0
  -11.7879   12.7139    2.6782 C   0  0  0  0  0  0  0  0  0  0  0  0
  -13.1617   13.7037    3.0481 S   0  0  0  0  0  0  0  0  0  0  0  0
  -12.4529   15.2870    2.6590 C   0  0  0  0  0  0  0  0  0  0  0  0
  -11.1862   14.9239    2.2736 C   0  0  0  0  0  0  0  0  0  0  0  0
  -10.8707   13.5927    2.2946 N   0  0  0  0  0  0  0  0  0  0  0  0
   -9.5120   13.1015    1.8694 C   0  0  0  0  0  0  0  0  0  0  0  0
   -7.4794   13.2868    3.4127 C   0  0  0  0  0  0  0  0  0  0  0  0
   -6.6546   12.7832    4.3812 N   0  0  0  0  0  0  0  0  0  0  0  0
   -6.8648   11.5705    4.8998 C   0  0  0  0  0  0  0  0  0  0  0  0
   -7.8868   10.8189    4.4803 N   0  0  0  0  0  0  0  0  0  0  0  0
   -8.7490   11.2535    3.5248 C   0  0  0  0  0  0  0  0  0  0  0  0
   -8.5848   12.5178    2.9479 C   0  0  0  0  0  0  0  0  0  0  0  0
  5  4  1  0  0  0  0
  5  6  1  0  0  0  0
  7  8  2  0  0  0  0
  7 11  1  0  0  0  0
  8  9  1  0  0  0  0
  9 10  2  0  0  0  0
  9  6  1  0  0  0  0
 10  3  1  0  0  0  0
 11 12  1  0  0  0  0
 11 10  1  0  0  0  0
 12 18  1  0  0  0  0
 13  2  1  0  0  0  0
 13 14  2  0  0  0  0
 15 14  1  0  0  0  0
 15  1  1  0  0  0  0
 16 15  2  0  0  0  0
 17 18  2  0  0  0  0
 17 16  1  0  0  0  0
 18 13  1  0  0  0  0
M  END
>  <CHROM.1>
-68.56789106,39.54884588,-69.68556621,-105.14391842,-10.30804565,13.71576445
3.31698787,0.52952238,-0.05985500,2.70089054

>  <Name>
lig.pdb

>  <RI>
0

>  <Rbt.Current_Directory>
/home/itssahil/PROJECTS/Mol_Feturizer/New_Systems/rnas/4nyg

>  <Rbt.Executable>
rbdock ($Id: //depot/dev/client3/rdock/2013.1/src/exe/rbdock.cxx#4 $)

>  <Rbt.Library>
libRbt.so (2013.1, Build901 2013/11/27)

>  <Rbt.Parameter_File>
/export/apps/rDock/src/rDock_2013.1_src/data/scripts/dock_solv.prm

>  <Rbt.Receptor>
prm/pocket_docking_6.prm

>  <SCORE>
-23.8047

>  <SCORE.INTER>
-24.4273

>  <SCORE.INTER.CONST>
1

>  <SCORE.INTER.POLAR>
0

>  <SCORE.INTER.ROT>
4

>  <SCORE.INTER.SOLV>
11.8801

>  <SCORE.INTER.VDW>
-26.5116

>  <SCORE.INTER.norm>
-1.35707

>  <SCORE.INTRA>
0.622539

>  <SCORE.INTRA.DIHEDRAL>
0.874444

>  <SCORE.INTRA.DIHEDRAL.0>
3.20029

>  <SCORE.INTRA.POLAR>
0

>  <SCORE.INTRA.POLAR.0>
0

>  <SCORE.INTRA.REPUL>
0

>  <SCORE.INTRA.REPUL.0>
0

>  <SCORE.INTRA.SOLV>
0.905723

>  <SCORE.INTRA.SOLV.lig_0>
-19.3885

>  <SCORE.INTRA.VDW>
-0.267545

>  <SCORE.INTRA.VDW.0>
-1.12705

>  <SCORE.INTRA.norm>
0.0345855

>  <SCORE.RESTR>
0

>  <SCORE.RESTR.CAVITY>
0

>  <SCORE.RESTR.norm>
0

>  <SCORE.SYSTEM>
0

>  <SCORE.SYSTEM.CONST>
0

>  <SCORE.SYSTEM.DIHEDRAL>
0

>  <SCORE.SYSTEM.SOLV>
0

>  <SCORE.SYSTEM.norm>
0

>  <SCORE.heavy>
18

>  <SCORE.norm>
-1.32249

>  <RMSD>
7.506

$$$$
lig.pdb
 OpenBabel11021811503D
libRbt.so/2013.1/901 2013/11/27
 18 19  0  0  0  0  0  0  0  0999 V2000
   -6.0050    8.9309    4.3625 C   0  0  0  0  0  0  0  0  0  0  0  0
   -9.0249   10.1662    0.7728 N   0  0  0  0  0  0  0  0  0  0  0  0
  -10.1412   15.7530    1.7250 C   0  0  0  0  0  0  0  0  0  0  0  0
  -14.7689   17.0768    4.2677 O   0  0  0  0  0  0  0  0  0  0  0  0
  -14.1007   15.8626    3.9543 C   0  0  0  0  0  0  0  0  0  0  0  0
  -13.0058   16.1138    2.8992 C   0  0  0  0  0  0  0  0  0  0  0  0
  -11.3561   12.3201    2.5915 C   0  0  0  0  0  0  0  0  0  0  0  0
  -12.7701   13.1767    3.1119 S   0  0  0  0  0  0  0  0  0  0  0  0
  -12.2361   14.8249    2.7133 C   0  0  0  0  0  0  0  0  0  0  0  0
  -10.9830   14.5834    2.2070 C   0  0  0  0  0  0  0  0  0  0  0  0
  -10.5551   13.2848    2.1575 N   0  0  0  0  0  0  0  0  0  0  0  0
   -9.2034   12.9248    1.5994 C   0  0  0  0  0  0  0  0  0  0  0  0
   -8.3069   10.5479    1.9060 C   0  0  0  0  0  0  0  0  0  0  0  0
   -7.5466    9.6257    2.5718 N   0  0  0  0  0  0  0  0  0  0  0  0
   -6.8482    9.9668    3.6580 C   0  0  0  0  0  0  0  0  0  0  0  0
   -6.8795   11.2197    4.1212 N   0  0  0  0  0  0  0  0  0  0  0  0
   -7.6088   12.1897    3.5110 C   0  0  0  0  0  0  0  0  0  0  0  0
   -8.3564   11.8955    2.3653 C   0  0  0  0  0  0  0  0  0  0  0  0
  5  4  1  0  0  0  0
  5  6  1  0  0  0  0
  7  8  2  0  0  0  0
  7 11  1  0  0  0  0
  8  9  1  0  0  0  0
  9 10  2  0  0  0  0
  9  6  1  0  0  0  0
 10  3  1  0  0  0  0
 11 12  1  0  0  0  0
 11 10  1  0  0  0  0
 12 18  1  0  0  0  0
 13  2  1  0  0  0  0
 13 14  2  0  0  0  0
 15 14  1  0  0  0  0
 15  1  1  0  0  0  0
 16 15  2  0  0  0  0
 17 18  2  0  0  0  0
 17 16  1  0  0  0  0
 18 13  1  0  0  0  0
M  END
>  <CHROM.1>
174.13986138,20.87927534,-44.72059403,100.93151883,-10.22481155,12.87940740
2.84649171,0.39014777,-0.63032359,2.22033585

>  <Name>
lig.pdb

>  <RI>
0

>  <Rbt.Current_Directory>
/home/itssahil/PROJECTS/Mol_Feturizer/New_Systems/rnas/4nyg

>  <Rbt.Executable>
rbdock ($Id: //depot/dev/client3/rdock/2013.1/src/exe/rbdock.cxx#4 $)

>  <Rbt.Library>
libRbt.so (2013.1, Build901 2013/11/27)

>  <Rbt.Parameter_File>
/export/apps/rDock/src/rDock_2013.1_src/data/scripts/dock_solv.prm

>  <Rbt.Receptor>
prm/pocket_docking_6.prm

>  <SCORE>
-23.8813

>  <SCORE.INTER>
-25.3329

>  <SCORE.INTER.CONST>
1

>  <SCORE.INTER.POLAR>
0

>  <SCORE.INTER.ROT>
4

>  <SCORE.INTER.SOLV>
14.3132

>  <SCORE.INTER.VDW>
-27.9263

>  <SCORE.INTER.norm>
-1.40738

>  <SCORE.INTRA>
1.45159

>  <SCORE.INTRA.DIHEDRAL>
2.07143

>  <SCORE.INTRA.DIHEDRAL.0>
3.20029

>  <SCORE.INTRA.POLAR>
0

>  <SCORE.INTRA.POLAR.0>
0

>  <SCORE.INTRA.REPUL>
0

>  <SCORE.INTRA.REPUL.0>
0

>  <SCORE.INTRA.SOLV>
0.3014

>  <SCORE.INTRA.SOLV.lig_0>
-19.3885

>  <SCORE.INTRA.VDW>
0.265175

>  <SCORE.INTRA.VDW.0>
-1.12705

>  <SCORE.INTRA.norm>
0.0806439

>  <SCORE.RESTR>
0

>  <SCORE.RESTR.CAVITY>
0

>  <SCORE.RESTR.norm>
0

>  <SCORE.SYSTEM>
0

>  <SCORE.SYSTEM.CONST>
0

>  <SCORE.SYSTEM.DIHEDRAL>
0

>  <SCORE.SYSTEM.SOLV>
0

>  <SCORE.SYSTEM.norm>
0

>  <SCORE.heavy>
18

>  <SCORE.norm>
-1.32674

>  <RMSD>
7.511

$$$$
lig.pdb
 OpenBabel11021811503D
libRbt.so/2013.1/901 2013/11/27
 18 19  0  0  0  0  0  0  0  0999 V2000
   -5.7323   10.8392    5.7676 C   0  0  0  0  0  0  0  0  0  0  0  0
   -7.3307   14.5064    3.0238 N   0  0  0  0  0  0  0  0  0  0  0  0
  -10.0520   15.9152    2.0624 C   0  0  0  0  0  0  0  0  0  0  0  0
  -15.0427   15.8452    3.9041 O   0  0  0  0  0  0  0  0  0  0  0  0
  -14.3884   16.5660    2.8690 C   0  0  0  0  0  0  0  0  0  0  0  0
  -12.8765   16.6536    3.1542 C   0  0  0  0  0  0  0  0  0  0  0  0
  -11.7617   12.6721    2.8179 C   0  0  0  0  0  0  0  0  0  0  0  0
  -13.0594   13.7093    3.3120 S   0  0  0  0  0  0  0  0  0  0  0  0
  -12.2879   15.2730    2.9652 C   0  0  0  0  0  0  0  0  0  0  0  0
  -11.0643   14.8670    2.4932 C   0  0  0  0  0  0  0  0  0  0  0  0
  -10.8199   13.5223    2.4295 N   0  0  0  0  0  0  0  0  0  0  0  0
   -9.5135   12.9860    1.9063 C   0  0  0  0  0  0  0  0  0  0  0  0
   -7.4697   13.1804    3.4335 C   0  0  0  0  0  0  0  0  0  0  0  0
   -6.5924   12.6539    4.3418 N   0  0  0  0  0  0  0  0  0  0  0  0
   -6.7056   11.3878    4.7516 C   0  0  0  0  0  0  0  0  0  0  0  0
   -7.6794   10.6042    4.2793 N   0  0  0  0  0  0  0  0  0  0  0  0
   -8.5888   11.0583    3.3781 C   0  0  0  0  0  0  0  0  0  0  0  0
   -8.5263   12.3775    2.9156 C   0  0  0  0  0  0  0  0  0  0  0  0
  5  4  1  0  0  0  0
  5  6  1  0  0  0  0
  7  8  2  0  0  0  0
  7 11  1  0  0  0  0
  8  9  1  0  0  0  0
  9 10  2  0  0  0  0
  9  6  1  0  0  0  0
 10  3  1  0  0  0  0
 11 12  1  0  0  0  0
 11 10  1  0  0  0  0
 12 18  1  0  0  0  0
 13  2  1  0  0  0  0
 13 14  2  0  0  0  0
 15 14  1  0  0  0  0
 15  1  1  0  0  0  0
 16 15  2  0  0  0  0
 17 18  2  0  0  0  0
 17 16  1  0  0  0  0
 18 13  1  0  0  0  0
M  END
>  <CHROM.1>
70.44942314,-33.85711814,-73.40478447,-96.37554207,-10.23441441,13.63351641
3.33278165,0.54383005,-0.02451863,2.80156210

>  <Name>
lig.pdb

>  <RI>
0

>  <Rbt.Current_Directory>
/home/itssahil/PROJECTS/Mol_Feturizer/New_Systems/rnas/4nyg

>  <Rbt.Executable>
rbdock ($Id: //depot/dev/client3/rdock/2013.1/src/exe/rbdock.cxx#4 $)

>  <Rbt.Library>
libRbt.so (2013.1, Build901 2013/11/27)

>  <Rbt.Parameter_File>
/export/apps/rDock/src/rDock_2013.1_src/data/scripts/dock_solv.prm

>  <Rbt.Receptor>
prm/pocket_docking_5.prm

>  <SCORE>
-23.7333

>  <SCORE.INTER>
-24.7097

>  <SCORE.INTER.CONST>
1

>  <SCORE.INTER.POLAR>
0

>  <SCORE.INTER.ROT>
4

>  <SCORE.INTER.SOLV>
11.3075

>  <SCORE.INTER.VDW>
-26.5089

>  <SCORE.INTER.norm>
-1.37276

>  <SCORE.INTRA>
0.976395

>  <SCORE.INTRA.DIHEDRAL>
1.34671

>  <SCORE.INTRA.DIHEDRAL.0>
3.20029

>  <SCORE.INTRA.POLAR>
0

>  <SCORE.INTRA.POLAR.0>
0

>  <SCORE.INTRA.REPUL>
0

>  <SCORE.INTRA.REPUL.0>
0

>  <SCORE.INTRA.SOLV>
1.04629

>  <SCORE.INTRA.SOLV.lig_0>
-19.3885

>  <SCORE.INTRA.VDW>
-0.220105

>  <SCORE.INTRA.VDW.0>
-1.12705

>  <SCORE.INTRA.norm>
0.0542442

>  <SCORE.RESTR>
0

>  <SCORE.RESTR.CAVITY>
0

>  <SCORE.RESTR.norm>
0

>  <SCORE.SYSTEM>
0

>  <SCORE.SYSTEM.CONST>
0

>  <SCORE.SYSTEM.DIHEDRAL>
0

>  <SCORE.SYSTEM.SOLV>
0

>  <SCORE.SYSTEM.norm>
0

>  <SCORE.heavy>
18

>  <SCORE.norm>
-1.31852

>  <RMSD>
7.516

$$$$
lig.pdb
 OpenBabel11021811503D
libRbt.so/2013.1/901 2013/11/27
 18 19  0  0  0  0  0  0  0  0999 V2000
   -5.9840   10.9251    6.0496 C   0  0  0  0  0  0  0  0  0  0  0  0
   -7.1572   14.5783    3.0814 N   0  0  0  0  0  0  0  0  0  0  0  0
  -10.2360   16.0535    1.8953 C   0  0  0  0  0  0  0  0  0  0  0  0
  -15.0387   15.6223    4.0103 O   0  0  0  0  0  0  0  0  0  0  0  0
  -13.9927   16.5835    4.0437 C   0  0  0  0  0  0  0  0  0  0  0  0
  -13.1991   16.5535    2.7229 C   0  0  0  0  0  0  0  0  0  0  0  0
  -11.6846   12.6919    2.6777 C   0  0  0  0  0  0  0  0  0  0  0  0
  -13.1122   13.6151    3.0151 S   0  0  0  0  0  0  0  0  0  0  0  0
  -12.4676   15.2314    2.6510 C   0  0  0  0  0  0  0  0  0  0  0  0
  -11.1757   14.9293    2.2978 C   0  0  0  0  0  0  0  0  0  0  0  0
  -10.7995   13.6141    2.3219 N   0  0  0  0  0  0  0  0  0  0  0  0
   -9.4088   13.1884    1.9309 C   0  0  0  0  0  0  0  0  0  0  0  0
   -7.4222   13.2881    3.5405 C   0  0  0  0  0  0  0  0  0  0  0  0
   -6.6305   12.7353    4.5097 N   0  0  0  0  0  0  0  0  0  0  0  0
   -6.8649   11.5027    4.9675 C   0  0  0  0  0  0  0  0  0  0  0  0
   -7.8792   10.7791    4.4849 N   0  0  0  0  0  0  0  0  0  0  0  0
   -8.7091   11.2627    3.5245 C   0  0  0  0  0  0  0  0  0  0  0  0
   -8.5187   12.5498    3.0094 C   0  0  0  0  0  0  0  0  0  0  0  0
  5  4  1  0  0  0  0
  5  6  1  0  0  0  0
  7  8  2  0  0  0  0
  7 11  1  0  0  0  0
  8  9  1  0  0  0  0
  9 10  2  0  0  0  0
  9  6  1  0  0  0  0
 10  3  1  0  0  0  0
 11 12  1  0  0  0  0
 11 10  1  0  0  0  0
 12 18  1  0  0  0  0
 13  2  1  0  0  0  0
 13 14  2  0  0  0  0
 15 14  1  0  0  0  0
 15  1  1  0  0  0  0
 16 15  2  0  0  0  0
 17 18  2  0  0  0  0
 17 16  1  0  0  0  0
 18 13  1  0  0  0  0
M  END
>  <CHROM.1>
-67.45935139,45.21850403,-65.40105255,-107.90973811,-10.27865816,13.68026426
3.36395782,0.52952978,-0.05211688,2.69553472

>  <Name>
lig.pdb

>  <RI>
0

>  <Rbt.Current_Directory>
/home/itssahil/PROJECTS/Mol_Feturizer/New_Systems/rnas/4nyg

>  <Rbt.Executable>
rbdock ($Id: //depot/dev/client3/rdock/2013.1/src/exe/rbdock.cxx#4 $)

>  <Rbt.Library>
libRbt.so (2013.1, Build901 2013/11/27)

>  <Rbt.Parameter_File>
/export/apps/rDock/src/rDock_2013.1_src/data/scripts/dock_solv.prm

>  <Rbt.Receptor>
prm/pocket_docking_6.prm

>  <SCORE>
-23.8601

>  <SCORE.INTER>
-24.2105

>  <SCORE.INTER.CONST>
1

>  <SCORE.INTER.POLAR>
0

>  <SCORE.INTER.ROT>
4

>  <SCORE.INTER.SOLV>
12.0337

>  <SCORE.INTER.VDW>
-26.4182

>  <SCORE.INTER.norm>
-1.34503

>  <SCORE.INTRA>
0.35037

>  <SCORE.INTRA.DIHEDRAL>
0.503358

>  <SCORE.INTRA.DIHEDRAL.0>
3.20029

>  <SCORE.INTRA.POLAR>
0

>  <SCORE.INTRA.POLAR.0>
0

>  <SCORE.INTRA.REPUL>
0

>  <SCORE.INTRA.REPUL.0>
0

>  <SCORE.INTRA.SOLV>
0.838562

>  <SCORE.INTRA.SOLV.lig_0>
-19.3885

>  <SCORE.INTRA.VDW>
-0.32059

>  <SCORE.INTRA.VDW.0>
-1.12705

>  <SCORE.INTRA.norm>
0.019465

>  <SCORE.RESTR>
0

>  <SCORE.RESTR.CAVITY>
0

>  <SCORE.RESTR.norm>
0

>  <SCORE.SYSTEM>
0

>  <SCORE.SYSTEM.CONST>
0

>  <SCORE.SYSTEM.DIHEDRAL>
0

>  <SCORE.SYSTEM.SOLV>
0

>  <SCORE.SYSTEM.norm>
0

>  <SCORE.heavy>
18

>  <SCORE.norm>
-1.32556

>  <RMSD>
7.517

$$$$
lig.pdb
 OpenBabel11021811503D
libRbt.so/2013.1/901 2013/11/27
 18 19  0  0  0  0  0  0  0  0999 V2000
   -6.0027   11.1264    5.9088 C   0  0  0  0  0  0  0  0  0  0  0  0
   -7.3748   14.6206    2.8363 N   0  0  0  0  0  0  0  0  0  0  0  0
  -10.2510   16.0470    1.8984 C   0  0  0  0  0  0  0  0  0  0  0  0
  -15.1581   15.8660    3.8813 O   0  0  0  0  0  0  0  0  0  0  0  0
  -14.0417   16.7218    4.0815 C   0  0  0  0  0  0  0  0  0  0  0  0
  -13.1464   16.7320    2.8273 C   0  0  0  0  0  0  0  0  0  0  0  0
  -11.9157   12.7753    2.6310 C   0  0  0  0  0  0  0  0  0  0  0  0
  -13.2631   13.7875    3.0359 S   0  0  0  0  0  0  0  0  0  0  0  0
  -12.5142   15.3639    2.6973 C   0  0  0  0  0  0  0  0  0  0  0  0
  -11.2577   14.9811    2.2977 C   0  0  0  0  0  0  0  0  0  0  0  0
  -10.9766   13.6423    2.2744 N   0  0  0  0  0  0  0  0  0  0  0  0
   -9.6315   13.1305    1.8306 C   0  0  0  0  0  0  0  0  0  0  0  0
   -7.5905   13.3455    3.3587 C   0  0  0  0  0  0  0  0  0  0  0  0
   -6.7503   12.8534    4.3198 N   0  0  0  0  0  0  0  0  0  0  0  0
   -6.9369   11.6364    4.8374 C   0  0  0  0  0  0  0  0  0  0  0  0
   -7.9497   10.8692    4.4240 N   0  0  0  0  0  0  0  0  0  0  0  0
   -8.8261   11.2917    3.4761 C   0  0  0  0  0  0  0  0  0  0  0  0
   -8.6868   12.5596    2.9007 C   0  0  0  0  0  0  0  0  0  0  0  0
  5  4  1  0  0  0  0
  5  6  1  0  0  0  0
  7  8  2  0  0  0  0
  7 11  1  0  0  0  0
  8  9  1  0  0  0  0
  9 10  2  0  0  0  0
  9  6  1  0  0  0  0
 10  3  1  0  0  0  0
 11 12  1  0  0  0  0
 11 10  1  0  0  0  0
 12 18  1  0  0  0  0
 13  2  1  0  0  0  0
 13 14  2  0  0  0  0
 15 14  1  0  0  0  0
 15  1  1  0  0  0  0
 16 15  2  0  0  0  0
 17 18  2  0  0  0  0
 17 16  1  0  0  0  0
 18 13  1  0  0  0  0
M  END
>  <CHROM.1>
-68.00258154,38.24868162,-73.03713962,-103.08721266,-10.39113061,13.77926981
3.30210266,0.52885194,-0.04992135,2.74259947

>  <Name>
lig.pdb

>  <RI>
0

>  <Rbt.Current_Directory>
/home/itssahil/PROJECTS/Mol_Feturizer/New_Systems/rnas/4nyg

>  <Rbt.Executable>
rbdock ($Id: //depot/dev/client3/rdock/2013.1/src/exe/rbdock.cxx#4 $)

>  <Rbt.Library>
libRbt.so (2013.1, Build901 2013/11/27)

>  <Rbt.Parameter_File>
/export/apps/rDock/src/rDock_2013.1_src/data/scripts/dock_solv.prm

>  <Rbt.Receptor>
prm/pocket_docking_6.prm

>  <SCORE>
-23.9593

>  <SCORE.INTER>
-24.6418

>  <SCORE.INTER.CONST>
1

>  <SCORE.INTER.POLAR>
0

>  <SCORE.INTER.ROT>
4

>  <SCORE.INTER.SOLV>
12.0864

>  <SCORE.INTER.VDW>
-26.7233

>  <SCORE.INTER.norm>
-1.36899

>  <SCORE.INTRA>
0.682506

>  <SCORE.INTRA.DIHEDRAL>
0.912689

>  <SCORE.INTRA.DIHEDRAL.0>
3.20029

>  <SCORE.INTRA.POLAR>
0

>  <SCORE.INTRA.POLAR.0>
0

>  <SCORE.INTRA.REPUL>
0

>  <SCORE.INTRA.REPUL.0>
0

>  <SCORE.INTRA.SOLV>
0.966351

>  <SCORE.INTRA.SOLV.lig_0>
-19.3885

>  <SCORE.INTRA.VDW>
-0.257014

>  <SCORE.INTRA.VDW.0>
-1.12705

>  <SCORE.INTRA.norm>
0.037917

>  <SCORE.RESTR>
0

>  <SCORE.RESTR.CAVITY>
0

>  <SCORE.RESTR.norm>
0

>  <SCORE.SYSTEM>
0

>  <SCORE.SYSTEM.CONST>
0

>  <SCORE.SYSTEM.DIHEDRAL>
0

>  <SCORE.SYSTEM.SOLV>
0

>  <SCORE.SYSTEM.norm>
0

>  <SCORE.heavy>
18

>  <SCORE.norm>
-1.33107

>  <RMSD>
7.518

$$$$
lig.pdb
 OpenBabel11021811503D
libRbt.so/2013.1/901 2013/11/27
 18 19  0  0  0  0  0  0  0  0999 V2000
   -4.9789   17.9437    0.0254 C   0  0  0  0  0  0  0  0  0  0  0  0
   -7.8700   14.0810   -0.4780 N   0  0  0  0  0  0  0  0  0  0  0  0
  -11.4744   12.7741    2.9119 C   0  0  0  0  0  0  0  0  0  0  0  0
  -15.1094   16.5598    3.2963 O   0  0  0  0  0  0  0  0  0  0  0  0
  -14.8707   15.4068    4.0916 C   0  0  0  0  0  0  0  0  0  0  0  0
  -14.1562   14.3241    3.2595 C   0  0  0  0  0  0  0  0  0  0  0  0
  -10.7340   16.3461    2.0728 C   0  0  0  0  0  0  0  0  0  0  0  0
  -12.4180   16.5612    2.4219 S   0  0  0  0  0  0  0  0  0  0  0  0
  -12.8148   14.8774    2.8320 C   0  0  0  0  0  0  0  0  0  0  0  0
  -11.5973   14.2672    2.6580 C   0  0  0  0  0  0  0  0  0  0  0  0
  -10.5439   15.0471    2.2654 N   0  0  0  0  0  0  0  0  0  0  0  0
   -9.1680   14.4669    2.0697 C   0  0  0  0  0  0  0  0  0  0  0  0
   -7.4531   15.1598    0.3016 C   0  0  0  0  0  0  0  0  0  0  0  0
   -6.4697   15.9919   -0.1592 N   0  0  0  0  0  0  0  0  0  0  0  0
   -6.0547   17.0329    0.5674 C   0  0  0  0  0  0  0  0  0  0  0  0
   -6.5905   17.2832    1.7656 N   0  0  0  0  0  0  0  0  0  0  0  0
   -7.5728   16.5029    2.2866 C   0  0  0  0  0  0  0  0  0  0  0  0
   -8.0542   15.4015    1.5703 C   0  0  0  0  0  0  0  0  0  0  0  0
  5  4  1  0  0  0  0
  5  6  1  0  0  0  0
  7  8  2  0  0  0  0
  7 11  1  0  0  0  0
  8  9  1  0  0  0  0
  9 10  2  0  0  0  0
  9  6  1  0  0  0  0
 10  3  1  0  0  0  0
 11 12  1  0  0  0  0
 11 10  1  0  0  0  0
 12 18  1  0  0  0  0
 13  2  1  0  0  0  0
 13 14  2  0  0  0  0
 15 14  1  0  0  0  0
 15  1  1  0  0  0  0
 16 15  2  0  0  0  0
 17 18  2  0  0  0  0
 17 16  1  0  0  0  0
 18 13  1  0  0  0  0
M  END
>  <CHROM.1>
62.52003935,-34.16989381,-3.57300690,-115.88181558,-10.11846966,15.63348868
1.92971075,0.11488583,0.35736846,0.08338023

>  <Name>
lig.pdb

>  <RI>
0

>  <Rbt.Current_Directory>
/home/itssahil/PROJECTS/Mol_Feturizer/New_Systems/rnas/4nyg

>  <Rbt.Executable>
rbdock ($Id: //depot/dev/client3/rdock/2013.1/src/exe/rbdock.cxx#4 $)

>  <Rbt.Library>
libRbt.so (2013.1, Build901 2013/11/27)

>  <Rbt.Parameter_File>
/export/apps/rDock/src/rDock_2013.1_src/data/scripts/dock_solv.prm

>  <Rbt.Receptor>
prm/blind_docking_60.prm

>  <SCORE>
-18.2706

>  <SCORE.INTER>
-19.924

>  <SCORE.INTER.CONST>
1

>  <SCORE.INTER.POLAR>
0

>  <SCORE.INTER.ROT>
4

>  <SCORE.INTER.SOLV>
12.7486

>  <SCORE.INTER.VDW>
-23.7989

>  <SCORE.INTER.norm>
-1.10689

>  <SCORE.INTRA>
1.65347

>  <SCORE.INTRA.DIHEDRAL>
0.997046

>  <SCORE.INTRA.DIHEDRAL.0>
3.20029

>  <SCORE.INTRA.POLAR>
0

>  <SCORE.INTRA.POLAR.0>
0

>  <SCORE.INTRA.REPUL>
0

>  <SCORE.INTRA.REPUL.0>
0

>  <SCORE.INTRA.SOLV>
0.567165

>  <SCORE.INTRA.SOLV.lig_0>
-19.3885

>  <SCORE.INTRA.VDW>
0.871362

>  <SCORE.INTRA.VDW.0>
-1.12705

>  <SCORE.INTRA.norm>
0.0918593

>  <SCORE.RESTR>
0

>  <SCORE.RESTR.CAVITY>
0

>  <SCORE.RESTR.norm>
0

>  <SCORE.SYSTEM>
0

>  <SCORE.SYSTEM.CONST>
0

>  <SCORE.SYSTEM.DIHEDRAL>
0

>  <SCORE.SYSTEM.SOLV>
0

>  <SCORE.SYSTEM.norm>
0

>  <SCORE.heavy>
18

>  <SCORE.norm>
-1.01503

>  <RMSD>
7.519

$$$$
lig.pdb
 OpenBabel11021811503D
libRbt.so/2013.1/901 2013/11/27
 18 19  0  0  0  0  0  0  0  0999 V2000
   -5.5347    9.9439    4.5448 C   0  0  0  0  0  0  0  0  0  0  0  0
   -6.6579   12.8704    0.8425 N   0  0  0  0  0  0  0  0  0  0  0  0
  -10.0666   15.8533    1.9681 C   0  0  0  0  0  0  0  0  0  0  0  0
  -15.0010   15.4745    3.8434 O   0  0  0  0  0  0  0  0  0  0  0  0
  -14.2993   16.3537    2.9752 C   0  0  0  0  0  0  0  0  0  0  0  0
  -12.8058   16.3960    3.3528 C   0  0  0  0  0  0  0  0  0  0  0  0
  -11.6159   12.4996    2.5713 C   0  0  0  0  0  0  0  0  0  0  0  0
  -12.8941   13.4445    3.2623 S   0  0  0  0  0  0  0  0  0  0  0  0
  -12.1982   15.0581    2.9931 C   0  0  0  0  0  0  0  0  0  0  0  0
  -11.0091   14.7373    2.3866 C   0  0  0  0  0  0  0  0  0  0  0  0
  -10.7345   13.4124    2.1832 N   0  0  0  0  0  0  0  0  0  0  0  0
   -9.4638   12.9691    1.5073 C   0  0  0  0  0  0  0  0  0  0  0  0
   -7.0844   12.1391    1.9510 C   0  0  0  0  0  0  0  0  0  0  0  0
   -6.1778   11.4206    2.6814 N   0  0  0  0  0  0  0  0  0  0  0  0
   -6.5608   10.7141    3.7482 C   0  0  0  0  0  0  0  0  0  0  0  0
   -7.8427   10.6912    4.1247 N   0  0  0  0  0  0  0  0  0  0  0  0
   -8.7983   11.3822    3.4505 C   0  0  0  0  0  0  0  0  0  0  0  0
   -8.4580   12.1460    2.3285 C   0  0  0  0  0  0  0  0  0  0  0  0
  5  4  1  0  0  0  0
  5  6  1  0  0  0  0
  7  8  2  0  0  0  0
  7 11  1  0  0  0  0
  8  9  1  0  0  0  0
  9 10  2  0  0  0  0
  9  6  1  0  0  0  0
 10  3  1  0  0  0  0
 11 12  1  0  0  0  0
 11 10  1  0  0  0  0
 12 18  1  0  0  0  0
 13  2  1  0  0  0  0
 13 14  2  0  0  0  0
 15 14  1  0  0  0  0
 15  1  1  0  0  0  0
 16 15  2  0  0  0  0
 17 18  2  0  0  0  0
 17 16  1  0  0  0  0
 18 13  1  0  0  0  0
M  END
>  <CHROM.1>
69.71535734,-42.75091115,-65.44607190,-156.12926157,-10.10519209,13.24584883
2.86300937,0.43533394,-0.35041349,2.51776416

>  <Name>
lig.pdb

>  <RI>
0

>  <Rbt.Current_Directory>
/home/itssahil/PROJECTS/Mol_Feturizer/New_Systems/rnas/4nyg

>  <Rbt.Executable>
rbdock ($Id: //depot/dev/client3/rdock/2013.1/src/exe/rbdock.cxx#4 $)

>  <Rbt.Library>
libRbt.so (2013.1, Build901 2013/11/27)

>  <Rbt.Parameter_File>
/export/apps/rDock/src/rDock_2013.1_src/data/scripts/dock_solv.prm

>  <Rbt.Receptor>
prm/pocket_docking_8.prm

>  <SCORE>
-23.89

>  <SCORE.INTER>
-24.4587

>  <SCORE.INTER.CONST>
1

>  <SCORE.INTER.POLAR>
0

>  <SCORE.INTER.ROT>
4

>  <SCORE.INTER.SOLV>
11.9324

>  <SCORE.INTER.VDW>
-26.5499

>  <SCORE.INTER.norm>
-1.35882

>  <SCORE.INTRA>
0.568722

>  <SCORE.INTRA.DIHEDRAL>
0.754973

>  <SCORE.INTRA.DIHEDRAL.0>
3.20029

>  <SCORE.INTRA.POLAR>
0

>  <SCORE.INTRA.POLAR.0>
0

>  <SCORE.INTRA.REPUL>
0

>  <SCORE.INTRA.REPUL.0>
0

>  <SCORE.INTRA.SOLV>
0.404444

>  <SCORE.INTRA.SOLV.lig_0>
-19.3885

>  <SCORE.INTRA.VDW>
-0.0109867

>  <SCORE.INTRA.VDW.0>
-1.12705

>  <SCORE.INTRA.norm>
0.0315957

>  <SCORE.RESTR>
0

>  <SCORE.RESTR.CAVITY>
0

>  <SCORE.RESTR.norm>
0

>  <SCORE.SYSTEM>
0

>  <SCORE.SYSTEM.CONST>
0

>  <SCORE.SYSTEM.DIHEDRAL>
0

>  <SCORE.SYSTEM.SOLV>
0

>  <SCORE.SYSTEM.norm>
0

>  <SCORE.heavy>
18

>  <SCORE.norm>
-1.32722

>  <RMSD>
7.519

$$$$
lig.pdb
 OpenBabel11021811503D
libRbt.so/2013.1/901 2013/11/27
 18 19  0  0  0  0  0  0  0  0999 V2000
   -3.8832   15.2342    0.3667 C   0  0  0  0  0  0  0  0  0  0  0  0
   -8.5768   14.9248   -0.8192 N   0  0  0  0  0  0  0  0  0  0  0  0
  -11.8462   12.2938    2.5187 C   0  0  0  0  0  0  0  0  0  0  0  0
  -15.6208   15.9051    4.1304 O   0  0  0  0  0  0  0  0  0  0  0  0
  -14.4246   15.8713    3.3642 C   0  0  0  0  0  0  0  0  0  0  0  0
  -13.6442   14.5739    3.6517 C   0  0  0  0  0  0  0  0  0  0  0  0
   -9.9468   15.4777    2.0022 C   0  0  0  0  0  0  0  0  0  0  0  0
  -11.3434   16.1886    2.7425 S   0  0  0  0  0  0  0  0  0  0  0  0
  -12.2799   14.7014    3.0107 C   0  0  0  0  0  0  0  0  0  0  0  0
  -11.4307   13.7552    2.4927 C   0  0  0  0  0  0  0  0  0  0  0  0
  -10.2370   14.1831    1.9789 N   0  0  0  0  0  0  0  0  0  0  0  0
   -9.2356   13.2137    1.4085 C   0  0  0  0  0  0  0  0  0  0  0  0
   -7.5425   14.5612    0.0429 C   0  0  0  0  0  0  0  0  0  0  0  0
   -6.2752   15.0253   -0.1817 N   0  0  0  0  0  0  0  0  0  0  0  0
   -5.2683   14.6933    0.6306 C   0  0  0  0  0  0  0  0  0  0  0  0
   -5.4769   13.8955    1.6819 N   0  0  0  0  0  0  0  0  0  0  0  0
   -6.7082   13.3994    1.9698 C   0  0  0  0  0  0  0  0  0  0  0  0
   -7.8042   13.7165    1.1597 C   0  0  0  0  0  0  0  0  0  0  0  0
  5  4  1  0  0  0  0
  5  6  1  0  0  0  0
  7  8  2  0  0  0  0
  7 11  1  0  0  0  0
  8  9  1  0  0  0  0
  9 10  2  0  0  0  0
  9  6  1  0  0  0  0
 10  3  1  0  0  0  0
 11 12  1  0  0  0  0
 11 10  1  0  0  0  0
 12 18  1  0  0  0  0
 13  2  1  0  0  0  0
 13 14  2  0  0  0  0
 15 14  1  0  0  0  0
 15  1  1  0  0  0  0
 16 15  2  0  0  0  0
 17 18  2  0  0  0  0
 17 16  1  0  0  0  0
 18 13  1  0  0  0  0
M  END
>  <CHROM.1>
-170.03920485,30.13786940,13.12593346,-75.39802414,-9.72327692,14.66253653
1.87796090,-0.05185307,0.34957508,-0.10028117

>  <Name>
lig.pdb

>  <RI>
0

>  <Rbt.Current_Directory>
/home/itssahil/PROJECTS/Mol_Feturizer/New_Systems/rnas/4nyg

>  <Rbt.Executable>
rbdock ($Id: //depot/dev/client3/rdock/2013.1/src/exe/rbdock.cxx#4 $)

>  <Rbt.Library>
libRbt.so (2013.1, Build901 2013/11/27)

>  <Rbt.Parameter_File>
/export/apps/rDock/src/rDock_2013.1_src/data/scripts/dock_solv.prm

>  <Rbt.Receptor>
prm/pocket_docking_7.prm

>  <SCORE>
-20.47

>  <SCORE.INTER>
-21.876

>  <SCORE.INTER.CONST>
1

>  <SCORE.INTER.POLAR>
0

>  <SCORE.INTER.ROT>
4

>  <SCORE.INTER.SOLV>
12.9925

>  <SCORE.INTER.VDW>
-25.1815

>  <SCORE.INTER.norm>
-1.21533

>  <SCORE.INTRA>
1.40598

>  <SCORE.INTRA.DIHEDRAL>
1.59259

>  <SCORE.INTRA.DIHEDRAL.0>
3.20029

>  <SCORE.INTRA.POLAR>
0

>  <SCORE.INTRA.POLAR.0>
0

>  <SCORE.INTRA.REPUL>
0

>  <SCORE.INTRA.REPUL.0>
0

>  <SCORE.INTRA.SOLV>
0.56906

>  <SCORE.INTRA.SOLV.lig_0>
-19.3885

>  <SCORE.INTRA.VDW>
0.325154

>  <SCORE.INTRA.VDW.0>
-1.12705

>  <SCORE.INTRA.norm>
0.0781099

>  <SCORE.RESTR>
0

>  <SCORE.RESTR.CAVITY>
0

>  <SCORE.RESTR.norm>
0

>  <SCORE.SYSTEM>
0

>  <SCORE.SYSTEM.CONST>
0

>  <SCORE.SYSTEM.DIHEDRAL>
0

>  <SCORE.SYSTEM.SOLV>
0

>  <SCORE.SYSTEM.norm>
0

>  <SCORE.heavy>
18

>  <SCORE.norm>
-1.13722

>  <RMSD>
7.520

$$$$
lig.pdb
 OpenBabel11021811503D
libRbt.so/2013.1/901 2013/11/27
 18 19  0  0  0  0  0  0  0  0999 V2000
   -5.5141    9.9649    4.4936 C   0  0  0  0  0  0  0  0  0  0  0  0
   -6.6837   12.9177    0.8268 N   0  0  0  0  0  0  0  0  0  0  0  0
  -10.1201   15.8794    1.8712 C   0  0  0  0  0  0  0  0  0  0  0  0
  -14.9940   15.4738    3.8341 O   0  0  0  0  0  0  0  0  0  0  0  0
  -14.3208   16.3692    2.9599 C   0  0  0  0  0  0  0  0  0  0  0  0
  -12.8236   16.4388    3.3180 C   0  0  0  0  0  0  0  0  0  0  0  0
  -11.5965   12.5312    2.6596 C   0  0  0  0  0  0  0  0  0  0  0  0
  -12.8677   13.4851    3.3512 S   0  0  0  0  0  0  0  0  0  0  0  0
  -12.2062   15.0962    2.9944 C   0  0  0  0  0  0  0  0  0  0  0  0
  -11.0314   14.7679    2.3644 C   0  0  0  0  0  0  0  0  0  0  0  0
  -10.7422   13.4399    2.2069 N   0  0  0  0  0  0  0  0  0  0  0  0
   -9.4861   12.9877    1.5100 C   0  0  0  0  0  0  0  0  0  0  0  0
   -7.0974   12.1724    1.9308 C   0  0  0  0  0  0  0  0  0  0  0  0
   -6.1805   11.4541    2.6486 N   0  0  0  0  0  0  0  0  0  0  0  0
   -6.5512   10.7345    3.7109 C   0  0  0  0  0  0  0  0  0  0  0  0
   -7.8305   10.6977    4.0951 N   0  0  0  0  0  0  0  0  0  0  0  0
   -8.7958   11.3875    3.4337 C   0  0  0  0  0  0  0  0  0  0  0  0
   -8.4686   12.1647    2.3169 C   0  0  0  0  0  0  0  0  0  0  0  0
  5  4  1  0  0  0  0
  5  6  1  0  0  0  0
  7  8  2  0  0  0  0
  7 11  1  0  0  0  0
  8  9  1  0  0  0  0
  9 10  2  0  0  0  0
  9  6  1  0  0  0  0
 10  3  1  0  0  0  0
 11 12  1  0  0  0  0
 11 10  1  0  0  0  0
 12 18  1  0  0  0  0
 13  2  1  0  0  0  0
 13 14  2  0  0  0  0
 15 14  1  0  0  0  0
 15  1  1  0  0  0  0
 16 15  2  0  0  0  0
 17 18  2  0  0  0  0
 17 16  1  0  0  0  0
 18 13  1  0  0  0  0
M  END
>  <CHROM.1>
67.59919067,-44.00218314,-63.00518285,-154.81950624,-10.10894421,13.27199426
2.85881044,0.43056318,-0.35863825,2.50817673

>  <Name>
lig.pdb

>  <RI>
0

>  <Rbt.Current_Directory>
/home/itssahil/PROJECTS/Mol_Feturizer/New_Systems/rnas/4nyg

>  <Rbt.Executable>
rbdock ($Id: //depot/dev/client3/rdock/2013.1/src/exe/rbdock.cxx#4 $)

>  <Rbt.Library>
libRbt.so (2013.1, Build901 2013/11/27)

>  <Rbt.Parameter_File>
/export/apps/rDock/src/rDock_2013.1_src/data/scripts/dock_solv.prm

>  <Rbt.Receptor>
prm/pocket_docking_5.prm

>  <SCORE>
-23.9367

>  <SCORE.INTER>
-24.4956

>  <SCORE.INTER.CONST>
1

>  <SCORE.INTER.POLAR>
0

>  <SCORE.INTER.ROT>
4

>  <SCORE.INTER.SOLV>
11.8961

>  <SCORE.INTER.VDW>
-26.5624

>  <SCORE.INTER.norm>
-1.36087

>  <SCORE.INTRA>
0.558879

>  <SCORE.INTRA.DIHEDRAL>
0.562413

>  <SCORE.INTRA.DIHEDRAL.0>
3.20029

>  <SCORE.INTRA.POLAR>
0

>  <SCORE.INTRA.POLAR.0>
0

>  <SCORE.INTRA.REPUL>
0

>  <SCORE.INTRA.REPUL.0>
0

>  <SCORE.INTRA.SOLV>
0.429033

>  <SCORE.INTRA.SOLV.lig_0>
-19.3885

>  <SCORE.INTRA.VDW>
0.0631556

>  <SCORE.INTRA.VDW.0>
-1.12705

>  <SCORE.INTRA.norm>
0.0310488

>  <SCORE.RESTR>
0

>  <SCORE.RESTR.CAVITY>
0

>  <SCORE.RESTR.norm>
0

>  <SCORE.SYSTEM>
0

>  <SCORE.SYSTEM.CONST>
0

>  <SCORE.SYSTEM.DIHEDRAL>
0

>  <SCORE.SYSTEM.SOLV>
0

>  <SCORE.SYSTEM.norm>
0

>  <SCORE.heavy>
18

>  <SCORE.norm>
-1.32982

>  <RMSD>
7.522

$$$$
lig.pdb
 OpenBabel11021811503D
libRbt.so/2013.1/901 2013/11/27
 18 19  0  0  0  0  0  0  0  0999 V2000
   -3.8849   15.2175    0.3843 C   0  0  0  0  0  0  0  0  0  0  0  0
   -8.5736   14.9075   -0.8209 N   0  0  0  0  0  0  0  0  0  0  0  0
  -11.8546   12.2846    2.5179 C   0  0  0  0  0  0  0  0  0  0  0  0
  -15.6242   15.9021    4.1337 O   0  0  0  0  0  0  0  0  0  0  0  0
  -14.4326   15.8630    3.3608 C   0  0  0  0  0  0  0  0  0  0  0  0
  -13.6526   14.5656    3.6492 C   0  0  0  0  0  0  0  0  0  0  0  0
   -9.9539   15.4678    2.0020 C   0  0  0  0  0  0  0  0  0  0  0  0
  -11.3507   16.1793    2.7412 S   0  0  0  0  0  0  0  0  0  0  0  0
  -12.2879   14.6925    3.0091 C   0  0  0  0  0  0  0  0  0  0  0  0
  -11.4386   13.7459    2.4919 C   0  0  0  0  0  0  0  0  0  0  0  0
  -10.2445   14.1733    1.9787 N   0  0  0  0  0  0  0  0  0  0  0  0
   -9.2430   13.2035    1.4091 C   0  0  0  0  0  0  0  0  0  0  0  0
   -7.5432   14.5459    0.0468 C   0  0  0  0  0  0  0  0  0  0  0  0
   -6.2746   15.0084   -0.1738 N   0  0  0  0  0  0  0  0  0  0  0  0
   -5.2714   14.6783    0.6438 C   0  0  0  0  0  0  0  0  0  0  0  0
   -5.4850   13.8838    1.6966 N   0  0  0  0  0  0  0  0  0  0  0  0
   -6.7179   13.3893    1.9807 C   0  0  0  0  0  0  0  0  0  0  0  0
   -7.8103   13.7046    1.1650 C   0  0  0  0  0  0  0  0  0  0  0  0
  5  4  1  0  0  0  0
  5  6  1  0  0  0  0
  7  8  2  0  0  0  0
  7 11  1  0  0  0  0
  8  9  1  0  0  0  0
  9 10  2  0  0  0  0
  9  6  1  0  0  0  0
 10  3  1  0  0  0  0
 11 12  1  0  0  0  0
 11 10  1  0  0  0  0
 12 18  1  0  0  0  0
 13  2  1  0  0  0  0
 13 14  2  0  0  0  0
 15 14  1  0  0  0  0
 15  1  1  0  0  0  0
 16 15  2  0  0  0  0
 17 18  2  0  0  0  0
 17 16  1  0  0  0  0
 18 13  1  0  0  0  0
M  END
>  <CHROM.1>
-169.59856644,30.15035519,13.30046773,-75.69482484,-9.72886922,14.65156603
1.88125033,-0.05381136,0.34818526,-0.09751232

>  <Name>
lig.pdb

>  <RI>
0

>  <Rbt.Current_Directory>
/home/itssahil/PROJECTS/Mol_Feturizer/New_Systems/rnas/4nyg

>  <Rbt.Executable>
rbdock ($Id: //depot/dev/client3/rdock/2013.1/src/exe/rbdock.cxx#4 $)

>  <Rbt.Library>
libRbt.so (2013.1, Build901 2013/11/27)

>  <Rbt.Parameter_File>
/export/apps/rDock/src/rDock_2013.1_src/data/scripts/dock_solv.prm

>  <Rbt.Receptor>
prm/pocket_docking_6.prm

>  <SCORE>
-20.4708

>  <SCORE.INTER>
-21.8876

>  <SCORE.INTER.CONST>
1

>  <SCORE.INTER.POLAR>
0

>  <SCORE.INTER.ROT>
4

>  <SCORE.INTER.SOLV>
13.0211

>  <SCORE.INTER.VDW>
-25.1987

>  <SCORE.INTER.norm>
-1.21598

>  <SCORE.INTRA>
1.41675

>  <SCORE.INTRA.DIHEDRAL>
1.62363

>  <SCORE.INTRA.DIHEDRAL.0>
3.20029

>  <SCORE.INTRA.POLAR>
0

>  <SCORE.INTRA.POLAR.0>
0

>  <SCORE.INTRA.REPUL>
0

>  <SCORE.INTRA.REPUL.0>
0

>  <SCORE.INTRA.SOLV>
0.565898

>  <SCORE.INTRA.SOLV.lig_0>
-19.3885

>  <SCORE.INTRA.VDW>
0.321984

>  <SCORE.INTRA.VDW.0>
-1.12705

>  <SCORE.INTRA.norm>
0.0787081

>  <SCORE.RESTR>
0

>  <SCORE.RESTR.CAVITY>
0

>  <SCORE.RESTR.norm>
0

>  <SCORE.SYSTEM>
0

>  <SCORE.SYSTEM.CONST>
0

>  <SCORE.SYSTEM.DIHEDRAL>
0

>  <SCORE.SYSTEM.SOLV>
0

>  <SCORE.SYSTEM.norm>
0

>  <SCORE.heavy>
18

>  <SCORE.norm>
-1.13727

>  <RMSD>
7.523

$$$$
lig.pdb
 OpenBabel11021811503D
libRbt.so/2013.1/901 2013/11/27
 18 19  0  0  0  0  0  0  0  0999 V2000
   -3.9149   15.2705    0.3219 C   0  0  0  0  0  0  0  0  0  0  0  0
   -8.6041   14.8675   -0.8532 N   0  0  0  0  0  0  0  0  0  0  0  0
  -11.8736   12.3126    2.5046 C   0  0  0  0  0  0  0  0  0  0  0  0
  -15.6397   15.9302    4.1264 O   0  0  0  0  0  0  0  0  0  0  0  0
  -14.4415   15.8922    3.3636 C   0  0  0  0  0  0  0  0  0  0  0  0
  -13.6698   14.5889    3.6481 C   0  0  0  0  0  0  0  0  0  0  0  0
   -9.9494   15.4910    2.0503 C   0  0  0  0  0  0  0  0  0  0  0  0
  -11.3495   16.2009    2.7848 S   0  0  0  0  0  0  0  0  0  0  0  0
  -12.2979   14.7163    3.0235 C   0  0  0  0  0  0  0  0  0  0  0  0
  -11.4490   13.7716    2.5023 C   0  0  0  0  0  0  0  0  0  0  0  0
  -10.2472   14.1988    2.0069 N   0  0  0  0  0  0  0  0  0  0  0  0
   -9.2456   13.2306    1.4346 C   0  0  0  0  0  0  0  0  0  0  0  0
   -7.5664   14.5464    0.0217 C   0  0  0  0  0  0  0  0  0  0  0  0
   -6.3041   15.0159   -0.2192 N   0  0  0  0  0  0  0  0  0  0  0  0
   -5.2941   14.7244    0.6047 C   0  0  0  0  0  0  0  0  0  0  0  0
   -5.4947   13.9628    1.6841 N   0  0  0  0  0  0  0  0  0  0  0  0
   -6.7207   13.4639    1.9894 C   0  0  0  0  0  0  0  0  0  0  0  0
   -7.8196   13.7397    1.1681 C   0  0  0  0  0  0  0  0  0  0  0  0
  5  4  1  0  0  0  0
  5  6  1  0  0  0  0
  7  8  2  0  0  0  0
  7 11  1  0  0  0  0
  8  9  1  0  0  0  0
  9 10  2  0  0  0  0
  9  6  1  0  0  0  0
 10  3  1  0  0  0  0
 11 12  1  0  0  0  0
 11 10  1  0  0  0  0
 12 18  1  0  0  0  0
 13  2  1  0  0  0  0
 13 14  2  0  0  0  0
 15 14  1  0  0  0  0
 15  1  1  0  0  0  0
 16 15  2  0  0  0  0
 17 18  2  0  0  0  0
 17 16  1  0  0  0  0
 18 13  1  0  0  0  0
M  END
>  <CHROM.1>
-169.48146337,30.40020924,11.31875196,-77.13392250,-9.74126143,14.67951350
1.88109824,-0.06155537,0.35151718,-0.06839227

>  <Name>
lig.pdb

>  <RI>
0

>  <Rbt.Current_Directory>
/home/itssahil/PROJECTS/Mol_Feturizer/New_Systems/rnas/4nyg

>  <Rbt.Executable>
rbdock ($Id: //depot/dev/client3/rdock/2013.1/src/exe/rbdock.cxx#4 $)

>  <Rbt.Library>
libRbt.so (2013.1, Build901 2013/11/27)

>  <Rbt.Parameter_File>
/export/apps/rDock/src/rDock_2013.1_src/data/scripts/dock_solv.prm

>  <Rbt.Receptor>
prm/pocket_docking_7.prm

>  <SCORE>
-20.4141

>  <SCORE.INTER>
-21.8088

>  <SCORE.INTER.CONST>
1

>  <SCORE.INTER.POLAR>
0

>  <SCORE.INTER.ROT>
4

>  <SCORE.INTER.SOLV>
13.1402

>  <SCORE.INTER.VDW>
-25.1859

>  <SCORE.INTER.norm>
-1.2116

>  <SCORE.INTRA>
1.39471

>  <SCORE.INTRA.DIHEDRAL>
1.62019

>  <SCORE.INTRA.DIHEDRAL.0>
3.20029

>  <SCORE.INTRA.POLAR>
0

>  <SCORE.INTRA.POLAR.0>
0

>  <SCORE.INTRA.REPUL>
0

>  <SCORE.INTRA.REPUL.0>
0

>  <SCORE.INTRA.SOLV>
0.53788

>  <SCORE.INTRA.SOLV.lig_0>
-19.3885

>  <SCORE.INTRA.VDW>
0.315675

>  <SCORE.INTRA.VDW.0>
-1.12705

>  <SCORE.INTRA.norm>
0.0774839

>  <SCORE.RESTR>
0

>  <SCORE.RESTR.CAVITY>
0

>  <SCORE.RESTR.norm>
0

>  <SCORE.SYSTEM>
0

>  <SCORE.SYSTEM.CONST>
0

>  <SCORE.SYSTEM.DIHEDRAL>
0

>  <SCORE.SYSTEM.SOLV>
0

>  <SCORE.SYSTEM.norm>
0

>  <SCORE.heavy>
18

>  <SCORE.norm>
-1.13411

>  <RMSD>
7.524

$$$$
lig.pdb
 OpenBabel11021811503D
libRbt.so/2013.1/901 2013/11/27
 18 19  0  0  0  0  0  0  0  0999 V2000
   -5.9251   11.2677    5.9117 C   0  0  0  0  0  0  0  0  0  0  0  0
   -7.4951   14.6699    2.8308 N   0  0  0  0  0  0  0  0  0  0  0  0
  -10.2594   15.9812    1.8822 C   0  0  0  0  0  0  0  0  0  0  0  0
  -15.1654   15.8784    3.8866 O   0  0  0  0  0  0  0  0  0  0  0  0
  -14.0366   16.7158    4.0956 C   0  0  0  0  0  0  0  0  0  0  0  0
  -13.1315   16.7112    2.8483 C   0  0  0  0  0  0  0  0  0  0  0  0
  -11.9487   12.7385    2.6838 C   0  0  0  0  0  0  0  0  0  0  0  0
  -13.2780   13.7712    3.0971 S   0  0  0  0  0  0  0  0  0  0  0  0
  -12.5169   15.3344    2.7261 C   0  0  0  0  0  0  0  0  0  0  0  0
  -11.2714   14.9322    2.3114 C   0  0  0  0  0  0  0  0  0  0  0  0
  -11.0058   13.5900    2.3010 N   0  0  0  0  0  0  0  0  0  0  0  0
   -9.6740   13.0572    1.8424 C   0  0  0  0  0  0  0  0  0  0  0  0
   -7.6403   13.3875    3.3597 C   0  0  0  0  0  0  0  0  0  0  0  0
   -6.7707   12.9451    4.3189 N   0  0  0  0  0  0  0  0  0  0  0  0
   -6.8899   11.7223    4.8426 C   0  0  0  0  0  0  0  0  0  0  0  0
   -7.8624   10.9004    4.4375 N   0  0  0  0  0  0  0  0  0  0  0  0
   -8.7643   11.2714    3.4919 C   0  0  0  0  0  0  0  0  0  0  0  0
   -8.6954   12.5423    2.9104 C   0  0  0  0  0  0  0  0  0  0  0  0
  5  4  1  0  0  0  0
  5  6  1  0  0  0  0
  7  8  2  0  0  0  0
  7 11  1  0  0  0  0
  8  9  1  0  0  0  0
  9 10  2  0  0  0  0
  9  6  1  0  0  0  0
 10  3  1  0  0  0  0
 11 12  1  0  0  0  0
 11 10  1  0  0  0  0
 12 18  1  0  0  0  0
 13  2  1  0  0  0  0
 13 14  2  0  0  0  0
 15 14  1  0  0  0  0
 15  1  1  0  0  0  0
 16 15  2  0  0  0  0
 17 18  2  0  0  0  0
 17 16  1  0  0  0  0
 18 13  1  0  0  0  0
M  END
>  <CHROM.1>
-68.20580597,36.73825892,-75.49187485,-98.82652176,-10.39487021,13.78206522
3.31952177,0.51904284,-0.03299962,2.76913002

>  <Name>
lig.pdb

>  <RI>
0

>  <Rbt.Current_Directory>
/home/itssahil/PROJECTS/Mol_Feturizer/New_Systems/rnas/4nyg

>  <Rbt.Executable>
rbdock ($Id: //depot/dev/client3/rdock/2013.1/src/exe/rbdock.cxx#4 $)

>  <Rbt.Library>
libRbt.so (2013.1, Build901 2013/11/27)

>  <Rbt.Parameter_File>
/export/apps/rDock/src/rDock_2013.1_src/data/scripts/dock_solv.prm

>  <Rbt.Receptor>
prm/pocket_docking_8.prm

>  <SCORE>
-23.8571

>  <SCORE.INTER>
-24.6895

>  <SCORE.INTER.CONST>
1

>  <SCORE.INTER.POLAR>
0

>  <SCORE.INTER.ROT>
4

>  <SCORE.INTER.SOLV>
12.0862

>  <SCORE.INTER.VDW>
-26.7551

>  <SCORE.INTER.norm>
-1.37164

>  <SCORE.INTRA>
0.83247

>  <SCORE.INTRA.DIHEDRAL>
1.01724

>  <SCORE.INTRA.DIHEDRAL.0>
3.20029

>  <SCORE.INTRA.POLAR>
0

>  <SCORE.INTRA.POLAR.0>
0

>  <SCORE.INTRA.REPUL>
0

>  <SCORE.INTRA.REPUL.0>
0

>  <SCORE.INTRA.SOLV>
1.04603

>  <SCORE.INTRA.SOLV.lig_0>
-19.3885

>  <SCORE.INTRA.VDW>
-0.199164

>  <SCORE.INTRA.VDW.0>
-1.12705

>  <SCORE.INTRA.norm>
0.0462483

>  <SCORE.RESTR>
0

>  <SCORE.RESTR.CAVITY>
0

>  <SCORE.RESTR.norm>
0

>  <SCORE.SYSTEM>
0

>  <SCORE.SYSTEM.CONST>
0

>  <SCORE.SYSTEM.DIHEDRAL>
0

>  <SCORE.SYSTEM.SOLV>
0

>  <SCORE.SYSTEM.norm>
0

>  <SCORE.heavy>
18

>  <SCORE.norm>
-1.32539

>  <RMSD>
7.525

$$$$
lig.pdb
 OpenBabel11021811503D
libRbt.so/2013.1/901 2013/11/27
 18 19  0  0  0  0  0  0  0  0999 V2000
   -5.6357    9.7387    4.4874 C   0  0  0  0  0  0  0  0  0  0  0  0
   -6.6100   12.8820    0.9233 N   0  0  0  0  0  0  0  0  0  0  0  0
  -10.0754   15.8831    1.9708 C   0  0  0  0  0  0  0  0  0  0  0  0
  -15.0097   15.4078    3.7679 O   0  0  0  0  0  0  0  0  0  0  0  0
  -14.3169   16.3320    2.9403 C   0  0  0  0  0  0  0  0  0  0  0  0
  -12.8294   16.3929    3.3386 C   0  0  0  0  0  0  0  0  0  0  0  0
  -11.5790   12.5103    2.5834 C   0  0  0  0  0  0  0  0  0  0  0  0
  -12.8744   13.4400    3.2629 S   0  0  0  0  0  0  0  0  0  0  0  0
  -12.2006   15.0622    2.9889 C   0  0  0  0  0  0  0  0  0  0  0  0
  -11.0038   14.7556    2.3902 C   0  0  0  0  0  0  0  0  0  0  0  0
  -10.7090   13.4338    2.1951 N   0  0  0  0  0  0  0  0  0  0  0  0
   -9.4285   13.0056    1.5280 C   0  0  0  0  0  0  0  0  0  0  0  0
   -7.0778   12.1020    1.9808 C   0  0  0  0  0  0  0  0  0  0  0  0
   -6.2037   11.3261    2.6920 N   0  0  0  0  0  0  0  0  0  0  0  0
   -6.6266   10.5722    3.7102 C   0  0  0  0  0  0  0  0  0  0  0  0
   -7.9173   10.5569    4.0554 N   0  0  0  0  0  0  0  0  0  0  0  0
   -8.8422   11.3033    3.3977 C   0  0  0  0  0  0  0  0  0  0  0  0
   -8.4596   12.1184    2.3265 C   0  0  0  0  0  0  0  0  0  0  0  0
  5  4  1  0  0  0  0
  5  6  1  0  0  0  0
  7  8  2  0  0  0  0
  7 11  1  0  0  0  0
  8  9  1  0  0  0  0
  9 10  2  0  0  0  0
  9  6  1  0  0  0  0
 10  3  1  0  0  0  0
 11 12  1  0  0  0  0
 11 10  1  0  0  0  0
 12 18  1  0  0  0  0
 13  2  1  0  0  0  0
 13 14  2  0  0  0  0
 15 14  1  0  0  0  0
 15  1  1  0  0  0  0
 16 15  2  0  0  0  0
 17 18  2  0  0  0  0
 17 16  1  0  0  0  0
 18 13  1  0  0  0  0
M  END
>  <CHROM.1>
67.55739812,-43.31761951,-61.24409383,-156.42913682,-10.11435950,13.20953679
2.85313001,0.46229418,-0.33967973,2.55997067

>  <Name>
lig.pdb

>  <RI>
0

>  <Rbt.Current_Directory>
/home/itssahil/PROJECTS/Mol_Feturizer/New_Systems/rnas/4nyg

>  <Rbt.Executable>
rbdock ($Id: //depot/dev/client3/rdock/2013.1/src/exe/rbdock.cxx#4 $)

>  <Rbt.Library>
libRbt.so (2013.1, Build901 2013/11/27)

>  <Rbt.Parameter_File>
/export/apps/rDock/src/rDock_2013.1_src/data/scripts/dock_solv.prm

>  <Rbt.Receptor>
prm/pocket_docking_7.prm

>  <SCORE>
-23.9906

>  <SCORE.INTER>
-24.6322

>  <SCORE.INTER.CONST>
1

>  <SCORE.INTER.POLAR>
0

>  <SCORE.INTER.ROT>
4

>  <SCORE.INTER.SOLV>
11.9291

>  <SCORE.INTER.VDW>
-26.6645

>  <SCORE.INTER.norm>
-1.36846

>  <SCORE.INTRA>
0.641646

>  <SCORE.INTRA.DIHEDRAL>
0.602254

>  <SCORE.INTRA.DIHEDRAL.0>
3.20029

>  <SCORE.INTRA.POLAR>
0

>  <SCORE.INTRA.POLAR.0>
0

>  <SCORE.INTRA.REPUL>
0

>  <SCORE.INTRA.REPUL.0>
0

>  <SCORE.INTRA.SOLV>
0.425784

>  <SCORE.INTRA.SOLV.lig_0>
-19.3885

>  <SCORE.INTRA.VDW>
0.127627

>  <SCORE.INTRA.VDW.0>
-1.12705

>  <SCORE.INTRA.norm>
0.035647

>  <SCORE.RESTR>
0

>  <SCORE.RESTR.CAVITY>
0

>  <SCORE.RESTR.norm>
0

>  <SCORE.SYSTEM>
0

>  <SCORE.SYSTEM.CONST>
0

>  <SCORE.SYSTEM.DIHEDRAL>
0

>  <SCORE.SYSTEM.SOLV>
0

>  <SCORE.SYSTEM.norm>
0

>  <SCORE.heavy>
18

>  <SCORE.norm>
-1.33281

>  <RMSD>
7.529

$$$$
lig.pdb
 OpenBabel11021811503D
libRbt.so/2013.1/901 2013/11/27
 18 19  0  0  0  0  0  0  0  0999 V2000
   -5.6154    9.7546    4.4887 C   0  0  0  0  0  0  0  0  0  0  0  0
   -6.5883   12.8719    0.9014 N   0  0  0  0  0  0  0  0  0  0  0  0
  -10.0578   15.8812    2.0385 C   0  0  0  0  0  0  0  0  0  0  0  0
  -15.0269   15.3510    3.7107 O   0  0  0  0  0  0  0  0  0  0  0  0
  -14.3161   16.3051    2.9339 C   0  0  0  0  0  0  0  0  0  0  0  0
  -12.8380   16.3505    3.3673 C   0  0  0  0  0  0  0  0  0  0  0  0
  -11.5738   12.4922    2.5162 C   0  0  0  0  0  0  0  0  0  0  0  0
  -12.8820   13.4014    3.1988 S   0  0  0  0  0  0  0  0  0  0  0  0
  -12.2027   15.0308    2.9888 C   0  0  0  0  0  0  0  0  0  0  0  0
  -10.9945   14.7420    2.4043 C   0  0  0  0  0  0  0  0  0  0  0  0
  -10.6962   13.4267    2.1739 N   0  0  0  0  0  0  0  0  0  0  0  0
   -9.4029   13.0184    1.5191 C   0  0  0  0  0  0  0  0  0  0  0  0
   -7.0556   12.1043    1.9682 C   0  0  0  0  0  0  0  0  0  0  0  0
   -6.1827   11.3295    2.6820 N   0  0  0  0  0  0  0  0  0  0  0  0
   -6.6050   10.5873    3.7090 C   0  0  0  0  0  0  0  0  0  0  0  0
   -7.8940   10.5831    4.0607 N   0  0  0  0  0  0  0  0  0  0  0  0
   -8.8177   11.3293    3.4010 C   0  0  0  0  0  0  0  0  0  0  0  0
   -8.4355   12.1323    2.3206 C   0  0  0  0  0  0  0  0  0  0  0  0
  5  4  1  0  0  0  0
  5  6  1  0  0  0  0
  7  8  2  0  0  0  0
  7 11  1  0  0  0  0
  8  9  1  0  0  0  0
  9 10  2  0  0  0  0
  9  6  1  0  0  0  0
 10  3  1  0  0  0  0
 11 12  1  0  0  0  0
 11 10  1  0  0  0  0
 12 18  1  0  0  0  0
 13  2  1  0  0  0  0
 13 14  2  0  0  0  0
 15 14  1  0  0  0  0
 15  1  1  0  0  0  0
 16 15  2  0  0  0  0
 17 18  2  0  0  0  0
 17 16  1  0  0  0  0
 18 13  1  0  0  0  0
M  END
>  <CHROM.1>
67.27707402,-43.51188735,-62.61984035,-158.21158265,-10.10411062,13.19955942
2.84049340,0.45916540,-0.32944957,2.56697718

>  <Name>
lig.pdb

>  <RI>
0

>  <Rbt.Current_Directory>
/home/itssahil/PROJECTS/Mol_Feturizer/New_Systems/rnas/4nyg

>  <Rbt.Executable>
rbdock ($Id: //depot/dev/client3/rdock/2013.1/src/exe/rbdock.cxx#4 $)

>  <Rbt.Library>
libRbt.so (2013.1, Build901 2013/11/27)

>  <Rbt.Parameter_File>
/export/apps/rDock/src/rDock_2013.1_src/data/scripts/dock_solv.prm

>  <Rbt.Receptor>
prm/pocket_docking_7.prm

>  <SCORE>
-23.9746

>  <SCORE.INTER>
-24.5675

>  <SCORE.INTER.CONST>
1

>  <SCORE.INTER.POLAR>
0

>  <SCORE.INTER.ROT>
4

>  <SCORE.INTER.SOLV>
11.9363

>  <SCORE.INTER.VDW>
-26.6238

>  <SCORE.INTER.norm>
-1.36486

>  <SCORE.INTRA>
0.592858

>  <SCORE.INTRA.DIHEDRAL>
0.571865

>  <SCORE.INTRA.DIHEDRAL.0>
3.20029

>  <SCORE.INTRA.POLAR>
0

>  <SCORE.INTRA.POLAR.0>
0

>  <SCORE.INTRA.REPUL>
0

>  <SCORE.INTRA.REPUL.0>
0

>  <SCORE.INTRA.SOLV>
0.417245

>  <SCORE.INTRA.SOLV.lig_0>
-19.3885

>  <SCORE.INTRA.VDW>
0.0983029

>  <SCORE.INTRA.VDW.0>
-1.12705

>  <SCORE.INTRA.norm>
0.0329365

>  <SCORE.RESTR>
0

>  <SCORE.RESTR.CAVITY>
0

>  <SCORE.RESTR.norm>
0

>  <SCORE.SYSTEM>
0

>  <SCORE.SYSTEM.CONST>
0

>  <SCORE.SYSTEM.DIHEDRAL>
0

>  <SCORE.SYSTEM.SOLV>
0

>  <SCORE.SYSTEM.norm>
0

>  <SCORE.heavy>
18

>  <SCORE.norm>
-1.33192

>  <RMSD>
7.529

$$$$
lig.pdb
 OpenBabel11021811503D
libRbt.so/2013.1/901 2013/11/27
 18 19  0  0  0  0  0  0  0  0999 V2000
   -5.9198    9.1708    4.2386 C   0  0  0  0  0  0  0  0  0  0  0  0
   -7.4544   13.7118    3.4924 N   0  0  0  0  0  0  0  0  0  0  0  0
  -10.0508   15.8289    1.8437 C   0  0  0  0  0  0  0  0  0  0  0  0
  -14.9262   15.3557    3.7612 O   0  0  0  0  0  0  0  0  0  0  0  0
  -14.2384   16.2677    2.9161 C   0  0  0  0  0  0  0  0  0  0  0  0
  -12.7512   16.3438    3.3127 C   0  0  0  0  0  0  0  0  0  0  0  0
  -11.4657   12.4569    2.6433 C   0  0  0  0  0  0  0  0  0  0  0  0
  -12.7466   13.3898    3.3455 S   0  0  0  0  0  0  0  0  0  0  0  0
  -12.1146   15.0116    2.9838 C   0  0  0  0  0  0  0  0  0  0  0  0
  -10.9397   14.7027    2.3441 C   0  0  0  0  0  0  0  0  0  0  0  0
  -10.6301   13.3796    2.1839 N   0  0  0  0  0  0  0  0  0  0  0  0
   -9.3724   12.9481    1.4767 C   0  0  0  0  0  0  0  0  0  0  0  0
   -7.5414   12.3590    3.1642 C   0  0  0  0  0  0  0  0  0  0  0  0
   -6.7397   11.4518    3.8015 N   0  0  0  0  0  0  0  0  0  0  0  0
   -6.8056   10.1508    3.5068 C   0  0  0  0  0  0  0  0  0  0  0  0
   -7.6566    9.7059    2.5776 N   0  0  0  0  0  0  0  0  0  0  0  0
   -8.4855   10.5467    1.9060 C   0  0  0  0  0  0  0  0  0  0  0  0
   -8.4676   11.9198    2.1749 C   0  0  0  0  0  0  0  0  0  0  0  0
  5  4  1  0  0  0  0
  5  6  1  0  0  0  0
  7  8  2  0  0  0  0
  7 11  1  0  0  0  0
  8  9  1  0  0  0  0
  9 10  2  0  0  0  0
  9  6  1  0  0  0  0
 10  3  1  0  0  0  0
 11 12  1  0  0  0  0
 11 10  1  0  0  0  0
 12 18  1  0  0  0  0
 13  2  1  0  0  0  0
 13 14  2  0  0  0  0
 15 14  1  0  0  0  0
 15  1  1  0  0  0  0
 16 15  2  0  0  0  0
 17 18  2  0  0  0  0
 17 16  1  0  0  0  0
 18 13  1  0  0  0  0
M  END
>  <CHROM.1>
67.74169057,-46.14961088,-51.27771307,-82.33129315,-10.15231146,13.09654672
2.91728734,0.63719398,-0.10558428,2.97327067

>  <Name>
lig.pdb

>  <RI>
0

>  <Rbt.Current_Directory>
/home/itssahil/PROJECTS/Mol_Feturizer/New_Systems/rnas/4nyg

>  <Rbt.Executable>
rbdock ($Id: //depot/dev/client3/rdock/2013.1/src/exe/rbdock.cxx#4 $)

>  <Rbt.Library>
libRbt.so (2013.1, Build901 2013/11/27)

>  <Rbt.Parameter_File>
/export/apps/rDock/src/rDock_2013.1_src/data/scripts/dock_solv.prm

>  <Rbt.Receptor>
prm/pocket_docking_7.prm

>  <SCORE>
-25.3123

>  <SCORE.INTER>
-25.7289

>  <SCORE.INTER.CONST>
1

>  <SCORE.INTER.POLAR>
0

>  <SCORE.INTER.ROT>
4

>  <SCORE.INTER.SOLV>
11.8846

>  <SCORE.INTER.VDW>
-27.3808

>  <SCORE.INTER.norm>
-1.42938

>  <SCORE.INTRA>
0.416594

>  <SCORE.INTRA.DIHEDRAL>
0.505433

>  <SCORE.INTRA.DIHEDRAL.0>
3.20029

>  <SCORE.INTRA.POLAR>
0

>  <SCORE.INTRA.POLAR.0>
0

>  <SCORE.INTRA.REPUL>
0

>  <SCORE.INTRA.REPUL.0>
0

>  <SCORE.INTRA.SOLV>
1.05328

>  <SCORE.INTRA.SOLV.lig_0>
-19.3885

>  <SCORE.INTRA.VDW>
-0.362762

>  <SCORE.INTRA.VDW.0>
-1.12705

>  <SCORE.INTRA.norm>
0.0231441

>  <SCORE.RESTR>
0

>  <SCORE.RESTR.CAVITY>
0

>  <SCORE.RESTR.norm>
0

>  <SCORE.SYSTEM>
0

>  <SCORE.SYSTEM.CONST>
0

>  <SCORE.SYSTEM.DIHEDRAL>
0

>  <SCORE.SYSTEM.SOLV>
0

>  <SCORE.SYSTEM.norm>
0

>  <SCORE.heavy>
18

>  <SCORE.norm>
-1.40624

>  <RMSD>
7.530

$$$$
lig.pdb
 OpenBabel11021811503D
libRbt.so/2013.1/901 2013/11/27
 18 19  0  0  0  0  0  0  0  0999 V2000
   -4.8779   16.9974   -0.0013 C   0  0  0  0  0  0  0  0  0  0  0  0
   -8.7134   14.0971   -0.6407 N   0  0  0  0  0  0  0  0  0  0  0  0
  -11.9817   12.7785    2.9836 C   0  0  0  0  0  0  0  0  0  0  0  0
  -14.8349   17.0501    3.6868 O   0  0  0  0  0  0  0  0  0  0  0  0
  -14.9147   15.7635    4.2846 C   0  0  0  0  0  0  0  0  0  0  0  0
  -14.4269   14.6858    3.2970 C   0  0  0  0  0  0  0  0  0  0  0  0
  -10.7508   16.2069    2.1218 C   0  0  0  0  0  0  0  0  0  0  0  0
  -12.3916   16.6547    2.4555 S   0  0  0  0  0  0  0  0  0  0  0  0
  -13.0192   15.0454    2.8759 C   0  0  0  0  0  0  0  0  0  0  0  0
  -11.8961   14.2719    2.7167 C   0  0  0  0  0  0  0  0  0  0  0  0
  -10.7427   14.8959    2.3264 N   0  0  0  0  0  0  0  0  0  0  0  0
   -9.4584   14.1301    2.1465 C   0  0  0  0  0  0  0  0  0  0  0  0
   -7.9161   14.8380    0.2314 C   0  0  0  0  0  0  0  0  0  0  0  0
   -6.8338   15.5216   -0.2513 N   0  0  0  0  0  0  0  0  0  0  0  0
   -6.0562   16.2400    0.5630 C   0  0  0  0  0  0  0  0  0  0  0  0
   -6.3176   16.3043    1.8718 N   0  0  0  0  0  0  0  0  0  0  0  0
   -7.3761   15.6550    2.4223 C   0  0  0  0  0  0  0  0  0  0  0  0
   -8.2311   14.8914    1.6197 C   0  0  0  0  0  0  0  0  0  0  0  0
  5  4  1  0  0  0  0
  5  6  1  0  0  0  0
  7  8  2  0  0  0  0
  7 11  1  0  0  0  0
  8  9  1  0  0  0  0
  9 10  2  0  0  0  0
  9  6  1  0  0  0  0
 10  3  1  0  0  0  0
 11 12  1  0  0  0  0
 11 10  1  0  0  0  0
 12 18  1  0  0  0  0
 13  2  1  0  0  0  0
 13 14  2  0  0  0  0
 15 14  1  0  0  0  0
 15  1  1  0  0  0  0
 16 15  2  0  0  0  0
 17 18  2  0  0  0  0
 17 16  1  0  0  0  0
 18 13  1  0  0  0  0
M  END
>  <CHROM.1>
56.67175681,-42.45512603,-4.86927111,-96.94050327,-10.25812558,15.44118536
1.98467719,-0.02252177,0.36363568,0.14443227

>  <Name>
lig.pdb

>  <RI>
0

>  <Rbt.Current_Directory>
/home/itssahil/PROJECTS/Mol_Feturizer/New_Systems/rnas/4nyg

>  <Rbt.Executable>
rbdock ($Id: //depot/dev/client3/rdock/2013.1/src/exe/rbdock.cxx#4 $)

>  <Rbt.Library>
libRbt.so (2013.1, Build901 2013/11/27)

>  <Rbt.Parameter_File>
/export/apps/rDock/src/rDock_2013.1_src/data/scripts/dock_solv.prm

>  <Rbt.Receptor>
prm/blind_docking_60.prm

>  <SCORE>
-19.9072

>  <SCORE.INTER>
-21.9438

>  <SCORE.INTER.CONST>
1

>  <SCORE.INTER.POLAR>
0

>  <SCORE.INTER.ROT>
4

>  <SCORE.INTER.SOLV>
13.0955

>  <SCORE.INTER.VDW>
-25.261

>  <SCORE.INTER.norm>
-1.2191

>  <SCORE.INTRA>
1.51351

>  <SCORE.INTRA.DIHEDRAL>
0.4967

>  <SCORE.INTRA.DIHEDRAL.0>
3.20029

>  <SCORE.INTRA.POLAR>
0

>  <SCORE.INTRA.POLAR.0>
0

>  <SCORE.INTRA.REPUL>
0

>  <SCORE.INTRA.REPUL.0>
0

>  <SCORE.INTRA.SOLV>
0.742456

>  <SCORE.INTRA.SOLV.lig_0>
-19.3885

>  <SCORE.INTRA.VDW>
0.893931

>  <SCORE.INTRA.VDW.0>
-1.12705

>  <SCORE.INTRA.norm>
0.0840838

>  <SCORE.RESTR>
0.52308

>  <SCORE.RESTR.CAVITY>
0.52308

>  <SCORE.RESTR.norm>
0.02906

>  <SCORE.SYSTEM>
0

>  <SCORE.SYSTEM.CONST>
0

>  <SCORE.SYSTEM.DIHEDRAL>
0

>  <SCORE.SYSTEM.SOLV>
0

>  <SCORE.SYSTEM.norm>
0

>  <SCORE.heavy>
18

>  <SCORE.norm>
-1.10595

>  <RMSD>
7.532

$$$$
lig.pdb
 OpenBabel11021811503D
libRbt.so/2013.1/901 2013/11/27
 18 19  0  0  0  0  0  0  0  0999 V2000
   -3.9625   15.2954    0.2948 C   0  0  0  0  0  0  0  0  0  0  0  0
   -8.6746   14.8885   -0.7834 N   0  0  0  0  0  0  0  0  0  0  0  0
  -11.9147   12.3152    2.5123 C   0  0  0  0  0  0  0  0  0  0  0  0
  -15.6642   15.9574    4.1466 O   0  0  0  0  0  0  0  0  0  0  0  0
  -14.4558   15.9240    3.3998 C   0  0  0  0  0  0  0  0  0  0  0  0
  -13.7161   14.5940    3.6423 C   0  0  0  0  0  0  0  0  0  0  0  0
   -9.9606   15.4839    2.1216 C   0  0  0  0  0  0  0  0  0  0  0  0
  -11.3693   16.1972    2.8363 S   0  0  0  0  0  0  0  0  0  0  0  0
  -12.3320   14.7172    3.0444 C   0  0  0  0  0  0  0  0  0  0  0  0
  -11.4800   13.7711    2.5306 C   0  0  0  0  0  0  0  0  0  0  0  0
  -10.2664   14.1941    2.0613 N   0  0  0  0  0  0  0  0  0  0  0  0
   -9.2610   13.2240    1.4991 C   0  0  0  0  0  0  0  0  0  0  0  0
   -7.6172   14.5616    0.0653 C   0  0  0  0  0  0  0  0  0  0  0  0
   -6.3620   15.0382   -0.1975 N   0  0  0  0  0  0  0  0  0  0  0  0
   -5.3335   14.7412    0.6011 C   0  0  0  0  0  0  0  0  0  0  0  0
   -5.5081   13.9669    1.6759 N   0  0  0  0  0  0  0  0  0  0  0  0
   -6.7255   13.4602    2.0020 C   0  0  0  0  0  0  0  0  0  0  0  0
   -7.8429   13.7411    1.2078 C   0  0  0  0  0  0  0  0  0  0  0  0
  5  4  1  0  0  0  0
  5  6  1  0  0  0  0
  7  8  2  0  0  0  0
  7 11  1  0  0  0  0
  8  9  1  0  0  0  0
  9 10  2  0  0  0  0
  9  6  1  0  0  0  0
 10  3  1  0  0  0  0
 11 12  1  0  0  0  0
 11 10  1  0  0  0  0
 12 18  1  0  0  0  0
 13  2  1  0  0  0  0
 13 14  2  0  0  0  0
 15 14  1  0  0  0  0
 15  1  1  0  0  0  0
 16 15  2  0  0  0  0
 17 18  2  0  0  0  0
 17 16  1  0  0  0  0
 18 13  1  0  0  0  0
M  END
>  <CHROM.1>
-169.40749866,28.38158210,8.77734871,-75.15041330,-9.77187452,14.68720484
1.91000982,-0.06306703,0.35262091,-0.06419756

>  <Name>
lig.pdb

>  <RI>
0

>  <Rbt.Current_Directory>
/home/itssahil/PROJECTS/Mol_Feturizer/New_Systems/rnas/4nyg

>  <Rbt.Executable>
rbdock ($Id: //depot/dev/client3/rdock/2013.1/src/exe/rbdock.cxx#4 $)

>  <Rbt.Library>
libRbt.so (2013.1, Build901 2013/11/27)

>  <Rbt.Parameter_File>
/export/apps/rDock/src/rDock_2013.1_src/data/scripts/dock_solv.prm

>  <Rbt.Receptor>
prm/pocket_docking_5.prm

>  <SCORE>
-20.3751

>  <SCORE.INTER>
-21.8875

>  <SCORE.INTER.CONST>
1

>  <SCORE.INTER.POLAR>
0

>  <SCORE.INTER.ROT>
4

>  <SCORE.INTER.SOLV>
12.9838

>  <SCORE.INTER.VDW>
-25.1863

>  <SCORE.INTER.norm>
-1.21597

>  <SCORE.INTRA>
1.51245

>  <SCORE.INTRA.DIHEDRAL>
1.77524

>  <SCORE.INTRA.DIHEDRAL.0>
3.20029

>  <SCORE.INTRA.POLAR>
0

>  <SCORE.INTRA.POLAR.0>
0

>  <SCORE.INTRA.REPUL>
0

>  <SCORE.INTRA.REPUL.0>
0

>  <SCORE.INTRA.SOLV>
0.558463

>  <SCORE.INTRA.SOLV.lig_0>
-19.3885

>  <SCORE.INTRA.VDW>
0.345598

>  <SCORE.INTRA.VDW.0>
-1.12705

>  <SCORE.INTRA.norm>
0.0840248

>  <SCORE.RESTR>
0

>  <SCORE.RESTR.CAVITY>
0

>  <SCORE.RESTR.norm>
0

>  <SCORE.SYSTEM>
0

>  <SCORE.SYSTEM.CONST>
0

>  <SCORE.SYSTEM.DIHEDRAL>
0

>  <SCORE.SYSTEM.SOLV>
0

>  <SCORE.SYSTEM.norm>
0

>  <SCORE.heavy>
18

>  <SCORE.norm>
-1.13195

>  <RMSD>
7.532

$$$$
lig.pdb
 OpenBabel11021811503D
libRbt.so/2013.1/901 2013/11/27
 18 19  0  0  0  0  0  0  0  0999 V2000
   -5.9547    9.4791    4.5506 C   0  0  0  0  0  0  0  0  0  0  0  0
   -7.6216   13.9226    3.5461 N   0  0  0  0  0  0  0  0  0  0  0  0
  -10.0645   15.8763    2.0276 C   0  0  0  0  0  0  0  0  0  0  0  0
  -15.0471   15.5037    3.6675 O   0  0  0  0  0  0  0  0  0  0  0  0
  -14.2743   16.4275    2.9134 C   0  0  0  0  0  0  0  0  0  0  0  0
  -12.8113   16.4184    3.3975 C   0  0  0  0  0  0  0  0  0  0  0  0
  -11.6368   12.5246    2.5805 C   0  0  0  0  0  0  0  0  0  0  0  0
  -12.9150   13.4686    3.2725 S   0  0  0  0  0  0  0  0  0  0  0  0
  -12.2083   15.0814    3.0271 C   0  0  0  0  0  0  0  0  0  0  0  0
  -11.0163   14.7608    2.4260 C   0  0  0  0  0  0  0  0  0  0  0  0
  -10.7475   13.4369    2.2096 N   0  0  0  0  0  0  0  0  0  0  0  0
   -9.4741   12.9942    1.5383 C   0  0  0  0  0  0  0  0  0  0  0  0
   -7.6580   12.5528    3.2860 C   0  0  0  0  0  0  0  0  0  0  0  0
   -6.8398   11.7063    3.9830 N   0  0  0  0  0  0  0  0  0  0  0  0
   -6.8575   10.3906    3.7540 C   0  0  0  0  0  0  0  0  0  0  0  0
   -7.6753    9.8711    2.8338 N   0  0  0  0  0  0  0  0  0  0  0  0
   -8.5179   10.6487    2.1054 C   0  0  0  0  0  0  0  0  0  0  0  0
   -8.5500   12.0335    2.3042 C   0  0  0  0  0  0  0  0  0  0  0  0
  5  4  1  0  0  0  0
  5  6  1  0  0  0  0
  7  8  2  0  0  0  0
  7 11  1  0  0  0  0
  8  9  1  0  0  0  0
  9 10  2  0  0  0  0
  9  6  1  0  0  0  0
 10  3  1  0  0  0  0
 11 12  1  0  0  0  0
 11 10  1  0  0  0  0
 12 18  1  0  0  0  0
 13  2  1  0  0  0  0
 13 14  2  0  0  0  0
 15 14  1  0  0  0  0
 15  1  1  0  0  0  0
 16 15  2  0  0  0  0
 17 18  2  0  0  0  0
 17 16  1  0  0  0  0
 18 13  1  0  0  0  0
M  END
>  <CHROM.1>
68.04402771,-46.88959442,-59.04868926,-81.31868914,-10.24454247,13.22665954
3.00169514,0.62832817,-0.03124414,3.02344788

>  <Name>
lig.pdb

>  <RI>
0

>  <Rbt.Current_Directory>
/home/itssahil/PROJECTS/Mol_Feturizer/New_Systems/rnas/4nyg

>  <Rbt.Executable>
rbdock ($Id: //depot/dev/client3/rdock/2013.1/src/exe/rbdock.cxx#4 $)

>  <Rbt.Library>
libRbt.so (2013.1, Build901 2013/11/27)

>  <Rbt.Parameter_File>
/export/apps/rDock/src/rDock_2013.1_src/data/scripts/dock_solv.prm

>  <Rbt.Receptor>
prm/pocket_docking_8.prm

>  <SCORE>
-25.0998

>  <SCORE.INTER>
-25.4429

>  <SCORE.INTER.CONST>
1

>  <SCORE.INTER.POLAR>
0

>  <SCORE.INTER.ROT>
4

>  <SCORE.INTER.SOLV>
11.6457

>  <SCORE.INTER.VDW>
-27.1105

>  <SCORE.INTER.norm>
-1.41349

>  <SCORE.INTRA>
0.343104

>  <SCORE.INTRA.DIHEDRAL>
0.464045

>  <SCORE.INTRA.DIHEDRAL.0>
3.20029

>  <SCORE.INTRA.POLAR>
0

>  <SCORE.INTRA.POLAR.0>
0

>  <SCORE.INTRA.REPUL>
0

>  <SCORE.INTRA.REPUL.0>
0

>  <SCORE.INTRA.SOLV>
1.13142

>  <SCORE.INTRA.SOLV.lig_0>
-19.3885

>  <SCORE.INTRA.VDW>
-0.454629

>  <SCORE.INTRA.VDW.0>
-1.12705

>  <SCORE.INTRA.norm>
0.0190613

>  <SCORE.RESTR>
0

>  <SCORE.RESTR.CAVITY>
0

>  <SCORE.RESTR.norm>
0

>  <SCORE.SYSTEM>
0

>  <SCORE.SYSTEM.CONST>
0

>  <SCORE.SYSTEM.DIHEDRAL>
0

>  <SCORE.SYSTEM.SOLV>
0

>  <SCORE.SYSTEM.norm>
0

>  <SCORE.heavy>
18

>  <SCORE.norm>
-1.39443

>  <RMSD>
7.534

$$$$
lig.pdb
 OpenBabel11021811503D
libRbt.so/2013.1/901 2013/11/27
 18 19  0  0  0  0  0  0  0  0999 V2000
   -4.6918   16.4020    0.0793 C   0  0  0  0  0  0  0  0  0  0  0  0
   -7.8402   15.6182    3.6856 N   0  0  0  0  0  0  0  0  0  0  0  0
  -12.2061   12.8817    2.9858 C   0  0  0  0  0  0  0  0  0  0  0  0
  -14.5899   17.3747    3.8824 O   0  0  0  0  0  0  0  0  0  0  0  0
  -14.7734   16.0645    4.4006 C   0  0  0  0  0  0  0  0  0  0  0  0
  -14.4550   15.0141    3.3188 C   0  0  0  0  0  0  0  0  0  0  0  0
  -10.6791   16.1674    2.0456 C   0  0  0  0  0  0  0  0  0  0  0  0
  -12.2632   16.7717    2.4055 S   0  0  0  0  0  0  0  0  0  0  0  0
  -13.0293   15.2343    2.8637 C   0  0  0  0  0  0  0  0  0  0  0  0
  -11.9871   14.3568    2.6938 C   0  0  0  0  0  0  0  0  0  0  0  0
  -10.7892   14.8644    2.2705 N   0  0  0  0  0  0  0  0  0  0  0  0
   -9.5864   13.9791    2.0765 C   0  0  0  0  0  0  0  0  0  0  0  0
   -7.4841   15.4114    2.3530 C   0  0  0  0  0  0  0  0  0  0  0  0
   -6.3365   15.9707    1.8612 N   0  0  0  0  0  0  0  0  0  0  0  0
   -5.9726   15.7856    0.5895 C   0  0  0  0  0  0  0  0  0  0  0  0
   -6.7257   15.0504   -0.2336 N   0  0  0  0  0  0  0  0  0  0  0  0
   -7.8762   14.4615    0.1844 C   0  0  0  0  0  0  0  0  0  0  0  0
   -8.3069   14.6133    1.5072 C   0  0  0  0  0  0  0  0  0  0  0  0
  5  4  1  0  0  0  0
  5  6  1  0  0  0  0
  7  8  2  0  0  0  0
  7 11  1  0  0  0  0
  8  9  1  0  0  0  0
  9 10  2  0  0  0  0
  9  6  1  0  0  0  0
 10  3  1  0  0  0  0
 11 12  1  0  0  0  0
 11 10  1  0  0  0  0
 12 18  1  0  0  0  0
 13  2  1  0  0  0  0
 13 14  2  0  0  0  0
 15 14  1  0  0  0  0
 15  1  1  0  0  0  0
 16 15  2  0  0  0  0
 17 18  2  0  0  0  0
 17 16  1  0  0  0  0
 18 13  1  0  0  0  0
M  END
>  <CHROM.1>
58.11604265,-47.84099188,-5.13798582,76.78913454,-10.18732504,15.45327653
2.20400905,-0.06905240,0.32422218,0.10191840

>  <Name>
lig.pdb

>  <RI>
0

>  <Rbt.Current_Directory>
/home/itssahil/PROJECTS/Mol_Feturizer/New_Systems/rnas/4nyg

>  <Rbt.Executable>
rbdock ($Id: //depot/dev/client3/rdock/2013.1/src/exe/rbdock.cxx#4 $)

>  <Rbt.Library>
libRbt.so (2013.1, Build901 2013/11/27)

>  <Rbt.Parameter_File>
/export/apps/rDock/src/rDock_2013.1_src/data/scripts/dock_solv.prm

>  <Rbt.Receptor>
prm/pocket_docking_4.prm

>  <SCORE>
-21.8132

>  <SCORE.INTER>
-22.8592

>  <SCORE.INTER.CONST>
1

>  <SCORE.INTER.POLAR>
0

>  <SCORE.INTER.ROT>
4

>  <SCORE.INTER.SOLV>
11.9761

>  <SCORE.INTER.VDW>
-25.4982

>  <SCORE.INTER.norm>
-1.26996

>  <SCORE.INTRA>
1.04603

>  <SCORE.INTRA.DIHEDRAL>
0.204817

>  <SCORE.INTRA.DIHEDRAL.0>
3.20029

>  <SCORE.INTRA.POLAR>
0

>  <SCORE.INTRA.POLAR.0>
0

>  <SCORE.INTRA.REPUL>
0

>  <SCORE.INTRA.REPUL.0>
0

>  <SCORE.INTRA.SOLV>
1.01214

>  <SCORE.INTRA.SOLV.lig_0>
-19.3885

>  <SCORE.INTRA.VDW>
0.437551

>  <SCORE.INTRA.VDW.0>
-1.12705

>  <SCORE.INTRA.norm>
0.0581129

>  <SCORE.RESTR>
0

>  <SCORE.RESTR.CAVITY>
0

>  <SCORE.RESTR.norm>
0

>  <SCORE.SYSTEM>
0

>  <SCORE.SYSTEM.CONST>
0

>  <SCORE.SYSTEM.DIHEDRAL>
0

>  <SCORE.SYSTEM.SOLV>
0

>  <SCORE.SYSTEM.norm>
0

>  <SCORE.heavy>
18

>  <SCORE.norm>
-1.21184

>  <RMSD>
7.535

$$$$
lig.pdb
 OpenBabel11021811503D
libRbt.so/2013.1/901 2013/11/27
 18 19  0  0  0  0  0  0  0  0999 V2000
   -5.9710    8.9354    4.0555 C   0  0  0  0  0  0  0  0  0  0  0  0
   -7.5174   13.4997    3.5002 N   0  0  0  0  0  0  0  0  0  0  0  0
  -10.0029   15.7144    1.8118 C   0  0  0  0  0  0  0  0  0  0  0  0
  -14.9115   15.3335    3.6287 O   0  0  0  0  0  0  0  0  0  0  0  0
  -14.1469   16.2354    2.8407 C   0  0  0  0  0  0  0  0  0  0  0  0
  -12.6808   16.2467    3.3154 C   0  0  0  0  0  0  0  0  0  0  0  0
  -11.4608   12.3519    2.5735 C   0  0  0  0  0  0  0  0  0  0  0  0
  -12.7205   13.2928    3.3027 S   0  0  0  0  0  0  0  0  0  0  0  0
  -12.0676   14.9104    2.9597 C   0  0  0  0  0  0  0  0  0  0  0  0
  -10.9038   14.5939    2.3036 C   0  0  0  0  0  0  0  0  0  0  0  0
  -10.6158   13.2690    2.1200 N   0  0  0  0  0  0  0  0  0  0  0  0
   -9.3718   12.8298    1.3937 C   0  0  0  0  0  0  0  0  0  0  0  0
   -7.5850   12.1651    3.1005 C   0  0  0  0  0  0  0  0  0  0  0  0
   -6.7951   11.2310    3.7130 N   0  0  0  0  0  0  0  0  0  0  0  0
   -6.8430    9.9466    3.3499 C   0  0  0  0  0  0  0  0  0  0  0  0
   -7.6639    9.5453    2.3751 N   0  0  0  0  0  0  0  0  0  0  0  0
   -8.4796   10.4147    1.7241 C   0  0  0  0  0  0  0  0  0  0  0  0
   -8.4796   11.7722    2.0638 C   0  0  0  0  0  0  0  0  0  0  0  0
  5  4  1  0  0  0  0
  5  6  1  0  0  0  0
  7  8  2  0  0  0  0
  7 11  1  0  0  0  0
  8  9  1  0  0  0  0
  9 10  2  0  0  0  0
  9  6  1  0  0  0  0
 10  3  1  0  0  0  0
 11 12  1  0  0  0  0
 11 10  1  0  0  0  0
 12 18  1  0  0  0  0
 13  2  1  0  0  0  0
 13 14  2  0  0  0  0
 15 14  1  0  0  0  0
 15  1  1  0  0  0  0
 16 15  2  0  0  0  0
 17 18  2  0  0  0  0
 17 16  1  0  0  0  0
 18 13  1  0  0  0  0
M  END
>  <CHROM.1>
69.12415582,-50.14011006,-50.97789518,-79.21411677,-10.14561645,12.96610811
2.83415070,0.65871355,-0.10244935,3.00190572

>  <Name>
lig.pdb

>  <RI>
0

>  <Rbt.Current_Directory>
/home/itssahil/PROJECTS/Mol_Feturizer/New_Systems/rnas/4nyg

>  <Rbt.Executable>
rbdock ($Id: //depot/dev/client3/rdock/2013.1/src/exe/rbdock.cxx#4 $)

>  <Rbt.Library>
libRbt.so (2013.1, Build901 2013/11/27)

>  <Rbt.Parameter_File>
/export/apps/rDock/src/rDock_2013.1_src/data/scripts/dock_solv.prm

>  <Rbt.Receptor>
prm/pocket_docking_7.prm

>  <SCORE>
-25.1645

>  <SCORE.INTER>
-25.4295

>  <SCORE.INTER.CONST>
1

>  <SCORE.INTER.POLAR>
0

>  <SCORE.INTER.ROT>
4

>  <SCORE.INTER.SOLV>
12.5509

>  <SCORE.INTER.VDW>
-27.4033

>  <SCORE.INTER.norm>
-1.41275

>  <SCORE.INTRA>
0.265075

>  <SCORE.INTRA.DIHEDRAL>
0.430407

>  <SCORE.INTRA.DIHEDRAL.0>
3.20029

>  <SCORE.INTRA.POLAR>
0

>  <SCORE.INTRA.POLAR.0>
0

>  <SCORE.INTRA.REPUL>
0

>  <SCORE.INTRA.REPUL.0>
0

>  <SCORE.INTRA.SOLV>
1.08621

>  <SCORE.INTRA.SOLV.lig_0>
-19.3885

>  <SCORE.INTRA.VDW>
-0.493236

>  <SCORE.INTRA.VDW.0>
-1.12705

>  <SCORE.INTRA.norm>
0.0147264

>  <SCORE.RESTR>
0

>  <SCORE.RESTR.CAVITY>
0

>  <SCORE.RESTR.norm>
0

>  <SCORE.SYSTEM>
0

>  <SCORE.SYSTEM.CONST>
0

>  <SCORE.SYSTEM.DIHEDRAL>
0

>  <SCORE.SYSTEM.SOLV>
0

>  <SCORE.SYSTEM.norm>
0

>  <SCORE.heavy>
18

>  <SCORE.norm>
-1.39803

>  <RMSD>
7.536

$$$$
lig.pdb
 OpenBabel11021811503D
libRbt.so/2013.1/901 2013/11/27
 18 19  0  0  0  0  0  0  0  0999 V2000
   -5.7993    8.5740    4.0448 C   0  0  0  0  0  0  0  0  0  0  0  0
   -7.2742   13.1673    3.5364 N   0  0  0  0  0  0  0  0  0  0  0  0
   -9.7548   15.4356    1.7513 C   0  0  0  0  0  0  0  0  0  0  0  0
  -14.7135   16.8730    3.4941 O   0  0  0  0  0  0  0  0  0  0  0  0
  -14.0453   15.6836    3.0967 C   0  0  0  0  0  0  0  0  0  0  0  0
  -12.5194   15.8982    3.1144 C   0  0  0  0  0  0  0  0  0  0  0  0
  -11.1832   12.0368    2.3987 C   0  0  0  0  0  0  0  0  0  0  0  0
  -12.4989   12.9444    3.0689 S   0  0  0  0  0  0  0  0  0  0  0  0
  -11.8613   14.5783    2.7783 C   0  0  0  0  0  0  0  0  0  0  0  0
  -10.6579   14.2922    2.1824 C   0  0  0  0  0  0  0  0  0  0  0  0
  -10.3339   12.9754    2.0008 N   0  0  0  0  0  0  0  0  0  0  0  0
   -9.0442   12.5688    1.3378 C   0  0  0  0  0  0  0  0  0  0  0  0
   -7.3383   11.8435    3.1017 C   0  0  0  0  0  0  0  0  0  0  0  0
   -6.5847   10.8862    3.7241 N   0  0  0  0  0  0  0  0  0  0  0  0
   -6.6302    9.6115    3.3280 C   0  0  0  0  0  0  0  0  0  0  0  0
   -7.4130    9.2429    2.3099 N   0  0  0  0  0  0  0  0  0  0  0  0
   -8.1915   10.1368    1.6465 C   0  0  0  0  0  0  0  0  0  0  0  0
   -8.1920   11.4856    2.0189 C   0  0  0  0  0  0  0  0  0  0  0  0
  5  4  1  0  0  0  0
  5  6  1  0  0  0  0
  7  8  2  0  0  0  0
  7 11  1  0  0  0  0
  8  9  1  0  0  0  0
  9 10  2  0  0  0  0
  9  6  1  0  0  0  0
 10  3  1  0  0  0  0
 11 12  1  0  0  0  0
 11 10  1  0  0  0  0
 12 18  1  0  0  0  0
 13  2  1  0  0  0  0
 13 14  2  0  0  0  0
 15 14  1  0  0  0  0
 15  1  1  0  0  0  0
 16 15  2  0  0  0  0
 17 18  2  0  0  0  0
 17 16  1  0  0  0  0
 18 13  1  0  0  0  0
M  END
>  <CHROM.1>
176.12161232,-27.67886075,-48.87633334,-80.99017875,-9.91514929,12.74899740
2.75654740,0.70336128,-0.03611997,3.08696586

>  <Name>
lig.pdb

>  <RI>
0

>  <Rbt.Current_Directory>
/home/itssahil/PROJECTS/Mol_Feturizer/New_Systems/rnas/4nyg

>  <Rbt.Executable>
rbdock ($Id: //depot/dev/client3/rdock/2013.1/src/exe/rbdock.cxx#4 $)

>  <Rbt.Library>
libRbt.so (2013.1, Build901 2013/11/27)

>  <Rbt.Parameter_File>
/export/apps/rDock/src/rDock_2013.1_src/data/scripts/dock_solv.prm

>  <Rbt.Receptor>
prm/pocket_docking_8.prm

>  <SCORE>
-24.1087

>  <SCORE.INTER>
-25.1305

>  <SCORE.INTER.CONST>
1

>  <SCORE.INTER.POLAR>
0

>  <SCORE.INTER.ROT>
4

>  <SCORE.INTER.SOLV>
12.9721

>  <SCORE.INTER.VDW>
-27.3443

>  <SCORE.INTER.norm>
-1.39614

>  <SCORE.INTRA>
1.02178

>  <SCORE.INTRA.DIHEDRAL>
1.51192

>  <SCORE.INTRA.DIHEDRAL.0>
3.20029

>  <SCORE.INTRA.POLAR>
0

>  <SCORE.INTRA.POLAR.0>
0

>  <SCORE.INTRA.REPUL>
0

>  <SCORE.INTRA.REPUL.0>
0

>  <SCORE.INTRA.SOLV>
0.631384

>  <SCORE.INTRA.SOLV.lig_0>
-19.3885

>  <SCORE.INTRA.VDW>
-0.0498766

>  <SCORE.INTRA.VDW.0>
-1.12705

>  <SCORE.INTRA.norm>
0.0567654

>  <SCORE.RESTR>
0

>  <SCORE.RESTR.CAVITY>
0

>  <SCORE.RESTR.norm>
0

>  <SCORE.SYSTEM>
0

>  <SCORE.SYSTEM.CONST>
0

>  <SCORE.SYSTEM.DIHEDRAL>
0

>  <SCORE.SYSTEM.SOLV>
0

>  <SCORE.SYSTEM.norm>
0

>  <SCORE.heavy>
18

>  <SCORE.norm>
-1.33937

>  <RMSD>
7.537

$$$$
lig.pdb
 OpenBabel11021811503D
libRbt.so/2013.1/901 2013/11/27
 18 19  0  0  0  0  0  0  0  0999 V2000
   -5.7083   10.6655    5.4173 C   0  0  0  0  0  0  0  0  0  0  0  0
   -7.4102   14.5077    2.9937 N   0  0  0  0  0  0  0  0  0  0  0  0
  -10.1388   15.9581    2.0487 C   0  0  0  0  0  0  0  0  0  0  0  0
  -15.1442   15.8095    3.8131 O   0  0  0  0  0  0  0  0  0  0  0  0
  -14.4131   16.5885    2.8763 C   0  0  0  0  0  0  0  0  0  0  0  0
  -12.9243   16.6380    3.2710 C   0  0  0  0  0  0  0  0  0  0  0  0
  -11.7896   12.6786    2.7774 C   0  0  0  0  0  0  0  0  0  0  0  0
  -13.0757   13.6888    3.3515 S   0  0  0  0  0  0  0  0  0  0  0  0
  -12.3319   15.2690    3.0196 C   0  0  0  0  0  0  0  0  0  0  0  0
  -11.1243   14.8885    2.4886 C   0  0  0  0  0  0  0  0  0  0  0  0
  -10.8712   13.5485    2.3769 N   0  0  0  0  0  0  0  0  0  0  0  0
   -9.5819   13.0399    1.7878 C   0  0  0  0  0  0  0  0  0  0  0  0
   -7.5199   13.1511    3.2988 C   0  0  0  0  0  0  0  0  0  0  0  0
   -6.6206   12.5709    4.1511 N   0  0  0  0  0  0  0  0  0  0  0  0
   -6.7056   11.2745    4.4607 C   0  0  0  0  0  0  0  0  0  0  0  0
   -7.6723   10.5127    3.9405 N   0  0  0  0  0  0  0  0  0  0  0  0
   -8.6023   11.0195    3.0901 C   0  0  0  0  0  0  0  0  0  0  0  0
   -8.5697   12.3721    2.7328 C   0  0  0  0  0  0  0  0  0  0  0  0
  5  4  1  0  0  0  0
  5  6  1  0  0  0  0
  7  8  2  0  0  0  0
  7 11  1  0  0  0  0
  8  9  1  0  0  0  0
  9 10  2  0  0  0  0
  9  6  1  0  0  0  0
 10  3  1  0  0  0  0
 11 12  1  0  0  0  0
 11 10  1  0  0  0  0
 12 18  1  0  0  0  0
 13  2  1  0  0  0  0
 13 14  2  0  0  0  0
 15 14  1  0  0  0  0
 15  1  1  0  0  0  0
 16 15  2  0  0  0  0
 17 18  2  0  0  0  0
 17 16  1  0  0  0  0
 18 13  1  0  0  0  0
M  END
>  <CHROM.1>
70.97535250,-40.71708199,-71.48472093,-94.45172934,-10.27293117,13.60916393
3.23692779,0.54388706,-0.03432374,2.85743214

>  <Name>
lig.pdb

>  <RI>
0

>  <Rbt.Current_Directory>
/home/itssahil/PROJECTS/Mol_Feturizer/New_Systems/rnas/4nyg

>  <Rbt.Executable>
rbdock ($Id: //depot/dev/client3/rdock/2013.1/src/exe/rbdock.cxx#4 $)

>  <Rbt.Library>
libRbt.so (2013.1, Build901 2013/11/27)

>  <Rbt.Parameter_File>
/export/apps/rDock/src/rDock_2013.1_src/data/scripts/dock_solv.prm

>  <Rbt.Receptor>
prm/pocket_docking_7.prm

>  <SCORE>
-23.727

>  <SCORE.INTER>
-24.3586

>  <SCORE.INTER.CONST>
1

>  <SCORE.INTER.POLAR>
0

>  <SCORE.INTER.ROT>
4

>  <SCORE.INTER.SOLV>
11.2093

>  <SCORE.INTER.VDW>
-26.2422

>  <SCORE.INTER.norm>
-1.35326

>  <SCORE.INTRA>
0.631612

>  <SCORE.INTRA.DIHEDRAL>
0.947851

>  <SCORE.INTRA.DIHEDRAL.0>
3.20029

>  <SCORE.INTRA.POLAR>
0

>  <SCORE.INTRA.POLAR.0>
0

>  <SCORE.INTRA.REPUL>
0

>  <SCORE.INTRA.REPUL.0>
0

>  <SCORE.INTRA.SOLV>
1.04867

>  <SCORE.INTRA.SOLV.lig_0>
-19.3885

>  <SCORE.INTRA.VDW>
-0.366651

>  <SCORE.INTRA.VDW.0>
-1.12705

>  <SCORE.INTRA.norm>
0.0350895

>  <SCORE.RESTR>
0

>  <SCORE.RESTR.CAVITY>
0

>  <SCORE.RESTR.norm>
0

>  <SCORE.SYSTEM>
0

>  <SCORE.SYSTEM.CONST>
0

>  <SCORE.SYSTEM.DIHEDRAL>
0

>  <SCORE.SYSTEM.SOLV>
0

>  <SCORE.SYSTEM.norm>
0

>  <SCORE.heavy>
18

>  <SCORE.norm>
-1.31817

>  <RMSD>
7.539

$$$$
lig.pdb
 OpenBabel11021811503D
libRbt.so/2013.1/901 2013/11/27
 18 19  0  0  0  0  0  0  0  0999 V2000
   -5.5356    9.9434    4.5513 C   0  0  0  0  0  0  0  0  0  0  0  0
   -6.6427   12.9222    0.8862 N   0  0  0  0  0  0  0  0  0  0  0  0
  -10.0902   15.8346    2.0451 C   0  0  0  0  0  0  0  0  0  0  0  0
  -15.0672   15.3665    3.7475 O   0  0  0  0  0  0  0  0  0  0  0  0
  -14.3360   16.2915    2.9545 C   0  0  0  0  0  0  0  0  0  0  0  0
  -12.8588   16.3182    3.3927 C   0  0  0  0  0  0  0  0  0  0  0  0
  -11.6285   12.4547    2.5159 C   0  0  0  0  0  0  0  0  0  0  0  0
  -12.9259   13.3703    3.2106 S   0  0  0  0  0  0  0  0  0  0  0  0
  -12.2357   14.9956    3.0042 C   0  0  0  0  0  0  0  0  0  0  0  0
  -11.0331   14.7006    2.4111 C   0  0  0  0  0  0  0  0  0  0  0  0
  -10.7460   13.3843    2.1728 N   0  0  0  0  0  0  0  0  0  0  0  0
   -9.4597   12.9695    1.5083 C   0  0  0  0  0  0  0  0  0  0  0  0
   -7.0759   12.1646    1.9742 C   0  0  0  0  0  0  0  0  0  0  0  0
   -6.1706   11.4453    2.7055 N   0  0  0  0  0  0  0  0  0  0  0  0
   -6.5601   10.7139    3.7530 C   0  0  0  0  0  0  0  0  0  0  0  0
   -7.8472   10.6661    4.1087 N   0  0  0  0  0  0  0  0  0  0  0  0
   -8.8019   11.3562    3.4324 C   0  0  0  0  0  0  0  0  0  0  0  0
   -8.4552   12.1454    2.3300 C   0  0  0  0  0  0  0  0  0  0  0  0
  5  4  1  0  0  0  0
  5  6  1  0  0  0  0
  7  8  2  0  0  0  0
  7 11  1  0  0  0  0
  8  9  1  0  0  0  0
  9 10  2  0  0  0  0
  9  6  1  0  0  0  0
 10  3  1  0  0  0  0
 11 12  1  0  0  0  0
 11 10  1  0  0  0  0
 12 18  1  0  0  0  0
 13  2  1  0  0  0  0
 13 14  2  0  0  0  0
 15 14  1  0  0  0  0
 15  1  1  0  0  0  0
 16 15  2  0  0  0  0
 17 18  2  0  0  0  0
 17 16  1  0  0  0  0
 18 13  1  0  0  0  0
M  END
>  <CHROM.1>
69.01013859,-44.09738509,-66.33325091,-156.03509754,-10.12183342,13.21594761
2.85825067,0.43743897,-0.32599161,2.54392588

>  <Name>
lig.pdb

>  <RI>
0

>  <Rbt.Current_Directory>
/home/itssahil/PROJECTS/Mol_Feturizer/New_Systems/rnas/4nyg

>  <Rbt.Executable>
rbdock ($Id: //depot/dev/client3/rdock/2013.1/src/exe/rbdock.cxx#4 $)

>  <Rbt.Library>
libRbt.so (2013.1, Build901 2013/11/27)

>  <Rbt.Parameter_File>
/export/apps/rDock/src/rDock_2013.1_src/data/scripts/dock_solv.prm

>  <Rbt.Receptor>
prm/pocket_docking_5.prm

>  <SCORE>
-23.8259

>  <SCORE.INTER>
-24.3083

>  <SCORE.INTER.CONST>
1

>  <SCORE.INTER.POLAR>
0

>  <SCORE.INTER.ROT>
4

>  <SCORE.INTER.SOLV>
11.8956

>  <SCORE.INTER.VDW>
-26.4374

>  <SCORE.INTER.norm>
-1.35046

>  <SCORE.INTRA>
0.482413

>  <SCORE.INTRA.DIHEDRAL>
0.632231

>  <SCORE.INTRA.DIHEDRAL.0>
3.20029

>  <SCORE.INTRA.POLAR>
0

>  <SCORE.INTRA.POLAR.0>
0

>  <SCORE.INTRA.REPUL>
0

>  <SCORE.INTRA.REPUL.0>
0

>  <SCORE.INTRA.SOLV>
0.4075

>  <SCORE.INTRA.SOLV.lig_0>
-19.3885

>  <SCORE.INTRA.VDW>
-0.0374529

>  <SCORE.INTRA.VDW.0>
-1.12705

>  <SCORE.INTRA.norm>
0.0268007

>  <SCORE.RESTR>
0

>  <SCORE.RESTR.CAVITY>
0

>  <SCORE.RESTR.norm>
0

>  <SCORE.SYSTEM>
0

>  <SCORE.SYSTEM.CONST>
0

>  <SCORE.SYSTEM.DIHEDRAL>
0

>  <SCORE.SYSTEM.SOLV>
0

>  <SCORE.SYSTEM.norm>
0

>  <SCORE.heavy>
18

>  <SCORE.norm>
-1.32366

>  <RMSD>
7.543

$$$$
lig.pdb
 OpenBabel11021811503D
libRbt.so/2013.1/901 2013/11/27
 18 19  0  0  0  0  0  0  0  0999 V2000
   -5.7919   10.8048    6.1461 C   0  0  0  0  0  0  0  0  0  0  0  0
   -7.0425   14.5376    3.3116 N   0  0  0  0  0  0  0  0  0  0  0  0
  -10.1949   15.8802    2.1667 C   0  0  0  0  0  0  0  0  0  0  0  0
  -14.8341   17.1272    4.3426 O   0  0  0  0  0  0  0  0  0  0  0  0
  -14.1489   15.9148    4.0608 C   0  0  0  0  0  0  0  0  0  0  0  0
  -13.2318   16.0935    2.8353 C   0  0  0  0  0  0  0  0  0  0  0  0
  -11.4338   12.3672    2.5345 C   0  0  0  0  0  0  0  0  0  0  0  0
  -12.9440   13.1534    2.8589 S   0  0  0  0  0  0  0  0  0  0  0  0
  -12.4007   14.8378    2.6906 C   0  0  0  0  0  0  0  0  0  0  0  0
  -11.0709   14.6606    2.3990 C   0  0  0  0  0  0  0  0  0  0  0  0
  -10.5999   13.3780    2.3263 N   0  0  0  0  0  0  0  0  0  0  0  0
   -9.1602   13.0886    1.9922 C   0  0  0  0  0  0  0  0  0  0  0  0
   -7.2532   13.2129    3.6938 C   0  0  0  0  0  0  0  0  0  0  0  0
   -6.4736   12.6545    4.6697 N   0  0  0  0  0  0  0  0  0  0  0  0
   -6.6571   11.3889    5.0548 C   0  0  0  0  0  0  0  0  0  0  0  0
   -7.6070   10.6370    4.4913 N   0  0  0  0  0  0  0  0  0  0  0  0
   -8.4212   11.1239    3.5190 C   0  0  0  0  0  0  0  0  0  0  0  0
   -8.2822   12.4444    3.0774 C   0  0  0  0  0  0  0  0  0  0  0  0
  5  4  1  0  0  0  0
  5  6  1  0  0  0  0
  7  8  2  0  0  0  0
  7 11  1  0  0  0  0
  8  9  1  0  0  0  0
  9 10  2  0  0  0  0
  9  6  1  0  0  0  0
 10  3  1  0  0  0  0
 11 12  1  0  0  0  0
 11 10  1  0  0  0  0
 12 18  1  0  0  0  0
 13  2  1  0  0  0  0
 13 14  2  0  0  0  0
 15 14  1  0  0  0  0
 15  1  1  0  0  0  0
 16 15  2  0  0  0  0
 17 18  2  0  0  0  0
 17 16  1  0  0  0  0
 18 13  1  0  0  0  0
M  END
>  <CHROM.1>
172.84757123,42.76468428,-66.98960539,-109.75305266,-10.12670575,13.53961357
3.43103598,0.51969658,0.15045562,3.06787678

>  <Name>
lig.pdb

>  <RI>
0

>  <Rbt.Current_Directory>
/home/itssahil/PROJECTS/Mol_Feturizer/New_Systems/rnas/4nyg

>  <Rbt.Executable>
rbdock ($Id: //depot/dev/client3/rdock/2013.1/src/exe/rbdock.cxx#4 $)

>  <Rbt.Library>
libRbt.so (2013.1, Build901 2013/11/27)

>  <Rbt.Parameter_File>
/export/apps/rDock/src/rDock_2013.1_src/data/scripts/dock_solv.prm

>  <Rbt.Receptor>
prm/pocket_docking_8.prm

>  <SCORE>
-23.1415

>  <SCORE.INTER>
-23.3446

>  <SCORE.INTER.CONST>
1

>  <SCORE.INTER.POLAR>
0

>  <SCORE.INTER.ROT>
4

>  <SCORE.INTER.SOLV>
12.0789

>  <SCORE.INTER.VDW>
-25.8561

>  <SCORE.INTER.norm>
-1.29692

>  <SCORE.INTRA>
0.202652

>  <SCORE.INTRA.DIHEDRAL>
0.611026

>  <SCORE.INTRA.DIHEDRAL.0>
3.20029

>  <SCORE.INTRA.POLAR>
0

>  <SCORE.INTRA.POLAR.0>
0

>  <SCORE.INTRA.REPUL>
0

>  <SCORE.INTRA.REPUL.0>
0

>  <SCORE.INTRA.SOLV>
0.40243

>  <SCORE.INTRA.SOLV.lig_0>
-19.3885

>  <SCORE.INTRA.VDW>
-0.304076

>  <SCORE.INTRA.VDW.0>
-1.12705

>  <SCORE.INTRA.norm>
0.0112584

>  <SCORE.RESTR>
0.000460228

>  <SCORE.RESTR.CAVITY>
0.000460228

>  <SCORE.RESTR.norm>
2.55682e-05

>  <SCORE.SYSTEM>
0

>  <SCORE.SYSTEM.CONST>
0

>  <SCORE.SYSTEM.DIHEDRAL>
0

>  <SCORE.SYSTEM.SOLV>
0

>  <SCORE.SYSTEM.norm>
0

>  <SCORE.heavy>
18

>  <SCORE.norm>
-1.28564

>  <RMSD>
7.544

$$$$
lig.pdb
 OpenBabel11021811503D
libRbt.so/2013.1/901 2013/11/27
 18 19  0  0  0  0  0  0  0  0999 V2000
   -7.8400   19.2276   -0.7083 C   0  0  0  0  0  0  0  0  0  0  0  0
   -7.8020   17.2266    3.7107 N   0  0  0  0  0  0  0  0  0  0  0  0
  -11.4745   16.3801    3.0074 C   0  0  0  0  0  0  0  0  0  0  0  0
  -15.5860   16.0852    4.2462 O   0  0  0  0  0  0  0  0  0  0  0  0
  -14.2686   15.5607    4.1551 C   0  0  0  0  0  0  0  0  0  0  0  0
  -14.1142   14.7285    2.8673 C   0  0  0  0  0  0  0  0  0  0  0  0
  -10.4488   12.7966    2.6636 C   0  0  0  0  0  0  0  0  0  0  0  0
  -12.1602   12.5227    2.6576 S   0  0  0  0  0  0  0  0  0  0  0  0
  -12.6935   14.2111    2.8167 C   0  0  0  0  0  0  0  0  0  0  0  0
  -11.4885   14.8668    2.8703 C   0  0  0  0  0  0  0  0  0  0  0  0
  -10.3491   14.1136    2.7907 N   0  0  0  0  0  0  0  0  0  0  0  0
   -8.9843   14.7497    2.8209 C   0  0  0  0  0  0  0  0  0  0  0  0
   -8.1214   17.1136    2.3577 C   0  0  0  0  0  0  0  0  0  0  0  0
   -7.8604   18.1538    1.5082 N   0  0  0  0  0  0  0  0  0  0  0  0
   -8.1548   18.0693    0.2082 C   0  0  0  0  0  0  0  0  0  0  0  0
   -8.7154   16.9644   -0.2921 N   0  0  0  0  0  0  0  0  0  0  0  0
   -9.0003   15.8905    0.4895 C   0  0  0  0  0  0  0  0  0  0  0  0
   -8.7095   15.9162    1.8580 C   0  0  0  0  0  0  0  0  0  0  0  0
  5  4  1  0  0  0  0
  5  6  1  0  0  0  0
  7  8  2  0  0  0  0
  7 11  1  0  0  0  0
  8  9  1  0  0  0  0
  9 10  2  0  0  0  0
  9  6  1  0  0  0  0
 10  3  1  0  0  0  0
 11 12  1  0  0  0  0
 11 10  1  0  0  0  0
 12 18  1  0  0  0  0
 13  2  1  0  0  0  0
 13 14  2  0  0  0  0
 15 14  1  0  0  0  0
 15  1  1  0  0  0  0
 16 15  2  0  0  0  0
 17 18  2  0  0  0  0
 17 16  1  0  0  0  0
 18 13  1  0  0  0  0
M  END
>  <CHROM.1>
179.36464936,124.81390826,128.25821748,131.07845040,-10.61232852,15.60361913
2.27334633,0.57198066,0.35918005,-0.13695615

>  <Name>
lig.pdb

>  <RI>
0

>  <Rbt.Current_Directory>
/home/itssahil/PROJECTS/Mol_Feturizer/New_Systems/rnas/4nyg

>  <Rbt.Executable>
rbdock ($Id: //depot/dev/client3/rdock/2013.1/src/exe/rbdock.cxx#4 $)

>  <Rbt.Library>
libRbt.so (2013.1, Build901 2013/11/27)

>  <Rbt.Parameter_File>
/export/apps/rDock/src/rDock_2013.1_src/data/scripts/dock_solv.prm

>  <Rbt.Receptor>
prm/blind_docking_80.prm

>  <SCORE>
-20.9739

>  <SCORE.INTER>
-23.1343

>  <SCORE.INTER.CONST>
1

>  <SCORE.INTER.POLAR>
0

>  <SCORE.INTER.ROT>
4

>  <SCORE.INTER.SOLV>
15.0234

>  <SCORE.INTER.VDW>
-26.6974

>  <SCORE.INTER.norm>
-1.28524

>  <SCORE.INTRA>
2.16041

>  <SCORE.INTRA.DIHEDRAL>
2.54496

>  <SCORE.INTRA.DIHEDRAL.0>
3.20029

>  <SCORE.INTRA.POLAR>
0

>  <SCORE.INTRA.POLAR.0>
0

>  <SCORE.INTRA.REPUL>
0

>  <SCORE.INTRA.REPUL.0>
0

>  <SCORE.INTRA.SOLV>
0.462047

>  <SCORE.INTRA.SOLV.lig_0>
-19.3885

>  <SCORE.INTRA.VDW>
0.6569

>  <SCORE.INTRA.VDW.0>
-1.12705

>  <SCORE.INTRA.norm>
0.120023

>  <SCORE.RESTR>
0

>  <SCORE.RESTR.CAVITY>
0

>  <SCORE.RESTR.norm>
0

>  <SCORE.SYSTEM>
0

>  <SCORE.SYSTEM.CONST>
0

>  <SCORE.SYSTEM.DIHEDRAL>
0

>  <SCORE.SYSTEM.SOLV>
0

>  <SCORE.SYSTEM.norm>
0

>  <SCORE.heavy>
18

>  <SCORE.norm>
-1.16522

>  <RMSD>
7.548

$$$$
lig.pdb
 OpenBabel11021811503D
libRbt.so/2013.1/901 2013/11/27
 18 19  0  0  0  0  0  0  0  0999 V2000
   -5.9754    9.2533    4.3011 C   0  0  0  0  0  0  0  0  0  0  0  0
   -7.5870   13.7695    3.5668 N   0  0  0  0  0  0  0  0  0  0  0  0
  -10.1291   15.8708    1.8531 C   0  0  0  0  0  0  0  0  0  0  0  0
  -14.9909   15.4063    3.7787 O   0  0  0  0  0  0  0  0  0  0  0  0
  -14.3055   16.3269    2.9409 C   0  0  0  0  0  0  0  0  0  0  0  0
  -12.8181   16.4025    3.3369 C   0  0  0  0  0  0  0  0  0  0  0  0
  -11.5391   12.5081    2.6994 C   0  0  0  0  0  0  0  0  0  0  0  0
  -12.8144   13.4490    3.4012 S   0  0  0  0  0  0  0  0  0  0  0  0
  -12.1845   15.0665    3.0174 C   0  0  0  0  0  0  0  0  0  0  0  0
  -11.0146   14.7503    2.3722 C   0  0  0  0  0  0  0  0  0  0  0  0
  -10.7067   13.4255    2.2238 N   0  0  0  0  0  0  0  0  0  0  0  0
   -9.4546   12.9858    1.5118 C   0  0  0  0  0  0  0  0  0  0  0  0
   -7.6414   12.4182    3.2257 C   0  0  0  0  0  0  0  0  0  0  0  0
   -6.8329   11.5214    3.8692 N   0  0  0  0  0  0  0  0  0  0  0  0
   -6.8679   10.2220    3.5623 C   0  0  0  0  0  0  0  0  0  0  0  0
   -7.6937    9.7686    2.6148 N   0  0  0  0  0  0  0  0  0  0  0  0
   -8.5276   10.5988    1.9360 C   0  0  0  0  0  0  0  0  0  0  0  0
   -8.5416   11.9696    2.2169 C   0  0  0  0  0  0  0  0  0  0  0  0
  5  4  1  0  0  0  0
  5  6  1  0  0  0  0
  7  8  2  0  0  0  0
  7 11  1  0  0  0  0
  8  9  1  0  0  0  0
  9 10  2  0  0  0  0
  9  6  1  0  0  0  0
 10  3  1  0  0  0  0
 11 12  1  0  0  0  0
 11 10  1  0  0  0  0
 12 18  1  0  0  0  0
 13  2  1  0  0  0  0
 13 14  2  0  0  0  0
 15 14  1  0  0  0  0
 15  1  1  0  0  0  0
 16 15  2  0  0  0  0
 17 18  2  0  0  0  0
 17 16  1  0  0  0  0
 18 13  1  0  0  0  0
M  END
>  <CHROM.1>
66.80966583,-46.63998312,-51.55081739,-80.07383927,-10.22509104,13.15298935
2.95987666,0.63673079,-0.10750982,2.96576127

>  <Name>
lig.pdb

>  <RI>
0

>  <Rbt.Current_Directory>
/home/itssahil/PROJECTS/Mol_Feturizer/New_Systems/rnas/4nyg

>  <Rbt.Executable>
rbdock ($Id: //depot/dev/client3/rdock/2013.1/src/exe/rbdock.cxx#4 $)

>  <Rbt.Library>
libRbt.so (2013.1, Build901 2013/11/27)

>  <Rbt.Parameter_File>
/export/apps/rDock/src/rDock_2013.1_src/data/scripts/dock_solv.prm

>  <Rbt.Receptor>
prm/pocket_docking_6.prm

>  <SCORE>
-25.1988

>  <SCORE.INTER>
-25.6032

>  <SCORE.INTER.CONST>
1

>  <SCORE.INTER.POLAR>
0

>  <SCORE.INTER.ROT>
4

>  <SCORE.INTER.SOLV>
11.9791

>  <SCORE.INTER.VDW>
-27.3285

>  <SCORE.INTER.norm>
-1.4224

>  <SCORE.INTRA>
0.404396

>  <SCORE.INTRA.DIHEDRAL>
0.432131

>  <SCORE.INTRA.DIHEDRAL.0>
3.20029

>  <SCORE.INTRA.POLAR>
0

>  <SCORE.INTRA.POLAR.0>
0

>  <SCORE.INTRA.REPUL>
0

>  <SCORE.INTRA.REPUL.0>
0

>  <SCORE.INTRA.SOLV>
1.09564

>  <SCORE.INTRA.SOLV.lig_0>
-19.3885

>  <SCORE.INTRA.VDW>
-0.359492

>  <SCORE.INTRA.VDW.0>
-1.12705

>  <SCORE.INTRA.norm>
0.0224664

>  <SCORE.RESTR>
0

>  <SCORE.RESTR.CAVITY>
0

>  <SCORE.RESTR.norm>
0

>  <SCORE.SYSTEM>
0

>  <SCORE.SYSTEM.CONST>
0

>  <SCORE.SYSTEM.DIHEDRAL>
0

>  <SCORE.SYSTEM.SOLV>
0

>  <SCORE.SYSTEM.norm>
0

>  <SCORE.heavy>
18

>  <SCORE.norm>
-1.39993

>  <RMSD>
7.548

$$$$
lig.pdb
 OpenBabel11021811503D
libRbt.so/2013.1/901 2013/11/27
 18 19  0  0  0  0  0  0  0  0999 V2000
   -5.9204   11.2734    5.8947 C   0  0  0  0  0  0  0  0  0  0  0  0
   -7.4805   14.6742    2.8071 N   0  0  0  0  0  0  0  0  0  0  0  0
  -10.3002   15.9839    1.9095 C   0  0  0  0  0  0  0  0  0  0  0  0
  -15.2286   15.7625    3.8423 O   0  0  0  0  0  0  0  0  0  0  0  0
  -14.1232   16.6198    4.0914 C   0  0  0  0  0  0  0  0  0  0  0  0
  -13.1898   16.6556    2.8657 C   0  0  0  0  0  0  0  0  0  0  0  0
  -11.9458   12.7042    2.6491 C   0  0  0  0  0  0  0  0  0  0  0  0
  -13.2935   13.7102    3.0683 S   0  0  0  0  0  0  0  0  0  0  0  0
  -12.5536   15.2903    2.7269 C   0  0  0  0  0  0  0  0  0  0  0  0
  -11.2992   14.9133    2.3152 C   0  0  0  0  0  0  0  0  0  0  0  0
  -11.0133   13.5756    2.2863 N   0  0  0  0  0  0  0  0  0  0  0  0
   -9.6703   13.0700    1.8293 C   0  0  0  0  0  0  0  0  0  0  0  0
   -7.6310   13.3943    3.3404 C   0  0  0  0  0  0  0  0  0  0  0  0
   -6.7613   12.9503    4.2988 N   0  0  0  0  0  0  0  0  0  0  0  0
   -6.8856   11.7298    4.8266 C   0  0  0  0  0  0  0  0  0  0  0  0
   -7.8634   10.9118    4.4265 N   0  0  0  0  0  0  0  0  0  0  0  0
   -8.7658   11.2846    3.4821 C   0  0  0  0  0  0  0  0  0  0  0  0
   -8.6916   12.5533    2.8965 C   0  0  0  0  0  0  0  0  0  0  0  0
  5  4  1  0  0  0  0
  5  6  1  0  0  0  0
  7  8  2  0  0  0  0
  7 11  1  0  0  0  0
  8  9  1  0  0  0  0
  9 10  2  0  0  0  0
  9  6  1  0  0  0  0
 10  3  1  0  0  0  0
 11 12  1  0  0  0  0
 11 10  1  0  0  0  0
 12 18  1  0  0  0  0
 13  2  1  0  0  0  0
 13 14  2  0  0  0  0
 15 14  1  0  0  0  0
 15  1  1  0  0  0  0
 16 15  2  0  0  0  0
 17 18  2  0  0  0  0
 17 16  1  0  0  0  0
 18 13  1  0  0  0  0
M  END
>  <CHROM.1>
-67.65671600,35.74043898,-75.48252238,-100.50162770,-10.41151128,13.75817521
3.30594904,0.50511429,-0.02970905,2.76674829

>  <Name>
lig.pdb

>  <RI>
0

>  <Rbt.Current_Directory>
/home/itssahil/PROJECTS/Mol_Feturizer/New_Systems/rnas/4nyg

>  <Rbt.Executable>
rbdock ($Id: //depot/dev/client3/rdock/2013.1/src/exe/rbdock.cxx#4 $)

>  <Rbt.Library>
libRbt.so (2013.1, Build901 2013/11/27)

>  <Rbt.Parameter_File>
/export/apps/rDock/src/rDock_2013.1_src/data/scripts/dock_solv.prm

>  <Rbt.Receptor>
prm/pocket_docking_5.prm

>  <SCORE>
-23.8292

>  <SCORE.INTER>
-24.6834

>  <SCORE.INTER.CONST>
1

>  <SCORE.INTER.POLAR>
0

>  <SCORE.INTER.ROT>
4

>  <SCORE.INTER.SOLV>
12.0942

>  <SCORE.INTER.VDW>
-26.7536

>  <SCORE.INTER.norm>
-1.3713

>  <SCORE.INTRA>
0.854144

>  <SCORE.INTRA.DIHEDRAL>
1.05201

>  <SCORE.INTRA.DIHEDRAL.0>
3.20029

>  <SCORE.INTRA.POLAR>
0

>  <SCORE.INTRA.POLAR.0>
0

>  <SCORE.INTRA.REPUL>
0

>  <SCORE.INTRA.REPUL.0>
0

>  <SCORE.INTRA.SOLV>
1.02629

>  <SCORE.INTRA.SOLV.lig_0>
-19.3885

>  <SCORE.INTRA.VDW>
-0.185002

>  <SCORE.INTRA.VDW.0>
-1.12705

>  <SCORE.INTRA.norm>
0.0474524

>  <SCORE.RESTR>
0

>  <SCORE.RESTR.CAVITY>
0

>  <SCORE.RESTR.norm>
0

>  <SCORE.SYSTEM>
0

>  <SCORE.SYSTEM.CONST>
0

>  <SCORE.SYSTEM.DIHEDRAL>
0

>  <SCORE.SYSTEM.SOLV>
0

>  <SCORE.SYSTEM.norm>
0

>  <SCORE.heavy>
18

>  <SCORE.norm>
-1.32385

>  <RMSD>
7.550

$$$$
lig.pdb
 OpenBabel11021811503D
libRbt.so/2013.1/901 2013/11/27
 18 19  0  0  0  0  0  0  0  0999 V2000
   -5.8989    9.9043    4.7920 C   0  0  0  0  0  0  0  0  0  0  0  0
   -7.7681   14.1642    3.4167 N   0  0  0  0  0  0  0  0  0  0  0  0
  -10.1761   15.8901    1.9152 C   0  0  0  0  0  0  0  0  0  0  0  0
  -15.1052   15.7026    3.7925 O   0  0  0  0  0  0  0  0  0  0  0  0
  -14.3612   16.5427    2.9210 C   0  0  0  0  0  0  0  0  0  0  0  0
  -12.8749   16.5500    3.3281 C   0  0  0  0  0  0  0  0  0  0  0  0
  -11.7793   12.5991    2.6967 C   0  0  0  0  0  0  0  0  0  0  0  0
  -13.0239   13.5999    3.3701 S   0  0  0  0  0  0  0  0  0  0  0  0
  -12.3017   15.1853    3.0161 C   0  0  0  0  0  0  0  0  0  0  0  0
  -11.1319   14.8134    2.4011 C   0  0  0  0  0  0  0  0  0  0  0  0
  -10.8881   13.4755    2.2512 N   0  0  0  0  0  0  0  0  0  0  0  0
   -9.6407   12.9765    1.5708 C   0  0  0  0  0  0  0  0  0  0  0  0
   -7.7582   12.7751    3.2921 C   0  0  0  0  0  0  0  0  0  0  0  0
   -6.8872   12.0314    4.0405 N   0  0  0  0  0  0  0  0  0  0  0  0
   -6.8599   10.6998    3.9409 C   0  0  0  0  0  0  0  0  0  0  0  0
   -7.6832   10.0631    3.1030 N   0  0  0  0  0  0  0  0  0  0  0  0
   -8.5767   10.7343    2.3309 C   0  0  0  0  0  0  0  0  0  0  0  0
   -8.6575   12.1298    2.3953 C   0  0  0  0  0  0  0  0  0  0  0  0
  5  4  1  0  0  0  0
  5  6  1  0  0  0  0
  7  8  2  0  0  0  0
  7 11  1  0  0  0  0
  8  9  1  0  0  0  0
  9 10  2  0  0  0  0
  9  6  1  0  0  0  0
 10  3  1  0  0  0  0
 11 12  1  0  0  0  0
 11 10  1  0  0  0  0
 12 18  1  0  0  0  0
 13  2  1  0  0  0  0
 13 14  2  0  0  0  0
 15 14  1  0  0  0  0
 15  1  1  0  0  0  0
 16 15  2  0  0  0  0
 17 18  2  0  0  0  0
 17 16  1  0  0  0  0
 18 13  1  0  0  0  0
M  END
>  <CHROM.1>
69.37611986,-45.33826607,-63.45105699,-79.29451552,-10.32902017,13.37866059
3.06814529,0.60815052,-0.04625363,2.97164885

>  <Name>
lig.pdb

>  <RI>
0

>  <Rbt.Current_Directory>
/home/itssahil/PROJECTS/Mol_Feturizer/New_Systems/rnas/4nyg

>  <Rbt.Executable>
rbdock ($Id: //depot/dev/client3/rdock/2013.1/src/exe/rbdock.cxx#4 $)

>  <Rbt.Library>
libRbt.so (2013.1, Build901 2013/11/27)

>  <Rbt.Parameter_File>
/export/apps/rDock/src/rDock_2013.1_src/data/scripts/dock_solv.prm

>  <Rbt.Receptor>
prm/pocket_docking_5.prm

>  <SCORE>
-24.6854

>  <SCORE.INTER>
-25.0988

>  <SCORE.INTER.CONST>
1

>  <SCORE.INTER.POLAR>
0

>  <SCORE.INTER.ROT>
4

>  <SCORE.INTER.SOLV>
11.6097

>  <SCORE.INTER.VDW>
-26.8691

>  <SCORE.INTER.norm>
-1.39438

>  <SCORE.INTRA>
0.413348

>  <SCORE.INTRA.DIHEDRAL>
0.605622

>  <SCORE.INTRA.DIHEDRAL.0>
3.20029

>  <SCORE.INTRA.POLAR>
0

>  <SCORE.INTRA.POLAR.0>
0

>  <SCORE.INTRA.REPUL>
0

>  <SCORE.INTRA.REPUL.0>
0

>  <SCORE.INTRA.SOLV>
1.19235

>  <SCORE.INTRA.SOLV.lig_0>
-19.3885

>  <SCORE.INTRA.VDW>
-0.485639

>  <SCORE.INTRA.VDW.0>
-1.12705

>  <SCORE.INTRA.norm>
0.0229638

>  <SCORE.RESTR>
0

>  <SCORE.RESTR.CAVITY>
0

>  <SCORE.RESTR.norm>
0

>  <SCORE.SYSTEM>
0

>  <SCORE.SYSTEM.CONST>
0

>  <SCORE.SYSTEM.DIHEDRAL>
0

>  <SCORE.SYSTEM.SOLV>
0

>  <SCORE.SYSTEM.norm>
0

>  <SCORE.heavy>
18

>  <SCORE.norm>
-1.37141

>  <RMSD>
7.551

$$$$
lig.pdb
 OpenBabel11021811503D
libRbt.so/2013.1/901 2013/11/27
 18 19  0  0  0  0  0  0  0  0999 V2000
   -5.8611    9.9100    4.7539 C   0  0  0  0  0  0  0  0  0  0  0  0
   -7.7625   14.1685    3.4189 N   0  0  0  0  0  0  0  0  0  0  0  0
  -10.1812   15.8945    1.9136 C   0  0  0  0  0  0  0  0  0  0  0  0
  -15.1038   15.6958    3.8060 O   0  0  0  0  0  0  0  0  0  0  0  0
  -14.3554   16.5323    2.9347 C   0  0  0  0  0  0  0  0  0  0  0  0
  -12.8711   16.5414    3.3493 C   0  0  0  0  0  0  0  0  0  0  0  0
  -11.7590   12.5958    2.7138 C   0  0  0  0  0  0  0  0  0  0  0  0
  -13.0033   13.5905    3.3968 S   0  0  0  0  0  0  0  0  0  0  0  0
  -12.2930   15.1794    3.0342 C   0  0  0  0  0  0  0  0  0  0  0  0
  -11.1267   14.8132    2.4094 C   0  0  0  0  0  0  0  0  0  0  0  0
  -10.8767   13.4764    2.2593 N   0  0  0  0  0  0  0  0  0  0  0  0
   -9.6325   12.9835    1.5686 C   0  0  0  0  0  0  0  0  0  0  0  0
   -7.7438   12.7805    3.2829 C   0  0  0  0  0  0  0  0  0  0  0  0
   -6.8657   12.0365    4.0227 N   0  0  0  0  0  0  0  0  0  0  0  0
   -6.8299   10.7060    3.9122 C   0  0  0  0  0  0  0  0  0  0  0  0
   -7.6513   10.0707    3.0714 N   0  0  0  0  0  0  0  0  0  0  0  0
   -8.5516   10.7422    2.3073 C   0  0  0  0  0  0  0  0  0  0  0  0
   -8.6413   12.1366    2.3834 C   0  0  0  0  0  0  0  0  0  0  0  0
  5  4  1  0  0  0  0
  5  6  1  0  0  0  0
  7  8  2  0  0  0  0
  7 11  1  0  0  0  0
  8  9  1  0  0  0  0
  9 10  2  0  0  0  0
  9  6  1  0  0  0  0
 10  3  1  0  0  0  0
 11 12  1  0  0  0  0
 11 10  1  0  0  0  0
 12 18  1  0  0  0  0
 13  2  1  0  0  0  0
 13 14  2  0  0  0  0
 15 14  1  0  0  0  0
 15  1  1  0  0  0  0
 16 15  2  0  0  0  0
 17 18  2  0  0  0  0
 17 16  1  0  0  0  0
 18 13  1  0  0  0  0
M  END
>  <CHROM.1>
69.88912966,-46.21481033,-63.10300863,-78.88680776,-10.31416620,13.37879632
3.06822209,0.60475549,-0.05154815,2.97284910

>  <Name>
lig.pdb

>  <RI>
0

>  <Rbt.Current_Directory>
/home/itssahil/PROJECTS/Mol_Feturizer/New_Systems/rnas/4nyg

>  <Rbt.Executable>
rbdock ($Id: //depot/dev/client3/rdock/2013.1/src/exe/rbdock.cxx#4 $)

>  <Rbt.Library>
libRbt.so (2013.1, Build901 2013/11/27)

>  <Rbt.Parameter_File>
/export/apps/rDock/src/rDock_2013.1_src/data/scripts/dock_solv.prm

>  <Rbt.Receptor>
prm/pocket_docking_5.prm

>  <SCORE>
-24.6215

>  <SCORE.INTER>
-25.0006

>  <SCORE.INTER.CONST>
1

>  <SCORE.INTER.POLAR>
0

>  <SCORE.INTER.ROT>
4

>  <SCORE.INTER.SOLV>
11.5476

>  <SCORE.INTER.VDW>
-26.7829

>  <SCORE.INTER.norm>
-1.38892

>  <SCORE.INTRA>
0.379138

>  <SCORE.INTRA.DIHEDRAL>
0.601162

>  <SCORE.INTRA.DIHEDRAL.0>
3.20029

>  <SCORE.INTRA.POLAR>
0

>  <SCORE.INTRA.POLAR.0>
0

>  <SCORE.INTRA.REPUL>
0

>  <SCORE.INTRA.REPUL.0>
0

>  <SCORE.INTRA.SOLV>
1.19161

>  <SCORE.INTRA.SOLV.lig_0>
-19.3885

>  <SCORE.INTRA.VDW>
-0.517246

>  <SCORE.INTRA.VDW.0>
-1.12705

>  <SCORE.INTRA.norm>
0.0210632

>  <SCORE.RESTR>
0

>  <SCORE.RESTR.CAVITY>
0

>  <SCORE.RESTR.norm>
0

>  <SCORE.SYSTEM>
0

>  <SCORE.SYSTEM.CONST>
0

>  <SCORE.SYSTEM.DIHEDRAL>
0

>  <SCORE.SYSTEM.SOLV>
0

>  <SCORE.SYSTEM.norm>
0

>  <SCORE.heavy>
18

>  <SCORE.norm>
-1.36786

>  <RMSD>
7.551

$$$$
lig.pdb
 OpenBabel11021811503D
libRbt.so/2013.1/901 2013/11/27
 18 19  0  0  0  0  0  0  0  0999 V2000
   -6.5172    8.8676    3.1921 C   0  0  0  0  0  0  0  0  0  0  0  0
   -7.7313   13.5608    3.3704 N   0  0  0  0  0  0  0  0  0  0  0  0
  -10.4253   16.1449    2.0404 C   0  0  0  0  0  0  0  0  0  0  0  0
  -14.7465   16.5359    1.9834 O   0  0  0  0  0  0  0  0  0  0  0  0
  -14.5410   16.4633    3.3875 C   0  0  0  0  0  0  0  0  0  0  0  0
  -13.0342   16.5019    3.7082 C   0  0  0  0  0  0  0  0  0  0  0  0
  -11.7992   12.7053    2.5817 C   0  0  0  0  0  0  0  0  0  0  0  0
  -13.0348   13.5593    3.4466 S   0  0  0  0  0  0  0  0  0  0  0  0
  -12.4210   15.2111    3.2118 C   0  0  0  0  0  0  0  0  0  0  0  0
  -11.2862   14.9714    2.4772 C   0  0  0  0  0  0  0  0  0  0  0  0
  -10.9896   13.6719    2.1684 N   0  0  0  0  0  0  0  0  0  0  0  0
   -9.7764   13.3172    1.3497 C   0  0  0  0  0  0  0  0  0  0  0  0
   -7.9326   12.3019    2.8047 C   0  0  0  0  0  0  0  0  0  0  0  0
   -7.1783   11.2399    3.2231 N   0  0  0  0  0  0  0  0  0  0  0  0
   -7.3535   10.0241    2.6986 C   0  0  0  0  0  0  0  0  0  0  0  0
   -8.2701    9.8186    1.7484 N   0  0  0  0  0  0  0  0  0  0  0  0
   -9.0579   10.8238    1.2856 C   0  0  0  0  0  0  0  0  0  0  0  0
   -8.9261   12.1183    1.8004 C   0  0  0  0  0  0  0  0  0  0  0  0
  5  4  1  0  0  0  0
  5  6  1  0  0  0  0
  7  8  2  0  0  0  0
  7 11  1  0  0  0  0
  8  9  1  0  0  0  0
  9 10  2  0  0  0  0
  9  6  1  0  0  0  0
 10  3  1  0  0  0  0
 11 12  1  0  0  0  0
 11 10  1  0  0  0  0
 12 18  1  0  0  0  0
 13  2  1  0  0  0  0
 13 14  2  0  0  0  0
 15 14  1  0  0  0  0
 15  1  1  0  0  0  0
 16 15  2  0  0  0  0
 17 18  2  0  0  0  0
 17 16  1  0  0  0  0
 18 13  1  0  0  0  0
M  END
>  <CHROM.1>
-68.44520696,-46.41152369,-44.20563076,-83.80921206,-10.51418846,13.27905773
2.64164501,0.72590767,-0.05209921,-3.13101430

>  <Name>
lig.pdb

>  <RI>
0

>  <Rbt.Current_Directory>
/home/itssahil/PROJECTS/Mol_Feturizer/New_Systems/rnas/4nyg

>  <Rbt.Executable>
rbdock ($Id: //depot/dev/client3/rdock/2013.1/src/exe/rbdock.cxx#4 $)

>  <Rbt.Library>
libRbt.so (2013.1, Build901 2013/11/27)

>  <Rbt.Parameter_File>
/export/apps/rDock/src/rDock_2013.1_src/data/scripts/dock_solv.prm

>  <Rbt.Receptor>
prm/blind_docking_100.prm

>  <SCORE>
-19.6315

>  <SCORE.INTER>
-20.2429

>  <SCORE.INTER.CONST>
1

>  <SCORE.INTER.POLAR>
0

>  <SCORE.INTER.ROT>
4

>  <SCORE.INTER.SOLV>
14.8364

>  <SCORE.INTER.VDW>
-24.7074

>  <SCORE.INTER.norm>
-1.12461

>  <SCORE.INTRA>
0.297632

>  <SCORE.INTRA.DIHEDRAL>
0.554161

>  <SCORE.INTRA.DIHEDRAL.0>
3.20029

>  <SCORE.INTRA.POLAR>
0

>  <SCORE.INTRA.POLAR.0>
0

>  <SCORE.INTRA.REPUL>
0

>  <SCORE.INTRA.REPUL.0>
0

>  <SCORE.INTRA.SOLV>
0.976381

>  <SCORE.INTRA.SOLV.lig_0>
-19.3885

>  <SCORE.INTRA.VDW>
-0.467639

>  <SCORE.INTRA.VDW.0>
-1.12705

>  <SCORE.INTRA.norm>
0.0165351

>  <SCORE.RESTR>
0.313835

>  <SCORE.RESTR.CAVITY>
0.313835

>  <SCORE.RESTR.norm>
0.0174353

>  <SCORE.SYSTEM>
0

>  <SCORE.SYSTEM.CONST>
0

>  <SCORE.SYSTEM.DIHEDRAL>
0

>  <SCORE.SYSTEM.SOLV>
0

>  <SCORE.SYSTEM.norm>
0

>  <SCORE.heavy>
18

>  <SCORE.norm>
-1.09064

>  <RMSD>
7.556

$$$$
lig.pdb
 OpenBabel11021811503D
libRbt.so/2013.1/901 2013/11/27
 18 19  0  0  0  0  0  0  0  0999 V2000
   -7.8441   19.2344   -0.7010 C   0  0  0  0  0  0  0  0  0  0  0  0
   -7.7930   17.2456    3.7233 N   0  0  0  0  0  0  0  0  0  0  0  0
  -11.5007   16.3904    3.0370 C   0  0  0  0  0  0  0  0  0  0  0  0
  -15.6070   16.0860    4.2462 O   0  0  0  0  0  0  0  0  0  0  0  0
  -14.2869   15.5679    4.1576 C   0  0  0  0  0  0  0  0  0  0  0  0
  -14.1303   14.7246    2.8773 C   0  0  0  0  0  0  0  0  0  0  0  0
  -10.4532   12.8152    2.6734 C   0  0  0  0  0  0  0  0  0  0  0  0
  -12.1629   12.5315    2.6598 S   0  0  0  0  0  0  0  0  0  0  0  0
  -12.7065   14.2157    2.8281 C   0  0  0  0  0  0  0  0  0  0  0  0
  -11.5055   14.8780    2.8900 C   0  0  0  0  0  0  0  0  0  0  0  0
  -10.3615   14.1319    2.8093 N   0  0  0  0  0  0  0  0  0  0  0  0
   -9.0005   14.7756    2.8483 C   0  0  0  0  0  0  0  0  0  0  0  0
   -8.1220   17.1313    2.3727 C   0  0  0  0  0  0  0  0  0  0  0  0
   -7.8585   18.1671    1.5186 N   0  0  0  0  0  0  0  0  0  0  0  0
   -8.1620   18.0812    0.2207 C   0  0  0  0  0  0  0  0  0  0  0  0
   -8.7345   16.9794   -0.2727 N   0  0  0  0  0  0  0  0  0  0  0  0
   -9.0228   15.9100    0.5137 C   0  0  0  0  0  0  0  0  0  0  0  0
   -8.7228   15.9372    1.8803 C   0  0  0  0  0  0  0  0  0  0  0  0
  5  4  1  0  0  0  0
  5  6  1  0  0  0  0
  7  8  2  0  0  0  0
  7 11  1  0  0  0  0
  8  9  1  0  0  0  0
  9 10  2  0  0  0  0
  9  6  1  0  0  0  0
 10  3  1  0  0  0  0
 11 12  1  0  0  0  0
 11 10  1  0  0  0  0
 12 18  1  0  0  0  0
 13  2  1  0  0  0  0
 13 14  2  0  0  0  0
 15 14  1  0  0  0  0
 15  1  1  0  0  0  0
 16 15  2  0  0  0  0
 17 18  2  0  0  0  0
 17 16  1  0  0  0  0
 18 13  1  0  0  0  0
M  END
>  <CHROM.1>
179.30371060,125.78354989,127.42445790,132.29330371,-10.62315735,15.61572441
2.28651502,0.57253673,0.35554265,-0.13843413

>  <Name>
lig.pdb

>  <RI>
0

>  <Rbt.Current_Directory>
/home/itssahil/PROJECTS/Mol_Feturizer/New_Systems/rnas/4nyg

>  <Rbt.Executable>
rbdock ($Id: //depot/dev/client3/rdock/2013.1/src/exe/rbdock.cxx#4 $)

>  <Rbt.Library>
libRbt.so (2013.1, Build901 2013/11/27)

>  <Rbt.Parameter_File>
/export/apps/rDock/src/rDock_2013.1_src/data/scripts/dock_solv.prm

>  <Rbt.Receptor>
prm/blind_docking_60.prm

>  <SCORE>
-20.9534

>  <SCORE.INTER>
-23.133

>  <SCORE.INTER.CONST>
1

>  <SCORE.INTER.POLAR>
0

>  <SCORE.INTER.ROT>
4

>  <SCORE.INTER.SOLV>
15.1181

>  <SCORE.INTER.VDW>
-26.7281

>  <SCORE.INTER.norm>
-1.28517

>  <SCORE.INTRA>
2.17961

>  <SCORE.INTRA.DIHEDRAL>
2.52978

>  <SCORE.INTRA.DIHEDRAL.0>
3.20029

>  <SCORE.INTRA.POLAR>
0

>  <SCORE.INTRA.POLAR.0>
0

>  <SCORE.INTRA.REPUL>
0

>  <SCORE.INTRA.REPUL.0>
0

>  <SCORE.INTRA.SOLV>
0.441972

>  <SCORE.INTRA.SOLV.lig_0>
-19.3885

>  <SCORE.INTRA.VDW>
0.693739

>  <SCORE.INTRA.VDW.0>
-1.12705

>  <SCORE.INTRA.norm>
0.12109

>  <SCORE.RESTR>
0

>  <SCORE.RESTR.CAVITY>
0

>  <SCORE.RESTR.norm>
0

>  <SCORE.SYSTEM>
0

>  <SCORE.SYSTEM.CONST>
0

>  <SCORE.SYSTEM.DIHEDRAL>
0

>  <SCORE.SYSTEM.SOLV>
0

>  <SCORE.SYSTEM.norm>
0

>  <SCORE.heavy>
18

>  <SCORE.norm>
-1.16408

>  <RMSD>
7.558

$$$$
lig.pdb
 OpenBabel11021811503D
libRbt.so/2013.1/901 2013/11/27
 18 19  0  0  0  0  0  0  0  0999 V2000
   -7.8477   19.2138   -0.7268 C   0  0  0  0  0  0  0  0  0  0  0  0
   -7.7535   17.2453    3.7058 N   0  0  0  0  0  0  0  0  0  0  0  0
  -11.5208   16.3933    3.0367 C   0  0  0  0  0  0  0  0  0  0  0  0
  -15.6182   16.1055    4.2126 O   0  0  0  0  0  0  0  0  0  0  0  0
  -14.3081   15.5586    4.1519 C   0  0  0  0  0  0  0  0  0  0  0  0
  -14.1419   14.7143    2.8735 C   0  0  0  0  0  0  0  0  0  0  0  0
  -10.4550   12.8218    2.6899 C   0  0  0  0  0  0  0  0  0  0  0  0
  -12.1633   12.5299    2.6712 S   0  0  0  0  0  0  0  0  0  0  0  0
  -12.7156   14.2121    2.8314 C   0  0  0  0  0  0  0  0  0  0  0  0
  -11.5179   14.8803    2.8952 C   0  0  0  0  0  0  0  0  0  0  0  0
  -10.3701   14.1394    2.8214 N   0  0  0  0  0  0  0  0  0  0  0  0
   -9.0123   14.7897    2.8630 C   0  0  0  0  0  0  0  0  0  0  0  0
   -8.1065   17.1296    2.3614 C   0  0  0  0  0  0  0  0  0  0  0  0
   -7.8415   18.1573    1.4980 N   0  0  0  0  0  0  0  0  0  0  0  0
   -8.1676   18.0699    0.2057 C   0  0  0  0  0  0  0  0  0  0  0  0
   -8.7647   16.9745   -0.2728 N   0  0  0  0  0  0  0  0  0  0  0  0
   -9.0561   15.9133    0.5236 C   0  0  0  0  0  0  0  0  0  0  0  0
   -8.7332   15.9424    1.8848 C   0  0  0  0  0  0  0  0  0  0  0  0
  5  4  1  0  0  0  0
  5  6  1  0  0  0  0
  7  8  2  0  0  0  0
  7 11  1  0  0  0  0
  8  9  1  0  0  0  0
  9 10  2  0  0  0  0
  9  6  1  0  0  0  0
 10  3  1  0  0  0  0
 11 12  1  0  0  0  0
 11 10  1  0  0  0  0
 12 18  1  0  0  0  0
 13  2  1  0  0  0  0
 13 14  2  0  0  0  0
 15 14  1  0  0  0  0
 15  1  1  0  0  0  0
 16 15  2  0  0  0  0
 17 18  2  0  0  0  0
 17 16  1  0  0  0  0
 18 13  1  0  0  0  0
M  END
>  <CHROM.1>
177.46506904,125.64611505,126.99283466,134.07068163,-10.62944208,15.61508592
2.28394728,0.57571418,0.34609286,-0.15360262

>  <Name>
lig.pdb

>  <RI>
0

>  <Rbt.Current_Directory>
/home/itssahil/PROJECTS/Mol_Feturizer/New_Systems/rnas/4nyg

>  <Rbt.Executable>
rbdock ($Id: //depot/dev/client3/rdock/2013.1/src/exe/rbdock.cxx#4 $)

>  <Rbt.Library>
libRbt.so (2013.1, Build901 2013/11/27)

>  <Rbt.Parameter_File>
/export/apps/rDock/src/rDock_2013.1_src/data/scripts/dock_solv.prm

>  <Rbt.Receptor>
prm/blind_docking_40.prm

>  <SCORE>
-20.929

>  <SCORE.INTER>
-23.0865

>  <SCORE.INTER.CONST>
1

>  <SCORE.INTER.POLAR>
0

>  <SCORE.INTER.ROT>
4

>  <SCORE.INTER.SOLV>
15.0867

>  <SCORE.INTER.VDW>
-26.6865

>  <SCORE.INTER.norm>
-1.28258

>  <SCORE.INTRA>
2.15743

>  <SCORE.INTRA.DIHEDRAL>
2.55641

>  <SCORE.INTRA.DIHEDRAL.0>
3.20029

>  <SCORE.INTRA.POLAR>
0

>  <SCORE.INTRA.POLAR.0>
0

>  <SCORE.INTRA.REPUL>
0

>  <SCORE.INTRA.REPUL.0>
0

>  <SCORE.INTRA.SOLV>
0.423315

>  <SCORE.INTRA.SOLV.lig_0>
-19.3885

>  <SCORE.INTRA.VDW>
0.667563

>  <SCORE.INTRA.VDW.0>
-1.12705

>  <SCORE.INTRA.norm>
0.119857

>  <SCORE.RESTR>
0

>  <SCORE.RESTR.CAVITY>
0

>  <SCORE.RESTR.norm>
0

>  <SCORE.SYSTEM>
0

>  <SCORE.SYSTEM.CONST>
0

>  <SCORE.SYSTEM.DIHEDRAL>
0

>  <SCORE.SYSTEM.SOLV>
0

>  <SCORE.SYSTEM.norm>
0

>  <SCORE.heavy>
18

>  <SCORE.norm>
-1.16272

>  <RMSD>
7.565

$$$$
lig.pdb
 OpenBabel11021811503D
libRbt.so/2013.1/901 2013/11/27
 18 19  0  0  0  0  0  0  0  0999 V2000
   -7.8492   19.2329   -0.7199 C   0  0  0  0  0  0  0  0  0  0  0  0
   -7.7475   17.2725    3.7162 N   0  0  0  0  0  0  0  0  0  0  0  0
  -11.5301   16.3951    3.0507 C   0  0  0  0  0  0  0  0  0  0  0  0
  -15.6206   16.0895    4.1935 O   0  0  0  0  0  0  0  0  0  0  0  0
  -14.3110   15.5402    4.1449 C   0  0  0  0  0  0  0  0  0  0  0  0
  -14.1353   14.6934    2.8694 C   0  0  0  0  0  0  0  0  0  0  0  0
  -10.4308   12.8349    2.6920 C   0  0  0  0  0  0  0  0  0  0  0  0
  -12.1364   12.5278    2.6651 S   0  0  0  0  0  0  0  0  0  0  0  0
  -12.7043   14.2043    2.8307 C   0  0  0  0  0  0  0  0  0  0  0  0
  -11.5130   14.8829    2.9024 C   0  0  0  0  0  0  0  0  0  0  0  0
  -10.3583   14.1527    2.8298 N   0  0  0  0  0  0  0  0  0  0  0  0
   -9.0066   14.8149    2.8798 C   0  0  0  0  0  0  0  0  0  0  0  0
   -8.1025   17.1543    2.3725 C   0  0  0  0  0  0  0  0  0  0  0  0
   -7.8392   18.1804    1.5068 N   0  0  0  0  0  0  0  0  0  0  0  0
   -8.1673   18.0906    0.2152 C   0  0  0  0  0  0  0  0  0  0  0  0
   -8.7647   16.9941   -0.2603 N   0  0  0  0  0  0  0  0  0  0  0  0
   -9.0544   15.9342    0.5384 C   0  0  0  0  0  0  0  0  0  0  0  0
   -8.7294   15.9659    1.8991 C   0  0  0  0  0  0  0  0  0  0  0  0
  5  4  1  0  0  0  0
  5  6  1  0  0  0  0
  7  8  2  0  0  0  0
  7 11  1  0  0  0  0
  8  9  1  0  0  0  0
  9 10  2  0  0  0  0
  9  6  1  0  0  0  0
 10  3  1  0  0  0  0
 11 12  1  0  0  0  0
 11 10  1  0  0  0  0
 12 18  1  0  0  0  0
 13  2  1  0  0  0  0
 13 14  2  0  0  0  0
 15 14  1  0  0  0  0
 15  1  1  0  0  0  0
 16 15  2  0  0  0  0
 17 18  2  0  0  0  0
 17 16  1  0  0  0  0
 18 13  1  0  0  0  0
M  END
>  <CHROM.1>
176.71172767,126.11581744,126.43577982,134.81802666,-10.62294017,15.62333450
2.28841047,0.58113534,0.34102474,-0.15606667

>  <Name>
lig.pdb

>  <RI>
0

>  <Rbt.Current_Directory>
/home/itssahil/PROJECTS/Mol_Feturizer/New_Systems/rnas/4nyg

>  <Rbt.Executable>
rbdock ($Id: //depot/dev/client3/rdock/2013.1/src/exe/rbdock.cxx#4 $)

>  <Rbt.Library>
libRbt.so (2013.1, Build901 2013/11/27)

>  <Rbt.Parameter_File>
/export/apps/rDock/src/rDock_2013.1_src/data/scripts/dock_solv.prm

>  <Rbt.Receptor>
prm/blind_docking_100.prm

>  <SCORE>
-20.8823

>  <SCORE.INTER>
-23.0536

>  <SCORE.INTER.CONST>
1

>  <SCORE.INTER.POLAR>
0

>  <SCORE.INTER.ROT>
4

>  <SCORE.INTER.SOLV>
15.152

>  <SCORE.INTER.VDW>
-26.6864

>  <SCORE.INTER.norm>
-1.28076

>  <SCORE.INTRA>
2.17127

>  <SCORE.INTRA.DIHEDRAL>
2.56499

>  <SCORE.INTRA.DIHEDRAL.0>
3.20029

>  <SCORE.INTRA.POLAR>
0

>  <SCORE.INTRA.POLAR.0>
0

>  <SCORE.INTRA.REPUL>
0

>  <SCORE.INTRA.REPUL.0>
0

>  <SCORE.INTRA.SOLV>
0.413939

>  <SCORE.INTRA.SOLV.lig_0>
-19.3885

>  <SCORE.INTRA.VDW>
0.681807

>  <SCORE.INTRA.VDW.0>
-1.12705

>  <SCORE.INTRA.norm>
0.120626

>  <SCORE.RESTR>
0

>  <SCORE.RESTR.CAVITY>
0

>  <SCORE.RESTR.norm>
0

>  <SCORE.SYSTEM>
0

>  <SCORE.SYSTEM.CONST>
0

>  <SCORE.SYSTEM.DIHEDRAL>
0

>  <SCORE.SYSTEM.SOLV>
0

>  <SCORE.SYSTEM.norm>
0

>  <SCORE.heavy>
18

>  <SCORE.norm>
-1.16013

>  <RMSD>
7.566

$$$$
lig.pdb
 OpenBabel11021811503D
libRbt.so/2013.1/901 2013/11/27
 18 19  0  0  0  0  0  0  0  0999 V2000
   -5.7524   10.4416    6.0910 C   0  0  0  0  0  0  0  0  0  0  0  0
   -6.6330   14.3085    3.2974 N   0  0  0  0  0  0  0  0  0  0  0  0
  -10.1779   15.9076    2.1966 C   0  0  0  0  0  0  0  0  0  0  0  0
  -14.8983   16.9912    4.2606 O   0  0  0  0  0  0  0  0  0  0  0  0
  -14.1435   15.8092    4.0324 C   0  0  0  0  0  0  0  0  0  0  0  0
  -13.2348   15.9867    2.8005 C   0  0  0  0  0  0  0  0  0  0  0  0
  -11.2505   12.3477    2.6312 C   0  0  0  0  0  0  0  0  0  0  0  0
  -12.8038   13.0660    2.9058 S   0  0  0  0  0  0  0  0  0  0  0  0
  -12.3404   14.7705    2.7045 C   0  0  0  0  0  0  0  0  0  0  0  0
  -10.9977   14.6522    2.4433 C   0  0  0  0  0  0  0  0  0  0  0  0
  -10.4630   13.3931    2.4130 N   0  0  0  0  0  0  0  0  0  0  0  0
   -9.0043   13.1671    2.1145 C   0  0  0  0  0  0  0  0  0  0  0  0
   -7.0036   13.0266    3.7034 C   0  0  0  0  0  0  0  0  0  0  0  0
   -6.2543   12.3663    4.6385 N   0  0  0  0  0  0  0  0  0  0  0  0
   -6.5894   11.1391    5.0454 C   0  0  0  0  0  0  0  0  0  0  0  0
   -7.6657   10.5263    4.5439 N   0  0  0  0  0  0  0  0  0  0  0  0
   -8.4590   11.1206    3.6151 C   0  0  0  0  0  0  0  0  0  0  0  0
   -8.1633   12.4082    3.1539 C   0  0  0  0  0  0  0  0  0  0  0  0
  5  4  1  0  0  0  0
  5  6  1  0  0  0  0
  7  8  2  0  0  0  0
  7 11  1  0  0  0  0
  8  9  1  0  0  0  0
  9 10  2  0  0  0  0
  9  6  1  0  0  0  0
 10  3  1  0  0  0  0
 11 12  1  0  0  0  0
 11 10  1  0  0  0  0
 12 18  1  0  0  0  0
 13  2  1  0  0  0  0
 13 14  2  0  0  0  0
 15 14  1  0  0  0  0
 15  1  1  0  0  0  0
 16 15  2  0  0  0  0
 17 18  2  0  0  0  0
 17 16  1  0  0  0  0
 18 13  1  0  0  0  0
M  END
>  <CHROM.1>
173.32182955,44.12578792,-58.23655929,-122.75530080,-10.03073174,13.43528183
3.45423436,0.54319490,0.03570612,2.87637745

>  <Name>
lig.pdb

>  <RI>
0

>  <Rbt.Current_Directory>
/home/itssahil/PROJECTS/Mol_Feturizer/New_Systems/rnas/4nyg

>  <Rbt.Executable>
rbdock ($Id: //depot/dev/client3/rdock/2013.1/src/exe/rbdock.cxx#4 $)

>  <Rbt.Library>
libRbt.so (2013.1, Build901 2013/11/27)

>  <Rbt.Parameter_File>
/export/apps/rDock/src/rDock_2013.1_src/data/scripts/dock_solv.prm

>  <Rbt.Receptor>
prm/pocket_docking_8.prm

>  <SCORE>
-22.6086

>  <SCORE.INTER>
-22.8891

>  <SCORE.INTER.CONST>
1

>  <SCORE.INTER.POLAR>
0

>  <SCORE.INTER.ROT>
4

>  <SCORE.INTER.SOLV>
11.636

>  <SCORE.INTER.VDW>
-25.4047

>  <SCORE.INTER.norm>
-1.27162

>  <SCORE.INTRA>
0.280452

>  <SCORE.INTRA.DIHEDRAL>
0.542156

>  <SCORE.INTRA.DIHEDRAL.0>
3.20029

>  <SCORE.INTRA.POLAR>
0

>  <SCORE.INTRA.POLAR.0>
0

>  <SCORE.INTRA.REPUL>
0

>  <SCORE.INTRA.REPUL.0>
0

>  <SCORE.INTRA.SOLV>
0.191845

>  <SCORE.INTRA.SOLV.lig_0>
-19.3885

>  <SCORE.INTRA.VDW>
-0.086548

>  <SCORE.INTRA.VDW.0>
-1.12705

>  <SCORE.INTRA.norm>
0.0155807

>  <SCORE.RESTR>
0

>  <SCORE.RESTR.CAVITY>
0

>  <SCORE.RESTR.norm>
0

>  <SCORE.SYSTEM>
0

>  <SCORE.SYSTEM.CONST>
0

>  <SCORE.SYSTEM.DIHEDRAL>
0

>  <SCORE.SYSTEM.SOLV>
0

>  <SCORE.SYSTEM.norm>
0

>  <SCORE.heavy>
18

>  <SCORE.norm>
-1.25604

>  <RMSD>
7.569

$$$$
lig.pdb
 OpenBabel11021811503D
libRbt.so/2013.1/901 2013/11/27
 18 19  0  0  0  0  0  0  0  0999 V2000
   -6.1629    9.0790    3.7041 C   0  0  0  0  0  0  0  0  0  0  0  0
   -7.4586   13.7392    3.3343 N   0  0  0  0  0  0  0  0  0  0  0  0
  -10.3180   16.0581    1.8879 C   0  0  0  0  0  0  0  0  0  0  0  0
  -15.1284   15.3385    3.8624 O   0  0  0  0  0  0  0  0  0  0  0  0
  -14.4895   16.3181    3.0554 C   0  0  0  0  0  0  0  0  0  0  0  0
  -12.9996   16.4302    3.4327 C   0  0  0  0  0  0  0  0  0  0  0  0
  -11.5946   12.6144    2.6113 C   0  0  0  0  0  0  0  0  0  0  0  0
  -12.8906   13.4786    3.3713 S   0  0  0  0  0  0  0  0  0  0  0  0
  -12.3245   15.1324    3.0473 C   0  0  0  0  0  0  0  0  0  0  0  0
  -11.1549   14.8858    2.3720 C   0  0  0  0  0  0  0  0  0  0  0  0
  -10.8029   13.5803    2.1629 N   0  0  0  0  0  0  0  0  0  0  0  0
   -9.5478   13.2161    1.4143 C   0  0  0  0  0  0  0  0  0  0  0  0
   -7.6505   12.4170    2.9338 C   0  0  0  0  0  0  0  0  0  0  0  0
   -6.8667   11.4266    3.4597 N   0  0  0  0  0  0  0  0  0  0  0  0
   -7.0323   10.1527    3.0941 C   0  0  0  0  0  0  0  0  0  0  0  0
   -7.9680    9.8172    2.2013 N   0  0  0  0  0  0  0  0  0  0  0  0
   -8.7853   10.7452    1.6391 C   0  0  0  0  0  0  0  0  0  0  0  0
   -8.6648   12.0954    1.9867 C   0  0  0  0  0  0  0  0  0  0  0  0
  5  4  1  0  0  0  0
  5  6  1  0  0  0  0
  7  8  2  0  0  0  0
  7 11  1  0  0  0  0
  8  9  1  0  0  0  0
  9 10  2  0  0  0  0
  9  6  1  0  0  0  0
 10  3  1  0  0  0  0
 11 12  1  0  0  0  0
 11 10  1  0  0  0  0
 12 18  1  0  0  0  0
 13  2  1  0  0  0  0
 13 14  2  0  0  0  0
 15 14  1  0  0  0  0
 15  1  1  0  0  0  0
 16 15  2  0  0  0  0
 17 18  2  0  0  0  0
 17 16  1  0  0  0  0
 18 13  1  0  0  0  0
M  END
>  <CHROM.1>
66.77397235,-46.66140849,-45.07691695,-88.30118033,-10.34557677,13.19502471
2.81242117,0.63481415,-0.14603022,3.01271942

>  <Name>
lig.pdb

>  <RI>
0

>  <Rbt.Current_Directory>
/home/itssahil/PROJECTS/Mol_Feturizer/New_Systems/rnas/4nyg

>  <Rbt.Executable>
rbdock ($Id: //depot/dev/client3/rdock/2013.1/src/exe/rbdock.cxx#4 $)

>  <Rbt.Library>
libRbt.so (2013.1, Build901 2013/11/27)

>  <Rbt.Parameter_File>
/export/apps/rDock/src/rDock_2013.1_src/data/scripts/dock_solv.prm

>  <Rbt.Receptor>
prm/pocket_docking_4.prm

>  <SCORE>
-24.2131

>  <SCORE.INTER>
-25.2446

>  <SCORE.INTER.CONST>
1

>  <SCORE.INTER.POLAR>
0

>  <SCORE.INTER.ROT>
4

>  <SCORE.INTER.SOLV>
12.867

>  <SCORE.INTER.VDW>
-27.3854

>  <SCORE.INTER.norm>
-1.40248

>  <SCORE.INTRA>
0.460261

>  <SCORE.INTRA.DIHEDRAL>
0.447222

>  <SCORE.INTRA.DIHEDRAL.0>
3.20029

>  <SCORE.INTRA.POLAR>
0

>  <SCORE.INTRA.POLAR.0>
0

>  <SCORE.INTRA.REPUL>
0

>  <SCORE.INTRA.REPUL.0>
0

>  <SCORE.INTRA.SOLV>
0.919384

>  <SCORE.INTRA.SOLV.lig_0>
-19.3885

>  <SCORE.INTRA.VDW>
-0.223041

>  <SCORE.INTRA.VDW.0>
-1.12705

>  <SCORE.INTRA.norm>
0.0255701

>  <SCORE.RESTR>
0.571308

>  <SCORE.RESTR.CAVITY>
0.571308

>  <SCORE.RESTR.norm>
0.0317394

>  <SCORE.SYSTEM>
0

>  <SCORE.SYSTEM.CONST>
0

>  <SCORE.SYSTEM.DIHEDRAL>
0

>  <SCORE.SYSTEM.SOLV>
0

>  <SCORE.SYSTEM.norm>
0

>  <SCORE.heavy>
18

>  <SCORE.norm>
-1.34517

>  <RMSD>
7.596

$$$$
lig.pdb
 OpenBabel11021811503D
libRbt.so/2013.1/901 2013/11/27
 18 19  0  0  0  0  0  0  0  0999 V2000
   -5.0593   17.2678    0.0045 C   0  0  0  0  0  0  0  0  0  0  0  0
   -8.3207   16.3917    3.4871 N   0  0  0  0  0  0  0  0  0  0  0  0
  -11.9555   12.7816    3.1080 C   0  0  0  0  0  0  0  0  0  0  0  0
  -14.4172   16.7231    4.7704 O   0  0  0  0  0  0  0  0  0  0  0  0
  -15.1973   15.9107    3.9041 C   0  0  0  0  0  0  0  0  0  0  0  0
  -14.4338   14.6186    3.5542 C   0  0  0  0  0  0  0  0  0  0  0  0
  -10.8982   16.2276    2.0984 C   0  0  0  0  0  0  0  0  0  0  0  0
  -12.5258   16.6314    2.5366 S   0  0  0  0  0  0  0  0  0  0  0  0
  -13.0707   15.0126    3.0298 C   0  0  0  0  0  0  0  0  0  0  0  0
  -11.9368   14.2711    2.8076 C   0  0  0  0  0  0  0  0  0  0  0  0
  -10.8337   14.9221    2.3266 N   0  0  0  0  0  0  0  0  0  0  0  0
   -9.5408   14.1927    2.0725 C   0  0  0  0  0  0  0  0  0  0  0  0
   -7.8036   16.0645    2.2337 C   0  0  0  0  0  0  0  0  0  0  0  0
   -6.7488   16.7734    1.7271 N   0  0  0  0  0  0  0  0  0  0  0  0
   -6.2343   16.4782    0.5305 C   0  0  0  0  0  0  0  0  0  0  0  0
   -6.7425   15.4828   -0.2018 N   0  0  0  0  0  0  0  0  0  0  0  0
   -7.7870   14.7335    0.2370 C   0  0  0  0  0  0  0  0  0  0  0  0
   -8.3649   14.9902    1.4853 C   0  0  0  0  0  0  0  0  0  0  0  0
  5  4  1  0  0  0  0
  5  6  1  0  0  0  0
  7  8  2  0  0  0  0
  7 11  1  0  0  0  0
  8  9  1  0  0  0  0
  9 10  2  0  0  0  0
  9  6  1  0  0  0  0
 10  3  1  0  0  0  0
 11 12  1  0  0  0  0
 11 10  1  0  0  0  0
 12 18  1  0  0  0  0
 13  2  1  0  0  0  0
 13 14  2  0  0  0  0
 15 14  1  0  0  0  0
 15  1  1  0  0  0  0
 16 15  2  0  0  0  0
 17 18  2  0  0  0  0
 17 16  1  0  0  0  0
 18 13  1  0  0  0  0
M  END
>  <CHROM.1>
-52.93314999,-12.87180495,-3.13758124,63.18246600,-10.32093345,15.61392792
2.25854401,0.02031876,0.38003380,0.17973627

>  <Name>
lig.pdb

>  <RI>
0

>  <Rbt.Current_Directory>
/home/itssahil/PROJECTS/Mol_Feturizer/New_Systems/rnas/4nyg

>  <Rbt.Executable>
rbdock ($Id: //depot/dev/client3/rdock/2013.1/src/exe/rbdock.cxx#4 $)

>  <Rbt.Library>
libRbt.so (2013.1, Build901 2013/11/27)

>  <Rbt.Parameter_File>
/export/apps/rDock/src/rDock_2013.1_src/data/scripts/dock_solv.prm

>  <Rbt.Receptor>
prm/blind_docking_100.prm

>  <SCORE>
-19.2969

>  <SCORE.INTER>
-22.5012

>  <SCORE.INTER.CONST>
1

>  <SCORE.INTER.POLAR>
0

>  <SCORE.INTER.ROT>
4

>  <SCORE.INTER.SOLV>
12.2443

>  <SCORE.INTER.VDW>
-25.3489

>  <SCORE.INTER.norm>
-1.25007

>  <SCORE.INTRA>
2.86362

>  <SCORE.INTRA.DIHEDRAL>
2.50544

>  <SCORE.INTRA.DIHEDRAL.0>
3.20029

>  <SCORE.INTRA.POLAR>
0

>  <SCORE.INTRA.POLAR.0>
0

>  <SCORE.INTRA.REPUL>
0

>  <SCORE.INTRA.REPUL.0>
0

>  <SCORE.INTRA.SOLV>
1.33733

>  <SCORE.INTRA.SOLV.lig_0>
-19.3885

>  <SCORE.INTRA.VDW>
0.942242

>  <SCORE.INTRA.VDW.0>
-1.12705

>  <SCORE.INTRA.norm>
0.15909

>  <SCORE.RESTR>
0.340693

>  <SCORE.RESTR.CAVITY>
0.340693

>  <SCORE.RESTR.norm>
0.0189274

>  <SCORE.SYSTEM>
0

>  <SCORE.SYSTEM.CONST>
0

>  <SCORE.SYSTEM.DIHEDRAL>
0

>  <SCORE.SYSTEM.SOLV>
0

>  <SCORE.SYSTEM.norm>
0

>  <SCORE.heavy>
18

>  <SCORE.norm>
-1.07205

>  <RMSD>
7.599

$$$$
lig.pdb
 OpenBabel11021811503D
libRbt.so/2013.1/901 2013/11/27
 18 19  0  0  0  0  0  0  0  0999 V2000
   -3.7668   19.2105   -4.5743 C   0  0  0  0  0  0  0  0  0  0  0  0
   -7.2413   20.4451   -1.4222 N   0  0  0  0  0  0  0  0  0  0  0  0
   -6.8796   16.6788    2.8027 C   0  0  0  0  0  0  0  0  0  0  0  0
  -11.6788   16.7041    3.0592 O   0  0  0  0  0  0  0  0  0  0  0  0
  -11.2316   15.4575    2.5446 C   0  0  0  0  0  0  0  0  0  0  0  0
   -9.6978   15.3556    2.6527 C   0  0  0  0  0  0  0  0  0  0  0  0
   -8.5464   18.1094   -0.2283 C   0  0  0  0  0  0  0  0  0  0  0  0
   -9.8485   17.0713    0.2524 S   0  0  0  0  0  0  0  0  0  0  0  0
   -9.0974   16.3677    1.7021 C   0  0  0  0  0  0  0  0  0  0  0  0
   -7.8756   16.9939    1.6992 C   0  0  0  0  0  0  0  0  0  0  0  0
   -7.6183   17.8845    0.6930 N   0  0  0  0  0  0  0  0  0  0  0  0
   -6.3130   18.6324    0.6217 C   0  0  0  0  0  0  0  0  0  0  0  0
   -6.1243   19.6621   -1.7131 C   0  0  0  0  0  0  0  0  0  0  0  0
   -5.5080   19.7816   -2.9288 N   0  0  0  0  0  0  0  0  0  0  0  0
   -4.4357   19.0448   -3.2306 C   0  0  0  0  0  0  0  0  0  0  0  0
   -3.9417   18.1697   -2.3500 N   0  0  0  0  0  0  0  0  0  0  0  0
   -4.4983   17.9989   -1.1227 C   0  0  0  0  0  0  0  0  0  0  0  0
   -5.6195   18.7464   -0.7456 C   0  0  0  0  0  0  0  0  0  0  0  0
  5  4  1  0  0  0  0
  5  6  1  0  0  0  0
  7  8  2  0  0  0  0
  7 11  1  0  0  0  0
  8  9  1  0  0  0  0
  9 10  2  0  0  0  0
  9  6  1  0  0  0  0
 10  3  1  0  0  0  0
 11 12  1  0  0  0  0
 11 10  1  0  0  0  0
 12 18  1  0  0  0  0
 13  2  1  0  0  0  0
 13 14  2  0  0  0  0
 15 14  1  0  0  0  0
 15  1  1  0  0  0  0
 16 15  2  0  0  0  0
 17 18  2  0  0  0  0
 17 16  1  0  0  0  0
 18 13  1  0  0  0  0
M  END
>  <CHROM.1>
-67.58234482,-23.72447177,-44.99637850,75.92932561,-7.44600362,17.82884639
-0.06556326,0.80749598,0.05512155,-0.99712083

>  <Name>
lig.pdb

>  <RI>
0

>  <Rbt.Current_Directory>
/home/itssahil/PROJECTS/Mol_Feturizer/New_Systems/rnas/4nyg

>  <Rbt.Executable>
rbdock ($Id: //depot/dev/client3/rdock/2013.1/src/exe/rbdock.cxx#4 $)

>  <Rbt.Library>
libRbt.so (2013.1, Build901 2013/11/27)

>  <Rbt.Parameter_File>
/export/apps/rDock/src/rDock_2013.1_src/data/scripts/dock_solv.prm

>  <Rbt.Receptor>
prm/blind_docking_100.prm

>  <SCORE>
-11.1097

>  <SCORE.INTER>
-12.6717

>  <SCORE.INTER.CONST>
1

>  <SCORE.INTER.POLAR>
0

>  <SCORE.INTER.ROT>
4

>  <SCORE.INTER.SOLV>
12.2921

>  <SCORE.INTER.VDW>
-18.8118

>  <SCORE.INTER.norm>
-0.703981

>  <SCORE.INTRA>
1.56198

>  <SCORE.INTRA.DIHEDRAL>
1.95033

>  <SCORE.INTRA.DIHEDRAL.0>
3.20029

>  <SCORE.INTRA.POLAR>
0

>  <SCORE.INTRA.POLAR.0>
0

>  <SCORE.INTRA.REPUL>
0

>  <SCORE.INTRA.REPUL.0>
0

>  <SCORE.INTRA.SOLV>
1.0094

>  <SCORE.INTRA.SOLV.lig_0>
-19.3885

>  <SCORE.INTRA.VDW>
0.0821193

>  <SCORE.INTRA.VDW.0>
-1.12705

>  <SCORE.INTRA.norm>
0.0867768

>  <SCORE.RESTR>
0

>  <SCORE.RESTR.CAVITY>
0

>  <SCORE.RESTR.norm>
0

>  <SCORE.SYSTEM>
0

>  <SCORE.SYSTEM.CONST>
0

>  <SCORE.SYSTEM.DIHEDRAL>
0

>  <SCORE.SYSTEM.SOLV>
0

>  <SCORE.SYSTEM.norm>
0

>  <SCORE.heavy>
18

>  <SCORE.norm>
-0.617204

>  <RMSD>
7.601

$$$$
lig.pdb
 OpenBabel11021811503D
libRbt.so/2013.1/901 2013/11/27
 18 19  0  0  0  0  0  0  0  0999 V2000
   -5.7606    9.0073    4.4181 C   0  0  0  0  0  0  0  0  0  0  0  0
   -6.3942   12.2002    0.8214 N   0  0  0  0  0  0  0  0  0  0  0  0
  -10.0887   15.8669    2.2674 C   0  0  0  0  0  0  0  0  0  0  0  0
  -15.0870   16.5088    4.2773 O   0  0  0  0  0  0  0  0  0  0  0  0
  -14.2599   15.4054    3.9345 C   0  0  0  0  0  0  0  0  0  0  0  0
  -13.1160   15.8641    3.0094 C   0  0  0  0  0  0  0  0  0  0  0  0
  -11.1374   12.2750    2.3676 C   0  0  0  0  0  0  0  0  0  0  0  0
  -12.6778   12.9512    2.7846 S   0  0  0  0  0  0  0  0  0  0  0  0
  -12.2255   14.6701    2.7456 C   0  0  0  0  0  0  0  0  0  0  0  0
  -10.8955   14.5877    2.4149 C   0  0  0  0  0  0  0  0  0  0  0  0
  -10.3614   13.3421    2.2276 N   0  0  0  0  0  0  0  0  0  0  0  0
   -8.9170   13.1574    1.8432 C   0  0  0  0  0  0  0  0  0  0  0  0
   -6.8774   11.6197    1.9940 C   0  0  0  0  0  0  0  0  0  0  0  0
   -6.1515   10.6421    2.6179 N   0  0  0  0  0  0  0  0  0  0  0  0
   -6.5915   10.0723    3.7429 C   0  0  0  0  0  0  0  0  0  0  0  0
   -7.7556   10.4437    4.2835 N   0  0  0  0  0  0  0  0  0  0  0  0
   -8.5287   11.4095    3.7224 C   0  0  0  0  0  0  0  0  0  0  0  0
   -8.1184   12.0480    2.5468 C   0  0  0  0  0  0  0  0  0  0  0  0
  5  4  1  0  0  0  0
  5  6  1  0  0  0  0
  7  8  2  0  0  0  0
  7 11  1  0  0  0  0
  8  9  1  0  0  0  0
  9 10  2  0  0  0  0
  9  6  1  0  0  0  0
 10  3  1  0  0  0  0
 11 12  1  0  0  0  0
 11 10  1  0  0  0  0
 12 18  1  0  0  0  0
 13  2  1  0  0  0  0
 13 14  2  0  0  0  0
 15 14  1  0  0  0  0
 15  1  1  0  0  0  0
 16 15  2  0  0  0  0
 17 18  2  0  0  0  0
 17 16  1  0  0  0  0
 18 13  1  0  0  0  0
M  END
>  <CHROM.1>
176.69214452,26.24335198,-43.90630313,164.42677621,-9.97870955,12.94027606
2.90329591,0.46080598,-0.40160534,2.52244454

>  <Name>
lig.pdb

>  <RI>
0

>  <Rbt.Current_Directory>
/home/itssahil/PROJECTS/Mol_Feturizer/New_Systems/rnas/4nyg

>  <Rbt.Executable>
rbdock ($Id: //depot/dev/client3/rdock/2013.1/src/exe/rbdock.cxx#4 $)

>  <Rbt.Library>
libRbt.so (2013.1, Build901 2013/11/27)

>  <Rbt.Parameter_File>
/export/apps/rDock/src/rDock_2013.1_src/data/scripts/dock_solv.prm

>  <Rbt.Receptor>
prm/pocket_docking_8.prm

>  <SCORE>
-22.6977

>  <SCORE.INTER>
-24.1269

>  <SCORE.INTER.CONST>
1

>  <SCORE.INTER.POLAR>
0

>  <SCORE.INTER.ROT>
4

>  <SCORE.INTER.SOLV>
13.1894

>  <SCORE.INTER.VDW>
-26.7477

>  <SCORE.INTER.norm>
-1.34038

>  <SCORE.INTRA>
1.42912

>  <SCORE.INTRA.DIHEDRAL>
1.6325

>  <SCORE.INTRA.DIHEDRAL.0>
3.20029

>  <SCORE.INTRA.POLAR>
0

>  <SCORE.INTRA.POLAR.0>
0

>  <SCORE.INTRA.REPUL>
0

>  <SCORE.INTRA.REPUL.0>
0

>  <SCORE.INTRA.SOLV>
0.0176303

>  <SCORE.INTRA.SOLV.lig_0>
-19.3885

>  <SCORE.INTRA.VDW>
0.604059

>  <SCORE.INTRA.VDW.0>
-1.12705

>  <SCORE.INTRA.norm>
0.0793957

>  <SCORE.RESTR>
0

>  <SCORE.RESTR.CAVITY>
0

>  <SCORE.RESTR.norm>
0

>  <SCORE.SYSTEM>
0

>  <SCORE.SYSTEM.CONST>
0

>  <SCORE.SYSTEM.DIHEDRAL>
0

>  <SCORE.SYSTEM.SOLV>
0

>  <SCORE.SYSTEM.norm>
0

>  <SCORE.heavy>
18

>  <SCORE.norm>
-1.26098

>  <RMSD>
7.607

$$$$
lig.pdb
 OpenBabel11021811503D
libRbt.so/2013.1/901 2013/11/27
 18 19  0  0  0  0  0  0  0  0999 V2000
   -6.0578    9.0394    4.0836 C   0  0  0  0  0  0  0  0  0  0  0  0
   -7.1523   13.7493    3.6952 N   0  0  0  0  0  0  0  0  0  0  0  0
  -10.3130   16.0580    1.8899 C   0  0  0  0  0  0  0  0  0  0  0  0
  -15.1107   14.7843    3.7436 O   0  0  0  0  0  0  0  0  0  0  0  0
  -14.1935   15.8172    4.0764 C   0  0  0  0  0  0  0  0  0  0  0  0
  -13.2678   16.1136    2.8805 C   0  0  0  0  0  0  0  0  0  0  0  0
  -11.2970   12.4894    2.4451 C   0  0  0  0  0  0  0  0  0  0  0  0
  -12.8071   13.1958    2.9190 S   0  0  0  0  0  0  0  0  0  0  0  0
  -12.3848   14.9041    2.6663 C   0  0  0  0  0  0  0  0  0  0  0  0
  -11.0859   14.7961    2.2349 C   0  0  0  0  0  0  0  0  0  0  0  0
  -10.5510   13.5410    2.1317 N   0  0  0  0  0  0  0  0  0  0  0  0
   -9.1410   13.3263    1.6480 C   0  0  0  0  0  0  0  0  0  0  0  0
   -7.3696   12.4396    3.2676 C   0  0  0  0  0  0  0  0  0  0  0  0
   -6.6566   11.4146    3.8270 N   0  0  0  0  0  0  0  0  0  0  0  0
   -6.8479   10.1518    3.4364 C   0  0  0  0  0  0  0  0  0  0  0  0
   -7.7405    9.8615    2.4854 N   0  0  0  0  0  0  0  0  0  0  0  0
   -8.4871   10.8258    1.8872 C   0  0  0  0  0  0  0  0  0  0  0  0
   -8.3368   12.1667    2.2580 C   0  0  0  0  0  0  0  0  0  0  0  0
  5  4  1  0  0  0  0
  5  6  1  0  0  0  0
  7  8  2  0  0  0  0
  7 11  1  0  0  0  0
  8  9  1  0  0  0  0
  9 10  2  0  0  0  0
  9  6  1  0  0  0  0
 10  3  1  0  0  0  0
 11 12  1  0  0  0  0
 11 10  1  0  0  0  0
 12 18  1  0  0  0  0
 13  2  1  0  0  0  0
 13 14  2  0  0  0  0
 15 14  1  0  0  0  0
 15  1  1  0  0  0  0
 16 15  2  0  0  0  0
 17 18  2  0  0  0  0
 17 16  1  0  0  0  0
 18 13  1  0  0  0  0
M  END
>  <CHROM.1>
-67.36805857,34.10915007,-35.44019843,-101.22000848,-10.18530437,13.07421808
2.88543176,0.58822089,-0.08710204,2.98520115

>  <Name>
lig.pdb

>  <RI>
0

>  <Rbt.Current_Directory>
/home/itssahil/PROJECTS/Mol_Feturizer/New_Systems/rnas/4nyg

>  <Rbt.Executable>
rbdock ($Id: //depot/dev/client3/rdock/2013.1/src/exe/rbdock.cxx#4 $)

>  <Rbt.Library>
libRbt.so (2013.1, Build901 2013/11/27)

>  <Rbt.Parameter_File>
/export/apps/rDock/src/rDock_2013.1_src/data/scripts/dock_solv.prm

>  <Rbt.Receptor>
prm/pocket_docking_5.prm

>  <SCORE>
-23.2801

>  <SCORE.INTER>
-24.4885

>  <SCORE.INTER.CONST>
1

>  <SCORE.INTER.POLAR>
0

>  <SCORE.INTER.ROT>
4

>  <SCORE.INTER.SOLV>
12.311

>  <SCORE.INTER.VDW>
-26.696

>  <SCORE.INTER.norm>
-1.36047

>  <SCORE.INTRA>
1.20838

>  <SCORE.INTRA.DIHEDRAL>
1.25701

>  <SCORE.INTRA.DIHEDRAL.0>
3.20029

>  <SCORE.INTRA.POLAR>
0

>  <SCORE.INTRA.POLAR.0>
0

>  <SCORE.INTRA.REPUL>
0

>  <SCORE.INTRA.REPUL.0>
0

>  <SCORE.INTRA.SOLV>
0.680306

>  <SCORE.INTRA.SOLV.lig_0>
-19.3885

>  <SCORE.INTRA.VDW>
0.239728

>  <SCORE.INTRA.VDW.0>
-1.12705

>  <SCORE.INTRA.norm>
0.0671325

>  <SCORE.RESTR>
0

>  <SCORE.RESTR.CAVITY>
0

>  <SCORE.RESTR.norm>
0

>  <SCORE.SYSTEM>
0

>  <SCORE.SYSTEM.CONST>
0

>  <SCORE.SYSTEM.DIHEDRAL>
0

>  <SCORE.SYSTEM.SOLV>
0

>  <SCORE.SYSTEM.norm>
0

>  <SCORE.heavy>
18

>  <SCORE.norm>
-1.29334

>  <RMSD>
7.610

$$$$
lig.pdb
 OpenBabel11021811503D
libRbt.so/2013.1/901 2013/11/27
 18 19  0  0  0  0  0  0  0  0999 V2000
   -5.7162    8.8545    4.2160 C   0  0  0  0  0  0  0  0  0  0  0  0
   -6.3580   12.2249    0.7867 N   0  0  0  0  0  0  0  0  0  0  0  0
  -10.0835   15.9047    2.3774 C   0  0  0  0  0  0  0  0  0  0  0  0
  -15.1655   16.3299    4.1809 O   0  0  0  0  0  0  0  0  0  0  0  0
  -14.2406   15.2826    3.9225 C   0  0  0  0  0  0  0  0  0  0  0  0
  -13.1434   15.7674    2.9550 C   0  0  0  0  0  0  0  0  0  0  0  0
  -10.9905   12.2731    2.3520 C   0  0  0  0  0  0  0  0  0  0  0  0
  -12.5768   12.8794    2.6984 S   0  0  0  0  0  0  0  0  0  0  0  0
  -12.1927   14.6151    2.7168 C   0  0  0  0  0  0  0  0  0  0  0  0
  -10.8448   14.5920    2.4567 C   0  0  0  0  0  0  0  0  0  0  0  0
  -10.2517   13.3726    2.2745 N   0  0  0  0  0  0  0  0  0  0  0  0
   -8.7827   13.2529    1.9651 C   0  0  0  0  0  0  0  0  0  0  0  0
   -6.8148   11.6175    1.9561 C   0  0  0  0  0  0  0  0  0  0  0  0
   -6.1093   10.5815    2.5046 N   0  0  0  0  0  0  0  0  0  0  0  0
   -6.5247    9.9848    3.6250 C   0  0  0  0  0  0  0  0  0  0  0  0
   -7.6438   10.3860    4.2348 N   0  0  0  0  0  0  0  0  0  0  0  0
   -8.3942   11.4097    3.7509 C   0  0  0  0  0  0  0  0  0  0  0  0
   -8.0074   12.0785    2.5842 C   0  0  0  0  0  0  0  0  0  0  0  0
  5  4  1  0  0  0  0
  5  6  1  0  0  0  0
  7  8  2  0  0  0  0
  7 11  1  0  0  0  0
  8  9  1  0  0  0  0
  9 10  2  0  0  0  0
  9  6  1  0  0  0  0
 10  3  1  0  0  0  0
 11 12  1  0  0  0  0
 11 10  1  0  0  0  0
 12 18  1  0  0  0  0
 13  2  1  0  0  0  0
 13 14  2  0  0  0  0
 15 14  1  0  0  0  0
 15  1  1  0  0  0  0
 16 15  2  0  0  0  0
 17 18  2  0  0  0  0
 17 16  1  0  0  0  0
 18 13  1  0  0  0  0
M  END
>  <CHROM.1>
-179.94973170,31.78054787,-38.13605350,155.94365226,-9.91676538,12.89888013
2.87237581,0.47389783,-0.37579707,2.57570132

>  <Name>
lig.pdb

>  <RI>
0

>  <Rbt.Current_Directory>
/home/itssahil/PROJECTS/Mol_Feturizer/New_Systems/rnas/4nyg

>  <Rbt.Executable>
rbdock ($Id: //depot/dev/client3/rdock/2013.1/src/exe/rbdock.cxx#4 $)

>  <Rbt.Library>
libRbt.so (2013.1, Build901 2013/11/27)

>  <Rbt.Parameter_File>
/export/apps/rDock/src/rDock_2013.1_src/data/scripts/dock_solv.prm

>  <Rbt.Receptor>
prm/pocket_docking_6.prm

>  <SCORE>
-22.551

>  <SCORE.INTER>
-23.7078

>  <SCORE.INTER.CONST>
1

>  <SCORE.INTER.POLAR>
0

>  <SCORE.INTER.ROT>
4

>  <SCORE.INTER.SOLV>
13.3071

>  <SCORE.INTER.VDW>
-26.5076

>  <SCORE.INTER.norm>
-1.3171

>  <SCORE.INTRA>
1.15679

>  <SCORE.INTRA.DIHEDRAL>
1.21355

>  <SCORE.INTRA.DIHEDRAL.0>
3.20029

>  <SCORE.INTRA.POLAR>
0

>  <SCORE.INTRA.POLAR.0>
0

>  <SCORE.INTRA.REPUL>
0

>  <SCORE.INTRA.REPUL.0>
0

>  <SCORE.INTRA.SOLV>
0.0161294

>  <SCORE.INTRA.SOLV.lig_0>
-19.3885

>  <SCORE.INTRA.VDW>
0.541949

>  <SCORE.INTRA.VDW.0>
-1.12705

>  <SCORE.INTRA.norm>
0.0642662

>  <SCORE.RESTR>
0

>  <SCORE.RESTR.CAVITY>
0

>  <SCORE.RESTR.norm>
0

>  <SCORE.SYSTEM>
0

>  <SCORE.SYSTEM.CONST>
0

>  <SCORE.SYSTEM.DIHEDRAL>
0

>  <SCORE.SYSTEM.SOLV>
0

>  <SCORE.SYSTEM.norm>
0

>  <SCORE.heavy>
18

>  <SCORE.norm>
-1.25284

>  <RMSD>
7.616

$$$$
lig.pdb
 OpenBabel11021811503D
libRbt.so/2013.1/901 2013/11/27
 18 19  0  0  0  0  0  0  0  0999 V2000
   -6.1000    9.0944    4.3378 C   0  0  0  0  0  0  0  0  0  0  0  0
   -7.2362   13.7741    3.7530 N   0  0  0  0  0  0  0  0  0  0  0  0
  -10.2979   16.0053    1.8911 C   0  0  0  0  0  0  0  0  0  0  0  0
  -15.1380   14.8664    3.7647 O   0  0  0  0  0  0  0  0  0  0  0  0
  -14.1654   15.8571    4.0674 C   0  0  0  0  0  0  0  0  0  0  0  0
  -13.2639   16.1104    2.8435 C   0  0  0  0  0  0  0  0  0  0  0  0
  -11.3452   12.4543    2.4437 C   0  0  0  0  0  0  0  0  0  0  0  0
  -12.8499   13.1858    2.8962 S   0  0  0  0  0  0  0  0  0  0  0  0
  -12.3975   14.8865    2.6441 C   0  0  0  0  0  0  0  0  0  0  0  0
  -11.0950   14.7567    2.2298 C   0  0  0  0  0  0  0  0  0  0  0  0
  -10.5787   13.4931    2.1371 N   0  0  0  0  0  0  0  0  0  0  0  0
   -9.1662   13.2547    1.6722 C   0  0  0  0  0  0  0  0  0  0  0  0
   -7.4277   12.4475    3.3672 C   0  0  0  0  0  0  0  0  0  0  0  0
   -6.7182   11.4516    3.9810 N   0  0  0  0  0  0  0  0  0  0  0  0
   -6.8853   10.1735    3.6311 C   0  0  0  0  0  0  0  0  0  0  0  0
   -7.7496    9.8389    2.6687 N   0  0  0  0  0  0  0  0  0  0  0  0
   -8.4910   10.7723    2.0174 C   0  0  0  0  0  0  0  0  0  0  0  0
   -8.3653   12.1273    2.3436 C   0  0  0  0  0  0  0  0  0  0  0  0
  5  4  1  0  0  0  0
  5  6  1  0  0  0  0
  7  8  2  0  0  0  0
  7 11  1  0  0  0  0
  8  9  1  0  0  0  0
  9 10  2  0  0  0  0
  9  6  1  0  0  0  0
 10  3  1  0  0  0  0
 11 12  1  0  0  0  0
 11 10  1  0  0  0  0
 12 18  1  0  0  0  0
 13  2  1  0  0  0  0
 13 14  2  0  0  0  0
 15 14  1  0  0  0  0
 15  1  1  0  0  0  0
 16 15  2  0  0  0  0
 17 18  2  0  0  0  0
 17 16  1  0  0  0  0
 18 13  1  0  0  0  0
M  END
>  <CHROM.1>
-69.94874753,36.60709518,-38.32272608,-99.64162986,-10.21238213,13.06834585
2.94132430,0.59327297,-0.07304120,2.96624775

>  <Name>
lig.pdb

>  <RI>
0

>  <Rbt.Current_Directory>
/home/itssahil/PROJECTS/Mol_Feturizer/New_Systems/rnas/4nyg

>  <Rbt.Executable>
rbdock ($Id: //depot/dev/client3/rdock/2013.1/src/exe/rbdock.cxx#4 $)

>  <Rbt.Library>
libRbt.so (2013.1, Build901 2013/11/27)

>  <Rbt.Parameter_File>
/export/apps/rDock/src/rDock_2013.1_src/data/scripts/dock_solv.prm

>  <Rbt.Receptor>
prm/pocket_docking_7.prm

>  <SCORE>
-23.2063

>  <SCORE.INTER>
-24.2438

>  <SCORE.INTER.CONST>
1

>  <SCORE.INTER.POLAR>
0

>  <SCORE.INTER.ROT>
4

>  <SCORE.INTER.SOLV>
12.1975

>  <SCORE.INTER.VDW>
-26.4951

>  <SCORE.INTER.norm>
-1.34688

>  <SCORE.INTRA>
1.03754

>  <SCORE.INTRA.DIHEDRAL>
1.24757

>  <SCORE.INTRA.DIHEDRAL.0>
3.20029

>  <SCORE.INTRA.POLAR>
0

>  <SCORE.INTRA.POLAR.0>
0

>  <SCORE.INTRA.REPUL>
0

>  <SCORE.INTRA.REPUL.0>
0

>  <SCORE.INTRA.SOLV>
0.698782

>  <SCORE.INTRA.SOLV.lig_0>
-19.3885

>  <SCORE.INTRA.VDW>
0.0643695

>  <SCORE.INTRA.VDW.0>
-1.12705

>  <SCORE.INTRA.norm>
0.0576413

>  <SCORE.RESTR>
0

>  <SCORE.RESTR.CAVITY>
0

>  <SCORE.RESTR.norm>
0

>  <SCORE.SYSTEM>
0

>  <SCORE.SYSTEM.CONST>
0

>  <SCORE.SYSTEM.DIHEDRAL>
0

>  <SCORE.SYSTEM.SOLV>
0

>  <SCORE.SYSTEM.norm>
0

>  <SCORE.heavy>
18

>  <SCORE.norm>
-1.28924

>  <RMSD>
7.616

$$$$
lig.pdb
 OpenBabel11021811503D
libRbt.so/2013.1/901 2013/11/27
 18 19  0  0  0  0  0  0  0  0999 V2000
   -6.0693    9.3660    4.7145 C   0  0  0  0  0  0  0  0  0  0  0  0
   -7.3574   13.9429    3.7526 N   0  0  0  0  0  0  0  0  0  0  0  0
  -10.3137   15.9713    1.8984 C   0  0  0  0  0  0  0  0  0  0  0  0
  -15.1435   14.8839    3.7626 O   0  0  0  0  0  0  0  0  0  0  0  0
  -14.2070   15.9067    4.0719 C   0  0  0  0  0  0  0  0  0  0  0  0
  -13.2687   16.1501    2.8738 C   0  0  0  0  0  0  0  0  0  0  0  0
  -11.4317   12.4497    2.4986 C   0  0  0  0  0  0  0  0  0  0  0  0
  -12.9166   13.2181    2.9553 S   0  0  0  0  0  0  0  0  0  0  0  0
  -12.4303   14.9059    2.6808 C   0  0  0  0  0  0  0  0  0  0  0  0
  -11.1344   14.7439    2.2573 C   0  0  0  0  0  0  0  0  0  0  0  0
  -10.6459   13.4685    2.1743 N   0  0  0  0  0  0  0  0  0  0  0  0
   -9.2427   13.1950    1.7005 C   0  0  0  0  0  0  0  0  0  0  0  0
   -7.4988   12.5843    3.4705 C   0  0  0  0  0  0  0  0  0  0  0  0
   -6.7633   11.6650    4.1675 N   0  0  0  0  0  0  0  0  0  0  0  0
   -6.8822   10.3583    3.9176 C   0  0  0  0  0  0  0  0  0  0  0  0
   -7.7226    9.9194    2.9762 N   0  0  0  0  0  0  0  0  0  0  0  0
   -8.4874   10.7724    2.2464 C   0  0  0  0  0  0  0  0  0  0  0  0
   -8.4121   12.1523    2.4662 C   0  0  0  0  0  0  0  0  0  0  0  0
  5  4  1  0  0  0  0
  5  6  1  0  0  0  0
  7  8  2  0  0  0  0
  7 11  1  0  0  0  0
  8  9  1  0  0  0  0
  9 10  2  0  0  0  0
  9  6  1  0  0  0  0
 10  3  1  0  0  0  0
 11 12  1  0  0  0  0
 11 10  1  0  0  0  0
 12 18  1  0  0  0  0
 13  2  1  0  0  0  0
 13 14  2  0  0  0  0
 15 14  1  0  0  0  0
 15  1  1  0  0  0  0
 16 15  2  0  0  0  0
 17 18  2  0  0  0  0
 17 16  1  0  0  0  0
 18 13  1  0  0  0  0
M  END
>  <CHROM.1>
-66.18613130,34.27906956,-44.15166570,-96.67585597,-10.25028631,13.12790662
3.04263310,0.58032749,-0.05895998,2.93094200

>  <Name>
lig.pdb

>  <RI>
0

>  <Rbt.Current_Directory>
/home/itssahil/PROJECTS/Mol_Feturizer/New_Systems/rnas/4nyg

>  <Rbt.Executable>
rbdock ($Id: //depot/dev/client3/rdock/2013.1/src/exe/rbdock.cxx#4 $)

>  <Rbt.Library>
libRbt.so (2013.1, Build901 2013/11/27)

>  <Rbt.Parameter_File>
/export/apps/rDock/src/rDock_2013.1_src/data/scripts/dock_solv.prm

>  <Rbt.Receptor>
prm/pocket_docking_7.prm

>  <SCORE>
-23.3522

>  <SCORE.INTER>
-24.4951

>  <SCORE.INTER.CONST>
1

>  <SCORE.INTER.POLAR>
0

>  <SCORE.INTER.ROT>
4

>  <SCORE.INTER.SOLV>
12.0192

>  <SCORE.INTER.VDW>
-26.6031

>  <SCORE.INTER.norm>
-1.36084

>  <SCORE.INTRA>
1.14291

>  <SCORE.INTRA.DIHEDRAL>
1.17222

>  <SCORE.INTRA.DIHEDRAL.0>
3.20029

>  <SCORE.INTRA.POLAR>
0

>  <SCORE.INTRA.POLAR.0>
0

>  <SCORE.INTRA.REPUL>
0

>  <SCORE.INTRA.REPUL.0>
0

>  <SCORE.INTRA.SOLV>
0.798259

>  <SCORE.INTRA.SOLV.lig_0>
-19.3885

>  <SCORE.INTRA.VDW>
0.157674

>  <SCORE.INTRA.VDW.0>
-1.12705

>  <SCORE.INTRA.norm>
0.0634951

>  <SCORE.RESTR>
0

>  <SCORE.RESTR.CAVITY>
0

>  <SCORE.RESTR.norm>
0

>  <SCORE.SYSTEM>
0

>  <SCORE.SYSTEM.CONST>
0

>  <SCORE.SYSTEM.DIHEDRAL>
0

>  <SCORE.SYSTEM.SOLV>
0

>  <SCORE.SYSTEM.norm>
0

>  <SCORE.heavy>
18

>  <SCORE.norm>
-1.29734

>  <RMSD>
7.622

$$$$
lig.pdb
 OpenBabel11021811503D
libRbt.so/2013.1/901 2013/11/27
 18 19  0  0  0  0  0  0  0  0999 V2000
   -4.8619   12.6092    0.2842 C   0  0  0  0  0  0  0  0  0  0  0  0
   -7.4601   14.6506    3.8359 N   0  0  0  0  0  0  0  0  0  0  0  0
  -12.2565   16.7677    2.4179 C   0  0  0  0  0  0  0  0  0  0  0  0
  -14.6011   17.1131    3.8733 O   0  0  0  0  0  0  0  0  0  0  0  0
  -14.6168   15.7804    4.3662 C   0  0  0  0  0  0  0  0  0  0  0  0
  -14.5263   14.7792    3.1982 C   0  0  0  0  0  0  0  0  0  0  0  0
  -10.6547   13.3927    2.6534 C   0  0  0  0  0  0  0  0  0  0  0  0
  -12.2605   12.8882    3.0669 S   0  0  0  0  0  0  0  0  0  0  0  0
  -13.0641   14.4706    2.9638 C   0  0  0  0  0  0  0  0  0  0  0  0
  -12.0113   15.2816    2.6190 C   0  0  0  0  0  0  0  0  0  0  0  0
  -10.7821   14.7003    2.4673 N   0  0  0  0  0  0  0  0  0  0  0  0
   -9.5751   15.5091    2.0710 C   0  0  0  0  0  0  0  0  0  0  0  0
   -7.3276   14.3560    2.4790 C   0  0  0  0  0  0  0  0  0  0  0  0
   -6.2277   13.6738    2.0356 N   0  0  0  0  0  0  0  0  0  0  0  0
   -6.0788   13.3777    0.7418 C   0  0  0  0  0  0  0  0  0  0  0  0
   -7.0023   13.7454   -0.1511 N   0  0  0  0  0  0  0  0  0  0  0  0
   -8.1217   14.4220    0.2154 C   0  0  0  0  0  0  0  0  0  0  0  0
   -8.3375   14.7555    1.5572 C   0  0  0  0  0  0  0  0  0  0  0  0
  5  4  1  0  0  0  0
  5  6  1  0  0  0  0
  7  8  2  0  0  0  0
  7 11  1  0  0  0  0
  8  9  1  0  0  0  0
  9 10  2  0  0  0  0
  9  6  1  0  0  0  0
 10  3  1  0  0  0  0
 11 12  1  0  0  0  0
 11 10  1  0  0  0  0
 12 18  1  0  0  0  0
 13  2  1  0  0  0  0
 13 14  2  0  0  0  0
 15 14  1  0  0  0  0
 15  1  1  0  0  0  0
 16 15  2  0  0  0  0
 17 18  2  0  0  0  0
 17 16  1  0  0  0  0
 18 13  1  0  0  0  0
M  END
>  <CHROM.1>
91.33713838,119.70556697,15.09930784,-91.20299581,-10.19620271,14.48500713
2.33505296,0.23452718,-0.30583545,-3.10684541

>  <Name>
lig.pdb

>  <RI>
0

>  <Rbt.Current_Directory>
/home/itssahil/PROJECTS/Mol_Feturizer/New_Systems/rnas/4nyg

>  <Rbt.Executable>
rbdock ($Id: //depot/dev/client3/rdock/2013.1/src/exe/rbdock.cxx#4 $)

>  <Rbt.Library>
libRbt.so (2013.1, Build901 2013/11/27)

>  <Rbt.Parameter_File>
/export/apps/rDock/src/rDock_2013.1_src/data/scripts/dock_solv.prm

>  <Rbt.Receptor>
prm/pocket_docking_5.prm

>  <SCORE>
-18.5237

>  <SCORE.INTER>
-23.0793

>  <SCORE.INTER.CONST>
1

>  <SCORE.INTER.POLAR>
0

>  <SCORE.INTER.ROT>
4

>  <SCORE.INTER.SOLV>
13.5865

>  <SCORE.INTER.VDW>
-26.1817

>  <SCORE.INTER.norm>
-1.28218

>  <SCORE.INTRA>
4.55564

>  <SCORE.INTRA.DIHEDRAL>
5.51732

>  <SCORE.INTRA.DIHEDRAL.0>
3.20029

>  <SCORE.INTRA.POLAR>
0

>  <SCORE.INTRA.POLAR.0>
0

>  <SCORE.INTRA.REPUL>
0

>  <SCORE.INTRA.REPUL.0>
0

>  <SCORE.INTRA.SOLV>
0.958506

>  <SCORE.INTRA.SOLV.lig_0>
-19.3885

>  <SCORE.INTRA.VDW>
1.31773

>  <SCORE.INTRA.VDW.0>
-1.12705

>  <SCORE.INTRA.norm>
0.253091

>  <SCORE.RESTR>
0

>  <SCORE.RESTR.CAVITY>
0

>  <SCORE.RESTR.norm>
0

>  <SCORE.SYSTEM>
0

>  <SCORE.SYSTEM.CONST>
0

>  <SCORE.SYSTEM.DIHEDRAL>
0

>  <SCORE.SYSTEM.SOLV>
0

>  <SCORE.SYSTEM.norm>
0

>  <SCORE.heavy>
18

>  <SCORE.norm>
-1.02909

>  <RMSD>
7.630

$$$$
lig.pdb
 OpenBabel11021811503D
libRbt.so/2013.1/901 2013/11/27
 18 19  0  0  0  0  0  0  0  0999 V2000
   -5.7375    9.0775    4.4190 C   0  0  0  0  0  0  0  0  0  0  0  0
   -6.4267   12.1930    0.7652 N   0  0  0  0  0  0  0  0  0  0  0  0
  -10.1299   15.7952    2.1647 C   0  0  0  0  0  0  0  0  0  0  0  0
  -15.1317   16.4799    4.2205 O   0  0  0  0  0  0  0  0  0  0  0  0
  -14.3155   15.3703    3.8718 C   0  0  0  0  0  0  0  0  0  0  0  0
  -13.1332   15.8322    2.9979 C   0  0  0  0  0  0  0  0  0  0  0  0
  -11.2137   12.2161    2.3291 C   0  0  0  0  0  0  0  0  0  0  0  0
  -12.7334   12.9129    2.7864 S   0  0  0  0  0  0  0  0  0  0  0  0
  -12.2640   14.6262    2.7182 C   0  0  0  0  0  0  0  0  0  0  0  0
  -10.9456   14.5264    2.3481 C   0  0  0  0  0  0  0  0  0  0  0  0
  -10.4308   13.2733    2.1561 N   0  0  0  0  0  0  0  0  0  0  0  0
   -9.0008   13.0693    1.7299 C   0  0  0  0  0  0  0  0  0  0  0  0
   -6.9083   11.6115    1.9379 C   0  0  0  0  0  0  0  0  0  0  0  0
   -6.1575   10.6708    2.5885 N   0  0  0  0  0  0  0  0  0  0  0  0
   -6.5956   10.1009    3.7142 C   0  0  0  0  0  0  0  0  0  0  0  0
   -7.7820   10.4360    4.2294 N   0  0  0  0  0  0  0  0  0  0  0  0
   -8.5806   11.3640    3.6411 C   0  0  0  0  0  0  0  0  0  0  0  0
   -8.1739   12.0008    2.4633 C   0  0  0  0  0  0  0  0  0  0  0  0
  5  4  1  0  0  0  0
  5  6  1  0  0  0  0
  7  8  2  0  0  0  0
  7 11  1  0  0  0  0
  8  9  1  0  0  0  0
  9 10  2  0  0  0  0
  9  6  1  0  0  0  0
 10  3  1  0  0  0  0
 11 12  1  0  0  0  0
 11 10  1  0  0  0  0
 12 18  1  0  0  0  0
 13  2  1  0  0  0  0
 13 14  2  0  0  0  0
 15 14  1  0  0  0  0
 15  1  1  0  0  0  0
 16 15  2  0  0  0  0
 17 18  2  0  0  0  0
 17 16  1  0  0  0  0
 18 13  1  0  0  0  0
M  END
>  <CHROM.1>
177.14113448,21.88436690,-46.64495873,168.76477659,-10.01937295,12.91129939
2.85493983,0.44609078,-0.40440084,2.50239759

>  <Name>
lig.pdb

>  <RI>
0

>  <Rbt.Current_Directory>
/home/itssahil/PROJECTS/Mol_Feturizer/New_Systems/rnas/4nyg

>  <Rbt.Executable>
rbdock ($Id: //depot/dev/client3/rdock/2013.1/src/exe/rbdock.cxx#4 $)

>  <Rbt.Library>
libRbt.so (2013.1, Build901 2013/11/27)

>  <Rbt.Parameter_File>
/export/apps/rDock/src/rDock_2013.1_src/data/scripts/dock_solv.prm

>  <Rbt.Receptor>
prm/pocket_docking_6.prm

>  <SCORE>
-22.6207

>  <SCORE.INTER>
-24.2727

>  <SCORE.INTER.CONST>
1

>  <SCORE.INTER.POLAR>
0

>  <SCORE.INTER.ROT>
4

>  <SCORE.INTER.SOLV>
13.3285

>  <SCORE.INTER.VDW>
-26.8913

>  <SCORE.INTER.norm>
-1.34848

>  <SCORE.INTRA>
1.65201

>  <SCORE.INTRA.DIHEDRAL>
1.90636

>  <SCORE.INTRA.DIHEDRAL.0>
3.20029

>  <SCORE.INTRA.POLAR>
0

>  <SCORE.INTRA.POLAR.0>
0

>  <SCORE.INTRA.REPUL>
0

>  <SCORE.INTRA.REPUL.0>
0

>  <SCORE.INTRA.SOLV>
0.0171959

>  <SCORE.INTRA.SOLV.lig_0>
-19.3885

>  <SCORE.INTRA.VDW>
0.690229

>  <SCORE.INTRA.VDW.0>
-1.12705

>  <SCORE.INTRA.norm>
0.0917782

>  <SCORE.RESTR>
0

>  <SCORE.RESTR.CAVITY>
0

>  <SCORE.RESTR.norm>
0

>  <SCORE.SYSTEM>
0

>  <SCORE.SYSTEM.CONST>
0

>  <SCORE.SYSTEM.DIHEDRAL>
0

>  <SCORE.SYSTEM.SOLV>
0

>  <SCORE.SYSTEM.norm>
0

>  <SCORE.heavy>
18

>  <SCORE.norm>
-1.2567

>  <RMSD>
7.632

$$$$
lig.pdb
 OpenBabel11021811503D
libRbt.so/2013.1/901 2013/11/27
 18 19  0  0  0  0  0  0  0  0999 V2000
   -6.4970    8.8404    3.2342 C   0  0  0  0  0  0  0  0  0  0  0  0
   -7.6280   13.5558    3.3696 N   0  0  0  0  0  0  0  0  0  0  0  0
  -10.4448   16.1534    1.9517 C   0  0  0  0  0  0  0  0  0  0  0  0
  -15.2575   15.4490    3.8989 O   0  0  0  0  0  0  0  0  0  0  0  0
  -14.5639   16.4340    3.1455 C   0  0  0  0  0  0  0  0  0  0  0  0
  -13.0847   16.4892    3.5744 C   0  0  0  0  0  0  0  0  0  0  0  0
  -11.7179   12.6945    2.6048 C   0  0  0  0  0  0  0  0  0  0  0  0
  -12.9905   13.5404    3.4228 S   0  0  0  0  0  0  0  0  0  0  0  0
  -12.4254   15.2011    3.1337 C   0  0  0  0  0  0  0  0  0  0  0  0
  -11.2743   14.9703    2.4219 C   0  0  0  0  0  0  0  0  0  0  0  0
  -10.9335   13.6703    2.1653 N   0  0  0  0  0  0  0  0  0  0  0  0
   -9.6994   13.3240    1.3746 C   0  0  0  0  0  0  0  0  0  0  0  0
   -7.8573   12.2940    2.8213 C   0  0  0  0  0  0  0  0  0  0  0  0
   -7.1167   11.2241    3.2440 N   0  0  0  0  0  0  0  0  0  0  0  0
   -7.3187   10.0055    2.7361 C   0  0  0  0  0  0  0  0  0  0  0  0
   -8.2493    9.8047    1.7985 N   0  0  0  0  0  0  0  0  0  0  0  0
   -9.0248   10.8179    1.3324 C   0  0  0  0  0  0  0  0  0  0  0  0
   -8.8650   12.1159    1.8303 C   0  0  0  0  0  0  0  0  0  0  0  0
  5  4  1  0  0  0  0
  5  6  1  0  0  0  0
  7  8  2  0  0  0  0
  7 11  1  0  0  0  0
  8  9  1  0  0  0  0
  9 10  2  0  0  0  0
  9  6  1  0  0  0  0
 10  3  1  0  0  0  0
 11 12  1  0  0  0  0
 11 10  1  0  0  0  0
 12 18  1  0  0  0  0
 13  2  1  0  0  0  0
 13 14  2  0  0  0  0
 15 14  1  0  0  0  0
 15  1  1  0  0  0  0
 16 15  2  0  0  0  0
 17 18  2  0  0  0  0
 17 16  1  0  0  0  0
 18 13  1  0  0  0  0
M  END
>  <CHROM.1>
68.37842528,-50.46962230,-40.53546621,-86.61175812,-10.51294574,13.20291796
2.73892447,0.67144314,-0.17141670,3.06919867

>  <Name>
lig.pdb

>  <RI>
0

>  <Rbt.Current_Directory>
/home/itssahil/PROJECTS/Mol_Feturizer/New_Systems/rnas/4nyg

>  <Rbt.Executable>
rbdock ($Id: //depot/dev/client3/rdock/2013.1/src/exe/rbdock.cxx#4 $)

>  <Rbt.Library>
libRbt.so (2013.1, Build901 2013/11/27)

>  <Rbt.Parameter_File>
/export/apps/rDock/src/rDock_2013.1_src/data/scripts/dock_solv.prm

>  <Rbt.Receptor>
prm/blind_docking_80.prm

>  <SCORE>
-21.896

>  <SCORE.INTER>
-22.6618

>  <SCORE.INTER.CONST>
1

>  <SCORE.INTER.POLAR>
0

>  <SCORE.INTER.ROT>
4

>  <SCORE.INTER.SOLV>
14.1753

>  <SCORE.INTER.VDW>
-26.0996

>  <SCORE.INTER.norm>
-1.25899

>  <SCORE.INTRA>
0.346175

>  <SCORE.INTRA.DIHEDRAL>
0.397075

>  <SCORE.INTRA.DIHEDRAL.0>
3.20029

>  <SCORE.INTRA.POLAR>
0

>  <SCORE.INTRA.POLAR.0>
0

>  <SCORE.INTRA.REPUL>
0

>  <SCORE.INTRA.REPUL.0>
0

>  <SCORE.INTRA.SOLV>
0.897861

>  <SCORE.INTRA.SOLV.lig_0>
-19.3885

>  <SCORE.INTRA.VDW>
-0.301294

>  <SCORE.INTRA.VDW.0>
-1.12705

>  <SCORE.INTRA.norm>
0.0192319

>  <SCORE.RESTR>
0.419587

>  <SCORE.RESTR.CAVITY>
0.419587

>  <SCORE.RESTR.norm>
0.0233104

>  <SCORE.SYSTEM>
0

>  <SCORE.SYSTEM.CONST>
0

>  <SCORE.SYSTEM.DIHEDRAL>
0

>  <SCORE.SYSTEM.SOLV>
0

>  <SCORE.SYSTEM.norm>
0

>  <SCORE.heavy>
18

>  <SCORE.norm>
-1.21645

>  <RMSD>
7.633

$$$$
lig.pdb
 OpenBabel11021811503D
libRbt.so/2013.1/901 2013/11/27
 18 19  0  0  0  0  0  0  0  0999 V2000
   -6.0133    8.9583    4.0653 C   0  0  0  0  0  0  0  0  0  0  0  0
   -7.2099   13.6358    3.5945 N   0  0  0  0  0  0  0  0  0  0  0  0
  -10.2727   15.8816    1.9545 C   0  0  0  0  0  0  0  0  0  0  0  0
  -15.0313   16.7050    4.4260 O   0  0  0  0  0  0  0  0  0  0  0  0
  -14.2856   15.5649    4.0220 C   0  0  0  0  0  0  0  0  0  0  0  0
  -13.2094   15.9684    2.9955 C   0  0  0  0  0  0  0  0  0  0  0  0
  -11.3515   12.3179    2.3392 C   0  0  0  0  0  0  0  0  0  0  0  0
  -12.8332   13.0408    2.8742 S   0  0  0  0  0  0  0  0  0  0  0  0
  -12.3653   14.7474    2.7039 C   0  0  0  0  0  0  0  0  0  0  0  0
  -11.0767   14.6256    2.2461 C   0  0  0  0  0  0  0  0  0  0  0  0
  -10.5801   13.3631    2.0688 N   0  0  0  0  0  0  0  0  0  0  0  0
   -9.1844   13.1344    1.5513 C   0  0  0  0  0  0  0  0  0  0  0  0
   -7.3975   12.3145    3.1890 C   0  0  0  0  0  0  0  0  0  0  0  0
   -6.6634   11.3151    3.7670 N   0  0  0  0  0  0  0  0  0  0  0  0
   -6.8261   10.0419    3.3977 C   0  0  0  0  0  0  0  0  0  0  0  0
   -7.7100    9.7159    2.4502 N   0  0  0  0  0  0  0  0  0  0  0  0
   -8.4763   10.6533    1.8343 C   0  0  0  0  0  0  0  0  0  0  0  0
   -8.3562   12.0033    2.1824 C   0  0  0  0  0  0  0  0  0  0  0  0
  5  4  1  0  0  0  0
  5  6  1  0  0  0  0
  7  8  2  0  0  0  0
  7 11  1  0  0  0  0
  8  9  1  0  0  0  0
  9 10  2  0  0  0  0
  9  6  1  0  0  0  0
 10  3  1  0  0  0  0
 11 12  1  0  0  0  0
 11 10  1  0  0  0  0
 12 18  1  0  0  0  0
 13  2  1  0  0  0  0
 13 14  2  0  0  0  0
 15 14  1  0  0  0  0
 15  1  1  0  0  0  0
 16 15  2  0  0  0  0
 17 18  2  0  0  0  0
 17 16  1  0  0  0  0
 18 13  1  0  0  0  0
M  END
>  <CHROM.1>
174.63688884,24.62618393,-41.13211204,-98.72533075,-10.18828789,13.04719524
2.89400653,0.64020051,-0.05373818,3.10877248

>  <Name>
lig.pdb

>  <RI>
0

>  <Rbt.Current_Directory>
/home/itssahil/PROJECTS/Mol_Feturizer/New_Systems/rnas/4nyg

>  <Rbt.Executable>
rbdock ($Id: //depot/dev/client3/rdock/2013.1/src/exe/rbdock.cxx#4 $)

>  <Rbt.Library>
libRbt.so (2013.1, Build901 2013/11/27)

>  <Rbt.Parameter_File>
/export/apps/rDock/src/rDock_2013.1_src/data/scripts/dock_solv.prm

>  <Rbt.Receptor>
prm/pocket_docking_8.prm

>  <SCORE>
-23.5903

>  <SCORE.INTER>
-24.8924

>  <SCORE.INTER.CONST>
1

>  <SCORE.INTER.POLAR>
0

>  <SCORE.INTER.ROT>
4

>  <SCORE.INTER.SOLV>
12.5498

>  <SCORE.INTER.VDW>
-27.0449

>  <SCORE.INTER.norm>
-1.38291

>  <SCORE.INTRA>
1.30214

>  <SCORE.INTRA.DIHEDRAL>
1.81548

>  <SCORE.INTRA.DIHEDRAL.0>
3.20029

>  <SCORE.INTRA.POLAR>
0

>  <SCORE.INTRA.POLAR.0>
0

>  <SCORE.INTRA.REPUL>
0

>  <SCORE.INTRA.REPUL.0>
0

>  <SCORE.INTRA.SOLV>
0.316775

>  <SCORE.INTRA.SOLV.lig_0>
-19.3885

>  <SCORE.INTRA.VDW>
0.236009

>  <SCORE.INTRA.VDW.0>
-1.12705

>  <SCORE.INTRA.norm>
0.072341

>  <SCORE.RESTR>
0

>  <SCORE.RESTR.CAVITY>
0

>  <SCORE.RESTR.norm>
0

>  <SCORE.SYSTEM>
0

>  <SCORE.SYSTEM.CONST>
0

>  <SCORE.SYSTEM.DIHEDRAL>
0

>  <SCORE.SYSTEM.SOLV>
0

>  <SCORE.SYSTEM.norm>
0

>  <SCORE.heavy>
18

>  <SCORE.norm>
-1.31057

>  <RMSD>
7.634

$$$$
lig.pdb
 OpenBabel11021811503D
libRbt.so/2013.1/901 2013/11/27
 18 19  0  0  0  0  0  0  0  0999 V2000
   -6.4829    8.8617    3.2894 C   0  0  0  0  0  0  0  0  0  0  0  0
   -7.6922   13.5572    3.4407 N   0  0  0  0  0  0  0  0  0  0  0  0
  -10.4565   16.1468    1.9379 C   0  0  0  0  0  0  0  0  0  0  0  0
  -15.2583   15.4472    3.9082 O   0  0  0  0  0  0  0  0  0  0  0  0
  -14.5707   16.4289    3.1451 C   0  0  0  0  0  0  0  0  0  0  0  0
  -13.0903   16.4924    3.5685 C   0  0  0  0  0  0  0  0  0  0  0  0
  -11.7165   12.6914    2.6340 C   0  0  0  0  0  0  0  0  0  0  0  0
  -12.9879   13.5424    3.4484 S   0  0  0  0  0  0  0  0  0  0  0  0
  -12.4291   15.2015    3.1389 C   0  0  0  0  0  0  0  0  0  0  0  0
  -11.2804   14.9664    2.4245 C   0  0  0  0  0  0  0  0  0  0  0  0
  -10.9369   13.6647    2.1804 N   0  0  0  0  0  0  0  0  0  0  0  0
   -9.7053   13.3134    1.3882 C   0  0  0  0  0  0  0  0  0  0  0  0
   -7.8865   12.2976    2.8739 C   0  0  0  0  0  0  0  0  0  0  0  0
   -7.1406   11.2352    3.3060 N   0  0  0  0  0  0  0  0  0  0  0  0
   -7.3094   10.0188    2.7808 C   0  0  0  0  0  0  0  0  0  0  0  0
   -8.2111    9.8132    1.8165 N   0  0  0  0  0  0  0  0  0  0  0  0
   -8.9898   10.8188    1.3395 C   0  0  0  0  0  0  0  0  0  0  0  0
   -8.8642   12.1139    1.8543 C   0  0  0  0  0  0  0  0  0  0  0  0
  5  4  1  0  0  0  0
  5  6  1  0  0  0  0
  7  8  2  0  0  0  0
  7 11  1  0  0  0  0
  8  9  1  0  0  0  0
  9 10  2  0  0  0  0
  9  6  1  0  0  0  0
 10  3  1  0  0  0  0
 11 12  1  0  0  0  0
 11 10  1  0  0  0  0
 12 18  1  0  0  0  0
 13  2  1  0  0  0  0
 13 14  2  0  0  0  0
 15 14  1  0  0  0  0
 15  1  1  0  0  0  0
 16 15  2  0  0  0  0
 17 18  2  0  0  0  0
 17 16  1  0  0  0  0
 18 13  1  0  0  0  0
M  END
>  <CHROM.1>
68.20446196,-50.53971283,-40.61610958,-84.29097713,-10.51587361,13.20445337
2.76195889,0.66940435,-0.17542968,3.05694280

>  <Name>
lig.pdb

>  <RI>
0

>  <Rbt.Current_Directory>
/home/itssahil/PROJECTS/Mol_Feturizer/New_Systems/rnas/4nyg

>  <Rbt.Executable>
rbdock ($Id: //depot/dev/client3/rdock/2013.1/src/exe/rbdock.cxx#4 $)

>  <Rbt.Library>
libRbt.so (2013.1, Build901 2013/11/27)

>  <Rbt.Parameter_File>
/export/apps/rDock/src/rDock_2013.1_src/data/scripts/dock_solv.prm

>  <Rbt.Receptor>
prm/blind_docking_100.prm

>  <SCORE>
-21.9565

>  <SCORE.INTER>
-22.7483

>  <SCORE.INTER.CONST>
1

>  <SCORE.INTER.POLAR>
0

>  <SCORE.INTER.ROT>
4

>  <SCORE.INTER.SOLV>
14.2117

>  <SCORE.INTER.VDW>
-26.1694

>  <SCORE.INTER.norm>
-1.2638

>  <SCORE.INTRA>
0.331657

>  <SCORE.INTRA.DIHEDRAL>
0.384022

>  <SCORE.INTRA.DIHEDRAL.0>
3.20029

>  <SCORE.INTRA.POLAR>
0

>  <SCORE.INTRA.POLAR.0>
0

>  <SCORE.INTRA.REPUL>
0

>  <SCORE.INTRA.REPUL.0>
0

>  <SCORE.INTRA.SOLV>
0.93466

>  <SCORE.INTRA.SOLV.lig_0>
-19.3885

>  <SCORE.INTRA.VDW>
-0.327684

>  <SCORE.INTRA.VDW.0>
-1.12705

>  <SCORE.INTRA.norm>
0.0184254

>  <SCORE.RESTR>
0.460106

>  <SCORE.RESTR.CAVITY>
0.460106

>  <SCORE.RESTR.norm>
0.0255615

>  <SCORE.SYSTEM>
0

>  <SCORE.SYSTEM.CONST>
0

>  <SCORE.SYSTEM.DIHEDRAL>
0

>  <SCORE.SYSTEM.SOLV>
0

>  <SCORE.SYSTEM.norm>
0

>  <SCORE.heavy>
18

>  <SCORE.norm>
-1.21981

>  <RMSD>
7.635

$$$$
lig.pdb
 OpenBabel11021811503D
libRbt.so/2013.1/901 2013/11/27
 18 19  0  0  0  0  0  0  0  0999 V2000
   -6.5131    8.8461    3.1986 C   0  0  0  0  0  0  0  0  0  0  0  0
   -7.6385   13.5629    3.3292 N   0  0  0  0  0  0  0  0  0  0  0  0
  -10.4851   16.1540    1.9366 C   0  0  0  0  0  0  0  0  0  0  0  0
  -15.2652   15.4381    3.9730 O   0  0  0  0  0  0  0  0  0  0  0  0
  -14.5967   16.4196    3.1927 C   0  0  0  0  0  0  0  0  0  0  0  0
  -13.1083   16.4900    3.5862 C   0  0  0  0  0  0  0  0  0  0  0  0
  -11.7413   12.6946    2.6193 C   0  0  0  0  0  0  0  0  0  0  0  0
  -13.0074   13.5408    3.4471 S   0  0  0  0  0  0  0  0  0  0  0  0
  -12.4501   15.2016    3.1443 C   0  0  0  0  0  0  0  0  0  0  0  0
  -11.3062   14.9708    2.4211 C   0  0  0  0  0  0  0  0  0  0  0  0
  -10.9645   13.6706    2.1668 N   0  0  0  0  0  0  0  0  0  0  0  0
   -9.7380   13.3240    1.3645 C   0  0  0  0  0  0  0  0  0  0  0  0
   -7.8764   12.2989    2.7897 C   0  0  0  0  0  0  0  0  0  0  0  0
   -7.1308   11.2303    3.2066 N   0  0  0  0  0  0  0  0  0  0  0  0
   -7.3408   10.0096    2.7070 C   0  0  0  0  0  0  0  0  0  0  0  0
   -8.2847    9.8055    1.7835 N   0  0  0  0  0  0  0  0  0  0  0  0
   -9.0659   10.8172    1.3239 C   0  0  0  0  0  0  0  0  0  0  0  0
   -8.8981   12.1173    1.8137 C   0  0  0  0  0  0  0  0  0  0  0  0
  5  4  1  0  0  0  0
  5  6  1  0  0  0  0
  7  8  2  0  0  0  0
  7 11  1  0  0  0  0
  8  9  1  0  0  0  0
  9 10  2  0  0  0  0
  9  6  1  0  0  0  0
 10  3  1  0  0  0  0
 11 12  1  0  0  0  0
 11 10  1  0  0  0  0
 12 18  1  0  0  0  0
 13  2  1  0  0  0  0
 13 14  2  0  0  0  0
 15 14  1  0  0  0  0
 15  1  1  0  0  0  0
 16 15  2  0  0  0  0
 17 18  2  0  0  0  0
 17 16  1  0  0  0  0
 18 13  1  0  0  0  0
M  END
>  <CHROM.1>
68.36946874,-49.61445670,-40.31790408,-86.91522390,-10.53783992,13.20319804
2.73845131,0.66807316,-0.18619920,3.06268554

>  <Name>
lig.pdb

>  <RI>
0

>  <Rbt.Current_Directory>
/home/itssahil/PROJECTS/Mol_Feturizer/New_Systems/rnas/4nyg

>  <Rbt.Executable>
rbdock ($Id: //depot/dev/client3/rdock/2013.1/src/exe/rbdock.cxx#4 $)

>  <Rbt.Library>
libRbt.so (2013.1, Build901 2013/11/27)

>  <Rbt.Parameter_File>
/export/apps/rDock/src/rDock_2013.1_src/data/scripts/dock_solv.prm

>  <Rbt.Receptor>
prm/blind_docking_40.prm

>  <SCORE>
-21.6492

>  <SCORE.INTER>
-22.3966

>  <SCORE.INTER.CONST>
1

>  <SCORE.INTER.POLAR>
0

>  <SCORE.INTER.ROT>
4

>  <SCORE.INTER.SOLV>
14.2778

>  <SCORE.INTER.VDW>
-25.957

>  <SCORE.INTER.norm>
-1.24425

>  <SCORE.INTRA>
0.379595

>  <SCORE.INTRA.DIHEDRAL>
0.426446

>  <SCORE.INTRA.DIHEDRAL.0>
3.20029

>  <SCORE.INTRA.POLAR>
0

>  <SCORE.INTRA.POLAR.0>
0

>  <SCORE.INTRA.REPUL>
0

>  <SCORE.INTRA.REPUL.0>
0

>  <SCORE.INTRA.SOLV>
0.892159

>  <SCORE.INTRA.SOLV.lig_0>
-19.3885

>  <SCORE.INTRA.VDW>
-0.279708

>  <SCORE.INTRA.VDW.0>
-1.12705

>  <SCORE.INTRA.norm>
0.0210886

>  <SCORE.RESTR>
0.367789

>  <SCORE.RESTR.CAVITY>
0.367789

>  <SCORE.RESTR.norm>
0.0204327

>  <SCORE.SYSTEM>
0

>  <SCORE.SYSTEM.CONST>
0

>  <SCORE.SYSTEM.DIHEDRAL>
0

>  <SCORE.SYSTEM.SOLV>
0

>  <SCORE.SYSTEM.norm>
0

>  <SCORE.heavy>
18

>  <SCORE.norm>
-1.20273

>  <RMSD>
7.647

$$$$
lig.pdb
 OpenBabel11021811503D
libRbt.so/2013.1/901 2013/11/27
 18 19  0  0  0  0  0  0  0  0999 V2000
   -3.9883   11.8704    1.3243 C   0  0  0  0  0  0  0  0  0  0  0  0
   -6.8614   15.4864   -0.1597 N   0  0  0  0  0  0  0  0  0  0  0  0
  -11.2793   16.1555    2.8511 C   0  0  0  0  0  0  0  0  0  0  0  0
  -15.3323   16.1436    3.7184 O   0  0  0  0  0  0  0  0  0  0  0  0
  -14.2418   15.5770    3.0051 C   0  0  0  0  0  0  0  0  0  0  0  0
  -13.6643   14.3766    3.7800 C   0  0  0  0  0  0  0  0  0  0  0  0
  -10.4148   12.6493    1.8654 C   0  0  0  0  0  0  0  0  0  0  0  0
  -11.9451   12.2873    2.5942 S   0  0  0  0  0  0  0  0  0  0  0  0
  -12.3986   13.9367    3.0781 C   0  0  0  0  0  0  0  0  0  0  0  0
  -11.3117   14.6512    2.6385 C   0  0  0  0  0  0  0  0  0  0  0  0
  -10.3047   13.9627    2.0190 N   0  0  0  0  0  0  0  0  0  0  0  0
   -9.0843   14.6669    1.4870 C   0  0  0  0  0  0  0  0  0  0  0  0
   -6.6947   14.3484    0.6293 C   0  0  0  0  0  0  0  0  0  0  0  0
   -5.5042   13.6747    0.6081 N   0  0  0  0  0  0  0  0  0  0  0  0
   -5.3190   12.5837    1.3561 C   0  0  0  0  0  0  0  0  0  0  0  0
   -6.2970   12.1233    2.1415 N   0  0  0  0  0  0  0  0  0  0  0  0
   -7.5043   12.7412    2.2169 C   0  0  0  0  0  0  0  0  0  0  0  0
   -7.7567   13.8922    1.4621 C   0  0  0  0  0  0  0  0  0  0  0  0
  5  4  1  0  0  0  0
  5  6  1  0  0  0  0
  7  8  2  0  0  0  0
  7 11  1  0  0  0  0
  8  9  1  0  0  0  0
  9 10  2  0  0  0  0
  9  6  1  0  0  0  0
 10  3  1  0  0  0  0
 11 12  1  0  0  0  0
 11 10  1  0  0  0  0
 12 18  1  0  0  0  0
 13  2  1  0  0  0  0
 13 14  2  0  0  0  0
 15 14  1  0  0  0  0
 15  1  1  0  0  0  0
 16 15  2  0  0  0  0
 17 18  2  0  0  0  0
 17 16  1  0  0  0  0
 18 13  1  0  0  0  0
M  END
>  <CHROM.1>
-172.28165740,-130.94386197,-31.15624996,161.56998208,-9.67464781,13.86641891
2.09371964,0.14419517,-0.30142520,2.89865998

>  <Name>
lig.pdb

>  <RI>
0

>  <Rbt.Current_Directory>
/home/itssahil/PROJECTS/Mol_Feturizer/New_Systems/rnas/4nyg

>  <Rbt.Executable>
rbdock ($Id: //depot/dev/client3/rdock/2013.1/src/exe/rbdock.cxx#4 $)

>  <Rbt.Library>
libRbt.so (2013.1, Build901 2013/11/27)

>  <Rbt.Parameter_File>
/export/apps/rDock/src/rDock_2013.1_src/data/scripts/dock_solv.prm

>  <Rbt.Receptor>
prm/pocket_docking_5.prm

>  <SCORE>
-17.2872

>  <SCORE.INTER>
-20.8111

>  <SCORE.INTER.CONST>
1

>  <SCORE.INTER.POLAR>
0

>  <SCORE.INTER.ROT>
4

>  <SCORE.INTER.SOLV>
11.3371

>  <SCORE.INTER.VDW>
-23.9198

>  <SCORE.INTER.norm>
-1.15617

>  <SCORE.INTRA>
3.52386

>  <SCORE.INTRA.DIHEDRAL>
2.67861

>  <SCORE.INTRA.DIHEDRAL.0>
3.20029

>  <SCORE.INTRA.POLAR>
0

>  <SCORE.INTRA.POLAR.0>
0

>  <SCORE.INTRA.REPUL>
0

>  <SCORE.INTRA.REPUL.0>
0

>  <SCORE.INTRA.SOLV>
0.171537

>  <SCORE.INTRA.SOLV.lig_0>
-19.3885

>  <SCORE.INTRA.VDW>
2.09879

>  <SCORE.INTRA.VDW.0>
-1.12705

>  <SCORE.INTRA.norm>
0.19577

>  <SCORE.RESTR>
0

>  <SCORE.RESTR.CAVITY>
0

>  <SCORE.RESTR.norm>
0

>  <SCORE.SYSTEM>
0

>  <SCORE.SYSTEM.CONST>
0

>  <SCORE.SYSTEM.DIHEDRAL>
0

>  <SCORE.SYSTEM.SOLV>
0

>  <SCORE.SYSTEM.norm>
0

>  <SCORE.heavy>
18

>  <SCORE.norm>
-0.960402

>  <RMSD>
7.656

$$$$
lig.pdb
 OpenBabel11021811503D
libRbt.so/2013.1/901 2013/11/27
 18 19  0  0  0  0  0  0  0  0999 V2000
   -6.0399    8.9442    4.0314 C   0  0  0  0  0  0  0  0  0  0  0  0
   -7.2184   13.6343    3.6485 N   0  0  0  0  0  0  0  0  0  0  0  0
  -10.3279   15.8992    2.0652 C   0  0  0  0  0  0  0  0  0  0  0  0
  -15.1376   16.6028    4.4635 O   0  0  0  0  0  0  0  0  0  0  0  0
  -14.3311   15.4933    4.0925 C   0  0  0  0  0  0  0  0  0  0  0  0
  -13.2879   15.9206    3.0418 C   0  0  0  0  0  0  0  0  0  0  0  0
  -11.3733   12.3134    2.3130 C   0  0  0  0  0  0  0  0  0  0  0  0
  -12.8748   13.0026    2.8369 S   0  0  0  0  0  0  0  0  0  0  0  0
  -12.4232   14.7188    2.7311 C   0  0  0  0  0  0  0  0  0  0  0  0
  -11.1235   14.6258    2.2988 C   0  0  0  0  0  0  0  0  0  0  0  0
  -10.6083   13.3751    2.0931 N   0  0  0  0  0  0  0  0  0  0  0  0
   -9.1988   13.1783    1.6003 C   0  0  0  0  0  0  0  0  0  0  0  0
   -7.4122   12.3214    3.2193 C   0  0  0  0  0  0  0  0  0  0  0  0
   -6.6811   11.3086    3.7775 N   0  0  0  0  0  0  0  0  0  0  0  0
   -6.8497   10.0431    3.3853 C   0  0  0  0  0  0  0  0  0  0  0  0
   -7.7367    9.7380    2.4338 N   0  0  0  0  0  0  0  0  0  0  0  0
   -8.5003   10.6896    1.8366 C   0  0  0  0  0  0  0  0  0  0  0  0
   -8.3741   12.0325    2.2090 C   0  0  0  0  0  0  0  0  0  0  0  0
  5  4  1  0  0  0  0
  5  6  1  0  0  0  0
  7  8  2  0  0  0  0
  7 11  1  0  0  0  0
  8  9  1  0  0  0  0
  9 10  2  0  0  0  0
  9  6  1  0  0  0  0
 10  3  1  0  0  0  0
 11 12  1  0  0  0  0
 11 10  1  0  0  0  0
 12 18  1  0  0  0  0
 13  2  1  0  0  0  0
 13 14  2  0  0  0  0
 15 14  1  0  0  0  0
 15  1  1  0  0  0  0
 16 15  2  0  0  0  0
 17 18  2  0  0  0  0
 17 16  1  0  0  0  0
 18 13  1  0  0  0  0
M  END
>  <CHROM.1>
177.57918898,27.85583025,-40.83446001,-100.66633038,-10.22591243,13.03585795
2.91337143,0.63097155,-0.03751960,3.13697198

>  <Name>
lig.pdb

>  <RI>
0

>  <Rbt.Current_Directory>
/home/itssahil/PROJECTS/Mol_Feturizer/New_Systems/rnas/4nyg

>  <Rbt.Executable>
rbdock ($Id: //depot/dev/client3/rdock/2013.1/src/exe/rbdock.cxx#4 $)

>  <Rbt.Library>
libRbt.so (2013.1, Build901 2013/11/27)

>  <Rbt.Parameter_File>
/export/apps/rDock/src/rDock_2013.1_src/data/scripts/dock_solv.prm

>  <Rbt.Receptor>
prm/pocket_docking_5.prm

>  <SCORE>
-23.6115

>  <SCORE.INTER>
-24.6966

>  <SCORE.INTER.CONST>
1

>  <SCORE.INTER.POLAR>
0

>  <SCORE.INTER.ROT>
4

>  <SCORE.INTER.SOLV>
12.645

>  <SCORE.INTER.VDW>
-26.9461

>  <SCORE.INTER.norm>
-1.37203

>  <SCORE.INTRA>
1.08515

>  <SCORE.INTRA.DIHEDRAL>
1.50747

>  <SCORE.INTRA.DIHEDRAL.0>
3.20029

>  <SCORE.INTRA.POLAR>
0

>  <SCORE.INTRA.POLAR.0>
0

>  <SCORE.INTRA.REPUL>
0

>  <SCORE.INTRA.REPUL.0>
0

>  <SCORE.INTRA.SOLV>
0.29128

>  <SCORE.INTRA.SOLV.lig_0>
-19.3885

>  <SCORE.INTRA.VDW>
0.185774

>  <SCORE.INTRA.VDW.0>
-1.12705

>  <SCORE.INTRA.norm>
0.0602861

>  <SCORE.RESTR>
0

>  <SCORE.RESTR.CAVITY>
0

>  <SCORE.RESTR.norm>
0

>  <SCORE.SYSTEM>
0

>  <SCORE.SYSTEM.CONST>
0

>  <SCORE.SYSTEM.DIHEDRAL>
0

>  <SCORE.SYSTEM.SOLV>
0

>  <SCORE.SYSTEM.norm>
0

>  <SCORE.heavy>
18

>  <SCORE.norm>
-1.31175

>  <RMSD>
7.665

$$$$
lig.pdb
 OpenBabel11021811503D
libRbt.so/2013.1/901 2013/11/27
 18 19  0  0  0  0  0  0  0  0999 V2000
   -5.8477    8.7451    4.3656 C   0  0  0  0  0  0  0  0  0  0  0  0
   -6.7679   13.5055    4.5194 N   0  0  0  0  0  0  0  0  0  0  0  0
  -10.1761   15.9884    2.5956 C   0  0  0  0  0  0  0  0  0  0  0  0
  -15.2727   16.2780    4.1061 O   0  0  0  0  0  0  0  0  0  0  0  0
  -14.3146   15.2478    3.9068 C   0  0  0  0  0  0  0  0  0  0  0  0
  -13.2667   15.6887    2.8664 C   0  0  0  0  0  0  0  0  0  0  0  0
  -10.8770   12.3115    2.5629 C   0  0  0  0  0  0  0  0  0  0  0  0
  -12.5209   12.8333    2.7344 S   0  0  0  0  0  0  0  0  0  0  0  0
  -12.2355   14.5879    2.7513 C   0  0  0  0  0  0  0  0  0  0  0  0
  -10.8690   14.6364    2.6282 C   0  0  0  0  0  0  0  0  0  0  0  0
  -10.1950   13.4494    2.5346 N   0  0  0  0  0  0  0  0  0  0  0  0
   -8.6979   13.4074    2.3769 C   0  0  0  0  0  0  0  0  0  0  0  0
   -7.0145   12.2659    3.9295 C   0  0  0  0  0  0  0  0  0  0  0  0
   -6.3564   11.1548    4.3814 N   0  0  0  0  0  0  0  0  0  0  0  0
   -6.5768    9.9563    3.8347 C   0  0  0  0  0  0  0  0  0  0  0  0
   -7.4453    9.8165    2.8290 N   0  0  0  0  0  0  0  0  0  0  0  0
   -8.1377   10.8734    2.3301 C   0  0  0  0  0  0  0  0  0  0  0  0
   -7.9549   12.1533    2.8654 C   0  0  0  0  0  0  0  0  0  0  0  0
  5  4  1  0  0  0  0
  5  6  1  0  0  0  0
  7  8  2  0  0  0  0
  7 11  1  0  0  0  0
  8  9  1  0  0  0  0
  9 10  2  0  0  0  0
  9  6  1  0  0  0  0
 10  3  1  0  0  0  0
 11 12  1  0  0  0  0
 11 10  1  0  0  0  0
 12 18  1  0  0  0  0
 13  2  1  0  0  0  0
 13 14  2  0  0  0  0
 15 14  1  0  0  0  0
 15  1  1  0  0  0  0
 16 15  2  0  0  0  0
 17 18  2  0  0  0  0
 17 16  1  0  0  0  0
 18 13  1  0  0  0  0
M  END
>  <CHROM.1>
176.98513688,40.70011772,-26.68879030,-116.64570527,-9.95060994,12.97137938
3.21029212,0.59033869,0.11157376,-3.07725805

>  <Name>
lig.pdb

>  <RI>
0

>  <Rbt.Current_Directory>
/home/itssahil/PROJECTS/Mol_Feturizer/New_Systems/rnas/4nyg

>  <Rbt.Executable>
rbdock ($Id: //depot/dev/client3/rdock/2013.1/src/exe/rbdock.cxx#4 $)

>  <Rbt.Library>
libRbt.so (2013.1, Build901 2013/11/27)

>  <Rbt.Parameter_File>
/export/apps/rDock/src/rDock_2013.1_src/data/scripts/dock_solv.prm

>  <Rbt.Receptor>
prm/pocket_docking_7.prm

>  <SCORE>
-22.9545

>  <SCORE.INTER>
-23.7086

>  <SCORE.INTER.CONST>
1

>  <SCORE.INTER.POLAR>
0

>  <SCORE.INTER.ROT>
4

>  <SCORE.INTER.SOLV>
11.2277

>  <SCORE.INTER.VDW>
-25.815

>  <SCORE.INTER.norm>
-1.31714

>  <SCORE.INTRA>
0.754094

>  <SCORE.INTRA.DIHEDRAL>
0.659349

>  <SCORE.INTRA.DIHEDRAL.0>
3.20029

>  <SCORE.INTRA.POLAR>
0

>  <SCORE.INTRA.POLAR.0>
0

>  <SCORE.INTRA.REPUL>
0

>  <SCORE.INTRA.REPUL.0>
0

>  <SCORE.INTRA.SOLV>
0.107313

>  <SCORE.INTRA.SOLV.lig_0>
-19.3885

>  <SCORE.INTRA.VDW>
0.370763

>  <SCORE.INTRA.VDW.0>
-1.12705

>  <SCORE.INTRA.norm>
0.0418941

>  <SCORE.RESTR>
0

>  <SCORE.RESTR.CAVITY>
0

>  <SCORE.RESTR.norm>
0

>  <SCORE.SYSTEM>
0

>  <SCORE.SYSTEM.CONST>
0

>  <SCORE.SYSTEM.DIHEDRAL>
0

>  <SCORE.SYSTEM.SOLV>
0

>  <SCORE.SYSTEM.norm>
0

>  <SCORE.heavy>
18

>  <SCORE.norm>
-1.27525

>  <RMSD>
7.670

$$$$
lig.pdb
 OpenBabel11021811503D
libRbt.so/2013.1/901 2013/11/27
 18 19  0  0  0  0  0  0  0  0999 V2000
   -4.6185   16.2611    0.3312 C   0  0  0  0  0  0  0  0  0  0  0  0
   -8.7823   14.1353   -0.9636 N   0  0  0  0  0  0  0  0  0  0  0  0
  -12.2866   12.8670    2.9049 C   0  0  0  0  0  0  0  0  0  0  0  0
  -16.0641   16.2839    4.7950 O   0  0  0  0  0  0  0  0  0  0  0  0
  -14.7302   16.3426    4.3088 C   0  0  0  0  0  0  0  0  0  0  0  0
  -14.4047   15.0771    3.4917 C   0  0  0  0  0  0  0  0  0  0  0  0
  -10.7338   16.1079    1.8577 C   0  0  0  0  0  0  0  0  0  0  0  0
  -12.2486   16.7656    2.3840 S   0  0  0  0  0  0  0  0  0  0  0  0
  -13.0245   15.2508    2.8974 C   0  0  0  0  0  0  0  0  0  0  0  0
  -12.0402   14.3374    2.6115 C   0  0  0  0  0  0  0  0  0  0  0  0
  -10.8719   14.8064    2.0756 N   0  0  0  0  0  0  0  0  0  0  0  0
   -9.7305   13.8796    1.7494 C   0  0  0  0  0  0  0  0  0  0  0  0
   -7.9542   14.6041    0.0562 C   0  0  0  0  0  0  0  0  0  0  0  0
   -6.7473   15.1691   -0.2535 N   0  0  0  0  0  0  0  0  0  0  0  0
   -5.9374   15.6274    0.7046 C   0  0  0  0  0  0  0  0  0  0  0  0
   -6.2882   15.5408    1.9910 N   0  0  0  0  0  0  0  0  0  0  0  0
   -7.4719   14.9956    2.3741 C   0  0  0  0  0  0  0  0  0  0  0  0
   -8.3657   14.5038    1.4163 C   0  0  0  0  0  0  0  0  0  0  0  0
  5  4  1  0  0  0  0
  5  6  1  0  0  0  0
  7  8  2  0  0  0  0
  7 11  1  0  0  0  0
  8  9  1  0  0  0  0
  9 10  2  0  0  0  0
  9  6  1  0  0  0  0
 10  3  1  0  0  0  0
 11 12  1  0  0  0  0
 11 10  1  0  0  0  0
 12 18  1  0  0  0  0
 13  2  1  0  0  0  0
 13 14  2  0  0  0  0
 15 14  1  0  0  0  0
 15  1  1  0  0  0  0
 16 15  2  0  0  0  0
 17 18  2  0  0  0  0
 17 16  1  0  0  0  0
 18 13  1  0  0  0  0
M  END
>  <CHROM.1>
174.94049823,-31.78825076,10.84315938,-101.35290104,-10.33932135,15.26530188
1.99399371,-0.17489452,0.34357076,0.34479010

>  <Name>
lig.pdb

>  <RI>
0

>  <Rbt.Current_Directory>
/home/itssahil/PROJECTS/Mol_Feturizer/New_Systems/rnas/4nyg

>  <Rbt.Executable>
rbdock ($Id: //depot/dev/client3/rdock/2013.1/src/exe/rbdock.cxx#4 $)

>  <Rbt.Library>
libRbt.so (2013.1, Build901 2013/11/27)

>  <Rbt.Parameter_File>
/export/apps/rDock/src/rDock_2013.1_src/data/scripts/dock_solv.prm

>  <Rbt.Receptor>
prm/pocket_docking_5.prm

>  <SCORE>
-20.98

>  <SCORE.INTER>
-22.0798

>  <SCORE.INTER.CONST>
1

>  <SCORE.INTER.POLAR>
0

>  <SCORE.INTER.ROT>
4

>  <SCORE.INTER.SOLV>
14.5181

>  <SCORE.INTER.VDW>
-25.8259

>  <SCORE.INTER.norm>
-1.22665

>  <SCORE.INTRA>
1.09978

>  <SCORE.INTRA.DIHEDRAL>
1.18814

>  <SCORE.INTRA.DIHEDRAL.0>
3.20029

>  <SCORE.INTRA.POLAR>
0

>  <SCORE.INTRA.POLAR.0>
0

>  <SCORE.INTRA.REPUL>
0

>  <SCORE.INTRA.REPUL.0>
0

>  <SCORE.INTRA.SOLV>
0.229323

>  <SCORE.INTRA.SOLV.lig_0>
-19.3885

>  <SCORE.INTRA.VDW>
0.391054

>  <SCORE.INTRA.VDW.0>
-1.12705

>  <SCORE.INTRA.norm>
0.061099

>  <SCORE.RESTR>
0

>  <SCORE.RESTR.CAVITY>
0

>  <SCORE.RESTR.norm>
0

>  <SCORE.SYSTEM>
0

>  <SCORE.SYSTEM.CONST>
0

>  <SCORE.SYSTEM.DIHEDRAL>
0

>  <SCORE.SYSTEM.SOLV>
0

>  <SCORE.SYSTEM.norm>
0

>  <SCORE.heavy>
18

>  <SCORE.norm>
-1.16555

>  <RMSD>
7.687

$$$$
lig.pdb
 OpenBabel11021811503D
libRbt.so/2013.1/901 2013/11/27
 18 19  0  0  0  0  0  0  0  0999 V2000
   -6.5048    8.7965    3.2262 C   0  0  0  0  0  0  0  0  0  0  0  0
   -7.4925   13.5410    3.4429 N   0  0  0  0  0  0  0  0  0  0  0  0
  -10.5637   16.1598    2.0076 C   0  0  0  0  0  0  0  0  0  0  0  0
  -15.2331   16.9488    4.7352 O   0  0  0  0  0  0  0  0  0  0  0  0
  -14.5107   15.8203    4.2623 C   0  0  0  0  0  0  0  0  0  0  0  0
  -13.4037   16.2665    3.2874 C   0  0  0  0  0  0  0  0  0  0  0  0
  -11.6769   12.6054    2.3801 C   0  0  0  0  0  0  0  0  0  0  0  0
  -13.0958   13.3376    3.0545 S   0  0  0  0  0  0  0  0  0  0  0  0
  -12.6101   15.0402    2.8940 C   0  0  0  0  0  0  0  0  0  0  0  0
  -11.3656   14.9098    2.3290 C   0  0  0  0  0  0  0  0  0  0  0  0
  -10.9098   13.6446    2.0766 N   0  0  0  0  0  0  0  0  0  0  0  0
   -9.5655   13.4073    1.4405 C   0  0  0  0  0  0  0  0  0  0  0  0
   -7.7587   12.2966    2.8719 C   0  0  0  0  0  0  0  0  0  0  0  0
   -7.0519   11.1974    3.2770 N   0  0  0  0  0  0  0  0  0  0  0  0
   -7.2896    9.9946    2.7473 C   0  0  0  0  0  0  0  0  0  0  0  0
   -8.2238    9.8387    1.8048 N   0  0  0  0  0  0  0  0  0  0  0  0
   -8.9671   10.8830    1.3553 C   0  0  0  0  0  0  0  0  0  0  0  0
   -8.7691   12.1666    1.8762 C   0  0  0  0  0  0  0  0  0  0  0  0
  5  4  1  0  0  0  0
  5  6  1  0  0  0  0
  7  8  2  0  0  0  0
  7 11  1  0  0  0  0
  8  9  1  0  0  0  0
  9 10  2  0  0  0  0
  9  6  1  0  0  0  0
 10  3  1  0  0  0  0
 11 12  1  0  0  0  0
 11 10  1  0  0  0  0
 12 18  1  0  0  0  0
 13  2  1  0  0  0  0
 13 14  2  0  0  0  0
 15 14  1  0  0  0  0
 15  1  1  0  0  0  0
 16 15  2  0  0  0  0
 17 18  2  0  0  0  0
 17 16  1  0  0  0  0
 18 13  1  0  0  0  0
M  END
>  <CHROM.1>
176.11402671,18.01344407,-35.43432049,-96.90016093,-10.52281388,13.21602526
2.77651037,0.68269186,-0.15615099,-3.13850784

>  <Name>
lig.pdb

>  <RI>
0

>  <Rbt.Current_Directory>
/home/itssahil/PROJECTS/Mol_Feturizer/New_Systems/rnas/4nyg

>  <Rbt.Executable>
rbdock ($Id: //depot/dev/client3/rdock/2013.1/src/exe/rbdock.cxx#4 $)

>  <Rbt.Library>
libRbt.so (2013.1, Build901 2013/11/27)

>  <Rbt.Parameter_File>
/export/apps/rDock/src/rDock_2013.1_src/data/scripts/dock_solv.prm

>  <Rbt.Receptor>
prm/blind_docking_60.prm

>  <SCORE>
-19.6984

>  <SCORE.INTER>
-21.8156

>  <SCORE.INTER.CONST>
1

>  <SCORE.INTER.POLAR>
0

>  <SCORE.INTER.ROT>
4

>  <SCORE.INTER.SOLV>
14.5928

>  <SCORE.INTER.VDW>
-25.6747

>  <SCORE.INTER.norm>
-1.21198

>  <SCORE.INTRA>
1.64291

>  <SCORE.INTRA.DIHEDRAL>
2.18684

>  <SCORE.INTRA.DIHEDRAL.0>
3.20029

>  <SCORE.INTRA.POLAR>
0

>  <SCORE.INTRA.POLAR.0>
0

>  <SCORE.INTRA.REPUL>
0

>  <SCORE.INTRA.REPUL.0>
0

>  <SCORE.INTRA.SOLV>
0.30784

>  <SCORE.INTRA.SOLV.lig_0>
-19.3885

>  <SCORE.INTRA.VDW>
0.395577

>  <SCORE.INTRA.VDW.0>
-1.12705

>  <SCORE.INTRA.norm>
0.091273

>  <SCORE.RESTR>
0.474313

>  <SCORE.RESTR.CAVITY>
0.474313

>  <SCORE.RESTR.norm>
0.0263507

>  <SCORE.SYSTEM>
0

>  <SCORE.SYSTEM.CONST>
0

>  <SCORE.SYSTEM.DIHEDRAL>
0

>  <SCORE.SYSTEM.SOLV>
0

>  <SCORE.SYSTEM.norm>
0

>  <SCORE.heavy>
18

>  <SCORE.norm>
-1.09436

>  <RMSD>
7.695

$$$$
lig.pdb
 OpenBabel11021811503D
libRbt.so/2013.1/901 2013/11/27
 18 19  0  0  0  0  0  0  0  0999 V2000
   -6.4972    8.8825    3.2323 C   0  0  0  0  0  0  0  0  0  0  0  0
   -7.4161   13.6390    3.4859 N   0  0  0  0  0  0  0  0  0  0  0  0
  -10.6634   16.2734    1.8485 C   0  0  0  0  0  0  0  0  0  0  0  0
  -15.3483   14.9266    3.8951 O   0  0  0  0  0  0  0  0  0  0  0  0
  -14.4467   15.9688    4.2414 C   0  0  0  0  0  0  0  0  0  0  0  0
  -13.5428   16.3121    3.0414 C   0  0  0  0  0  0  0  0  0  0  0  0
  -11.6006   12.6971    2.4347 C   0  0  0  0  0  0  0  0  0  0  0  0
  -13.0755   13.3952    3.0189 S   0  0  0  0  0  0  0  0  0  0  0  0
  -12.6747   15.1069    2.7547 C   0  0  0  0  0  0  0  0  0  0  0  0
  -11.4085   15.0063    2.2335 C   0  0  0  0  0  0  0  0  0  0  0  0
  -10.8798   13.7536    2.0811 N   0  0  0  0  0  0  0  0  0  0  0  0
   -9.5062   13.5470    1.4991 C   0  0  0  0  0  0  0  0  0  0  0  0
   -7.7043   12.4020    2.9095 C   0  0  0  0  0  0  0  0  0  0  0  0
   -7.0100   11.2905    3.3022 N   0  0  0  0  0  0  0  0  0  0  0  0
   -7.2687   10.0945    2.7670 C   0  0  0  0  0  0  0  0  0  0  0  0
   -8.2123    9.9577    1.8309 N   0  0  0  0  0  0  0  0  0  0  0  0
   -8.9442   11.0151    1.3936 C   0  0  0  0  0  0  0  0  0  0  0  0
   -8.7241   12.2925    1.9209 C   0  0  0  0  0  0  0  0  0  0  0  0
  5  4  1  0  0  0  0
  5  6  1  0  0  0  0
  7  8  2  0  0  0  0
  7 11  1  0  0  0  0
  8  9  1  0  0  0  0
  9 10  2  0  0  0  0
  9  6  1  0  0  0  0
 10  3  1  0  0  0  0
 11 12  1  0  0  0  0
 11 10  1  0  0  0  0
 12 18  1  0  0  0  0
 13  2  1  0  0  0  0
 13 14  2  0  0  0  0
 15 14  1  0  0  0  0
 15  1  1  0  0  0  0
 16 15  2  0  0  0  0
 17 18  2  0  0  0  0
 17 16  1  0  0  0  0
 18 13  1  0  0  0  0
M  END
>  <CHROM.1>
-65.35085511,30.60686295,-28.53825868,-100.72692331,-10.51944104,13.18513457
2.70482827,0.61383548,-0.16606853,3.04177125

>  <Name>
lig.pdb

>  <RI>
0

>  <Rbt.Current_Directory>
/home/itssahil/PROJECTS/Mol_Feturizer/New_Systems/rnas/4nyg

>  <Rbt.Executable>
rbdock ($Id: //depot/dev/client3/rdock/2013.1/src/exe/rbdock.cxx#4 $)

>  <Rbt.Library>
libRbt.so (2013.1, Build901 2013/11/27)

>  <Rbt.Parameter_File>
/export/apps/rDock/src/rDock_2013.1_src/data/scripts/dock_solv.prm

>  <Rbt.Receptor>
prm/blind_docking_100.prm

>  <SCORE>
-19.7134

>  <SCORE.INTER>
-21.7505

>  <SCORE.INTER.CONST>
1

>  <SCORE.INTER.POLAR>
0

>  <SCORE.INTER.ROT>
4

>  <SCORE.INTER.SOLV>
14.0973

>  <SCORE.INTER.VDW>
-25.4661

>  <SCORE.INTER.norm>
-1.20836

>  <SCORE.INTRA>
1.51265

>  <SCORE.INTRA.DIHEDRAL>
1.40844

>  <SCORE.INTRA.DIHEDRAL.0>
3.20029

>  <SCORE.INTRA.POLAR>
0

>  <SCORE.INTRA.POLAR.0>
0

>  <SCORE.INTRA.REPUL>
0

>  <SCORE.INTRA.REPUL.0>
0

>  <SCORE.INTRA.SOLV>
0.659354

>  <SCORE.INTRA.SOLV.lig_0>
-19.3885

>  <SCORE.INTRA.VDW>
0.478747

>  <SCORE.INTRA.VDW.0>
-1.12705

>  <SCORE.INTRA.norm>
0.0840359

>  <SCORE.RESTR>
0.524438

>  <SCORE.RESTR.CAVITY>
0.524438

>  <SCORE.RESTR.norm>
0.0291354

>  <SCORE.SYSTEM>
0

>  <SCORE.SYSTEM.CONST>
0

>  <SCORE.SYSTEM.DIHEDRAL>
0

>  <SCORE.SYSTEM.SOLV>
0

>  <SCORE.SYSTEM.norm>
0

>  <SCORE.heavy>
18

>  <SCORE.norm>
-1.09519

>  <RMSD>
7.696

$$$$
lig.pdb
 OpenBabel11021811503D
libRbt.so/2013.1/901 2013/11/27
 18 19  0  0  0  0  0  0  0  0999 V2000
   -6.4923    8.8422    3.1821 C   0  0  0  0  0  0  0  0  0  0  0  0
   -7.6591   13.5435    3.4432 N   0  0  0  0  0  0  0  0  0  0  0  0
  -10.5316   16.1460    2.0597 C   0  0  0  0  0  0  0  0  0  0  0  0
  -15.2758   16.9876    4.7551 O   0  0  0  0  0  0  0  0  0  0  0  0
  -14.6886   15.9662    3.9608 C   0  0  0  0  0  0  0  0  0  0  0  0
  -13.2484   16.3541    3.5733 C   0  0  0  0  0  0  0  0  0  0  0  0
  -11.7467   12.6349    2.5147 C   0  0  0  0  0  0  0  0  0  0  0  0
  -13.0748   13.4170    3.3075 S   0  0  0  0  0  0  0  0  0  0  0  0
  -12.5386   15.1007    3.1115 C   0  0  0  0  0  0  0  0  0  0  0  0
  -11.3517   14.9259    2.4438 C   0  0  0  0  0  0  0  0  0  0  0  0
  -10.9679   13.6457    2.1508 N   0  0  0  0  0  0  0  0  0  0  0  0
   -9.6918   13.3606    1.4036 C   0  0  0  0  0  0  0  0  0  0  0  0
   -7.8693   12.2980    2.8516 C   0  0  0  0  0  0  0  0  0  0  0  0
   -7.1290   11.2203    3.2546 N   0  0  0  0  0  0  0  0  0  0  0  0
   -7.3129   10.0168    2.7053 C   0  0  0  0  0  0  0  0  0  0  0  0
   -8.2247    9.8394    1.7448 N   0  0  0  0  0  0  0  0  0  0  0  0
   -8.9986   10.8616    1.2960 C   0  0  0  0  0  0  0  0  0  0  0  0
   -8.8573   12.1444    1.8369 C   0  0  0  0  0  0  0  0  0  0  0  0
  5  4  1  0  0  0  0
  5  6  1  0  0  0  0
  7  8  2  0  0  0  0
  7 11  1  0  0  0  0
  8  9  1  0  0  0  0
  9 10  2  0  0  0  0
  9  6  1  0  0  0  0
 10  3  1  0  0  0  0
 11 12  1  0  0  0  0
 11 10  1  0  0  0  0
 12 18  1  0  0  0  0
 13  2  1  0  0  0  0
 13 14  2  0  0  0  0
 15 14  1  0  0  0  0
 15  1  1  0  0  0  0
 16 15  2  0  0  0  0
 17 18  2  0  0  0  0
 17 16  1  0  0  0  0
 18 13  1  0  0  0  0
M  END
>  <CHROM.1>
163.01931675,-13.09029017,-39.82696557,-88.71383694,-10.55570206,13.24534022
2.82017988,0.68909893,-0.18153714,3.13978938

>  <Name>
lig.pdb

>  <RI>
0

>  <Rbt.Current_Directory>
/home/itssahil/PROJECTS/Mol_Feturizer/New_Systems/rnas/4nyg

>  <Rbt.Executable>
rbdock ($Id: //depot/dev/client3/rdock/2013.1/src/exe/rbdock.cxx#4 $)

>  <Rbt.Library>
libRbt.so (2013.1, Build901 2013/11/27)

>  <Rbt.Parameter_File>
/export/apps/rDock/src/rDock_2013.1_src/data/scripts/dock_solv.prm

>  <Rbt.Receptor>
prm/blind_docking_40.prm

>  <SCORE>
-19.6308

>  <SCORE.INTER>
-22.2544

>  <SCORE.INTER.CONST>
1

>  <SCORE.INTER.POLAR>
0

>  <SCORE.INTER.ROT>
4

>  <SCORE.INTER.SOLV>
14.922

>  <SCORE.INTER.VDW>
-26.0769

>  <SCORE.INTER.norm>
-1.23635

>  <SCORE.INTRA>
2.26447

>  <SCORE.INTRA.DIHEDRAL>
3.37967

>  <SCORE.INTRA.DIHEDRAL.0>
3.20029

>  <SCORE.INTRA.POLAR>
0

>  <SCORE.INTRA.POLAR.0>
0

>  <SCORE.INTRA.REPUL>
0

>  <SCORE.INTRA.REPUL.0>
0

>  <SCORE.INTRA.SOLV>
0.462392

>  <SCORE.INTRA.SOLV.lig_0>
-19.3885

>  <SCORE.INTRA.VDW>
0.343439

>  <SCORE.INTRA.VDW.0>
-1.12705

>  <SCORE.INTRA.norm>
0.125804

>  <SCORE.RESTR>
0.359115

>  <SCORE.RESTR.CAVITY>
0.359115

>  <SCORE.RESTR.norm>
0.0199508

>  <SCORE.SYSTEM>
0

>  <SCORE.SYSTEM.CONST>
0

>  <SCORE.SYSTEM.DIHEDRAL>
0

>  <SCORE.SYSTEM.SOLV>
0

>  <SCORE.SYSTEM.norm>
0

>  <SCORE.heavy>
18

>  <SCORE.norm>
-1.0906

>  <RMSD>
7.697

$$$$
lig.pdb
 OpenBabel11021811503D
libRbt.so/2013.1/901 2013/11/27
 18 19  0  0  0  0  0  0  0  0999 V2000
   -4.7335   15.9771    0.0609 C   0  0  0  0  0  0  0  0  0  0  0  0
   -7.5245   14.6999    3.8174 N   0  0  0  0  0  0  0  0  0  0  0  0
  -12.3735   13.0223    3.2622 C   0  0  0  0  0  0  0  0  0  0  0  0
  -16.0972   16.4452    4.9589 O   0  0  0  0  0  0  0  0  0  0  0  0
  -14.7838   16.5113    4.4206 C   0  0  0  0  0  0  0  0  0  0  0  0
  -14.5065   15.2781    3.5390 C   0  0  0  0  0  0  0  0  0  0  0  0
  -10.7490   16.1561    2.0163 C   0  0  0  0  0  0  0  0  0  0  0  0
  -12.2855   16.8595    2.4018 S   0  0  0  0  0  0  0  0  0  0  0  0
  -13.0961   15.3969    3.0053 C   0  0  0  0  0  0  0  0  0  0  0  0
  -12.1034   14.4607    2.8535 C   0  0  0  0  0  0  0  0  0  0  0  0
  -10.9059   14.8791    2.3407 N   0  0  0  0  0  0  0  0  0  0  0  0
   -9.7544   13.9257    2.1582 C   0  0  0  0  0  0  0  0  0  0  0  0
   -7.3808   14.8398    2.4371 C   0  0  0  0  0  0  0  0  0  0  0  0
   -6.2082   15.3195    1.9207 N   0  0  0  0  0  0  0  0  0  0  0  0
   -6.0451   15.4606    0.6026 C   0  0  0  0  0  0  0  0  0  0  0  0
   -7.0282   15.1382   -0.2429 N   0  0  0  0  0  0  0  0  0  0  0  0
   -8.2186   14.6530    0.1962 C   0  0  0  0  0  0  0  0  0  0  0  0
   -8.4474   14.4767    1.5654 C   0  0  0  0  0  0  0  0  0  0  0  0
  5  4  1  0  0  0  0
  5  6  1  0  0  0  0
  7  8  2  0  0  0  0
  7 11  1  0  0  0  0
  8  9  1  0  0  0  0
  9 10  2  0  0  0  0
  9  6  1  0  0  0  0
 10  3  1  0  0  0  0
 11 12  1  0  0  0  0
 11 10  1  0  0  0  0
 12 18  1  0  0  0  0
 13  2  1  0  0  0  0
 13 14  2  0  0  0  0
 15 14  1  0  0  0  0
 15  1  1  0  0  0  0
 16 15  2  0  0  0  0
 17 18  2  0  0  0  0
 17 16  1  0  0  0  0
 18 13  1  0  0  0  0
M  END
>  <CHROM.1>
-179.52640322,-41.04622556,-1.49259329,97.91192082,-10.33880746,15.32167423
2.33472412,0.06100002,0.35121904,-0.40072060

>  <Name>
lig.pdb

>  <RI>
0

>  <Rbt.Current_Directory>
/home/itssahil/PROJECTS/Mol_Feturizer/New_Systems/rnas/4nyg

>  <Rbt.Executable>
rbdock ($Id: //depot/dev/client3/rdock/2013.1/src/exe/rbdock.cxx#4 $)

>  <Rbt.Library>
libRbt.so (2013.1, Build901 2013/11/27)

>  <Rbt.Parameter_File>
/export/apps/rDock/src/rDock_2013.1_src/data/scripts/dock_solv.prm

>  <Rbt.Receptor>
prm/pocket_docking_8.prm

>  <SCORE>
-20.4405

>  <SCORE.INTER>
-21.0934

>  <SCORE.INTER.CONST>
1

>  <SCORE.INTER.POLAR>
0

>  <SCORE.INTER.ROT>
4

>  <SCORE.INTER.SOLV>
12.7443

>  <SCORE.INTER.VDW>
-24.5771

>  <SCORE.INTER.norm>
-1.17186

>  <SCORE.INTRA>
0.652928

>  <SCORE.INTRA.DIHEDRAL>
0.523325

>  <SCORE.INTRA.DIHEDRAL.0>
3.20029

>  <SCORE.INTRA.POLAR>
0

>  <SCORE.INTRA.POLAR.0>
0

>  <SCORE.INTRA.REPUL>
0

>  <SCORE.INTRA.REPUL.0>
0

>  <SCORE.INTRA.SOLV>
0.238932

>  <SCORE.INTRA.SOLV.lig_0>
-19.3885

>  <SCORE.INTRA.VDW>
0.2718

>  <SCORE.INTRA.VDW.0>
-1.12705

>  <SCORE.INTRA.norm>
0.0362738

>  <SCORE.RESTR>
0

>  <SCORE.RESTR.CAVITY>
0

>  <SCORE.RESTR.norm>
0

>  <SCORE.SYSTEM>
0

>  <SCORE.SYSTEM.CONST>
0

>  <SCORE.SYSTEM.DIHEDRAL>
0

>  <SCORE.SYSTEM.SOLV>
0

>  <SCORE.SYSTEM.norm>
0

>  <SCORE.heavy>
18

>  <SCORE.norm>
-1.13558

>  <RMSD>
7.701

$$$$
lig.pdb
 OpenBabel11021811503D
libRbt.so/2013.1/901 2013/11/27
 18 19  0  0  0  0  0  0  0  0999 V2000
   -4.7920   16.1085    0.0499 C   0  0  0  0  0  0  0  0  0  0  0  0
   -7.8594   15.1206    3.6758 N   0  0  0  0  0  0  0  0  0  0  0  0
  -12.3944   12.9831    3.1560 C   0  0  0  0  0  0  0  0  0  0  0  0
  -16.0912   16.4499    4.9784 O   0  0  0  0  0  0  0  0  0  0  0  0
  -14.7833   16.5013    4.4254 C   0  0  0  0  0  0  0  0  0  0  0  0
  -14.5060   15.2335    3.5942 C   0  0  0  0  0  0  0  0  0  0  0  0
  -10.8249   16.1461    1.9135 C   0  0  0  0  0  0  0  0  0  0  0  0
  -12.3391   16.8411    2.3912 S   0  0  0  0  0  0  0  0  0  0  0  0
  -13.1229   15.3644    2.9957 C   0  0  0  0  0  0  0  0  0  0  0  0
  -12.1411   14.4313    2.7718 C   0  0  0  0  0  0  0  0  0  0  0  0
  -10.9689   14.8613    2.2122 N   0  0  0  0  0  0  0  0  0  0  0  0
   -9.8300   13.9117    1.9495 C   0  0  0  0  0  0  0  0  0  0  0  0
   -7.5801   15.0759    2.3100 C   0  0  0  0  0  0  0  0  0  0  0  0
   -6.4007   15.5858    1.8401 N   0  0  0  0  0  0  0  0  0  0  0  0
   -6.1089   15.5529    0.5372 C   0  0  0  0  0  0  0  0  0  0  0  0
   -6.9669   15.0224   -0.3390 N   0  0  0  0  0  0  0  0  0  0  0  0
   -8.1552   14.4944    0.0539 C   0  0  0  0  0  0  0  0  0  0  0  0
   -8.5148   14.4937    1.4063 C   0  0  0  0  0  0  0  0  0  0  0  0
  5  4  1  0  0  0  0
  5  6  1  0  0  0  0
  7  8  2  0  0  0  0
  7 11  1  0  0  0  0
  8  9  1  0  0  0  0
  9 10  2  0  0  0  0
  9  6  1  0  0  0  0
 10  3  1  0  0  0  0
 11 12  1  0  0  0  0
 11 10  1  0  0  0  0
 12 18  1  0  0  0  0
 13  2  1  0  0  0  0
 13 14  2  0  0  0  0
 15 14  1  0  0  0  0
 15  1  1  0  0  0  0
 16 15  2  0  0  0  0
 17 18  2  0  0  0  0
 17 16  1  0  0  0  0
 18 13  1  0  0  0  0
M  END
>  <CHROM.1>
178.17501615,-36.37141027,3.00347614,82.27216474,-10.40049080,15.35549616
2.26365753,-0.05373816,0.36852188,-0.02732888

>  <Name>
lig.pdb

>  <RI>
0

>  <Rbt.Current_Directory>
/home/itssahil/PROJECTS/Mol_Feturizer/New_Systems/rnas/4nyg

>  <Rbt.Executable>
rbdock ($Id: //depot/dev/client3/rdock/2013.1/src/exe/rbdock.cxx#4 $)

>  <Rbt.Library>
libRbt.so (2013.1, Build901 2013/11/27)

>  <Rbt.Parameter_File>
/export/apps/rDock/src/rDock_2013.1_src/data/scripts/dock_solv.prm

>  <Rbt.Receptor>
prm/pocket_docking_7.prm

>  <SCORE>
-21.0786

>  <SCORE.INTER>
-21.8824

>  <SCORE.INTER.CONST>
1

>  <SCORE.INTER.POLAR>
0

>  <SCORE.INTER.ROT>
4

>  <SCORE.INTER.SOLV>
13.298

>  <SCORE.INTER.VDW>
-25.2876

>  <SCORE.INTER.norm>
-1.21569

>  <SCORE.INTRA>
0.803812

>  <SCORE.INTRA.DIHEDRAL>
0.813455

>  <SCORE.INTRA.DIHEDRAL.0>
3.20029

>  <SCORE.INTRA.POLAR>
0

>  <SCORE.INTRA.POLAR.0>
0

>  <SCORE.INTRA.REPUL>
0

>  <SCORE.INTRA.REPUL.0>
0

>  <SCORE.INTRA.SOLV>
0.40983

>  <SCORE.INTRA.SOLV.lig_0>
-19.3885

>  <SCORE.INTRA.VDW>
0.192169

>  <SCORE.INTRA.VDW.0>
-1.12705

>  <SCORE.INTRA.norm>
0.0446562

>  <SCORE.RESTR>
0

>  <SCORE.RESTR.CAVITY>
0

>  <SCORE.RESTR.norm>
0

>  <SCORE.SYSTEM>
0

>  <SCORE.SYSTEM.CONST>
0

>  <SCORE.SYSTEM.DIHEDRAL>
0

>  <SCORE.SYSTEM.SOLV>
0

>  <SCORE.SYSTEM.norm>
0

>  <SCORE.heavy>
18

>  <SCORE.norm>
-1.17103

>  <RMSD>
7.721

$$$$
lig.pdb
 OpenBabel11021811503D
libRbt.so/2013.1/901 2013/11/27
 18 19  0  0  0  0  0  0  0  0999 V2000
   -6.5568    8.8948    3.1072 C   0  0  0  0  0  0  0  0  0  0  0  0
   -7.4280   13.6496    3.5138 N   0  0  0  0  0  0  0  0  0  0  0  0
  -10.8380   16.2974    1.9964 C   0  0  0  0  0  0  0  0  0  0  0  0
  -15.2795   17.0075    4.7616 O   0  0  0  0  0  0  0  0  0  0  0  0
  -14.5422   15.8711    4.3328 C   0  0  0  0  0  0  0  0  0  0  0  0
  -13.7748   16.1922    3.0355 C   0  0  0  0  0  0  0  0  0  0  0  0
  -11.6855   12.6706    2.3706 C   0  0  0  0  0  0  0  0  0  0  0  0
  -13.2109   13.2952    2.9065 S   0  0  0  0  0  0  0  0  0  0  0  0
  -12.8537   15.0288    2.7412 C   0  0  0  0  0  0  0  0  0  0  0  0
  -11.5597   14.9915    2.2839 C   0  0  0  0  0  0  0  0  0  0  0  0
  -10.9828   13.7640    2.1036 N   0  0  0  0  0  0  0  0  0  0  0  0
   -9.5750   13.6270    1.5864 C   0  0  0  0  0  0  0  0  0  0  0  0
   -7.7430   12.4308    2.9132 C   0  0  0  0  0  0  0  0  0  0  0  0
   -7.0471   11.3039    3.2560 N   0  0  0  0  0  0  0  0  0  0  0  0
   -7.3311   10.1247    2.6968 C   0  0  0  0  0  0  0  0  0  0  0  0
   -8.3023   10.0203    1.7850 N   0  0  0  0  0  0  0  0  0  0  0  0
   -9.0375   11.0947    1.3973 C   0  0  0  0  0  0  0  0  0  0  0  0
   -8.7916   12.3557    1.9519 C   0  0  0  0  0  0  0  0  0  0  0  0
  5  4  1  0  0  0  0
  5  6  1  0  0  0  0
  7  8  2  0  0  0  0
  7 11  1  0  0  0  0
  8  9  1  0  0  0  0
  9 10  2  0  0  0  0
  9  6  1  0  0  0  0
 10  3  1  0  0  0  0
 11 12  1  0  0  0  0
 11 10  1  0  0  0  0
 12 18  1  0  0  0  0
 13  2  1  0  0  0  0
 13 14  2  0  0  0  0
 15 14  1  0  0  0  0
 15  1  1  0  0  0  0
 16 15  2  0  0  0  0
 17 18  2  0  0  0  0
 17 16  1  0  0  0  0
 18 13  1  0  0  0  0
M  END
>  <CHROM.1>
171.67220478,41.11431199,-26.45088901,-106.66786798,-10.61101650,13.30369822
2.74931745,0.66906922,-0.10268709,-3.08845386

>  <Name>
lig.pdb

>  <RI>
0

>  <Rbt.Current_Directory>
/home/itssahil/PROJECTS/Mol_Feturizer/New_Systems/rnas/4nyg

>  <Rbt.Executable>
rbdock ($Id: //depot/dev/client3/rdock/2013.1/src/exe/rbdock.cxx#4 $)

>  <Rbt.Library>
libRbt.so (2013.1, Build901 2013/11/27)

>  <Rbt.Parameter_File>
/export/apps/rDock/src/rDock_2013.1_src/data/scripts/dock_solv.prm

>  <Rbt.Receptor>
prm/blind_docking_100.prm

>  <SCORE>
-19.0004

>  <SCORE.INTER>
-20.0522

>  <SCORE.INTER.CONST>
1

>  <SCORE.INTER.POLAR>
0

>  <SCORE.INTER.ROT>
4

>  <SCORE.INTER.SOLV>
14.3213

>  <SCORE.INTER.VDW>
-24.4085

>  <SCORE.INTER.norm>
-1.11401

>  <SCORE.INTRA>
0.691653

>  <SCORE.INTRA.DIHEDRAL>
0.858802

>  <SCORE.INTRA.DIHEDRAL.0>
3.20029

>  <SCORE.INTRA.POLAR>
0

>  <SCORE.INTRA.POLAR.0>
0

>  <SCORE.INTRA.REPUL>
0

>  <SCORE.INTRA.REPUL.0>
0

>  <SCORE.INTRA.SOLV>
0.141694

>  <SCORE.INTRA.SOLV.lig_0>
-19.3885

>  <SCORE.INTRA.VDW>
0.191405

>  <SCORE.INTRA.VDW.0>
-1.12705

>  <SCORE.INTRA.norm>
0.0384252

>  <SCORE.RESTR>
0.360082

>  <SCORE.RESTR.CAVITY>
0.360082

>  <SCORE.RESTR.norm>
0.0200046

>  <SCORE.SYSTEM>
0

>  <SCORE.SYSTEM.CONST>
0

>  <SCORE.SYSTEM.DIHEDRAL>
0

>  <SCORE.SYSTEM.SOLV>
0

>  <SCORE.SYSTEM.norm>
0

>  <SCORE.heavy>
18

>  <SCORE.norm>
-1.05558

>  <RMSD>
7.745

$$$$
lig.pdb
 OpenBabel11021811503D
libRbt.so/2013.1/901 2013/11/27
 18 19  0  0  0  0  0  0  0  0999 V2000
   -3.4628   18.9563   -5.8388 C   0  0  0  0  0  0  0  0  0  0  0  0
   -6.9841   20.4611   -2.8608 N   0  0  0  0  0  0  0  0  0  0  0  0
   -5.9118   16.4713    0.7466 C   0  0  0  0  0  0  0  0  0  0  0  0
   -9.1141   16.3538    3.2152 O   0  0  0  0  0  0  0  0  0  0  0  0
   -9.7362   15.5312    2.2379 C   0  0  0  0  0  0  0  0  0  0  0  0
   -8.7611   15.2517    1.0777 C   0  0  0  0  0  0  0  0  0  0  0  0
   -8.2937   18.9707   -0.6996 C   0  0  0  0  0  0  0  0  0  0  0  0
   -9.4814   17.7932   -0.2448 S   0  0  0  0  0  0  0  0  0  0  0  0
   -8.3878   16.5790    0.4554 C   0  0  0  0  0  0  0  0  0  0  0  0
   -7.1684   17.1834    0.2745 C   0  0  0  0  0  0  0  0  0  0  0  0
   -7.1495   18.4136   -0.3240 N   0  0  0  0  0  0  0  0  0  0  0  0
   -5.8597   19.1592   -0.5445 C   0  0  0  0  0  0  0  0  0  0  0  0
   -5.8047   19.7375   -3.0364 C   0  0  0  0  0  0  0  0  0  0  0  0
   -5.2221   19.6765   -4.2728 N   0  0  0  0  0  0  0  0  0  0  0  0
   -4.0916   18.9921   -4.4662 C   0  0  0  0  0  0  0  0  0  0  0  0
   -3.5048   18.3474   -3.4537 N   0  0  0  0  0  0  0  0  0  0  0  0
   -4.0231   18.3657   -2.1982 C   0  0  0  0  0  0  0  0  0  0  0  0
   -5.2021   19.0706   -1.9313 C   0  0  0  0  0  0  0  0  0  0  0  0
  5  4  1  0  0  0  0
  5  6  1  0  0  0  0
  7  8  2  0  0  0  0
  7 11  1  0  0  0  0
  8  9  1  0  0  0  0
  9 10  2  0  0  0  0
  9  6  1  0  0  0  0
 10  3  1  0  0  0  0
 11 12  1  0  0  0  0
 11 10  1  0  0  0  0
 12 18  1  0  0  0  0
 13  2  1  0  0  0  0
 13 14  2  0  0  0  0
 15 14  1  0  0  0  0
 15  1  1  0  0  0  0
 16 15  2  0  0  0  0
 17 18  2  0  0  0  0
 17 16  1  0  0  0  0
 18 13  1  0  0  0  0
M  END
>  <CHROM.1>
-60.54907764,-57.66690773,-83.11959063,71.17066776,-6.78968654,18.02396206
-1.10243277,-0.88297613,-0.34146542,2.29962525

>  <Name>
lig.pdb

>  <RI>
0

>  <Rbt.Current_Directory>
/home/itssahil/PROJECTS/Mol_Feturizer/New_Systems/rnas/4nyg

>  <Rbt.Executable>
rbdock ($Id: //depot/dev/client3/rdock/2013.1/src/exe/rbdock.cxx#4 $)

>  <Rbt.Library>
libRbt.so (2013.1, Build901 2013/11/27)

>  <Rbt.Parameter_File>
/export/apps/rDock/src/rDock_2013.1_src/data/scripts/dock_solv.prm

>  <Rbt.Receptor>
prm/blind_docking_100.prm

>  <SCORE>
-13.2312

>  <SCORE.INTER>
-13.0057

>  <SCORE.INTER.CONST>
1

>  <SCORE.INTER.POLAR>
0

>  <SCORE.INTER.ROT>
4

>  <SCORE.INTER.SOLV>
10.7138

>  <SCORE.INTER.VDW>
-18.5084

>  <SCORE.INTER.norm>
-0.722537

>  <SCORE.INTRA>
-0.225551

>  <SCORE.INTRA.DIHEDRAL>
-0.131604

>  <SCORE.INTRA.DIHEDRAL.0>
3.20029

>  <SCORE.INTRA.POLAR>
0

>  <SCORE.INTRA.POLAR.0>
0

>  <SCORE.INTRA.REPUL>
0

>  <SCORE.INTRA.REPUL.0>
0

>  <SCORE.INTRA.SOLV>
1.1455

>  <SCORE.INTRA.SOLV.lig_0>
-19.3885

>  <SCORE.INTRA.VDW>
-0.7325

>  <SCORE.INTRA.VDW.0>
-1.12705

>  <SCORE.INTRA.norm>
-0.0125306

>  <SCORE.RESTR>
0

>  <SCORE.RESTR.CAVITY>
0

>  <SCORE.RESTR.norm>
0

>  <SCORE.SYSTEM>
0

>  <SCORE.SYSTEM.CONST>
0

>  <SCORE.SYSTEM.DIHEDRAL>
0

>  <SCORE.SYSTEM.SOLV>
0

>  <SCORE.SYSTEM.norm>
0

>  <SCORE.heavy>
18

>  <SCORE.norm>
-0.735068

>  <RMSD>
7.849

$$$$
lig.pdb
 OpenBabel11021811503D
libRbt.so/2013.1/901 2013/11/27
 18 19  0  0  0  0  0  0  0  0999 V2000
   -3.8164   10.0895   -3.1700 C   0  0  0  0  0  0  0  0  0  0  0  0
    0.0927   12.7303   -2.0401 N   0  0  0  0  0  0  0  0  0  0  0  0
   -1.5516   16.4017   -5.5127 C   0  0  0  0  0  0  0  0  0  0  0  0
   -3.4176   17.9614   -2.5983 O   0  0  0  0  0  0  0  0  0  0  0  0
   -2.5007   19.0457   -2.5467 C   0  0  0  0  0  0  0  0  0  0  0  0
   -1.4662   18.9233   -3.6824 C   0  0  0  0  0  0  0  0  0  0  0  0
    0.7657   15.5694   -2.6933 C   0  0  0  0  0  0  0  0  0  0  0  0
    0.3847   17.1799   -2.1784 S   0  0  0  0  0  0  0  0  0  0  0  0
   -0.7252   17.6177   -3.4964 C   0  0  0  0  0  0  0  0  0  0  0  0
   -0.7103   16.4696   -4.2491 C   0  0  0  0  0  0  0  0  0  0  0  0
    0.0671   15.4316   -3.8129 N   0  0  0  0  0  0  0  0  0  0  0  0
    0.1287   14.1278   -4.5641 C   0  0  0  0  0  0  0  0  0  0  0  0
   -0.8908   12.4024   -2.9732 C   0  0  0  0  0  0  0  0  0  0  0  0
   -1.8301   11.4559   -2.6669 N   0  0  0  0  0  0  0  0  0  0  0  0
   -2.7833   11.1260   -3.5424 C   0  0  0  0  0  0  0  0  0  0  0  0
   -2.8384   11.7128   -4.7415 N   0  0  0  0  0  0  0  0  0  0  0  0
   -1.9423   12.6631   -5.1144 C   0  0  0  0  0  0  0  0  0  0  0  0
   -0.9243   13.0560   -4.2385 C   0  0  0  0  0  0  0  0  0  0  0  0
  5  4  1  0  0  0  0
  5  6  1  0  0  0  0
  7  8  2  0  0  0  0
  7 11  1  0  0  0  0
  8  9  1  0  0  0  0
  9 10  2  0  0  0  0
  9  6  1  0  0  0  0
 10  3  1  0  0  0  0
 11 12  1  0  0  0  0
 11 10  1  0  0  0  0
 12 18  1  0  0  0  0
 13  2  1  0  0  0  0
 13 14  2  0  0  0  0
 15 14  1  0  0  0  0
 15  1  1  0  0  0  0
 16 15  2  0  0  0  0
 17 18  2  0  0  0  0
 17 16  1  0  0  0  0
 18 13  1  0  0  0  0
M  END
>  <CHROM.1>
-60.18221816,-67.01337197,91.81845439,-68.95920165,-1.24969748,14.87660764
-3.44201811,1.75135683,0.24684228,-3.10223567

>  <Name>
lig.pdb

>  <RI>
0

>  <Rbt.Current_Directory>
/home/itssahil/PROJECTS/Mol_Feturizer/New_Systems/rnas/4nyg

>  <Rbt.Executable>
rbdock ($Id: //depot/dev/client3/rdock/2013.1/src/exe/rbdock.cxx#4 $)

>  <Rbt.Library>
libRbt.so (2013.1, Build901 2013/11/27)

>  <Rbt.Parameter_File>
/export/apps/rDock/src/rDock_2013.1_src/data/scripts/dock_solv.prm

>  <Rbt.Receptor>
prm/blind_docking_20.prm

>  <SCORE>
-7.02166

>  <SCORE.INTER>
-6.7422

>  <SCORE.INTER.CONST>
1

>  <SCORE.INTER.POLAR>
0

>  <SCORE.INTER.ROT>
4

>  <SCORE.INTER.SOLV>
6.38799

>  <SCORE.INTER.VDW>
-12.8908

>  <SCORE.INTER.norm>
-0.374567

>  <SCORE.INTRA>
-0.284983

>  <SCORE.INTRA.DIHEDRAL>
0.0793986

>  <SCORE.INTRA.DIHEDRAL.0>
3.20029

>  <SCORE.INTRA.POLAR>
0

>  <SCORE.INTRA.POLAR.0>
0

>  <SCORE.INTRA.REPUL>
0

>  <SCORE.INTRA.REPUL.0>
0

>  <SCORE.INTRA.SOLV>
1.20186

>  <SCORE.INTRA.SOLV.lig_0>
-19.3885

>  <SCORE.INTRA.VDW>
-0.925615

>  <SCORE.INTRA.VDW.0>
-1.12705

>  <SCORE.INTRA.norm>
-0.0158324

>  <SCORE.RESTR>
0.00552992

>  <SCORE.RESTR.CAVITY>
0.00552992

>  <SCORE.RESTR.norm>
0.000307218

>  <SCORE.SYSTEM>
0

>  <SCORE.SYSTEM.CONST>
0

>  <SCORE.SYSTEM.DIHEDRAL>
0

>  <SCORE.SYSTEM.SOLV>
0

>  <SCORE.SYSTEM.norm>
0

>  <SCORE.heavy>
18

>  <SCORE.norm>
-0.390092

>  <RMSD>
9.032

$$$$
lig.pdb
 OpenBabel11021811503D
libRbt.so/2013.1/901 2013/11/27
 18 19  0  0  0  0  0  0  0  0999 V2000
   -3.6209   19.3991   -3.0231 C   0  0  0  0  0  0  0  0  0  0  0  0
   -2.0476   16.3755   -6.4748 N   0  0  0  0  0  0  0  0  0  0  0  0
    0.1010   13.3841   -2.0198 C   0  0  0  0  0  0  0  0  0  0  0  0
    1.1480   10.4224   -1.7800 O   0  0  0  0  0  0  0  0  0  0  0  0
   -0.0595    9.6913   -1.6172 C   0  0  0  0  0  0  0  0  0  0  0  0
   -1.2288   10.6519   -1.3257 C   0  0  0  0  0  0  0  0  0  0  0  0
   -2.2075   12.5936   -4.8584 C   0  0  0  0  0  0  0  0  0  0  0  0
   -2.5291   11.1672   -3.9278 S   0  0  0  0  0  0  0  0  0  0  0  0
   -1.4482   11.5030   -2.5568 C   0  0  0  0  0  0  0  0  0  0  0  0
   -0.9077   12.7077   -2.9330 C   0  0  0  0  0  0  0  0  0  0  0  0
   -1.3155   13.2452   -4.1233 N   0  0  0  0  0  0  0  0  0  0  0  0
   -0.7910   14.5719   -4.6058 C   0  0  0  0  0  0  0  0  0  0  0  0
   -2.1218   16.6962   -5.1194 C   0  0  0  0  0  0  0  0  0  0  0  0
   -2.7832   17.8264   -4.7233 N   0  0  0  0  0  0  0  0  0  0  0  0
   -2.8702   18.1541   -3.4314 C   0  0  0  0  0  0  0  0  0  0  0  0
   -2.3084   17.3843   -2.4949 N   0  0  0  0  0  0  0  0  0  0  0  0
   -1.6386   16.2459   -2.8123 C   0  0  0  0  0  0  0  0  0  0  0  0
   -1.5189   15.8463   -4.1480 C   0  0  0  0  0  0  0  0  0  0  0  0
  5  4  1  0  0  0  0
  5  6  1  0  0  0  0
  7  8  2  0  0  0  0
  7 11  1  0  0  0  0
  8  9  1  0  0  0  0
  9 10  2  0  0  0  0
  9  6  1  0  0  0  0
 10  3  1  0  0  0  0
 11 12  1  0  0  0  0
 11 10  1  0  0  0  0
 12 18  1  0  0  0  0
 13  2  1  0  0  0  0
 13 14  2  0  0  0  0
 15 14  1  0  0  0  0
 15  1  1  0  0  0  0
 16 15  2  0  0  0  0
 17 18  2  0  0  0  0
 17 16  1  0  0  0  0
 18 13  1  0  0  0  0
M  END
>  <CHROM.1>
65.83485685,90.81868214,91.77572494,-118.39907470,-1.60024983,14.06879750
-3.44597488,-2.21646329,1.12625091,-2.77148280

>  <Name>
lig.pdb

>  <RI>
0

>  <Rbt.Current_Directory>
/home/itssahil/PROJECTS/Mol_Feturizer/New_Systems/rnas/4nyg

>  <Rbt.Executable>
rbdock ($Id: //depot/dev/client3/rdock/2013.1/src/exe/rbdock.cxx#4 $)

>  <Rbt.Library>
libRbt.so (2013.1, Build901 2013/11/27)

>  <Rbt.Parameter_File>
/export/apps/rDock/src/rDock_2013.1_src/data/scripts/dock_solv.prm

>  <Rbt.Receptor>
prm/blind_docking_20.prm

>  <SCORE>
-9.12256

>  <SCORE.INTER>
-9.99966

>  <SCORE.INTER.CONST>
1

>  <SCORE.INTER.POLAR>
0

>  <SCORE.INTER.ROT>
4

>  <SCORE.INTER.SOLV>
6.24337

>  <SCORE.INTER.VDW>
-15.0142

>  <SCORE.INTER.norm>
-0.555537

>  <SCORE.INTRA>
0.468078

>  <SCORE.INTRA.DIHEDRAL>
1.50432

>  <SCORE.INTRA.DIHEDRAL.0>
3.20029

>  <SCORE.INTRA.POLAR>
0

>  <SCORE.INTRA.POLAR.0>
0

>  <SCORE.INTRA.REPUL>
0

>  <SCORE.INTRA.REPUL.0>
0

>  <SCORE.INTRA.SOLV>
0.781167

>  <SCORE.INTRA.SOLV.lig_0>
-19.3885

>  <SCORE.INTRA.VDW>
-0.674665

>  <SCORE.INTRA.VDW.0>
-1.12705

>  <SCORE.INTRA.norm>
0.0260043

>  <SCORE.RESTR>
0.409028

>  <SCORE.RESTR.CAVITY>
0.409028

>  <SCORE.RESTR.norm>
0.0227238

>  <SCORE.SYSTEM>
0

>  <SCORE.SYSTEM.CONST>
0

>  <SCORE.SYSTEM.DIHEDRAL>
0

>  <SCORE.SYSTEM.SOLV>
0

>  <SCORE.SYSTEM.norm>
0

>  <SCORE.heavy>
18

>  <SCORE.norm>
-0.506809

>  <RMSD>
9.054

$$$$
lig.pdb
 OpenBabel11021811503D
libRbt.so/2013.1/901 2013/11/27
 18 19  0  0  0  0  0  0  0  0999 V2000
   -3.9881   19.4882   -3.0025 C   0  0  0  0  0  0  0  0  0  0  0  0
   -2.4150   16.4276   -6.4217 N   0  0  0  0  0  0  0  0  0  0  0  0
    0.1362   13.4902   -2.2131 C   0  0  0  0  0  0  0  0  0  0  0  0
   -3.4271    9.8658   -2.3949 O   0  0  0  0  0  0  0  0  0  0  0  0
   -2.5436   10.4140   -1.4264 C   0  0  0  0  0  0  0  0  0  0  0  0
   -1.1553   10.6581   -2.0492 C   0  0  0  0  0  0  0  0  0  0  0  0
   -1.9426   13.1086   -5.3025 C   0  0  0  0  0  0  0  0  0  0  0  0
   -2.2851   11.5485   -4.6295 S   0  0  0  0  0  0  0  0  0  0  0  0
   -1.3136   11.6867   -3.1471 C   0  0  0  0  0  0  0  0  0  0  0  0
   -0.7850   12.9455   -3.2918 C   0  0  0  0  0  0  0  0  0  0  0  0
   -1.1246   13.6544   -4.4117 N   0  0  0  0  0  0  0  0  0  0  0  0
   -0.6081   15.0499   -4.6436 C   0  0  0  0  0  0  0  0  0  0  0  0
   -2.3509   16.8671   -5.0995 C   0  0  0  0  0  0  0  0  0  0  0  0
   -3.1375   17.9090   -4.6903 N   0  0  0  0  0  0  0  0  0  0  0  0
   -3.0960   18.3468   -3.4292 C   0  0  0  0  0  0  0  0  0  0  0  0
   -2.2803   17.7769   -2.5376 N   0  0  0  0  0  0  0  0  0  0  0  0
   -1.4729   16.7363   -2.8700 C   0  0  0  0  0  0  0  0  0  0  0  0
   -1.4761   16.2287   -4.1740 C   0  0  0  0  0  0  0  0  0  0  0  0
  5  4  1  0  0  0  0
  5  6  1  0  0  0  0
  7  8  2  0  0  0  0
  7 11  1  0  0  0  0
  8  9  1  0  0  0  0
  9 10  2  0  0  0  0
  9  6  1  0  0  0  0
 10  3  1  0  0  0  0
 11 12  1  0  0  0  0
 11 10  1  0  0  0  0
 12 18  1  0  0  0  0
 13  2  1  0  0  0  0
 13 14  2  0  0  0  0
 15 14  1  0  0  0  0
 15  1  1  0  0  0  0
 16 15  2  0  0  0  0
 17 18  2  0  0  0  0
 17 16  1  0  0  0  0
 18 13  1  0  0  0  0
M  END
>  <CHROM.1>
63.13910435,-61.96916038,85.71730485,-95.49279226,-2.00018627,14.31051435
-3.69127263,2.57121668,1.44474322,-1.13818962

>  <Name>
lig.pdb

>  <RI>
0

>  <Rbt.Current_Directory>
/home/itssahil/PROJECTS/Mol_Feturizer/New_Systems/rnas/4nyg

>  <Rbt.Executable>
rbdock ($Id: //depot/dev/client3/rdock/2013.1/src/exe/rbdock.cxx#4 $)

>  <Rbt.Library>
libRbt.so (2013.1, Build901 2013/11/27)

>  <Rbt.Parameter_File>
/export/apps/rDock/src/rDock_2013.1_src/data/scripts/dock_solv.prm

>  <Rbt.Receptor>
prm/blind_docking_20.prm

>  <SCORE>
-8.7774

>  <SCORE.INTER>
-9.35864

>  <SCORE.INTER.CONST>
1

>  <SCORE.INTER.POLAR>
0

>  <SCORE.INTER.ROT>
4

>  <SCORE.INTER.SOLV>
7.42492

>  <SCORE.INTER.VDW>
-14.9807

>  <SCORE.INTER.norm>
-0.519924

>  <SCORE.INTRA>
-0.218374

>  <SCORE.INTRA.DIHEDRAL>
0.0304472

>  <SCORE.INTRA.DIHEDRAL.0>
3.20029

>  <SCORE.INTRA.POLAR>
0

>  <SCORE.INTRA.POLAR.0>
0

>  <SCORE.INTRA.REPUL>
0

>  <SCORE.INTRA.REPUL.0>
0

>  <SCORE.INTRA.SOLV>
0.815218

>  <SCORE.INTRA.SOLV.lig_0>
-19.3885

>  <SCORE.INTRA.VDW>
-0.641206

>  <SCORE.INTRA.VDW.0>
-1.12705

>  <SCORE.INTRA.norm>
-0.0121319

>  <SCORE.RESTR>
0.799612

>  <SCORE.RESTR.CAVITY>
0.799612

>  <SCORE.RESTR.norm>
0.0444229

>  <SCORE.SYSTEM>
0

>  <SCORE.SYSTEM.CONST>
0

>  <SCORE.SYSTEM.DIHEDRAL>
0

>  <SCORE.SYSTEM.SOLV>
0

>  <SCORE.SYSTEM.norm>
0

>  <SCORE.heavy>
18

>  <SCORE.norm>
-0.487633

>  <RMSD>
9.143

$$$$
lig.pdb
 OpenBabel11021811503D
libRbt.so/2013.1/901 2013/11/27
 18 19  0  0  0  0  0  0  0  0999 V2000
   -4.0063    9.9239   -3.2990 C   0  0  0  0  0  0  0  0  0  0  0  0
    0.1699   11.7697   -1.6605 N   0  0  0  0  0  0  0  0  0  0  0  0
   -1.4257   15.0431   -2.4270 C   0  0  0  0  0  0  0  0  0  0  0  0
   -3.2405   17.6432   -5.0818 O   0  0  0  0  0  0  0  0  0  0  0  0
   -2.4595   18.6446   -4.4445 C   0  0  0  0  0  0  0  0  0  0  0  0
   -1.6430   18.0300   -3.2911 C   0  0  0  0  0  0  0  0  0  0  0  0
    1.0106   15.5001   -5.2319 C   0  0  0  0  0  0  0  0  0  0  0  0
    0.4187   17.1289   -5.2054 S   0  0  0  0  0  0  0  0  0  0  0  0
   -0.7483   16.9591   -3.8751 C   0  0  0  0  0  0  0  0  0  0  0  0
   -0.5936   15.6335   -3.5531 C   0  0  0  0  0  0  0  0  0  0  0  0
    0.3178   14.9060   -4.2688 N   0  0  0  0  0  0  0  0  0  0  0  0
    0.5680   13.4510   -3.9713 C   0  0  0  0  0  0  0  0  0  0  0  0
   -0.7909   11.7167   -2.6702 C   0  0  0  0  0  0  0  0  0  0  0  0
   -1.8762   10.8949   -2.5336 N   0  0  0  0  0  0  0  0  0  0  0  0
   -2.8110   10.8279   -3.4851 C   0  0  0  0  0  0  0  0  0  0  0  0
   -2.7046   11.5622   -4.5964 N   0  0  0  0  0  0  0  0  0  0  0  0
   -1.6572   12.4028   -4.8004 C   0  0  0  0  0  0  0  0  0  0  0  0
   -0.6491   12.5214   -3.8371 C   0  0  0  0  0  0  0  0  0  0  0  0
  5  4  1  0  0  0  0
  5  6  1  0  0  0  0
  7  8  2  0  0  0  0
  7 11  1  0  0  0  0
  8  9  1  0  0  0  0
  9 10  2  0  0  0  0
  9  6  1  0  0  0  0
 10  3  1  0  0  0  0
 11 12  1  0  0  0  0
 11 10  1  0  0  0  0
 12 18  1  0  0  0  0
 13  2  1  0  0  0  0
 13 14  2  0  0  0  0
 15 14  1  0  0  0  0
 15  1  1  0  0  0  0
 16 15  2  0  0  0  0
 17 18  2  0  0  0  0
 17 16  1  0  0  0  0
 18 13  1  0  0  0  0
M  END
>  <CHROM.1>
59.51334356,54.57877718,-132.24982081,-126.75477692,-1.15348967,14.38654502
-3.89304461,1.74008258,0.01612101,2.93264326

>  <Name>
lig.pdb

>  <RI>
0

>  <Rbt.Current_Directory>
/home/itssahil/PROJECTS/Mol_Feturizer/New_Systems/rnas/4nyg

>  <Rbt.Executable>
rbdock ($Id: //depot/dev/client3/rdock/2013.1/src/exe/rbdock.cxx#4 $)

>  <Rbt.Library>
libRbt.so (2013.1, Build901 2013/11/27)

>  <Rbt.Parameter_File>
/export/apps/rDock/src/rDock_2013.1_src/data/scripts/dock_solv.prm

>  <Rbt.Receptor>
prm/blind_docking_20.prm

>  <SCORE>
-5.73478

>  <SCORE.INTER>
-6.1886

>  <SCORE.INTER.CONST>
1

>  <SCORE.INTER.POLAR>
0

>  <SCORE.INTER.ROT>
4

>  <SCORE.INTER.SOLV>
6.79964

>  <SCORE.INTER.VDW>
-12.6589

>  <SCORE.INTER.norm>
-0.343811

>  <SCORE.INTRA>
0.303927

>  <SCORE.INTRA.DIHEDRAL>
0.015412

>  <SCORE.INTRA.DIHEDRAL.0>
3.20029

>  <SCORE.INTRA.POLAR>
0

>  <SCORE.INTRA.POLAR.0>
0

>  <SCORE.INTRA.REPUL>
0

>  <SCORE.INTRA.REPUL.0>
0

>  <SCORE.INTRA.SOLV>
0.964115

>  <SCORE.INTRA.SOLV.lig_0>
-19.3885

>  <SCORE.INTRA.VDW>
-0.185836

>  <SCORE.INTRA.VDW.0>
-1.12705

>  <SCORE.INTRA.norm>
0.0168848

>  <SCORE.RESTR>
0.149899

>  <SCORE.RESTR.CAVITY>
0.149899

>  <SCORE.RESTR.norm>
0.00832774

>  <SCORE.SYSTEM>
0

>  <SCORE.SYSTEM.CONST>
0

>  <SCORE.SYSTEM.DIHEDRAL>
0

>  <SCORE.SYSTEM.SOLV>
0

>  <SCORE.SYSTEM.norm>
0

>  <SCORE.heavy>
18

>  <SCORE.norm>
-0.318599

>  <RMSD>
9.160

$$$$
lig.pdb
 OpenBabel11021811503D
libRbt.so/2013.1/901 2013/11/27
 18 19  0  0  0  0  0  0  0  0999 V2000
   -3.4978   19.2265   -3.7085 C   0  0  0  0  0  0  0  0  0  0  0  0
   -0.6520   15.4531   -2.6150 N   0  0  0  0  0  0  0  0  0  0  0  0
    0.8222   12.8836   -3.2097 C   0  0  0  0  0  0  0  0  0  0  0  0
   -2.6940   10.2994   -1.1294 O   0  0  0  0  0  0  0  0  0  0  0  0
   -1.3062   10.4835   -0.8865 C   0  0  0  0  0  0  0  0  0  0  0  0
   -0.5036   10.2564   -2.1823 C   0  0  0  0  0  0  0  0  0  0  0  0
   -2.4032   12.5402   -5.0779 C   0  0  0  0  0  0  0  0  0  0  0  0
   -2.5520   11.0894   -4.1413 S   0  0  0  0  0  0  0  0  0  0  0  0
   -1.0314   11.2131   -3.2286 C   0  0  0  0  0  0  0  0  0  0  0  0
   -0.5138   12.3812   -3.7310 C   0  0  0  0  0  0  0  0  0  0  0  0
   -1.2405   13.0428   -4.6830 N   0  0  0  0  0  0  0  0  0  0  0  0
   -0.7598   14.3413   -5.2753 C   0  0  0  0  0  0  0  0  0  0  0  0
   -1.4152   16.1296   -3.5665 C   0  0  0  0  0  0  0  0  0  0  0  0
   -2.0674   17.2816   -3.2211 N   0  0  0  0  0  0  0  0  0  0  0  0
   -2.8025   17.9489   -4.1146 C   0  0  0  0  0  0  0  0  0  0  0  0
   -2.9198   17.5026   -5.3685 N   0  0  0  0  0  0  0  0  0  0  0  0
   -2.2987   16.3686   -5.7849 C   0  0  0  0  0  0  0  0  0  0  0  0
   -1.5094   15.6292   -4.8969 C   0  0  0  0  0  0  0  0  0  0  0  0
  5  4  1  0  0  0  0
  5  6  1  0  0  0  0
  7  8  2  0  0  0  0
  7 11  1  0  0  0  0
  8  9  1  0  0  0  0
  9 10  2  0  0  0  0
  9  6  1  0  0  0  0
 10  3  1  0  0  0  0
 11 12  1  0  0  0  0
 11 10  1  0  0  0  0
 12 18  1  0  0  0  0
 13  2  1  0  0  0  0
 13 14  2  0  0  0  0
 15 14  1  0  0  0  0
 15  1  1  0  0  0  0
 16 15  2  0  0  0  0
 17 18  2  0  0  0  0
 17 16  1  0  0  0  0
 18 13  1  0  0  0  0
M  END
>  <CHROM.1>
57.24793677,-75.38151524,69.74115052,69.08228233,-1.70059136,13.86920534
-3.69960707,-2.46711427,1.38766426,-2.50604705

>  <Name>
lig.pdb

>  <RI>
0

>  <Rbt.Current_Directory>
/home/itssahil/PROJECTS/Mol_Feturizer/New_Systems/rnas/4nyg

>  <Rbt.Executable>
rbdock ($Id: //depot/dev/client3/rdock/2013.1/src/exe/rbdock.cxx#4 $)

>  <Rbt.Library>
libRbt.so (2013.1, Build901 2013/11/27)

>  <Rbt.Parameter_File>
/export/apps/rDock/src/rDock_2013.1_src/data/scripts/dock_solv.prm

>  <Rbt.Receptor>
prm/blind_docking_20.prm

>  <SCORE>
-5.97561

>  <SCORE.INTER>
-6.93445

>  <SCORE.INTER.CONST>
1

>  <SCORE.INTER.POLAR>
0

>  <SCORE.INTER.ROT>
4

>  <SCORE.INTER.SOLV>
6.78852

>  <SCORE.INTER.VDW>
-13.1525

>  <SCORE.INTER.norm>
-0.385247

>  <SCORE.INTRA>
0.258049

>  <SCORE.INTRA.DIHEDRAL>
0.403656

>  <SCORE.INTRA.DIHEDRAL.0>
3.20029

>  <SCORE.INTRA.POLAR>
0

>  <SCORE.INTRA.POLAR.0>
0

>  <SCORE.INTRA.REPUL>
0

>  <SCORE.INTRA.REPUL.0>
0

>  <SCORE.INTRA.SOLV>
1.51441

>  <SCORE.INTRA.SOLV.lig_0>
-19.3885

>  <SCORE.INTRA.VDW>
-0.700983

>  <SCORE.INTRA.VDW.0>
-1.12705

>  <SCORE.INTRA.norm>
0.0143361

>  <SCORE.RESTR>
0.700785

>  <SCORE.RESTR.CAVITY>
0.700785

>  <SCORE.RESTR.norm>
0.0389325

>  <SCORE.SYSTEM>
0

>  <SCORE.SYSTEM.CONST>
0

>  <SCORE.SYSTEM.DIHEDRAL>
0

>  <SCORE.SYSTEM.SOLV>
0

>  <SCORE.SYSTEM.norm>
0

>  <SCORE.heavy>
18

>  <SCORE.norm>
-0.331978

>  <RMSD>
9.323

$$$$
lig.pdb
 OpenBabel11021811503D
libRbt.so/2013.1/901 2013/11/27
 18 19  0  0  0  0  0  0  0  0999 V2000
   -2.5023   19.5613   -3.5284 C   0  0  0  0  0  0  0  0  0  0  0  0
    0.8831   16.1600   -2.8194 N   0  0  0  0  0  0  0  0  0  0  0  0
    0.1793   13.0868   -2.3383 C   0  0  0  0  0  0  0  0  0  0  0  0
   -3.9466   10.8494   -2.1515 O   0  0  0  0  0  0  0  0  0  0  0  0
   -2.8108   10.8936   -1.2989 C   0  0  0  0  0  0  0  0  0  0  0  0
   -1.5421   10.5011   -2.0808 C   0  0  0  0  0  0  0  0  0  0  0  0
   -1.6102   12.6924   -5.6024 C   0  0  0  0  0  0  0  0  0  0  0  0
   -2.2547   11.2749   -4.8413 S   0  0  0  0  0  0  0  0  0  0  0  0
   -1.4285   11.4237   -3.2742 C   0  0  0  0  0  0  0  0  0  0  0  0
   -0.7008   12.5721   -3.4651 C   0  0  0  0  0  0  0  0  0  0  0  0
   -0.8124   13.2038   -4.6736 N   0  0  0  0  0  0  0  0  0  0  0  0
   -0.0668   14.4796   -4.9640 C   0  0  0  0  0  0  0  0  0  0  0  0
   -0.2294   16.5979   -3.5378 C   0  0  0  0  0  0  0  0  0  0  0  0
   -0.8186   17.7907   -3.2186 N   0  0  0  0  0  0  0  0  0  0  0  0
   -1.8834   18.2329   -3.8928 C   0  0  0  0  0  0  0  0  0  0  0  0
   -2.4001   17.5159   -4.8949 N   0  0  0  0  0  0  0  0  0  0  0  0
   -1.8669   16.3243   -5.2705 C   0  0  0  0  0  0  0  0  0  0  0  0
   -0.7471   15.8112   -4.6067 C   0  0  0  0  0  0  0  0  0  0  0  0
  5  4  1  0  0  0  0
  5  6  1  0  0  0  0
  7  8  2  0  0  0  0
  7 11  1  0  0  0  0
  8  9  1  0  0  0  0
  9 10  2  0  0  0  0
  9  6  1  0  0  0  0
 10  3  1  0  0  0  0
 11 12  1  0  0  0  0
 11 10  1  0  0  0  0
 12 18  1  0  0  0  0
 13  2  1  0  0  0  0
 13 14  2  0  0  0  0
 15 14  1  0  0  0  0
 15  1  1  0  0  0  0
 16 15  2  0  0  0  0
 17 18  2  0  0  0  0
 17 16  1  0  0  0  0
 18 13  1  0  0  0  0
M  END
>  <CHROM.1>
55.91914297,-82.30545131,90.03422523,110.72281996,-1.45479895,14.13940112
-3.73786493,-0.97924576,1.35882078,2.43560304

>  <Name>
lig.pdb

>  <RI>
0

>  <Rbt.Current_Directory>
/home/itssahil/PROJECTS/Mol_Feturizer/New_Systems/rnas/4nyg

>  <Rbt.Executable>
rbdock ($Id: //depot/dev/client3/rdock/2013.1/src/exe/rbdock.cxx#4 $)

>  <Rbt.Library>
libRbt.so (2013.1, Build901 2013/11/27)

>  <Rbt.Parameter_File>
/export/apps/rDock/src/rDock_2013.1_src/data/scripts/dock_solv.prm

>  <Rbt.Receptor>
prm/blind_docking_20.prm

>  <SCORE>
-5.54427

>  <SCORE.INTER>
-5.94357

>  <SCORE.INTER.CONST>
1

>  <SCORE.INTER.POLAR>
0

>  <SCORE.INTER.ROT>
4

>  <SCORE.INTER.SOLV>
6.80476

>  <SCORE.INTER.VDW>
-12.4973

>  <SCORE.INTER.norm>
-0.330198

>  <SCORE.INTRA>
0.170883

>  <SCORE.INTRA.DIHEDRAL>
0.876959

>  <SCORE.INTRA.DIHEDRAL.0>
3.20029

>  <SCORE.INTRA.POLAR>
0

>  <SCORE.INTRA.POLAR.0>
0

>  <SCORE.INTRA.REPUL>
0

>  <SCORE.INTRA.REPUL.0>
0

>  <SCORE.INTRA.SOLV>
1.02793

>  <SCORE.INTRA.SOLV.lig_0>
-19.3885

>  <SCORE.INTRA.VDW>
-0.78156

>  <SCORE.INTRA.VDW.0>
-1.12705

>  <SCORE.INTRA.norm>
0.0094935

>  <SCORE.RESTR>
0.228418

>  <SCORE.RESTR.CAVITY>
0.228418

>  <SCORE.RESTR.norm>
0.0126899

>  <SCORE.SYSTEM>
0

>  <SCORE.SYSTEM.CONST>
0

>  <SCORE.SYSTEM.DIHEDRAL>
0

>  <SCORE.SYSTEM.SOLV>
0

>  <SCORE.SYSTEM.norm>
0

>  <SCORE.heavy>
18

>  <SCORE.norm>
-0.308015

>  <RMSD>
9.690

$$$$
lig.pdb
 OpenBabel11021811503D
libRbt.so/2013.1/901 2013/11/27
 18 19  0  0  0  0  0  0  0  0999 V2000
   -2.9608   19.1046   -4.4640 C   0  0  0  0  0  0  0  0  0  0  0  0
    0.7694   16.6659   -2.5483 N   0  0  0  0  0  0  0  0  0  0  0  0
   -1.6730   12.1150   -4.5736 C   0  0  0  0  0  0  0  0  0  0  0  0
   -4.2274    9.4733   -2.8915 O   0  0  0  0  0  0  0  0  0  0  0  0
   -3.4385   10.6194   -2.6032 C   0  0  0  0  0  0  0  0  0  0  0  0
   -2.0299   10.1950   -2.1443 C   0  0  0  0  0  0  0  0  0  0  0  0
    0.6221   13.3754   -1.8986 C   0  0  0  0  0  0  0  0  0  0  0  0
   -0.0236   12.0390   -1.0035 S   0  0  0  0  0  0  0  0  0  0  0  0
   -1.1253   11.4032   -2.2455 C   0  0  0  0  0  0  0  0  0  0  0  0
   -0.9113   12.2910   -3.2706 C   0  0  0  0  0  0  0  0  0  0  0  0
   -0.0075   13.2972   -3.0640 N   0  0  0  0  0  0  0  0  0  0  0  0
    0.3051   14.3042   -4.1394 C   0  0  0  0  0  0  0  0  0  0  0  0
   -0.3080   16.6861   -3.4338 C   0  0  0  0  0  0  0  0  0  0  0  0
   -1.0898   17.8049   -3.5281 N   0  0  0  0  0  0  0  0  0  0  0  0
   -2.1257   17.8499   -4.3699 C   0  0  0  0  0  0  0  0  0  0  0  0
   -2.4239   16.7985   -5.1387 N   0  0  0  0  0  0  0  0  0  0  0  0
   -1.6912   15.6553   -5.1020 C   0  0  0  0  0  0  0  0  0  0  0  0
   -0.5901   15.5496   -4.2450 C   0  0  0  0  0  0  0  0  0  0  0  0
  5  4  1  0  0  0  0
  5  6  1  0  0  0  0
  7  8  2  0  0  0  0
  7 11  1  0  0  0  0
  8  9  1  0  0  0  0
  9 10  2  0  0  0  0
  9  6  1  0  0  0  0
 10  3  1  0  0  0  0
 11 12  1  0  0  0  0
 11 10  1  0  0  0  0
 12 18  1  0  0  0  0
 13  2  1  0  0  0  0
 13 14  2  0  0  0  0
 15 14  1  0  0  0  0
 15  1  1  0  0  0  0
 16 15  2  0  0  0  0
 17 18  2  0  0  0  0
 17 16  1  0  0  0  0
 18 13  1  0  0  0  0
M  END
>  <CHROM.1>
163.56608881,130.39405477,-94.39709259,85.28466545,-1.23406919,13.98243879
-3.20620770,1.49741583,-0.49891389,-0.30891753

>  <Name>
lig.pdb

>  <RI>
0

>  <Rbt.Current_Directory>
/home/itssahil/PROJECTS/Mol_Feturizer/New_Systems/rnas/4nyg

>  <Rbt.Executable>
rbdock ($Id: //depot/dev/client3/rdock/2013.1/src/exe/rbdock.cxx#4 $)

>  <Rbt.Library>
libRbt.so (2013.1, Build901 2013/11/27)

>  <Rbt.Parameter_File>
/export/apps/rDock/src/rDock_2013.1_src/data/scripts/dock_solv.prm

>  <Rbt.Receptor>
prm/blind_docking_20.prm

>  <SCORE>
-2.18643

>  <SCORE.INTER>
-4.8869

>  <SCORE.INTER.CONST>
1

>  <SCORE.INTER.POLAR>
0

>  <SCORE.INTER.ROT>
4

>  <SCORE.INTER.SOLV>
8.1871

>  <SCORE.INTER.VDW>
-12.2536

>  <SCORE.INTER.norm>
-0.271495

>  <SCORE.INTRA>
2.6925

>  <SCORE.INTRA.DIHEDRAL>
3.31866

>  <SCORE.INTRA.DIHEDRAL.0>
3.20029

>  <SCORE.INTRA.POLAR>
0

>  <SCORE.INTRA.POLAR.0>
0

>  <SCORE.INTRA.REPUL>
0

>  <SCORE.INTRA.REPUL.0>
0

>  <SCORE.INTRA.SOLV>
0.612271

>  <SCORE.INTRA.SOLV.lig_0>
-19.3885

>  <SCORE.INTRA.VDW>
0.72703

>  <SCORE.INTRA.VDW.0>
-1.12705

>  <SCORE.INTRA.norm>
0.149583

>  <SCORE.RESTR>
0.00797392

>  <SCORE.RESTR.CAVITY>
0.00797392

>  <SCORE.RESTR.norm>
0.000442996

>  <SCORE.SYSTEM>
0

>  <SCORE.SYSTEM.CONST>
0

>  <SCORE.SYSTEM.DIHEDRAL>
0

>  <SCORE.SYSTEM.SOLV>
0

>  <SCORE.SYSTEM.norm>
0

>  <SCORE.heavy>
18

>  <SCORE.norm>
-0.121469

>  <RMSD>
9.701

$$$$
lig.pdb
 OpenBabel11021811503D
libRbt.so/2013.1/901 2013/11/27
 18 19  0  0  0  0  0  0  0  0999 V2000
   -2.5008   19.6040   -3.4970 C   0  0  0  0  0  0  0  0  0  0  0  0
    1.1289   16.4006   -3.1867 N   0  0  0  0  0  0  0  0  0  0  0  0
   -0.1093   13.3025   -2.2880 C   0  0  0  0  0  0  0  0  0  0  0  0
   -0.5238    9.4133   -0.4117 O   0  0  0  0  0  0  0  0  0  0  0  0
   -0.4396   10.0222   -1.6927 C   0  0  0  0  0  0  0  0  0  0  0  0
   -1.7830   10.6832   -2.0579 C   0  0  0  0  0  0  0  0  0  0  0  0
   -1.5162   12.6579   -5.6963 C   0  0  0  0  0  0  0  0  0  0  0  0
   -2.2051   11.2683   -4.9227 S   0  0  0  0  0  0  0  0  0  0  0  0
   -1.5613   11.5363   -3.2873 C   0  0  0  0  0  0  0  0  0  0  0  0
   -0.8461   12.6939   -3.4694 C   0  0  0  0  0  0  0  0  0  0  0  0
   -0.8390   13.2487   -4.7200 N   0  0  0  0  0  0  0  0  0  0  0  0
   -0.0982   14.5281   -5.0068 C   0  0  0  0  0  0  0  0  0  0  0  0
   -0.1148   16.7394   -3.7195 C   0  0  0  0  0  0  0  0  0  0  0  0
   -0.6990   17.9289   -3.3794 N   0  0  0  0  0  0  0  0  0  0  0  0
   -1.8882   18.2772   -3.8778 C   0  0  0  0  0  0  0  0  0  0  0  0
   -2.5367   17.4673   -4.7197 N   0  0  0  0  0  0  0  0  0  0  0  0
   -2.0176   16.2727   -5.1051 C   0  0  0  0  0  0  0  0  0  0  0  0
   -0.7725   15.8551   -4.6221 C   0  0  0  0  0  0  0  0  0  0  0  0
  5  4  1  0  0  0  0
  5  6  1  0  0  0  0
  7  8  2  0  0  0  0
  7 11  1  0  0  0  0
  8  9  1  0  0  0  0
  9 10  2  0  0  0  0
  9  6  1  0  0  0  0
 10  3  1  0  0  0  0
 11 12  1  0  0  0  0
 11 10  1  0  0  0  0
 12 18  1  0  0  0  0
 13  2  1  0  0  0  0
 13 14  2  0  0  0  0
 15 14  1  0  0  0  0
 15  1  1  0  0  0  0
 16 15  2  0  0  0  0
 17 18  2  0  0  0  0
 17 16  1  0  0  0  0
 18 13  1  0  0  0  0
M  END
>  <CHROM.1>
169.11324944,111.94762309,98.57172857,121.60347578,-1.14508524,14.06855106
-3.68602627,-1.64896002,1.09201741,3.01982820

>  <Name>
lig.pdb

>  <RI>
0

>  <Rbt.Current_Directory>
/home/itssahil/PROJECTS/Mol_Feturizer/New_Systems/rnas/4nyg

>  <Rbt.Executable>
rbdock ($Id: //depot/dev/client3/rdock/2013.1/src/exe/rbdock.cxx#4 $)

>  <Rbt.Library>
libRbt.so (2013.1, Build901 2013/11/27)

>  <Rbt.Parameter_File>
/export/apps/rDock/src/rDock_2013.1_src/data/scripts/dock_solv.prm

>  <Rbt.Receptor>
prm/blind_docking_20.prm

>  <SCORE>
-4.33615

>  <SCORE.INTER>
-5.79724

>  <SCORE.INTER.CONST>
1

>  <SCORE.INTER.POLAR>
0

>  <SCORE.INTER.ROT>
4

>  <SCORE.INTER.SOLV>
6.03677

>  <SCORE.INTER.VDW>
-12.1437

>  <SCORE.INTER.norm>
-0.322069

>  <SCORE.INTRA>
1.22856

>  <SCORE.INTRA.DIHEDRAL>
2.98353

>  <SCORE.INTRA.DIHEDRAL.0>
3.20029

>  <SCORE.INTRA.POLAR>
0

>  <SCORE.INTRA.POLAR.0>
0

>  <SCORE.INTRA.REPUL>
0

>  <SCORE.INTRA.REPUL.0>
0

>  <SCORE.INTRA.SOLV>
0.468862

>  <SCORE.INTRA.SOLV.lig_0>
-19.3885

>  <SCORE.INTRA.VDW>
-0.497638

>  <SCORE.INTRA.VDW.0>
-1.12705

>  <SCORE.INTRA.norm>
0.0682533

>  <SCORE.RESTR>
0.232528

>  <SCORE.RESTR.CAVITY>
0.232528

>  <SCORE.RESTR.norm>
0.0129182

>  <SCORE.SYSTEM>
0

>  <SCORE.SYSTEM.CONST>
0

>  <SCORE.SYSTEM.DIHEDRAL>
0

>  <SCORE.SYSTEM.SOLV>
0

>  <SCORE.SYSTEM.norm>
0

>  <SCORE.heavy>
18

>  <SCORE.norm>
-0.240897

>  <RMSD>
9.728

$$$$
lig.pdb
 OpenBabel11021811503D
libRbt.so/2013.1/901 2013/11/27
 18 19  0  0  0  0  0  0  0  0999 V2000
   -2.4923   19.6291   -3.4983 C   0  0  0  0  0  0  0  0  0  0  0  0
    1.2166   16.8019   -4.8334 N   0  0  0  0  0  0  0  0  0  0  0  0
   -0.7529   12.6450   -1.3851 C   0  0  0  0  0  0  0  0  0  0  0  0
   -3.9666    9.3915   -4.0330 O   0  0  0  0  0  0  0  0  0  0  0  0
   -3.9551   10.0030   -2.7505 C   0  0  0  0  0  0  0  0  0  0  0  0
   -2.5048   10.2273   -2.2801 C   0  0  0  0  0  0  0  0  0  0  0  0
   -1.0909   12.9182   -5.1030 C   0  0  0  0  0  0  0  0  0  0  0  0
   -2.0264   11.4711   -4.9167 S   0  0  0  0  0  0  0  0  0  0  0  0
   -1.8955   11.3032   -3.1517 C   0  0  0  0  0  0  0  0  0  0  0  0
   -1.1204   12.3920   -2.8376 C   0  0  0  0  0  0  0  0  0  0  0  0
   -0.7193   13.2054   -3.8620 N   0  0  0  0  0  0  0  0  0  0  0  0
    0.1158   14.4328   -3.6084 C   0  0  0  0  0  0  0  0  0  0  0  0
   -0.0053   16.9257   -4.1724 C   0  0  0  0  0  0  0  0  0  0  0  0
   -0.6379   18.1382   -4.1343 N   0  0  0  0  0  0  0  0  0  0  0  0
   -1.8097   18.2821   -3.5097 C   0  0  0  0  0  0  0  0  0  0  0  0
   -2.3900   17.2422   -2.9038 N   0  0  0  0  0  0  0  0  0  0  0  0
   -1.8230   16.0078   -2.9028 C   0  0  0  0  0  0  0  0  0  0  0  0
   -0.5990   15.7925   -3.5458 C   0  0  0  0  0  0  0  0  0  0  0  0
  5  4  1  0  0  0  0
  5  6  1  0  0  0  0
  7  8  2  0  0  0  0
  7 11  1  0  0  0  0
  8  9  1  0  0  0  0
  9 10  2  0  0  0  0
  9  6  1  0  0  0  0
 10  3  1  0  0  0  0
 11 12  1  0  0  0  0
 11 10  1  0  0  0  0
 12 18  1  0  0  0  0
 13  2  1  0  0  0  0
 13 14  2  0  0  0  0
 15 14  1  0  0  0  0
 15  1  1  0  0  0  0
 16 15  2  0  0  0  0
 17 18  2  0  0  0  0
 17 16  1  0  0  0  0
 18 13  1  0  0  0  0
M  END
>  <CHROM.1>
69.22239726,-43.69663967,80.24119325,-138.34002909,-1.54314220,14.02469919
-3.61435799,1.33129920,0.43618013,0.06942896

>  <Name>
lig.pdb

>  <RI>
0

>  <Rbt.Current_Directory>
/home/itssahil/PROJECTS/Mol_Feturizer/New_Systems/rnas/4nyg

>  <Rbt.Executable>
rbdock ($Id: //depot/dev/client3/rdock/2013.1/src/exe/rbdock.cxx#4 $)

>  <Rbt.Library>
libRbt.so (2013.1, Build901 2013/11/27)

>  <Rbt.Parameter_File>
/export/apps/rDock/src/rDock_2013.1_src/data/scripts/dock_solv.prm

>  <Rbt.Receptor>
prm/blind_docking_20.prm

>  <SCORE>
-6.09154

>  <SCORE.INTER>
-6.40286

>  <SCORE.INTER.CONST>
1

>  <SCORE.INTER.POLAR>
0

>  <SCORE.INTER.ROT>
4

>  <SCORE.INTER.SOLV>
8.0343

>  <SCORE.INTER.VDW>
-13.2133

>  <SCORE.INTER.norm>
-0.355714

>  <SCORE.INTRA>
0.229297

>  <SCORE.INTRA.DIHEDRAL>
0.745005

>  <SCORE.INTRA.DIHEDRAL.0>
3.20029

>  <SCORE.INTRA.POLAR>
0

>  <SCORE.INTRA.POLAR.0>
0

>  <SCORE.INTRA.REPUL>
0

>  <SCORE.INTRA.REPUL.0>
0

>  <SCORE.INTRA.SOLV>
0.405694

>  <SCORE.INTRA.SOLV.lig_0>
-19.3885

>  <SCORE.INTRA.VDW>
-0.346052

>  <SCORE.INTRA.VDW.0>
-1.12705

>  <SCORE.INTRA.norm>
0.0127387

>  <SCORE.RESTR>
0.0820277

>  <SCORE.RESTR.CAVITY>
0.0820277

>  <SCORE.RESTR.norm>
0.00455709

>  <SCORE.SYSTEM>
0

>  <SCORE.SYSTEM.CONST>
0

>  <SCORE.SYSTEM.DIHEDRAL>
0

>  <SCORE.SYSTEM.SOLV>
0

>  <SCORE.SYSTEM.norm>
0

>  <SCORE.heavy>
18

>  <SCORE.norm>
-0.338419

>  <RMSD>
9.734

$$$$
lig.pdb
 OpenBabel11021811503D
libRbt.so/2013.1/901 2013/11/27
 18 19  0  0  0  0  0  0  0  0999 V2000
   -2.8919   19.0914   -4.5049 C   0  0  0  0  0  0  0  0  0  0  0  0
    0.8436   16.6708   -2.5763 N   0  0  0  0  0  0  0  0  0  0  0  0
   -1.6659   12.1516   -4.5985 C   0  0  0  0  0  0  0  0  0  0  0  0
   -4.2965    9.5600   -2.9403 O   0  0  0  0  0  0  0  0  0  0  0  0
   -3.4777   10.6775   -2.6244 C   0  0  0  0  0  0  0  0  0  0  0  0
   -2.0739   10.2060   -2.1978 C   0  0  0  0  0  0  0  0  0  0  0  0
    0.6521   13.3187   -1.9010 C   0  0  0  0  0  0  0  0  0  0  0  0
   -0.0272   11.9854   -1.0265 S   0  0  0  0  0  0  0  0  0  0  0  0
   -1.1406   11.3937   -2.2797 C   0  0  0  0  0  0  0  0  0  0  0  0
   -0.9033   12.2908   -3.2916 C   0  0  0  0  0  0  0  0  0  0  0  0
    0.0236   13.2722   -3.0687 N   0  0  0  0  0  0  0  0  0  0  0  0
    0.3625   14.2868   -4.1287 C   0  0  0  0  0  0  0  0  0  0  0  0
   -0.2394   16.6809   -3.4552 C   0  0  0  0  0  0  0  0  0  0  0  0
   -1.0186   17.8004   -3.5613 N   0  0  0  0  0  0  0  0  0  0  0  0
   -2.0597   17.8358   -4.3972 C   0  0  0  0  0  0  0  0  0  0  0  0
   -2.3657   16.7738   -5.1481 N   0  0  0  0  0  0  0  0  0  0  0  0
   -1.6360   15.6291   -5.0989 C   0  0  0  0  0  0  0  0  0  0  0  0
   -0.5297   15.5331   -4.2475 C   0  0  0  0  0  0  0  0  0  0  0  0
  5  4  1  0  0  0  0
  5  6  1  0  0  0  0
  7  8  2  0  0  0  0
  7 11  1  0  0  0  0
  8  9  1  0  0  0  0
  9 10  2  0  0  0  0
  9  6  1  0  0  0  0
 10  3  1  0  0  0  0
 11 12  1  0  0  0  0
 11 10  1  0  0  0  0
 12 18  1  0  0  0  0
 13  2  1  0  0  0  0
 13 14  2  0  0  0  0
 15 14  1  0  0  0  0
 15  1  1  0  0  0  0
 16 15  2  0  0  0  0
 17 18  2  0  0  0  0
 17 16  1  0  0  0  0
 18 13  1  0  0  0  0
M  END
>  <CHROM.1>
163.18370544,129.19599982,-96.30693151,87.47111379,-1.21037564,13.97645939
-3.22804388,1.48267392,-0.48688190,-0.31567957

>  <Name>
lig.pdb

>  <RI>
0

>  <Rbt.Current_Directory>
/home/itssahil/PROJECTS/Mol_Feturizer/New_Systems/rnas/4nyg

>  <Rbt.Executable>
rbdock ($Id: //depot/dev/client3/rdock/2013.1/src/exe/rbdock.cxx#4 $)

>  <Rbt.Library>
libRbt.so (2013.1, Build901 2013/11/27)

>  <Rbt.Parameter_File>
/export/apps/rDock/src/rDock_2013.1_src/data/scripts/dock_solv.prm

>  <Rbt.Receptor>
prm/blind_docking_20.prm

>  <SCORE>
-2.13269

>  <SCORE.INTER>
-4.76777

>  <SCORE.INTER.CONST>
1

>  <SCORE.INTER.POLAR>
0

>  <SCORE.INTER.ROT>
4

>  <SCORE.INTER.SOLV>
8.22757

>  <SCORE.INTER.VDW>
-12.1877

>  <SCORE.INTER.norm>
-0.264876

>  <SCORE.INTRA>
2.63508

>  <SCORE.INTRA.DIHEDRAL>
3.4033

>  <SCORE.INTRA.DIHEDRAL.0>
3.20029

>  <SCORE.INTRA.POLAR>
0

>  <SCORE.INTRA.POLAR.0>
0

>  <SCORE.INTRA.REPUL>
0

>  <SCORE.INTRA.REPUL.0>
0

>  <SCORE.INTRA.SOLV>
0.593539

>  <SCORE.INTRA.SOLV.lig_0>
-19.3885

>  <SCORE.INTRA.VDW>
0.636661

>  <SCORE.INTRA.VDW.0>
-1.12705

>  <SCORE.INTRA.norm>
0.146393

>  <SCORE.RESTR>
0

>  <SCORE.RESTR.CAVITY>
0

>  <SCORE.RESTR.norm>
0

>  <SCORE.SYSTEM>
0

>  <SCORE.SYSTEM.CONST>
0

>  <SCORE.SYSTEM.DIHEDRAL>
0

>  <SCORE.SYSTEM.SOLV>
0

>  <SCORE.SYSTEM.norm>
0

>  <SCORE.heavy>
18

>  <SCORE.norm>
-0.118483

>  <RMSD>
9.741

$$$$
lig.pdb
 OpenBabel11021811503D
libRbt.so/2013.1/901 2013/11/27
 18 19  0  0  0  0  0  0  0  0999 V2000
   -0.7270   18.9825   -3.5461 C   0  0  0  0  0  0  0  0  0  0  0  0
    1.7285   14.9102   -4.5051 N   0  0  0  0  0  0  0  0  0  0  0  0
   -0.1356   12.7804   -2.1823 C   0  0  0  0  0  0  0  0  0  0  0  0
   -0.2687    9.2375   -1.4762 O   0  0  0  0  0  0  0  0  0  0  0  0
   -0.6884   10.2379   -0.5585 C   0  0  0  0  0  0  0  0  0  0  0  0
   -2.1064   10.7257   -0.9137 C   0  0  0  0  0  0  0  0  0  0  0  0
   -2.4939   11.7727   -4.9090 C   0  0  0  0  0  0  0  0  0  0  0  0
   -3.1759   10.7743   -3.6671 S   0  0  0  0  0  0  0  0  0  0  0  0
   -2.0811   11.2258   -2.3412 C   0  0  0  0  0  0  0  0  0  0  0  0
   -1.2548   12.1226   -2.9720 C   0  0  0  0  0  0  0  0  0  0  0  0
   -1.4894   12.3842   -4.2943 N   0  0  0  0  0  0  0  0  0  0  0  0
   -0.6463   13.3687   -5.0611 C   0  0  0  0  0  0  0  0  0  0  0  0
    0.4980   15.5570   -4.3908 C   0  0  0  0  0  0  0  0  0  0  0  0
    0.4544   16.8778   -4.0366 N   0  0  0  0  0  0  0  0  0  0  0  0
   -0.7110   17.5201   -3.9226 C   0  0  0  0  0  0  0  0  0  0  0  0
   -1.8638   16.8837   -4.1497 N   0  0  0  0  0  0  0  0  0  0  0  0
   -1.8988   15.5739   -4.5082 C   0  0  0  0  0  0  0  0  0  0  0  0
   -0.7105   14.8487   -4.6501 C   0  0  0  0  0  0  0  0  0  0  0  0
  5  4  1  0  0  0  0
  5  6  1  0  0  0  0
  7  8  2  0  0  0  0
  7 11  1  0  0  0  0
  8  9  1  0  0  0  0
  9 10  2  0  0  0  0
  9  6  1  0  0  0  0
 10  3  1  0  0  0  0
 11 12  1  0  0  0  0
 11 10  1  0  0  0  0
 12 18  1  0  0  0  0
 13  2  1  0  0  0  0
 13 14  2  0  0  0  0
 15 14  1  0  0  0  0
 15  1  1  0  0  0  0
 16 15  2  0  0  0  0
 17 18  2  0  0  0  0
 17 16  1  0  0  0  0
 18 13  1  0  0  0  0
M  END
>  <CHROM.1>
-56.90300623,128.64693858,113.41541707,128.28038650,-1.11344834,13.41683775
-3.42695948,-1.33681581,0.62615897,2.71735473

>  <Name>
lig.pdb

>  <RI>
0

>  <Rbt.Current_Directory>
/home/itssahil/PROJECTS/Mol_Feturizer/New_Systems/rnas/4nyg

>  <Rbt.Executable>
rbdock ($Id: //depot/dev/client3/rdock/2013.1/src/exe/rbdock.cxx#4 $)

>  <Rbt.Library>
libRbt.so (2013.1, Build901 2013/11/27)

>  <Rbt.Parameter_File>
/export/apps/rDock/src/rDock_2013.1_src/data/scripts/dock_solv.prm

>  <Rbt.Receptor>
prm/blind_docking_20.prm

>  <SCORE>
-6.40526

>  <SCORE.INTER>
-8.75611

>  <SCORE.INTER.CONST>
1

>  <SCORE.INTER.POLAR>
0

>  <SCORE.INTER.ROT>
4

>  <SCORE.INTER.SOLV>
7.2918

>  <SCORE.INTER.VDW>
-14.5347

>  <SCORE.INTER.norm>
-0.48645

>  <SCORE.INTRA>
2.14759

>  <SCORE.INTRA.DIHEDRAL>
2.53826

>  <SCORE.INTRA.DIHEDRAL.0>
3.20029

>  <SCORE.INTRA.POLAR>
0

>  <SCORE.INTRA.POLAR.0>
0

>  <SCORE.INTRA.REPUL>
0

>  <SCORE.INTRA.REPUL.0>
0

>  <SCORE.INTRA.SOLV>
0.936339

>  <SCORE.INTRA.SOLV.lig_0>
-19.3885

>  <SCORE.INTRA.VDW>
0.410292

>  <SCORE.INTRA.VDW.0>
-1.12705

>  <SCORE.INTRA.norm>
0.119311

>  <SCORE.RESTR>
0.203255

>  <SCORE.RESTR.CAVITY>
0.203255

>  <SCORE.RESTR.norm>
0.011292

>  <SCORE.SYSTEM>
0

>  <SCORE.SYSTEM.CONST>
0

>  <SCORE.SYSTEM.DIHEDRAL>
0

>  <SCORE.SYSTEM.SOLV>
0

>  <SCORE.SYSTEM.norm>
0

>  <SCORE.heavy>
18

>  <SCORE.norm>
-0.355848

>  <RMSD>
9.846

$$$$
lig.pdb
 OpenBabel11021811503D
libRbt.so/2013.1/901 2013/11/27
 18 19  0  0  0  0  0  0  0  0999 V2000
   -1.0180   19.6229   -3.8667 C   0  0  0  0  0  0  0  0  0  0  0  0
    2.3775   16.1732   -4.1864 N   0  0  0  0  0  0  0  0  0  0  0  0
   -0.4948   12.4057   -1.4184 C   0  0  0  0  0  0  0  0  0  0  0  0
   -3.9403    9.1863   -3.9140 O   0  0  0  0  0  0  0  0  0  0  0  0
   -4.0826   10.0402   -2.7873 C   0  0  0  0  0  0  0  0  0  0  0  0
   -2.7038   10.3380   -2.1668 C   0  0  0  0  0  0  0  0  0  0  0  0
   -1.0362   12.7429   -5.1068 C   0  0  0  0  0  0  0  0  0  0  0  0
   -2.1973   11.4836   -4.8423 S   0  0  0  0  0  0  0  0  0  0  0  0
   -1.9760   11.2911   -3.0888 C   0  0  0  0  0  0  0  0  0  0  0  0
   -1.0009   12.2250   -2.8396 C   0  0  0  0  0  0  0  0  0  0  0  0
   -0.5345   12.9570   -3.8972 N   0  0  0  0  0  0  0  0  0  0  0  0
    0.5197   14.0168   -3.7139 C   0  0  0  0  0  0  0  0  0  0  0  0
    1.0404   16.5085   -3.9743 C   0  0  0  0  0  0  0  0  0  0  0  0
    0.6550   17.8209   -4.0066 N   0  0  0  0  0  0  0  0  0  0  0  0
   -0.6196   18.1674   -3.8088 C   0  0  0  0  0  0  0  0  0  0  0  0
   -1.5486   17.2370   -3.5711 N   0  0  0  0  0  0  0  0  0  0  0  0
   -1.2414   15.9146   -3.5276 C   0  0  0  0  0  0  0  0  0  0  0  0
    0.0755   15.4885   -3.7334 C   0  0  0  0  0  0  0  0  0  0  0  0
  5  4  1  0  0  0  0
  5  6  1  0  0  0  0
  7  8  2  0  0  0  0
  7 11  1  0  0  0  0
  8  9  1  0  0  0  0
  9 10  2  0  0  0  0
  9  6  1  0  0  0  0
 10  3  1  0  0  0  0
 11 12  1  0  0  0  0
 11 10  1  0  0  0  0
 12 18  1  0  0  0  0
 13  2  1  0  0  0  0
 13 14  2  0  0  0  0
 15 14  1  0  0  0  0
 15  1  1  0  0  0  0
 16 15  2  0  0  0  0
 17 18  2  0  0  0  0
 17 16  1  0  0  0  0
 18 13  1  0  0  0  0
M  END
>  <CHROM.1>
73.14819984,-26.62105180,75.23829731,-160.89538178,-1.10655635,13.86145040
-3.66034472,1.18639890,-0.00565300,-0.06314628

>  <Name>
lig.pdb

>  <RI>
0

>  <Rbt.Current_Directory>
/home/itssahil/PROJECTS/Mol_Feturizer/New_Systems/rnas/4nyg

>  <Rbt.Executable>
rbdock ($Id: //depot/dev/client3/rdock/2013.1/src/exe/rbdock.cxx#4 $)

>  <Rbt.Library>
libRbt.so (2013.1, Build901 2013/11/27)

>  <Rbt.Parameter_File>
/export/apps/rDock/src/rDock_2013.1_src/data/scripts/dock_solv.prm

>  <Rbt.Receptor>
prm/blind_docking_20.prm

>  <SCORE>
-5.92667

>  <SCORE.INTER>
-7.28888

>  <SCORE.INTER.CONST>
1

>  <SCORE.INTER.POLAR>
0

>  <SCORE.INTER.ROT>
4

>  <SCORE.INTER.SOLV>
8.99337

>  <SCORE.INTER.VDW>
-14.1237

>  <SCORE.INTER.norm>
-0.404938

>  <SCORE.INTRA>
1.21062

>  <SCORE.INTRA.DIHEDRAL>
2.16684

>  <SCORE.INTRA.DIHEDRAL.0>
3.20029

>  <SCORE.INTRA.POLAR>
0

>  <SCORE.INTRA.POLAR.0>
0

>  <SCORE.INTRA.REPUL>
0

>  <SCORE.INTRA.REPUL.0>
0

>  <SCORE.INTRA.SOLV>
0.354773

>  <SCORE.INTRA.SOLV.lig_0>
-19.3885

>  <SCORE.INTRA.VDW>
-0.0501856

>  <SCORE.INTRA.VDW.0>
-1.12705

>  <SCORE.INTRA.norm>
0.0672567

>  <SCORE.RESTR>
0.151581

>  <SCORE.RESTR.CAVITY>
0.151581

>  <SCORE.RESTR.norm>
0.00842118

>  <SCORE.SYSTEM>
0

>  <SCORE.SYSTEM.CONST>
0

>  <SCORE.SYSTEM.DIHEDRAL>
0

>  <SCORE.SYSTEM.SOLV>
0

>  <SCORE.SYSTEM.norm>
0

>  <SCORE.heavy>
18

>  <SCORE.norm>
-0.32926

>  <RMSD>
10.219

$$$$
lig.pdb
 OpenBabel11021811503D
libRbt.so/2013.1/901 2013/11/27
 18 19  0  0  0  0  0  0  0  0999 V2000
    3.4625   18.4171   -4.0309 C   0  0  0  0  0  0  0  0  0  0  0  0
   -1.0672   17.0753   -5.1325 N   0  0  0  0  0  0  0  0  0  0  0  0
   -0.8977   13.1041   -0.8427 C   0  0  0  0  0  0  0  0  0  0  0  0
    1.4823   10.6561   -1.3753 O   0  0  0  0  0  0  0  0  0  0  0  0
    0.6126    9.6734   -1.9200 C   0  0  0  0  0  0  0  0  0  0  0  0
   -0.8509   10.1477   -1.8290 C   0  0  0  0  0  0  0  0  0  0  0  0
   -1.2631   13.2379   -4.5657 C   0  0  0  0  0  0  0  0  0  0  0  0
   -1.1576   11.5132   -4.4307 S   0  0  0  0  0  0  0  0  0  0  0  0
   -0.9851   11.4014   -2.6649 C   0  0  0  0  0  0  0  0  0  0  0  0
   -1.0156   12.7273   -2.3101 C   0  0  0  0  0  0  0  0  0  0  0  0
   -1.1582   13.6512   -3.3092 N   0  0  0  0  0  0  0  0  0  0  0  0
   -1.2220   15.1260   -3.0109 C   0  0  0  0  0  0  0  0  0  0  0  0
    0.0548   16.9162   -4.3194 C   0  0  0  0  0  0  0  0  0  0  0  0
    1.1682   17.6802   -4.5399 N   0  0  0  0  0  0  0  0  0  0  0  0
    2.2543   17.5483   -3.7739 C   0  0  0  0  0  0  0  0  0  0  0  0
    2.2783   16.6621   -2.7742 N   0  0  0  0  0  0  0  0  0  0  0  0
    1.2098   15.8717   -2.4936 C   0  0  0  0  0  0  0  0  0  0  0  0
    0.0407   15.9679   -3.2565 C   0  0  0  0  0  0  0  0  0  0  0  0
  5  4  1  0  0  0  0
  5  6  1  0  0  0  0
  7  8  2  0  0  0  0
  7 11  1  0  0  0  0
  8  9  1  0  0  0  0
  9 10  2  0  0  0  0
  9  6  1  0  0  0  0
 10  3  1  0  0  0  0
 11 12  1  0  0  0  0
 11 10  1  0  0  0  0
 12 18  1  0  0  0  0
 13  2  1  0  0  0  0
 13 14  2  0  0  0  0
 15 14  1  0  0  0  0
 15  1  1  0  0  0  0
 16 15  2  0  0  0  0
 17 18  2  0  0  0  0
 17 16  1  0  0  0  0
 18 13  1  0  0  0  0
M  END
>  <CHROM.1>
62.44751316,79.76399320,-79.09537680,110.77336328,0.09638612,14.06493022
-3.20519775,-1.22916034,0.56509801,2.73417817

>  <Name>
lig.pdb

>  <RI>
0

>  <Rbt.Current_Directory>
/home/itssahil/PROJECTS/Mol_Feturizer/New_Systems/rnas/4nyg

>  <Rbt.Executable>
rbdock ($Id: //depot/dev/client3/rdock/2013.1/src/exe/rbdock.cxx#4 $)

>  <Rbt.Library>
libRbt.so (2013.1, Build901 2013/11/27)

>  <Rbt.Parameter_File>
/export/apps/rDock/src/rDock_2013.1_src/data/scripts/dock_solv.prm

>  <Rbt.Receptor>
prm/blind_docking_20.prm

>  <SCORE>
-7.08005

>  <SCORE.INTER>
-7.4774

>  <SCORE.INTER.CONST>
1

>  <SCORE.INTER.POLAR>
0

>  <SCORE.INTER.ROT>
4

>  <SCORE.INTER.SOLV>
8.27228

>  <SCORE.INTER.VDW>
-14.009

>  <SCORE.INTER.norm>
-0.415411

>  <SCORE.INTRA>
-0.162134

>  <SCORE.INTRA.DIHEDRAL>
0.536182

>  <SCORE.INTRA.DIHEDRAL.0>
3.20029

>  <SCORE.INTRA.POLAR>
0

>  <SCORE.INTRA.POLAR.0>
0

>  <SCORE.INTRA.REPUL>
0

>  <SCORE.INTRA.REPUL.0>
0

>  <SCORE.INTRA.SOLV>
0.812486

>  <SCORE.INTRA.SOLV.lig_0>
-19.3885

>  <SCORE.INTRA.VDW>
-0.836467

>  <SCORE.INTRA.VDW.0>
-1.12705

>  <SCORE.INTRA.norm>
-0.00900743

>  <SCORE.RESTR>
0.559486

>  <SCORE.RESTR.CAVITY>
0.559486

>  <SCORE.RESTR.norm>
0.0310825

>  <SCORE.SYSTEM>
0

>  <SCORE.SYSTEM.CONST>
0

>  <SCORE.SYSTEM.DIHEDRAL>
0

>  <SCORE.SYSTEM.SOLV>
0

>  <SCORE.SYSTEM.norm>
0

>  <SCORE.heavy>
18

>  <SCORE.norm>
-0.393336

>  <RMSD>
10.520

$$$$
lig.pdb
 OpenBabel11021811503D
libRbt.so/2013.1/901 2013/11/27
 18 19  0  0  0  0  0  0  0  0999 V2000
   -2.7427   23.5977   -6.4845 C   0  0  0  0  0  0  0  0  0  0  0  0
   -1.3760   20.2792   -3.2209 N   0  0  0  0  0  0  0  0  0  0  0  0
   -1.1743   16.0227   -3.4742 C   0  0  0  0  0  0  0  0  0  0  0  0
   -2.4779   12.4469   -4.6220 O   0  0  0  0  0  0  0  0  0  0  0  0
   -1.6196   12.5608   -5.7486 C   0  0  0  0  0  0  0  0  0  0  0  0
   -0.7032   13.7907   -5.5982 C   0  0  0  0  0  0  0  0  0  0  0  0
   -3.1942   16.9902   -6.4735 C   0  0  0  0  0  0  0  0  0  0  0  0
   -2.5344   15.5290   -7.1319 S   0  0  0  0  0  0  0  0  0  0  0  0
   -1.5627   15.0285   -5.7298 C   0  0  0  0  0  0  0  0  0  0  0  0
   -1.8214   16.0493   -4.8488 C   0  0  0  0  0  0  0  0  0  0  0  0
   -2.6637   17.0466   -5.2585 N   0  0  0  0  0  0  0  0  0  0  0  0
   -3.0198   18.1950   -4.3516 C   0  0  0  0  0  0  0  0  0  0  0  0
   -2.1503   20.6014   -4.3353 C   0  0  0  0  0  0  0  0  0  0  0  0
   -2.1006   21.8660   -4.8552 N   0  0  0  0  0  0  0  0  0  0  0  0
   -2.8307   22.1986   -5.9230 C   0  0  0  0  0  0  0  0  0  0  0  0
   -3.6306   21.3015   -6.5067 N   0  0  0  0  0  0  0  0  0  0  0  0
   -3.7292   20.0265   -6.0486 C   0  0  0  0  0  0  0  0  0  0  0  0
   -2.9843   19.6159   -4.9374 C   0  0  0  0  0  0  0  0  0  0  0  0
  5  4  1  0  0  0  0
  5  6  1  0  0  0  0
  7  8  2  0  0  0  0
  7 11  1  0  0  0  0
  8  9  1  0  0  0  0
  9 10  2  0  0  0  0
  9  6  1  0  0  0  0
 10  3  1  0  0  0  0
 11 12  1  0  0  0  0
 11 10  1  0  0  0  0
 12 18  1  0  0  0  0
 13  2  1  0  0  0  0
 13 14  2  0  0  0  0
 15 14  1  0  0  0  0
 15  1  1  0  0  0  0
 16 15  2  0  0  0  0
 17 18  2  0  0  0  0
 17 16  1  0  0  0  0
 18 13  1  0  0  0  0
M  END
>  <CHROM.1>
-69.36822959,-61.13423038,-46.46668862,-122.45631091,-2.35597504,17.72524958
-5.42460571,1.83835087,-1.13782913,0.24569088

>  <Name>
lig.pdb

>  <RI>
0

>  <Rbt.Current_Directory>
/home/itssahil/PROJECTS/Mol_Feturizer/New_Systems/rnas/4nyg

>  <Rbt.Executable>
rbdock ($Id: //depot/dev/client3/rdock/2013.1/src/exe/rbdock.cxx#4 $)

>  <Rbt.Library>
libRbt.so (2013.1, Build901 2013/11/27)

>  <Rbt.Parameter_File>
/export/apps/rDock/src/rDock_2013.1_src/data/scripts/dock_solv.prm

>  <Rbt.Receptor>
prm/blind_docking_60.prm

>  <SCORE>
-8.48174

>  <SCORE.INTER>
-8.64868

>  <SCORE.INTER.CONST>
1

>  <SCORE.INTER.POLAR>
0

>  <SCORE.INTER.ROT>
4

>  <SCORE.INTER.SOLV>
8.72098

>  <SCORE.INTER.VDW>
-14.9394

>  <SCORE.INTER.norm>
-0.480482

>  <SCORE.INTRA>
0.166946

>  <SCORE.INTRA.DIHEDRAL>
0.292223

>  <SCORE.INTRA.DIHEDRAL.0>
3.20029

>  <SCORE.INTRA.POLAR>
0

>  <SCORE.INTRA.POLAR.0>
0

>  <SCORE.INTRA.REPUL>
0

>  <SCORE.INTRA.REPUL.0>
0

>  <SCORE.INTRA.SOLV>
0.630881

>  <SCORE.INTRA.SOLV.lig_0>
-19.3885

>  <SCORE.INTRA.VDW>
-0.294606

>  <SCORE.INTRA.VDW.0>
-1.12705

>  <SCORE.INTRA.norm>
0.00927477

>  <SCORE.RESTR>
0

>  <SCORE.RESTR.CAVITY>
0

>  <SCORE.RESTR.norm>
0

>  <SCORE.SYSTEM>
0

>  <SCORE.SYSTEM.CONST>
0

>  <SCORE.SYSTEM.DIHEDRAL>
0

>  <SCORE.SYSTEM.SOLV>
0

>  <SCORE.SYSTEM.norm>
0

>  <SCORE.heavy>
18

>  <SCORE.norm>
-0.471208

>  <RMSD>
10.554

$$$$
lig.pdb
 OpenBabel11021811503D
libRbt.so/2013.1/901 2013/11/27
 18 19  0  0  0  0  0  0  0  0999 V2000
   -1.1213   14.2820   -5.7988 C   0  0  0  0  0  0  0  0  0  0  0  0
   -3.7617   18.3386   -6.1223 N   0  0  0  0  0  0  0  0  0  0  0  0
   -4.7383   21.0537   -5.1014 C   0  0  0  0  0  0  0  0  0  0  0  0
   -2.7173   24.7565   -7.7444 O   0  0  0  0  0  0  0  0  0  0  0  0
   -2.3469   23.6529   -6.9296 C   0  0  0  0  0  0  0  0  0  0  0  0
   -3.1359   23.6791   -5.6062 C   0  0  0  0  0  0  0  0  0  0  0  0
   -1.5054   20.6775   -3.2524 C   0  0  0  0  0  0  0  0  0  0  0  0
   -1.1905   22.2542   -3.8996 S   0  0  0  0  0  0  0  0  0  0  0  0
   -2.7130   22.4777   -4.7899 C   0  0  0  0  0  0  0  0  0  0  0  0
   -3.3552   21.2947   -4.5201 C   0  0  0  0  0  0  0  0  0  0  0  0
   -2.7096   20.3856   -3.7271 N   0  0  0  0  0  0  0  0  0  0  0  0
   -3.3464   19.0704   -3.3625 C   0  0  0  0  0  0  0  0  0  0  0  0
   -2.9904   17.4822   -5.3368 C   0  0  0  0  0  0  0  0  0  0  0  0
   -2.4557   16.3501   -5.8886 N   0  0  0  0  0  0  0  0  0  0  0  0
   -1.7119   15.5154   -5.1580 C   0  0  0  0  0  0  0  0  0  0  0  0
   -1.4756   15.7669   -3.8672 N   0  0  0  0  0  0  0  0  0  0  0  0
   -1.9704   16.8723   -3.2520 C   0  0  0  0  0  0  0  0  0  0  0  0
   -2.7514   17.7878   -3.9661 C   0  0  0  0  0  0  0  0  0  0  0  0
  5  4  1  0  0  0  0
  5  6  1  0  0  0  0
  7  8  2  0  0  0  0
  7 11  1  0  0  0  0
  8  9  1  0  0  0  0
  9 10  2  0  0  0  0
  9  6  1  0  0  0  0
 10  3  1  0  0  0  0
 11 12  1  0  0  0  0
 11 10  1  0  0  0  0
 12 18  1  0  0  0  0
 13  2  1  0  0  0  0
 13 14  2  0  0  0  0
 15 14  1  0  0  0  0
 15  1  1  0  0  0  0
 16 15  2  0  0  0  0
 17 18  2  0  0  0  0
 17 16  1  0  0  0  0
 18 13  1  0  0  0  0
M  END
>  <CHROM.1>
179.38585850,74.82927850,-70.49093206,-74.47004284,-2.46620964,19.78081061
-4.88168691,1.31869217,1.24234046,-3.02195232

>  <Name>
lig.pdb

>  <RI>
0

>  <Rbt.Current_Directory>
/home/itssahil/PROJECTS/Mol_Feturizer/New_Systems/rnas/4nyg

>  <Rbt.Executable>
rbdock ($Id: //depot/dev/client3/rdock/2013.1/src/exe/rbdock.cxx#4 $)

>  <Rbt.Library>
libRbt.so (2013.1, Build901 2013/11/27)

>  <Rbt.Parameter_File>
/export/apps/rDock/src/rDock_2013.1_src/data/scripts/dock_solv.prm

>  <Rbt.Receptor>
prm/blind_docking_60.prm

>  <SCORE>
-10.4997

>  <SCORE.INTER>
-10.4969

>  <SCORE.INTER.CONST>
1

>  <SCORE.INTER.POLAR>
0

>  <SCORE.INTER.ROT>
4

>  <SCORE.INTER.SOLV>
11.1961

>  <SCORE.INTER.VDW>
-16.9966

>  <SCORE.INTER.norm>
-0.583162

>  <SCORE.INTRA>
-0.0027478

>  <SCORE.INTRA.DIHEDRAL>
0.266443

>  <SCORE.INTRA.DIHEDRAL.0>
3.20029

>  <SCORE.INTRA.POLAR>
0

>  <SCORE.INTRA.POLAR.0>
0

>  <SCORE.INTRA.REPUL>
0

>  <SCORE.INTRA.REPUL.0>
0

>  <SCORE.INTRA.SOLV>
0.922232

>  <SCORE.INTRA.SOLV.lig_0>
-19.3885

>  <SCORE.INTRA.VDW>
-0.597085

>  <SCORE.INTRA.VDW.0>
-1.12705

>  <SCORE.INTRA.norm>
-0.000152655

>  <SCORE.RESTR>
0

>  <SCORE.RESTR.CAVITY>
0

>  <SCORE.RESTR.norm>
0

>  <SCORE.SYSTEM>
0

>  <SCORE.SYSTEM.CONST>
0

>  <SCORE.SYSTEM.DIHEDRAL>
0

>  <SCORE.SYSTEM.SOLV>
0

>  <SCORE.SYSTEM.norm>
0

>  <SCORE.heavy>
18

>  <SCORE.norm>
-0.583315

>  <RMSD>
10.563

$$$$
lig.pdb
 OpenBabel11021811503D
libRbt.so/2013.1/901 2013/11/27
 18 19  0  0  0  0  0  0  0  0999 V2000
   -0.5450   19.3632   -3.0002 C   0  0  0  0  0  0  0  0  0  0  0  0
    2.6375   16.2991   -5.0041 N   0  0  0  0  0  0  0  0  0  0  0  0
   -1.7555   13.4040   -5.2795 C   0  0  0  0  0  0  0  0  0  0  0  0
   -2.8922    9.6832   -1.8633 O   0  0  0  0  0  0  0  0  0  0  0  0
   -3.6596   10.6234   -2.6024 C   0  0  0  0  0  0  0  0  0  0  0  0
   -3.0189   10.8668   -3.9826 C   0  0  0  0  0  0  0  0  0  0  0  0
    0.8646   11.9669   -3.0252 C   0  0  0  0  0  0  0  0  0  0  0  0
   -0.3599   10.7847   -2.6979 S   0  0  0  0  0  0  0  0  0  0  0  0
   -1.6329   11.4298   -3.7581 C   0  0  0  0  0  0  0  0  0  0  0  0
   -1.0062   12.5310   -4.2867 C   0  0  0  0  0  0  0  0  0  0  0  0
    0.2787   12.7843   -3.8908 N   0  0  0  0  0  0  0  0  0  0  0  0
    1.0503   13.9581   -4.4340 C   0  0  0  0  0  0  0  0  0  0  0  0
    1.4266   16.4872   -4.3380 C   0  0  0  0  0  0  0  0  0  0  0  0
    1.0301   17.7499   -3.9915 N   0  0  0  0  0  0  0  0  0  0  0  0
   -0.1259   17.9564   -3.3553 C   0  0  0  0  0  0  0  0  0  0  0  0
   -0.9215   16.9304   -3.0395 N   0  0  0  0  0  0  0  0  0  0  0  0
   -0.5956   15.6498   -3.3540 C   0  0  0  0  0  0  0  0  0  0  0  0
    0.5994   15.3701   -4.0262 C   0  0  0  0  0  0  0  0  0  0  0  0
  5  4  1  0  0  0  0
  5  6  1  0  0  0  0
  7  8  2  0  0  0  0
  7 11  1  0  0  0  0
  8  9  1  0  0  0  0
  9 10  2  0  0  0  0
  9  6  1  0  0  0  0
 10  3  1  0  0  0  0
 11 12  1  0  0  0  0
 11 10  1  0  0  0  0
 12 18  1  0  0  0  0
 13  2  1  0  0  0  0
 13 14  2  0  0  0  0
 15 14  1  0  0  0  0
 15  1  1  0  0  0  0
 16 15  2  0  0  0  0
 17 18  2  0  0  0  0
 17 16  1  0  0  0  0
 18 13  1  0  0  0  0
M  END
>  <CHROM.1>
-61.08538178,50.42954709,-112.32677160,169.82310950,-0.51214046,13.83499689
-3.57894223,1.20312658,0.29112378,-0.01276664

>  <Name>
lig.pdb

>  <RI>
0

>  <Rbt.Current_Directory>
/home/itssahil/PROJECTS/Mol_Feturizer/New_Systems/rnas/4nyg

>  <Rbt.Executable>
rbdock ($Id: //depot/dev/client3/rdock/2013.1/src/exe/rbdock.cxx#4 $)

>  <Rbt.Library>
libRbt.so (2013.1, Build901 2013/11/27)

>  <Rbt.Parameter_File>
/export/apps/rDock/src/rDock_2013.1_src/data/scripts/dock_solv.prm

>  <Rbt.Receptor>
prm/blind_docking_20.prm

>  <SCORE>
-6.87124

>  <SCORE.INTER>
-7.81382

>  <SCORE.INTER.CONST>
1

>  <SCORE.INTER.POLAR>
0

>  <SCORE.INTER.ROT>
4

>  <SCORE.INTER.SOLV>
7.85578

>  <SCORE.INTER.VDW>
-14.0945

>  <SCORE.INTER.norm>
-0.434101

>  <SCORE.INTRA>
0.499953

>  <SCORE.INTRA.DIHEDRAL>
0.0686673

>  <SCORE.INTRA.DIHEDRAL.0>
3.20029

>  <SCORE.INTRA.POLAR>
0

>  <SCORE.INTRA.POLAR.0>
0

>  <SCORE.INTRA.REPUL>
0

>  <SCORE.INTRA.REPUL.0>
0

>  <SCORE.INTRA.SOLV>
0.526765

>  <SCORE.INTRA.SOLV.lig_0>
-19.3885

>  <SCORE.INTRA.VDW>
0.202237

>  <SCORE.INTRA.VDW.0>
-1.12705

>  <SCORE.INTRA.norm>
0.0277752

>  <SCORE.RESTR>
0.442627

>  <SCORE.RESTR.CAVITY>
0.442627

>  <SCORE.RESTR.norm>
0.0245904

>  <SCORE.SYSTEM>
0

>  <SCORE.SYSTEM.CONST>
0

>  <SCORE.SYSTEM.DIHEDRAL>
0

>  <SCORE.SYSTEM.SOLV>
0

>  <SCORE.SYSTEM.norm>
0

>  <SCORE.heavy>
18

>  <SCORE.norm>
-0.381736

>  <RMSD>
10.592

$$$$
lig.pdb
 OpenBabel11021811503D
libRbt.so/2013.1/901 2013/11/27
 18 19  0  0  0  0  0  0  0  0999 V2000
   -2.2807   11.5759   -4.7138 C   0  0  0  0  0  0  0  0  0  0  0  0
   -0.3817   15.5242   -2.6313 N   0  0  0  0  0  0  0  0  0  0  0  0
    1.8197   16.6014   -6.9397 C   0  0  0  0  0  0  0  0  0  0  0  0
    5.2600   19.5282   -4.9330 O   0  0  0  0  0  0  0  0  0  0  0  0
    5.1036   18.7782   -6.1297 C   0  0  0  0  0  0  0  0  0  0  0  0
    4.6245   17.3500   -5.8048 C   0  0  0  0  0  0  0  0  0  0  0  0
    1.2387   17.8609   -3.4630 C   0  0  0  0  0  0  0  0  0  0  0  0
    2.9621   18.0446   -3.4635 S   0  0  0  0  0  0  0  0  0  0  0  0
    3.2850   17.4569   -5.1100 C   0  0  0  0  0  0  0  0  0  0  0  0
    2.0163   17.1522   -5.5373 C   0  0  0  0  0  0  0  0  0  0  0  0
    0.9820   17.3689   -4.6683 N   0  0  0  0  0  0  0  0  0  0  0  0
   -0.4441   17.0826   -5.0588 C   0  0  0  0  0  0  0  0  0  0  0  0
   -0.8730   14.9071   -3.7817 C   0  0  0  0  0  0  0  0  0  0  0  0
   -1.3116   13.6125   -3.7244 N   0  0  0  0  0  0  0  0  0  0  0  0
   -1.7885   13.0002   -4.8114 C   0  0  0  0  0  0  0  0  0  0  0  0
   -1.8447   13.6399   -5.9831 N   0  0  0  0  0  0  0  0  0  0  0  0
   -1.4304   14.9268   -6.1157 C   0  0  0  0  0  0  0  0  0  0  0  0
   -0.9270   15.6238   -5.0117 C   0  0  0  0  0  0  0  0  0  0  0  0
  5  4  1  0  0  0  0
  5  6  1  0  0  0  0
  7  8  2  0  0  0  0
  7 11  1  0  0  0  0
  8  9  1  0  0  0  0
  9 10  2  0  0  0  0
  9  6  1  0  0  0  0
 10  3  1  0  0  0  0
 11 12  1  0  0  0  0
 11 10  1  0  0  0  0
 12 18  1  0  0  0  0
 13  2  1  0  0  0  0
 13 14  2  0  0  0  0
 15 14  1  0  0  0  0
 15  1  1  0  0  0  0
 16 15  2  0  0  0  0
 17 18  2  0  0  0  0
 17 16  1  0  0  0  0
 18 13  1  0  0  0  0
M  END
>  <CHROM.1>
61.01843694,-71.32524286,-101.61086247,59.04962131,1.08524409,16.27272694
-4.79452798,-2.93086779,0.67475122,1.18764265

>  <Name>
lig.pdb

>  <RI>
0

>  <Rbt.Current_Directory>
/home/itssahil/PROJECTS/Mol_Feturizer/New_Systems/rnas/4nyg

>  <Rbt.Executable>
rbdock ($Id: //depot/dev/client3/rdock/2013.1/src/exe/rbdock.cxx#4 $)

>  <Rbt.Library>
libRbt.so (2013.1, Build901 2013/11/27)

>  <Rbt.Parameter_File>
/export/apps/rDock/src/rDock_2013.1_src/data/scripts/dock_solv.prm

>  <Rbt.Receptor>
prm/blind_docking_60.prm

>  <SCORE>
-11.5091

>  <SCORE.INTER>
-11.2722

>  <SCORE.INTER.CONST>
1

>  <SCORE.INTER.POLAR>
0

>  <SCORE.INTER.ROT>
4

>  <SCORE.INTER.SOLV>
6.55761

>  <SCORE.INTER.VDW>
-15.9673

>  <SCORE.INTER.norm>
-0.626232

>  <SCORE.INTRA>
-0.236878

>  <SCORE.INTRA.DIHEDRAL>
0.105475

>  <SCORE.INTRA.DIHEDRAL.0>
3.20029

>  <SCORE.INTRA.POLAR>
0

>  <SCORE.INTRA.POLAR.0>
0

>  <SCORE.INTRA.REPUL>
0

>  <SCORE.INTRA.REPUL.0>
0

>  <SCORE.INTRA.SOLV>
1.27425

>  <SCORE.INTRA.SOLV.lig_0>
-19.3885

>  <SCORE.INTRA.VDW>
-0.926739

>  <SCORE.INTRA.VDW.0>
-1.12705

>  <SCORE.INTRA.norm>
-0.0131599

>  <SCORE.RESTR>
0

>  <SCORE.RESTR.CAVITY>
0

>  <SCORE.RESTR.norm>
0

>  <SCORE.SYSTEM>
0

>  <SCORE.SYSTEM.CONST>
0

>  <SCORE.SYSTEM.DIHEDRAL>
0

>  <SCORE.SYSTEM.SOLV>
0

>  <SCORE.SYSTEM.norm>
0

>  <SCORE.heavy>
18

>  <SCORE.norm>
-0.639392

>  <RMSD>
10.806

$$$$
lig.pdb
 OpenBabel11021811503D
libRbt.so/2013.1/901 2013/11/27
 18 19  0  0  0  0  0  0  0  0999 V2000
    3.9541   17.9332   -4.5671 C   0  0  0  0  0  0  0  0  0  0  0  0
   -0.6238   18.1172   -2.9731 N   0  0  0  0  0  0  0  0  0  0  0  0
   -0.4531   13.8062   -1.7752 C   0  0  0  0  0  0  0  0  0  0  0  0
   -3.2037   10.0044   -2.5777 O   0  0  0  0  0  0  0  0  0  0  0  0
   -2.2458   10.3050   -1.5722 C   0  0  0  0  0  0  0  0  0  0  0  0
   -0.9206   10.7563   -2.2165 C   0  0  0  0  0  0  0  0  0  0  0  0
   -1.9773   13.4634   -5.1768 C   0  0  0  0  0  0  0  0  0  0  0  0
   -1.9495   11.7737   -4.7921 S   0  0  0  0  0  0  0  0  0  0  0  0
   -1.2305   11.8889   -3.1703 C   0  0  0  0  0  0  0  0  0  0  0  0
   -1.0578   13.2457   -3.0516 C   0  0  0  0  0  0  0  0  0  0  0  0
   -1.4497   14.0322   -4.1003 N   0  0  0  0  0  0  0  0  0  0  0  0
   -1.3165   15.5314   -4.0496 C   0  0  0  0  0  0  0  0  0  0  0  0
    0.3673   17.4189   -3.6626 C   0  0  0  0  0  0  0  0  0  0  0  0
    1.6151   17.9637   -3.7962 N   0  0  0  0  0  0  0  0  0  0  0  0
    2.5818   17.3140   -4.4500 C   0  0  0  0  0  0  0  0  0  0  0  0
    2.3494   16.1151   -4.9922 N   0  0  0  0  0  0  0  0  0  0  0  0
    1.1367   15.5104   -4.8973 C   0  0  0  0  0  0  0  0  0  0  0  0
    0.0858   16.1382   -4.2193 C   0  0  0  0  0  0  0  0  0  0  0  0
  5  4  1  0  0  0  0
  5  6  1  0  0  0  0
  7  8  2  0  0  0  0
  7 11  1  0  0  0  0
  8  9  1  0  0  0  0
  9 10  2  0  0  0  0
  9  6  1  0  0  0  0
 10  3  1  0  0  0  0
 11 12  1  0  0  0  0
 11 10  1  0  0  0  0
 12 18  1  0  0  0  0
 13  2  1  0  0  0  0
 13 14  2  0  0  0  0
 15 14  1  0  0  0  0
 15  1  1  0  0  0  0
 16 15  2  0  0  0  0
 17 18  2  0  0  0  0
 17 16  1  0  0  0  0
 18 13  1  0  0  0  0
M  END
>  <CHROM.1>
53.43852637,-76.80271298,-106.01204481,-154.64303276,-0.37927273,14.27883683
-3.72186925,-0.59814100,-0.88113393,-2.47793996

>  <Name>
lig.pdb

>  <RI>
0

>  <Rbt.Current_Directory>
/home/itssahil/PROJECTS/Mol_Feturizer/New_Systems/rnas/4nyg

>  <Rbt.Executable>
rbdock ($Id: //depot/dev/client3/rdock/2013.1/src/exe/rbdock.cxx#4 $)

>  <Rbt.Library>
libRbt.so (2013.1, Build901 2013/11/27)

>  <Rbt.Parameter_File>
/export/apps/rDock/src/rDock_2013.1_src/data/scripts/dock_solv.prm

>  <Rbt.Receptor>
prm/blind_docking_20.prm

>  <SCORE>
-8.73811

>  <SCORE.INTER>
-8.76148

>  <SCORE.INTER.CONST>
1

>  <SCORE.INTER.POLAR>
0

>  <SCORE.INTER.ROT>
4

>  <SCORE.INTER.SOLV>
7.49949

>  <SCORE.INTER.VDW>
-14.6075

>  <SCORE.INTER.norm>
-0.486749

>  <SCORE.INTRA>
-0.184605

>  <SCORE.INTRA.DIHEDRAL>
0.532567

>  <SCORE.INTRA.DIHEDRAL.0>
3.20029

>  <SCORE.INTRA.POLAR>
0

>  <SCORE.INTRA.POLAR.0>
0

>  <SCORE.INTRA.REPUL>
0

>  <SCORE.INTRA.REPUL.0>
0

>  <SCORE.INTRA.SOLV>
0.507902

>  <SCORE.INTRA.SOLV.lig_0>
-19.3885

>  <SCORE.INTRA.VDW>
-0.704839

>  <SCORE.INTRA.VDW.0>
-1.12705

>  <SCORE.INTRA.norm>
-0.0102558

>  <SCORE.RESTR>
0.207976

>  <SCORE.RESTR.CAVITY>
0.207976

>  <SCORE.RESTR.norm>
0.0115542

>  <SCORE.SYSTEM>
0

>  <SCORE.SYSTEM.CONST>
0

>  <SCORE.SYSTEM.DIHEDRAL>
0

>  <SCORE.SYSTEM.SOLV>
0

>  <SCORE.SYSTEM.norm>
0

>  <SCORE.heavy>
18

>  <SCORE.norm>
-0.485451

>  <RMSD>
10.870

$$$$
lig.pdb
 OpenBabel11021811503D
libRbt.so/2013.1/901 2013/11/27
 18 19  0  0  0  0  0  0  0  0999 V2000
    4.1075   17.5896   -4.3961 C   0  0  0  0  0  0  0  0  0  0  0  0
   -0.6845   18.1248   -3.8643 N   0  0  0  0  0  0  0  0  0  0  0  0
   -0.4465   13.9750   -1.7781 C   0  0  0  0  0  0  0  0  0  0  0  0
    1.4034   10.9926   -2.1302 O   0  0  0  0  0  0  0  0  0  0  0  0
    0.2841   10.1186   -2.0805 C   0  0  0  0  0  0  0  0  0  0  0  0
   -0.9919   10.9066   -1.7259 C   0  0  0  0  0  0  0  0  0  0  0  0
   -1.9588   13.1251   -5.0951 C   0  0  0  0  0  0  0  0  0  0  0  0
   -1.9780   11.5196   -4.4423 S   0  0  0  0  0  0  0  0  0  0  0  0
   -1.2660   11.8774   -2.8531 C   0  0  0  0  0  0  0  0  0  0  0  0
   -1.0582   13.2308   -2.9533 C   0  0  0  0  0  0  0  0  0  0  0  0
   -1.4229   13.8469   -4.1192 N   0  0  0  0  0  0  0  0  0  0  0  0
   -1.2504   15.3308   -4.3099 C   0  0  0  0  0  0  0  0  0  0  0  0
    0.3955   17.2812   -4.1237 C   0  0  0  0  0  0  0  0  0  0  0  0
    1.6653   17.7900   -4.1480 N   0  0  0  0  0  0  0  0  0  0  0  0
    2.7161   17.0025   -4.3919 C   0  0  0  0  0  0  0  0  0  0  0  0
    2.5492   15.6968   -4.6213 N   0  0  0  0  0  0  0  0  0  0  0  0
    1.3193   15.1204   -4.6100 C   0  0  0  0  0  0  0  0  0  0  0  0
    0.1803   15.8920   -4.3542 C   0  0  0  0  0  0  0  0  0  0  0  0
  5  4  1  0  0  0  0
  5  6  1  0  0  0  0
  7  8  2  0  0  0  0
  7 11  1  0  0  0  0
  8  9  1  0  0  0  0
  9 10  2  0  0  0  0
  9  6  1  0  0  0  0
 10  3  1  0  0  0  0
 11 12  1  0  0  0  0
 11 10  1  0  0  0  0
 12 18  1  0  0  0  0
 13  2  1  0  0  0  0
 13 14  2  0  0  0  0
 15 14  1  0  0  0  0
 15  1  1  0  0  0  0
 16 15  2  0  0  0  0
 17 18  2  0  0  0  0
 17 16  1  0  0  0  0
 18 13  1  0  0  0  0
M  END
>  <CHROM.1>
64.52608450,77.45149957,-114.83553969,-160.97498225,0.07404364,14.17508376
-3.69191312,-1.11509315,0.25404686,2.80446605

>  <Name>
lig.pdb

>  <RI>
0

>  <Rbt.Current_Directory>
/home/itssahil/PROJECTS/Mol_Feturizer/New_Systems/rnas/4nyg

>  <Rbt.Executable>
rbdock ($Id: //depot/dev/client3/rdock/2013.1/src/exe/rbdock.cxx#4 $)

>  <Rbt.Library>
libRbt.so (2013.1, Build901 2013/11/27)

>  <Rbt.Parameter_File>
/export/apps/rDock/src/rDock_2013.1_src/data/scripts/dock_solv.prm

>  <Rbt.Receptor>
prm/blind_docking_20.prm

>  <SCORE>
-8.63025

>  <SCORE.INTER>
-8.48739

>  <SCORE.INTER.CONST>
1

>  <SCORE.INTER.POLAR>
0

>  <SCORE.INTER.ROT>
4

>  <SCORE.INTER.SOLV>
7.52358

>  <SCORE.INTER.VDW>
-14.4328

>  <SCORE.INTER.norm>
-0.471521

>  <SCORE.INTRA>
-0.265111

>  <SCORE.INTRA.DIHEDRAL>
0.491392

>  <SCORE.INTRA.DIHEDRAL.0>
3.20029

>  <SCORE.INTRA.POLAR>
0

>  <SCORE.INTRA.POLAR.0>
0

>  <SCORE.INTRA.REPUL>
0

>  <SCORE.INTRA.REPUL.0>
0

>  <SCORE.INTRA.SOLV>
0.590278

>  <SCORE.INTRA.SOLV.lig_0>
-19.3885

>  <SCORE.INTRA.VDW>
-0.805946

>  <SCORE.INTRA.VDW.0>
-1.12705

>  <SCORE.INTRA.norm>
-0.0147284

>  <SCORE.RESTR>
0.122249

>  <SCORE.RESTR.CAVITY>
0.122249

>  <SCORE.RESTR.norm>
0.0067916

>  <SCORE.SYSTEM>
0

>  <SCORE.SYSTEM.CONST>
0

>  <SCORE.SYSTEM.DIHEDRAL>
0

>  <SCORE.SYSTEM.SOLV>
0

>  <SCORE.SYSTEM.norm>
0

>  <SCORE.heavy>
18

>  <SCORE.norm>
-0.479458

>  <RMSD>
10.877

$$$$
lig.pdb
 OpenBabel11021811503D
libRbt.so/2013.1/901 2013/11/27
 18 19  0  0  0  0  0  0  0  0999 V2000
    4.0895   18.2095   -4.2891 C   0  0  0  0  0  0  0  0  0  0  0  0
   -0.6023   18.2465   -3.0572 N   0  0  0  0  0  0  0  0  0  0  0  0
   -0.0711   14.5210   -1.9476 C   0  0  0  0  0  0  0  0  0  0  0  0
    1.7500   11.4333   -2.5106 O   0  0  0  0  0  0  0  0  0  0  0  0
    0.6338   10.6008   -2.2278 C   0  0  0  0  0  0  0  0  0  0  0  0
   -0.5495   11.4492   -1.7229 C   0  0  0  0  0  0  0  0  0  0  0  0
   -1.9405   13.5254   -5.0339 C   0  0  0  0  0  0  0  0  0  0  0  0
   -1.8542   11.9455   -4.3265 S   0  0  0  0  0  0  0  0  0  0  0  0
   -0.9701   12.3730   -2.8445 C   0  0  0  0  0  0  0  0  0  0  0  0
   -0.8005   13.7245   -3.0164 C   0  0  0  0  0  0  0  0  0  0  0  0
   -1.3089   14.2910   -4.1533 N   0  0  0  0  0  0  0  0  0  0  0  0
   -1.1872   15.7691   -4.4155 C   0  0  0  0  0  0  0  0  0  0  0  0
    0.4459   17.6140   -3.7255 C   0  0  0  0  0  0  0  0  0  0  0  0
    1.6963   18.1691   -3.7087 N   0  0  0  0  0  0  0  0  0  0  0  0
    2.7169   17.5818   -4.3389 C   0  0  0  0  0  0  0  0  0  0  0  0
    2.5376   16.4371   -5.0044 N   0  0  0  0  0  0  0  0  0  0  0  0
    1.3259   15.8259   -5.0622 C   0  0  0  0  0  0  0  0  0  0  0  0
    0.2195   16.3891   -4.4166 C   0  0  0  0  0  0  0  0  0  0  0  0
  5  4  1  0  0  0  0
  5  6  1  0  0  0  0
  7  8  2  0  0  0  0
  7 11  1  0  0  0  0
  8  9  1  0  0  0  0
  9 10  2  0  0  0  0
  9  6  1  0  0  0  0
 10  3  1  0  0  0  0
 11 12  1  0  0  0  0
 11 10  1  0  0  0  0
 12 18  1  0  0  0  0
 13  2  1  0  0  0  0
 13 14  2  0  0  0  0
 15 14  1  0  0  0  0
 15  1  1  0  0  0  0
 16 15  2  0  0  0  0
 17 18  2  0  0  0  0
 17 16  1  0  0  0  0
 18 13  1  0  0  0  0
M  END
>  <CHROM.1>
63.89284246,73.79156866,-124.66909789,-134.75333012,0.21877872,14.65374060
-3.67773198,-1.13493292,0.22463830,2.86525493

>  <Name>
lig.pdb

>  <RI>
0

>  <Rbt.Current_Directory>
/home/itssahil/PROJECTS/Mol_Feturizer/New_Systems/rnas/4nyg

>  <Rbt.Executable>
rbdock ($Id: //depot/dev/client3/rdock/2013.1/src/exe/rbdock.cxx#4 $)

>  <Rbt.Library>
libRbt.so (2013.1, Build901 2013/11/27)

>  <Rbt.Parameter_File>
/export/apps/rDock/src/rDock_2013.1_src/data/scripts/dock_solv.prm

>  <Rbt.Receptor>
prm/blind_docking_20.prm

>  <SCORE>
-7.48227

>  <SCORE.INTER>
-7.439

>  <SCORE.INTER.CONST>
1

>  <SCORE.INTER.POLAR>
0

>  <SCORE.INTER.ROT>
4

>  <SCORE.INTER.SOLV>
7.23157

>  <SCORE.INTER.VDW>
-13.6365

>  <SCORE.INTER.norm>
-0.413278

>  <SCORE.INTRA>
-0.124613

>  <SCORE.INTRA.DIHEDRAL>
0.318491

>  <SCORE.INTRA.DIHEDRAL.0>
3.20029

>  <SCORE.INTRA.POLAR>
0

>  <SCORE.INTRA.POLAR.0>
0

>  <SCORE.INTRA.REPUL>
0

>  <SCORE.INTRA.REPUL.0>
0

>  <SCORE.INTRA.SOLV>
0.841072

>  <SCORE.INTRA.SOLV.lig_0>
-19.3885

>  <SCORE.INTRA.VDW>
-0.704395

>  <SCORE.INTRA.VDW.0>
-1.12705

>  <SCORE.INTRA.norm>
-0.00692297

>  <SCORE.RESTR>
0.0813493

>  <SCORE.RESTR.CAVITY>
0.0813493

>  <SCORE.RESTR.norm>
0.00451941

>  <SCORE.SYSTEM>
0

>  <SCORE.SYSTEM.CONST>
0

>  <SCORE.SYSTEM.DIHEDRAL>
0

>  <SCORE.SYSTEM.SOLV>
0

>  <SCORE.SYSTEM.norm>
0

>  <SCORE.heavy>
18

>  <SCORE.norm>
-0.415682

>  <RMSD>
10.882

$$$$
lig.pdb
 OpenBabel11021811503D
libRbt.so/2013.1/901 2013/11/27
 18 19  0  0  0  0  0  0  0  0999 V2000
    4.2079   18.0554   -4.5154 C   0  0  0  0  0  0  0  0  0  0  0  0
   -0.3632   18.1593   -2.8947 N   0  0  0  0  0  0  0  0  0  0  0  0
   -0.0534   14.4573   -1.9165 C   0  0  0  0  0  0  0  0  0  0  0  0
    0.8882    9.5081   -1.3824 O   0  0  0  0  0  0  0  0  0  0  0  0
    0.6071   10.5756   -2.2770 C   0  0  0  0  0  0  0  0  0  0  0  0
   -0.5981   11.3917   -1.7709 C   0  0  0  0  0  0  0  0  0  0  0  0
   -1.9496   13.5834   -5.0233 C   0  0  0  0  0  0  0  0  0  0  0  0
   -1.8964   11.9841   -4.3576 S   0  0  0  0  0  0  0  0  0  0  0  0
   -1.0006   12.3534   -2.8671 C   0  0  0  0  0  0  0  0  0  0  0  0
   -0.8019   13.7050   -3.0040 C   0  0  0  0  0  0  0  0  0  0  0  0
   -1.2999   14.3119   -4.1245 N   0  0  0  0  0  0  0  0  0  0  0  0
   -1.1466   15.7933   -4.3484 C   0  0  0  0  0  0  0  0  0  0  0  0
    0.6033   17.5386   -3.6859 C   0  0  0  0  0  0  0  0  0  0  0  0
    1.8702   18.0523   -3.7400 N   0  0  0  0  0  0  0  0  0  0  0  0
    2.8139   17.4751   -4.4884 C   0  0  0  0  0  0  0  0  0  0  0  0
    2.5395   16.3815   -5.2054 N   0  0  0  0  0  0  0  0  0  0  0  0
    1.3057   15.8133   -5.1987 C   0  0  0  0  0  0  0  0  0  0  0  0
    0.2769   16.3681   -4.4294 C   0  0  0  0  0  0  0  0  0  0  0  0
  5  4  1  0  0  0  0
  5  6  1  0  0  0  0
  7  8  2  0  0  0  0
  7 11  1  0  0  0  0
  8  9  1  0  0  0  0
  9 10  2  0  0  0  0
  9  6  1  0  0  0  0
 10  3  1  0  0  0  0
 11 12  1  0  0  0  0
 11 10  1  0  0  0  0
 12 18  1  0  0  0  0
 13  2  1  0  0  0  0
 13 14  2  0  0  0  0
 15 14  1  0  0  0  0
 15  1  1  0  0  0  0
 16 15  2  0  0  0  0
 17 18  2  0  0  0  0
 17 16  1  0  0  0  0
 18 13  1  0  0  0  0
M  END
>  <CHROM.1>
-170.33791562,76.33890214,-120.70147236,-132.86608317,0.20098308,14.50385217
-3.64003318,-1.16523356,0.28053172,2.79032750

>  <Name>
lig.pdb

>  <RI>
0

>  <Rbt.Current_Directory>
/home/itssahil/PROJECTS/Mol_Feturizer/New_Systems/rnas/4nyg

>  <Rbt.Executable>
rbdock ($Id: //depot/dev/client3/rdock/2013.1/src/exe/rbdock.cxx#4 $)

>  <Rbt.Library>
libRbt.so (2013.1, Build901 2013/11/27)

>  <Rbt.Parameter_File>
/export/apps/rDock/src/rDock_2013.1_src/data/scripts/dock_solv.prm

>  <Rbt.Receptor>
prm/blind_docking_20.prm

>  <SCORE>
-7.78077

>  <SCORE.INTER>
-7.7719

>  <SCORE.INTER.CONST>
1

>  <SCORE.INTER.POLAR>
0

>  <SCORE.INTER.ROT>
4

>  <SCORE.INTER.SOLV>
7.56672

>  <SCORE.INTER.VDW>
-13.9702

>  <SCORE.INTER.norm>
-0.431772

>  <SCORE.INTRA>
-0.127887

>  <SCORE.INTRA.DIHEDRAL>
0.719787

>  <SCORE.INTRA.DIHEDRAL.0>
3.20029

>  <SCORE.INTRA.POLAR>
0

>  <SCORE.INTRA.POLAR.0>
0

>  <SCORE.INTRA.REPUL>
0

>  <SCORE.INTRA.REPUL.0>
0

>  <SCORE.INTRA.SOLV>
0.284094

>  <SCORE.INTRA.SOLV.lig_0>
-19.3885

>  <SCORE.INTRA.VDW>
-0.629827

>  <SCORE.INTRA.VDW.0>
-1.12705

>  <SCORE.INTRA.norm>
-0.00710482

>  <SCORE.RESTR>
0.119019

>  <SCORE.RESTR.CAVITY>
0.119019

>  <SCORE.RESTR.norm>
0.00661219

>  <SCORE.SYSTEM>
0

>  <SCORE.SYSTEM.CONST>
0

>  <SCORE.SYSTEM.DIHEDRAL>
0

>  <SCORE.SYSTEM.SOLV>
0

>  <SCORE.SYSTEM.norm>
0

>  <SCORE.heavy>
18

>  <SCORE.norm>
-0.432265

>  <RMSD>
10.973

$$$$
lig.pdb
 OpenBabel11021811503D
libRbt.so/2013.1/901 2013/11/27
 18 19  0  0  0  0  0  0  0  0999 V2000
    4.2376   18.0777   -5.1914 C   0  0  0  0  0  0  0  0  0  0  0  0
    0.4744   18.1408   -2.1309 N   0  0  0  0  0  0  0  0  0  0  0  0
   -0.7817   12.8327   -1.2320 C   0  0  0  0  0  0  0  0  0  0  0  0
   -4.0465    9.0984   -3.1888 O   0  0  0  0  0  0  0  0  0  0  0  0
   -3.6538   10.4445   -3.4186 C   0  0  0  0  0  0  0  0  0  0  0  0
   -2.1981   10.6604   -2.9612 C   0  0  0  0  0  0  0  0  0  0  0  0
   -1.2877   14.3547   -4.6142 C   0  0  0  0  0  0  0  0  0  0  0  0
   -1.9980   12.8148   -4.9726 S   0  0  0  0  0  0  0  0  0  0  0  0
   -1.7815   12.0527   -3.3812 C   0  0  0  0  0  0  0  0  0  0  0  0
   -1.1604   13.0605   -2.6858 C   0  0  0  0  0  0  0  0  0  0  0  0
   -0.9173   14.2341   -3.3458 N   0  0  0  0  0  0  0  0  0  0  0  0
   -0.2592   15.4002   -2.6565 C   0  0  0  0  0  0  0  0  0  0  0  0
    1.2436   17.4327   -3.0542 C   0  0  0  0  0  0  0  0  0  0  0  0
    2.3070   18.0417   -3.6625 N   0  0  0  0  0  0  0  0  0  0  0  0
    3.0602   17.3844   -4.5483 C   0  0  0  0  0  0  0  0  0  0  0  0
    2.7885   16.1146   -4.8631 N   0  0  0  0  0  0  0  0  0  0  0  0
    1.7513   15.4440   -4.2976 C   0  0  0  0  0  0  0  0  0  0  0  0
    0.9299   16.0767   -3.3579 C   0  0  0  0  0  0  0  0  0  0  0  0
  5  4  1  0  0  0  0
  5  6  1  0  0  0  0
  7  8  2  0  0  0  0
  7 11  1  0  0  0  0
  8  9  1  0  0  0  0
  9 10  2  0  0  0  0
  9  6  1  0  0  0  0
 10  3  1  0  0  0  0
 11 12  1  0  0  0  0
 11 10  1  0  0  0  0
 12 18  1  0  0  0  0
 13  2  1  0  0  0  0
 13 14  2  0  0  0  0
 15 14  1  0  0  0  0
 15  1  1  0  0  0  0
 16 15  2  0  0  0  0
 17 18  2  0  0  0  0
 17 16  1  0  0  0  0
 18 13  1  0  0  0  0
M  END
>  <CHROM.1>
173.23257522,-47.71858031,-50.46552811,155.55844929,-0.24332143,14.35580174
-3.62304033,-0.34654936,-0.83495549,-2.12320260

>  <Name>
lig.pdb

>  <RI>
0

>  <Rbt.Current_Directory>
/home/itssahil/PROJECTS/Mol_Feturizer/New_Systems/rnas/4nyg

>  <Rbt.Executable>
rbdock ($Id: //depot/dev/client3/rdock/2013.1/src/exe/rbdock.cxx#4 $)

>  <Rbt.Library>
libRbt.so (2013.1, Build901 2013/11/27)

>  <Rbt.Parameter_File>
/export/apps/rDock/src/rDock_2013.1_src/data/scripts/dock_solv.prm

>  <Rbt.Receptor>
prm/blind_docking_20.prm

>  <SCORE>
-7.26711

>  <SCORE.INTER>
-7.68856

>  <SCORE.INTER.CONST>
1

>  <SCORE.INTER.POLAR>
0

>  <SCORE.INTER.ROT>
4

>  <SCORE.INTER.SOLV>
10.3327

>  <SCORE.INTER.VDW>
-14.8366

>  <SCORE.INTER.norm>
-0.427142

>  <SCORE.INTRA>
0.188736

>  <SCORE.INTRA.DIHEDRAL>
0.38661

>  <SCORE.INTRA.DIHEDRAL.0>
3.20029

>  <SCORE.INTRA.POLAR>
0

>  <SCORE.INTRA.POLAR.0>
0

>  <SCORE.INTRA.REPUL>
0

>  <SCORE.INTRA.REPUL.0>
0

>  <SCORE.INTRA.SOLV>
-0.0197631

>  <SCORE.INTRA.SOLV.lig_0>
-19.3885

>  <SCORE.INTRA.VDW>
0.00531261

>  <SCORE.INTRA.VDW.0>
-1.12705

>  <SCORE.INTRA.norm>
0.0104853

>  <SCORE.RESTR>
0.232714

>  <SCORE.RESTR.CAVITY>
0.232714

>  <SCORE.RESTR.norm>
0.0129285

>  <SCORE.SYSTEM>
0

>  <SCORE.SYSTEM.CONST>
0

>  <SCORE.SYSTEM.DIHEDRAL>
0

>  <SCORE.SYSTEM.SOLV>
0

>  <SCORE.SYSTEM.norm>
0

>  <SCORE.heavy>
18

>  <SCORE.norm>
-0.403728

>  <RMSD>
11.153

$$$$
lig.pdb
 OpenBabel11021811503D
libRbt.so/2013.1/901 2013/11/27
 18 19  0  0  0  0  0  0  0  0999 V2000
    4.6111   18.0112   -4.8412 C   0  0  0  0  0  0  0  0  0  0  0  0
    0.4635   17.9351   -2.3264 N   0  0  0  0  0  0  0  0  0  0  0  0
    0.2811   13.9908   -1.8597 C   0  0  0  0  0  0  0  0  0  0  0  0
   -2.6826   10.2402   -2.5865 O   0  0  0  0  0  0  0  0  0  0  0  0
   -1.6590   10.5527   -1.6518 C   0  0  0  0  0  0  0  0  0  0  0  0
   -0.3791   10.9910   -2.3899 C   0  0  0  0  0  0  0  0  0  0  0  0
   -1.5927   13.8891   -5.0986 C   0  0  0  0  0  0  0  0  0  0  0  0
   -1.6101   12.1825   -4.7966 S   0  0  0  0  0  0  0  0  0  0  0  0
   -0.7269   12.1831   -3.2538 C   0  0  0  0  0  0  0  0  0  0  0  0
   -0.4760   13.5231   -3.0914 C   0  0  0  0  0  0  0  0  0  0  0  0
   -0.9320   14.3784   -4.0571 N   0  0  0  0  0  0  0  0  0  0  0  0
   -0.7201   15.8657   -3.9517 C   0  0  0  0  0  0  0  0  0  0  0  0
    1.2190   17.4370   -3.3878 C   0  0  0  0  0  0  0  0  0  0  0  0
    2.4763   17.9260   -3.6158 N   0  0  0  0  0  0  0  0  0  0  0  0
    3.2204   17.4639   -4.6241 C   0  0  0  0  0  0  0  0  0  0  0  0
    2.7502   16.5133   -5.4368 N   0  0  0  0  0  0  0  0  0  0  0  0
    1.5129   15.9779   -5.2702 C   0  0  0  0  0  0  0  0  0  0  0  0
    0.6885   16.4161   -4.2278 C   0  0  0  0  0  0  0  0  0  0  0  0
  5  4  1  0  0  0  0
  5  6  1  0  0  0  0
  7  8  2  0  0  0  0
  7 11  1  0  0  0  0
  8  9  1  0  0  0  0
  9 10  2  0  0  0  0
  9  6  1  0  0  0  0
 10  3  1  0  0  0  0
 11 12  1  0  0  0  0
 11 10  1  0  0  0  0
 12 18  1  0  0  0  0
 13  2  1  0  0  0  0
 13 14  2  0  0  0  0
 15 14  1  0  0  0  0
 15  1  1  0  0  0  0
 16 15  2  0  0  0  0
 17 18  2  0  0  0  0
 17 16  1  0  0  0  0
 18 13  1  0  0  0  0
M  END
>  <CHROM.1>
57.94563874,-75.88055016,-106.40355498,-137.90520989,0.20232114,14.52082816
-3.74509889,0.17544223,-0.96487152,-1.55167793

>  <Name>
lig.pdb

>  <RI>
0

>  <Rbt.Current_Directory>
/home/itssahil/PROJECTS/Mol_Feturizer/New_Systems/rnas/4nyg

>  <Rbt.Executable>
rbdock ($Id: //depot/dev/client3/rdock/2013.1/src/exe/rbdock.cxx#4 $)

>  <Rbt.Library>
libRbt.so (2013.1, Build901 2013/11/27)

>  <Rbt.Parameter_File>
/export/apps/rDock/src/rDock_2013.1_src/data/scripts/dock_solv.prm

>  <Rbt.Receptor>
prm/blind_docking_20.prm

>  <SCORE>
-8.3305

>  <SCORE.INTER>
-8.08449

>  <SCORE.INTER.CONST>
1

>  <SCORE.INTER.POLAR>
0

>  <SCORE.INTER.ROT>
4

>  <SCORE.INTER.SOLV>
7.20512

>  <SCORE.INTER.VDW>
-14.058

>  <SCORE.INTER.norm>
-0.449138

>  <SCORE.INTRA>
-0.348682

>  <SCORE.INTRA.DIHEDRAL>
0.338908

>  <SCORE.INTRA.DIHEDRAL.0>
3.20029

>  <SCORE.INTRA.POLAR>
0

>  <SCORE.INTRA.POLAR.0>
0

>  <SCORE.INTRA.REPUL>
0

>  <SCORE.INTRA.REPUL.0>
0

>  <SCORE.INTRA.SOLV>
0.618292

>  <SCORE.INTRA.SOLV.lig_0>
-19.3885

>  <SCORE.INTRA.VDW>
-0.827282

>  <SCORE.INTRA.VDW.0>
-1.12705

>  <SCORE.INTRA.norm>
-0.0193712

>  <SCORE.RESTR>
0.102665

>  <SCORE.RESTR.CAVITY>
0.102665

>  <SCORE.RESTR.norm>
0.00570361

>  <SCORE.SYSTEM>
0

>  <SCORE.SYSTEM.CONST>
0

>  <SCORE.SYSTEM.DIHEDRAL>
0

>  <SCORE.SYSTEM.SOLV>
0

>  <SCORE.SYSTEM.norm>
0

>  <SCORE.heavy>
18

>  <SCORE.norm>
-0.462806

>  <RMSD>
11.246

$$$$
lig.pdb
 OpenBabel11021811503D
libRbt.so/2013.1/901 2013/11/27
 18 19  0  0  0  0  0  0  0  0999 V2000
    4.7344   17.9558   -4.7809 C   0  0  0  0  0  0  0  0  0  0  0  0
    0.3273   18.4103   -2.8052 N   0  0  0  0  0  0  0  0  0  0  0  0
    0.0028   14.5049   -1.6918 C   0  0  0  0  0  0  0  0  0  0  0  0
    0.4579    9.3712   -1.4932 O   0  0  0  0  0  0  0  0  0  0  0  0
    0.3035   10.4544   -2.3998 C   0  0  0  0  0  0  0  0  0  0  0  0
   -0.7093   11.4743   -1.8439 C   0  0  0  0  0  0  0  0  0  0  0  0
   -1.5554   13.9642   -5.0520 C   0  0  0  0  0  0  0  0  0  0  0  0
   -1.6619   12.3218   -4.5087 S   0  0  0  0  0  0  0  0  0  0  0  0
   -0.9306   12.5324   -2.9020 C   0  0  0  0  0  0  0  0  0  0  0  0
   -0.6492   13.8761   -2.9118 C   0  0  0  0  0  0  0  0  0  0  0  0
   -0.9803   14.5884   -4.0321 N   0  0  0  0  0  0  0  0  0  0  0  0
   -0.7271   16.0702   -4.1231 C   0  0  0  0  0  0  0  0  0  0  0  0
    1.1829   17.7066   -3.6526 C   0  0  0  0  0  0  0  0  0  0  0  0
    2.4725   18.1310   -3.8221 N   0  0  0  0  0  0  0  0  0  0  0  0
    3.3118   17.4731   -4.6263 C   0  0  0  0  0  0  0  0  0  0  0  0
    2.9079   16.3845   -5.2874 N   0  0  0  0  0  0  0  0  0  0  0  0
    1.6438   15.9023   -5.1662 C   0  0  0  0  0  0  0  0  0  0  0  0
    0.7201   16.5442   -4.3337 C   0  0  0  0  0  0  0  0  0  0  0  0
  5  4  1  0  0  0  0
  5  6  1  0  0  0  0
  7  8  2  0  0  0  0
  7 11  1  0  0  0  0
  8  9  1  0  0  0  0
  9 10  2  0  0  0  0
  9  6  1  0  0  0  0
 10  3  1  0  0  0  0
 11 12  1  0  0  0  0
 11 10  1  0  0  0  0
 12 18  1  0  0  0  0
 13  2  1  0  0  0  0
 13 14  2  0  0  0  0
 15 14  1  0  0  0  0
 15  1  1  0  0  0  0
 16 15  2  0  0  0  0
 17 18  2  0  0  0  0
 17 16  1  0  0  0  0
 18 13  1  0  0  0  0
M  END
>  <CHROM.1>
-174.76957340,64.82227973,-106.43579830,-141.01998479,0.45899055,14.63406971
-3.66266815,-1.10506769,0.18901646,2.80586860

>  <Name>
lig.pdb

>  <RI>
0

>  <Rbt.Current_Directory>
/home/itssahil/PROJECTS/Mol_Feturizer/New_Systems/rnas/4nyg

>  <Rbt.Executable>
rbdock ($Id: //depot/dev/client3/rdock/2013.1/src/exe/rbdock.cxx#4 $)

>  <Rbt.Library>
libRbt.so (2013.1, Build901 2013/11/27)

>  <Rbt.Parameter_File>
/export/apps/rDock/src/rDock_2013.1_src/data/scripts/dock_solv.prm

>  <Rbt.Receptor>
prm/blind_docking_20.prm

>  <SCORE>
-8.16239

>  <SCORE.INTER>
-7.77892

>  <SCORE.INTER.CONST>
1

>  <SCORE.INTER.POLAR>
0

>  <SCORE.INTER.ROT>
4

>  <SCORE.INTER.SOLV>
8.41053

>  <SCORE.INTER.VDW>
-14.2561

>  <SCORE.INTER.norm>
-0.432162

>  <SCORE.INTRA>
-0.596962

>  <SCORE.INTRA.DIHEDRAL>
0.0175475

>  <SCORE.INTRA.DIHEDRAL.0>
3.20029

>  <SCORE.INTRA.POLAR>
0

>  <SCORE.INTRA.POLAR.0>
0

>  <SCORE.INTRA.REPUL>
0

>  <SCORE.INTRA.REPUL.0>
0

>  <SCORE.INTRA.SOLV>
0.123494

>  <SCORE.INTRA.SOLV.lig_0>
-19.3885

>  <SCORE.INTRA.VDW>
-0.667483

>  <SCORE.INTRA.VDW.0>
-1.12705

>  <SCORE.INTRA.norm>
-0.0331646

>  <SCORE.RESTR>
0.213488

>  <SCORE.RESTR.CAVITY>
0.213488

>  <SCORE.RESTR.norm>
0.0118604

>  <SCORE.SYSTEM>
0

>  <SCORE.SYSTEM.CONST>
0

>  <SCORE.SYSTEM.DIHEDRAL>
0

>  <SCORE.SYSTEM.SOLV>
0

>  <SCORE.SYSTEM.norm>
0

>  <SCORE.heavy>
18

>  <SCORE.norm>
-0.453466

>  <RMSD>
11.259

$$$$
lig.pdb
 OpenBabel11021811503D
libRbt.so/2013.1/901 2013/11/27
 18 19  0  0  0  0  0  0  0  0999 V2000
    4.9960   18.1356   -4.8725 C   0  0  0  0  0  0  0  0  0  0  0  0
    0.5724   16.4525   -5.9361 N   0  0  0  0  0  0  0  0  0  0  0  0
    0.4121   13.9537   -1.8966 C   0  0  0  0  0  0  0  0  0  0  0  0
   -3.2176   10.9275   -3.6283 O   0  0  0  0  0  0  0  0  0  0  0  0
   -2.2270   10.9540   -2.6100 C   0  0  0  0  0  0  0  0  0  0  0  0
   -0.8801   11.4287   -3.1890 C   0  0  0  0  0  0  0  0  0  0  0  0
   -1.6733   15.1899   -4.7487 C   0  0  0  0  0  0  0  0  0  0  0  0
   -2.0149   13.5038   -4.9592 S   0  0  0  0  0  0  0  0  0  0  0  0
   -1.0403   12.8719   -3.6133 C   0  0  0  0  0  0  0  0  0  0  0  0
   -0.5115   14.0306   -3.1007 C   0  0  0  0  0  0  0  0  0  0  0  0
   -0.8532   15.2092   -3.7058 N   0  0  0  0  0  0  0  0  0  0  0  0
   -0.3367   16.5300   -3.1989 C   0  0  0  0  0  0  0  0  0  0  0  0
    1.4756   16.8923   -4.9686 C   0  0  0  0  0  0  0  0  0  0  0  0
    2.7355   17.2761   -5.3389 N   0  0  0  0  0  0  0  0  0  0  0  0
    3.6179   17.7030   -4.4317 C   0  0  0  0  0  0  0  0  0  0  0  0
    3.2892   17.7616   -3.1379 N   0  0  0  0  0  0  0  0  0  0  0  0
    2.0565   17.4002   -2.6963 C   0  0  0  0  0  0  0  0  0  0  0  0
    1.0867   16.9507   -3.5994 C   0  0  0  0  0  0  0  0  0  0  0  0
  5  4  1  0  0  0  0
  5  6  1  0  0  0  0
  7  8  2  0  0  0  0
  7 11  1  0  0  0  0
  8  9  1  0  0  0  0
  9 10  2  0  0  0  0
  9  6  1  0  0  0  0
 10  3  1  0  0  0  0
 11 12  1  0  0  0  0
 11 10  1  0  0  0  0
 12 18  1  0  0  0  0
 13  2  1  0  0  0  0
 13 14  2  0  0  0  0
 15 14  1  0  0  0  0
 15  1  1  0  0  0  0
 16 15  2  0  0  0  0
 17 18  2  0  0  0  0
 17 16  1  0  0  0  0
 18 13  1  0  0  0  0
M  END
>  <CHROM.1>
66.00827535,-68.85862816,-100.59942206,49.71222271,0.22096274,15.00715431
-3.93595068,-0.57271556,0.62974639,2.27400308

>  <Name>
lig.pdb

>  <RI>
0

>  <Rbt.Current_Directory>
/home/itssahil/PROJECTS/Mol_Feturizer/New_Systems/rnas/4nyg

>  <Rbt.Executable>
rbdock ($Id: //depot/dev/client3/rdock/2013.1/src/exe/rbdock.cxx#4 $)

>  <Rbt.Library>
libRbt.so (2013.1, Build901 2013/11/27)

>  <Rbt.Parameter_File>
/export/apps/rDock/src/rDock_2013.1_src/data/scripts/dock_solv.prm

>  <Rbt.Receptor>
prm/blind_docking_20.prm

>  <SCORE>
-7.44774

>  <SCORE.INTER>
-7.8377

>  <SCORE.INTER.CONST>
1

>  <SCORE.INTER.POLAR>
0

>  <SCORE.INTER.ROT>
4

>  <SCORE.INTER.SOLV>
8.28138

>  <SCORE.INTER.VDW>
-14.2523

>  <SCORE.INTER.norm>
-0.435428

>  <SCORE.INTRA>
-0.0626404

>  <SCORE.INTRA.DIHEDRAL>
0.146644

>  <SCORE.INTRA.DIHEDRAL.0>
3.20029

>  <SCORE.INTRA.POLAR>
0

>  <SCORE.INTRA.POLAR.0>
0

>  <SCORE.INTRA.REPUL>
0

>  <SCORE.INTRA.REPUL.0>
0

>  <SCORE.INTRA.SOLV>
1.41901

>  <SCORE.INTRA.SOLV.lig_0>
-19.3885

>  <SCORE.INTRA.VDW>
-0.845469

>  <SCORE.INTRA.VDW.0>
-1.12705

>  <SCORE.INTRA.norm>
-0.00348002

>  <SCORE.RESTR>
0.452601

>  <SCORE.RESTR.CAVITY>
0.452601

>  <SCORE.RESTR.norm>
0.0251445

>  <SCORE.SYSTEM>
0

>  <SCORE.SYSTEM.CONST>
0

>  <SCORE.SYSTEM.DIHEDRAL>
0

>  <SCORE.SYSTEM.SOLV>
0

>  <SCORE.SYSTEM.norm>
0

>  <SCORE.heavy>
18

>  <SCORE.norm>
-0.413763

>  <RMSD>
11.401

$$$$
lig.pdb
 OpenBabel11021811503D
libRbt.so/2013.1/901 2013/11/27
 18 19  0  0  0  0  0  0  0  0999 V2000
    4.9684   18.0968   -4.8210 C   0  0  0  0  0  0  0  0  0  0  0  0
    0.6021   19.0186   -2.9190 N   0  0  0  0  0  0  0  0  0  0  0  0
    0.1740   14.1763   -1.9558 C   0  0  0  0  0  0  0  0  0  0  0  0
   -2.2462    9.7589   -1.7376 O   0  0  0  0  0  0  0  0  0  0  0  0
   -2.3437   10.9460   -2.5125 C   0  0  0  0  0  0  0  0  0  0  0  0
   -0.9399   11.4307   -2.9237 C   0  0  0  0  0  0  0  0  0  0  0  0
   -1.6685   14.8597   -5.1417 C   0  0  0  0  0  0  0  0  0  0  0  0
   -1.9529   13.1505   -5.1016 S   0  0  0  0  0  0  0  0  0  0  0  0
   -1.0919   12.7797   -3.5911 C   0  0  0  0  0  0  0  0  0  0  0  0
   -0.6373   14.0243   -3.2316 C   0  0  0  0  0  0  0  0  0  0  0  0
   -0.9477   15.0767   -4.0490 N   0  0  0  0  0  0  0  0  0  0  0  0
   -0.5084   16.4798   -3.7228 C   0  0  0  0  0  0  0  0  0  0  0  0
    1.4330   18.1434   -3.6182 C   0  0  0  0  0  0  0  0  0  0  0  0
    2.7257   18.5018   -3.8872 N   0  0  0  0  0  0  0  0  0  0  0  0
    3.5417   17.6805   -4.5531 C   0  0  0  0  0  0  0  0  0  0  0  0
    3.1109   16.4882   -4.9751 N   0  0  0  0  0  0  0  0  0  0  0  0
    1.8421   16.0629   -4.7422 C   0  0  0  0  0  0  0  0  0  0  0  0
    0.9419   16.8758   -4.0442 C   0  0  0  0  0  0  0  0  0  0  0  0
  5  4  1  0  0  0  0
  5  6  1  0  0  0  0
  7  8  2  0  0  0  0
  7 11  1  0  0  0  0
  8  9  1  0  0  0  0
  9 10  2  0  0  0  0
  9  6  1  0  0  0  0
 10  3  1  0  0  0  0
 11 12  1  0  0  0  0
 11 10  1  0  0  0  0
 12 18  1  0  0  0  0
 13  2  1  0  0  0  0
 13 14  2  0  0  0  0
 15 14  1  0  0  0  0
 15  1  1  0  0  0  0
 16 15  2  0  0  0  0
 17 18  2  0  0  0  0
 17 16  1  0  0  0  0
 18 13  1  0  0  0  0
M  END
>  <CHROM.1>
-172.99907583,-63.56892151,-101.43103449,-173.22541339,0.20983731,14.99318282
-3.81503688,-0.92159941,0.21348264,2.80666955

>  <Name>
lig.pdb

>  <RI>
0

>  <Rbt.Current_Directory>
/home/itssahil/PROJECTS/Mol_Feturizer/New_Systems/rnas/4nyg

>  <Rbt.Executable>
rbdock ($Id: //depot/dev/client3/rdock/2013.1/src/exe/rbdock.cxx#4 $)

>  <Rbt.Library>
libRbt.so (2013.1, Build901 2013/11/27)

>  <Rbt.Parameter_File>
/export/apps/rDock/src/rDock_2013.1_src/data/scripts/dock_solv.prm

>  <Rbt.Receptor>
prm/blind_docking_20.prm

>  <SCORE>
-8.07946

>  <SCORE.INTER>
-7.98808

>  <SCORE.INTER.CONST>
1

>  <SCORE.INTER.POLAR>
0

>  <SCORE.INTER.ROT>
4

>  <SCORE.INTER.SOLV>
9.45933

>  <SCORE.INTER.VDW>
-14.7452

>  <SCORE.INTER.norm>
-0.443782

>  <SCORE.INTRA>
-0.558334

>  <SCORE.INTRA.DIHEDRAL>
0.0734285

>  <SCORE.INTRA.DIHEDRAL.0>
3.20029

>  <SCORE.INTRA.POLAR>
0

>  <SCORE.INTRA.POLAR.0>
0

>  <SCORE.INTRA.REPUL>
0

>  <SCORE.INTRA.REPUL.0>
0

>  <SCORE.INTRA.SOLV>
-0.0400453

>  <SCORE.INTRA.SOLV.lig_0>
-19.3885

>  <SCORE.INTRA.VDW>
-0.575026

>  <SCORE.INTRA.VDW.0>
-1.12705

>  <SCORE.INTRA.norm>
-0.0310186

>  <SCORE.RESTR>
0.466951

>  <SCORE.RESTR.CAVITY>
0.466951

>  <SCORE.RESTR.norm>
0.0259417

>  <SCORE.SYSTEM>
0

>  <SCORE.SYSTEM.CONST>
0

>  <SCORE.SYSTEM.DIHEDRAL>
0

>  <SCORE.SYSTEM.SOLV>
0

>  <SCORE.SYSTEM.norm>
0

>  <SCORE.heavy>
18

>  <SCORE.norm>
-0.448859

>  <RMSD>
11.413

$$$$
lig.pdb
 OpenBabel11021811503D
libRbt.so/2013.1/901 2013/11/27
 18 19  0  0  0  0  0  0  0  0999 V2000
    5.1582   18.7153   -4.9995 C   0  0  0  0  0  0  0  0  0  0  0  0
    1.5487   17.2920   -2.0878 N   0  0  0  0  0  0  0  0  0  0  0  0
   -1.0654   18.8845   -3.6284 C   0  0  0  0  0  0  0  0  0  0  0  0
   -4.7366   18.9384   -3.3466 O   0  0  0  0  0  0  0  0  0  0  0  0
   -4.9155   19.4423   -4.6631 C   0  0  0  0  0  0  0  0  0  0  0  0
   -3.5483   19.7159   -5.3193 C   0  0  0  0  0  0  0  0  0  0  0  0
   -1.8203   15.9855   -5.8728 C   0  0  0  0  0  0  0  0  0  0  0  0
   -3.1112   17.0073   -6.4146 S   0  0  0  0  0  0  0  0  0  0  0  0
   -2.7881   18.4091   -5.3700 C   0  0  0  0  0  0  0  0  0  0  0  0
   -1.6940   17.9700   -4.6664 C   0  0  0  0  0  0  0  0  0  0  0  0
   -1.2179   16.7178   -4.9447 N   0  0  0  0  0  0  0  0  0  0  0  0
   -0.0105   16.1621   -4.2365 C   0  0  0  0  0  0  0  0  0  0  0  0
    2.0706   17.3785   -3.3783 C   0  0  0  0  0  0  0  0  0  0  0  0
    3.2854   17.9740   -3.5820 N   0  0  0  0  0  0  0  0  0  0  0  0
    3.8077   18.0672   -4.8077 C   0  0  0  0  0  0  0  0  0  0  0  0
    3.1514   17.5821   -5.8656 N   0  0  0  0  0  0  0  0  0  0  0  0
    1.9427   16.9749   -5.7404 C   0  0  0  0  0  0  0  0  0  0  0  0
    1.3468   16.8412   -4.4814 C   0  0  0  0  0  0  0  0  0  0  0  0
  5  4  1  0  0  0  0
  5  6  1  0  0  0  0
  7  8  2  0  0  0  0
  7 11  1  0  0  0  0
  8  9  1  0  0  0  0
  9 10  2  0  0  0  0
  9  6  1  0  0  0  0
 10  3  1  0  0  0  0
 11 12  1  0  0  0  0
 11 10  1  0  0  0  0
 12 18  1  0  0  0  0
 13  2  1  0  0  0  0
 13 14  2  0  0  0  0
 15 14  1  0  0  0  0
 15  1  1  0  0  0  0
 16 15  2  0  0  0  0
 17 18  2  0  0  0  0
 17 16  1  0  0  0  0
 18 13  1  0  0  0  0
M  END
>  <CHROM.1>
60.13650353,71.61452485,113.20641468,121.46449903,-0.39466016,17.75629256
-4.73861118,0.01598507,-0.11121485,0.94119153

>  <Name>
lig.pdb

>  <RI>
0

>  <Rbt.Current_Directory>
/home/itssahil/PROJECTS/Mol_Feturizer/New_Systems/rnas/4nyg

>  <Rbt.Executable>
rbdock ($Id: //depot/dev/client3/rdock/2013.1/src/exe/rbdock.cxx#4 $)

>  <Rbt.Library>
libRbt.so (2013.1, Build901 2013/11/27)

>  <Rbt.Parameter_File>
/export/apps/rDock/src/rDock_2013.1_src/data/scripts/dock_solv.prm

>  <Rbt.Receptor>
prm/blind_docking_100.prm

>  <SCORE>
-10.8096

>  <SCORE.INTER>
-10.5177

>  <SCORE.INTER.CONST>
1

>  <SCORE.INTER.POLAR>
0

>  <SCORE.INTER.ROT>
4

>  <SCORE.INTER.SOLV>
8.30531

>  <SCORE.INTER.VDW>
-16.0469

>  <SCORE.INTER.norm>
-0.584316

>  <SCORE.INTRA>
-0.291888

>  <SCORE.INTRA.DIHEDRAL>
0.17552

>  <SCORE.INTRA.DIHEDRAL.0>
3.20029

>  <SCORE.INTRA.POLAR>
0

>  <SCORE.INTRA.POLAR.0>
0

>  <SCORE.INTRA.REPUL>
0

>  <SCORE.INTRA.REPUL.0>
0

>  <SCORE.INTRA.SOLV>
1.02075

>  <SCORE.INTRA.SOLV.lig_0>
-19.3885

>  <SCORE.INTRA.VDW>
-0.890025

>  <SCORE.INTRA.VDW.0>
-1.12705

>  <SCORE.INTRA.norm>
-0.016216

>  <SCORE.RESTR>
0

>  <SCORE.RESTR.CAVITY>
0

>  <SCORE.RESTR.norm>
0

>  <SCORE.SYSTEM>
0

>  <SCORE.SYSTEM.CONST>
0

>  <SCORE.SYSTEM.DIHEDRAL>
0

>  <SCORE.SYSTEM.SOLV>
0

>  <SCORE.SYSTEM.norm>
0

>  <SCORE.heavy>
18

>  <SCORE.norm>
-0.600532

>  <RMSD>
11.838

$$$$
lig.pdb
 OpenBabel11021811503D
libRbt.so/2013.1/901 2013/11/27
 18 19  0  0  0  0  0  0  0  0999 V2000
   -0.2780   18.9659    4.8395 C   0  0  0  0  0  0  0  0  0  0  0  0
    3.7240   17.1986    6.9355 N   0  0  0  0  0  0  0  0  0  0  0  0
    4.6329   21.7916    7.8200 C   0  0  0  0  0  0  0  0  0  0  0  0
    4.4404   19.8502   12.1581 O   0  0  0  0  0  0  0  0  0  0  0  0
    4.2403   21.1374   11.5906 C   0  0  0  0  0  0  0  0  0  0  0  0
    5.4935   21.5755   10.8080 C   0  0  0  0  0  0  0  0  0  0  0  0
    6.3692   18.4942    8.1722 C   0  0  0  0  0  0  0  0  0  0  0  0
    6.5446   18.9968    9.8217 S   0  0  0  0  0  0  0  0  0  0  0  0
    5.7249   20.5698    9.7019 C   0  0  0  0  0  0  0  0  0  0  0  0
    5.3792   20.5892    8.3734 C   0  0  0  0  0  0  0  0  0  0  0  0
    5.7247   19.5082    7.6091 N   0  0  0  0  0  0  0  0  0  0  0  0
    5.3687   19.4345    6.1477 C   0  0  0  0  0  0  0  0  0  0  0  0
    3.1211   18.2124    6.1910 C   0  0  0  0  0  0  0  0  0  0  0  0
    1.7935   18.1242    5.8721 N   0  0  0  0  0  0  0  0  0  0  0  0
    1.1926   19.0828    5.1622 C   0  0  0  0  0  0  0  0  0  0  0  0
    1.8781   20.1507    4.7439 N   0  0  0  0  0  0  0  0  0  0  0  0
    3.1977   20.3083    5.0249 C   0  0  0  0  0  0  0  0  0  0  0  0
    3.8813   19.3413    5.7703 C   0  0  0  0  0  0  0  0  0  0  0  0
  5  4  1  0  0  0  0
  5  6  1  0  0  0  0
  7  8  2  0  0  0  0
  7 11  1  0  0  0  0
  8  9  1  0  0  0  0
  9 10  2  0  0  0  0
  9  6  1  0  0  0  0
 10  3  1  0  0  0  0
 11 12  1  0  0  0  0
 11 10  1  0  0  0  0
 12 18  1  0  0  0  0
 13  2  1  0  0  0  0
 13 14  2  0  0  0  0
 15 14  1  0  0  0  0
 15  1  1  0  0  0  0
 16 15  2  0  0  0  0
 17 18  2  0  0  0  0
 17 16  1  0  0  0  0
 18 13  1  0  0  0  0
M  END
>  <CHROM.1>
60.64350641,-82.56112152,112.76211871,-62.67999077,4.18673526,19.59819794
7.80376620,2.23070246,0.33046951,-2.02530018

>  <Name>
lig.pdb

>  <RI>
0

>  <Rbt.Current_Directory>
/home/itssahil/PROJECTS/Mol_Feturizer/New_Systems/rnas/4nyg

>  <Rbt.Executable>
rbdock ($Id: //depot/dev/client3/rdock/2013.1/src/exe/rbdock.cxx#4 $)

>  <Rbt.Library>
libRbt.so (2013.1, Build901 2013/11/27)

>  <Rbt.Parameter_File>
/export/apps/rDock/src/rDock_2013.1_src/data/scripts/dock_solv.prm

>  <Rbt.Receptor>
prm/blind_docking_80.prm

>  <SCORE>
-10.238

>  <SCORE.INTER>
-10.2539

>  <SCORE.INTER.CONST>
1

>  <SCORE.INTER.POLAR>
0

>  <SCORE.INTER.ROT>
4

>  <SCORE.INTER.SOLV>
11.33

>  <SCORE.INTER.VDW>
-16.8793

>  <SCORE.INTER.norm>
-0.569661

>  <SCORE.INTRA>
0.015893

>  <SCORE.INTRA.DIHEDRAL>
0.790006

>  <SCORE.INTRA.DIHEDRAL.0>
3.20029

>  <SCORE.INTRA.POLAR>
0

>  <SCORE.INTRA.POLAR.0>
0

>  <SCORE.INTRA.REPUL>
0

>  <SCORE.INTRA.REPUL.0>
0

>  <SCORE.INTRA.SOLV>
1.23869

>  <SCORE.INTRA.SOLV.lig_0>
-19.3885

>  <SCORE.INTRA.VDW>
-0.998454

>  <SCORE.INTRA.VDW.0>
-1.12705

>  <SCORE.INTRA.norm>
0.000882946

>  <SCORE.RESTR>
0

>  <SCORE.RESTR.CAVITY>
0

>  <SCORE.RESTR.norm>
0

>  <SCORE.SYSTEM>
0

>  <SCORE.SYSTEM.CONST>
0

>  <SCORE.SYSTEM.DIHEDRAL>
0

>  <SCORE.SYSTEM.SOLV>
0

>  <SCORE.SYSTEM.norm>
0

>  <SCORE.heavy>
18

>  <SCORE.norm>
-0.568778

>  <RMSD>
13.434

$$$$
lig.pdb
 OpenBabel11021811503D
libRbt.so/2013.1/901 2013/11/27
 18 19  0  0  0  0  0  0  0  0999 V2000
    5.3289   24.8499    9.5089 C   0  0  0  0  0  0  0  0  0  0  0  0
    2.7265   20.8375   10.3216 N   0  0  0  0  0  0  0  0  0  0  0  0
    4.9303   19.4640    5.6195 C   0  0  0  0  0  0  0  0  0  0  0  0
    2.1780   17.9722    1.5755 O   0  0  0  0  0  0  0  0  0  0  0  0
    3.5092   17.8290    2.0512 C   0  0  0  0  0  0  0  0  0  0  0  0
    4.0034   19.1559    2.6595 C   0  0  0  0  0  0  0  0  0  0  0  0
    1.2217   19.9718    5.6268 C   0  0  0  0  0  0  0  0  0  0  0  0
    1.3903   19.7082    3.9221 S   0  0  0  0  0  0  0  0  0  0  0  0
    3.1495   19.4572    3.8714 C   0  0  0  0  0  0  0  0  0  0  0  0
    3.4778   19.6058    5.1961 C   0  0  0  0  0  0  0  0  0  0  0  0
    2.4656   19.8716    6.0775 N   0  0  0  0  0  0  0  0  0  0  0  0
    2.7302   20.0300    7.5517 C   0  0  0  0  0  0  0  0  0  0  0  0
    3.3834   21.6635    9.4097 C   0  0  0  0  0  0  0  0  0  0  0  0
    4.0028   22.8023    9.8472 N   0  0  0  0  0  0  0  0  0  0  0  0
    4.6403   23.6083    8.9942 C   0  0  0  0  0  0  0  0  0  0  0  0
    4.6845   23.3208    7.6901 N   0  0  0  0  0  0  0  0  0  0  0  0
    4.0956   22.2065    7.1833 C   0  0  0  0  0  0  0  0  0  0  0  0
    3.4181   21.3198    8.0277 C   0  0  0  0  0  0  0  0  0  0  0  0
  5  4  1  0  0  0  0
  5  6  1  0  0  0  0
  7  8  2  0  0  0  0
  7 11  1  0  0  0  0
  8  9  1  0  0  0  0
  9 10  2  0  0  0  0
  9  6  1  0  0  0  0
 10  3  1  0  0  0  0
 11 12  1  0  0  0  0
 11 10  1  0  0  0  0
 12 18  1  0  0  0  0
 13  2  1  0  0  0  0
 13 14  2  0  0  0  0
 15 14  1  0  0  0  0
 15  1  1  0  0  0  0
 16 15  2  0  0  0  0
 17 18  2  0  0  0  0
 17 16  1  0  0  0  0
 18 13  1  0  0  0  0
M  END
>  <CHROM.1>
64.33893972,-60.51080115,-107.49921105,164.21337939,3.27068369,20.66009111
6.17124483,-1.31934067,-0.60355454,-2.01115454

>  <Name>
lig.pdb

>  <RI>
0

>  <Rbt.Current_Directory>
/home/itssahil/PROJECTS/Mol_Feturizer/New_Systems/rnas/4nyg

>  <Rbt.Executable>
rbdock ($Id: //depot/dev/client3/rdock/2013.1/src/exe/rbdock.cxx#4 $)

>  <Rbt.Library>
libRbt.so (2013.1, Build901 2013/11/27)

>  <Rbt.Parameter_File>
/export/apps/rDock/src/rDock_2013.1_src/data/scripts/dock_solv.prm

>  <Rbt.Receptor>
prm/blind_docking_80.prm

>  <SCORE>
-10.256

>  <SCORE.INTER>
-10.1289

>  <SCORE.INTER.CONST>
1

>  <SCORE.INTER.POLAR>
0

>  <SCORE.INTER.ROT>
4

>  <SCORE.INTER.SOLV>
11.899

>  <SCORE.INTER.VDW>
-16.9856

>  <SCORE.INTER.norm>
-0.562716

>  <SCORE.INTRA>
-0.127151

>  <SCORE.INTRA.DIHEDRAL>
-0.0491634

>  <SCORE.INTRA.DIHEDRAL.0>
3.20029

>  <SCORE.INTRA.POLAR>
0

>  <SCORE.INTRA.POLAR.0>
0

>  <SCORE.INTRA.REPUL>
0

>  <SCORE.INTRA.REPUL.0>
0

>  <SCORE.INTRA.SOLV>
0.476582

>  <SCORE.INTRA.SOLV.lig_0>
-19.3885

>  <SCORE.INTRA.VDW>
-0.34086

>  <SCORE.INTRA.VDW.0>
-1.12705

>  <SCORE.INTRA.norm>
-0.00706396

>  <SCORE.RESTR>
0

>  <SCORE.RESTR.CAVITY>
0

>  <SCORE.RESTR.norm>
0

>  <SCORE.SYSTEM>
0

>  <SCORE.SYSTEM.CONST>
0

>  <SCORE.SYSTEM.DIHEDRAL>
0

>  <SCORE.SYSTEM.SOLV>
0

>  <SCORE.SYSTEM.norm>
0

>  <SCORE.heavy>
18

>  <SCORE.norm>
-0.56978

>  <RMSD>
13.547

$$$$
lig.pdb
 OpenBabel11021811503D
libRbt.so/2013.1/901 2013/11/27
 18 19  0  0  0  0  0  0  0  0999 V2000
    6.7101   20.1008   -5.4148 C   0  0  0  0  0  0  0  0  0  0  0  0
    2.9297   18.1273   -3.1025 N   0  0  0  0  0  0  0  0  0  0  0  0
   -0.6305   16.1045   -4.3929 C   0  0  0  0  0  0  0  0  0  0  0  0
   -3.0774   18.8286   -7.8310 O   0  0  0  0  0  0  0  0  0  0  0  0
   -3.3370   18.2468   -6.5609 C   0  0  0  0  0  0  0  0  0  0  0  0
   -2.8021   16.8022   -6.5172 C   0  0  0  0  0  0  0  0  0  0  0  0
    1.2191   17.1515   -7.4742 C   0  0  0  0  0  0  0  0  0  0  0  0
   -0.3787   17.3458   -8.1169 S   0  0  0  0  0  0  0  0  0  0  0  0
   -1.2988   16.8590   -6.6757 C   0  0  0  0  0  0  0  0  0  0  0  0
   -0.2840   16.5722   -5.7965 C   0  0  0  0  0  0  0  0  0  0  0  0
    1.0024   16.7303   -6.2347 N   0  0  0  0  0  0  0  0  0  0  0  0
    2.1776   16.4586   -5.3329 C   0  0  0  0  0  0  0  0  0  0  0  0
    3.6986   18.2161   -4.2628 C   0  0  0  0  0  0  0  0  0  0  0  0
    4.7704   19.0654   -4.3050 N   0  0  0  0  0  0  0  0  0  0  0  0
    5.5234   19.1668   -5.4034 C   0  0  0  0  0  0  0  0  0  0  0  0
    5.2435   18.4408   -6.4897 N   0  0  0  0  0  0  0  0  0  0  0  0
    4.1978   17.5744   -6.5207 C   0  0  0  0  0  0  0  0  0  0  0  0
    3.3760   17.4192   -5.3988 C   0  0  0  0  0  0  0  0  0  0  0  0
  5  4  1  0  0  0  0
  5  6  1  0  0  0  0
  7  8  2  0  0  0  0
  7 11  1  0  0  0  0
  8  9  1  0  0  0  0
  9 10  2  0  0  0  0
  9  6  1  0  0  0  0
 10  3  1  0  0  0  0
 11 12  1  0  0  0  0
 11 10  1  0  0  0  0
 12 18  1  0  0  0  0
 13  2  1  0  0  0  0
 13 14  2  0  0  0  0
 15 14  1  0  0  0  0
 15  1  1  0  0  0  0
 16 15  2  0  0  0  0
 17 18  2  0  0  0  0
 17 16  1  0  0  0  0
 18 13  1  0  0  0  0
M  END
>  <CHROM.1>
63.63375406,-67.64263359,39.32142856,114.78379209,1.42044147,17.72437848
-6.04641675,-0.17851663,-0.25098787,-1.26377147

>  <Name>
lig.pdb

>  <RI>
0

>  <Rbt.Current_Directory>
/home/itssahil/PROJECTS/Mol_Feturizer/New_Systems/rnas/4nyg

>  <Rbt.Executable>
rbdock ($Id: //depot/dev/client3/rdock/2013.1/src/exe/rbdock.cxx#4 $)

>  <Rbt.Library>
libRbt.so (2013.1, Build901 2013/11/27)

>  <Rbt.Parameter_File>
/export/apps/rDock/src/rDock_2013.1_src/data/scripts/dock_solv.prm

>  <Rbt.Receptor>
prm/blind_docking_60.prm

>  <SCORE>
-11.1083

>  <SCORE.INTER>
-11.1835

>  <SCORE.INTER.CONST>
1

>  <SCORE.INTER.POLAR>
0

>  <SCORE.INTER.ROT>
4

>  <SCORE.INTER.SOLV>
9.29992

>  <SCORE.INTER.VDW>
-16.8223

>  <SCORE.INTER.norm>
-0.621306

>  <SCORE.INTRA>
0.0744694

>  <SCORE.INTRA.DIHEDRAL>
0.0233863

>  <SCORE.INTRA.DIHEDRAL.0>
3.20029

>  <SCORE.INTRA.POLAR>
0

>  <SCORE.INTRA.POLAR.0>
0

>  <SCORE.INTRA.REPUL>
0

>  <SCORE.INTRA.REPUL.0>
0

>  <SCORE.INTRA.SOLV>
0.617317

>  <SCORE.INTRA.SOLV.lig_0>
-19.3885

>  <SCORE.INTRA.VDW>
-0.245882

>  <SCORE.INTRA.VDW.0>
-1.12705

>  <SCORE.INTRA.norm>
0.00413719

>  <SCORE.RESTR>
0.000767416

>  <SCORE.RESTR.CAVITY>
0.000767416

>  <SCORE.RESTR.norm>
4.26342e-05

>  <SCORE.SYSTEM>
0

>  <SCORE.SYSTEM.CONST>
0

>  <SCORE.SYSTEM.DIHEDRAL>
0

>  <SCORE.SYSTEM.SOLV>
0

>  <SCORE.SYSTEM.norm>
0

>  <SCORE.heavy>
18

>  <SCORE.norm>
-0.617126

>  <RMSD>
13.676

$$$$
lig.pdb
 OpenBabel11021811503D
libRbt.so/2013.1/901 2013/11/27
 18 19  0  0  0  0  0  0  0  0999 V2000
   -2.5539   20.8871   13.1013 C   0  0  0  0  0  0  0  0  0  0  0  0
    1.0183   20.0315    9.9328 N   0  0  0  0  0  0  0  0  0  0  0  0
    4.9236   19.2829   10.1801 C   0  0  0  0  0  0  0  0  0  0  0  0
    3.7955   20.5506    5.3632 O   0  0  0  0  0  0  0  0  0  0  0  0
    4.3882   19.4696    6.0696 C   0  0  0  0  0  0  0  0  0  0  0  0
    5.3219   20.0025    7.1737 C   0  0  0  0  0  0  0  0  0  0  0  0
    2.8351   22.3242    9.5474 C   0  0  0  0  0  0  0  0  0  0  0  0
    3.4660   22.1693    7.9405 S   0  0  0  0  0  0  0  0  0  0  0  0
    4.4693   20.7238    8.1941 C   0  0  0  0  0  0  0  0  0  0  0  0
    4.2416   20.4719    9.5244 C   0  0  0  0  0  0  0  0  0  0  0  0
    3.3971   21.3127   10.1967 N   0  0  0  0  0  0  0  0  0  0  0  0
    3.0737   21.1009   11.6523 C   0  0  0  0  0  0  0  0  0  0  0  0
    0.6254   20.5311   11.1744 C   0  0  0  0  0  0  0  0  0  0  0  0
   -0.6931   20.4904   11.5374 N   0  0  0  0  0  0  0  0  0  0  0  0
   -1.0941   20.9603   12.7215 C   0  0  0  0  0  0  0  0  0  0  0  0
   -0.2138   21.4850   13.5789 N   0  0  0  0  0  0  0  0  0  0  0  0
    1.1114   21.5560   13.2891 C   0  0  0  0  0  0  0  0  0  0  0  0
    1.5936   21.0744   12.0670 C   0  0  0  0  0  0  0  0  0  0  0  0
  5  4  1  0  0  0  0
  5  6  1  0  0  0  0
  7  8  2  0  0  0  0
  7 11  1  0  0  0  0
  8  9  1  0  0  0  0
  9 10  2  0  0  0  0
  9  6  1  0  0  0  0
 10  3  1  0  0  0  0
 11 12  1  0  0  0  0
 11 10  1  0  0  0  0
 12 18  1  0  0  0  0
 13  2  1  0  0  0  0
 13 14  2  0  0  0  0
 15 14  1  0  0  0  0
 15  1  1  0  0  0  0
 16 15  2  0  0  0  0
 17 18  2  0  0  0  0
 17 16  1  0  0  0  0
 18 13  1  0  0  0  0
M  END
>  <CHROM.1>
65.62709875,-62.37302980,50.22804853,34.00164107,2.30798220,20.88111457,9.97005914
2.29592317,-0.04244466,1.52695434

>  <Name>
lig.pdb

>  <RI>
0

>  <Rbt.Current_Directory>
/home/itssahil/PROJECTS/Mol_Feturizer/New_Systems/rnas/4nyg

>  <Rbt.Executable>
rbdock ($Id: //depot/dev/client3/rdock/2013.1/src/exe/rbdock.cxx#4 $)

>  <Rbt.Library>
libRbt.so (2013.1, Build901 2013/11/27)

>  <Rbt.Parameter_File>
/export/apps/rDock/src/rDock_2013.1_src/data/scripts/dock_solv.prm

>  <Rbt.Receptor>
prm/blind_docking_80.prm

>  <SCORE>
-15.7922

>  <SCORE.INTER>
-16.119

>  <SCORE.INTER.CONST>
1

>  <SCORE.INTER.POLAR>
0

>  <SCORE.INTER.ROT>
4

>  <SCORE.INTER.SOLV>
16.3066

>  <SCORE.INTER.VDW>
-22.4482

>  <SCORE.INTER.norm>
-0.8955

>  <SCORE.INTRA>
0.326829

>  <SCORE.INTRA.DIHEDRAL>
0.0208949

>  <SCORE.INTRA.DIHEDRAL.0>
3.20029

>  <SCORE.INTRA.POLAR>
0

>  <SCORE.INTRA.POLAR.0>
0

>  <SCORE.INTRA.REPUL>
0

>  <SCORE.INTRA.REPUL.0>
0

>  <SCORE.INTRA.SOLV>
1.92674

>  <SCORE.INTRA.SOLV.lig_0>
-19.3885

>  <SCORE.INTRA.VDW>
-0.64699

>  <SCORE.INTRA.VDW.0>
-1.12705

>  <SCORE.INTRA.norm>
0.0181572

>  <SCORE.RESTR>
0

>  <SCORE.RESTR.CAVITY>
0

>  <SCORE.RESTR.norm>
0

>  <SCORE.SYSTEM>
0

>  <SCORE.SYSTEM.CONST>
0

>  <SCORE.SYSTEM.DIHEDRAL>
0

>  <SCORE.SYSTEM.SOLV>
0

>  <SCORE.SYSTEM.norm>
0

>  <SCORE.heavy>
18

>  <SCORE.norm>
-0.877343

>  <RMSD>
13.680

$$$$
lig.pdb
 OpenBabel11021811503D
libRbt.so/2013.1/901 2013/11/27
 18 19  0  0  0  0  0  0  0  0999 V2000
    2.9967   16.9359    4.2831 C   0  0  0  0  0  0  0  0  0  0  0  0
    4.9839   17.5162    8.6702 N   0  0  0  0  0  0  0  0  0  0  0  0
    3.6551   21.2483   11.9111 C   0  0  0  0  0  0  0  0  0  0  0  0
   -1.2160   20.5723   13.5231 O   0  0  0  0  0  0  0  0  0  0  0  0
    0.0733   20.7694   14.0870 C   0  0  0  0  0  0  0  0  0  0  0  0
    0.8810   21.7670   13.2341 C   0  0  0  0  0  0  0  0  0  0  0  0
    1.0933   19.9401    9.5158 C   0  0  0  0  0  0  0  0  0  0  0  0
   -0.0176   20.4767   10.7332 S   0  0  0  0  0  0  0  0  0  0  0  0
    1.1634   21.1139   11.8992 C   0  0  0  0  0  0  0  0  0  0  0  0
    2.3451   20.8523   11.2509 C   0  0  0  0  0  0  0  0  0  0  0  0
    2.2793   20.2461   10.0261 N   0  0  0  0  0  0  0  0  0  0  0  0
    3.5233   19.9396    9.2345 C   0  0  0  0  0  0  0  0  0  0  0  0
    4.1135   17.9884    7.6880 C   0  0  0  0  0  0  0  0  0  0  0  0
    3.9725   17.2978    6.5153 N   0  0  0  0  0  0  0  0  0  0  0  0
    3.1438   17.7281    5.5603 C   0  0  0  0  0  0  0  0  0  0  0  0
    2.4345   18.8479    5.7287 N   0  0  0  0  0  0  0  0  0  0  0  0
    2.5200   19.5840    6.8672 C   0  0  0  0  0  0  0  0  0  0  0  0
    3.3659   19.1812    7.9065 C   0  0  0  0  0  0  0  0  0  0  0  0
  5  4  1  0  0  0  0
  5  6  1  0  0  0  0
  7  8  2  0  0  0  0
  7 11  1  0  0  0  0
  8  9  1  0  0  0  0
  9 10  2  0  0  0  0
  9  6  1  0  0  0  0
 10  3  1  0  0  0  0
 11 12  1  0  0  0  0
 11 10  1  0  0  0  0
 12 18  1  0  0  0  0
 13  2  1  0  0  0  0
 13 14  2  0  0  0  0
 15 14  1  0  0  0  0
 15  1  1  0  0  0  0
 16 15  2  0  0  0  0
 17 18  2  0  0  0  0
 17 16  1  0  0  0  0
 18 13  1  0  0  0  0
M  END
>  <CHROM.1>
-67.15374161,57.61144481,-4.65372267,-126.14891860,2.10058729,19.62900414
9.51290836,1.17396087,0.10173696,-1.97007666

>  <Name>
lig.pdb

>  <RI>
0

>  <Rbt.Current_Directory>
/home/itssahil/PROJECTS/Mol_Feturizer/New_Systems/rnas/4nyg

>  <Rbt.Executable>
rbdock ($Id: //depot/dev/client3/rdock/2013.1/src/exe/rbdock.cxx#4 $)

>  <Rbt.Library>
libRbt.so (2013.1, Build901 2013/11/27)

>  <Rbt.Parameter_File>
/export/apps/rDock/src/rDock_2013.1_src/data/scripts/dock_solv.prm

>  <Rbt.Receptor>
prm/blind_docking_80.prm

>  <SCORE>
-7.55041

>  <SCORE.INTER>
-8.25461

>  <SCORE.INTER.CONST>
1

>  <SCORE.INTER.POLAR>
0

>  <SCORE.INTER.ROT>
4

>  <SCORE.INTER.SOLV>
13.5458

>  <SCORE.INTER.VDW>
-16.285

>  <SCORE.INTER.norm>
-0.45859

>  <SCORE.INTRA>
0.69603

>  <SCORE.INTRA.DIHEDRAL>
0.136998

>  <SCORE.INTRA.DIHEDRAL.0>
3.20029

>  <SCORE.INTRA.POLAR>
0

>  <SCORE.INTRA.POLAR.0>
0

>  <SCORE.INTRA.REPUL>
0

>  <SCORE.INTRA.REPUL.0>
0

>  <SCORE.INTRA.SOLV>
0.496422

>  <SCORE.INTRA.SOLV.lig_0>
-19.3885

>  <SCORE.INTRA.VDW>
0.37932

>  <SCORE.INTRA.VDW.0>
-1.12705

>  <SCORE.INTRA.norm>
0.0386683

>  <SCORE.RESTR>
0.00817631

>  <SCORE.RESTR.CAVITY>
0.00817631

>  <SCORE.RESTR.norm>
0.000454239

>  <SCORE.SYSTEM>
0

>  <SCORE.SYSTEM.CONST>
0

>  <SCORE.SYSTEM.DIHEDRAL>
0

>  <SCORE.SYSTEM.SOLV>
0

>  <SCORE.SYSTEM.norm>
0

>  <SCORE.heavy>
18

>  <SCORE.norm>
-0.419467

>  <RMSD>
13.691

$$$$
lig.pdb
 OpenBabel11021811503D
libRbt.so/2013.1/901 2013/11/27
 18 19  0  0  0  0  0  0  0  0999 V2000
    0.9910   17.0184    4.9131 C   0  0  0  0  0  0  0  0  0  0  0  0
    4.9929   16.6524    7.6304 N   0  0  0  0  0  0  0  0  0  0  0  0
    5.5320   21.3301   10.7231 C   0  0  0  0  0  0  0  0  0  0  0  0
    4.6384   25.0464    9.4574 O   0  0  0  0  0  0  0  0  0  0  0  0
    6.0282   25.2207    9.2184 C   0  0  0  0  0  0  0  0  0  0  0  0
    6.8095   23.9776    9.6867 C   0  0  0  0  0  0  0  0  0  0  0  0
    5.6921   21.0249    6.9958 C   0  0  0  0  0  0  0  0  0  0  0  0
    6.3876   22.6088    7.1030 S   0  0  0  0  0  0  0  0  0  0  0  0
    6.3345   22.7962    8.8701 C   0  0  0  0  0  0  0  0  0  0  0  0
    5.7676   21.6040    9.2471 C   0  0  0  0  0  0  0  0  0  0  0  0
    5.4457   20.7114    8.2613 N   0  0  0  0  0  0  0  0  0  0  0  0
    4.8390   19.3713    8.5837 C   0  0  0  0  0  0  0  0  0  0  0  0
    3.9371   17.4388    7.1696 C   0  0  0  0  0  0  0  0  0  0  0  0
    3.0190   16.9065    6.3062 N   0  0  0  0  0  0  0  0  0  0  0  0
    1.9980   17.6382    5.8524 C   0  0  0  0  0  0  0  0  0  0  0  0
    1.8524   18.9114    6.2307 N   0  0  0  0  0  0  0  0  0  0  0  0
    2.7222   19.5067    7.0876 C   0  0  0  0  0  0  0  0  0  0  0  0
    3.8083   18.7900    7.6022 C   0  0  0  0  0  0  0  0  0  0  0  0
  5  4  1  0  0  0  0
  5  6  1  0  0  0  0
  7  8  2  0  0  0  0
  7 11  1  0  0  0  0
  8  9  1  0  0  0  0
  9 10  2  0  0  0  0
  9  6  1  0  0  0  0
 10  3  1  0  0  0  0
 11 12  1  0  0  0  0
 11 10  1  0  0  0  0
 12 18  1  0  0  0  0
 13  2  1  0  0  0  0
 13 14  2  0  0  0  0
 15 14  1  0  0  0  0
 15  1  1  0  0  0  0
 16 15  2  0  0  0  0
 17 18  2  0  0  0  0
 17 16  1  0  0  0  0
 18 13  1  0  0  0  0
M  END
>  <CHROM.1>
62.07746926,58.98365323,-35.73131713,131.71548956,4.61783308,20.57315950
7.80152959,2.19162366,0.68693768,3.13495193

>  <Name>
lig.pdb

>  <RI>
0

>  <Rbt.Current_Directory>
/home/itssahil/PROJECTS/Mol_Feturizer/New_Systems/rnas/4nyg

>  <Rbt.Executable>
rbdock ($Id: //depot/dev/client3/rdock/2013.1/src/exe/rbdock.cxx#4 $)

>  <Rbt.Library>
libRbt.so (2013.1, Build901 2013/11/27)

>  <Rbt.Parameter_File>
/export/apps/rDock/src/rDock_2013.1_src/data/scripts/dock_solv.prm

>  <Rbt.Receptor>
prm/blind_docking_80.prm

>  <SCORE>
-8.53173

>  <SCORE.INTER>
-8.49212

>  <SCORE.INTER.CONST>
1

>  <SCORE.INTER.POLAR>
0

>  <SCORE.INTER.ROT>
4

>  <SCORE.INTER.SOLV>
11

>  <SCORE.INTER.VDW>
-15.5947

>  <SCORE.INTER.norm>
-0.471784

>  <SCORE.INTRA>
-0.0396116

>  <SCORE.INTRA.DIHEDRAL>
0.00225297

>  <SCORE.INTRA.DIHEDRAL.0>
3.20029

>  <SCORE.INTRA.POLAR>
0

>  <SCORE.INTRA.POLAR.0>
0

>  <SCORE.INTRA.REPUL>
0

>  <SCORE.INTRA.REPUL.0>
0

>  <SCORE.INTRA.SOLV>
0.52805

>  <SCORE.INTRA.SOLV.lig_0>
-19.3885

>  <SCORE.INTRA.VDW>
-0.304763

>  <SCORE.INTRA.VDW.0>
-1.12705

>  <SCORE.INTRA.norm>
-0.00220064

>  <SCORE.RESTR>
0

>  <SCORE.RESTR.CAVITY>
0

>  <SCORE.RESTR.norm>
0

>  <SCORE.SYSTEM>
0

>  <SCORE.SYSTEM.CONST>
0

>  <SCORE.SYSTEM.DIHEDRAL>
0

>  <SCORE.SYSTEM.SOLV>
0

>  <SCORE.SYSTEM.norm>
0

>  <SCORE.heavy>
18

>  <SCORE.norm>
-0.473985

>  <RMSD>
14.060

$$$$
lig.pdb
 OpenBabel11021811503D
libRbt.so/2013.1/901 2013/11/27
 18 19  0  0  0  0  0  0  0  0999 V2000
    1.1523   16.9164    4.9820 C   0  0  0  0  0  0  0  0  0  0  0  0
    5.0825   16.7241    7.8192 N   0  0  0  0  0  0  0  0  0  0  0  0
    4.6372   21.5793   10.7959 C   0  0  0  0  0  0  0  0  0  0  0  0
    7.9984   23.8401   10.6502 O   0  0  0  0  0  0  0  0  0  0  0  0
    7.2134   24.8081    9.9678 C   0  0  0  0  0  0  0  0  0  0  0  0
    5.7406   24.3578    9.9138 C   0  0  0  0  0  0  0  0  0  0  0  0
    5.8108   21.1656    7.2656 C   0  0  0  0  0  0  0  0  0  0  0  0
    6.2149   22.8438    7.4218 S   0  0  0  0  0  0  0  0  0  0  0  0
    5.6739   23.0857    9.0979 C   0  0  0  0  0  0  0  0  0  0  0  0
    5.2085   21.8325    9.4108 C   0  0  0  0  0  0  0  0  0  0  0  0
    5.2900   20.8637    8.4481 N   0  0  0  0  0  0  0  0  0  0  0  0
    4.8225   19.4562    8.7096 C   0  0  0  0  0  0  0  0  0  0  0  0
    4.0183   17.4696    7.3119 C   0  0  0  0  0  0  0  0  0  0  0  0
    3.1414   16.8928    6.4342 N   0  0  0  0  0  0  0  0  0  0  0  0
    2.1133   17.5847    5.9362 C   0  0  0  0  0  0  0  0  0  0  0  0
    1.9201   18.8605    6.2830 N   0  0  0  0  0  0  0  0  0  0  0  0
    2.7471   19.4986    7.1514 C   0  0  0  0  0  0  0  0  0  0  0  0
    3.8380   18.8249    7.7118 C   0  0  0  0  0  0  0  0  0  0  0  0
  5  4  1  0  0  0  0
  5  6  1  0  0  0  0
  7  8  2  0  0  0  0
  7 11  1  0  0  0  0
  8  9  1  0  0  0  0
  9 10  2  0  0  0  0
  9  6  1  0  0  0  0
 10  3  1  0  0  0  0
 11 12  1  0  0  0  0
 11 10  1  0  0  0  0
 12 18  1  0  0  0  0
 13  2  1  0  0  0  0
 13 14  2  0  0  0  0
 15 14  1  0  0  0  0
 15  1  1  0  0  0  0
 16 15  2  0  0  0  0
 17 18  2  0  0  0  0
 17 16  1  0  0  0  0
 18 13  1  0  0  0  0
M  END
>  <CHROM.1>
-63.71264124,-57.53526336,-52.98368037,137.87093785,4.73321133,20.57892885
8.05983442,2.48568947,0.89691006,2.83473508

>  <Name>
lig.pdb

>  <RI>
0

>  <Rbt.Current_Directory>
/home/itssahil/PROJECTS/Mol_Feturizer/New_Systems/rnas/4nyg

>  <Rbt.Executable>
rbdock ($Id: //depot/dev/client3/rdock/2013.1/src/exe/rbdock.cxx#4 $)

>  <Rbt.Library>
libRbt.so (2013.1, Build901 2013/11/27)

>  <Rbt.Parameter_File>
/export/apps/rDock/src/rDock_2013.1_src/data/scripts/dock_solv.prm

>  <Rbt.Receptor>
prm/blind_docking_100.prm

>  <SCORE>
-8.40817

>  <SCORE.INTER>
-8.18255

>  <SCORE.INTER.CONST>
1

>  <SCORE.INTER.POLAR>
0

>  <SCORE.INTER.ROT>
4

>  <SCORE.INTER.SOLV>
9.15974

>  <SCORE.INTER.VDW>
-14.7749

>  <SCORE.INTER.norm>
-0.454586

>  <SCORE.INTRA>
-0.225629

>  <SCORE.INTRA.DIHEDRAL>
0.00730169

>  <SCORE.INTRA.DIHEDRAL.0>
3.20029

>  <SCORE.INTRA.POLAR>
0

>  <SCORE.INTRA.POLAR.0>
0

>  <SCORE.INTRA.REPUL>
0

>  <SCORE.INTRA.REPUL.0>
0

>  <SCORE.INTRA.SOLV>
0.469532

>  <SCORE.INTRA.SOLV.lig_0>
-19.3885

>  <SCORE.INTRA.VDW>
-0.464046

>  <SCORE.INTRA.VDW.0>
-1.12705

>  <SCORE.INTRA.norm>
-0.0125349

>  <SCORE.RESTR>
0

>  <SCORE.RESTR.CAVITY>
0

>  <SCORE.RESTR.norm>
0

>  <SCORE.SYSTEM>
0

>  <SCORE.SYSTEM.CONST>
0

>  <SCORE.SYSTEM.DIHEDRAL>
0

>  <SCORE.SYSTEM.SOLV>
0

>  <SCORE.SYSTEM.norm>
0

>  <SCORE.heavy>
18

>  <SCORE.norm>
-0.467121

>  <RMSD>
14.208

$$$$
lig.pdb
 OpenBabel11021811503D
libRbt.so/2013.1/901 2013/11/27
 18 19  0  0  0  0  0  0  0  0999 V2000
    0.7779   19.5939    3.9241 C   0  0  0  0  0  0  0  0  0  0  0  0
    3.1997   19.4946    8.1262 N   0  0  0  0  0  0  0  0  0  0  0  0
    5.3916   22.3482    6.9672 C   0  0  0  0  0  0  0  0  0  0  0  0
    6.7705   25.4626   10.6868 O   0  0  0  0  0  0  0  0  0  0  0  0
    6.8759   24.0962   10.3115 C   0  0  0  0  0  0  0  0  0  0  0  0
    5.5095   23.5680    9.8331 C   0  0  0  0  0  0  0  0  0  0  0  0
    6.0467   19.4901    9.2940 C   0  0  0  0  0  0  0  0  0  0  0  0
    6.0003   20.7326   10.5015 S   0  0  0  0  0  0  0  0  0  0  0  0
    5.6856   22.1194    9.4346 C   0  0  0  0  0  0  0  0  0  0  0  0
    5.6471   21.5069    8.2065 C   0  0  0  0  0  0  0  0  0  0  0  0
    5.8375   20.1527    8.1636 N   0  0  0  0  0  0  0  0  0  0  0  0
    5.7918   19.3947    6.8630 C   0  0  0  0  0  0  0  0  0  0  0  0
    3.2380   19.4840    6.7320 C   0  0  0  0  0  0  0  0  0  0  0  0
    2.0711   19.5312    6.0193 N   0  0  0  0  0  0  0  0  0  0  0  0
    2.0813   19.5244    4.6838 C   0  0  0  0  0  0  0  0  0  0  0  0
    3.2351   19.4679    4.0125 N   0  0  0  0  0  0  0  0  0  0  0  0
    4.4328   19.4222    4.6518 C   0  0  0  0  0  0  0  0  0  0  0  0
    4.4876   19.4330    6.0500 C   0  0  0  0  0  0  0  0  0  0  0  0
  5  4  1  0  0  0  0
  5  6  1  0  0  0  0
  7  8  2  0  0  0  0
  7 11  1  0  0  0  0
  8  9  1  0  0  0  0
  9 10  2  0  0  0  0
  9  6  1  0  0  0  0
 10  3  1  0  0  0  0
 11 12  1  0  0  0  0
 11 10  1  0  0  0  0
 12 18  1  0  0  0  0
 13  2  1  0  0  0  0
 13 14  2  0  0  0  0
 15 14  1  0  0  0  0
 15  1  1  0  0  0  0
 16 15  2  0  0  0  0
 17 18  2  0  0  0  0
 17 16  1  0  0  0  0
 18 13  1  0  0  0  0
M  END
>  <CHROM.1>
179.40887301,69.61067500,118.45739715,-34.15905381,4.72560497,20.87986481
7.70843791,2.61833787,0.94995136,-3.13267848

>  <Name>
lig.pdb

>  <RI>
0

>  <Rbt.Current_Directory>
/home/itssahil/PROJECTS/Mol_Feturizer/New_Systems/rnas/4nyg

>  <Rbt.Executable>
rbdock ($Id: //depot/dev/client3/rdock/2013.1/src/exe/rbdock.cxx#4 $)

>  <Rbt.Library>
libRbt.so (2013.1, Build901 2013/11/27)

>  <Rbt.Parameter_File>
/export/apps/rDock/src/rDock_2013.1_src/data/scripts/dock_solv.prm

>  <Rbt.Receptor>
prm/blind_docking_40.prm

>  <SCORE>
-9.31111

>  <SCORE.INTER>
-9.24638

>  <SCORE.INTER.CONST>
1

>  <SCORE.INTER.POLAR>
0

>  <SCORE.INTER.ROT>
4

>  <SCORE.INTER.SOLV>
8.98932

>  <SCORE.INTER.VDW>
-15.4274

>  <SCORE.INTER.norm>
-0.513688

>  <SCORE.INTRA>
-0.0647306

>  <SCORE.INTRA.DIHEDRAL>
0.0848895

>  <SCORE.INTRA.DIHEDRAL.0>
3.20029

>  <SCORE.INTRA.POLAR>
0

>  <SCORE.INTRA.POLAR.0>
0

>  <SCORE.INTRA.REPUL>
0

>  <SCORE.INTRA.REPUL.0>
0

>  <SCORE.INTRA.SOLV>
1.57996

>  <SCORE.INTRA.SOLV.lig_0>
-19.3885

>  <SCORE.INTRA.VDW>
-0.897155

>  <SCORE.INTRA.VDW.0>
-1.12705

>  <SCORE.INTRA.norm>
-0.00359615

>  <SCORE.RESTR>
0

>  <SCORE.RESTR.CAVITY>
0

>  <SCORE.RESTR.norm>
0

>  <SCORE.SYSTEM>
0

>  <SCORE.SYSTEM.CONST>
0

>  <SCORE.SYSTEM.DIHEDRAL>
0

>  <SCORE.SYSTEM.SOLV>
0

>  <SCORE.SYSTEM.norm>
0

>  <SCORE.heavy>
18

>  <SCORE.norm>
-0.517284

>  <RMSD>
14.276

$$$$
lig.pdb
 OpenBabel11021811503D
libRbt.so/2013.1/901 2013/11/27
 18 19  0  0  0  0  0  0  0  0999 V2000
    0.3191   19.6279    4.9775 C   0  0  0  0  0  0  0  0  0  0  0  0
    2.8012   19.7263    9.1442 N   0  0  0  0  0  0  0  0  0  0  0  0
    5.3317   22.1037    6.6887 C   0  0  0  0  0  0  0  0  0  0  0  0
    5.8763   24.9541   11.0152 O   0  0  0  0  0  0  0  0  0  0  0  0
    5.2827   25.0837    9.7307 C   0  0  0  0  0  0  0  0  0  0  0  0
    6.1430   24.3678    8.6714 C   0  0  0  0  0  0  0  0  0  0  0  0
    6.0915   20.4200    9.9444 C   0  0  0  0  0  0  0  0  0  0  0  0
    6.4238   22.0388   10.4670 S   0  0  0  0  0  0  0  0  0  0  0  0
    6.0703   22.8812    8.9419 C   0  0  0  0  0  0  0  0  0  0  0  0
    5.7239   21.8291    8.1308 C   0  0  0  0  0  0  0  0  0  0  0  0
    5.7449   20.5729    8.6727 N   0  0  0  0  0  0  0  0  0  0  0  0
    5.3608   19.3625    7.8631 C   0  0  0  0  0  0  0  0  0  0  0  0
    2.8152   19.5983    7.7554 C   0  0  0  0  0  0  0  0  0  0  0  0
    1.6413   19.6585    7.0552 N   0  0  0  0  0  0  0  0  0  0  0  0
    1.6285   19.5409    5.7249 C   0  0  0  0  0  0  0  0  0  0  0  0
    2.7653   19.3580    5.0469 N   0  0  0  0  0  0  0  0  0  0  0  0
    3.9686   19.2913    5.6736 C   0  0  0  0  0  0  0  0  0  0  0  0
    4.0477   19.4141    7.0653 C   0  0  0  0  0  0  0  0  0  0  0  0
  5  4  1  0  0  0  0
  5  6  1  0  0  0  0
  7  8  2  0  0  0  0
  7 11  1  0  0  0  0
  8  9  1  0  0  0  0
  9 10  2  0  0  0  0
  9  6  1  0  0  0  0
 10  3  1  0  0  0  0
 11 12  1  0  0  0  0
 11 10  1  0  0  0  0
 12 18  1  0  0  0  0
 13  2  1  0  0  0  0
 13 14  2  0  0  0  0
 15 14  1  0  0  0  0
 15  1  1  0  0  0  0
 16 15  2  0  0  0  0
 17 18  2  0  0  0  0
 17 16  1  0  0  0  0
 18 13  1  0  0  0  0
M  END
>  <CHROM.1>
67.81415115,-53.81099552,129.96202583,-60.81260344,4.48455204,21.22042236
8.11902648,2.46177782,0.74266703,-3.05839793

>  <Name>
lig.pdb

>  <RI>
0

>  <Rbt.Current_Directory>
/home/itssahil/PROJECTS/Mol_Feturizer/New_Systems/rnas/4nyg

>  <Rbt.Executable>
rbdock ($Id: //depot/dev/client3/rdock/2013.1/src/exe/rbdock.cxx#4 $)

>  <Rbt.Library>
libRbt.so (2013.1, Build901 2013/11/27)

>  <Rbt.Parameter_File>
/export/apps/rDock/src/rDock_2013.1_src/data/scripts/dock_solv.prm

>  <Rbt.Receptor>
prm/blind_docking_60.prm

>  <SCORE>
-7.8814

>  <SCORE.INTER>
-8.4614

>  <SCORE.INTER.CONST>
1

>  <SCORE.INTER.POLAR>
0

>  <SCORE.INTER.ROT>
4

>  <SCORE.INTER.SOLV>
10.6244

>  <SCORE.INTER.VDW>
-15.4491

>  <SCORE.INTER.norm>
-0.470078

>  <SCORE.INTRA>
0.580001

>  <SCORE.INTRA.DIHEDRAL>
0.179692

>  <SCORE.INTRA.DIHEDRAL.0>
3.20029

>  <SCORE.INTRA.POLAR>
0

>  <SCORE.INTRA.POLAR.0>
0

>  <SCORE.INTRA.REPUL>
0

>  <SCORE.INTRA.REPUL.0>
0

>  <SCORE.INTRA.SOLV>
1.4375

>  <SCORE.INTRA.SOLV.lig_0>
-19.3885

>  <SCORE.INTRA.VDW>
-0.228596

>  <SCORE.INTRA.VDW.0>
-1.12705

>  <SCORE.INTRA.norm>
0.0322223

>  <SCORE.RESTR>
0

>  <SCORE.RESTR.CAVITY>
0

>  <SCORE.RESTR.norm>
0

>  <SCORE.SYSTEM>
0

>  <SCORE.SYSTEM.CONST>
0

>  <SCORE.SYSTEM.DIHEDRAL>
0

>  <SCORE.SYSTEM.SOLV>
0

>  <SCORE.SYSTEM.norm>
0

>  <SCORE.heavy>
18

>  <SCORE.norm>
-0.437856

>  <RMSD>
14.290

$$$$
lig.pdb
 OpenBabel11021811503D
libRbt.so/2013.1/901 2013/11/27
 18 19  0  0  0  0  0  0  0  0999 V2000
    2.2192   16.9004    4.7250 C   0  0  0  0  0  0  0  0  0  0  0  0
    4.9049   17.8686    8.6470 N   0  0  0  0  0  0  0  0  0  0  0  0
    6.2034   21.1570   10.4746 C   0  0  0  0  0  0  0  0  0  0  0  0
    6.0586   25.2428   11.0922 O   0  0  0  0  0  0  0  0  0  0  0  0
    7.0469   25.3094   10.0735 C   0  0  0  0  0  0  0  0  0  0  0  0
    7.3949   23.8932    9.5753 C   0  0  0  0  0  0  0  0  0  0  0  0
    3.8301   22.5471    7.9356 C   0  0  0  0  0  0  0  0  0  0  0  0
    4.9584   23.8624    7.9050 S   0  0  0  0  0  0  0  0  0  0  0  0
    6.1149   23.2398    9.1032 C   0  0  0  0  0  0  0  0  0  0  0  0
    5.5270   22.0473    9.4457 C   0  0  0  0  0  0  0  0  0  0  0  0
    4.3507   21.7167    8.8301 N   0  0  0  0  0  0  0  0  0  0  0  0
    3.6461   20.4197    9.1290 C   0  0  0  0  0  0  0  0  0  0  0  0
    3.9066   18.2731    7.7609 C   0  0  0  0  0  0  0  0  0  0  0  0
    3.5534   17.4612    6.7179 N   0  0  0  0  0  0  0  0  0  0  0  0
    2.5991   17.8249    5.8571 C   0  0  0  0  0  0  0  0  0  0  0  0
    1.9687   18.9949    5.9946 N   0  0  0  0  0  0  0  0  0  0  0  0
    2.2634   19.8512    7.0071 C   0  0  0  0  0  0  0  0  0  0  0  0
    3.2493   19.5235    7.9445 C   0  0  0  0  0  0  0  0  0  0  0  0
  5  4  1  0  0  0  0
  5  6  1  0  0  0  0
  7  8  2  0  0  0  0
  7 11  1  0  0  0  0
  8  9  1  0  0  0  0
  9 10  2  0  0  0  0
  9  6  1  0  0  0  0
 10  3  1  0  0  0  0
 11 12  1  0  0  0  0
 11 10  1  0  0  0  0
 12 18  1  0  0  0  0
 13  2  1  0  0  0  0
 13 14  2  0  0  0  0
 15 14  1  0  0  0  0
 15  1  1  0  0  0  0
 16 15  2  0  0  0  0
 17 18  2  0  0  0  0
 17 16  1  0  0  0  0
 18 13  1  0  0  0  0
M  END
>  <CHROM.1>
56.64108450,54.53364908,50.88710738,111.63684357,4.49650242,21.14422655,8.24254777
2.29726535,0.86263373,3.04396535

>  <Name>
lig.pdb

>  <RI>
0

>  <Rbt.Current_Directory>
/home/itssahil/PROJECTS/Mol_Feturizer/New_Systems/rnas/4nyg

>  <Rbt.Executable>
rbdock ($Id: //depot/dev/client3/rdock/2013.1/src/exe/rbdock.cxx#4 $)

>  <Rbt.Library>
libRbt.so (2013.1, Build901 2013/11/27)

>  <Rbt.Parameter_File>
/export/apps/rDock/src/rDock_2013.1_src/data/scripts/dock_solv.prm

>  <Rbt.Receptor>
prm/blind_docking_80.prm

>  <SCORE>
-8.41811

>  <SCORE.INTER>
-8.41993

>  <SCORE.INTER.CONST>
1

>  <SCORE.INTER.POLAR>
0

>  <SCORE.INTER.ROT>
4

>  <SCORE.INTER.SOLV>
9.44991

>  <SCORE.INTER.VDW>
-15.0299

>  <SCORE.INTER.norm>
-0.467774

>  <SCORE.INTRA>
0.00182696

>  <SCORE.INTRA.DIHEDRAL>
-0.00830993

>  <SCORE.INTRA.DIHEDRAL.0>
3.20029

>  <SCORE.INTRA.POLAR>
0

>  <SCORE.INTRA.POLAR.0>
0

>  <SCORE.INTRA.REPUL>
0

>  <SCORE.INTRA.REPUL.0>
0

>  <SCORE.INTRA.SOLV>
0.807122

>  <SCORE.INTRA.SOLV.lig_0>
-19.3885

>  <SCORE.INTRA.VDW>
-0.397579

>  <SCORE.INTRA.VDW.0>
-1.12705

>  <SCORE.INTRA.norm>
0.000101498

>  <SCORE.RESTR>
0

>  <SCORE.RESTR.CAVITY>
0

>  <SCORE.RESTR.norm>
0

>  <SCORE.SYSTEM>
0

>  <SCORE.SYSTEM.CONST>
0

>  <SCORE.SYSTEM.DIHEDRAL>
0

>  <SCORE.SYSTEM.SOLV>
0

>  <SCORE.SYSTEM.norm>
0

>  <SCORE.heavy>
18

>  <SCORE.norm>
-0.467673

>  <RMSD>
14.412

$$$$
lig.pdb
 OpenBabel11021811503D
libRbt.so/2013.1/901 2013/11/27
 18 19  0  0  0  0  0  0  0  0999 V2000
    7.8646   24.1179    8.0540 C   0  0  0  0  0  0  0  0  0  0  0  0
    4.0835   22.1357   10.3576 N   0  0  0  0  0  0  0  0  0  0  0  0
    1.7194   19.9635    5.5565 C   0  0  0  0  0  0  0  0  0  0  0  0
    3.7821   18.2801    3.0719 O   0  0  0  0  0  0  0  0  0  0  0  0
    3.3417   16.9804    3.4406 C   0  0  0  0  0  0  0  0  0  0  0  0
    2.2217   17.0764    4.4947 C   0  0  0  0  0  0  0  0  0  0  0  0
    4.1009   18.3644    7.9613 C   0  0  0  0  0  0  0  0  0  0  0  0
    3.9326   17.0031    6.9019 S   0  0  0  0  0  0  0  0  0  0  0  0
    2.8035   17.7228    5.7324 C   0  0  0  0  0  0  0  0  0  0  0  0
    2.6350   18.9778    6.2629 C   0  0  0  0  0  0  0  0  0  0  0  0
    3.3139   19.2804    7.4117 N   0  0  0  0  0  0  0  0  0  0  0  0
    3.2050   20.6388    8.0528 C   0  0  0  0  0  0  0  0  0  0  0  0
    4.8207   22.2707    9.1813 C   0  0  0  0  0  0  0  0  0  0  0  0
    5.9215   23.0830    9.1581 N   0  0  0  0  0  0  0  0  0  0  0  0
    6.6451   23.2272    8.0448 C   0  0  0  0  0  0  0  0  0  0  0  0
    6.3068   22.5817    6.9249 N   0  0  0  0  0  0  0  0  0  0  0  0
    5.2293   21.7561    6.8733 C   0  0  0  0  0  0  0  0  0  0  0  0
    4.4357   21.5591    8.0088 C   0  0  0  0  0  0  0  0  0  0  0  0
  5  4  1  0  0  0  0
  5  6  1  0  0  0  0
  7  8  2  0  0  0  0
  7 11  1  0  0  0  0
  8  9  1  0  0  0  0
  9 10  2  0  0  0  0
  9  6  1  0  0  0  0
 10  3  1  0  0  0  0
 11 12  1  0  0  0  0
 11 10  1  0  0  0  0
 12 18  1  0  0  0  0
 13  2  1  0  0  0  0
 13 14  2  0  0  0  0
 15 14  1  0  0  0  0
 15  1  1  0  0  0  0
 16 15  2  0  0  0  0
 17 18  2  0  0  0  0
 17 16  1  0  0  0  0
 18 13  1  0  0  0  0
M  END
>  <CHROM.1>
-63.11753957,-72.74780858,68.70769015,-135.72174947,4.21741945,20.03523124
6.91411930,-0.84031078,-0.90026834,-1.95232524

>  <Name>
lig.pdb

>  <RI>
0

>  <Rbt.Current_Directory>
/home/itssahil/PROJECTS/Mol_Feturizer/New_Systems/rnas/4nyg

>  <Rbt.Executable>
rbdock ($Id: //depot/dev/client3/rdock/2013.1/src/exe/rbdock.cxx#4 $)

>  <Rbt.Library>
libRbt.so (2013.1, Build901 2013/11/27)

>  <Rbt.Parameter_File>
/export/apps/rDock/src/rDock_2013.1_src/data/scripts/dock_solv.prm

>  <Rbt.Receptor>
prm/blind_docking_60.prm

>  <SCORE>
-8.60152

>  <SCORE.INTER>
-8.29414

>  <SCORE.INTER.CONST>
1

>  <SCORE.INTER.POLAR>
0

>  <SCORE.INTER.ROT>
4

>  <SCORE.INTER.SOLV>
10.552

>  <SCORE.INTER.VDW>
-15.3134

>  <SCORE.INTER.norm>
-0.460785

>  <SCORE.INTRA>
-0.307379

>  <SCORE.INTRA.DIHEDRAL>
0.282636

>  <SCORE.INTRA.DIHEDRAL.0>
3.20029

>  <SCORE.INTRA.POLAR>
0

>  <SCORE.INTRA.POLAR.0>
0

>  <SCORE.INTRA.REPUL>
0

>  <SCORE.INTRA.REPUL.0>
0

>  <SCORE.INTRA.SOLV>
0.562646

>  <SCORE.INTRA.SOLV.lig_0>
-19.3885

>  <SCORE.INTRA.VDW>
-0.730019

>  <SCORE.INTRA.VDW.0>
-1.12705

>  <SCORE.INTRA.norm>
-0.0170766

>  <SCORE.RESTR>
0

>  <SCORE.RESTR.CAVITY>
0

>  <SCORE.RESTR.norm>
0

>  <SCORE.SYSTEM>
0

>  <SCORE.SYSTEM.CONST>
0

>  <SCORE.SYSTEM.DIHEDRAL>
0

>  <SCORE.SYSTEM.SOLV>
0

>  <SCORE.SYSTEM.norm>
0

>  <SCORE.heavy>
18

>  <SCORE.norm>
-0.477862

>  <RMSD>
14.459

$$$$
lig.pdb
 OpenBabel11021811503D
libRbt.so/2013.1/901 2013/11/27
 18 19  0  0  0  0  0  0  0  0999 V2000
    3.9859   18.9665    2.6529 C   0  0  0  0  0  0  0  0  0  0  0  0
    1.5069   19.4482    6.7948 N   0  0  0  0  0  0  0  0  0  0  0  0
    4.0374   22.6100    7.4573 C   0  0  0  0  0  0  0  0  0  0  0  0
    8.4814   23.8916    9.0944 O   0  0  0  0  0  0  0  0  0  0  0  0
    7.4661   24.4609    8.2794 C   0  0  0  0  0  0  0  0  0  0  0  0
    6.1012   24.3731    8.9895 C   0  0  0  0  0  0  0  0  0  0  0  0
    5.6151   20.3845   10.0205 C   0  0  0  0  0  0  0  0  0  0  0  0
    6.5107   21.8161   10.4111 S   0  0  0  0  0  0  0  0  0  0  0  0
    5.7868   22.9102    9.2113 C   0  0  0  0  0  0  0  0  0  0  0  0
    4.8992   22.0697    8.5862 C   0  0  0  0  0  0  0  0  0  0  0  0
    4.8329   20.7745    9.0222 N   0  0  0  0  0  0  0  0  0  0  0  0
    3.8744   19.7882    8.4086 C   0  0  0  0  0  0  0  0  0  0  0  0
    2.7414   19.4008    6.1473 C   0  0  0  0  0  0  0  0  0  0  0  0
    2.7923   19.2094    4.7935 N   0  0  0  0  0  0  0  0  0  0  0  0
    3.9618   19.1625    4.1501 C   0  0  0  0  0  0  0  0  0  0  0  0
    5.1114   19.2986    4.8173 N   0  0  0  0  0  0  0  0  0  0  0  0
    5.1393   19.4948    6.1611 C   0  0  0  0  0  0  0  0  0  0  0  0
    3.9466   19.5596    6.8901 C   0  0  0  0  0  0  0  0  0  0  0  0
  5  4  1  0  0  0  0
  5  6  1  0  0  0  0
  7  8  2  0  0  0  0
  7 11  1  0  0  0  0
  8  9  1  0  0  0  0
  9 10  2  0  0  0  0
  9  6  1  0  0  0  0
 10  3  1  0  0  0  0
 11 12  1  0  0  0  0
 11 10  1  0  0  0  0
 12 18  1  0  0  0  0
 13  2  1  0  0  0  0
 13 14  2  0  0  0  0
 15 14  1  0  0  0  0
 15  1  1  0  0  0  0
 16 15  2  0  0  0  0
 17 18  2  0  0  0  0
 17 16  1  0  0  0  0
 18 13  1  0  0  0  0
M  END
>  <CHROM.1>
-61.28099754,74.49860804,-125.02970125,-140.46753840,4.97653083,21.07898706
7.54202862,-2.31645770,0.78007460,1.44709322

>  <Name>
lig.pdb

>  <RI>
0

>  <Rbt.Current_Directory>
/home/itssahil/PROJECTS/Mol_Feturizer/New_Systems/rnas/4nyg

>  <Rbt.Executable>
rbdock ($Id: //depot/dev/client3/rdock/2013.1/src/exe/rbdock.cxx#4 $)

>  <Rbt.Library>
libRbt.so (2013.1, Build901 2013/11/27)

>  <Rbt.Parameter_File>
/export/apps/rDock/src/rDock_2013.1_src/data/scripts/dock_solv.prm

>  <Rbt.Receptor>
prm/blind_docking_60.prm

>  <SCORE>
-9.52644

>  <SCORE.INTER>
-9.45871

>  <SCORE.INTER.CONST>
1

>  <SCORE.INTER.POLAR>
0

>  <SCORE.INTER.ROT>
4

>  <SCORE.INTER.SOLV>
12.8113

>  <SCORE.INTER.VDW>
-16.8429

>  <SCORE.INTER.norm>
-0.525484

>  <SCORE.INTRA>
-0.0677378

>  <SCORE.INTRA.DIHEDRAL>
0.301911

>  <SCORE.INTRA.DIHEDRAL.0>
3.20029

>  <SCORE.INTRA.POLAR>
0

>  <SCORE.INTRA.POLAR.0>
0

>  <SCORE.INTRA.REPUL>
0

>  <SCORE.INTRA.REPUL.0>
0

>  <SCORE.INTRA.SOLV>
0.684817

>  <SCORE.INTRA.SOLV.lig_0>
-19.3885

>  <SCORE.INTRA.VDW>
-0.561102

>  <SCORE.INTRA.VDW.0>
-1.12705

>  <SCORE.INTRA.norm>
-0.00376321

>  <SCORE.RESTR>
0

>  <SCORE.RESTR.CAVITY>
0

>  <SCORE.RESTR.norm>
0

>  <SCORE.SYSTEM>
0

>  <SCORE.SYSTEM.CONST>
0

>  <SCORE.SYSTEM.DIHEDRAL>
0

>  <SCORE.SYSTEM.SOLV>
0

>  <SCORE.SYSTEM.norm>
0

>  <SCORE.heavy>
18

>  <SCORE.norm>
-0.529247

>  <RMSD>
14.505

$$$$
lig.pdb
 OpenBabel11021811503D
libRbt.so/2013.1/901 2013/11/27
 18 19  0  0  0  0  0  0  0  0999 V2000
   -1.7183   21.5155   14.2549 C   0  0  0  0  0  0  0  0  0  0  0  0
   -0.5402   19.9794    9.8069 N   0  0  0  0  0  0  0  0  0  0  0  0
    3.3376   21.7553    7.6083 C   0  0  0  0  0  0  0  0  0  0  0  0
    7.1247   24.8086    9.5779 O   0  0  0  0  0  0  0  0  0  0  0  0
    6.2180   24.8398    8.4843 C   0  0  0  0  0  0  0  0  0  0  0  0
    5.9533   23.4112    7.9706 C   0  0  0  0  0  0  0  0  0  0  0  0
    4.1833   21.5906   11.2510 C   0  0  0  0  0  0  0  0  0  0  0  0
    5.5329   22.5659   10.7699 S   0  0  0  0  0  0  0  0  0  0  0  0
    5.1686   22.6739    9.0332 C   0  0  0  0  0  0  0  0  0  0  0  0
    4.0173   21.9301    8.9560 C   0  0  0  0  0  0  0  0  0  0  0  0
    3.5333   21.3830   10.1130 N   0  0  0  0  0  0  0  0  0  0  0  0
    2.2660   20.5695   10.1261 C   0  0  0  0  0  0  0  0  0  0  0  0
   -0.1310   20.5314   11.0206 C   0  0  0  0  0  0  0  0  0  0  0  0
   -1.0506   20.7620   12.0071 N   0  0  0  0  0  0  0  0  0  0  0  0
   -0.6835   21.2876   13.1788 C   0  0  0  0  0  0  0  0  0  0  0  0
    0.5935   21.6037   13.4126 N   0  0  0  0  0  0  0  0  0  0  0  0
    1.5622   21.4004   12.4824 C   0  0  0  0  0  0  0  0  0  0  0  0
    1.2410   20.8469   11.2379 C   0  0  0  0  0  0  0  0  0  0  0  0
  5  4  1  0  0  0  0
  5  6  1  0  0  0  0
  7  8  2  0  0  0  0
  7 11  1  0  0  0  0
  8  9  1  0  0  0  0
  9 10  2  0  0  0  0
  9  6  1  0  0  0  0
 10  3  1  0  0  0  0
 11 12  1  0  0  0  0
 11 10  1  0  0  0  0
 12 18  1  0  0  0  0
 13  2  1  0  0  0  0
 13 14  2  0  0  0  0
 15 14  1  0  0  0  0
 15  1  1  0  0  0  0
 16 15  2  0  0  0  0
 17 18  2  0  0  0  0
 17 16  1  0  0  0  0
 18 13  1  0  0  0  0
M  END
>  <CHROM.1>
68.56762108,-49.35921337,44.21730199,155.19723399,2.83615096,21.94630728
10.61957877,-2.81059771,-0.48516913,-1.86123168

>  <Name>
lig.pdb

>  <RI>
0

>  <Rbt.Current_Directory>
/home/itssahil/PROJECTS/Mol_Feturizer/New_Systems/rnas/4nyg

>  <Rbt.Executable>
rbdock ($Id: //depot/dev/client3/rdock/2013.1/src/exe/rbdock.cxx#4 $)

>  <Rbt.Library>
libRbt.so (2013.1, Build901 2013/11/27)

>  <Rbt.Parameter_File>
/export/apps/rDock/src/rDock_2013.1_src/data/scripts/dock_solv.prm

>  <Rbt.Receptor>
prm/blind_docking_80.prm

>  <SCORE>
-15.6302

>  <SCORE.INTER>
-16.6444

>  <SCORE.INTER.CONST>
1

>  <SCORE.INTER.POLAR>
0

>  <SCORE.INTER.ROT>
4

>  <SCORE.INTER.SOLV>
17.6443

>  <SCORE.INTER.VDW>
-23.2444

>  <SCORE.INTER.norm>
-0.924691

>  <SCORE.INTRA>
1.01427

>  <SCORE.INTRA.DIHEDRAL>
0.343912

>  <SCORE.INTRA.DIHEDRAL.0>
3.20029

>  <SCORE.INTRA.POLAR>
0

>  <SCORE.INTRA.POLAR.0>
0

>  <SCORE.INTRA.REPUL>
0

>  <SCORE.INTRA.REPUL.0>
0

>  <SCORE.INTRA.SOLV>
0.453473

>  <SCORE.INTRA.SOLV.lig_0>
-19.3885

>  <SCORE.INTRA.VDW>
0.615572

>  <SCORE.INTRA.VDW.0>
-1.12705

>  <SCORE.INTRA.norm>
0.0563481

>  <SCORE.RESTR>
0

>  <SCORE.RESTR.CAVITY>
0

>  <SCORE.RESTR.norm>
0

>  <SCORE.SYSTEM>
0

>  <SCORE.SYSTEM.CONST>
0

>  <SCORE.SYSTEM.DIHEDRAL>
0

>  <SCORE.SYSTEM.SOLV>
0

>  <SCORE.SYSTEM.norm>
0

>  <SCORE.heavy>
18

>  <SCORE.norm>
-0.868343

>  <RMSD>
14.526

$$$$
lig.pdb
 OpenBabel11021811503D
libRbt.so/2013.1/901 2013/11/27
 18 19  0  0  0  0  0  0  0  0999 V2000
   -1.7349   21.2002   13.6088 C   0  0  0  0  0  0  0  0  0  0  0  0
    0.2152   19.7710    9.4033 N   0  0  0  0  0  0  0  0  0  0  0  0
    3.5511   22.3007    7.6953 C   0  0  0  0  0  0  0  0  0  0  0  0
    7.3912   22.8863    7.0552 O   0  0  0  0  0  0  0  0  0  0  0  0
    7.3001   24.0147    7.9139 C   0  0  0  0  0  0  0  0  0  0  0  0
    5.8233   24.3846    8.1530 C   0  0  0  0  0  0  0  0  0  0  0  0
    4.6196   21.9162   11.2621 C   0  0  0  0  0  0  0  0  0  0  0  0
    5.7309   23.1804   10.8491 S   0  0  0  0  0  0  0  0  0  0  0  0
    5.2541   23.4001    9.1506 C   0  0  0  0  0  0  0  0  0  0  0  0
    4.2615   22.4595    9.0291 C   0  0  0  0  0  0  0  0  0  0  0  0
    3.9566   21.7088   10.1316 N   0  0  0  0  0  0  0  0  0  0  0  0
    2.8686   20.6680   10.0959 C   0  0  0  0  0  0  0  0  0  0  0  0
    0.3878   20.3733   10.6494 C   0  0  0  0  0  0  0  0  0  0  0  0
   -0.6806   20.5085   11.4932 N   0  0  0  0  0  0  0  0  0  0  0  0
   -0.5407   21.0797   12.6923 C   0  0  0  0  0  0  0  0  0  0  0  0
    0.6492   21.5358   13.0941 N   0  0  0  0  0  0  0  0  0  0  0  0
    1.7553   21.4334   12.3122 C   0  0  0  0  0  0  0  0  0  0  0  0
    1.6737   20.8391   11.0480 C   0  0  0  0  0  0  0  0  0  0  0  0
  5  4  1  0  0  0  0
  5  6  1  0  0  0  0
  7  8  2  0  0  0  0
  7 11  1  0  0  0  0
  8  9  1  0  0  0  0
  9 10  2  0  0  0  0
  9  6  1  0  0  0  0
 10  3  1  0  0  0  0
 11 12  1  0  0  0  0
 11 10  1  0  0  0  0
 12 18  1  0  0  0  0
 13  2  1  0  0  0  0
 13 14  2  0  0  0  0
 15 14  1  0  0  0  0
 15  1  1  0  0  0  0
 16 15  2  0  0  0  0
 17 18  2  0  0  0  0
 17 16  1  0  0  0  0
 18 13  1  0  0  0  0
M  END
>  <CHROM.1>
77.04369146,64.45207299,59.86306017,148.25365904,3.15312847,21.97783534,10.30886133
-2.76020986,-0.47036856,-1.80711864

>  <Name>
lig.pdb

>  <RI>
0

>  <Rbt.Current_Directory>
/home/itssahil/PROJECTS/Mol_Feturizer/New_Systems/rnas/4nyg

>  <Rbt.Executable>
rbdock ($Id: //depot/dev/client3/rdock/2013.1/src/exe/rbdock.cxx#4 $)

>  <Rbt.Library>
libRbt.so (2013.1, Build901 2013/11/27)

>  <Rbt.Parameter_File>
/export/apps/rDock/src/rDock_2013.1_src/data/scripts/dock_solv.prm

>  <Rbt.Receptor>
prm/blind_docking_40.prm

>  <SCORE>
-15.4977

>  <SCORE.INTER>
-15.8981

>  <SCORE.INTER.CONST>
1

>  <SCORE.INTER.POLAR>
0

>  <SCORE.INTER.ROT>
4

>  <SCORE.INTER.SOLV>
20.3442

>  <SCORE.INTER.VDW>
-23.6468

>  <SCORE.INTER.norm>
-0.883227

>  <SCORE.INTRA>
0.400415

>  <SCORE.INTRA.DIHEDRAL>
0.983562

>  <SCORE.INTRA.DIHEDRAL.0>
3.20029

>  <SCORE.INTRA.POLAR>
0

>  <SCORE.INTRA.POLAR.0>
0

>  <SCORE.INTRA.REPUL>
0

>  <SCORE.INTRA.REPUL.0>
0

>  <SCORE.INTRA.SOLV>
0.469232

>  <SCORE.INTRA.SOLV.lig_0>
-19.3885

>  <SCORE.INTRA.VDW>
-0.325982

>  <SCORE.INTRA.VDW.0>
-1.12705

>  <SCORE.INTRA.norm>
0.0222453

>  <SCORE.RESTR>
0

>  <SCORE.RESTR.CAVITY>
0

>  <SCORE.RESTR.norm>
0

>  <SCORE.SYSTEM>
0

>  <SCORE.SYSTEM.CONST>
0

>  <SCORE.SYSTEM.DIHEDRAL>
0

>  <SCORE.SYSTEM.SOLV>
0

>  <SCORE.SYSTEM.norm>
0

>  <SCORE.heavy>
18

>  <SCORE.norm>
-0.860981

>  <RMSD>
14.562

$$$$
lig.pdb
 OpenBabel11021811503D
libRbt.so/2013.1/901 2013/11/27
 18 19  0  0  0  0  0  0  0  0999 V2000
   -0.0837   21.0198   12.9987 C   0  0  0  0  0  0  0  0  0  0  0  0
    4.4650   22.0009   11.6278 N   0  0  0  0  0  0  0  0  0  0  0  0
    4.1240   18.1478    7.6037 C   0  0  0  0  0  0  0  0  0  0  0  0
    6.7514   13.9732    8.8846 O   0  0  0  0  0  0  0  0  0  0  0  0
    6.4815   15.2832    9.3641 C   0  0  0  0  0  0  0  0  0  0  0  0
    6.5604   16.3003    8.2090 C   0  0  0  0  0  0  0  0  0  0  0  0
    6.2670   20.0090   10.0441 C   0  0  0  0  0  0  0  0  0  0  0  0
    7.2584   18.5912    9.9386 S   0  0  0  0  0  0  0  0  0  0  0  0
    6.2738   17.6722    8.7783 C   0  0  0  0  0  0  0  0  0  0  0  0
    5.2340   18.5426    8.5634 C   0  0  0  0  0  0  0  0  0  0  0  0
    5.2555   19.7377    9.2293 N   0  0  0  0  0  0  0  0  0  0  0  0
    4.1675   20.7615    9.0393 C   0  0  0  0  0  0  0  0  0  0  0  0
    3.2304   21.4265   11.3255 C   0  0  0  0  0  0  0  0  0  0  0  0
    2.2150   21.4759   12.2412 N   0  0  0  0  0  0  0  0  0  0  0  0
    1.0232   20.9353   11.9748 C   0  0  0  0  0  0  0  0  0  0  0  0
    0.7968   20.3296   10.8055 N   0  0  0  0  0  0  0  0  0  0  0  0
    1.7554   20.2446    9.8469 C   0  0  0  0  0  0  0  0  0  0  0  0
    3.0224   20.7974   10.0644 C   0  0  0  0  0  0  0  0  0  0  0  0
  5  4  1  0  0  0  0
  5  6  1  0  0  0  0
  7  8  2  0  0  0  0
  7 11  1  0  0  0  0
  8  9  1  0  0  0  0
  9 10  2  0  0  0  0
  9  6  1  0  0  0  0
 10  3  1  0  0  0  0
 11 12  1  0  0  0  0
 11 10  1  0  0  0  0
 12 18  1  0  0  0  0
 13  2  1  0  0  0  0
 13 14  2  0  0  0  0
 15 14  1  0  0  0  0
 15  1  1  0  0  0  0
 16 15  2  0  0  0  0
 17 18  2  0  0  0  0
 17 16  1  0  0  0  0
 18 13  1  0  0  0  0
M  END
>  <CHROM.1>
-179.66519369,66.01857846,-84.30495688,78.88766770,4.38857711,19.17638254
10.01322456,2.33668205,0.20295165,0.33382573

>  <Name>
lig.pdb

>  <RI>
0

>  <Rbt.Current_Directory>
/home/itssahil/PROJECTS/Mol_Feturizer/New_Systems/rnas/4nyg

>  <Rbt.Executable>
rbdock ($Id: //depot/dev/client3/rdock/2013.1/src/exe/rbdock.cxx#4 $)

>  <Rbt.Library>
libRbt.so (2013.1, Build901 2013/11/27)

>  <Rbt.Parameter_File>
/export/apps/rDock/src/rDock_2013.1_src/data/scripts/dock_solv.prm

>  <Rbt.Receptor>
prm/blind_docking_80.prm

>  <SCORE>
-19.3728

>  <SCORE.INTER>
-18.8897

>  <SCORE.INTER.CONST>
1

>  <SCORE.INTER.POLAR>
0

>  <SCORE.INTER.ROT>
4

>  <SCORE.INTER.SOLV>
15.6504

>  <SCORE.INTER.VDW>
-24.0766

>  <SCORE.INTER.norm>
-1.04943

>  <SCORE.INTRA>
-0.483091

>  <SCORE.INTRA.DIHEDRAL>
-0.0799825

>  <SCORE.INTRA.DIHEDRAL.0>
3.20029

>  <SCORE.INTRA.POLAR>
0

>  <SCORE.INTRA.POLAR.0>
0

>  <SCORE.INTRA.REPUL>
0

>  <SCORE.INTRA.REPUL.0>
0

>  <SCORE.INTRA.SOLV>
0.543145

>  <SCORE.INTRA.SOLV.lig_0>
-19.3885

>  <SCORE.INTRA.VDW>
-0.714672

>  <SCORE.INTRA.VDW.0>
-1.12705

>  <SCORE.INTRA.norm>
-0.0268384

>  <SCORE.RESTR>
0

>  <SCORE.RESTR.CAVITY>
0

>  <SCORE.RESTR.norm>
0

>  <SCORE.SYSTEM>
0

>  <SCORE.SYSTEM.CONST>
0

>  <SCORE.SYSTEM.DIHEDRAL>
0

>  <SCORE.SYSTEM.SOLV>
0

>  <SCORE.SYSTEM.norm>
0

>  <SCORE.heavy>
18

>  <SCORE.norm>
-1.07627

>  <RMSD>
14.678

$$$$
lig.pdb
 OpenBabel11021811503D
libRbt.so/2013.1/901 2013/11/27
 18 19  0  0  0  0  0  0  0  0999 V2000
   -2.0094   21.4498   13.5194 C   0  0  0  0  0  0  0  0  0  0  0  0
    0.1475   19.7797    9.5080 N   0  0  0  0  0  0  0  0  0  0  0  0
    5.6786   20.5501   11.1770 C   0  0  0  0  0  0  0  0  0  0  0  0
    7.1738   25.1528    8.9409 O   0  0  0  0  0  0  0  0  0  0  0  0
    7.7171   23.8402    8.9714 C   0  0  0  0  0  0  0  0  0  0  0  0
    7.2175   23.0856   10.2187 C   0  0  0  0  0  0  0  0  0  0  0  0
    3.1862   22.6541    9.3405 C   0  0  0  0  0  0  0  0  0  0  0  0
    4.5394   23.7192    9.1446 S   0  0  0  0  0  0  0  0  0  0  0  0
    5.7576   22.7518   10.0052 C   0  0  0  0  0  0  0  0  0  0  0  0
    5.0112   21.6657   10.3903 C   0  0  0  0  0  0  0  0  0  0  0  0
    3.6899   21.6424   10.0358 N   0  0  0  0  0  0  0  0  0  0  0  0
    2.8006   20.4822   10.3979 C   0  0  0  0  0  0  0  0  0  0  0  0
    0.2683   20.3943   10.7542 C   0  0  0  0  0  0  0  0  0  0  0  0
   -0.8494   20.6312   11.5068 N   0  0  0  0  0  0  0  0  0  0  0  0
   -0.7598   21.2161   12.7042 C   0  0  0  0  0  0  0  0  0  0  0  0
    0.4271   21.5869   13.1932 N   0  0  0  0  0  0  0  0  0  0  0  0
    1.5799   21.3812   12.5048 C   0  0  0  0  0  0  0  0  0  0  0  0
    1.5516   20.7671   11.2477 C   0  0  0  0  0  0  0  0  0  0  0  0
  5  4  1  0  0  0  0
  5  6  1  0  0  0  0
  7  8  2  0  0  0  0
  7 11  1  0  0  0  0
  8  9  1  0  0  0  0
  9 10  2  0  0  0  0
  9  6  1  0  0  0  0
 10  3  1  0  0  0  0
 11 12  1  0  0  0  0
 11 10  1  0  0  0  0
 12 18  1  0  0  0  0
 13  2  1  0  0  0  0
 13 14  2  0  0  0  0
 15 14  1  0  0  0  0
 15  1  1  0  0  0  0
 16 15  2  0  0  0  0
 17 18  2  0  0  0  0
 17 16  1  0  0  0  0
 18 13  1  0  0  0  0
M  END
>  <CHROM.1>
72.11366282,-34.33027328,-59.56937227,123.04795076,3.11139777,21.98528420
10.62975358,2.80499159,-0.37924811,-3.11287258

>  <Name>
lig.pdb

>  <RI>
0

>  <Rbt.Current_Directory>
/home/itssahil/PROJECTS/Mol_Feturizer/New_Systems/rnas/4nyg

>  <Rbt.Executable>
rbdock ($Id: //depot/dev/client3/rdock/2013.1/src/exe/rbdock.cxx#4 $)

>  <Rbt.Library>
libRbt.so (2013.1, Build901 2013/11/27)

>  <Rbt.Parameter_File>
/export/apps/rDock/src/rDock_2013.1_src/data/scripts/dock_solv.prm

>  <Rbt.Receptor>
prm/blind_docking_80.prm

>  <SCORE>
-15.6513

>  <SCORE.INTER>
-16.5234

>  <SCORE.INTER.CONST>
1

>  <SCORE.INTER.POLAR>
0

>  <SCORE.INTER.ROT>
4

>  <SCORE.INTER.SOLV>
20.1137

>  <SCORE.INTER.VDW>
-23.9869

>  <SCORE.INTER.norm>
-0.917969

>  <SCORE.INTRA>
0.872094

>  <SCORE.INTRA.DIHEDRAL>
1.49166

>  <SCORE.INTRA.DIHEDRAL.0>
3.20029

>  <SCORE.INTRA.POLAR>
0

>  <SCORE.INTRA.POLAR.0>
0

>  <SCORE.INTRA.REPUL>
0

>  <SCORE.INTRA.REPUL.0>
0

>  <SCORE.INTRA.SOLV>
0.499405

>  <SCORE.INTRA.SOLV.lig_0>
-19.3885

>  <SCORE.INTRA.VDW>
-0.123436

>  <SCORE.INTRA.VDW.0>
-1.12705

>  <SCORE.INTRA.norm>
0.0484496

>  <SCORE.RESTR>
0

>  <SCORE.RESTR.CAVITY>
0

>  <SCORE.RESTR.norm>
0

>  <SCORE.SYSTEM>
0

>  <SCORE.SYSTEM.CONST>
0

>  <SCORE.SYSTEM.DIHEDRAL>
0

>  <SCORE.SYSTEM.SOLV>
0

>  <SCORE.SYSTEM.norm>
0

>  <SCORE.heavy>
18

>  <SCORE.norm>
-0.869519

>  <RMSD>
14.700

$$$$
lig.pdb
 OpenBabel11021811503D
libRbt.so/2013.1/901 2013/11/27
 18 19  0  0  0  0  0  0  0  0999 V2000
    4.1184   19.0787    2.8860 C   0  0  0  0  0  0  0  0  0  0  0  0
    6.3970   19.4454    7.1528 N   0  0  0  0  0  0  0  0  0  0  0  0
    3.9218   21.8575    8.4631 C   0  0  0  0  0  0  0  0  0  0  0  0
    7.5471   25.1294    9.3616 O   0  0  0  0  0  0  0  0  0  0  0  0
    7.3426   23.7234    9.3479 C   0  0  0  0  0  0  0  0  0  0  0  0
    6.0733   23.3616   10.1435 C   0  0  0  0  0  0  0  0  0  0  0  0
    5.9256   19.2164   10.2012 C   0  0  0  0  0  0  0  0  0  0  0  0
    6.7905   20.5797   10.8317 S   0  0  0  0  0  0  0  0  0  0  0  0
    5.8643   21.8678   10.0295 C   0  0  0  0  0  0  0  0  0  0  0  0
    4.9475   21.1333    9.3189 C   0  0  0  0  0  0  0  0  0  0  0  0
    5.0031   19.7703    9.4248 N   0  0  0  0  0  0  0  0  0  0  0  0
    4.0249   18.8861    8.6972 C   0  0  0  0  0  0  0  0  0  0  0  0
    5.2108   19.2203    6.4546 C   0  0  0  0  0  0  0  0  0  0  0  0
    5.2088   19.2596    5.0870 N   0  0  0  0  0  0  0  0  0  0  0  0
    4.0864   19.0451    4.3955 C   0  0  0  0  0  0  0  0  0  0  0  0
    2.9367   18.7899    5.0265 N   0  0  0  0  0  0  0  0  0  0  0  0
    2.8624   18.7318    6.3816 C   0  0  0  0  0  0  0  0  0  0  0  0
    4.0055   18.9413    7.1610 C   0  0  0  0  0  0  0  0  0  0  0  0
  5  4  1  0  0  0  0
  5  6  1  0  0  0  0
  7  8  2  0  0  0  0
  7 11  1  0  0  0  0
  8  9  1  0  0  0  0
  9 10  2  0  0  0  0
  9  6  1  0  0  0  0
 10  3  1  0  0  0  0
 11 12  1  0  0  0  0
 11 10  1  0  0  0  0
 12 18  1  0  0  0  0
 13  2  1  0  0  0  0
 13 14  2  0  0  0  0
 15 14  1  0  0  0  0
 15  1  1  0  0  0  0
 16 15  2  0  0  0  0
 17 18  2  0  0  0  0
 17 16  1  0  0  0  0
 18 13  1  0  0  0  0
M  END
>  <CHROM.1>
176.88356010,73.60115675,-119.45293220,31.39295183,5.26740375,20.51828260
8.01107372,-2.71488166,1.11980054,2.05064754

>  <Name>
lig.pdb

>  <RI>
0

>  <Rbt.Current_Directory>
/home/itssahil/PROJECTS/Mol_Feturizer/New_Systems/rnas/4nyg

>  <Rbt.Executable>
rbdock ($Id: //depot/dev/client3/rdock/2013.1/src/exe/rbdock.cxx#4 $)

>  <Rbt.Library>
libRbt.so (2013.1, Build901 2013/11/27)

>  <Rbt.Parameter_File>
/export/apps/rDock/src/rDock_2013.1_src/data/scripts/dock_solv.prm

>  <Rbt.Receptor>
prm/blind_docking_60.prm

>  <SCORE>
-10.692

>  <SCORE.INTER>
-10.7371

>  <SCORE.INTER.CONST>
1

>  <SCORE.INTER.POLAR>
0

>  <SCORE.INTER.ROT>
4

>  <SCORE.INTER.SOLV>
10.89

>  <SCORE.INTER.VDW>
-17.0547

>  <SCORE.INTER.norm>
-0.596506

>  <SCORE.INTRA>
0.0450831

>  <SCORE.INTRA.DIHEDRAL>
0.27289

>  <SCORE.INTRA.DIHEDRAL.0>
3.20029

>  <SCORE.INTRA.POLAR>
0

>  <SCORE.INTRA.POLAR.0>
0

>  <SCORE.INTRA.REPUL>
0

>  <SCORE.INTRA.REPUL.0>
0

>  <SCORE.INTRA.SOLV>
1.61605

>  <SCORE.INTRA.SOLV.lig_0>
-19.3885

>  <SCORE.INTRA.VDW>
-0.899386

>  <SCORE.INTRA.VDW.0>
-1.12705

>  <SCORE.INTRA.norm>
0.00250462

>  <SCORE.RESTR>
0

>  <SCORE.RESTR.CAVITY>
0

>  <SCORE.RESTR.norm>
0

>  <SCORE.SYSTEM>
0

>  <SCORE.SYSTEM.CONST>
0

>  <SCORE.SYSTEM.DIHEDRAL>
0

>  <SCORE.SYSTEM.SOLV>
0

>  <SCORE.SYSTEM.norm>
0

>  <SCORE.heavy>
18

>  <SCORE.norm>
-0.594002

>  <RMSD>
14.800

$$$$
lig.pdb
 OpenBabel11021811503D
libRbt.so/2013.1/901 2013/11/27
 18 19  0  0  0  0  0  0  0  0999 V2000
    7.1528   14.7995    8.6627 C   0  0  0  0  0  0  0  0  0  0  0  0
    3.5239   17.3417    6.6876 N   0  0  0  0  0  0  0  0  0  0  0  0
    3.9583   21.9340   10.2950 C   0  0  0  0  0  0  0  0  0  0  0  0
    7.5392   23.7831    9.2301 O   0  0  0  0  0  0  0  0  0  0  0  0
    6.6976   24.7210    8.5737 C   0  0  0  0  0  0  0  0  0  0  0  0
    5.2171   24.3868    8.8407 C   0  0  0  0  0  0  0  0  0  0  0  0
    4.6951   20.8128    6.8004 C   0  0  0  0  0  0  0  0  0  0  0  0
    5.2710   22.4378    6.6214 S   0  0  0  0  0  0  0  0  0  0  0  0
    4.9416   23.0128    8.2710 C   0  0  0  0  0  0  0  0  0  0  0  0
    4.3965   21.8889    8.8407 C   0  0  0  0  0  0  0  0  0  0  0  0
    4.2803   20.7712    8.0601 N   0  0  0  0  0  0  0  0  0  0  0  0
    3.7129   19.4877    8.6068 C   0  0  0  0  0  0  0  0  0  0  0  0
    4.4921   17.2314    7.6855 C   0  0  0  0  0  0  0  0  0  0  0  0
    5.3135   16.1377    7.7181 N   0  0  0  0  0  0  0  0  0  0  0  0
    6.2498   16.0100    8.6619 C   0  0  0  0  0  0  0  0  0  0  0  0
    6.4030   16.9491    9.5999 N   0  0  0  0  0  0  0  0  0  0  0  0
    5.6269   18.0635    9.6294 C   0  0  0  0  0  0  0  0  0  0  0  0
    4.6330   18.2575    8.6636 C   0  0  0  0  0  0  0  0  0  0  0  0
  5  4  1  0  0  0  0
  5  6  1  0  0  0  0
  7  8  2  0  0  0  0
  7 11  1  0  0  0  0
  8  9  1  0  0  0  0
  9 10  2  0  0  0  0
  9  6  1  0  0  0  0
 10  3  1  0  0  0  0
 11 12  1  0  0  0  0
 11 10  1  0  0  0  0
 12 18  1  0  0  0  0
 13  2  1  0  0  0  0
 13 14  2  0  0  0  0
 15 14  1  0  0  0  0
 15  1  1  0  0  0  0
 16 15  2  0  0  0  0
 17 18  2  0  0  0  0
 17 16  1  0  0  0  0
 18 13  1  0  0  0  0
M  END
>  <CHROM.1>
-61.67523933,-52.85420879,62.38651050,-102.83043607,5.26247225,20.11059346
8.30615496,-1.57297437,-0.67807667,-0.00388723

>  <Name>
lig.pdb

>  <RI>
0

>  <Rbt.Current_Directory>
/home/itssahil/PROJECTS/Mol_Feturizer/New_Systems/rnas/4nyg

>  <Rbt.Executable>
rbdock ($Id: //depot/dev/client3/rdock/2013.1/src/exe/rbdock.cxx#4 $)

>  <Rbt.Library>
libRbt.so (2013.1, Build901 2013/11/27)

>  <Rbt.Parameter_File>
/export/apps/rDock/src/rDock_2013.1_src/data/scripts/dock_solv.prm

>  <Rbt.Receptor>
prm/blind_docking_60.prm

>  <SCORE>
-14.1303

>  <SCORE.INTER>
-13.9536

>  <SCORE.INTER.CONST>
1

>  <SCORE.INTER.POLAR>
0

>  <SCORE.INTER.ROT>
4

>  <SCORE.INTER.SOLV>
11.2506

>  <SCORE.INTER.VDW>
-19.3192

>  <SCORE.INTER.norm>
-0.775199

>  <SCORE.INTRA>
-0.176698

>  <SCORE.INTRA.DIHEDRAL>
0.0297263

>  <SCORE.INTRA.DIHEDRAL.0>
3.20029

>  <SCORE.INTRA.POLAR>
0

>  <SCORE.INTRA.POLAR.0>
0

>  <SCORE.INTRA.REPUL>
0

>  <SCORE.INTRA.REPUL.0>
0

>  <SCORE.INTRA.SOLV>
0.789493

>  <SCORE.INTRA.SOLV.lig_0>
-19.3885

>  <SCORE.INTRA.VDW>
-0.586308

>  <SCORE.INTRA.VDW.0>
-1.12705

>  <SCORE.INTRA.norm>
-0.00981658

>  <SCORE.RESTR>
0

>  <SCORE.RESTR.CAVITY>
0

>  <SCORE.RESTR.norm>
0

>  <SCORE.SYSTEM>
0

>  <SCORE.SYSTEM.CONST>
0

>  <SCORE.SYSTEM.DIHEDRAL>
0

>  <SCORE.SYSTEM.SOLV>
0

>  <SCORE.SYSTEM.norm>
0

>  <SCORE.heavy>
18

>  <SCORE.norm>
-0.785016

>  <RMSD>
15.018

$$$$
lig.pdb
 OpenBabel11021811503D
libRbt.so/2013.1/901 2013/11/27
 18 19  0  0  0  0  0  0  0  0999 V2000
   -0.7388   21.4759   13.4389 C   0  0  0  0  0  0  0  0  0  0  0  0
    3.9046   21.6289   12.0432 N   0  0  0  0  0  0  0  0  0  0  0  0
    6.1629   21.2080   10.2170 C   0  0  0  0  0  0  0  0  0  0  0  0
    6.4081   25.2891   10.3568 O   0  0  0  0  0  0  0  0  0  0  0  0
    7.0400   25.1904    9.0879 C   0  0  0  0  0  0  0  0  0  0  0  0
    7.2492   23.7111    8.7104 C   0  0  0  0  0  0  0  0  0  0  0  0
    3.4074   22.3425    7.9516 C   0  0  0  0  0  0  0  0  0  0  0  0
    4.5490   23.5733    7.5201 S   0  0  0  0  0  0  0  0  0  0  0  0
    5.8861   23.0688    8.5775 C   0  0  0  0  0  0  0  0  0  0  0  0
    5.3362   21.9746    9.1982 C   0  0  0  0  0  0  0  0  0  0  0  0
    4.0581   21.6242    8.8578 N   0  0  0  0  0  0  0  0  0  0  0  0
    3.3825   20.4269    9.4727 C   0  0  0  0  0  0  0  0  0  0  0  0
    2.5872   21.2752   11.7520 C   0  0  0  0  0  0  0  0  0  0  0  0
    1.6006   21.5133   12.6695 N   0  0  0  0  0  0  0  0  0  0  0  0
    0.3313   21.1859   12.4135 C   0  0  0  0  0  0  0  0  0  0  0  0
   -0.0031   20.6139   11.2532 N   0  0  0  0  0  0  0  0  0  0  0  0
    0.9212   20.3501   10.2934 C   0  0  0  0  0  0  0  0  0  0  0  0
    2.2663   20.6758   10.5002 C   0  0  0  0  0  0  0  0  0  0  0  0
  5  4  1  0  0  0  0
  5  6  1  0  0  0  0
  7  8  2  0  0  0  0
  7 11  1  0  0  0  0
  8  9  1  0  0  0  0
  9 10  2  0  0  0  0
  9  6  1  0  0  0  0
 10  3  1  0  0  0  0
 11 12  1  0  0  0  0
 11 10  1  0  0  0  0
 12 18  1  0  0  0  0
 13  2  1  0  0  0  0
 13 14  2  0  0  0  0
 15 14  1  0  0  0  0
 15  1  1  0  0  0  0
 16 15  2  0  0  0  0
 17 18  2  0  0  0  0
 17 16  1  0  0  0  0
 18 13  1  0  0  0  0
M  END
>  <CHROM.1>
63.46362633,56.56917127,-73.61580003,-66.38489105,3.67904596,22.20735977
10.06452931,-2.77544382,-0.57847558,-1.82040303

>  <Name>
lig.pdb

>  <RI>
0

>  <Rbt.Current_Directory>
/home/itssahil/PROJECTS/Mol_Feturizer/New_Systems/rnas/4nyg

>  <Rbt.Executable>
rbdock ($Id: //depot/dev/client3/rdock/2013.1/src/exe/rbdock.cxx#4 $)

>  <Rbt.Library>
libRbt.so (2013.1, Build901 2013/11/27)

>  <Rbt.Parameter_File>
/export/apps/rDock/src/rDock_2013.1_src/data/scripts/dock_solv.prm

>  <Rbt.Receptor>
prm/blind_docking_40.prm

>  <SCORE>
-17.2216

>  <SCORE.INTER>
-17.4465

>  <SCORE.INTER.CONST>
1

>  <SCORE.INTER.POLAR>
0

>  <SCORE.INTER.ROT>
4

>  <SCORE.INTER.SOLV>
16.0229

>  <SCORE.INTER.VDW>
-23.2386

>  <SCORE.INTER.norm>
-0.969249

>  <SCORE.INTRA>
0.22487

>  <SCORE.INTRA.DIHEDRAL>
-0.0523435

>  <SCORE.INTRA.DIHEDRAL.0>
3.20029

>  <SCORE.INTRA.POLAR>
0

>  <SCORE.INTRA.POLAR.0>
0

>  <SCORE.INTRA.REPUL>
0

>  <SCORE.INTRA.REPUL.0>
0

>  <SCORE.INTRA.SOLV>
1.58687

>  <SCORE.INTRA.SOLV.lig_0>
-19.3885

>  <SCORE.INTRA.VDW>
-0.542394

>  <SCORE.INTRA.VDW.0>
-1.12705

>  <SCORE.INTRA.norm>
0.0124928

>  <SCORE.RESTR>
0

>  <SCORE.RESTR.CAVITY>
0

>  <SCORE.RESTR.norm>
0

>  <SCORE.SYSTEM>
0

>  <SCORE.SYSTEM.CONST>
0

>  <SCORE.SYSTEM.DIHEDRAL>
0

>  <SCORE.SYSTEM.SOLV>
0

>  <SCORE.SYSTEM.norm>
0

>  <SCORE.heavy>
18

>  <SCORE.norm>
-0.956757

>  <RMSD>
15.046

$$$$
lig.pdb
 OpenBabel11021811503D
libRbt.so/2013.1/901 2013/11/27
 18 19  0  0  0  0  0  0  0  0999 V2000
   -0.3083   21.0965   12.7436 C   0  0  0  0  0  0  0  0  0  0  0  0
    4.5130   20.7607   12.3257 N   0  0  0  0  0  0  0  0  0  0  0  0
    6.5220   21.9666   10.3542 C   0  0  0  0  0  0  0  0  0  0  0  0
    5.9068   25.2780    9.7010 O   0  0  0  0  0  0  0  0  0  0  0  0
    6.5503   25.3448    8.4359 C   0  0  0  0  0  0  0  0  0  0  0  0
    7.2939   24.0265    8.1460 C   0  0  0  0  0  0  0  0  0  0  0  0
    4.3893   21.1644    7.3844 C   0  0  0  0  0  0  0  0  0  0  0  0
    5.2291   22.5064    6.6787 S   0  0  0  0  0  0  0  0  0  0  0  0
    6.2642   22.9214    8.0632 C   0  0  0  0  0  0  0  0  0  0  0  0
    5.8699   21.9803    8.9818 C   0  0  0  0  0  0  0  0  0  0  0  0
    4.9020   21.0893    8.6059 N   0  0  0  0  0  0  0  0  0  0  0  0
    4.4226   20.0106    9.5411 C   0  0  0  0  0  0  0  0  0  0  0  0
    3.2576   20.6459   11.7289 C   0  0  0  0  0  0  0  0  0  0  0  0
    2.1305   20.8974   12.4625 N   0  0  0  0  0  0  0  0  0  0  0  0
    0.9171   20.7966   11.9134 C   0  0  0  0  0  0  0  0  0  0  0  0
    0.7771   20.4436   10.6324 N   0  0  0  0  0  0  0  0  0  0  0  0
    1.8501   20.1817    9.8415 C   0  0  0  0  0  0  0  0  0  0  0  0
    3.1474   20.2766   10.3575 C   0  0  0  0  0  0  0  0  0  0  0  0
  5  4  1  0  0  0  0
  5  6  1  0  0  0  0
  7  8  2  0  0  0  0
  7 11  1  0  0  0  0
  8  9  1  0  0  0  0
  9 10  2  0  0  0  0
  9  6  1  0  0  0  0
 10  3  1  0  0  0  0
 11 12  1  0  0  0  0
 11 10  1  0  0  0  0
 12 18  1  0  0  0  0
 13  2  1  0  0  0  0
 13 14  2  0  0  0  0
 15 14  1  0  0  0  0
 15  1  1  0  0  0  0
 16 15  2  0  0  0  0
 17 18  2  0  0  0  0
 17 16  1  0  0  0  0
 18 13  1  0  0  0  0
M  END
>  <CHROM.1>
63.40105469,80.71385168,-84.68431104,-101.73861353,4.19060063,21.84576093
9.67126778,-2.80637111,-0.71633133,-1.98690427

>  <Name>
lig.pdb

>  <RI>
0

>  <Rbt.Current_Directory>
/home/itssahil/PROJECTS/Mol_Feturizer/New_Systems/rnas/4nyg

>  <Rbt.Executable>
rbdock ($Id: //depot/dev/client3/rdock/2013.1/src/exe/rbdock.cxx#4 $)

>  <Rbt.Library>
libRbt.so (2013.1, Build901 2013/11/27)

>  <Rbt.Parameter_File>
/export/apps/rDock/src/rDock_2013.1_src/data/scripts/dock_solv.prm

>  <Rbt.Receptor>
prm/blind_docking_80.prm

>  <SCORE>
-16.0405

>  <SCORE.INTER>
-16.1812

>  <SCORE.INTER.CONST>
1

>  <SCORE.INTER.POLAR>
0

>  <SCORE.INTER.ROT>
4

>  <SCORE.INTER.SOLV>
16.173

>  <SCORE.INTER.VDW>
-22.4451

>  <SCORE.INTER.norm>
-0.898953

>  <SCORE.INTRA>
0.140646

>  <SCORE.INTRA.DIHEDRAL>
0.607982

>  <SCORE.INTRA.DIHEDRAL.0>
3.20029

>  <SCORE.INTRA.POLAR>
0

>  <SCORE.INTRA.POLAR.0>
0

>  <SCORE.INTRA.REPUL>
0

>  <SCORE.INTRA.REPUL.0>
0

>  <SCORE.INTRA.SOLV>
1.23746

>  <SCORE.INTRA.SOLV.lig_0>
-19.3885

>  <SCORE.INTRA.VDW>
-0.782073

>  <SCORE.INTRA.VDW.0>
-1.12705

>  <SCORE.INTRA.norm>
0.00781367

>  <SCORE.RESTR>
0

>  <SCORE.RESTR.CAVITY>
0

>  <SCORE.RESTR.norm>
0

>  <SCORE.SYSTEM>
0

>  <SCORE.SYSTEM.CONST>
0

>  <SCORE.SYSTEM.DIHEDRAL>
0

>  <SCORE.SYSTEM.SOLV>
0

>  <SCORE.SYSTEM.norm>
0

>  <SCORE.heavy>
18

>  <SCORE.norm>
-0.89114

>  <RMSD>
15.114

$$$$
lig.pdb
 OpenBabel11021811503D
libRbt.so/2013.1/901 2013/11/27
 18 19  0  0  0  0  0  0  0  0999 V2000
    7.0737   14.7133    8.9550 C   0  0  0  0  0  0  0  0  0  0  0  0
    3.7446   17.1888    6.4408 N   0  0  0  0  0  0  0  0  0  0  0  0
    3.3165   21.9743    9.7088 C   0  0  0  0  0  0  0  0  0  0  0  0
    7.3984   24.8897    8.5228 O   0  0  0  0  0  0  0  0  0  0  0  0
    6.4493   24.7723    9.5738 C   0  0  0  0  0  0  0  0  0  0  0  0
    5.0532   24.4634    8.9990 C   0  0  0  0  0  0  0  0  0  0  0  0
    5.6173   20.8947    6.9606 C   0  0  0  0  0  0  0  0  0  0  0  0
    6.1749   22.5325    7.0649 S   0  0  0  0  0  0  0  0  0  0  0  0
    5.1040   23.0883    8.3706 C   0  0  0  0  0  0  0  0  0  0  0  0
    4.3812   21.9491    8.6250 C   0  0  0  0  0  0  0  0  0  0  0  0
    4.6655   20.8351    7.8832 N   0  0  0  0  0  0  0  0  0  0  0  0
    3.9371   19.5362    8.1074 C   0  0  0  0  0  0  0  0  0  0  0  0
    4.6364   17.1478    7.5124 C   0  0  0  0  0  0  0  0  0  0  0  0
    5.3857   16.0241    7.7308 N   0  0  0  0  0  0  0  0  0  0  0  0
    6.2482   15.9610    8.7486 C   0  0  0  0  0  0  0  0  0  0  0  0
    6.3962   16.9962    9.5803 N   0  0  0  0  0  0  0  0  0  0  0  0
    5.6892   18.1455    9.4242 C   0  0  0  0  0  0  0  0  0  0  0  0
    4.7748   18.2747    8.3728 C   0  0  0  0  0  0  0  0  0  0  0  0
  5  4  1  0  0  0  0
  5  6  1  0  0  0  0
  7  8  2  0  0  0  0
  7 11  1  0  0  0  0
  8  9  1  0  0  0  0
  9 10  2  0  0  0  0
  9  6  1  0  0  0  0
 10  3  1  0  0  0  0
 11 12  1  0  0  0  0
 11 10  1  0  0  0  0
 12 18  1  0  0  0  0
 13  2  1  0  0  0  0
 13 14  2  0  0  0  0
 15 14  1  0  0  0  0
 15  1  1  0  0  0  0
 16 15  2  0  0  0  0
 17 18  2  0  0  0  0
 17 16  1  0  0  0  0
 18 13  1  0  0  0  0
M  END
>  <CHROM.1>
66.18168431,-58.34256793,52.95275375,-122.08005163,5.41745753,20.19724137
8.28779718,-1.59671088,-0.36867605,0.01377940

>  <Name>
lig.pdb

>  <RI>
0

>  <Rbt.Current_Directory>
/home/itssahil/PROJECTS/Mol_Feturizer/New_Systems/rnas/4nyg

>  <Rbt.Executable>
rbdock ($Id: //depot/dev/client3/rdock/2013.1/src/exe/rbdock.cxx#4 $)

>  <Rbt.Library>
libRbt.so (2013.1, Build901 2013/11/27)

>  <Rbt.Parameter_File>
/export/apps/rDock/src/rDock_2013.1_src/data/scripts/dock_solv.prm

>  <Rbt.Receptor>
prm/blind_docking_80.prm

>  <SCORE>
-14.6407

>  <SCORE.INTER>
-14.516

>  <SCORE.INTER.CONST>
1

>  <SCORE.INTER.POLAR>
0

>  <SCORE.INTER.ROT>
4

>  <SCORE.INTER.SOLV>
10.9332

>  <SCORE.INTER.VDW>
-19.5884

>  <SCORE.INTER.norm>
-0.806442

>  <SCORE.INTRA>
-0.124708

>  <SCORE.INTRA.DIHEDRAL>
0.0451056

>  <SCORE.INTRA.DIHEDRAL.0>
3.20029

>  <SCORE.INTRA.POLAR>
0

>  <SCORE.INTRA.POLAR.0>
0

>  <SCORE.INTRA.REPUL>
0

>  <SCORE.INTRA.REPUL.0>
0

>  <SCORE.INTRA.SOLV>
0.53271

>  <SCORE.INTRA.SOLV.lig_0>
-19.3885

>  <SCORE.INTRA.VDW>
-0.413616

>  <SCORE.INTRA.VDW.0>
-1.12705

>  <SCORE.INTRA.norm>
-0.00692824

>  <SCORE.RESTR>
0

>  <SCORE.RESTR.CAVITY>
0

>  <SCORE.RESTR.norm>
0

>  <SCORE.SYSTEM>
0

>  <SCORE.SYSTEM.CONST>
0

>  <SCORE.SYSTEM.DIHEDRAL>
0

>  <SCORE.SYSTEM.SOLV>
0

>  <SCORE.SYSTEM.norm>
0

>  <SCORE.heavy>
18

>  <SCORE.norm>
-0.813371

>  <RMSD>
15.135

$$$$
lig.pdb
 OpenBabel11021811503D
libRbt.so/2013.1/901 2013/11/27
 18 19  0  0  0  0  0  0  0  0999 V2000
    6.8827   14.7001    8.4387 C   0  0  0  0  0  0  0  0  0  0  0  0
    6.1324   18.9141   10.7215 N   0  0  0  0  0  0  0  0  0  0  0  0
    4.7623   22.1548   10.4903 C   0  0  0  0  0  0  0  0  0  0  0  0
    7.8625   24.0317    7.3889 O   0  0  0  0  0  0  0  0  0  0  0  0
    7.4181   24.4482    8.6726 C   0  0  0  0  0  0  0  0  0  0  0  0
    5.8780   24.4672    8.7231 C   0  0  0  0  0  0  0  0  0  0  0  0
    4.6612   20.9149    6.9599 C   0  0  0  0  0  0  0  0  0  0  0  0
    5.3129   22.4822    6.6094 S   0  0  0  0  0  0  0  0  0  0  0  0
    5.3821   23.1116    8.2706 C   0  0  0  0  0  0  0  0  0  0  0  0
    4.8815   22.0476    8.9793 C   0  0  0  0  0  0  0  0  0  0  0  0
    4.5171   20.9302    8.2788 N   0  0  0  0  0  0  0  0  0  0  0  0
    3.9774   19.7088    8.9753 C   0  0  0  0  0  0  0  0  0  0  0  0
    5.7845   18.0437    9.6887 C   0  0  0  0  0  0  0  0  0  0  0  0
    6.4534   16.8591    9.5435 N   0  0  0  0  0  0  0  0  0  0  0  0
    6.1376   16.0077    8.5641 C   0  0  0  0  0  0  0  0  0  0  0  0
    5.1603   16.2968    7.7000 N   0  0  0  0  0  0  0  0  0  0  0  0
    4.4505   17.4519    7.7837 C   0  0  0  0  0  0  0  0  0  0  0  0
    4.7302   18.3810    8.7920 C   0  0  0  0  0  0  0  0  0  0  0  0
  5  4  1  0  0  0  0
  5  6  1  0  0  0  0
  7  8  2  0  0  0  0
  7 11  1  0  0  0  0
  8  9  1  0  0  0  0
  9 10  2  0  0  0  0
  9  6  1  0  0  0  0
 10  3  1  0  0  0  0
 11 12  1  0  0  0  0
 11 10  1  0  0  0  0
 12 18  1  0  0  0  0
 13  2  1  0  0  0  0
 13 14  2  0  0  0  0
 15 14  1  0  0  0  0
 15  1  1  0  0  0  0
 16 15  2  0  0  0  0
 17 18  2  0  0  0  0
 17 16  1  0  0  0  0
 18 13  1  0  0  0  0
M  END
>  <CHROM.1>
53.08192483,-75.96393133,57.68484582,89.01872476,5.59314831,20.26505773,8.44830984
1.70266654,1.27367010,2.92057219

>  <Name>
lig.pdb

>  <RI>
0

>  <Rbt.Current_Directory>
/home/itssahil/PROJECTS/Mol_Feturizer/New_Systems/rnas/4nyg

>  <Rbt.Executable>
rbdock ($Id: //depot/dev/client3/rdock/2013.1/src/exe/rbdock.cxx#4 $)

>  <Rbt.Library>
libRbt.so (2013.1, Build901 2013/11/27)

>  <Rbt.Parameter_File>
/export/apps/rDock/src/rDock_2013.1_src/data/scripts/dock_solv.prm

>  <Rbt.Receptor>
prm/blind_docking_80.prm

>  <SCORE>
-14.0186

>  <SCORE.INTER>
-14.2376

>  <SCORE.INTER.CONST>
1

>  <SCORE.INTER.POLAR>
0

>  <SCORE.INTER.ROT>
4

>  <SCORE.INTER.SOLV>
13.3936

>  <SCORE.INTER.VDW>
-20.2229

>  <SCORE.INTER.norm>
-0.790976

>  <SCORE.INTRA>
0.218997

>  <SCORE.INTRA.DIHEDRAL>
0.544291

>  <SCORE.INTRA.DIHEDRAL.0>
3.20029

>  <SCORE.INTRA.POLAR>
0

>  <SCORE.INTRA.POLAR.0>
0

>  <SCORE.INTRA.REPUL>
0

>  <SCORE.INTRA.REPUL.0>
0

>  <SCORE.INTRA.SOLV>
1.10182

>  <SCORE.INTRA.SOLV.lig_0>
-19.3885

>  <SCORE.INTRA.VDW>
-0.604058

>  <SCORE.INTRA.VDW.0>
-1.12705

>  <SCORE.INTRA.norm>
0.0121665

>  <SCORE.RESTR>
0

>  <SCORE.RESTR.CAVITY>
0

>  <SCORE.RESTR.norm>
0

>  <SCORE.SYSTEM>
0

>  <SCORE.SYSTEM.CONST>
0

>  <SCORE.SYSTEM.DIHEDRAL>
0

>  <SCORE.SYSTEM.SOLV>
0

>  <SCORE.SYSTEM.norm>
0

>  <SCORE.heavy>
18

>  <SCORE.norm>
-0.778809

>  <RMSD>
15.410

$$$$
lig.pdb
 OpenBabel11021811503D
libRbt.so/2013.1/901 2013/11/27
 18 19  0  0  0  0  0  0  0  0999 V2000
    6.6653   14.8046    9.4521 C   0  0  0  0  0  0  0  0  0  0  0  0
    3.6176   17.6155    6.9337 N   0  0  0  0  0  0  0  0  0  0  0  0
    6.4973   22.6834    7.2232 C   0  0  0  0  0  0  0  0  0  0  0  0
    7.1172   24.0153   10.3050 O   0  0  0  0  0  0  0  0  0  0  0  0
    5.8942   24.7208   10.4648 C   0  0  0  0  0  0  0  0  0  0  0  0
    5.0722   24.6642    9.1625 C   0  0  0  0  0  0  0  0  0  0  0  0
    3.6873   20.7714    8.7917 C   0  0  0  0  0  0  0  0  0  0  0  0
    3.4044   22.2686    9.6177 S   0  0  0  0  0  0  0  0  0  0  0  0
    4.7241   23.2163    8.8961 C   0  0  0  0  0  0  0  0  0  0  0  0
    5.2957   22.2858    8.0640 C   0  0  0  0  0  0  0  0  0  0  0  0
    4.7424   21.0349    8.0313 N   0  0  0  0  0  0  0  0  0  0  0  0
    5.2910   19.9574    7.1335 C   0  0  0  0  0  0  0  0  0  0  0  0
    4.8159   17.4940    7.6370 C   0  0  0  0  0  0  0  0  0  0  0  0
    5.1607   16.2912    8.1903 N   0  0  0  0  0  0  0  0  0  0  0  0
    6.3037   16.1488    8.8664 C   0  0  0  0  0  0  0  0  0  0  0  0
    7.1365   17.1822    9.0204 N   0  0  0  0  0  0  0  0  0  0  0  0
    6.8628   18.4053    8.4965 C   0  0  0  0  0  0  0  0  0  0  0  0
    5.6840   18.6154    7.7724 C   0  0  0  0  0  0  0  0  0  0  0  0
  5  4  1  0  0  0  0
  5  6  1  0  0  0  0
  7  8  2  0  0  0  0
  7 11  1  0  0  0  0
  8  9  1  0  0  0  0
  9 10  2  0  0  0  0
  9  6  1  0  0  0  0
 10  3  1  0  0  0  0
 11 12  1  0  0  0  0
 11 10  1  0  0  0  0
 12 18  1  0  0  0  0
 13  2  1  0  0  0  0
 13 14  2  0  0  0  0
 15 14  1  0  0  0  0
 15  1  1  0  0  0  0
 16 15  2  0  0  0  0
 17 18  2  0  0  0  0
 17 16  1  0  0  0  0
 18 13  1  0  0  0  0
M  END
>  <CHROM.1>
63.17227292,81.27930540,-55.31723035,102.53276092,5.32850452,20.31377694
8.65450950,-1.48048289,-0.37218325,0.16657420

>  <Name>
lig.pdb

>  <RI>
0

>  <Rbt.Current_Directory>
/home/itssahil/PROJECTS/Mol_Feturizer/New_Systems/rnas/4nyg

>  <Rbt.Executable>
rbdock ($Id: //depot/dev/client3/rdock/2013.1/src/exe/rbdock.cxx#4 $)

>  <Rbt.Library>
libRbt.so (2013.1, Build901 2013/11/27)

>  <Rbt.Parameter_File>
/export/apps/rDock/src/rDock_2013.1_src/data/scripts/dock_solv.prm

>  <Rbt.Receptor>
prm/blind_docking_100.prm

>  <SCORE>
-12.5982

>  <SCORE.INTER>
-12.7077

>  <SCORE.INTER.CONST>
1

>  <SCORE.INTER.POLAR>
0

>  <SCORE.INTER.ROT>
4

>  <SCORE.INTER.SOLV>
10.6875

>  <SCORE.INTER.VDW>
-18.301

>  <SCORE.INTER.norm>
-0.705983

>  <SCORE.INTRA>
0.109439

>  <SCORE.INTRA.DIHEDRAL>
0.716482

>  <SCORE.INTRA.DIHEDRAL.0>
3.20029

>  <SCORE.INTRA.POLAR>
0

>  <SCORE.INTRA.POLAR.0>
0

>  <SCORE.INTRA.REPUL>
0

>  <SCORE.INTRA.REPUL.0>
0

>  <SCORE.INTRA.SOLV>
0.889932

>  <SCORE.INTRA.SOLV.lig_0>
-19.3885

>  <SCORE.INTRA.VDW>
-0.693768

>  <SCORE.INTRA.VDW.0>
-1.12705

>  <SCORE.INTRA.norm>
0.00607997

>  <SCORE.RESTR>
0

>  <SCORE.RESTR.CAVITY>
0

>  <SCORE.RESTR.norm>
0

>  <SCORE.SYSTEM>
0

>  <SCORE.SYSTEM.CONST>
0

>  <SCORE.SYSTEM.DIHEDRAL>
0

>  <SCORE.SYSTEM.SOLV>
0

>  <SCORE.SYSTEM.norm>
0

>  <SCORE.heavy>
18

>  <SCORE.norm>
-0.699903

>  <RMSD>
15.416

$$$$
lig.pdb
 OpenBabel11021811503D
libRbt.so/2013.1/901 2013/11/27
 18 19  0  0  0  0  0  0  0  0999 V2000
    6.6760   14.7823    9.4595 C   0  0  0  0  0  0  0  0  0  0  0  0
    3.6368   17.6307    6.9730 N   0  0  0  0  0  0  0  0  0  0  0  0
    6.4809   22.7062    7.2198 C   0  0  0  0  0  0  0  0  0  0  0  0
    7.0843   24.0100   10.2463 O   0  0  0  0  0  0  0  0  0  0  0  0
    5.8792   24.7412   10.4256 C   0  0  0  0  0  0  0  0  0  0  0  0
    5.0128   24.6606    9.1537 C   0  0  0  0  0  0  0  0  0  0  0  0
    3.7261   20.7320    8.8089 C   0  0  0  0  0  0  0  0  0  0  0  0
    3.4081   22.2260    9.6280 S   0  0  0  0  0  0  0  0  0  0  0  0
    4.7007   23.2030    8.8964 C   0  0  0  0  0  0  0  0  0  0  0  0
    5.2929   22.2828    8.0672 C   0  0  0  0  0  0  0  0  0  0  0  0
    4.7714   21.0180    8.0433 N   0  0  0  0  0  0  0  0  0  0  0  0
    5.3441   19.9500    7.1492 C   0  0  0  0  0  0  0  0  0  0  0  0
    4.8417   17.4940    7.6622 C   0  0  0  0  0  0  0  0  0  0  0  0
    5.1767   16.2874    8.2134 N   0  0  0  0  0  0  0  0  0  0  0  0
    6.3256   16.1305    8.8761 C   0  0  0  0  0  0  0  0  0  0  0  0
    7.1742   17.1527    9.0184 N   0  0  0  0  0  0  0  0  0  0  0  0
    6.9108   18.3786    8.4959 C   0  0  0  0  0  0  0  0  0  0  0  0
    5.7264   18.6037    7.7856 C   0  0  0  0  0  0  0  0  0  0  0  0
  5  4  1  0  0  0  0
  5  6  1  0  0  0  0
  7  8  2  0  0  0  0
  7 11  1  0  0  0  0
  8  9  1  0  0  0  0
  9 10  2  0  0  0  0
  9  6  1  0  0  0  0
 10  3  1  0  0  0  0
 11 12  1  0  0  0  0
 11 10  1  0  0  0  0
 12 18  1  0  0  0  0
 13  2  1  0  0  0  0
 13 14  2  0  0  0  0
 15 14  1  0  0  0  0
 15  1  1  0  0  0  0
 16 15  2  0  0  0  0
 17 18  2  0  0  0  0
 17 16  1  0  0  0  0
 18 13  1  0  0  0  0
M  END
>  <CHROM.1>
59.85838987,83.22100972,-53.16242327,100.23662481,5.33816180,20.30151092
8.65776242,-1.47395326,-0.34482943,0.16039813

>  <Name>
lig.pdb

>  <RI>
0

>  <Rbt.Current_Directory>
/home/itssahil/PROJECTS/Mol_Feturizer/New_Systems/rnas/4nyg

>  <Rbt.Executable>
rbdock ($Id: //depot/dev/client3/rdock/2013.1/src/exe/rbdock.cxx#4 $)

>  <Rbt.Library>
libRbt.so (2013.1, Build901 2013/11/27)

>  <Rbt.Parameter_File>
/export/apps/rDock/src/rDock_2013.1_src/data/scripts/dock_solv.prm

>  <Rbt.Receptor>
prm/blind_docking_40.prm

>  <SCORE>
-12.5314

>  <SCORE.INTER>
-12.7729

>  <SCORE.INTER.CONST>
1

>  <SCORE.INTER.POLAR>
0

>  <SCORE.INTER.ROT>
4

>  <SCORE.INTER.SOLV>
10.7412

>  <SCORE.INTER.VDW>
-18.3623

>  <SCORE.INTER.norm>
-0.709607

>  <SCORE.INTRA>
0.241548

>  <SCORE.INTRA.DIHEDRAL>
0.810698

>  <SCORE.INTRA.DIHEDRAL.0>
3.20029

>  <SCORE.INTRA.POLAR>
0

>  <SCORE.INTRA.POLAR.0>
0

>  <SCORE.INTRA.REPUL>
0

>  <SCORE.INTRA.REPUL.0>
0

>  <SCORE.INTRA.SOLV>
0.942261

>  <SCORE.INTRA.SOLV.lig_0>
-19.3885

>  <SCORE.INTRA.VDW>
-0.634931

>  <SCORE.INTRA.VDW.0>
-1.12705

>  <SCORE.INTRA.norm>
0.0134193

>  <SCORE.RESTR>
0

>  <SCORE.RESTR.CAVITY>
0

>  <SCORE.RESTR.norm>
0

>  <SCORE.SYSTEM>
0

>  <SCORE.SYSTEM.CONST>
0

>  <SCORE.SYSTEM.DIHEDRAL>
0

>  <SCORE.SYSTEM.SOLV>
0

>  <SCORE.SYSTEM.norm>
0

>  <SCORE.heavy>
18

>  <SCORE.norm>
-0.696188

>  <RMSD>
15.427

$$$$
lig.pdb
 OpenBabel11021811503D
libRbt.so/2013.1/901 2013/11/27
 18 19  0  0  0  0  0  0  0  0999 V2000
    7.1106   14.7067    8.9310 C   0  0  0  0  0  0  0  0  0  0  0  0
    5.8077   19.1265   10.4474 N   0  0  0  0  0  0  0  0  0  0  0  0
    3.3732   22.0482    9.8039 C   0  0  0  0  0  0  0  0  0  0  0  0
    6.5583   26.2226    9.6308 O   0  0  0  0  0  0  0  0  0  0  0  0
    6.5099   24.8872    9.1477 C   0  0  0  0  0  0  0  0  0  0  0  0
    5.0553   24.4864    8.8339 C   0  0  0  0  0  0  0  0  0  0  0  0
    5.4989   20.7982    6.9878 C   0  0  0  0  0  0  0  0  0  0  0  0
    6.0577   22.4385    6.9555 S   0  0  0  0  0  0  0  0  0  0  0  0
    5.0699   23.0752    8.2895 C   0  0  0  0  0  0  0  0  0  0  0  0
    4.3676   21.9548    8.6587 C   0  0  0  0  0  0  0  0  0  0  0  0
    4.6074   20.7968    7.9705 N   0  0  0  0  0  0  0  0  0  0  0  0
    3.8979   19.5151    8.3198 C   0  0  0  0  0  0  0  0  0  0  0  0
    5.6638   18.1000    9.5141 C   0  0  0  0  0  0  0  0  0  0  0  0
    6.4084   16.9589    9.6382 N   0  0  0  0  0  0  0  0  0  0  0  0
    6.2873   15.9609    8.7589 C   0  0  0  0  0  0  0  0  0  0  0  0
    5.4358   16.0569    7.7338 N   0  0  0  0  0  0  0  0  0  0  0  0
    4.6615   17.1574    7.5480 C   0  0  0  0  0  0  0  0  0  0  0  0
    4.7386   18.2335    8.4392 C   0  0  0  0  0  0  0  0  0  0  0  0
  5  4  1  0  0  0  0
  5  6  1  0  0  0  0
  7  8  2  0  0  0  0
  7 11  1  0  0  0  0
  8  9  1  0  0  0  0
  9 10  2  0  0  0  0
  9  6  1  0  0  0  0
 10  3  1  0  0  0  0
 11 12  1  0  0  0  0
 11 10  1  0  0  0  0
 12 18  1  0  0  0  0
 13  2  1  0  0  0  0
 13 14  2  0  0  0  0
 15 14  1  0  0  0  0
 15  1  1  0  0  0  0
 16 15  2  0  0  0  0
 17 18  2  0  0  0  0
 17 16  1  0  0  0  0
 18 13  1  0  0  0  0
M  END
>  <CHROM.1>
178.45016759,-51.90468530,45.57615063,68.44865196,5.45700113,20.36585015
8.54889822,-1.51063845,-1.06253181,0.05426842

>  <Name>
lig.pdb

>  <RI>
0

>  <Rbt.Current_Directory>
/home/itssahil/PROJECTS/Mol_Feturizer/New_Systems/rnas/4nyg

>  <Rbt.Executable>
rbdock ($Id: //depot/dev/client3/rdock/2013.1/src/exe/rbdock.cxx#4 $)

>  <Rbt.Library>
libRbt.so (2013.1, Build901 2013/11/27)

>  <Rbt.Parameter_File>
/export/apps/rDock/src/rDock_2013.1_src/data/scripts/dock_solv.prm

>  <Rbt.Receptor>
prm/blind_docking_60.prm

>  <SCORE>
-15.005

>  <SCORE.INTER>
-14.902

>  <SCORE.INTER.CONST>
1

>  <SCORE.INTER.POLAR>
0

>  <SCORE.INTER.ROT>
4

>  <SCORE.INTER.SOLV>
10.9329

>  <SCORE.INTER.VDW>
-19.8456

>  <SCORE.INTER.norm>
-0.827886

>  <SCORE.INTRA>
-0.103078

>  <SCORE.INTRA.DIHEDRAL>
-0.000888192

>  <SCORE.INTRA.DIHEDRAL.0>
3.20029

>  <SCORE.INTRA.POLAR>
0

>  <SCORE.INTRA.POLAR.0>
0

>  <SCORE.INTRA.REPUL>
0

>  <SCORE.INTRA.REPUL.0>
0

>  <SCORE.INTRA.SOLV>
0.808485

>  <SCORE.INTRA.SOLV.lig_0>
-19.3885

>  <SCORE.INTRA.VDW>
-0.506876

>  <SCORE.INTRA.VDW.0>
-1.12705

>  <SCORE.INTRA.norm>
-0.00572655

>  <SCORE.RESTR>
0

>  <SCORE.RESTR.CAVITY>
0

>  <SCORE.RESTR.norm>
0

>  <SCORE.SYSTEM>
0

>  <SCORE.SYSTEM.CONST>
0

>  <SCORE.SYSTEM.DIHEDRAL>
0

>  <SCORE.SYSTEM.SOLV>
0

>  <SCORE.SYSTEM.norm>
0

>  <SCORE.heavy>
18

>  <SCORE.norm>
-0.833613

>  <RMSD>
15.427

$$$$
lig.pdb
 OpenBabel11021811503D
libRbt.so/2013.1/901 2013/11/27
 18 19  0  0  0  0  0  0  0  0999 V2000
    7.1521   14.6325    8.9636 C   0  0  0  0  0  0  0  0  0  0  0  0
    3.7634   17.2054    6.6336 N   0  0  0  0  0  0  0  0  0  0  0  0
    4.4533   21.3168   10.6460 C   0  0  0  0  0  0  0  0  0  0  0  0
    5.6601   26.2474   10.6284 O   0  0  0  0  0  0  0  0  0  0  0  0
    5.4159   25.2076    9.6912 C   0  0  0  0  0  0  0  0  0  0  0  0
    6.1105   23.9085   10.1436 C   0  0  0  0  0  0  0  0  0  0  0  0
    5.4561   21.2344    7.0405 C   0  0  0  0  0  0  0  0  0  0  0  0
    6.2115   22.7448    7.4301 S   0  0  0  0  0  0  0  0  0  0  0  0
    5.7610   22.8245    9.1480 C   0  0  0  0  0  0  0  0  0  0  0  0
    5.0437   21.6623    9.2892 C   0  0  0  0  0  0  0  0  0  0  0  0
    4.9014   20.8635    8.1875 N   0  0  0  0  0  0  0  0  0  0  0  0
    4.1484   19.5611    8.2546 C   0  0  0  0  0  0  0  0  0  0  0  0
    4.7196   17.1420    7.6471 C   0  0  0  0  0  0  0  0  0  0  0  0
    5.4392   15.9932    7.8320 N   0  0  0  0  0  0  0  0  0  0  0  0
    6.3619   15.9082    8.7939 C   0  0  0  0  0  0  0  0  0  0  0  0
    6.6008   16.9457    9.6012 N   0  0  0  0  0  0  0  0  0  0  0  0
    5.9282   18.1192    9.4755 C   0  0  0  0  0  0  0  0  0  0  0  0
    4.9541   18.2717    8.4825 C   0  0  0  0  0  0  0  0  0  0  0  0
  5  4  1  0  0  0  0
  5  6  1  0  0  0  0
  7  8  2  0  0  0  0
  7 11  1  0  0  0  0
  8  9  1  0  0  0  0
  9 10  2  0  0  0  0
  9  6  1  0  0  0  0
 10  3  1  0  0  0  0
 11 12  1  0  0  0  0
 11 10  1  0  0  0  0
 12 18  1  0  0  0  0
 13  2  1  0  0  0  0
 13 14  2  0  0  0  0
 15 14  1  0  0  0  0
 15  1  1  0  0  0  0
 16 15  2  0  0  0  0
 17 18  2  0  0  0  0
 17 16  1  0  0  0  0
 18 13  1  0  0  0  0
M  END
>  <CHROM.1>
177.27116826,65.01861830,83.55631857,-131.66560075,5.50700303,20.24417748
8.70925622,-1.54170759,-1.17672419,0.16218657

>  <Name>
lig.pdb

>  <RI>
0

>  <Rbt.Current_Directory>
/home/itssahil/PROJECTS/Mol_Feturizer/New_Systems/rnas/4nyg

>  <Rbt.Executable>
rbdock ($Id: //depot/dev/client3/rdock/2013.1/src/exe/rbdock.cxx#4 $)

>  <Rbt.Library>
libRbt.so (2013.1, Build901 2013/11/27)

>  <Rbt.Parameter_File>
/export/apps/rDock/src/rDock_2013.1_src/data/scripts/dock_solv.prm

>  <Rbt.Receptor>
prm/blind_docking_100.prm

>  <SCORE>
-14.6625

>  <SCORE.INTER>
-14.1424

>  <SCORE.INTER.CONST>
1

>  <SCORE.INTER.POLAR>
0

>  <SCORE.INTER.ROT>
4

>  <SCORE.INTER.SOLV>
10.4131

>  <SCORE.INTER.VDW>
-19.166

>  <SCORE.INTER.norm>
-0.78569

>  <SCORE.INTRA>
-0.52003

>  <SCORE.INTRA.DIHEDRAL>
0.0529611

>  <SCORE.INTRA.DIHEDRAL.0>
3.20029

>  <SCORE.INTRA.POLAR>
0

>  <SCORE.INTRA.POLAR.0>
0

>  <SCORE.INTRA.REPUL>
0

>  <SCORE.INTRA.REPUL.0>
0

>  <SCORE.INTRA.SOLV>
0.0445202

>  <SCORE.INTRA.SOLV.lig_0>
-19.3885

>  <SCORE.INTRA.VDW>
-0.56877

>  <SCORE.INTRA.VDW.0>
-1.12705

>  <SCORE.INTRA.norm>
-0.0288905

>  <SCORE.RESTR>
0

>  <SCORE.RESTR.CAVITY>
0

>  <SCORE.RESTR.norm>
0

>  <SCORE.SYSTEM>
0

>  <SCORE.SYSTEM.CONST>
0

>  <SCORE.SYSTEM.DIHEDRAL>
0

>  <SCORE.SYSTEM.SOLV>
0

>  <SCORE.SYSTEM.norm>
0

>  <SCORE.heavy>
18

>  <SCORE.norm>
-0.814581

>  <RMSD>
15.444

$$$$
lig.pdb
 OpenBabel11021811503D
libRbt.so/2013.1/901 2013/11/27
 18 19  0  0  0  0  0  0  0  0999 V2000
  -21.6939   16.3660   -3.4322 C   0  0  0  0  0  0  0  0  0  0  0  0
  -23.5433   12.7014   -0.8472 N   0  0  0  0  0  0  0  0  0  0  0  0
  -21.6696    8.6063    0.4449 C   0  0  0  0  0  0  0  0  0  0  0  0
  -19.3521    8.0892    5.0467 O   0  0  0  0  0  0  0  0  0  0  0  0
  -19.5089    9.0437    4.0058 C   0  0  0  0  0  0  0  0  0  0  0  0
  -19.4644    8.3464    2.6323 C   0  0  0  0  0  0  0  0  0  0  0  0
  -19.3298   11.4801   -0.0825 C   0  0  0  0  0  0  0  0  0  0  0  0
  -18.5089   10.7934    1.2808 S   0  0  0  0  0  0  0  0  0  0  0  0
  -19.5913    9.4123    1.5664 C   0  0  0  0  0  0  0  0  0  0  0  0
  -20.5230    9.5949    0.5747 C   0  0  0  0  0  0  0  0  0  0  0  0
  -20.3645   10.6683   -0.2588 N   0  0  0  0  0  0  0  0  0  0  0  0
  -21.3265   10.9350   -1.3864 C   0  0  0  0  0  0  0  0  0  0  0  0
  -22.5134   13.1861   -1.6533 C   0  0  0  0  0  0  0  0  0  0  0  0
  -22.5776   14.4611   -2.1452 N   0  0  0  0  0  0  0  0  0  0  0  0
  -21.6032   14.9492   -2.9173 C   0  0  0  0  0  0  0  0  0  0  0  0
  -20.5424   14.1993   -3.2297 N   0  0  0  0  0  0  0  0  0  0  0  0
  -20.4082   12.9261   -2.7755 C   0  0  0  0  0  0  0  0  0  0  0  0
  -21.3927   12.3609   -1.9574 C   0  0  0  0  0  0  0  0  0  0  0  0
  5  4  1  0  0  0  0
  5  6  1  0  0  0  0
  7  8  2  0  0  0  0
  7 11  1  0  0  0  0
  8  9  1  0  0  0  0
  9 10  2  0  0  0  0
  9  6  1  0  0  0  0
 10  3  1  0  0  0  0
 11 12  1  0  0  0  0
 11 10  1  0  0  0  0
 12 18  1  0  0  0  0
 13  2  1  0  0  0  0
 13 14  2  0  0  0  0
 15 14  1  0  0  0  0
 15  1  1  0  0  0  0
 16 15  2  0  0  0  0
 17 18  2  0  0  0  0
 17 16  1  0  0  0  0
 18 13  1  0  0  0  0
M  END
>  <CHROM.1>
-178.22150752,59.96695691,-21.90043976,-106.17193943,-20.60677152,11.47197038
-0.11480354,-1.86299660,0.27900745,2.42552205

>  <Name>
lig.pdb

>  <RI>
0

>  <Rbt.Current_Directory>
/home/itssahil/PROJECTS/Mol_Feturizer/New_Systems/rnas/4nyg

>  <Rbt.Executable>
rbdock ($Id: //depot/dev/client3/rdock/2013.1/src/exe/rbdock.cxx#4 $)

>  <Rbt.Library>
libRbt.so (2013.1, Build901 2013/11/27)

>  <Rbt.Parameter_File>
/export/apps/rDock/src/rDock_2013.1_src/data/scripts/dock_solv.prm

>  <Rbt.Receptor>
prm/blind_docking_40.prm

>  <SCORE>
-9.73656

>  <SCORE.INTER>
-9.81232

>  <SCORE.INTER.CONST>
1

>  <SCORE.INTER.POLAR>
0

>  <SCORE.INTER.ROT>
4

>  <SCORE.INTER.SOLV>
9.91874

>  <SCORE.INTER.VDW>
-16.1145

>  <SCORE.INTER.norm>
-0.545129

>  <SCORE.INTRA>
0.0757587

>  <SCORE.INTRA.DIHEDRAL>
-0.00869284

>  <SCORE.INTRA.DIHEDRAL.0>
3.20029

>  <SCORE.INTRA.POLAR>
0

>  <SCORE.INTRA.POLAR.0>
0

>  <SCORE.INTRA.REPUL>
0

>  <SCORE.INTRA.REPUL.0>
0

>  <SCORE.INTRA.SOLV>
0.134088

>  <SCORE.INTRA.SOLV.lig_0>
-19.3885

>  <SCORE.INTRA.VDW>
0.0130612

>  <SCORE.INTRA.VDW.0>
-1.12705

>  <SCORE.INTRA.norm>
0.00420882

>  <SCORE.RESTR>
0

>  <SCORE.RESTR.CAVITY>
0

>  <SCORE.RESTR.norm>
0

>  <SCORE.SYSTEM>
0

>  <SCORE.SYSTEM.CONST>
0

>  <SCORE.SYSTEM.DIHEDRAL>
0

>  <SCORE.SYSTEM.SOLV>
0

>  <SCORE.SYSTEM.norm>
0

>  <SCORE.heavy>
18

>  <SCORE.norm>
-0.54092

>  <RMSD>
15.452

$$$$
lig.pdb
 OpenBabel11021811503D
libRbt.so/2013.1/901 2013/11/27
 18 19  0  0  0  0  0  0  0  0999 V2000
    7.0316   14.6596    8.8546 C   0  0  0  0  0  0  0  0  0  0  0  0
    3.6325   17.4254    6.7738 N   0  0  0  0  0  0  0  0  0  0  0  0
    4.7859   21.5345   10.7170 C   0  0  0  0  0  0  0  0  0  0  0  0
    6.4992   25.7106    8.2494 O   0  0  0  0  0  0  0  0  0  0  0  0
    5.9281   25.3592    9.5021 C   0  0  0  0  0  0  0  0  0  0  0  0
    6.5173   24.0254   10.0010 C   0  0  0  0  0  0  0  0  0  0  0  0
    5.4947   21.2960    7.0492 C   0  0  0  0  0  0  0  0  0  0  0  0
    6.3484   22.7784    7.3283 S   0  0  0  0  0  0  0  0  0  0  0  0
    6.0397   22.9310    9.0724 C   0  0  0  0  0  0  0  0  0  0  0  0
    5.2824   21.8102    9.3076 C   0  0  0  0  0  0  0  0  0  0  0  0
    5.0160   20.9871    8.2476 N   0  0  0  0  0  0  0  0  0  0  0  0
    4.2106   19.7258    8.4165 C   0  0  0  0  0  0  0  0  0  0  0  0
    4.6406   17.2988    7.7294 C   0  0  0  0  0  0  0  0  0  0  0  0
    5.3187   16.1167    7.8501 N   0  0  0  0  0  0  0  0  0  0  0  0
    6.2895   15.9712    8.7557 C   0  0  0  0  0  0  0  0  0  0  0  0
    6.6185   16.9794    9.5685 N   0  0  0  0  0  0  0  0  0  0  0  0
    5.9917   18.1829    9.5047 C   0  0  0  0  0  0  0  0  0  0  0  0
    4.9708   18.3987    8.5724 C   0  0  0  0  0  0  0  0  0  0  0  0
  5  4  1  0  0  0  0
  5  6  1  0  0  0  0
  7  8  2  0  0  0  0
  7 11  1  0  0  0  0
  8  9  1  0  0  0  0
  9 10  2  0  0  0  0
  9  6  1  0  0  0  0
 10  3  1  0  0  0  0
 11 12  1  0  0  0  0
 11 10  1  0  0  0  0
 12 18  1  0  0  0  0
 13  2  1  0  0  0  0
 13 14  2  0  0  0  0
 15 14  1  0  0  0  0
 15  1  1  0  0  0  0
 16 15  2  0  0  0  0
 17 18  2  0  0  0  0
 17 16  1  0  0  0  0
 18 13  1  0  0  0  0
M  END
>  <CHROM.1>
-67.52253328,61.16628055,81.35275435,-127.99247081,5.65577848,20.31322995
8.55576540,-1.68892413,-1.10829137,-0.06469821

>  <Name>
lig.pdb

>  <RI>
0

>  <Rbt.Current_Directory>
/home/itssahil/PROJECTS/Mol_Feturizer/New_Systems/rnas/4nyg

>  <Rbt.Executable>
rbdock ($Id: //depot/dev/client3/rdock/2013.1/src/exe/rbdock.cxx#4 $)

>  <Rbt.Library>
libRbt.so (2013.1, Build901 2013/11/27)

>  <Rbt.Parameter_File>
/export/apps/rDock/src/rDock_2013.1_src/data/scripts/dock_solv.prm

>  <Rbt.Receptor>
prm/blind_docking_80.prm

>  <SCORE>
-14.2265

>  <SCORE.INTER>
-13.9142

>  <SCORE.INTER.CONST>
1

>  <SCORE.INTER.POLAR>
0

>  <SCORE.INTER.ROT>
4

>  <SCORE.INTER.SOLV>
11.2454

>  <SCORE.INTER.VDW>
-19.2913

>  <SCORE.INTER.norm>
-0.773011

>  <SCORE.INTRA>
-0.312272

>  <SCORE.INTRA.DIHEDRAL>
0.192291

>  <SCORE.INTRA.DIHEDRAL.0>
3.20029

>  <SCORE.INTRA.POLAR>
0

>  <SCORE.INTRA.POLAR.0>
0

>  <SCORE.INTRA.REPUL>
0

>  <SCORE.INTRA.REPUL.0>
0

>  <SCORE.INTRA.SOLV>
0.486674

>  <SCORE.INTRA.SOLV.lig_0>
-19.3885

>  <SCORE.INTRA.VDW>
-0.651754

>  <SCORE.INTRA.VDW.0>
-1.12705

>  <SCORE.INTRA.norm>
-0.0173484

>  <SCORE.RESTR>
0

>  <SCORE.RESTR.CAVITY>
0

>  <SCORE.RESTR.norm>
0

>  <SCORE.SYSTEM>
0

>  <SCORE.SYSTEM.CONST>
0

>  <SCORE.SYSTEM.DIHEDRAL>
0

>  <SCORE.SYSTEM.SOLV>
0

>  <SCORE.SYSTEM.norm>
0

>  <SCORE.heavy>
18

>  <SCORE.norm>
-0.79036

>  <RMSD>
15.462

$$$$
lig.pdb
 OpenBabel11021811503D
libRbt.so/2013.1/901 2013/11/27
 18 19  0  0  0  0  0  0  0  0999 V2000
    6.7968   14.0186    8.7665 C   0  0  0  0  0  0  0  0  0  0  0  0
    7.8021   18.5564   10.1556 N   0  0  0  0  0  0  0  0  0  0  0  0
    2.6818   19.9306    8.2918 C   0  0  0  0  0  0  0  0  0  0  0  0
   -0.6388   20.7485   12.3576 O   0  0  0  0  0  0  0  0  0  0  0  0
    0.7669   20.6348   12.1848 C   0  0  0  0  0  0  0  0  0  0  0  0
    1.1666   21.0757   10.7633 C   0  0  0  0  0  0  0  0  0  0  0  0
    5.2918   20.6533   10.8759 C   0  0  0  0  0  0  0  0  0  0  0  0
    3.9287   21.1842   11.8055 S   0  0  0  0  0  0  0  0  0  0  0  0
    2.6551   20.8539   10.6099 C   0  0  0  0  0  0  0  0  0  0  0  0
    3.3937   20.3573    9.5646 C   0  0  0  0  0  0  0  0  0  0  0  0
    4.7491   20.2665    9.7285 N   0  0  0  0  0  0  0  0  0  0  0  0
    5.6355   19.7153    8.6430 C   0  0  0  0  0  0  0  0  0  0  0  0
    7.0021   17.6919    9.4085 C   0  0  0  0  0  0  0  0  0  0  0  0
    7.2558   16.3476    9.4230 N   0  0  0  0  0  0  0  0  0  0  0  0
    6.5029   15.4991    8.7180 C   0  0  0  0  0  0  0  0  0  0  0  0
    5.4842   15.9466    7.9782 N   0  0  0  0  0  0  0  0  0  0  0  0
    5.1704   17.2668    7.9175 C   0  0  0  0  0  0  0  0  0  0  0  0
    5.9182   18.2041    8.6390 C   0  0  0  0  0  0  0  0  0  0  0  0
  5  4  1  0  0  0  0
  5  6  1  0  0  0  0
  7  8  2  0  0  0  0
  7 11  1  0  0  0  0
  8  9  1  0  0  0  0
  9 10  2  0  0  0  0
  9  6  1  0  0  0  0
 10  3  1  0  0  0  0
 11 12  1  0  0  0  0
 11 10  1  0  0  0  0
 12 18  1  0  0  0  0
 13  2  1  0  0  0  0
 13 14  2  0  0  0  0
 15 14  1  0  0  0  0
 15  1  1  0  0  0  0
 16 15  2  0  0  0  0
 17 18  2  0  0  0  0
 17 16  1  0  0  0  0
 18 13  1  0  0  0  0
M  END
>  <CHROM.1>
-176.59106160,-41.12447227,88.78729445,-86.94111299,4.42499013,19.00379169
9.93599327,0.82036926,-0.06346896,-2.68661206

>  <Name>
lig.pdb

>  <RI>
0

>  <Rbt.Current_Directory>
/home/itssahil/PROJECTS/Mol_Feturizer/New_Systems/rnas/4nyg

>  <Rbt.Executable>
rbdock ($Id: //depot/dev/client3/rdock/2013.1/src/exe/rbdock.cxx#4 $)

>  <Rbt.Library>
libRbt.so (2013.1, Build901 2013/11/27)

>  <Rbt.Parameter_File>
/export/apps/rDock/src/rDock_2013.1_src/data/scripts/dock_solv.prm

>  <Rbt.Receptor>
prm/blind_docking_80.prm

>  <SCORE>
-15.7715

>  <SCORE.INTER>
-15.8878

>  <SCORE.INTER.CONST>
1

>  <SCORE.INTER.POLAR>
0

>  <SCORE.INTER.ROT>
4

>  <SCORE.INTER.SOLV>
16.1357

>  <SCORE.INTER.VDW>
-22.2371

>  <SCORE.INTER.norm>
-0.882654

>  <SCORE.INTRA>
0.098756

>  <SCORE.INTRA.DIHEDRAL>
0.625458

>  <SCORE.INTRA.DIHEDRAL.0>
3.20029

>  <SCORE.INTRA.POLAR>
0

>  <SCORE.INTRA.POLAR.0>
0

>  <SCORE.INTRA.REPUL>
0

>  <SCORE.INTRA.REPUL.0>
0

>  <SCORE.INTRA.SOLV>
0.453588

>  <SCORE.INTRA.SOLV.lig_0>
-19.3885

>  <SCORE.INTRA.VDW>
-0.440767

>  <SCORE.INTRA.VDW.0>
-1.12705

>  <SCORE.INTRA.norm>
0.00548645

>  <SCORE.RESTR>
0.0174877

>  <SCORE.RESTR.CAVITY>
0.0174877

>  <SCORE.RESTR.norm>
0.00097154

>  <SCORE.SYSTEM>
0

>  <SCORE.SYSTEM.CONST>
0

>  <SCORE.SYSTEM.DIHEDRAL>
0

>  <SCORE.SYSTEM.SOLV>
0

>  <SCORE.SYSTEM.norm>
0

>  <SCORE.heavy>
18

>  <SCORE.norm>
-0.876196

>  <RMSD>
15.468

$$$$
lig.pdb
 OpenBabel11021811503D
libRbt.so/2013.1/901 2013/11/27
 18 19  0  0  0  0  0  0  0  0999 V2000
    6.7492   14.5661    7.8298 C   0  0  0  0  0  0  0  0  0  0  0  0
    3.5116   18.1594    7.4581 N   0  0  0  0  0  0  0  0  0  0  0  0
    5.3247   22.4451   10.6650 C   0  0  0  0  0  0  0  0  0  0  0  0
    8.2356   24.0064    9.0883 O   0  0  0  0  0  0  0  0  0  0  0  0
    7.4509   24.8182    8.2256 C   0  0  0  0  0  0  0  0  0  0  0  0
    5.9530   24.6350    8.5378 C   0  0  0  0  0  0  0  0  0  0  0  0
    5.0646   20.7675    7.3288 C   0  0  0  0  0  0  0  0  0  0  0  0
    5.4656   22.3457    6.7353 S   0  0  0  0  0  0  0  0  0  0  0  0
    5.6032   23.1830    8.2975 C   0  0  0  0  0  0  0  0  0  0  0  0
    5.3171   22.1638    9.1717 C   0  0  0  0  0  0  0  0  0  0  0  0
    5.0421   20.9311    8.6454 N   0  0  0  0  0  0  0  0  0  0  0  0
    4.7374   19.7506    9.5295 C   0  0  0  0  0  0  0  0  0  0  0  0
    4.6437   17.6401    8.0858 C   0  0  0  0  0  0  0  0  0  0  0  0
    5.1357   16.4225    7.7020 N   0  0  0  0  0  0  0  0  0  0  0  0
    6.2195   15.9047    8.2860 C   0  0  0  0  0  0  0  0  0  0  0  0
    6.8470   16.5653    9.2633 N   0  0  0  0  0  0  0  0  0  0  0  0
    6.4186   17.7799    9.6949 C   0  0  0  0  0  0  0  0  0  0  0  0
    5.2925   18.3774    9.1178 C   0  0  0  0  0  0  0  0  0  0  0  0
  5  4  1  0  0  0  0
  5  6  1  0  0  0  0
  7  8  2  0  0  0  0
  7 11  1  0  0  0  0
  8  9  1  0  0  0  0
  9 10  2  0  0  0  0
  9  6  1  0  0  0  0
 10  3  1  0  0  0  0
 11 12  1  0  0  0  0
 11 10  1  0  0  0  0
 12 18  1  0  0  0  0
 13  2  1  0  0  0  0
 13 14  2  0  0  0  0
 15 14  1  0  0  0  0
 15  1  1  0  0  0  0
 16 15  2  0  0  0  0
 17 18  2  0  0  0  0
 17 16  1  0  0  0  0
 18 13  1  0  0  0  0
M  END
>  <CHROM.1>
-61.19100786,-71.95538430,37.36642526,-78.09847694,5.73837295,20.23176083
8.42074298,-1.67402975,-0.71639089,-0.05247257

>  <Name>
lig.pdb

>  <RI>
0

>  <Rbt.Current_Directory>
/home/itssahil/PROJECTS/Mol_Feturizer/New_Systems/rnas/4nyg

>  <Rbt.Executable>
rbdock ($Id: //depot/dev/client3/rdock/2013.1/src/exe/rbdock.cxx#4 $)

>  <Rbt.Library>
libRbt.so (2013.1, Build901 2013/11/27)

>  <Rbt.Parameter_File>
/export/apps/rDock/src/rDock_2013.1_src/data/scripts/dock_solv.prm

>  <Rbt.Receptor>
prm/blind_docking_60.prm

>  <SCORE>
-14.0974

>  <SCORE.INTER>
-14.2059

>  <SCORE.INTER.CONST>
1

>  <SCORE.INTER.POLAR>
0

>  <SCORE.INTER.ROT>
4

>  <SCORE.INTER.SOLV>
12.5915

>  <SCORE.INTER.VDW>
-19.9344

>  <SCORE.INTER.norm>
-0.789219

>  <SCORE.INTRA>
0.108505

>  <SCORE.INTRA.DIHEDRAL>
0.128053

>  <SCORE.INTRA.DIHEDRAL.0>
3.20029

>  <SCORE.INTRA.POLAR>
0

>  <SCORE.INTRA.POLAR.0>
0

>  <SCORE.INTRA.REPUL>
0

>  <SCORE.INTRA.REPUL.0>
0

>  <SCORE.INTRA.SOLV>
1.15144

>  <SCORE.INTRA.SOLV.lig_0>
-19.3885

>  <SCORE.INTRA.VDW>
-0.531244

>  <SCORE.INTRA.VDW.0>
-1.12705

>  <SCORE.INTRA.norm>
0.00602804

>  <SCORE.RESTR>
0

>  <SCORE.RESTR.CAVITY>
0

>  <SCORE.RESTR.norm>
0

>  <SCORE.SYSTEM>
0

>  <SCORE.SYSTEM.CONST>
0

>  <SCORE.SYSTEM.DIHEDRAL>
0

>  <SCORE.SYSTEM.SOLV>
0

>  <SCORE.SYSTEM.norm>
0

>  <SCORE.heavy>
18

>  <SCORE.norm>
-0.783191

>  <RMSD>
15.471

$$$$
lig.pdb
 OpenBabel11021811503D
libRbt.so/2013.1/901 2013/11/27
 18 19  0  0  0  0  0  0  0  0999 V2000
    6.3127   11.4521   10.2158 C   0  0  0  0  0  0  0  0  0  0  0  0
    6.7634   14.4175    6.4032 N   0  0  0  0  0  0  0  0  0  0  0  0
    4.1377   18.4290    8.0007 C   0  0  0  0  0  0  0  0  0  0  0  0
    2.7049   21.6204   11.8281 O   0  0  0  0  0  0  0  0  0  0  0  0
    3.7788   20.7372   11.5354 C   0  0  0  0  0  0  0  0  0  0  0  0
    4.1194   20.7918   10.0334 C   0  0  0  0  0  0  0  0  0  0  0  0
    7.4551   18.3441    9.7327 C   0  0  0  0  0  0  0  0  0  0  0  0
    6.8218   19.7246   10.5677 S   0  0  0  0  0  0  0  0  0  0  0  0
    5.2329   19.8014    9.7738 C   0  0  0  0  0  0  0  0  0  0  0  0
    5.3179   18.7414    8.9054 C   0  0  0  0  0  0  0  0  0  0  0  0
    6.4739   18.0095    8.9044 N   0  0  0  0  0  0  0  0  0  0  0  0
    6.6475   16.8180    7.9998 C   0  0  0  0  0  0  0  0  0  0  0  0
    6.6082   14.2689    7.7814 C   0  0  0  0  0  0  0  0  0  0  0  0
    6.5281   13.0162    8.3254 N   0  0  0  0  0  0  0  0  0  0  0  0
    6.3817   12.8474    9.6422 C   0  0  0  0  0  0  0  0  0  0  0  0
    6.3067   13.9021   10.4592 N   0  0  0  0  0  0  0  0  0  0  0  0
    6.3820   15.1753    9.9918 C   0  0  0  0  0  0  0  0  0  0  0  0
    6.5419   15.4165    8.6227 C   0  0  0  0  0  0  0  0  0  0  0  0
  5  4  1  0  0  0  0
  5  6  1  0  0  0  0
  7  8  2  0  0  0  0
  7 11  1  0  0  0  0
  8  9  1  0  0  0  0
  9 10  2  0  0  0  0
  9  6  1  0  0  0  0
 10  3  1  0  0  0  0
 11 12  1  0  0  0  0
 11 10  1  0  0  0  0
 12 18  1  0  0  0  0
 13  2  1  0  0  0  0
 13 14  2  0  0  0  0
 15 14  1  0  0  0  0
 15  1  1  0  0  0  0
 16 15  2  0  0  0  0
 17 18  2  0  0  0  0
 17 16  1  0  0  0  0
 18 13  1  0  0  0  0
M  END
>  <CHROM.1>
-178.11811802,-55.61307040,74.77898004,175.65998139,5.83154863,17.10593327
9.48497413,0.96119176,-1.10249730,2.82269571

>  <Name>
lig.pdb

>  <RI>
0

>  <Rbt.Current_Directory>
/home/itssahil/PROJECTS/Mol_Feturizer/New_Systems/rnas/4nyg

>  <Rbt.Executable>
rbdock ($Id: //depot/dev/client3/rdock/2013.1/src/exe/rbdock.cxx#4 $)

>  <Rbt.Library>
libRbt.so (2013.1, Build901 2013/11/27)

>  <Rbt.Parameter_File>
/export/apps/rDock/src/rDock_2013.1_src/data/scripts/dock_solv.prm

>  <Rbt.Receptor>
prm/blind_docking_40.prm

>  <SCORE>
-16.6712

>  <SCORE.INTER>
-16.4888

>  <SCORE.INTER.CONST>
1

>  <SCORE.INTER.POLAR>
0

>  <SCORE.INTER.ROT>
4

>  <SCORE.INTER.SOLV>
14.7751

>  <SCORE.INTER.VDW>
-22.1842

>  <SCORE.INTER.norm>
-0.916042

>  <SCORE.INTRA>
-0.333957

>  <SCORE.INTRA.DIHEDRAL>
0.0130666

>  <SCORE.INTRA.DIHEDRAL.0>
3.20029

>  <SCORE.INTRA.POLAR>
0

>  <SCORE.INTRA.POLAR.0>
0

>  <SCORE.INTRA.REPUL>
0

>  <SCORE.INTRA.REPUL.0>
0

>  <SCORE.INTRA.SOLV>
-0.0308736

>  <SCORE.INTRA.SOLV.lig_0>
-19.3885

>  <SCORE.INTRA.VDW>
-0.325053

>  <SCORE.INTRA.VDW.0>
-1.12705

>  <SCORE.INTRA.norm>
-0.0185532

>  <SCORE.RESTR>
0.151549

>  <SCORE.RESTR.CAVITY>
0.151549

>  <SCORE.RESTR.norm>
0.00841937

>  <SCORE.SYSTEM>
0

>  <SCORE.SYSTEM.CONST>
0

>  <SCORE.SYSTEM.DIHEDRAL>
0

>  <SCORE.SYSTEM.SOLV>
0

>  <SCORE.SYSTEM.norm>
0

>  <SCORE.heavy>
18

>  <SCORE.norm>
-0.926176

>  <RMSD>
15.553

$$$$
lig.pdb
 OpenBabel11021811503D
libRbt.so/2013.1/901 2013/11/27
 18 19  0  0  0  0  0  0  0  0999 V2000
    6.5172   15.4857    8.1020 C   0  0  0  0  0  0  0  0  0  0  0  0
    3.1532   18.8942    7.3285 N   0  0  0  0  0  0  0  0  0  0  0  0
    6.5767   21.5174   10.4834 C   0  0  0  0  0  0  0  0  0  0  0  0
    6.5589   26.2787    8.2591 O   0  0  0  0  0  0  0  0  0  0  0  0
    7.0528   25.6159    9.4149 C   0  0  0  0  0  0  0  0  0  0  0  0
    7.4334   24.1621    9.0737 C   0  0  0  0  0  0  0  0  0  0  0  0
    3.7887   22.4093    8.1503 C   0  0  0  0  0  0  0  0  0  0  0  0
    4.8035   23.7666    7.7873 S   0  0  0  0  0  0  0  0  0  0  0  0
    6.1528   23.3808    8.8787 C   0  0  0  0  0  0  0  0  0  0  0  0
    5.7050   22.2176    9.4544 C   0  0  0  0  0  0  0  0  0  0  0  0
    4.4840   21.7411    9.0618 N   0  0  0  0  0  0  0  0  0  0  0  0
    3.9227   20.4622    9.6250 C   0  0  0  0  0  0  0  0  0  0  0  0
    4.2011   18.4155    8.1147 C   0  0  0  0  0  0  0  0  0  0  0  0
    4.8272   17.2473    7.7753 N   0  0  0  0  0  0  0  0  0  0  0  0
    5.8344   16.7693    8.5106 C   0  0  0  0  0  0  0  0  0  0  0  0
    6.2518   17.4221    9.5992 N   0  0  0  0  0  0  0  0  0  0  0  0
    5.6808   18.5890    9.9959 C   0  0  0  0  0  0  0  0  0  0  0  0
    4.6256   19.1437    9.2632 C   0  0  0  0  0  0  0  0  0  0  0  0
  5  4  1  0  0  0  0
  5  6  1  0  0  0  0
  7  8  2  0  0  0  0
  7 11  1  0  0  0  0
  8  9  1  0  0  0  0
  9 10  2  0  0  0  0
  9  6  1  0  0  0  0
 10  3  1  0  0  0  0
 11 12  1  0  0  0  0
 11 10  1  0  0  0  0
 12 18  1  0  0  0  0
 13  2  1  0  0  0  0
 13 14  2  0  0  0  0
 15 14  1  0  0  0  0
 15  1  1  0  0  0  0
 16 15  2  0  0  0  0
 17 18  2  0  0  0  0
 17 16  1  0  0  0  0
 18 13  1  0  0  0  0
M  END
>  <CHROM.1>
-72.78527777,54.02961715,111.31720463,-90.93314031,5.40532633,21.01455808
8.75197000,-1.69134414,-0.50063527,-0.04059942

>  <Name>
lig.pdb

>  <RI>
0

>  <Rbt.Current_Directory>
/home/itssahil/PROJECTS/Mol_Feturizer/New_Systems/rnas/4nyg

>  <Rbt.Executable>
rbdock ($Id: //depot/dev/client3/rdock/2013.1/src/exe/rbdock.cxx#4 $)

>  <Rbt.Library>
libRbt.so (2013.1, Build901 2013/11/27)

>  <Rbt.Parameter_File>
/export/apps/rDock/src/rDock_2013.1_src/data/scripts/dock_solv.prm

>  <Rbt.Receptor>
prm/blind_docking_100.prm

>  <SCORE>
-13.3406

>  <SCORE.INTER>
-14.0013

>  <SCORE.INTER.CONST>
1

>  <SCORE.INTER.POLAR>
0

>  <SCORE.INTER.ROT>
4

>  <SCORE.INTER.SOLV>
12.2531

>  <SCORE.INTER.VDW>
-19.6852

>  <SCORE.INTER.norm>
-0.77785

>  <SCORE.INTRA>
0.660711

>  <SCORE.INTRA.DIHEDRAL>
0.612399

>  <SCORE.INTRA.DIHEDRAL.0>
3.20029

>  <SCORE.INTRA.POLAR>
0

>  <SCORE.INTRA.POLAR.0>
0

>  <SCORE.INTRA.REPUL>
0

>  <SCORE.INTRA.REPUL.0>
0

>  <SCORE.INTRA.SOLV>
0.854063

>  <SCORE.INTRA.SOLV.lig_0>
-19.3885

>  <SCORE.INTRA.VDW>
-0.0725197

>  <SCORE.INTRA.VDW.0>
-1.12705

>  <SCORE.INTRA.norm>
0.0367062

>  <SCORE.RESTR>
0

>  <SCORE.RESTR.CAVITY>
0

>  <SCORE.RESTR.norm>
0

>  <SCORE.SYSTEM>
0

>  <SCORE.SYSTEM.CONST>
0

>  <SCORE.SYSTEM.DIHEDRAL>
0

>  <SCORE.SYSTEM.SOLV>
0

>  <SCORE.SYSTEM.norm>
0

>  <SCORE.heavy>
18

>  <SCORE.norm>
-0.741144

>  <RMSD>
15.570

$$$$
lig.pdb
 OpenBabel11021811503D
libRbt.so/2013.1/901 2013/11/27
 18 19  0  0  0  0  0  0  0  0999 V2000
    8.0329   24.6542   10.6002 C   0  0  0  0  0  0  0  0  0  0  0  0
    6.1385   20.1921   10.7814 N   0  0  0  0  0  0  0  0  0  0  0  0
    4.1864   21.6746    6.5800 C   0  0  0  0  0  0  0  0  0  0  0  0
    3.3086   17.3158    4.3169 O   0  0  0  0  0  0  0  0  0  0  0  0
    3.5037   18.6803    3.9717 C   0  0  0  0  0  0  0  0  0  0  0  0
    4.7352   19.2450    4.7062 C   0  0  0  0  0  0  0  0  0  0  0  0
    3.9959   18.6237    8.7405 C   0  0  0  0  0  0  0  0  0  0  0  0
    4.3379   17.8021    7.2533 S   0  0  0  0  0  0  0  0  0  0  0  0
    4.4410   19.2231    6.1899 C   0  0  0  0  0  0  0  0  0  0  0  0
    4.1921   20.2393    7.0789 C   0  0  0  0  0  0  0  0  0  0  0  0
    3.9649   19.9018    8.3852 N   0  0  0  0  0  0  0  0  0  0  0  0
    3.7035   20.9517    9.4328 C   0  0  0  0  0  0  0  0  0  0  0  0
    6.0004   21.5273   10.4024 C   0  0  0  0  0  0  0  0  0  0  0  0
    7.0064   22.4164   10.6657 N   0  0  0  0  0  0  0  0  0  0  0  0
    6.8991   23.6995   10.3110 C   0  0  0  0  0  0  0  0  0  0  0  0
    5.8020   24.1449    9.6919 N   0  0  0  0  0  0  0  0  0  0  0  0
    4.7642   23.3204    9.3947 C   0  0  0  0  0  0  0  0  0  0  0  0
    4.8201   21.9642    9.7352 C   0  0  0  0  0  0  0  0  0  0  0  0
  5  4  1  0  0  0  0
  5  6  1  0  0  0  0
  7  8  2  0  0  0  0
  7 11  1  0  0  0  0
  8  9  1  0  0  0  0
  9 10  2  0  0  0  0
  9  6  1  0  0  0  0
 10  3  1  0  0  0  0
 11 12  1  0  0  0  0
 11 10  1  0  0  0  0
 12 18  1  0  0  0  0
 13  2  1  0  0  0  0
 13 14  2  0  0  0  0
 15 14  1  0  0  0  0
 15  1  1  0  0  0  0
 16 15  2  0  0  0  0
 17 18  2  0  0  0  0
 17 16  1  0  0  0  0
 18 13  1  0  0  0  0
M  END
>  <CHROM.1>
-64.46863789,71.36597875,115.78812349,-69.98875409,4.93550059,20.62680902
8.11476841,-0.05599702,-1.20780405,-0.85842023

>  <Name>
lig.pdb

>  <RI>
0

>  <Rbt.Current_Directory>
/home/itssahil/PROJECTS/Mol_Feturizer/New_Systems/rnas/4nyg

>  <Rbt.Executable>
rbdock ($Id: //depot/dev/client3/rdock/2013.1/src/exe/rbdock.cxx#4 $)

>  <Rbt.Library>
libRbt.so (2013.1, Build901 2013/11/27)

>  <Rbt.Parameter_File>
/export/apps/rDock/src/rDock_2013.1_src/data/scripts/dock_solv.prm

>  <Rbt.Receptor>
prm/blind_docking_80.prm

>  <SCORE>
-7.32254

>  <SCORE.INTER>
-7.21785

>  <SCORE.INTER.CONST>
1

>  <SCORE.INTER.POLAR>
0

>  <SCORE.INTER.ROT>
4

>  <SCORE.INTER.SOLV>
10.2361

>  <SCORE.INTER.VDW>
-14.4906

>  <SCORE.INTER.norm>
-0.400992

>  <SCORE.INTRA>
-0.104689

>  <SCORE.INTRA.DIHEDRAL>
0.232663

>  <SCORE.INTRA.DIHEDRAL.0>
3.20029

>  <SCORE.INTRA.POLAR>
0

>  <SCORE.INTRA.POLAR.0>
0

>  <SCORE.INTRA.REPUL>
0

>  <SCORE.INTRA.REPUL.0>
0

>  <SCORE.INTRA.SOLV>
1.11449

>  <SCORE.INTRA.SOLV.lig_0>
-19.3885

>  <SCORE.INTRA.VDW>
-0.778263

>  <SCORE.INTRA.VDW.0>
-1.12705

>  <SCORE.INTRA.norm>
-0.00581603

>  <SCORE.RESTR>
0

>  <SCORE.RESTR.CAVITY>
0

>  <SCORE.RESTR.norm>
0

>  <SCORE.SYSTEM>
0

>  <SCORE.SYSTEM.CONST>
0

>  <SCORE.SYSTEM.DIHEDRAL>
0

>  <SCORE.SYSTEM.SOLV>
0

>  <SCORE.SYSTEM.norm>
0

>  <SCORE.heavy>
18

>  <SCORE.norm>
-0.406808

>  <RMSD>
15.585

$$$$
lig.pdb
 OpenBabel11021811503D
libRbt.so/2013.1/901 2013/11/27
 18 19  0  0  0  0  0  0  0  0999 V2000
    6.1990   22.9356    7.7538 C   0  0  0  0  0  0  0  0  0  0  0  0
    5.5222   20.2461   11.7339 N   0  0  0  0  0  0  0  0  0  0  0  0
    0.7477   20.7031   14.1977 C   0  0  0  0  0  0  0  0  0  0  0  0
   -3.0352   22.5987   12.8158 O   0  0  0  0  0  0  0  0  0  0  0  0
   -2.5306   21.7405   13.8296 C   0  0  0  0  0  0  0  0  0  0  0  0
   -2.1979   20.3564   13.2392 C   0  0  0  0  0  0  0  0  0  0  0  0
    0.8551   20.7336   10.4562 C   0  0  0  0  0  0  0  0  0  0  0  0
   -0.8577   20.5189   10.6115 S   0  0  0  0  0  0  0  0  0  0  0  0
   -0.9569   20.5018   12.3864 C   0  0  0  0  0  0  0  0  0  0  0  0
    0.3635   20.6588   12.7283 C   0  0  0  0  0  0  0  0  0  0  0  0
    1.2749   20.7741   11.7143 N   0  0  0  0  0  0  0  0  0  0  0  0
    2.7414   20.9694   11.9958 C   0  0  0  0  0  0  0  0  0  0  0  0
    4.9925   21.1252   10.7894 C   0  0  0  0  0  0  0  0  0  0  0  0
    5.7868   21.6001    9.7817 N   0  0  0  0  0  0  0  0  0  0  0  0
    5.3026   22.4410    8.8640 C   0  0  0  0  0  0  0  0  0  0  0  0
    4.0285   22.8405    8.9120 N   0  0  0  0  0  0  0  0  0  0  0  0
    3.1798   22.4086    9.8807 C   0  0  0  0  0  0  0  0  0  0  0  0
    3.6264   21.5217   10.8667 C   0  0  0  0  0  0  0  0  0  0  0  0
  5  4  1  0  0  0  0
  5  6  1  0  0  0  0
  7  8  2  0  0  0  0
  7 11  1  0  0  0  0
  8  9  1  0  0  0  0
  9 10  2  0  0  0  0
  9  6  1  0  0  0  0
 10  3  1  0  0  0  0
 11 12  1  0  0  0  0
 11 10  1  0  0  0  0
 12 18  1  0  0  0  0
 13  2  1  0  0  0  0
 13 14  2  0  0  0  0
 15 14  1  0  0  0  0
 15  1  1  0  0  0  0
 16 15  2  0  0  0  0
 17 18  2  0  0  0  0
 17 16  1  0  0  0  0
 18 13  1  0  0  0  0
M  END
>  <CHROM.1>
72.06834861,-105.28871142,17.75305722,-148.66217529,1.69942914,21.32802309
11.23209047,0.44785317,0.08359483,-1.13707341

>  <Name>
lig.pdb

>  <RI>
0

>  <Rbt.Current_Directory>
/home/itssahil/PROJECTS/Mol_Feturizer/New_Systems/rnas/4nyg

>  <Rbt.Executable>
rbdock ($Id: //depot/dev/client3/rdock/2013.1/src/exe/rbdock.cxx#4 $)

>  <Rbt.Library>
libRbt.so (2013.1, Build901 2013/11/27)

>  <Rbt.Parameter_File>
/export/apps/rDock/src/rDock_2013.1_src/data/scripts/dock_solv.prm

>  <Rbt.Receptor>
prm/blind_docking_100.prm

>  <SCORE>
-11.4195

>  <SCORE.INTER>
-13.6999

>  <SCORE.INTER.CONST>
1

>  <SCORE.INTER.POLAR>
0

>  <SCORE.INTER.ROT>
4

>  <SCORE.INTER.SOLV>
20.0198

>  <SCORE.INTER.VDW>
-22.0732

>  <SCORE.INTER.norm>
-0.761105

>  <SCORE.INTRA>
2.19091

>  <SCORE.INTRA.DIHEDRAL>
2.71859

>  <SCORE.INTRA.DIHEDRAL.0>
3.20029

>  <SCORE.INTRA.POLAR>
0

>  <SCORE.INTRA.POLAR.0>
0

>  <SCORE.INTRA.REPUL>
0

>  <SCORE.INTRA.REPUL.0>
0

>  <SCORE.INTRA.SOLV>
0.461275

>  <SCORE.INTRA.SOLV.lig_0>
-19.3885

>  <SCORE.INTRA.VDW>
0.600978

>  <SCORE.INTRA.VDW.0>
-1.12705

>  <SCORE.INTRA.norm>
0.121717

>  <SCORE.RESTR>
0.0894964

>  <SCORE.RESTR.CAVITY>
0.0894964

>  <SCORE.RESTR.norm>
0.00497202

>  <SCORE.SYSTEM>
0

>  <SCORE.SYSTEM.CONST>
0

>  <SCORE.SYSTEM.DIHEDRAL>
0

>  <SCORE.SYSTEM.SOLV>
0

>  <SCORE.SYSTEM.norm>
0

>  <SCORE.heavy>
18

>  <SCORE.norm>
-0.634416

>  <RMSD>
15.606

$$$$
lig.pdb
 OpenBabel11021811503D
libRbt.so/2013.1/901 2013/11/27
 18 19  0  0  0  0  0  0  0  0999 V2000
  -21.6801   10.5560   -0.8791 C   0  0  0  0  0  0  0  0  0  0  0  0
  -23.7409   14.5979   -2.5963 N   0  0  0  0  0  0  0  0  0  0  0  0
  -21.4326   15.8557   -6.7783 C   0  0  0  0  0  0  0  0  0  0  0  0
  -17.4856   15.5160   -9.9928 O   0  0  0  0  0  0  0  0  0  0  0  0
  -17.7327   15.3921   -8.5990 C   0  0  0  0  0  0  0  0  0  0  0  0
  -18.6976   16.4977   -8.1285 C   0  0  0  0  0  0  0  0  0  0  0  0
  -18.9104   15.9974   -4.0160 C   0  0  0  0  0  0  0  0  0  0  0  0
  -17.8124   16.3304   -5.3150 S   0  0  0  0  0  0  0  0  0  0  0  0
  -18.9758   16.2760   -6.6582 C   0  0  0  0  0  0  0  0  0  0  0  0
  -20.1411   15.9931   -5.9896 C   0  0  0  0  0  0  0  0  0  0  0  0
  -20.0779   15.8536   -4.6300 N   0  0  0  0  0  0  0  0  0  0  0  0
  -21.3092   15.5631   -3.8129 C   0  0  0  0  0  0  0  0  0  0  0  0
  -22.5949   13.8150   -2.4571 C   0  0  0  0  0  0  0  0  0  0  0  0
  -22.6584   12.6325   -1.7718 N   0  0  0  0  0  0  0  0  0  0  0  0
  -21.5757   11.8640   -1.6266 C   0  0  0  0  0  0  0  0  0  0  0  0
  -20.4025   12.2362   -2.1465 N   0  0  0  0  0  0  0  0  0  0  0  0
  -20.2639   13.3947   -2.8420 C   0  0  0  0  0  0  0  0  0  0  0  0
  -21.3631   14.2391   -3.0334 C   0  0  0  0  0  0  0  0  0  0  0  0
  5  4  1  0  0  0  0
  5  6  1  0  0  0  0
  7  8  2  0  0  0  0
  7 11  1  0  0  0  0
  8  9  1  0  0  0  0
  9 10  2  0  0  0  0
  9  6  1  0  0  0  0
 10  3  1  0  0  0  0
 11 12  1  0  0  0  0
 11 10  1  0  0  0  0
 12 18  1  0  0  0  0
 13  2  1  0  0  0  0
 13 14  2  0  0  0  0
 15 14  1  0  0  0  0
 15  1  1  0  0  0  0
 16 15  2  0  0  0  0
 17 18  2  0  0  0  0
 17 16  1  0  0  0  0
 18 13  1  0  0  0  0
M  END
>  <CHROM.1>
177.28974492,62.87147980,-63.76911084,-168.35648203,-20.17610798,14.71072927
-4.63656145,-2.11767771,0.41830168,-0.79699003

>  <Name>
lig.pdb

>  <RI>
0

>  <Rbt.Current_Directory>
/home/itssahil/PROJECTS/Mol_Feturizer/New_Systems/rnas/4nyg

>  <Rbt.Executable>
rbdock ($Id: //depot/dev/client3/rdock/2013.1/src/exe/rbdock.cxx#4 $)

>  <Rbt.Library>
libRbt.so (2013.1, Build901 2013/11/27)

>  <Rbt.Parameter_File>
/export/apps/rDock/src/rDock_2013.1_src/data/scripts/dock_solv.prm

>  <Rbt.Receptor>
prm/blind_docking_40.prm

>  <SCORE>
-9.46457

>  <SCORE.INTER>
-9.23754

>  <SCORE.INTER.CONST>
1

>  <SCORE.INTER.POLAR>
0

>  <SCORE.INTER.ROT>
4

>  <SCORE.INTER.SOLV>
8.55364

>  <SCORE.INTER.VDW>
-15.2762

>  <SCORE.INTER.norm>
-0.513197

>  <SCORE.INTRA>
-0.227032

>  <SCORE.INTRA.DIHEDRAL>
-0.050614

>  <SCORE.INTRA.DIHEDRAL.0>
3.20029

>  <SCORE.INTRA.POLAR>
0

>  <SCORE.INTRA.POLAR.0>
0

>  <SCORE.INTRA.REPUL>
0

>  <SCORE.INTRA.REPUL.0>
0

>  <SCORE.INTRA.SOLV>
-0.0127474

>  <SCORE.INTRA.SOLV.lig_0>
-19.3885

>  <SCORE.INTRA.VDW>
-0.195351

>  <SCORE.INTRA.VDW.0>
-1.12705

>  <SCORE.INTRA.norm>
-0.0126129

>  <SCORE.RESTR>
0

>  <SCORE.RESTR.CAVITY>
0

>  <SCORE.RESTR.norm>
0

>  <SCORE.SYSTEM>
0

>  <SCORE.SYSTEM.CONST>
0

>  <SCORE.SYSTEM.DIHEDRAL>
0

>  <SCORE.SYSTEM.SOLV>
0

>  <SCORE.SYSTEM.norm>
0

>  <SCORE.heavy>
18

>  <SCORE.norm>
-0.525809

>  <RMSD>
15.677

$$$$
lig.pdb
 OpenBabel11021811503D
libRbt.so/2013.1/901 2013/11/27
 18 19  0  0  0  0  0  0  0  0999 V2000
    6.7237   15.4688    9.2502 C   0  0  0  0  0  0  0  0  0  0  0  0
    3.6373   18.0471    6.5376 N   0  0  0  0  0  0  0  0  0  0  0  0
    3.7889   22.3787    9.7335 C   0  0  0  0  0  0  0  0  0  0  0  0
    8.0199   24.8393   10.4584 O   0  0  0  0  0  0  0  0  0  0  0  0
    6.7731   24.7099   11.1275 C   0  0  0  0  0  0  0  0  0  0  0  0
    5.6121   24.8759   10.1279 C   0  0  0  0  0  0  0  0  0  0  0  0
    6.4291   22.1742    7.0879 C   0  0  0  0  0  0  0  0  0  0  0  0
    6.9733   23.6537    7.8082 S   0  0  0  0  0  0  0  0  0  0  0  0
    5.7411   23.7902    9.0825 C   0  0  0  0  0  0  0  0  0  0  0  0
    4.9874   22.6674    8.8451 C   0  0  0  0  0  0  0  0  0  0  0  0
    5.3636   21.8543    7.8110 N   0  0  0  0  0  0  0  0  0  0  0  0
    4.6078   20.5916    7.4907 C   0  0  0  0  0  0  0  0  0  0  0  0
    4.6650   18.0335    7.4804 C   0  0  0  0  0  0  0  0  0  0  0  0
    5.1793   16.8402    7.9086 N   0  0  0  0  0  0  0  0  0  0  0  0
    6.1650   16.8006    8.8089 C   0  0  0  0  0  0  0  0  0  0  0  0
    6.6698   17.9294    9.3152 N   0  0  0  0  0  0  0  0  0  0  0  0
    6.2121   19.1507    8.9355 C   0  0  0  0  0  0  0  0  0  0  0  0
    5.1852   19.2575    7.9910 C   0  0  0  0  0  0  0  0  0  0  0  0
  5  4  1  0  0  0  0
  5  6  1  0  0  0  0
  7  8  2  0  0  0  0
  7 11  1  0  0  0  0
  8  9  1  0  0  0  0
  9 10  2  0  0  0  0
  9  6  1  0  0  0  0
 10  3  1  0  0  0  0
 11 12  1  0  0  0  0
 11 10  1  0  0  0  0
 12 18  1  0  0  0  0
 13  2  1  0  0  0  0
 13 14  2  0  0  0  0
 15 14  1  0  0  0  0
 15  1  1  0  0  0  0
 16 15  2  0  0  0  0
 17 18  2  0  0  0  0
 17 16  1  0  0  0  0
 18 13  1  0  0  0  0
M  END
>  <CHROM.1>
60.41079416,-70.45171764,79.15390075,-166.94649257,5.81759396,20.96887295
8.63069914,-1.75842195,-0.78601781,0.04094644

>  <Name>
lig.pdb

>  <RI>
0

>  <Rbt.Current_Directory>
/home/itssahil/PROJECTS/Mol_Feturizer/New_Systems/rnas/4nyg

>  <Rbt.Executable>
rbdock ($Id: //depot/dev/client3/rdock/2013.1/src/exe/rbdock.cxx#4 $)

>  <Rbt.Library>
libRbt.so (2013.1, Build901 2013/11/27)

>  <Rbt.Parameter_File>
/export/apps/rDock/src/rDock_2013.1_src/data/scripts/dock_solv.prm

>  <Rbt.Receptor>
prm/blind_docking_40.prm

>  <SCORE>
-13.0468

>  <SCORE.INTER>
-12.7423

>  <SCORE.INTER.CONST>
1

>  <SCORE.INTER.POLAR>
0

>  <SCORE.INTER.ROT>
4

>  <SCORE.INTER.SOLV>
10.0895

>  <SCORE.INTER.VDW>
-18.1247

>  <SCORE.INTER.norm>
-0.707908

>  <SCORE.INTRA>
-0.304447

>  <SCORE.INTRA.DIHEDRAL>
0.178935

>  <SCORE.INTRA.DIHEDRAL.0>
3.20029

>  <SCORE.INTRA.POLAR>
0

>  <SCORE.INTRA.POLAR.0>
0

>  <SCORE.INTRA.REPUL>
0

>  <SCORE.INTRA.REPUL.0>
0

>  <SCORE.INTRA.SOLV>
0.426548

>  <SCORE.INTRA.SOLV.lig_0>
-19.3885

>  <SCORE.INTRA.VDW>
-0.607189

>  <SCORE.INTRA.VDW.0>
-1.12705

>  <SCORE.INTRA.norm>
-0.0169137

>  <SCORE.RESTR>
0

>  <SCORE.RESTR.CAVITY>
0

>  <SCORE.RESTR.norm>
0

>  <SCORE.SYSTEM>
0

>  <SCORE.SYSTEM.CONST>
0

>  <SCORE.SYSTEM.DIHEDRAL>
0

>  <SCORE.SYSTEM.SOLV>
0

>  <SCORE.SYSTEM.norm>
0

>  <SCORE.heavy>
18

>  <SCORE.norm>
-0.724821

>  <RMSD>
15.752

$$$$
lig.pdb
 OpenBabel11021811503D
libRbt.so/2013.1/901 2013/11/27
 18 19  0  0  0  0  0  0  0  0999 V2000
    6.7689   25.4241    9.1698 C   0  0  0  0  0  0  0  0  0  0  0  0
    7.5635   21.0762   11.1690 N   0  0  0  0  0  0  0  0  0  0  0  0
    2.8077   19.8938    8.5196 C   0  0  0  0  0  0  0  0  0  0  0  0
    2.9904   18.0754    4.1310 O   0  0  0  0  0  0  0  0  0  0  0  0
    3.7803   18.3681    5.2753 C   0  0  0  0  0  0  0  0  0  0  0  0
    3.2708   17.5718    6.4924 C   0  0  0  0  0  0  0  0  0  0  0  0
    5.9562   18.1788    9.5953 C   0  0  0  0  0  0  0  0  0  0  0  0
    5.6228   17.1616    8.2322 S   0  0  0  0  0  0  0  0  0  0  0  0
    4.1253   17.9468    7.6830 C   0  0  0  0  0  0  0  0  0  0  0  0
    3.9920   18.9465    8.6144 C   0  0  0  0  0  0  0  0  0  0  0  0
    4.9483   19.0417    9.5884 N   0  0  0  0  0  0  0  0  0  0  0  0
    4.8936   20.1193   10.6390 C   0  0  0  0  0  0  0  0  0  0  0  0
    6.6800   21.9483   10.5331 C   0  0  0  0  0  0  0  0  0  0  0  0
    7.0992   23.2010   10.1772 N   0  0  0  0  0  0  0  0  0  0  0  0
    6.2730   24.0536    9.5654 C   0  0  0  0  0  0  0  0  0  0  0  0
    5.0138   23.7016    9.2897 N   0  0  0  0  0  0  0  0  0  0  0  0
    4.5282   22.4741    9.6100 C   0  0  0  0  0  0  0  0  0  0  0  0
    5.3473   21.5347   10.2464 C   0  0  0  0  0  0  0  0  0  0  0  0
  5  4  1  0  0  0  0
  5  6  1  0  0  0  0
  7  8  2  0  0  0  0
  7 11  1  0  0  0  0
  8  9  1  0  0  0  0
  9 10  2  0  0  0  0
  9  6  1  0  0  0  0
 10  3  1  0  0  0  0
 11 12  1  0  0  0  0
 11 10  1  0  0  0  0
 12 18  1  0  0  0  0
 13  2  1  0  0  0  0
 13 14  2  0  0  0  0
 15 14  1  0  0  0  0
 15  1  1  0  0  0  0
 16 15  2  0  0  0  0
 17 18  2  0  0  0  0
 17 16  1  0  0  0  0
 18 13  1  0  0  0  0
M  END
>  <CHROM.1>
-178.70029051,-90.51109381,100.93507876,-96.20697829,5.10179084,20.23987563
8.70635369,0.89008115,-0.99649774,-0.05410111

>  <Name>
lig.pdb

>  <RI>
0

>  <Rbt.Current_Directory>
/home/itssahil/PROJECTS/Mol_Feturizer/New_Systems/rnas/4nyg

>  <Rbt.Executable>
rbdock ($Id: //depot/dev/client3/rdock/2013.1/src/exe/rbdock.cxx#4 $)

>  <Rbt.Library>
libRbt.so (2013.1, Build901 2013/11/27)

>  <Rbt.Parameter_File>
/export/apps/rDock/src/rDock_2013.1_src/data/scripts/dock_solv.prm

>  <Rbt.Receptor>
prm/blind_docking_60.prm

>  <SCORE>
-10.7816

>  <SCORE.INTER>
-11.202

>  <SCORE.INTER.CONST>
1

>  <SCORE.INTER.POLAR>
0

>  <SCORE.INTER.ROT>
4

>  <SCORE.INTER.SOLV>
11.3494

>  <SCORE.INTER.VDW>
-17.5178

>  <SCORE.INTER.norm>
-0.622331

>  <SCORE.INTRA>
0.420334

>  <SCORE.INTRA.DIHEDRAL>
1.37498

>  <SCORE.INTRA.DIHEDRAL.0>
3.20029

>  <SCORE.INTRA.POLAR>
0

>  <SCORE.INTRA.POLAR.0>
0

>  <SCORE.INTRA.REPUL>
0

>  <SCORE.INTRA.REPUL.0>
0

>  <SCORE.INTRA.SOLV>
0.409442

>  <SCORE.INTRA.SOLV.lig_0>
-19.3885

>  <SCORE.INTRA.VDW>
-0.471879

>  <SCORE.INTRA.VDW.0>
-1.12705

>  <SCORE.INTRA.norm>
0.0233519

>  <SCORE.RESTR>
0

>  <SCORE.RESTR.CAVITY>
0

>  <SCORE.RESTR.norm>
0

>  <SCORE.SYSTEM>
0

>  <SCORE.SYSTEM.CONST>
0

>  <SCORE.SYSTEM.DIHEDRAL>
0

>  <SCORE.SYSTEM.SOLV>
0

>  <SCORE.SYSTEM.norm>
0

>  <SCORE.heavy>
18

>  <SCORE.norm>
-0.598979

>  <RMSD>
15.787

$$$$
lig.pdb
 OpenBabel11021811503D
libRbt.so/2013.1/901 2013/11/27
 18 19  0  0  0  0  0  0  0  0999 V2000
    6.9297   14.2790    9.4832 C   0  0  0  0  0  0  0  0  0  0  0  0
    4.0447   17.2971    7.0135 N   0  0  0  0  0  0  0  0  0  0  0  0
    5.4080   22.5313    6.9850 C   0  0  0  0  0  0  0  0  0  0  0  0
    6.7089   24.6905   11.1347 O   0  0  0  0  0  0  0  0  0  0  0  0
    6.3997   25.0900    9.8066 C   0  0  0  0  0  0  0  0  0  0  0  0
    5.0435   24.4992    9.3745 C   0  0  0  0  0  0  0  0  0  0  0  0
    5.2817   20.4168   10.0712 C   0  0  0  0  0  0  0  0  0  0  0  0
    5.1056   21.9483   10.8633 S   0  0  0  0  0  0  0  0  0  0  0  0
    5.1570   22.9916    9.4247 C   0  0  0  0  0  0  0  0  0  0  0  0
    5.3161   22.0617    8.4272 C   0  0  0  0  0  0  0  0  0  0  0  0
    5.3786   20.7436    8.7888 N   0  0  0  0  0  0  0  0  0  0  0  0
    5.5316   19.6542    7.7603 C   0  0  0  0  0  0  0  0  0  0  0  0
    5.1529   17.1249    7.8427 C   0  0  0  0  0  0  0  0  0  0  0  0
    5.5015   15.8695    8.2599 N   0  0  0  0  0  0  0  0  0  0  0  0
    6.5596   15.6782    9.0522 C   0  0  0  0  0  0  0  0  0  0  0  0
    7.3012   16.7127    9.4586 N   0  0  0  0  0  0  0  0  0  0  0  0
    7.0180   17.9869    9.0825 C   0  0  0  0  0  0  0  0  0  0  0  0
    5.9261   18.2506    8.2480 C   0  0  0  0  0  0  0  0  0  0  0  0
  5  4  1  0  0  0  0
  5  6  1  0  0  0  0
  7  8  2  0  0  0  0
  7 11  1  0  0  0  0
  8  9  1  0  0  0  0
  9 10  2  0  0  0  0
  9  6  1  0  0  0  0
 10  3  1  0  0  0  0
 11 12  1  0  0  0  0
 11 10  1  0  0  0  0
 12 18  1  0  0  0  0
 13  2  1  0  0  0  0
 13 14  2  0  0  0  0
 15 14  1  0  0  0  0
 15  1  1  0  0  0  0
 16 15  2  0  0  0  0
 17 18  2  0  0  0  0
 17 16  1  0  0  0  0
 18 13  1  0  0  0  0
M  END
>  <CHROM.1>
-60.95399372,77.49122251,-15.29427705,128.61494034,5.73217233,20.07747075
9.10006537,-1.44825259,-1.08221237,0.26555346

>  <Name>
lig.pdb

>  <RI>
0

>  <Rbt.Current_Directory>
/home/itssahil/PROJECTS/Mol_Feturizer/New_Systems/rnas/4nyg

>  <Rbt.Executable>
rbdock ($Id: //depot/dev/client3/rdock/2013.1/src/exe/rbdock.cxx#4 $)

>  <Rbt.Library>
libRbt.so (2013.1, Build901 2013/11/27)

>  <Rbt.Parameter_File>
/export/apps/rDock/src/rDock_2013.1_src/data/scripts/dock_solv.prm

>  <Rbt.Receptor>
prm/blind_docking_40.prm

>  <SCORE>
-12.7843

>  <SCORE.INTER>
-13.2796

>  <SCORE.INTER.CONST>
1

>  <SCORE.INTER.POLAR>
0

>  <SCORE.INTER.ROT>
4

>  <SCORE.INTER.SOLV>
10.3039

>  <SCORE.INTER.VDW>
-18.5544

>  <SCORE.INTER.norm>
-0.737757

>  <SCORE.INTRA>
0.495308

>  <SCORE.INTRA.DIHEDRAL>
0.485947

>  <SCORE.INTRA.DIHEDRAL.0>
3.20029

>  <SCORE.INTRA.POLAR>
0

>  <SCORE.INTRA.POLAR.0>
0

>  <SCORE.INTRA.REPUL>
0

>  <SCORE.INTRA.REPUL.0>
0

>  <SCORE.INTRA.SOLV>
0.500786

>  <SCORE.INTRA.SOLV.lig_0>
-19.3885

>  <SCORE.INTRA.VDW>
0.00194163

>  <SCORE.INTRA.VDW.0>
-1.12705

>  <SCORE.INTRA.norm>
0.0275171

>  <SCORE.RESTR>
0

>  <SCORE.RESTR.CAVITY>
0

>  <SCORE.RESTR.norm>
0

>  <SCORE.SYSTEM>
0

>  <SCORE.SYSTEM.CONST>
0

>  <SCORE.SYSTEM.DIHEDRAL>
0

>  <SCORE.SYSTEM.SOLV>
0

>  <SCORE.SYSTEM.norm>
0

>  <SCORE.heavy>
18

>  <SCORE.norm>
-0.71024

>  <RMSD>
15.808

$$$$
lig.pdb
 OpenBabel11021811503D
libRbt.so/2013.1/901 2013/11/27
 18 19  0  0  0  0  0  0  0  0999 V2000
    6.8221   25.8888    8.7290 C   0  0  0  0  0  0  0  0  0  0  0  0
    3.7502   22.4156    7.3034 N   0  0  0  0  0  0  0  0  0  0  0  0
    6.4453   19.6564   10.5241 C   0  0  0  0  0  0  0  0  0  0  0  0
    5.6994   15.3099    9.9980 O   0  0  0  0  0  0  0  0  0  0  0  0
    6.5190   15.5890    8.8714 C   0  0  0  0  0  0  0  0  0  0  0  0
    7.0286   17.0422    8.9301 C   0  0  0  0  0  0  0  0  0  0  0  0
    3.5568   19.1886    8.1897 C   0  0  0  0  0  0  0  0  0  0  0  0
    4.4423   17.7789    7.7072 S   0  0  0  0  0  0  0  0  0  0  0  0
    5.8323   17.9590    8.8007 C   0  0  0  0  0  0  0  0  0  0  0  0
    5.5036   19.1173    9.4605 C   0  0  0  0  0  0  0  0  0  0  0  0
    4.3271   19.7298    9.1248 N   0  0  0  0  0  0  0  0  0  0  0  0
    3.8766   20.9928    9.8103 C   0  0  0  0  0  0  0  0  0  0  0  0
    4.5754   22.9364    8.2999 C   0  0  0  0  0  0  0  0  0  0  0  0
    5.2774   24.0878    8.0686 N   0  0  0  0  0  0  0  0  0  0  0  0
    6.0724   24.6078    9.0074 C   0  0  0  0  0  0  0  0  0  0  0  0
    6.2025   24.0110   10.1958 N   0  0  0  0  0  0  0  0  0  0  0  0
    5.5347   22.8675   10.4986 C   0  0  0  0  0  0  0  0  0  0  0  0
    4.6818   22.2780    9.5587 C   0  0  0  0  0  0  0  0  0  0  0  0
  5  4  1  0  0  0  0
  5  6  1  0  0  0  0
  7  8  2  0  0  0  0
  7 11  1  0  0  0  0
  8  9  1  0  0  0  0
  9 10  2  0  0  0  0
  9  6  1  0  0  0  0
 10  3  1  0  0  0  0
 11 12  1  0  0  0  0
 11 10  1  0  0  0  0
 12 18  1  0  0  0  0
 13  2  1  0  0  0  0
 13 14  2  0  0  0  0
 15 14  1  0  0  0  0
 15  1  1  0  0  0  0
 16 15  2  0  0  0  0
 17 18  2  0  0  0  0
 17 16  1  0  0  0  0
 18 13  1  0  0  0  0
M  END
>  <CHROM.1>
-65.14501219,-41.57593022,-112.92206089,73.10035686,5.29890760,20.38425510
8.97758685,-1.56676991,0.67115308,-3.13474143

>  <Name>
lig.pdb

>  <RI>
0

>  <Rbt.Current_Directory>
/home/itssahil/PROJECTS/Mol_Feturizer/New_Systems/rnas/4nyg

>  <Rbt.Executable>
rbdock ($Id: //depot/dev/client3/rdock/2013.1/src/exe/rbdock.cxx#4 $)

>  <Rbt.Library>
libRbt.so (2013.1, Build901 2013/11/27)

>  <Rbt.Parameter_File>
/export/apps/rDock/src/rDock_2013.1_src/data/scripts/dock_solv.prm

>  <Rbt.Receptor>
prm/blind_docking_60.prm

>  <SCORE>
-14.9095

>  <SCORE.INTER>
-15.1448

>  <SCORE.INTER.CONST>
1

>  <SCORE.INTER.POLAR>
0

>  <SCORE.INTER.ROT>
4

>  <SCORE.INTER.SOLV>
11.3759

>  <SCORE.INTER.VDW>
-20.1552

>  <SCORE.INTER.norm>
-0.84138

>  <SCORE.INTRA>
0.235321

>  <SCORE.INTRA.DIHEDRAL>
0.562744

>  <SCORE.INTRA.DIHEDRAL.0>
3.20029

>  <SCORE.INTRA.POLAR>
0

>  <SCORE.INTRA.POLAR.0>
0

>  <SCORE.INTRA.REPUL>
0

>  <SCORE.INTRA.REPUL.0>
0

>  <SCORE.INTRA.SOLV>
1.05721

>  <SCORE.INTRA.SOLV.lig_0>
-19.3885

>  <SCORE.INTRA.VDW>
-0.574656

>  <SCORE.INTRA.VDW.0>
-1.12705

>  <SCORE.INTRA.norm>
0.0130734

>  <SCORE.RESTR>
0

>  <SCORE.RESTR.CAVITY>
0

>  <SCORE.RESTR.norm>
0

>  <SCORE.SYSTEM>
0

>  <SCORE.SYSTEM.CONST>
0

>  <SCORE.SYSTEM.DIHEDRAL>
0

>  <SCORE.SYSTEM.SOLV>
0

>  <SCORE.SYSTEM.norm>
0

>  <SCORE.heavy>
18

>  <SCORE.norm>
-0.828307

>  <RMSD>
15.921

$$$$
lig.pdb
 OpenBabel11021811503D
libRbt.so/2013.1/901 2013/11/27
 18 19  0  0  0  0  0  0  0  0999 V2000
    6.9054   14.6106    8.2564 C   0  0  0  0  0  0  0  0  0  0  0  0
    7.3211   18.9324   10.4202 N   0  0  0  0  0  0  0  0  0  0  0  0
    6.6384   21.9918   10.4541 C   0  0  0  0  0  0  0  0  0  0  0  0
    5.6794   25.3891    9.7083 O   0  0  0  0  0  0  0  0  0  0  0  0
    6.4479   25.4620    8.5154 C   0  0  0  0  0  0  0  0  0  0  0  0
    7.3284   24.2055    8.3711 C   0  0  0  0  0  0  0  0  0  0  0  0
    4.7481   21.1247    7.3418 C   0  0  0  0  0  0  0  0  0  0  0  0
    5.4943   22.5665    6.7348 S   0  0  0  0  0  0  0  0  0  0  0  0
    6.4123   23.0154    8.1896 C   0  0  0  0  0  0  0  0  0  0  0  0
    6.0605   22.0041    9.0488 C   0  0  0  0  0  0  0  0  0  0  0  0
    5.2011   21.0450    8.5864 N   0  0  0  0  0  0  0  0  0  0  0  0
    4.7767   19.8883    9.4524 C   0  0  0  0  0  0  0  0  0  0  0  0
    6.5742   18.0744    9.6130 C   0  0  0  0  0  0  0  0  0  0  0  0
    7.0544   16.8275    9.3190 N   0  0  0  0  0  0  0  0  0  0  0  0
    6.3572   15.9867    8.5503 C   0  0  0  0  0  0  0  0  0  0  0  0
    5.1731   16.3476    8.0475 N   0  0  0  0  0  0  0  0  0  0  0  0
    4.6313   17.5676    8.2989 C   0  0  0  0  0  0  0  0  0  0  0  0
    5.3109   18.4899    9.1025 C   0  0  0  0  0  0  0  0  0  0  0  0
  5  4  1  0  0  0  0
  5  6  1  0  0  0  0
  7  8  2  0  0  0  0
  7 11  1  0  0  0  0
  8  9  1  0  0  0  0
  9 10  2  0  0  0  0
  9  6  1  0  0  0  0
 10  3  1  0  0  0  0
 11 12  1  0  0  0  0
 11 10  1  0  0  0  0
 12 18  1  0  0  0  0
 13  2  1  0  0  0  0
 13 14  2  0  0  0  0
 15 14  1  0  0  0  0
 15  1  1  0  0  0  0
 16 15  2  0  0  0  0
 17 18  2  0  0  0  0
 17 16  1  0  0  0  0
 18 13  1  0  0  0  0
M  END
>  <CHROM.1>
65.29749254,74.66986690,69.46013424,86.19390385,5.97940434,20.41681694,8.65187845
1.55344285,1.02432475,3.12420271

>  <Name>
lig.pdb

>  <RI>
0

>  <Rbt.Current_Directory>
/home/itssahil/PROJECTS/Mol_Feturizer/New_Systems/rnas/4nyg

>  <Rbt.Executable>
rbdock ($Id: //depot/dev/client3/rdock/2013.1/src/exe/rbdock.cxx#4 $)

>  <Rbt.Library>
libRbt.so (2013.1, Build901 2013/11/27)

>  <Rbt.Parameter_File>
/export/apps/rDock/src/rDock_2013.1_src/data/scripts/dock_solv.prm

>  <Rbt.Receptor>
prm/blind_docking_60.prm

>  <SCORE>
-13.4133

>  <SCORE.INTER>
-13.4326

>  <SCORE.INTER.CONST>
1

>  <SCORE.INTER.POLAR>
0

>  <SCORE.INTER.ROT>
4

>  <SCORE.INTER.SOLV>
14.5757

>  <SCORE.INTER.VDW>
-20.0803

>  <SCORE.INTER.norm>
-0.746256

>  <SCORE.INTRA>
0.0193156

>  <SCORE.INTRA.DIHEDRAL>
0.426773

>  <SCORE.INTRA.DIHEDRAL.0>
3.20029

>  <SCORE.INTRA.POLAR>
0

>  <SCORE.INTRA.POLAR.0>
0

>  <SCORE.INTRA.REPUL>
0

>  <SCORE.INTRA.REPUL.0>
0

>  <SCORE.INTRA.SOLV>
1.29328

>  <SCORE.INTRA.SOLV.lig_0>
-19.3885

>  <SCORE.INTRA.VDW>
-0.840709

>  <SCORE.INTRA.VDW.0>
-1.12705

>  <SCORE.INTRA.norm>
0.00107309

>  <SCORE.RESTR>
0

>  <SCORE.RESTR.CAVITY>
0

>  <SCORE.RESTR.norm>
0

>  <SCORE.SYSTEM>
0

>  <SCORE.SYSTEM.CONST>
0

>  <SCORE.SYSTEM.DIHEDRAL>
0

>  <SCORE.SYSTEM.SOLV>
0

>  <SCORE.SYSTEM.norm>
0

>  <SCORE.heavy>
18

>  <SCORE.norm>
-0.745183

>  <RMSD>
15.933

$$$$
lig.pdb
 OpenBabel11021811503D
libRbt.so/2013.1/901 2013/11/27
 18 19  0  0  0  0  0  0  0  0999 V2000
    7.0592   25.9117    8.6720 C   0  0  0  0  0  0  0  0  0  0  0  0
    3.8180   22.5570    7.3406 N   0  0  0  0  0  0  0  0  0  0  0  0
    6.3583   19.6813   10.5877 C   0  0  0  0  0  0  0  0  0  0  0  0
    7.1548   14.6651    9.3504 O   0  0  0  0  0  0  0  0  0  0  0  0
    6.1434   15.6627    9.3228 C   0  0  0  0  0  0  0  0  0  0  0  0
    6.7582   17.0358    8.9889 C   0  0  0  0  0  0  0  0  0  0  0  0
    3.4398   19.4157    8.2589 C   0  0  0  0  0  0  0  0  0  0  0  0
    4.2258   17.9495    7.7726 S   0  0  0  0  0  0  0  0  0  0  0  0
    5.6272   18.0324    8.8634 C   0  0  0  0  0  0  0  0  0  0  0  0
    5.3797   19.2095    9.5254 C   0  0  0  0  0  0  0  0  0  0  0  0
    4.2472   19.9016    9.1931 N   0  0  0  0  0  0  0  0  0  0  0  0
    3.8855   21.1914    9.8813 C   0  0  0  0  0  0  0  0  0  0  0  0
    4.6713   23.0616    8.3217 C   0  0  0  0  0  0  0  0  0  0  0  0
    5.4269   24.1718    8.0603 N   0  0  0  0  0  0  0  0  0  0  0  0
    6.2498   24.6755    8.9838 C   0  0  0  0  0  0  0  0  0  0  0  0
    6.3556   24.1023   10.1862 N   0  0  0  0  0  0  0  0  0  0  0  0
    5.6347   23.0001   10.5187 C   0  0  0  0  0  0  0  0  0  0  0  0
    4.7507   22.4297    9.5960 C   0  0  0  0  0  0  0  0  0  0  0  0
  5  4  1  0  0  0  0
  5  6  1  0  0  0  0
  7  8  2  0  0  0  0
  7 11  1  0  0  0  0
  8  9  1  0  0  0  0
  9 10  2  0  0  0  0
  9  6  1  0  0  0  0
 10  3  1  0  0  0  0
 11 12  1  0  0  0  0
 11 10  1  0  0  0  0
 12 18  1  0  0  0  0
 13  2  1  0  0  0  0
 13 14  2  0  0  0  0
 15 14  1  0  0  0  0
 15  1  1  0  0  0  0
 16 15  2  0  0  0  0
 17 18  2  0  0  0  0
 17 16  1  0  0  0  0
 18 13  1  0  0  0  0
M  END
>  <CHROM.1>
175.50818783,-57.08186260,-111.08051816,71.28498481,5.35103742,20.45002710
8.99409238,-1.58492058,0.55487940,-3.12717818

>  <Name>
lig.pdb

>  <RI>
0

>  <Rbt.Current_Directory>
/home/itssahil/PROJECTS/Mol_Feturizer/New_Systems/rnas/4nyg

>  <Rbt.Executable>
rbdock ($Id: //depot/dev/client3/rdock/2013.1/src/exe/rbdock.cxx#4 $)

>  <Rbt.Library>
libRbt.so (2013.1, Build901 2013/11/27)

>  <Rbt.Parameter_File>
/export/apps/rDock/src/rDock_2013.1_src/data/scripts/dock_solv.prm

>  <Rbt.Receptor>
prm/blind_docking_100.prm

>  <SCORE>
-15.7633

>  <SCORE.INTER>
-15.4314

>  <SCORE.INTER.CONST>
1

>  <SCORE.INTER.POLAR>
0

>  <SCORE.INTER.ROT>
4

>  <SCORE.INTER.SOLV>
10.543

>  <SCORE.INTER.VDW>
-20.0686

>  <SCORE.INTER.norm>
-0.8573

>  <SCORE.INTRA>
-0.331914

>  <SCORE.INTRA.DIHEDRAL>
-0.0218978

>  <SCORE.INTRA.DIHEDRAL.0>
3.20029

>  <SCORE.INTRA.POLAR>
0

>  <SCORE.INTRA.POLAR.0>
0

>  <SCORE.INTRA.REPUL>
0

>  <SCORE.INTRA.REPUL.0>
0

>  <SCORE.INTRA.SOLV>
0.638577

>  <SCORE.INTRA.SOLV.lig_0>
-19.3885

>  <SCORE.INTRA.VDW>
-0.640254

>  <SCORE.INTRA.VDW.0>
-1.12705

>  <SCORE.INTRA.norm>
-0.0184397

>  <SCORE.RESTR>
0

>  <SCORE.RESTR.CAVITY>
0

>  <SCORE.RESTR.norm>
0

>  <SCORE.SYSTEM>
0

>  <SCORE.SYSTEM.CONST>
0

>  <SCORE.SYSTEM.DIHEDRAL>
0

>  <SCORE.SYSTEM.SOLV>
0

>  <SCORE.SYSTEM.norm>
0

>  <SCORE.heavy>
18

>  <SCORE.norm>
-0.875739

>  <RMSD>
16.019

$$$$
lig.pdb
 OpenBabel11021811503D
libRbt.so/2013.1/901 2013/11/27
 18 19  0  0  0  0  0  0  0  0999 V2000
    5.9255   25.8780    9.7069 C   0  0  0  0  0  0  0  0  0  0  0  0
    4.6404   22.1227    6.9178 N   0  0  0  0  0  0  0  0  0  0  0  0
    4.3771   17.7851    7.4904 C   0  0  0  0  0  0  0  0  0  0  0  0
    6.8333   14.9628   10.1370 O   0  0  0  0  0  0  0  0  0  0  0  0
    6.3266   14.7569    8.8256 C   0  0  0  0  0  0  0  0  0  0  0  0
    6.8105   15.8778    7.8852 C   0  0  0  0  0  0  0  0  0  0  0  0
    6.5958   19.4299   10.0170 C   0  0  0  0  0  0  0  0  0  0  0  0
    7.5713   18.0180    9.7740 S   0  0  0  0  0  0  0  0  0  0  0  0
    6.5504   17.2018    8.5691 C   0  0  0  0  0  0  0  0  0  0  0  0
    5.5137   18.0940    8.4504 C   0  0  0  0  0  0  0  0  0  0  0  0
    5.5623   19.2319    9.2087 N   0  0  0  0  0  0  0  0  0  0  0  0
    4.4793   20.2753    9.1283 C   0  0  0  0  0  0  0  0  0  0  0  0
    4.9382   22.6112    8.1899 C   0  0  0  0  0  0  0  0  0  0  0  0
    5.2801   23.9261    8.3505 N   0  0  0  0  0  0  0  0  0  0  0  0
    5.5675   24.4184    9.5584 C   0  0  0  0  0  0  0  0  0  0  0  0
    5.5303   23.6339   10.6393 N   0  0  0  0  0  0  0  0  0  0  0  0
    5.1963   22.3197   10.5578 C   0  0  0  0  0  0  0  0  0  0  0  0
    4.8787   21.7473    9.3211 C   0  0  0  0  0  0  0  0  0  0  0  0
  5  4  1  0  0  0  0
  5  6  1  0  0  0  0
  7  8  2  0  0  0  0
  7 11  1  0  0  0  0
  8  9  1  0  0  0  0
  9 10  2  0  0  0  0
  9  6  1  0  0  0  0
 10  3  1  0  0  0  0
 11 12  1  0  0  0  0
 11 10  1  0  0  0  0
 12 18  1  0  0  0  0
 13  2  1  0  0  0  0
 13 14  2  0  0  0  0
 15 14  1  0  0  0  0
 15  1  1  0  0  0  0
 16 15  2  0  0  0  0
 17 18  2  0  0  0  0
 17 16  1  0  0  0  0
 18 13  1  0  0  0  0
M  END
>  <CHROM.1>
-48.75082237,83.43744518,32.19413806,105.18958323,5.83843445,19.92373172
9.09474945,-1.82683112,0.90769002,-2.90117589

>  <Name>
lig.pdb

>  <RI>
0

>  <Rbt.Current_Directory>
/home/itssahil/PROJECTS/Mol_Feturizer/New_Systems/rnas/4nyg

>  <Rbt.Executable>
rbdock ($Id: //depot/dev/client3/rdock/2013.1/src/exe/rbdock.cxx#4 $)

>  <Rbt.Library>
libRbt.so (2013.1, Build901 2013/11/27)

>  <Rbt.Parameter_File>
/export/apps/rDock/src/rDock_2013.1_src/data/scripts/dock_solv.prm

>  <Rbt.Receptor>
prm/blind_docking_100.prm

>  <SCORE>
-12.4946

>  <SCORE.INTER>
-13.2378

>  <SCORE.INTER.CONST>
1

>  <SCORE.INTER.POLAR>
0

>  <SCORE.INTER.ROT>
4

>  <SCORE.INTER.SOLV>
11.5257

>  <SCORE.INTER.VDW>
-18.9338

>  <SCORE.INTER.norm>
-0.735434

>  <SCORE.INTRA>
0.743214

>  <SCORE.INTRA.DIHEDRAL>
1.20061

>  <SCORE.INTRA.DIHEDRAL.0>
3.20029

>  <SCORE.INTRA.POLAR>
0

>  <SCORE.INTRA.POLAR.0>
0

>  <SCORE.INTRA.REPUL>
0

>  <SCORE.INTRA.REPUL.0>
0

>  <SCORE.INTRA.SOLV>
0.739929

>  <SCORE.INTRA.SOLV.lig_0>
-19.3885

>  <SCORE.INTRA.VDW>
-0.227054

>  <SCORE.INTRA.VDW.0>
-1.12705

>  <SCORE.INTRA.norm>
0.0412897

>  <SCORE.RESTR>
0

>  <SCORE.RESTR.CAVITY>
0

>  <SCORE.RESTR.norm>
0

>  <SCORE.SYSTEM>
0

>  <SCORE.SYSTEM.CONST>
0

>  <SCORE.SYSTEM.DIHEDRAL>
0

>  <SCORE.SYSTEM.SOLV>
0

>  <SCORE.SYSTEM.norm>
0

>  <SCORE.heavy>
18

>  <SCORE.norm>
-0.694145

>  <RMSD>
16.021

$$$$
lig.pdb
 OpenBabel11021811503D
libRbt.so/2013.1/901 2013/11/27
 18 19  0  0  0  0  0  0  0  0999 V2000
    7.0569   25.9265    8.6883 C   0  0  0  0  0  0  0  0  0  0  0  0
    3.8309   22.5650    7.3373 N   0  0  0  0  0  0  0  0  0  0  0  0
    6.3803   19.7035   10.5703 C   0  0  0  0  0  0  0  0  0  0  0  0
    7.2082   14.6888    9.3031 O   0  0  0  0  0  0  0  0  0  0  0  0
    6.1881   15.6777    9.2826 C   0  0  0  0  0  0  0  0  0  0  0  0
    6.7925   17.0605    8.9705 C   0  0  0  0  0  0  0  0  0  0  0  0
    3.4524   19.4146    8.2561 C   0  0  0  0  0  0  0  0  0  0  0  0
    4.2472   17.9543    7.7664 S   0  0  0  0  0  0  0  0  0  0  0  0
    5.6533   18.0484    8.8502 C   0  0  0  0  0  0  0  0  0  0  0  0
    5.4001   19.2238    9.5130 C   0  0  0  0  0  0  0  0  0  0  0  0
    4.2607   19.9071    9.1860 N   0  0  0  0  0  0  0  0  0  0  0  0
    3.8926   21.1944    9.8756 C   0  0  0  0  0  0  0  0  0  0  0  0
    4.6789   23.0701    8.3229 C   0  0  0  0  0  0  0  0  0  0  0  0
    5.4322   24.1830    8.0666 N   0  0  0  0  0  0  0  0  0  0  0  0
    6.2500   24.6873    8.9944 C   0  0  0  0  0  0  0  0  0  0  0  0
    6.3528   24.1120   10.1960 N   0  0  0  0  0  0  0  0  0  0  0  0
    5.6338   23.0070   10.5235 C   0  0  0  0  0  0  0  0  0  0  0  0
    4.7552   22.4358    9.5962 C   0  0  0  0  0  0  0  0  0  0  0  0
  5  4  1  0  0  0  0
  5  6  1  0  0  0  0
  7  8  2  0  0  0  0
  7 11  1  0  0  0  0
  8  9  1  0  0  0  0
  9 10  2  0  0  0  0
  9  6  1  0  0  0  0
 10  3  1  0  0  0  0
 11 12  1  0  0  0  0
 11 10  1  0  0  0  0
 12 18  1  0  0  0  0
 13  2  1  0  0  0  0
 13 14  2  0  0  0  0
 15 14  1  0  0  0  0
 15  1  1  0  0  0  0
 16 15  2  0  0  0  0
 17 18  2  0  0  0  0
 17 16  1  0  0  0  0
 18 13  1  0  0  0  0
M  END
>  <CHROM.1>
175.46104057,-56.06968625,-111.66925181,71.27829808,5.36746170,20.46117561
8.98675400,-1.58980584,0.54737078,-3.11977015

>  <Name>
lig.pdb

>  <RI>
0

>  <Rbt.Current_Directory>
/home/itssahil/PROJECTS/Mol_Feturizer/New_Systems/rnas/4nyg

>  <Rbt.Executable>
rbdock ($Id: //depot/dev/client3/rdock/2013.1/src/exe/rbdock.cxx#4 $)

>  <Rbt.Library>
libRbt.so (2013.1, Build901 2013/11/27)

>  <Rbt.Parameter_File>
/export/apps/rDock/src/rDock_2013.1_src/data/scripts/dock_solv.prm

>  <Rbt.Receptor>
prm/blind_docking_80.prm

>  <SCORE>
-15.7457

>  <SCORE.INTER>
-15.4431

>  <SCORE.INTER.CONST>
1

>  <SCORE.INTER.POLAR>
0

>  <SCORE.INTER.ROT>
4

>  <SCORE.INTER.SOLV>
10.5934

>  <SCORE.INTER.VDW>
-20.0932

>  <SCORE.INTER.norm>
-0.85795

>  <SCORE.INTRA>
-0.302568

>  <SCORE.INTRA.DIHEDRAL>
-0.00641631

>  <SCORE.INTRA.DIHEDRAL.0>
3.20029

>  <SCORE.INTRA.POLAR>
0

>  <SCORE.INTRA.POLAR.0>
0

>  <SCORE.INTRA.REPUL>
0

>  <SCORE.INTRA.REPUL.0>
0

>  <SCORE.INTRA.SOLV>
0.640884

>  <SCORE.INTRA.SOLV.lig_0>
-19.3885

>  <SCORE.INTRA.VDW>
-0.619802

>  <SCORE.INTRA.VDW.0>
-1.12705

>  <SCORE.INTRA.norm>
-0.0168093

>  <SCORE.RESTR>
0

>  <SCORE.RESTR.CAVITY>
0

>  <SCORE.RESTR.norm>
0

>  <SCORE.SYSTEM>
0

>  <SCORE.SYSTEM.CONST>
0

>  <SCORE.SYSTEM.DIHEDRAL>
0

>  <SCORE.SYSTEM.SOLV>
0

>  <SCORE.SYSTEM.norm>
0

>  <SCORE.heavy>
18

>  <SCORE.norm>
-0.87476

>  <RMSD>
16.029

$$$$
lig.pdb
 OpenBabel11021811503D
libRbt.so/2013.1/901 2013/11/27
 18 19  0  0  0  0  0  0  0  0999 V2000
    6.7144   15.0310    8.9110 C   0  0  0  0  0  0  0  0  0  0  0  0
    6.3480   19.5696   10.5840 N   0  0  0  0  0  0  0  0  0  0  0  0
    5.0175   22.3555   10.7280 C   0  0  0  0  0  0  0  0  0  0  0  0
    6.3905   26.1735    8.1912 O   0  0  0  0  0  0  0  0  0  0  0  0
    7.4930   25.7045    8.9551 C   0  0  0  0  0  0  0  0  0  0  0  0
    7.0425   24.5772    9.9044 C   0  0  0  0  0  0  0  0  0  0  0  0
    5.9581   21.6479    7.1746 C   0  0  0  0  0  0  0  0  0  0  0  0
    6.9376   23.0646    7.3690 S   0  0  0  0  0  0  0  0  0  0  0  0
    6.5225   23.4371    9.0570 C   0  0  0  0  0  0  0  0  0  0  0  0
    5.6391   22.4259    9.3432 C   0  0  0  0  0  0  0  0  0  0  0  0
    5.3659   21.5198    8.3551 N   0  0  0  0  0  0  0  0  0  0  0  0
    4.4250   20.3667    8.5860 C   0  0  0  0  0  0  0  0  0  0  0  0
    5.9618   18.6151    9.6432 C   0  0  0  0  0  0  0  0  0  0  0  0
    6.4864   17.3528    9.7005 N   0  0  0  0  0  0  0  0  0  0  0  0
    6.1309   16.4205    8.8127 C   0  0  0  0  0  0  0  0  0  0  0  0
    5.2547   16.7021    7.8441 N   0  0  0  0  0  0  0  0  0  0  0  0
    4.6899   17.9319    7.7264 C   0  0  0  0  0  0  0  0  0  0  0  0
    5.0174   18.9487    8.6302 C   0  0  0  0  0  0  0  0  0  0  0  0
  5  4  1  0  0  0  0
  5  6  1  0  0  0  0
  7  8  2  0  0  0  0
  7 11  1  0  0  0  0
  8  9  1  0  0  0  0
  9 10  2  0  0  0  0
  9  6  1  0  0  0  0
 10  3  1  0  0  0  0
 11 12  1  0  0  0  0
 11 10  1  0  0  0  0
 12 18  1  0  0  0  0
 13  2  1  0  0  0  0
 13 14  2  0  0  0  0
 15 14  1  0  0  0  0
 15  1  1  0  0  0  0
 16 15  2  0  0  0  0
 17 18  2  0  0  0  0
 17 16  1  0  0  0  0
 18 13  1  0  0  0  0
M  END
>  <CHROM.1>
61.57296049,24.45453450,68.09665223,62.33034945,6.04484084,20.88352983,8.76341044
-2.75440277,-1.45846248,-1.20249714

>  <Name>
lig.pdb

>  <RI>
0

>  <Rbt.Current_Directory>
/home/itssahil/PROJECTS/Mol_Feturizer/New_Systems/rnas/4nyg

>  <Rbt.Executable>
rbdock ($Id: //depot/dev/client3/rdock/2013.1/src/exe/rbdock.cxx#4 $)

>  <Rbt.Library>
libRbt.so (2013.1, Build901 2013/11/27)

>  <Rbt.Parameter_File>
/export/apps/rDock/src/rDock_2013.1_src/data/scripts/dock_solv.prm

>  <Rbt.Receptor>
prm/blind_docking_100.prm

>  <SCORE>
-12.2889

>  <SCORE.INTER>
-13.5777

>  <SCORE.INTER.CONST>
1

>  <SCORE.INTER.POLAR>
0

>  <SCORE.INTER.ROT>
4

>  <SCORE.INTER.SOLV>
12.8547

>  <SCORE.INTER.VDW>
-19.6034

>  <SCORE.INTER.norm>
-0.754317

>  <SCORE.INTRA>
1.2888

>  <SCORE.INTRA.DIHEDRAL>
1.70038

>  <SCORE.INTRA.DIHEDRAL.0>
3.20029

>  <SCORE.INTRA.POLAR>
0

>  <SCORE.INTRA.POLAR.0>
0

>  <SCORE.INTRA.REPUL>
0

>  <SCORE.INTRA.REPUL.0>
0

>  <SCORE.INTRA.SOLV>
1.57316

>  <SCORE.INTRA.SOLV.lig_0>
-19.3885

>  <SCORE.INTRA.VDW>
-0.347971

>  <SCORE.INTRA.VDW.0>
-1.12705

>  <SCORE.INTRA.norm>
0.0715998

>  <SCORE.RESTR>
0

>  <SCORE.RESTR.CAVITY>
0

>  <SCORE.RESTR.norm>
0

>  <SCORE.SYSTEM>
0

>  <SCORE.SYSTEM.CONST>
0

>  <SCORE.SYSTEM.DIHEDRAL>
0

>  <SCORE.SYSTEM.SOLV>
0

>  <SCORE.SYSTEM.norm>
0

>  <SCORE.heavy>
18

>  <SCORE.norm>
-0.682717

>  <RMSD>
16.033

$$$$
lig.pdb
 OpenBabel11021811503D
libRbt.so/2013.1/901 2013/11/27
 18 19  0  0  0  0  0  0  0  0999 V2000
    6.7148   25.6487    8.6424 C   0  0  0  0  0  0  0  0  0  0  0  0
    4.1335   22.1173   10.7396 N   0  0  0  0  0  0  0  0  0  0  0  0
    4.2378   17.5484    7.3572 C   0  0  0  0  0  0  0  0  0  0  0  0
    5.7954   14.7237   10.2386 O   0  0  0  0  0  0  0  0  0  0  0  0
    6.7912   14.5767    9.2357 C   0  0  0  0  0  0  0  0  0  0  0  0
    6.4605   15.4668    8.0219 C   0  0  0  0  0  0  0  0  0  0  0  0
    6.6560   19.2883    9.6238 C   0  0  0  0  0  0  0  0  0  0  0  0
    7.4723   17.7598    9.5856 S   0  0  0  0  0  0  0  0  0  0  0  0
    6.3526   16.8947    8.5093 C   0  0  0  0  0  0  0  0  0  0  0  0
    5.4150   17.8671    8.2638 C   0  0  0  0  0  0  0  0  0  0  0  0
    5.5954   19.0893    8.8516 N   0  0  0  0  0  0  0  0  0  0  0  0
    4.6283   20.2208    8.6222 C   0  0  0  0  0  0  0  0  0  0  0  0
    4.9098   22.5420    9.6615 C   0  0  0  0  0  0  0  0  0  0  0  0
    5.4123   23.8144    9.6449 N   0  0  0  0  0  0  0  0  0  0  0  0
    6.1602   24.2441    8.6252 C   0  0  0  0  0  0  0  0  0  0  0  0
    6.4322   23.4390    7.5941 N   0  0  0  0  0  0  0  0  0  0  0  0
    5.9708   22.1624    7.5427 C   0  0  0  0  0  0  0  0  0  0  0  0
    5.1874   21.6524    8.5840 C   0  0  0  0  0  0  0  0  0  0  0  0
  5  4  1  0  0  0  0
  5  6  1  0  0  0  0
  7  8  2  0  0  0  0
  7 11  1  0  0  0  0
  8  9  1  0  0  0  0
  9 10  2  0  0  0  0
  9  6  1  0  0  0  0
 10  3  1  0  0  0  0
 11 12  1  0  0  0  0
 11 10  1  0  0  0  0
 12 18  1  0  0  0  0
 13  2  1  0  0  0  0
 13 14  2  0  0  0  0
 15 14  1  0  0  0  0
 15  1  1  0  0  0  0
 16 15  2  0  0  0  0
 17 18  2  0  0  0  0
 17 16  1  0  0  0  0
 18 13  1  0  0  0  0
M  END
>  <CHROM.1>
57.40366038,46.65629034,32.99668265,-108.82176486,5.91212382,19.73731959
8.91343670,-1.63663233,0.19890110,3.12586873

>  <Name>
lig.pdb

>  <RI>
0

>  <Rbt.Current_Directory>
/home/itssahil/PROJECTS/Mol_Feturizer/New_Systems/rnas/4nyg

>  <Rbt.Executable>
rbdock ($Id: //depot/dev/client3/rdock/2013.1/src/exe/rbdock.cxx#4 $)

>  <Rbt.Library>
libRbt.so (2013.1, Build901 2013/11/27)

>  <Rbt.Parameter_File>
/export/apps/rDock/src/rDock_2013.1_src/data/scripts/dock_solv.prm

>  <Rbt.Receptor>
prm/blind_docking_60.prm

>  <SCORE>
-15.9025

>  <SCORE.INTER>
-16.1546

>  <SCORE.INTER.CONST>
1

>  <SCORE.INTER.POLAR>
0

>  <SCORE.INTER.ROT>
4

>  <SCORE.INTER.SOLV>
11.9385

>  <SCORE.INTER.VDW>
-21.0159

>  <SCORE.INTER.norm>
-0.897478

>  <SCORE.INTRA>
0.252139

>  <SCORE.INTRA.DIHEDRAL>
0.204377

>  <SCORE.INTRA.DIHEDRAL.0>
3.20029

>  <SCORE.INTRA.POLAR>
0

>  <SCORE.INTRA.POLAR.0>
0

>  <SCORE.INTRA.REPUL>
0

>  <SCORE.INTRA.REPUL.0>
0

>  <SCORE.INTRA.SOLV>
0.694173

>  <SCORE.INTRA.SOLV.lig_0>
-19.3885

>  <SCORE.INTRA.VDW>
-0.197136

>  <SCORE.INTRA.VDW.0>
-1.12705

>  <SCORE.INTRA.norm>
0.0140077

>  <SCORE.RESTR>
0

>  <SCORE.RESTR.CAVITY>
0

>  <SCORE.RESTR.norm>
0

>  <SCORE.SYSTEM>
0

>  <SCORE.SYSTEM.CONST>
0

>  <SCORE.SYSTEM.DIHEDRAL>
0

>  <SCORE.SYSTEM.SOLV>
0

>  <SCORE.SYSTEM.norm>
0

>  <SCORE.heavy>
18

>  <SCORE.norm>
-0.88347

>  <RMSD>
16.035

$$$$
lig.pdb
 OpenBabel11021811503D
libRbt.so/2013.1/901 2013/11/27
 18 19  0  0  0  0  0  0  0  0999 V2000
    6.9967   26.1271    8.5892 C   0  0  0  0  0  0  0  0  0  0  0  0
    3.7310   22.7535    7.3699 N   0  0  0  0  0  0  0  0  0  0  0  0
    6.2986   19.8650   10.6579 C   0  0  0  0  0  0  0  0  0  0  0  0
    7.0265   14.8291    9.3939 O   0  0  0  0  0  0  0  0  0  0  0  0
    6.0257   15.8352    9.3220 C   0  0  0  0  0  0  0  0  0  0  0  0
    6.6709   17.2112    9.0661 C   0  0  0  0  0  0  0  0  0  0  0  0
    3.4014   19.6461    8.2979 C   0  0  0  0  0  0  0  0  0  0  0  0
    4.1676   18.1662    7.8216 S   0  0  0  0  0  0  0  0  0  0  0  0
    5.5583   18.2267    8.9274 C   0  0  0  0  0  0  0  0  0  0  0  0
    5.3237   19.4086    9.5855 C   0  0  0  0  0  0  0  0  0  0  0  0
    4.2067   20.1194    9.2403 N   0  0  0  0  0  0  0  0  0  0  0  0
    3.8595   21.4159    9.9232 C   0  0  0  0  0  0  0  0  0  0  0  0
    4.6059   23.2700    8.3255 C   0  0  0  0  0  0  0  0  0  0  0  0
    5.3535   24.3782    8.0345 N   0  0  0  0  0  0  0  0  0  0  0  0
    6.1967   24.8932    8.9332 C   0  0  0  0  0  0  0  0  0  0  0  0
    6.3312   24.3334   10.1389 N   0  0  0  0  0  0  0  0  0  0  0  0
    5.6200   23.2340   10.5001 C   0  0  0  0  0  0  0  0  0  0  0  0
    4.7159   22.6522    9.6044 C   0  0  0  0  0  0  0  0  0  0  0  0
  5  4  1  0  0  0  0
  5  6  1  0  0  0  0
  7  8  2  0  0  0  0
  7 11  1  0  0  0  0
  8  9  1  0  0  0  0
  9 10  2  0  0  0  0
  9  6  1  0  0  0  0
 10  3  1  0  0  0  0
 11 12  1  0  0  0  0
 11 10  1  0  0  0  0
 12 18  1  0  0  0  0
 13  2  1  0  0  0  0
 13 14  2  0  0  0  0
 15 14  1  0  0  0  0
 15  1  1  0  0  0  0
 16 15  2  0  0  0  0
 17 18  2  0  0  0  0
 17 16  1  0  0  0  0
 18 13  1  0  0  0  0
M  END
>  <CHROM.1>
177.08809741,-54.18576163,-108.77587133,71.24313528,5.28934139,20.65622024
9.01346822,-1.58008706,0.56122804,-3.14104316

>  <Name>
lig.pdb

>  <RI>
0

>  <Rbt.Current_Directory>
/home/itssahil/PROJECTS/Mol_Feturizer/New_Systems/rnas/4nyg

>  <Rbt.Executable>
rbdock ($Id: //depot/dev/client3/rdock/2013.1/src/exe/rbdock.cxx#4 $)

>  <Rbt.Library>
libRbt.so (2013.1, Build901 2013/11/27)

>  <Rbt.Parameter_File>
/export/apps/rDock/src/rDock_2013.1_src/data/scripts/dock_solv.prm

>  <Rbt.Receptor>
prm/blind_docking_80.prm

>  <SCORE>
-15.7308

>  <SCORE.INTER>
-15.3815

>  <SCORE.INTER.CONST>
1

>  <SCORE.INTER.POLAR>
0

>  <SCORE.INTER.ROT>
4

>  <SCORE.INTER.SOLV>
10.9225

>  <SCORE.INTER.VDW>
-20.1618

>  <SCORE.INTER.norm>
-0.854527

>  <SCORE.INTRA>
-0.349316

>  <SCORE.INTRA.DIHEDRAL>
-0.0281446

>  <SCORE.INTRA.DIHEDRAL.0>
3.20029

>  <SCORE.INTRA.POLAR>
0

>  <SCORE.INTRA.POLAR.0>
0

>  <SCORE.INTRA.REPUL>
0

>  <SCORE.INTRA.REPUL.0>
0

>  <SCORE.INTRA.SOLV>
0.628839

>  <SCORE.INTRA.SOLV.lig_0>
-19.3885

>  <SCORE.INTRA.VDW>
-0.649663

>  <SCORE.INTRA.VDW.0>
-1.12705

>  <SCORE.INTRA.norm>
-0.0194064

>  <SCORE.RESTR>
0

>  <SCORE.RESTR.CAVITY>
0

>  <SCORE.RESTR.norm>
0

>  <SCORE.SYSTEM>
0

>  <SCORE.SYSTEM.CONST>
0

>  <SCORE.SYSTEM.DIHEDRAL>
0

>  <SCORE.SYSTEM.SOLV>
0

>  <SCORE.SYSTEM.norm>
0

>  <SCORE.heavy>
18

>  <SCORE.norm>
-0.873933

>  <RMSD>
16.061

$$$$
lig.pdb
 OpenBabel11021811503D
libRbt.so/2013.1/901 2013/11/27
 18 19  0  0  0  0  0  0  0  0999 V2000
    7.0410   14.9305    8.5893 C   0  0  0  0  0  0  0  0  0  0  0  0
    3.5701   18.1288    7.4684 N   0  0  0  0  0  0  0  0  0  0  0  0
    4.3608   22.8055    7.7908 C   0  0  0  0  0  0  0  0  0  0  0  0
    5.9834   27.3027    9.5648 O   0  0  0  0  0  0  0  0  0  0  0  0
    5.8437   25.9409    9.9457 C   0  0  0  0  0  0  0  0  0  0  0  0
    6.3095   25.0175    8.8033 C   0  0  0  0  0  0  0  0  0  0  0  0
    6.4077   21.2345   10.5026 C   0  0  0  0  0  0  0  0  0  0  0  0
    7.1482   22.8002   10.5661 S   0  0  0  0  0  0  0  0  0  0  0  0
    6.1980   23.5885    9.2870 C   0  0  0  0  0  0  0  0  0  0  0  0
    5.3729   22.5625    8.8978 C   0  0  0  0  0  0  0  0  0  0  0  0
    5.5036   21.3612    9.5397 N   0  0  0  0  0  0  0  0  0  0  0  0
    4.6274   20.1866    9.1925 C   0  0  0  0  0  0  0  0  0  0  0  0
    4.7193   17.8299    8.2002 C   0  0  0  0  0  0  0  0  0  0  0  0
    5.3052   16.6000    8.0738 N   0  0  0  0  0  0  0  0  0  0  0  0
    6.4072   16.2903    8.7619 C   0  0  0  0  0  0  0  0  0  0  0  0
    6.9614   17.1768    9.5940 N   0  0  0  0  0  0  0  0  0  0  0  0
    6.4378   18.4180    9.7685 C   0  0  0  0  0  0  0  0  0  0  0  0
    5.2879   18.8037    9.0707 C   0  0  0  0  0  0  0  0  0  0  0  0
  5  4  1  0  0  0  0
  5  6  1  0  0  0  0
  7  8  2  0  0  0  0
  7 11  1  0  0  0  0
  8  9  1  0  0  0  0
  9 10  2  0  0  0  0
  9  6  1  0  0  0  0
 10  3  1  0  0  0  0
 11 12  1  0  0  0  0
 11 10  1  0  0  0  0
 12 18  1  0  0  0  0
 13  2  1  0  0  0  0
 13 14  2  0  0  0  0
 15 14  1  0  0  0  0
 15  1  1  0  0  0  0
 16 15  2  0  0  0  0
 17 18  2  0  0  0  0
 17 16  1  0  0  0  0
 18 13  1  0  0  0  0
M  END
>  <CHROM.1>
177.46292325,-67.13945912,-44.29552677,-151.45974706,5.84753041,20.83468308
9.18953937,-1.60171104,-0.65689362,0.09298279

>  <Name>
lig.pdb

>  <RI>
0

>  <Rbt.Current_Directory>
/home/itssahil/PROJECTS/Mol_Feturizer/New_Systems/rnas/4nyg

>  <Rbt.Executable>
rbdock ($Id: //depot/dev/client3/rdock/2013.1/src/exe/rbdock.cxx#4 $)

>  <Rbt.Library>
libRbt.so (2013.1, Build901 2013/11/27)

>  <Rbt.Parameter_File>
/export/apps/rDock/src/rDock_2013.1_src/data/scripts/dock_solv.prm

>  <Rbt.Receptor>
prm/blind_docking_60.prm

>  <SCORE>
-13.1795

>  <SCORE.INTER>
-13.7059

>  <SCORE.INTER.CONST>
1

>  <SCORE.INTER.POLAR>
0

>  <SCORE.INTER.ROT>
4

>  <SCORE.INTER.SOLV>
12.6563

>  <SCORE.INTER.VDW>
-19.6227

>  <SCORE.INTER.norm>
-0.761437

>  <SCORE.INTRA>
0.526331

>  <SCORE.INTRA.DIHEDRAL>
0.089871

>  <SCORE.INTRA.DIHEDRAL.0>
3.20029

>  <SCORE.INTRA.POLAR>
0

>  <SCORE.INTRA.POLAR.0>
0

>  <SCORE.INTRA.REPUL>
0

>  <SCORE.INTRA.REPUL.0>
0

>  <SCORE.INTRA.SOLV>
0.0367946

>  <SCORE.INTRA.SOLV.lig_0>
-19.3885

>  <SCORE.INTRA.VDW>
0.462998

>  <SCORE.INTRA.VDW.0>
-1.12705

>  <SCORE.INTRA.norm>
0.0292406

>  <SCORE.RESTR>
0

>  <SCORE.RESTR.CAVITY>
0

>  <SCORE.RESTR.norm>
0

>  <SCORE.SYSTEM>
0

>  <SCORE.SYSTEM.CONST>
0

>  <SCORE.SYSTEM.DIHEDRAL>
0

>  <SCORE.SYSTEM.SOLV>
0

>  <SCORE.SYSTEM.norm>
0

>  <SCORE.heavy>
18

>  <SCORE.norm>
-0.732196

>  <RMSD>
16.076

$$$$
lig.pdb
 OpenBabel11021811503D
libRbt.so/2013.1/901 2013/11/27
 18 19  0  0  0  0  0  0  0  0999 V2000
    6.9554   14.7893    8.6946 C   0  0  0  0  0  0  0  0  0  0  0  0
    3.6509   18.1035    7.4185 N   0  0  0  0  0  0  0  0  0  0  0  0
    5.4774   22.3371    7.0779 C   0  0  0  0  0  0  0  0  0  0  0  0
    5.7529   25.8570    9.4078 O   0  0  0  0  0  0  0  0  0  0  0  0
    7.1319   25.7676    9.0772 C   0  0  0  0  0  0  0  0  0  0  0  0
    7.3853   24.5446    8.1745 C   0  0  0  0  0  0  0  0  0  0  0  0
    6.2668   21.3774   10.6088 C   0  0  0  0  0  0  0  0  0  0  0  0
    7.2224   22.8228   10.5695 S   0  0  0  0  0  0  0  0  0  0  0  0
    6.8729   23.3193    8.8986 C   0  0  0  0  0  0  0  0  0  0  0  0
    6.0367   22.3097    8.4905 C   0  0  0  0  0  0  0  0  0  0  0  0
    5.7429   21.3224    9.3910 N   0  0  0  0  0  0  0  0  0  0  0  0
    4.8191   20.1870    9.0369 C   0  0  0  0  0  0  0  0  0  0  0  0
    4.7855   17.7822    8.1634 C   0  0  0  0  0  0  0  0  0  0  0  0
    5.3066   16.5188    8.0979 N   0  0  0  0  0  0  0  0  0  0  0  0
    6.3934   16.1871    8.7997 C   0  0  0  0  0  0  0  0  0  0  0  0
    6.9955   17.0839    9.5861 N   0  0  0  0  0  0  0  0  0  0  0  0
    6.5375   18.3577    9.6989 C   0  0  0  0  0  0  0  0  0  0  0  0
    5.4067   18.7673    8.9837 C   0  0  0  0  0  0  0  0  0  0  0  0
  5  4  1  0  0  0  0
  5  6  1  0  0  0  0
  7  8  2  0  0  0  0
  7 11  1  0  0  0  0
  8  9  1  0  0  0  0
  9 10  2  0  0  0  0
  9  6  1  0  0  0  0
 10  3  1  0  0  0  0
 11 12  1  0  0  0  0
 11 10  1  0  0  0  0
 12 18  1  0  0  0  0
 13  2  1  0  0  0  0
 13 14  2  0  0  0  0
 15 14  1  0  0  0  0
 15  1  1  0  0  0  0
 16 15  2  0  0  0  0
 17 18  2  0  0  0  0
 17 16  1  0  0  0  0
 18 13  1  0  0  0  0
M  END
>  <CHROM.1>
-56.32820763,-50.13875907,-66.19329760,-154.40666007,6.12435170,20.63870341
9.00888943,-1.71456062,-0.78758164,-0.02546313

>  <Name>
lig.pdb

>  <RI>
0

>  <Rbt.Current_Directory>
/home/itssahil/PROJECTS/Mol_Feturizer/New_Systems/rnas/4nyg

>  <Rbt.Executable>
rbdock ($Id: //depot/dev/client3/rdock/2013.1/src/exe/rbdock.cxx#4 $)

>  <Rbt.Library>
libRbt.so (2013.1, Build901 2013/11/27)

>  <Rbt.Parameter_File>
/export/apps/rDock/src/rDock_2013.1_src/data/scripts/dock_solv.prm

>  <Rbt.Receptor>
prm/blind_docking_100.prm

>  <SCORE>
-14.9468

>  <SCORE.INTER>
-14.9969

>  <SCORE.INTER.CONST>
1

>  <SCORE.INTER.POLAR>
0

>  <SCORE.INTER.ROT>
4

>  <SCORE.INTER.SOLV>
14.1025

>  <SCORE.INTER.VDW>
-20.9654

>  <SCORE.INTER.norm>
-0.833162

>  <SCORE.INTRA>
0.0500978

>  <SCORE.INTRA.DIHEDRAL>
0.12022

>  <SCORE.INTRA.DIHEDRAL.0>
3.20029

>  <SCORE.INTRA.POLAR>
0

>  <SCORE.INTRA.POLAR.0>
0

>  <SCORE.INTRA.REPUL>
0

>  <SCORE.INTRA.REPUL.0>
0

>  <SCORE.INTRA.SOLV>
0.515349

>  <SCORE.INTRA.SOLV.lig_0>
-19.3885

>  <SCORE.INTRA.VDW>
-0.267687

>  <SCORE.INTRA.VDW.0>
-1.12705

>  <SCORE.INTRA.norm>
0.00278321

>  <SCORE.RESTR>
0

>  <SCORE.RESTR.CAVITY>
0

>  <SCORE.RESTR.norm>
0

>  <SCORE.SYSTEM>
0

>  <SCORE.SYSTEM.CONST>
0

>  <SCORE.SYSTEM.DIHEDRAL>
0

>  <SCORE.SYSTEM.SOLV>
0

>  <SCORE.SYSTEM.norm>
0

>  <SCORE.heavy>
18

>  <SCORE.norm>
-0.830379

>  <RMSD>
16.084

$$$$
lig.pdb
 OpenBabel11021811503D
libRbt.so/2013.1/901 2013/11/27
 18 19  0  0  0  0  0  0  0  0999 V2000
    7.5559   26.3429    8.6678 C   0  0  0  0  0  0  0  0  0  0  0  0
    6.0604   22.0843    6.8903 N   0  0  0  0  0  0  0  0  0  0  0  0
    5.0927   20.4385   10.4026 C   0  0  0  0  0  0  0  0  0  0  0  0
    7.7515   17.7679    7.7550 O   0  0  0  0  0  0  0  0  0  0  0  0
    7.4544   17.8393    9.1427 C   0  0  0  0  0  0  0  0  0  0  0  0
    5.9468   17.6219    9.3767 C   0  0  0  0  0  0  0  0  0  0  0  0
    3.8800   20.2006    6.8693 C   0  0  0  0  0  0  0  0  0  0  0  0
    4.6084   18.6296    6.9435 S   0  0  0  0  0  0  0  0  0  0  0  0
    5.1998   18.6969    8.6187 C   0  0  0  0  0  0  0  0  0  0  0  0
    4.7884   19.9513    8.9959 C   0  0  0  0  0  0  0  0  0  0  0  0
    4.1124   20.7040    8.0748 N   0  0  0  0  0  0  0  0  0  0  0  0
    3.6062   22.0829    8.4075 C   0  0  0  0  0  0  0  0  0  0  0  0
    5.8249   23.1671    7.7374 C   0  0  0  0  0  0  0  0  0  0  0  0
    6.7396   24.1816    7.8144 N   0  0  0  0  0  0  0  0  0  0  0  0
    6.5361   25.2302    8.6161 C   0  0  0  0  0  0  0  0  0  0  0  0
    5.4327   25.3099    9.3654 N   0  0  0  0  0  0  0  0  0  0  0  0
    4.4792   24.3428    9.3390 C   0  0  0  0  0  0  0  0  0  0  0  0
    4.6322   23.2228    8.5143 C   0  0  0  0  0  0  0  0  0  0  0  0
  5  4  1  0  0  0  0
  5  6  1  0  0  0  0
  7  8  2  0  0  0  0
  7 11  1  0  0  0  0
  8  9  1  0  0  0  0
  9 10  2  0  0  0  0
  9  6  1  0  0  0  0
 10  3  1  0  0  0  0
 11 12  1  0  0  0  0
 11 10  1  0  0  0  0
 12 18  1  0  0  0  0
 13  2  1  0  0  0  0
 13 14  2  0  0  0  0
 15 14  1  0  0  0  0
 15  1  1  0  0  0  0
 16 15  2  0  0  0  0
 17 18  2  0  0  0  0
 17 16  1  0  0  0  0
 18 13  1  0  0  0  0
M  END
>  <CHROM.1>
-59.26481186,90.05191199,-107.49878021,29.51213679,5.51359162,21.30501957
8.32014208,-1.52300483,0.19343296,-3.07991099

>  <Name>
lig.pdb

>  <RI>
0

>  <Rbt.Current_Directory>
/home/itssahil/PROJECTS/Mol_Feturizer/New_Systems/rnas/4nyg

>  <Rbt.Executable>
rbdock ($Id: //depot/dev/client3/rdock/2013.1/src/exe/rbdock.cxx#4 $)

>  <Rbt.Library>
libRbt.so (2013.1, Build901 2013/11/27)

>  <Rbt.Parameter_File>
/export/apps/rDock/src/rDock_2013.1_src/data/scripts/dock_solv.prm

>  <Rbt.Receptor>
prm/blind_docking_60.prm

>  <SCORE>
-13.2464

>  <SCORE.INTER>
-13.8773

>  <SCORE.INTER.CONST>
1

>  <SCORE.INTER.POLAR>
0

>  <SCORE.INTER.ROT>
4

>  <SCORE.INTER.SOLV>
12.5532

>  <SCORE.INTER.VDW>
-19.7026

>  <SCORE.INTER.norm>
-0.770962

>  <SCORE.INTRA>
0.6309

>  <SCORE.INTRA.DIHEDRAL>
1.21891

>  <SCORE.INTRA.DIHEDRAL.0>
3.20029

>  <SCORE.INTRA.POLAR>
0

>  <SCORE.INTRA.POLAR.0>
0

>  <SCORE.INTRA.REPUL>
0

>  <SCORE.INTRA.REPUL.0>
0

>  <SCORE.INTRA.SOLV>
1.97702

>  <SCORE.INTRA.SOLV.lig_0>
-19.3885

>  <SCORE.INTRA.VDW>
-0.967064

>  <SCORE.INTRA.VDW.0>
-1.12705

>  <SCORE.INTRA.norm>
0.03505

>  <SCORE.RESTR>
0

>  <SCORE.RESTR.CAVITY>
0

>  <SCORE.RESTR.norm>
0

>  <SCORE.SYSTEM>
0

>  <SCORE.SYSTEM.CONST>
0

>  <SCORE.SYSTEM.DIHEDRAL>
0

>  <SCORE.SYSTEM.SOLV>
0

>  <SCORE.SYSTEM.norm>
0

>  <SCORE.heavy>
18

>  <SCORE.norm>
-0.735912

>  <RMSD>
16.086

$$$$
lig.pdb
 OpenBabel11021811503D
libRbt.so/2013.1/901 2013/11/27
 18 19  0  0  0  0  0  0  0  0999 V2000
    7.3219   26.4210    8.5344 C   0  0  0  0  0  0  0  0  0  0  0  0
    6.0178   21.8718    7.4686 N   0  0  0  0  0  0  0  0  0  0  0  0
    3.2438   20.6917    8.0102 C   0  0  0  0  0  0  0  0  0  0  0  0
    2.5556   16.4178    5.5395 O   0  0  0  0  0  0  0  0  0  0  0  0
    3.4090   16.9036    6.5664 C   0  0  0  0  0  0  0  0  0  0  0  0
    3.9806   18.2808    6.1772 C   0  0  0  0  0  0  0  0  0  0  0  0
    6.4850   19.3429    9.3091 C   0  0  0  0  0  0  0  0  0  0  0  0
    6.2918   18.2054    8.0157 S   0  0  0  0  0  0  0  0  0  0  0  0
    4.7543   18.8139    7.3628 C   0  0  0  0  0  0  0  0  0  0  0  0
    4.5006   19.8620    8.2126 C   0  0  0  0  0  0  0  0  0  0  0  0
    5.4077   20.1107    9.2062 N   0  0  0  0  0  0  0  0  0  0  0  0
    5.2212   21.2516   10.1714 C   0  0  0  0  0  0  0  0  0  0  0  0
    6.1589   22.8736    8.4287 C   0  0  0  0  0  0  0  0  0  0  0  0
    6.6500   24.0981    8.0667 N   0  0  0  0  0  0  0  0  0  0  0  0
    6.7925   25.0744    8.9669 C   0  0  0  0  0  0  0  0  0  0  0  0
    6.4602   24.8747   10.2456 N   0  0  0  0  0  0  0  0  0  0  0  0
    5.9633   23.6867   10.6780 C   0  0  0  0  0  0  0  0  0  0  0  0
    5.7850   22.6275    9.7811 C   0  0  0  0  0  0  0  0  0  0  0  0
  5  4  1  0  0  0  0
  5  6  1  0  0  0  0
  7  8  2  0  0  0  0
  7 11  1  0  0  0  0
  8  9  1  0  0  0  0
  9 10  2  0  0  0  0
  9  6  1  0  0  0  0
 10  3  1  0  0  0  0
 11 12  1  0  0  0  0
 11 10  1  0  0  0  0
 12 18  1  0  0  0  0
 13  2  1  0  0  0  0
 13 14  2  0  0  0  0
 15 14  1  0  0  0  0
 15  1  1  0  0  0  0
 16 15  2  0  0  0  0
 17 18  2  0  0  0  0
 17 16  1  0  0  0  0
 18 13  1  0  0  0  0
M  END
>  <CHROM.1>
173.91335006,69.45572710,90.73446222,15.33026640,5.41409453,20.93816247,8.30842352
1.00905071,-0.91805515,-0.12885014

>  <Name>
lig.pdb

>  <RI>
0

>  <Rbt.Current_Directory>
/home/itssahil/PROJECTS/Mol_Feturizer/New_Systems/rnas/4nyg

>  <Rbt.Executable>
rbdock ($Id: //depot/dev/client3/rdock/2013.1/src/exe/rbdock.cxx#4 $)

>  <Rbt.Library>
libRbt.so (2013.1, Build901 2013/11/27)

>  <Rbt.Parameter_File>
/export/apps/rDock/src/rDock_2013.1_src/data/scripts/dock_solv.prm

>  <Rbt.Receptor>
prm/blind_docking_80.prm

>  <SCORE>
-8.12536

>  <SCORE.INTER>
-9.35918

>  <SCORE.INTER.CONST>
1

>  <SCORE.INTER.POLAR>
0

>  <SCORE.INTER.ROT>
4

>  <SCORE.INTER.SOLV>
9.01922

>  <SCORE.INTER.VDW>
-15.5125

>  <SCORE.INTER.norm>
-0.519955

>  <SCORE.INTRA>
1.23382

>  <SCORE.INTRA.DIHEDRAL>
0.280682

>  <SCORE.INTRA.DIHEDRAL.0>
3.20029

>  <SCORE.INTRA.POLAR>
0

>  <SCORE.INTRA.POLAR.0>
0

>  <SCORE.INTRA.REPUL>
0

>  <SCORE.INTRA.REPUL.0>
0

>  <SCORE.INTRA.SOLV>
1.96912

>  <SCORE.INTRA.SOLV.lig_0>
-19.3885

>  <SCORE.INTRA.VDW>
0.108923

>  <SCORE.INTRA.VDW.0>
-1.12705

>  <SCORE.INTRA.norm>
0.0685458

>  <SCORE.RESTR>
0

>  <SCORE.RESTR.CAVITY>
0

>  <SCORE.RESTR.norm>
0

>  <SCORE.SYSTEM>
0

>  <SCORE.SYSTEM.CONST>
0

>  <SCORE.SYSTEM.DIHEDRAL>
0

>  <SCORE.SYSTEM.SOLV>
0

>  <SCORE.SYSTEM.norm>
0

>  <SCORE.heavy>
18

>  <SCORE.norm>
-0.451409

>  <RMSD>
16.156

$$$$
lig.pdb
 OpenBabel11021811503D
libRbt.so/2013.1/901 2013/11/27
 18 19  0  0  0  0  0  0  0  0999 V2000
    6.7768   26.2074    9.0404 C   0  0  0  0  0  0  0  0  0  0  0  0
    3.4691   22.6799    8.6560 N   0  0  0  0  0  0  0  0  0  0  0  0
    4.5710   19.1442    9.3142 C   0  0  0  0  0  0  0  0  0  0  0  0
    6.5026   14.3487    9.7721 O   0  0  0  0  0  0  0  0  0  0  0  0
    6.5555   15.4306    8.8524 C   0  0  0  0  0  0  0  0  0  0  0  0
    6.5724   16.7730    9.6091 C   0  0  0  0  0  0  0  0  0  0  0  0
    7.0931   19.5583    6.5794 C   0  0  0  0  0  0  0  0  0  0  0  0
    7.7732   18.1220    7.2713 S   0  0  0  0  0  0  0  0  0  0  0  0
    6.5967   17.8840    8.5828 C   0  0  0  0  0  0  0  0  0  0  0  0
    5.7593   18.9540    8.3864 C   0  0  0  0  0  0  0  0  0  0  0  0
    6.0395   19.8005    7.3487 N   0  0  0  0  0  0  0  0  0  0  0  0
    5.1641   20.9882    7.0466 C   0  0  0  0  0  0  0  0  0  0  0  0
    4.7405   23.1567    8.3371 C   0  0  0  0  0  0  0  0  0  0  0  0
    5.1421   24.3815    8.7959 N   0  0  0  0  0  0  0  0  0  0  0  0
    6.3553   24.8593    8.5062 C   0  0  0  0  0  0  0  0  0  0  0  0
    7.2046   24.1505    7.7569 N   0  0  0  0  0  0  0  0  0  0  0  0
    6.8770   22.9257    7.2691 C   0  0  0  0  0  0  0  0  0  0  0  0
    5.6230   22.3688    7.5436 C   0  0  0  0  0  0  0  0  0  0  0  0
  5  4  1  0  0  0  0
  5  6  1  0  0  0  0
  7  8  2  0  0  0  0
  7 11  1  0  0  0  0
  8  9  1  0  0  0  0
  9 10  2  0  0  0  0
  9  6  1  0  0  0  0
 10  3  1  0  0  0  0
 11 12  1  0  0  0  0
 11 10  1  0  0  0  0
 12 18  1  0  0  0  0
 13  2  1  0  0  0  0
 13 14  2  0  0  0  0
 15 14  1  0  0  0  0
 15  1  1  0  0  0  0
 16 15  2  0  0  0  0
 17 18  2  0  0  0  0
 17 16  1  0  0  0  0
 18 13  1  0  0  0  0
M  END
>  <CHROM.1>
-178.72650401,-55.69211460,-81.36836042,-126.15693931,6.16649108,20.41045974
8.21970057,-1.68430695,-0.56979261,3.02783813

>  <Name>
lig.pdb

>  <RI>
0

>  <Rbt.Current_Directory>
/home/itssahil/PROJECTS/Mol_Feturizer/New_Systems/rnas/4nyg

>  <Rbt.Executable>
rbdock ($Id: //depot/dev/client3/rdock/2013.1/src/exe/rbdock.cxx#4 $)

>  <Rbt.Library>
libRbt.so (2013.1, Build901 2013/11/27)

>  <Rbt.Parameter_File>
/export/apps/rDock/src/rDock_2013.1_src/data/scripts/dock_solv.prm

>  <Rbt.Receptor>
prm/blind_docking_60.prm

>  <SCORE>
-16.6923

>  <SCORE.INTER>
-16.2366

>  <SCORE.INTER.CONST>
1

>  <SCORE.INTER.POLAR>
0

>  <SCORE.INTER.ROT>
4

>  <SCORE.INTER.SOLV>
14.3857

>  <SCORE.INTER.VDW>
-21.8863

>  <SCORE.INTER.norm>
-0.902035

>  <SCORE.INTRA>
-0.455632

>  <SCORE.INTRA.DIHEDRAL>
-0.101057

>  <SCORE.INTRA.DIHEDRAL.0>
3.20029

>  <SCORE.INTRA.POLAR>
0

>  <SCORE.INTRA.POLAR.0>
0

>  <SCORE.INTRA.REPUL>
0

>  <SCORE.INTRA.REPUL.0>
0

>  <SCORE.INTRA.SOLV>
0.253363

>  <SCORE.INTRA.SOLV.lig_0>
-19.3885

>  <SCORE.INTRA.VDW>
-0.531785

>  <SCORE.INTRA.VDW.0>
-1.12705

>  <SCORE.INTRA.norm>
-0.0253129

>  <SCORE.RESTR>
0

>  <SCORE.RESTR.CAVITY>
0

>  <SCORE.RESTR.norm>
0

>  <SCORE.SYSTEM>
0

>  <SCORE.SYSTEM.CONST>
0

>  <SCORE.SYSTEM.DIHEDRAL>
0

>  <SCORE.SYSTEM.SOLV>
0

>  <SCORE.SYSTEM.norm>
0

>  <SCORE.heavy>
18

>  <SCORE.norm>
-0.927348

>  <RMSD>
16.179

$$$$
lig.pdb
 OpenBabel11021811503D
libRbt.so/2013.1/901 2013/11/27
 18 19  0  0  0  0  0  0  0  0999 V2000
    6.8904   25.7423    8.7154 C   0  0  0  0  0  0  0  0  0  0  0  0
    4.4784   22.2408   11.0507 N   0  0  0  0  0  0  0  0  0  0  0  0
    4.2717   17.7624    7.4712 C   0  0  0  0  0  0  0  0  0  0  0  0
    5.8690   14.7243   10.1163 O   0  0  0  0  0  0  0  0  0  0  0  0
    6.8586   14.6698    9.0982 C   0  0  0  0  0  0  0  0  0  0  0  0
    6.4958   15.6320    7.9503 C   0  0  0  0  0  0  0  0  0  0  0  0
    6.7617   19.3495    9.7718 C   0  0  0  0  0  0  0  0  0  0  0  0
    7.5655   17.8214    9.6205 S   0  0  0  0  0  0  0  0  0  0  0  0
    6.4114   17.0288    8.5249 C   0  0  0  0  0  0  0  0  0  0  0  0
    5.4747   18.0194    8.3632 C   0  0  0  0  0  0  0  0  0  0  0  0
    5.6796   19.2032    9.0179 N   0  0  0  0  0  0  0  0  0  0  0  0
    4.7151   20.3519    8.8826 C   0  0  0  0  0  0  0  0  0  0  0  0
    5.1456   22.6600    9.8999 C   0  0  0  0  0  0  0  0  0  0  0  0
    5.6666   23.9236    9.8381 N   0  0  0  0  0  0  0  0  0  0  0  0
    6.3117   24.3478    8.7483 C   0  0  0  0  0  0  0  0  0  0  0  0
    6.4600   23.5458    7.6899 N   0  0  0  0  0  0  0  0  0  0  0  0
    5.9726   22.2779    7.6798 C   0  0  0  0  0  0  0  0  0  0  0  0
    5.2930   21.7738    8.7943 C   0  0  0  0  0  0  0  0  0  0  0  0
  5  4  1  0  0  0  0
  5  6  1  0  0  0  0
  7  8  2  0  0  0  0
  7 11  1  0  0  0  0
  8  9  1  0  0  0  0
  9 10  2  0  0  0  0
  9  6  1  0  0  0  0
 10  3  1  0  0  0  0
 11 12  1  0  0  0  0
 11 10  1  0  0  0  0
 12 18  1  0  0  0  0
 13  2  1  0  0  0  0
 13 14  2  0  0  0  0
 15 14  1  0  0  0  0
 15  1  1  0  0  0  0
 16 15  2  0  0  0  0
 17 18  2  0  0  0  0
 17 16  1  0  0  0  0
 18 13  1  0  0  0  0
M  END
>  <CHROM.1>
59.55702838,46.38768155,38.11584805,-108.18932958,6.02143261,19.84513520
9.01021776,-1.63096257,0.51577629,-3.11618415

>  <Name>
lig.pdb

>  <RI>
0

>  <Rbt.Current_Directory>
/home/itssahil/PROJECTS/Mol_Feturizer/New_Systems/rnas/4nyg

>  <Rbt.Executable>
rbdock ($Id: //depot/dev/client3/rdock/2013.1/src/exe/rbdock.cxx#4 $)

>  <Rbt.Library>
libRbt.so (2013.1, Build901 2013/11/27)

>  <Rbt.Parameter_File>
/export/apps/rDock/src/rDock_2013.1_src/data/scripts/dock_solv.prm

>  <Rbt.Receptor>
prm/blind_docking_100.prm

>  <SCORE>
-15.819

>  <SCORE.INTER>
-16.0156

>  <SCORE.INTER.CONST>
1

>  <SCORE.INTER.POLAR>
0

>  <SCORE.INTER.ROT>
4

>  <SCORE.INTER.SOLV>
12.1682

>  <SCORE.INTER.VDW>
-20.9998

>  <SCORE.INTER.norm>
-0.889753

>  <SCORE.INTRA>
0.196554

>  <SCORE.INTRA.DIHEDRAL>
0.197563

>  <SCORE.INTRA.DIHEDRAL.0>
3.20029

>  <SCORE.INTRA.POLAR>
0

>  <SCORE.INTRA.POLAR.0>
0

>  <SCORE.INTRA.REPUL>
0

>  <SCORE.INTRA.REPUL.0>
0

>  <SCORE.INTRA.SOLV>
0.69605

>  <SCORE.INTRA.SOLV.lig_0>
-19.3885

>  <SCORE.INTRA.VDW>
-0.250253

>  <SCORE.INTRA.VDW.0>
-1.12705

>  <SCORE.INTRA.norm>
0.0109196

>  <SCORE.RESTR>
0

>  <SCORE.RESTR.CAVITY>
0

>  <SCORE.RESTR.norm>
0

>  <SCORE.SYSTEM>
0

>  <SCORE.SYSTEM.CONST>
0

>  <SCORE.SYSTEM.DIHEDRAL>
0

>  <SCORE.SYSTEM.SOLV>
0

>  <SCORE.SYSTEM.norm>
0

>  <SCORE.heavy>
18

>  <SCORE.norm>
-0.878834

>  <RMSD>
16.210

$$$$
lig.pdb
 OpenBabel11021811503D
libRbt.so/2013.1/901 2013/11/27
 18 19  0  0  0  0  0  0  0  0999 V2000
    6.2595   26.6072    9.7401 C   0  0  0  0  0  0  0  0  0  0  0  0
    4.7109   22.2152   11.0984 N   0  0  0  0  0  0  0  0  0  0  0  0
    5.1801   19.2903   10.4527 C   0  0  0  0  0  0  0  0  0  0  0  0
    6.8767   15.6631    7.6631 O   0  0  0  0  0  0  0  0  0  0  0  0
    6.6093   15.9205    9.0347 C   0  0  0  0  0  0  0  0  0  0  0  0
    7.3007   17.2248    9.4768 C   0  0  0  0  0  0  0  0  0  0  0  0
    5.9284   20.1636    6.8905 C   0  0  0  0  0  0  0  0  0  0  0  0
    7.0136   18.8170    7.0050 S   0  0  0  0  0  0  0  0  0  0  0  0
    6.6873   18.3639    8.6928 C   0  0  0  0  0  0  0  0  0  0  0  0
    5.7551   19.3078    9.0462 C   0  0  0  0  0  0  0  0  0  0  0  0
    5.3839   20.2227    8.0991 N   0  0  0  0  0  0  0  0  0  0  0  0
    4.3535   21.2813    8.3919 C   0  0  0  0  0  0  0  0  0  0  0  0
    5.0059   23.1042   10.0649 C   0  0  0  0  0  0  0  0  0  0  0  0
    5.4567   24.3622   10.3579 N   0  0  0  0  0  0  0  0  0  0  0  0
    5.7481   25.2310    9.3863 C   0  0  0  0  0  0  0  0  0  0  0  0
    5.6021   24.8903    8.1026 N   0  0  0  0  0  0  0  0  0  0  0  0
    5.1627   23.6585    7.7353 C   0  0  0  0  0  0  0  0  0  0  0  0
    4.8473   22.7026    8.7073 C   0  0  0  0  0  0  0  0  0  0  0  0
  5  4  1  0  0  0  0
  5  6  1  0  0  0  0
  7  8  2  0  0  0  0
  7 11  1  0  0  0  0
  8  9  1  0  0  0  0
  9 10  2  0  0  0  0
  9  6  1  0  0  0  0
 10  3  1  0  0  0  0
 11 12  1  0  0  0  0
 11 10  1  0  0  0  0
 12 18  1  0  0  0  0
 13  2  1  0  0  0  0
 13 14  2  0  0  0  0
 15 14  1  0  0  0  0
 15  1  1  0  0  0  0
 16 15  2  0  0  0  0
 17 18  2  0  0  0  0
 17 16  1  0  0  0  0
 18 13  1  0  0  0  0
M  END
>  <CHROM.1>
63.84947175,-77.65909415,-80.00303018,-95.68652804,5.87266810,20.84353706
8.75732575,-2.16566582,-1.28102524,2.71465128

>  <Name>
lig.pdb

>  <RI>
0

>  <Rbt.Current_Directory>
/home/itssahil/PROJECTS/Mol_Feturizer/New_Systems/rnas/4nyg

>  <Rbt.Executable>
rbdock ($Id: //depot/dev/client3/rdock/2013.1/src/exe/rbdock.cxx#4 $)

>  <Rbt.Library>
libRbt.so (2013.1, Build901 2013/11/27)

>  <Rbt.Parameter_File>
/export/apps/rDock/src/rDock_2013.1_src/data/scripts/dock_solv.prm

>  <Rbt.Receptor>
prm/blind_docking_60.prm

>  <SCORE>
-14.1002

>  <SCORE.INTER>
-14.3463

>  <SCORE.INTER.CONST>
1

>  <SCORE.INTER.POLAR>
0

>  <SCORE.INTER.ROT>
4

>  <SCORE.INTER.SOLV>
12.3888

>  <SCORE.INTER.VDW>
-19.9605

>  <SCORE.INTER.norm>
-0.797017

>  <SCORE.INTRA>
0.134765

>  <SCORE.INTRA.DIHEDRAL>
0.465701

>  <SCORE.INTRA.DIHEDRAL.0>
3.20029

>  <SCORE.INTRA.POLAR>
0

>  <SCORE.INTRA.POLAR.0>
0

>  <SCORE.INTRA.REPUL>
0

>  <SCORE.INTRA.REPUL.0>
0

>  <SCORE.INTRA.SOLV>
1.13801

>  <SCORE.INTRA.SOLV.lig_0>
-19.3885

>  <SCORE.INTRA.VDW>
-0.667091

>  <SCORE.INTRA.VDW.0>
-1.12705

>  <SCORE.INTRA.norm>
0.00748696

>  <SCORE.RESTR>
0.111389

>  <SCORE.RESTR.CAVITY>
0.111389

>  <SCORE.RESTR.norm>
0.0061883

>  <SCORE.SYSTEM>
0

>  <SCORE.SYSTEM.CONST>
0

>  <SCORE.SYSTEM.DIHEDRAL>
0

>  <SCORE.SYSTEM.SOLV>
0

>  <SCORE.SYSTEM.norm>
0

>  <SCORE.heavy>
18

>  <SCORE.norm>
-0.783342

>  <RMSD>
16.237

$$$$
lig.pdb
 OpenBabel11021811503D
libRbt.so/2013.1/901 2013/11/27
 18 19  0  0  0  0  0  0  0  0999 V2000
    6.9331   25.8253    8.7294 C   0  0  0  0  0  0  0  0  0  0  0  0
    5.6657   21.6034    6.7041 N   0  0  0  0  0  0  0  0  0  0  0  0
    4.2265   17.9463    7.6632 C   0  0  0  0  0  0  0  0  0  0  0  0
    6.6903   13.4281    8.5214 O   0  0  0  0  0  0  0  0  0  0  0  0
    6.6103   14.7336    9.0766 C   0  0  0  0  0  0  0  0  0  0  0  0
    6.4481   15.7799    7.9569 C   0  0  0  0  0  0  0  0  0  0  0  0
    6.8081   19.3995    9.9513 C   0  0  0  0  0  0  0  0  0  0  0  0
    7.5934   17.8756    9.6957 S   0  0  0  0  0  0  0  0  0  0  0  0
    6.3953   17.1466    8.6031 C   0  0  0  0  0  0  0  0  0  0  0  0
    5.4619   18.1503    8.5241 C   0  0  0  0  0  0  0  0  0  0  0  0
    5.6993   19.2984    9.2295 N   0  0  0  0  0  0  0  0  0  0  0  0
    4.7403   20.4587    9.1857 C   0  0  0  0  0  0  0  0  0  0  0  0
    5.7646   22.3880    7.8530 C   0  0  0  0  0  0  0  0  0  0  0  0
    6.2764   23.6541    7.7698 N   0  0  0  0  0  0  0  0  0  0  0  0
    6.3794   24.4259    8.8550 C   0  0  0  0  0  0  0  0  0  0  0  0
    5.9865   23.9755   10.0500 N   0  0  0  0  0  0  0  0  0  0  0  0
    5.4658   22.7311   10.2092 C   0  0  0  0  0  0  0  0  0  0  0  0
    5.3265   21.8779    9.1089 C   0  0  0  0  0  0  0  0  0  0  0  0
  5  4  1  0  0  0  0
  5  6  1  0  0  0  0
  7  8  2  0  0  0  0
  7 11  1  0  0  0  0
  8  9  1  0  0  0  0
  9 10  2  0  0  0  0
  9  6  1  0  0  0  0
 10  3  1  0  0  0  0
 11 12  1  0  0  0  0
 11 10  1  0  0  0  0
 12 18  1  0  0  0  0
 13  2  1  0  0  0  0
 13 14  2  0  0  0  0
 15 14  1  0  0  0  0
 15  1  1  0  0  0  0
 16 15  2  0  0  0  0
 17 18  2  0  0  0  0
 17 16  1  0  0  0  0
 18 13  1  0  0  0  0
M  END
>  <CHROM.1>
-178.93438590,55.62527242,39.77993314,80.61019549,6.14083502,19.81688025
8.81509847,-1.64275346,0.85161979,-3.07734336

>  <Name>
lig.pdb

>  <RI>
0

>  <Rbt.Current_Directory>
/home/itssahil/PROJECTS/Mol_Feturizer/New_Systems/rnas/4nyg

>  <Rbt.Executable>
rbdock ($Id: //depot/dev/client3/rdock/2013.1/src/exe/rbdock.cxx#4 $)

>  <Rbt.Library>
libRbt.so (2013.1, Build901 2013/11/27)

>  <Rbt.Parameter_File>
/export/apps/rDock/src/rDock_2013.1_src/data/scripts/dock_solv.prm

>  <Rbt.Receptor>
prm/blind_docking_80.prm

>  <SCORE>
-16.2149

>  <SCORE.INTER>
-16.0848

>  <SCORE.INTER.CONST>
1

>  <SCORE.INTER.POLAR>
0

>  <SCORE.INTER.ROT>
4

>  <SCORE.INTER.SOLV>
11.2583

>  <SCORE.INTER.VDW>
-20.7426

>  <SCORE.INTER.norm>
-0.8936

>  <SCORE.INTRA>
-0.130054

>  <SCORE.INTRA.DIHEDRAL>
-0.0949592

>  <SCORE.INTRA.DIHEDRAL.0>
3.20029

>  <SCORE.INTRA.POLAR>
0

>  <SCORE.INTRA.POLAR.0>
0

>  <SCORE.INTRA.REPUL>
0

>  <SCORE.INTRA.REPUL.0>
0

>  <SCORE.INTRA.SOLV>
0.587579

>  <SCORE.INTRA.SOLV.lig_0>
-19.3885

>  <SCORE.INTRA.VDW>
-0.376364

>  <SCORE.INTRA.VDW.0>
-1.12705

>  <SCORE.INTRA.norm>
-0.00722524

>  <SCORE.RESTR>
0

>  <SCORE.RESTR.CAVITY>
0

>  <SCORE.RESTR.norm>
0

>  <SCORE.SYSTEM>
0

>  <SCORE.SYSTEM.CONST>
0

>  <SCORE.SYSTEM.DIHEDRAL>
0

>  <SCORE.SYSTEM.SOLV>
0

>  <SCORE.SYSTEM.norm>
0

>  <SCORE.heavy>
18

>  <SCORE.norm>
-0.900825

>  <RMSD>
16.237

$$$$
lig.pdb
 OpenBabel11021811503D
libRbt.so/2013.1/901 2013/11/27
 18 19  0  0  0  0  0  0  0  0999 V2000
    7.5105   26.5970    8.7675 C   0  0  0  0  0  0  0  0  0  0  0  0
    6.4613   22.2382    6.9150 N   0  0  0  0  0  0  0  0  0  0  0  0
    4.3693   19.6017    6.6264 C   0  0  0  0  0  0  0  0  0  0  0  0
    7.6618   17.7646    7.9433 O   0  0  0  0  0  0  0  0  0  0  0  0
    6.8145   16.7824    8.5232 C   0  0  0  0  0  0  0  0  0  0  0  0
    5.3402   17.0909    8.1975 C   0  0  0  0  0  0  0  0  0  0  0  0
    4.6202   20.6446   10.2126 C   0  0  0  0  0  0  0  0  0  0  0  0
    5.1219   19.0013   10.4403 S   0  0  0  0  0  0  0  0  0  0  0  0
    5.0205   18.4627    8.7490 C   0  0  0  0  0  0  0  0  0  0  0  0
    4.5929   19.6108    8.1294 C   0  0  0  0  0  0  0  0  0  0  0  0
    4.3936   20.7185    8.9073 N   0  0  0  0  0  0  0  0  0  0  0  0
    3.9447   22.0263    8.3103 C   0  0  0  0  0  0  0  0  0  0  0  0
    6.0960   23.2936    7.7505 C   0  0  0  0  0  0  0  0  0  0  0  0
    6.9186   24.3799    7.8731 N   0  0  0  0  0  0  0  0  0  0  0  0
    6.5902   25.4041    8.6649 C   0  0  0  0  0  0  0  0  0  0  0  0
    5.4488   25.3885    9.3594 N   0  0  0  0  0  0  0  0  0  0  0  0
    4.5812   24.3460    9.2856 C   0  0  0  0  0  0  0  0  0  0  0  0
    4.8664   23.2466    8.4683 C   0  0  0  0  0  0  0  0  0  0  0  0
  5  4  1  0  0  0  0
  5  6  1  0  0  0  0
  7  8  2  0  0  0  0
  7 11  1  0  0  0  0
  8  9  1  0  0  0  0
  9 10  2  0  0  0  0
  9  6  1  0  0  0  0
 10  3  1  0  0  0  0
 11 12  1  0  0  0  0
 11 10  1  0  0  0  0
 12 18  1  0  0  0  0
 13  2  1  0  0  0  0
 13 14  2  0  0  0  0
 15 14  1  0  0  0  0
 15  1  1  0  0  0  0
 16 15  2  0  0  0  0
 17 18  2  0  0  0  0
 17 16  1  0  0  0  0
 18 13  1  0  0  0  0
M  END
>  <CHROM.1>
-59.13752446,-59.59146380,59.64146077,70.22780880,5.57535758,21.26340772
8.62576911,-1.47867838,-0.65725119,-3.09933268

>  <Name>
lig.pdb

>  <RI>
0

>  <Rbt.Current_Directory>
/home/itssahil/PROJECTS/Mol_Feturizer/New_Systems/rnas/4nyg

>  <Rbt.Executable>
rbdock ($Id: //depot/dev/client3/rdock/2013.1/src/exe/rbdock.cxx#4 $)

>  <Rbt.Library>
libRbt.so (2013.1, Build901 2013/11/27)

>  <Rbt.Parameter_File>
/export/apps/rDock/src/rDock_2013.1_src/data/scripts/dock_solv.prm

>  <Rbt.Receptor>
prm/blind_docking_40.prm

>  <SCORE>
-14.9359

>  <SCORE.INTER>
-14.7315

>  <SCORE.INTER.CONST>
1

>  <SCORE.INTER.POLAR>
0

>  <SCORE.INTER.ROT>
4

>  <SCORE.INTER.SOLV>
12.8135

>  <SCORE.INTER.VDW>
-20.3588

>  <SCORE.INTER.norm>
-0.818415

>  <SCORE.INTRA>
-0.210767

>  <SCORE.INTRA.DIHEDRAL>
-0.077177

>  <SCORE.INTRA.DIHEDRAL.0>
3.20029

>  <SCORE.INTRA.POLAR>
0

>  <SCORE.INTRA.POLAR.0>
0

>  <SCORE.INTRA.REPUL>
0

>  <SCORE.INTRA.REPUL.0>
0

>  <SCORE.INTRA.SOLV>
1.43479

>  <SCORE.INTRA.SOLV.lig_0>
-19.3885

>  <SCORE.INTRA.VDW>
-0.889572

>  <SCORE.INTRA.VDW.0>
-1.12705

>  <SCORE.INTRA.norm>
-0.0117093

>  <SCORE.RESTR>
0.00638862

>  <SCORE.RESTR.CAVITY>
0.00638862

>  <SCORE.RESTR.norm>
0.000354923

>  <SCORE.SYSTEM>
0

>  <SCORE.SYSTEM.CONST>
0

>  <SCORE.SYSTEM.DIHEDRAL>
0

>  <SCORE.SYSTEM.SOLV>
0

>  <SCORE.SYSTEM.norm>
0

>  <SCORE.heavy>
18

>  <SCORE.norm>
-0.82977

>  <RMSD>
16.250

$$$$
lig.pdb
 OpenBabel11021811503D
libRbt.so/2013.1/901 2013/11/27
 18 19  0  0  0  0  0  0  0  0999 V2000
    6.5295   26.3502    9.5846 C   0  0  0  0  0  0  0  0  0  0  0  0
    3.3455   22.7010    9.3068 N   0  0  0  0  0  0  0  0  0  0  0  0
    4.9489   19.3859    9.7905 C   0  0  0  0  0  0  0  0  0  0  0  0
    6.4669   14.7652   10.1029 O   0  0  0  0  0  0  0  0  0  0  0  0
    6.3999   15.7814    9.1120 C   0  0  0  0  0  0  0  0  0  0  0  0
    7.0413   17.0807    9.6370 C   0  0  0  0  0  0  0  0  0  0  0  0
    6.7377   19.8127    6.5302 C   0  0  0  0  0  0  0  0  0  0  0  0
    7.6095   18.4123    7.0619 S   0  0  0  0  0  0  0  0  0  0  0  0
    6.7852   18.1691    8.6181 C   0  0  0  0  0  0  0  0  0  0  0  0
    5.8898   19.2099    8.6104 C   0  0  0  0  0  0  0  0  0  0  0  0
    5.8883   20.0411    7.5236 N   0  0  0  0  0  0  0  0  0  0  0  0
    4.9272   21.1961    7.4205 C   0  0  0  0  0  0  0  0  0  0  0  0
    4.5554   23.2566    8.8912 C   0  0  0  0  0  0  0  0  0  0  0  0
    4.9535   24.4678    9.3876 N   0  0  0  0  0  0  0  0  0  0  0  0
    6.1086   25.0199    9.0070 C   0  0  0  0  0  0  0  0  0  0  0  0
    6.9016   24.4006    8.1279 N   0  0  0  0  0  0  0  0  0  0  0  0
    6.5740   23.1948    7.5951 C   0  0  0  0  0  0  0  0  0  0  0  0
    5.3799   22.5628    7.9595 C   0  0  0  0  0  0  0  0  0  0  0  0
  5  4  1  0  0  0  0
  5  6  1  0  0  0  0
  7  8  2  0  0  0  0
  7 11  1  0  0  0  0
  8  9  1  0  0  0  0
  9 10  2  0  0  0  0
  9  6  1  0  0  0  0
 10  3  1  0  0  0  0
 11 12  1  0  0  0  0
 11 10  1  0  0  0  0
 12 18  1  0  0  0  0
 13  2  1  0  0  0  0
 13 14  2  0  0  0  0
 15 14  1  0  0  0  0
 15  1  1  0  0  0  0
 16 15  2  0  0  0  0
 17 18  2  0  0  0  0
 17 16  1  0  0  0  0
 18 13  1  0  0  0  0
M  END
>  <CHROM.1>
-172.87530157,-76.44803889,-89.78776076,-127.41142190,6.06597811,20.64319530
8.49656811,1.76730137,0.83119904,-0.14590234

>  <Name>
lig.pdb

>  <RI>
0

>  <Rbt.Current_Directory>
/home/itssahil/PROJECTS/Mol_Feturizer/New_Systems/rnas/4nyg

>  <Rbt.Executable>
rbdock ($Id: //depot/dev/client3/rdock/2013.1/src/exe/rbdock.cxx#4 $)

>  <Rbt.Library>
libRbt.so (2013.1, Build901 2013/11/27)

>  <Rbt.Parameter_File>
/export/apps/rDock/src/rDock_2013.1_src/data/scripts/dock_solv.prm

>  <Rbt.Receptor>
prm/blind_docking_80.prm

>  <SCORE>
-16.3134

>  <SCORE.INTER>
-15.9961

>  <SCORE.INTER.CONST>
1

>  <SCORE.INTER.POLAR>
0

>  <SCORE.INTER.ROT>
4

>  <SCORE.INTER.SOLV>
13.5507

>  <SCORE.INTER.VDW>
-21.4476

>  <SCORE.INTER.norm>
-0.888672

>  <SCORE.INTRA>
-0.332223

>  <SCORE.INTRA.DIHEDRAL>
0.521985

>  <SCORE.INTRA.DIHEDRAL.0>
3.20029

>  <SCORE.INTRA.POLAR>
0

>  <SCORE.INTRA.POLAR.0>
0

>  <SCORE.INTRA.REPUL>
0

>  <SCORE.INTRA.REPUL.0>
0

>  <SCORE.INTRA.SOLV>
0.270927

>  <SCORE.INTRA.SOLV.lig_0>
-19.3885

>  <SCORE.INTRA.VDW>
-0.728679

>  <SCORE.INTRA.VDW.0>
-1.12705

>  <SCORE.INTRA.norm>
-0.0184569

>  <SCORE.RESTR>
0.0148637

>  <SCORE.RESTR.CAVITY>
0.0148637

>  <SCORE.RESTR.norm>
0.000825759

>  <SCORE.SYSTEM>
0

>  <SCORE.SYSTEM.CONST>
0

>  <SCORE.SYSTEM.DIHEDRAL>
0

>  <SCORE.SYSTEM.SOLV>
0

>  <SCORE.SYSTEM.norm>
0

>  <SCORE.heavy>
18

>  <SCORE.norm>
-0.906303

>  <RMSD>
16.250

$$$$
lig.pdb
 OpenBabel11021811503D
libRbt.so/2013.1/901 2013/11/27
 18 19  0  0  0  0  0  0  0  0999 V2000
    6.9750   25.8257    8.6376 C   0  0  0  0  0  0  0  0  0  0  0  0
    5.7046   21.5425    6.7474 N   0  0  0  0  0  0  0  0  0  0  0  0
    4.1893   17.9848    7.7385 C   0  0  0  0  0  0  0  0  0  0  0  0
    5.8413   14.8048   10.1197 O   0  0  0  0  0  0  0  0  0  0  0  0
    6.7802   14.7686    9.0538 C   0  0  0  0  0  0  0  0  0  0  0  0
    6.4009   15.8011    7.9744 C   0  0  0  0  0  0  0  0  0  0  0  0
    6.8314   19.4097    9.9747 C   0  0  0  0  0  0  0  0  0  0  0  0
    7.5997   17.8813    9.6958 S   0  0  0  0  0  0  0  0  0  0  0  0
    6.3725   17.1655    8.6270 C   0  0  0  0  0  0  0  0  0  0  0  0
    5.4449   18.1762    8.5726 C   0  0  0  0  0  0  0  0  0  0  0  0
    5.7062   19.3196    9.2772 N   0  0  0  0  0  0  0  0  0  0  0  0
    4.7550   20.4871    9.2592 C   0  0  0  0  0  0  0  0  0  0  0  0
    5.7981   22.3655    7.8697 C   0  0  0  0  0  0  0  0  0  0  0  0
    6.3161   23.6258    7.7474 N   0  0  0  0  0  0  0  0  0  0  0  0
    6.4142   24.4337    8.8064 C   0  0  0  0  0  0  0  0  0  0  0  0
    6.0101   24.0260   10.0130 N   0  0  0  0  0  0  0  0  0  0  0  0
    5.4827   22.7899   10.2104 C   0  0  0  0  0  0  0  0  0  0  0  0
    5.3481   21.9003    9.1387 C   0  0  0  0  0  0  0  0  0  0  0  0
  5  4  1  0  0  0  0
  5  6  1  0  0  0  0
  7  8  2  0  0  0  0
  7 11  1  0  0  0  0
  8  9  1  0  0  0  0
  9 10  2  0  0  0  0
  9  6  1  0  0  0  0
 10  3  1  0  0  0  0
 11 12  1  0  0  0  0
 11 10  1  0  0  0  0
 12 18  1  0  0  0  0
 13  2  1  0  0  0  0
 13 14  2  0  0  0  0
 15 14  1  0  0  0  0
 15  1  1  0  0  0  0
 16 15  2  0  0  0  0
 17 18  2  0  0  0  0
 17 16  1  0  0  0  0
 18 13  1  0  0  0  0
M  END
>  <CHROM.1>
58.61587846,47.66724532,41.32161756,77.45903414,6.10757139,19.91317500,8.92140598
-1.60503073,0.89593869,3.12309207

>  <Name>
lig.pdb

>  <RI>
0

>  <Rbt.Current_Directory>
/home/itssahil/PROJECTS/Mol_Feturizer/New_Systems/rnas/4nyg

>  <Rbt.Executable>
rbdock ($Id: //depot/dev/client3/rdock/2013.1/src/exe/rbdock.cxx#4 $)

>  <Rbt.Library>
libRbt.so (2013.1, Build901 2013/11/27)

>  <Rbt.Parameter_File>
/export/apps/rDock/src/rDock_2013.1_src/data/scripts/dock_solv.prm

>  <Rbt.Receptor>
prm/blind_docking_80.prm

>  <SCORE>
-16.2804

>  <SCORE.INTER>
-16.4062

>  <SCORE.INTER.CONST>
1

>  <SCORE.INTER.POLAR>
0

>  <SCORE.INTER.ROT>
4

>  <SCORE.INTER.SOLV>
12.1339

>  <SCORE.INTER.VDW>
-21.2487

>  <SCORE.INTER.norm>
-0.911454

>  <SCORE.INTRA>
0.12574

>  <SCORE.INTRA.DIHEDRAL>
0.151298

>  <SCORE.INTRA.DIHEDRAL.0>
3.20029

>  <SCORE.INTRA.POLAR>
0

>  <SCORE.INTRA.POLAR.0>
0

>  <SCORE.INTRA.REPUL>
0

>  <SCORE.INTRA.REPUL.0>
0

>  <SCORE.INTRA.SOLV>
1.13645

>  <SCORE.INTRA.SOLV.lig_0>
-19.3885

>  <SCORE.INTRA.VDW>
-0.518133

>  <SCORE.INTRA.VDW.0>
-1.12705

>  <SCORE.INTRA.norm>
0.00698554

>  <SCORE.RESTR>
0

>  <SCORE.RESTR.CAVITY>
0

>  <SCORE.RESTR.norm>
0

>  <SCORE.SYSTEM>
0

>  <SCORE.SYSTEM.CONST>
0

>  <SCORE.SYSTEM.DIHEDRAL>
0

>  <SCORE.SYSTEM.SOLV>
0

>  <SCORE.SYSTEM.norm>
0

>  <SCORE.heavy>
18

>  <SCORE.norm>
-0.904469

>  <RMSD>
16.267

$$$$
lig.pdb
 OpenBabel11021811503D
libRbt.so/2013.1/901 2013/11/27
 18 19  0  0  0  0  0  0  0  0999 V2000
    6.6264   26.4516    9.5226 C   0  0  0  0  0  0  0  0  0  0  0  0
    3.3747   22.8523    9.5844 N   0  0  0  0  0  0  0  0  0  0  0  0
    5.0406   19.3364    9.9919 C   0  0  0  0  0  0  0  0  0  0  0  0
    7.0757   15.4980    7.7647 O   0  0  0  0  0  0  0  0  0  0  0  0
    6.5451   15.7715    9.0541 C   0  0  0  0  0  0  0  0  0  0  0  0
    7.1504   17.0733    9.6144 C   0  0  0  0  0  0  0  0  0  0  0  0
    6.5998   19.9093    6.6374 C   0  0  0  0  0  0  0  0  0  0  0  0
    7.5252   18.5055    7.0579 S   0  0  0  0  0  0  0  0  0  0  0  0
    6.8109   18.1931    8.6556 C   0  0  0  0  0  0  0  0  0  0  0  0
    5.9024   19.2184    8.7460 C   0  0  0  0  0  0  0  0  0  0  0  0
    5.8159   20.0879    7.6931 N   0  0  0  0  0  0  0  0  0  0  0  0
    4.8339   21.2296    7.6969 C   0  0  0  0  0  0  0  0  0  0  0  0
    4.5705   23.3651    9.0818 C   0  0  0  0  0  0  0  0  0  0  0  0
    5.0127   24.5912    9.4976 N   0  0  0  0  0  0  0  0  0  0  0  0
    6.1554   25.1030    9.0328 C   0  0  0  0  0  0  0  0  0  0  0  0
    6.8925   24.4277    8.1463 N   0  0  0  0  0  0  0  0  0  0  0  0
    6.5190   23.2039    7.6903 C   0  0  0  0  0  0  0  0  0  0  0  0
    5.3352   22.6122    8.1448 C   0  0  0  0  0  0  0  0  0  0  0  0
  5  4  1  0  0  0  0
  5  6  1  0  0  0  0
  7  8  2  0  0  0  0
  7 11  1  0  0  0  0
  8  9  1  0  0  0  0
  9 10  2  0  0  0  0
  9  6  1  0  0  0  0
 10  3  1  0  0  0  0
 11 12  1  0  0  0  0
 11 10  1  0  0  0  0
 12 18  1  0  0  0  0
 13  2  1  0  0  0  0
 13 14  2  0  0  0  0
 15 14  1  0  0  0  0
 15  1  1  0  0  0  0
 16 15  2  0  0  0  0
 17 18  2  0  0  0  0
 17 16  1  0  0  0  0
 18 13  1  0  0  0  0
M  END
>  <CHROM.1>
59.37997919,-74.04567465,-84.80718394,-132.70050692,6.10556988,20.73950571
8.43903188,-1.78509735,-0.73163642,3.09327781

>  <Name>
lig.pdb

>  <RI>
0

>  <Rbt.Current_Directory>
/home/itssahil/PROJECTS/Mol_Feturizer/New_Systems/rnas/4nyg

>  <Rbt.Executable>
rbdock ($Id: //depot/dev/client3/rdock/2013.1/src/exe/rbdock.cxx#4 $)

>  <Rbt.Library>
libRbt.so (2013.1, Build901 2013/11/27)

>  <Rbt.Parameter_File>
/export/apps/rDock/src/rDock_2013.1_src/data/scripts/dock_solv.prm

>  <Rbt.Receptor>
prm/blind_docking_80.prm

>  <SCORE>
-16.6287

>  <SCORE.INTER>
-16.3057

>  <SCORE.INTER.CONST>
1

>  <SCORE.INTER.POLAR>
0

>  <SCORE.INTER.ROT>
4

>  <SCORE.INTER.SOLV>
14.1598

>  <SCORE.INTER.VDW>
-21.857

>  <SCORE.INTER.norm>
-0.90587

>  <SCORE.INTRA>
-0.323048

>  <SCORE.INTRA.DIHEDRAL>
0.214055

>  <SCORE.INTRA.DIHEDRAL.0>
3.20029

>  <SCORE.INTRA.POLAR>
0

>  <SCORE.INTRA.POLAR.0>
0

>  <SCORE.INTRA.REPUL>
0

>  <SCORE.INTRA.REPUL.0>
0

>  <SCORE.INTRA.SOLV>
0.638286

>  <SCORE.INTRA.SOLV.lig_0>
-19.3885

>  <SCORE.INTRA.VDW>
-0.749218

>  <SCORE.INTRA.VDW.0>
-1.12705

>  <SCORE.INTRA.norm>
-0.0179471

>  <SCORE.RESTR>
0

>  <SCORE.RESTR.CAVITY>
0

>  <SCORE.RESTR.norm>
0

>  <SCORE.SYSTEM>
0

>  <SCORE.SYSTEM.CONST>
0

>  <SCORE.SYSTEM.DIHEDRAL>
0

>  <SCORE.SYSTEM.SOLV>
0

>  <SCORE.SYSTEM.norm>
0

>  <SCORE.heavy>
18

>  <SCORE.norm>
-0.923817

>  <RMSD>
16.271

$$$$
lig.pdb
 OpenBabel11021811503D
libRbt.so/2013.1/901 2013/11/27
 18 19  0  0  0  0  0  0  0  0999 V2000
    6.9185   26.5965    9.0225 C   0  0  0  0  0  0  0  0  0  0  0  0
    6.5315   22.3262    6.7538 N   0  0  0  0  0  0  0  0  0  0  0  0
    3.8372   18.6482    7.4149 C   0  0  0  0  0  0  0  0  0  0  0  0
    7.0359   14.6172    7.8502 O   0  0  0  0  0  0  0  0  0  0  0  0
    7.0043   16.0001    8.1750 C   0  0  0  0  0  0  0  0  0  0  0  0
    5.5989   16.4006    8.6640 C   0  0  0  0  0  0  0  0  0  0  0  0
    6.0849   20.3343    9.8881 C   0  0  0  0  0  0  0  0  0  0  0  0
    6.6668   18.7223   10.1462 S   0  0  0  0  0  0  0  0  0  0  0  0
    5.6218   17.8797    8.9807 C   0  0  0  0  0  0  0  0  0  0  0  0
    4.8866   18.9248    8.4785 C   0  0  0  0  0  0  0  0  0  0  0  0
    5.1451   20.1773    8.9647 N   0  0  0  0  0  0  0  0  0  0  0  0
    4.4016   21.3848    8.4574 C   0  0  0  0  0  0  0  0  0  0  0  0
    6.0973   23.1744    7.7724 C   0  0  0  0  0  0  0  0  0  0  0  0
    6.6740   24.4058    7.9239 N   0  0  0  0  0  0  0  0  0  0  0  0
    6.2744   25.2370    8.8899 C   0  0  0  0  0  0  0  0  0  0  0  0
    5.3017   24.8816    9.7342 N   0  0  0  0  0  0  0  0  0  0  0  0
    4.6806   23.6769    9.6430 C   0  0  0  0  0  0  0  0  0  0  0  0
    5.0506   22.7654    8.6478 C   0  0  0  0  0  0  0  0  0  0  0  0
  5  4  1  0  0  0  0
  5  6  1  0  0  0  0
  7  8  2  0  0  0  0
  7 11  1  0  0  0  0
  8  9  1  0  0  0  0
  9 10  2  0  0  0  0
  9  6  1  0  0  0  0
 10  3  1  0  0  0  0
 11 12  1  0  0  0  0
 11 10  1  0  0  0  0
 12 18  1  0  0  0  0
 13  2  1  0  0  0  0
 13 14  2  0  0  0  0
 15 14  1  0  0  0  0
 15  1  1  0  0  0  0
 16 15  2  0  0  0  0
 17 18  2  0  0  0  0
 17 16  1  0  0  0  0
 18 13  1  0  0  0  0
M  END
>  <CHROM.1>
-179.44951895,-58.71369828,20.45195039,78.23951114,5.84558249,20.67790072
8.72308524,-1.59824607,0.62562743,-3.09824484

>  <Name>
lig.pdb

>  <RI>
0

>  <Rbt.Current_Directory>
/home/itssahil/PROJECTS/Mol_Feturizer/New_Systems/rnas/4nyg

>  <Rbt.Executable>
rbdock ($Id: //depot/dev/client3/rdock/2013.1/src/exe/rbdock.cxx#4 $)

>  <Rbt.Library>
libRbt.so (2013.1, Build901 2013/11/27)

>  <Rbt.Parameter_File>
/export/apps/rDock/src/rDock_2013.1_src/data/scripts/dock_solv.prm

>  <Rbt.Receptor>
prm/blind_docking_100.prm

>  <SCORE>
-13.4876

>  <SCORE.INTER>
-13.4352

>  <SCORE.INTER.CONST>
1

>  <SCORE.INTER.POLAR>
0

>  <SCORE.INTER.ROT>
4

>  <SCORE.INTER.SOLV>
13.6047

>  <SCORE.INTER.VDW>
-19.7584

>  <SCORE.INTER.norm>
-0.746401

>  <SCORE.INTRA>
-0.0524142

>  <SCORE.INTRA.DIHEDRAL>
-0.135814

>  <SCORE.INTRA.DIHEDRAL.0>
3.20029

>  <SCORE.INTRA.POLAR>
0

>  <SCORE.INTRA.POLAR.0>
0

>  <SCORE.INTRA.REPUL>
0

>  <SCORE.INTRA.REPUL.0>
0

>  <SCORE.INTRA.SOLV>
0.488327

>  <SCORE.INTRA.SOLV.lig_0>
-19.3885

>  <SCORE.INTRA.VDW>
-0.228671

>  <SCORE.INTRA.VDW.0>
-1.12705

>  <SCORE.INTRA.norm>
-0.0029119

>  <SCORE.RESTR>
0

>  <SCORE.RESTR.CAVITY>
0

>  <SCORE.RESTR.norm>
0

>  <SCORE.SYSTEM>
0

>  <SCORE.SYSTEM.CONST>
0

>  <SCORE.SYSTEM.DIHEDRAL>
0

>  <SCORE.SYSTEM.SOLV>
0

>  <SCORE.SYSTEM.norm>
0

>  <SCORE.heavy>
18

>  <SCORE.norm>
-0.749313

>  <RMSD>
16.276

$$$$
lig.pdb
 OpenBabel11021811503D
libRbt.so/2013.1/901 2013/11/27
 18 19  0  0  0  0  0  0  0  0999 V2000
    6.8069   15.4624    8.5160 C   0  0  0  0  0  0  0  0  0  0  0  0
    3.4968   18.9215    7.7352 N   0  0  0  0  0  0  0  0  0  0  0  0
    4.5676   23.2412    7.7839 C   0  0  0  0  0  0  0  0  0  0  0  0
    5.4349   26.4466   10.1424 O   0  0  0  0  0  0  0  0  0  0  0  0
    6.6743   26.5034    9.4498 C   0  0  0  0  0  0  0  0  0  0  0  0
    6.7272   25.4130    8.3620 C   0  0  0  0  0  0  0  0  0  0  0  0
    6.6982   21.8875   10.5479 C   0  0  0  0  0  0  0  0  0  0  0  0
    7.5435   23.3878   10.3519 S   0  0  0  0  0  0  0  0  0  0  0  0
    6.5569   24.0719    9.0407 C   0  0  0  0  0  0  0  0  0  0  0  0
    5.6394   23.0690    8.8471 C   0  0  0  0  0  0  0  0  0  0  0  0
    5.7367   21.9554    9.6360 N   0  0  0  0  0  0  0  0  0  0  0  0
    4.7615   20.8149    9.5072 C   0  0  0  0  0  0  0  0  0  0  0  0
    4.6576   18.5142    8.3923 C   0  0  0  0  0  0  0  0  0  0  0  0
    5.1580   17.2597    8.1740 N   0  0  0  0  0  0  0  0  0  0  0  0
    6.2692   16.8468    8.7894 C   0  0  0  0  0  0  0  0  0  0  0  0
    6.9166   17.6516    9.6370 N   0  0  0  0  0  0  0  0  0  0  0  0
    6.4813   18.9111    9.9008 C   0  0  0  0  0  0  0  0  0  0  0  0
    5.3268   19.4031    9.2819 C   0  0  0  0  0  0  0  0  0  0  0  0
  5  4  1  0  0  0  0
  5  6  1  0  0  0  0
  7  8  2  0  0  0  0
  7 11  1  0  0  0  0
  8  9  1  0  0  0  0
  9 10  2  0  0  0  0
  9  6  1  0  0  0  0
 10  3  1  0  0  0  0
 11 12  1  0  0  0  0
 11 10  1  0  0  0  0
 12 18  1  0  0  0  0
 13  2  1  0  0  0  0
 13 14  2  0  0  0  0
 15 14  1  0  0  0  0
 15  1  1  0  0  0  0
 16 15  2  0  0  0  0
 17 18  2  0  0  0  0
 17 16  1  0  0  0  0
 18 13  1  0  0  0  0
M  END
>  <CHROM.1>
-59.11752256,-56.52037049,-54.91171725,-141.19875496,5.97086452,21.31563534
9.20268442,-1.65758294,-0.57389304,0.05110039

>  <Name>
lig.pdb

>  <RI>
0

>  <Rbt.Current_Directory>
/home/itssahil/PROJECTS/Mol_Feturizer/New_Systems/rnas/4nyg

>  <Rbt.Executable>
rbdock ($Id: //depot/dev/client3/rdock/2013.1/src/exe/rbdock.cxx#4 $)

>  <Rbt.Library>
libRbt.so (2013.1, Build901 2013/11/27)

>  <Rbt.Parameter_File>
/export/apps/rDock/src/rDock_2013.1_src/data/scripts/dock_solv.prm

>  <Rbt.Receptor>
prm/blind_docking_100.prm

>  <SCORE>
-14.8015

>  <SCORE.INTER>
-14.9265

>  <SCORE.INTER.CONST>
1

>  <SCORE.INTER.POLAR>
0

>  <SCORE.INTER.ROT>
4

>  <SCORE.INTER.SOLV>
12.417

>  <SCORE.INTER.VDW>
-20.3566

>  <SCORE.INTER.norm>
-0.829248

>  <SCORE.INTRA>
0.124924

>  <SCORE.INTRA.DIHEDRAL>
-0.038897

>  <SCORE.INTRA.DIHEDRAL.0>
3.20029

>  <SCORE.INTRA.POLAR>
0

>  <SCORE.INTRA.POLAR.0>
0

>  <SCORE.INTRA.REPUL>
0

>  <SCORE.INTRA.REPUL.0>
0

>  <SCORE.INTRA.SOLV>
0.601147

>  <SCORE.INTRA.SOLV.lig_0>
-19.3885

>  <SCORE.INTRA.VDW>
-0.156201

>  <SCORE.INTRA.VDW.0>
-1.12705

>  <SCORE.INTRA.norm>
0.00694021

>  <SCORE.RESTR>
0

>  <SCORE.RESTR.CAVITY>
0

>  <SCORE.RESTR.norm>
0

>  <SCORE.SYSTEM>
0

>  <SCORE.SYSTEM.CONST>
0

>  <SCORE.SYSTEM.DIHEDRAL>
0

>  <SCORE.SYSTEM.SOLV>
0

>  <SCORE.SYSTEM.norm>
0

>  <SCORE.heavy>
18

>  <SCORE.norm>
-0.822307

>  <RMSD>
16.297

$$$$
lig.pdb
 OpenBabel11021811503D
libRbt.so/2013.1/901 2013/11/27
 18 19  0  0  0  0  0  0  0  0999 V2000
  -26.0230   15.9331   -0.5782 C   0  0  0  0  0  0  0  0  0  0  0  0
  -23.5713   12.5366   -3.0247 N   0  0  0  0  0  0  0  0  0  0  0  0
  -21.3988   16.1708   -6.9763 C   0  0  0  0  0  0  0  0  0  0  0  0
  -16.4286   16.6489   -6.1068 O   0  0  0  0  0  0  0  0  0  0  0  0
  -17.3180   16.8602   -7.1946 C   0  0  0  0  0  0  0  0  0  0  0  0
  -18.6113   17.5380   -6.7017 C   0  0  0  0  0  0  0  0  0  0  0  0
  -20.0014   15.0457   -3.6910 C   0  0  0  0  0  0  0  0  0  0  0  0
  -18.6583   16.0368   -4.1579 S   0  0  0  0  0  0  0  0  0  0  0  0
  -19.2834   16.5996   -5.7241 C   0  0  0  0  0  0  0  0  0  0  0  0
  -20.4987   15.9625   -5.7699 C   0  0  0  0  0  0  0  0  0  0  0  0
  -20.8420   15.1677   -4.7104 N   0  0  0  0  0  0  0  0  0  0  0  0
  -22.1634   14.4467   -4.6661 C   0  0  0  0  0  0  0  0  0  0  0  0
  -23.8485   13.8886   -2.8232 C   0  0  0  0  0  0  0  0  0  0  0  0
  -24.7523   14.2621   -1.8663 N   0  0  0  0  0  0  0  0  0  0  0  0
  -25.0332   15.5502   -1.6526 C   0  0  0  0  0  0  0  0  0  0  0  0
  -24.4381   16.5051   -2.3733 N   0  0  0  0  0  0  0  0  0  0  0  0
  -23.5281   16.2105   -3.3378 C   0  0  0  0  0  0  0  0  0  0  0  0
  -23.1872   14.8797   -3.6041 C   0  0  0  0  0  0  0  0  0  0  0  0
  5  4  1  0  0  0  0
  5  6  1  0  0  0  0
  7  8  2  0  0  0  0
  7 11  1  0  0  0  0
  8  9  1  0  0  0  0
  9 10  2  0  0  0  0
  9  6  1  0  0  0  0
 10  3  1  0  0  0  0
 11 12  1  0  0  0  0
 11 10  1  0  0  0  0
 12 18  1  0  0  0  0
 13  2  1  0  0  0  0
 13 14  2  0  0  0  0
 15 14  1  0  0  0  0
 15  1  1  0  0  0  0
 16 15  2  0  0  0  0
 17 18  2  0  0  0  0
 17 16  1  0  0  0  0
 18 13  1  0  0  0  0
M  END
>  <CHROM.1>
-62.31176896,63.25651129,66.02347920,-133.12788565,-21.38572020,15.62028413
-4.19052452,2.81773858,-0.48890979,2.90131017

>  <Name>
lig.pdb

>  <RI>
0

>  <Rbt.Current_Directory>
/home/itssahil/PROJECTS/Mol_Feturizer/New_Systems/rnas/4nyg

>  <Rbt.Executable>
rbdock ($Id: //depot/dev/client3/rdock/2013.1/src/exe/rbdock.cxx#4 $)

>  <Rbt.Library>
libRbt.so (2013.1, Build901 2013/11/27)

>  <Rbt.Parameter_File>
/export/apps/rDock/src/rDock_2013.1_src/data/scripts/dock_solv.prm

>  <Rbt.Receptor>
prm/blind_docking_60.prm

>  <SCORE>
-8.17853

>  <SCORE.INTER>
-7.9108

>  <SCORE.INTER.CONST>
1

>  <SCORE.INTER.POLAR>
0

>  <SCORE.INTER.ROT>
4

>  <SCORE.INTER.SOLV>
11.3862

>  <SCORE.INTER.VDW>
-15.3359

>  <SCORE.INTER.norm>
-0.439489

>  <SCORE.INTRA>
-0.267727

>  <SCORE.INTRA.DIHEDRAL>
-0.021008

>  <SCORE.INTRA.DIHEDRAL.0>
3.20029

>  <SCORE.INTRA.POLAR>
0

>  <SCORE.INTRA.POLAR.0>
0

>  <SCORE.INTRA.REPUL>
0

>  <SCORE.INTRA.REPUL.0>
0

>  <SCORE.INTRA.SOLV>
0.472356

>  <SCORE.INTRA.SOLV.lig_0>
-19.3885

>  <SCORE.INTRA.VDW>
-0.493401

>  <SCORE.INTRA.VDW.0>
-1.12705

>  <SCORE.INTRA.norm>
-0.0148737

>  <SCORE.RESTR>
0

>  <SCORE.RESTR.CAVITY>
0

>  <SCORE.RESTR.norm>
0

>  <SCORE.SYSTEM>
0

>  <SCORE.SYSTEM.CONST>
0

>  <SCORE.SYSTEM.DIHEDRAL>
0

>  <SCORE.SYSTEM.SOLV>
0

>  <SCORE.SYSTEM.norm>
0

>  <SCORE.heavy>
18

>  <SCORE.norm>
-0.454363

>  <RMSD>
16.334

$$$$
lig.pdb
 OpenBabel11021811503D
libRbt.so/2013.1/901 2013/11/27
 18 19  0  0  0  0  0  0  0  0999 V2000
  -17.2919    4.8442    0.4115 C   0  0  0  0  0  0  0  0  0  0  0  0
  -21.6974    6.4112   -0.8803 N   0  0  0  0  0  0  0  0  0  0  0  0
  -23.4136    9.7248   -1.5811 C   0  0  0  0  0  0  0  0  0  0  0  0
  -22.0645   14.5427   -2.3339 O   0  0  0  0  0  0  0  0  0  0  0  0
  -23.1757   13.6951   -2.5905 C   0  0  0  0  0  0  0  0  0  0  0  0
  -22.6943   12.3334   -3.1281 C   0  0  0  0  0  0  0  0  0  0  0  0
  -20.1516   10.9075   -0.1769 C   0  0  0  0  0  0  0  0  0  0  0  0
  -20.3492   12.1789   -1.3382 S   0  0  0  0  0  0  0  0  0  0  0  0
  -21.9001   11.6567   -2.0329 C   0  0  0  0  0  0  0  0  0  0  0  0
  -22.1465   10.5176   -1.3072 C   0  0  0  0  0  0  0  0  0  0  0  0
  -21.2289   10.1548   -0.3594 N   0  0  0  0  0  0  0  0  0  0  0  0
  -21.4270    8.9320    0.4971 C   0  0  0  0  0  0  0  0  0  0  0  0
  -20.5072    6.6458   -0.1920 C   0  0  0  0  0  0  0  0  0  0  0  0
  -19.5197    5.6990   -0.1988 N   0  0  0  0  0  0  0  0  0  0  0  0
  -18.3702    5.9008    0.4507 C   0  0  0  0  0  0  0  0  0  0  0  0
  -18.1603    7.0344    1.1262 N   0  0  0  0  0  0  0  0  0  0  0  0
  -19.0931    8.0206    1.1751 C   0  0  0  0  0  0  0  0  0  0  0  0
  -20.3148    7.8707    0.5095 C   0  0  0  0  0  0  0  0  0  0  0  0
  5  4  1  0  0  0  0
  5  6  1  0  0  0  0
  7  8  2  0  0  0  0
  7 11  1  0  0  0  0
  8  9  1  0  0  0  0
  9 10  2  0  0  0  0
  9  6  1  0  0  0  0
 10  3  1  0  0  0  0
 11 12  1  0  0  0  0
 11 10  1  0  0  0  0
 12 18  1  0  0  0  0
 13  2  1  0  0  0  0
 13 14  2  0  0  0  0
 15 14  1  0  0  0  0
 15  1  1  0  0  0  0
 16 15  2  0  0  0  0
 17 18  2  0  0  0  0
 17 16  1  0  0  0  0
 18 13  1  0  0  0  0
M  END
>  <CHROM.1>
64.77773346,-65.71547763,-56.33626858,-105.45032251,-20.74237805,9.53357670
-0.73699988,-1.11007695,-0.40375184,-0.17077787

>  <Name>
lig.pdb

>  <RI>
0

>  <Rbt.Current_Directory>
/home/itssahil/PROJECTS/Mol_Feturizer/New_Systems/rnas/4nyg

>  <Rbt.Executable>
rbdock ($Id: //depot/dev/client3/rdock/2013.1/src/exe/rbdock.cxx#4 $)

>  <Rbt.Library>
libRbt.so (2013.1, Build901 2013/11/27)

>  <Rbt.Parameter_File>
/export/apps/rDock/src/rDock_2013.1_src/data/scripts/dock_solv.prm

>  <Rbt.Receptor>
prm/blind_docking_40.prm

>  <SCORE>
-13.0127

>  <SCORE.INTER>
-12.8932

>  <SCORE.INTER.CONST>
1

>  <SCORE.INTER.POLAR>
0

>  <SCORE.INTER.ROT>
4

>  <SCORE.INTER.SOLV>
12.4936

>  <SCORE.INTER.VDW>
-19.0267

>  <SCORE.INTER.norm>
-0.716291

>  <SCORE.INTRA>
-0.119467

>  <SCORE.INTRA.DIHEDRAL>
0.0838966

>  <SCORE.INTRA.DIHEDRAL.0>
3.20029

>  <SCORE.INTRA.POLAR>
0

>  <SCORE.INTRA.POLAR.0>
0

>  <SCORE.INTRA.REPUL>
0

>  <SCORE.INTRA.REPUL.0>
0

>  <SCORE.INTRA.SOLV>
0.799095

>  <SCORE.INTRA.SOLV.lig_0>
-19.3885

>  <SCORE.INTRA.VDW>
-0.560963

>  <SCORE.INTRA.VDW.0>
-1.12705

>  <SCORE.INTRA.norm>
-0.00663706

>  <SCORE.RESTR>
0

>  <SCORE.RESTR.CAVITY>
0

>  <SCORE.RESTR.norm>
0

>  <SCORE.SYSTEM>
0

>  <SCORE.SYSTEM.CONST>
0

>  <SCORE.SYSTEM.DIHEDRAL>
0

>  <SCORE.SYSTEM.SOLV>
0

>  <SCORE.SYSTEM.norm>
0

>  <SCORE.heavy>
18

>  <SCORE.norm>
-0.722928

>  <RMSD>
16.366

$$$$
lig.pdb
 OpenBabel11021811503D
libRbt.so/2013.1/901 2013/11/27
 18 19  0  0  0  0  0  0  0  0999 V2000
    7.4614   26.5211    8.8661 C   0  0  0  0  0  0  0  0  0  0  0  0
    3.8119   23.3653    9.3699 N   0  0  0  0  0  0  0  0  0  0  0  0
    4.4700   18.6026    6.7301 C   0  0  0  0  0  0  0  0  0  0  0  0
    7.0267   14.3940    8.4659 O   0  0  0  0  0  0  0  0  0  0  0  0
    7.0540   15.8080    8.6031 C   0  0  0  0  0  0  0  0  0  0  0  0
    5.6206   16.3734    8.5800 C   0  0  0  0  0  0  0  0  0  0  0  0
    6.1689   20.3666    9.5610 C   0  0  0  0  0  0  0  0  0  0  0  0
    6.5014   18.7516   10.0952 S   0  0  0  0  0  0  0  0  0  0  0  0
    5.7097   17.8717    8.7687 C   0  0  0  0  0  0  0  0  0  0  0  0
    5.2354   18.9103    8.0063 C   0  0  0  0  0  0  0  0  0  0  0  0
    5.4851   20.1841    8.4387 N   0  0  0  0  0  0  0  0  0  0  0  0
    5.0203   21.3838    7.6558 C   0  0  0  0  0  0  0  0  0  0  0  0
    5.0461   23.6734    8.7979 C   0  0  0  0  0  0  0  0  0  0  0  0
    5.6400   24.8757    9.0690 N   0  0  0  0  0  0  0  0  0  0  0  0
    6.8226   25.1933    8.5355 C   0  0  0  0  0  0  0  0  0  0  0  0
    7.4518   24.3421    7.7201 N   0  0  0  0  0  0  0  0  0  0  0  0
    6.9251   23.1295    7.4079 C   0  0  0  0  0  0  0  0  0  0  0  0
    5.6922   22.7369    7.9407 C   0  0  0  0  0  0  0  0  0  0  0  0
  5  4  1  0  0  0  0
  5  6  1  0  0  0  0
  7  8  2  0  0  0  0
  7 11  1  0  0  0  0
  8  9  1  0  0  0  0
  9 10  2  0  0  0  0
  9  6  1  0  0  0  0
 10  3  1  0  0  0  0
 11 12  1  0  0  0  0
 11 10  1  0  0  0  0
 12 18  1  0  0  0  0
 13  2  1  0  0  0  0
 13 14  2  0  0  0  0
 15 14  1  0  0  0  0
 15  1  1  0  0  0  0
 16 15  2  0  0  0  0
 17 18  2  0  0  0  0
 17 16  1  0  0  0  0
 18 13  1  0  0  0  0
M  END
>  <CHROM.1>
178.41525232,-55.18820267,17.82893821,-98.95840852,6.00351140,20.69422244
8.58678214,-1.56510882,0.40358713,3.12532431

>  <Name>
lig.pdb

>  <RI>
0

>  <Rbt.Current_Directory>
/home/itssahil/PROJECTS/Mol_Feturizer/New_Systems/rnas/4nyg

>  <Rbt.Executable>
rbdock ($Id: //depot/dev/client3/rdock/2013.1/src/exe/rbdock.cxx#4 $)

>  <Rbt.Library>
libRbt.so (2013.1, Build901 2013/11/27)

>  <Rbt.Parameter_File>
/export/apps/rDock/src/rDock_2013.1_src/data/scripts/dock_solv.prm

>  <Rbt.Receptor>
prm/blind_docking_80.prm

>  <SCORE>
-13.8314

>  <SCORE.INTER>
-13.9197

>  <SCORE.INTER.CONST>
1

>  <SCORE.INTER.POLAR>
0

>  <SCORE.INTER.ROT>
4

>  <SCORE.INTER.SOLV>
14.0387

>  <SCORE.INTER.VDW>
-20.226

>  <SCORE.INTER.norm>
-0.773315

>  <SCORE.INTRA>
0.0882318

>  <SCORE.INTRA.DIHEDRAL>
-0.0841828

>  <SCORE.INTRA.DIHEDRAL.0>
3.20029

>  <SCORE.INTRA.POLAR>
0

>  <SCORE.INTRA.POLAR.0>
0

>  <SCORE.INTRA.REPUL>
0

>  <SCORE.INTRA.REPUL.0>
0

>  <SCORE.INTRA.SOLV>
0.259911

>  <SCORE.INTRA.SOLV.lig_0>
-19.3885

>  <SCORE.INTRA.VDW>
0.000367867

>  <SCORE.INTRA.VDW.0>
-1.12705

>  <SCORE.INTRA.norm>
0.00490177

>  <SCORE.RESTR>
0

>  <SCORE.RESTR.CAVITY>
0

>  <SCORE.RESTR.norm>
0

>  <SCORE.SYSTEM>
0

>  <SCORE.SYSTEM.CONST>
0

>  <SCORE.SYSTEM.DIHEDRAL>
0

>  <SCORE.SYSTEM.SOLV>
0

>  <SCORE.SYSTEM.norm>
0

>  <SCORE.heavy>
18

>  <SCORE.norm>
-0.768413

>  <RMSD>
16.409

$$$$
lig.pdb
 OpenBabel11021811503D
libRbt.so/2013.1/901 2013/11/27
 18 19  0  0  0  0  0  0  0  0999 V2000
    7.3564   26.4847    8.4620 C   0  0  0  0  0  0  0  0  0  0  0  0
    5.5357   22.0214    7.9176 N   0  0  0  0  0  0  0  0  0  0  0  0
    3.0363   20.3400    9.0011 C   0  0  0  0  0  0  0  0  0  0  0  0
    3.4955   19.5345    6.1220 O   0  0  0  0  0  0  0  0  0  0  0  0
    4.1467   18.2753    6.2186 C   0  0  0  0  0  0  0  0  0  0  0  0
    3.9926   17.7034    7.6413 C   0  0  0  0  0  0  0  0  0  0  0  0
    6.5542   19.7855   10.1536 C   0  0  0  0  0  0  0  0  0  0  0  0
    6.4366   18.3691    9.1617 S   0  0  0  0  0  0  0  0  0  0  0  0
    4.7697   18.5936    8.5858 C   0  0  0  0  0  0  0  0  0  0  0  0
    4.4240   19.7611    9.2203 C   0  0  0  0  0  0  0  0  0  0  0  0
    5.3617   20.3522   10.0224 N   0  0  0  0  0  0  0  0  0  0  0  0
    5.0770   21.6447   10.7411 C   0  0  0  0  0  0  0  0  0  0  0  0
    5.8944   23.0622    8.7740 C   0  0  0  0  0  0  0  0  0  0  0  0
    6.4316   24.2109    8.2604 N   0  0  0  0  0  0  0  0  0  0  0  0
    6.7811   25.2226    9.0592 C   0  0  0  0  0  0  0  0  0  0  0  0
    6.6160   25.1333   10.3822 N   0  0  0  0  0  0  0  0  0  0  0  0
    6.0861   24.0258   10.9634 C   0  0  0  0  0  0  0  0  0  0  0  0
    5.6947   22.9353   10.1787 C   0  0  0  0  0  0  0  0  0  0  0  0
  5  4  1  0  0  0  0
  5  6  1  0  0  0  0
  7  8  2  0  0  0  0
  7 11  1  0  0  0  0
  8  9  1  0  0  0  0
  9 10  2  0  0  0  0
  9  6  1  0  0  0  0
 10  3  1  0  0  0  0
 11 12  1  0  0  0  0
 11 10  1  0  0  0  0
 12 18  1  0  0  0  0
 13  2  1  0  0  0  0
 13 14  2  0  0  0  0
 15 14  1  0  0  0  0
 15  1  1  0  0  0  0
 16 15  2  0  0  0  0
 17 18  2  0  0  0  0
 17 16  1  0  0  0  0
 18 13  1  0  0  0  0
M  END
>  <CHROM.1>
-66.94444710,-94.95829225,75.23034612,32.00199150,5.47000104,21.28956721
8.90842547,0.89396727,-1.08805642,-0.39480847

>  <Name>
lig.pdb

>  <RI>
0

>  <Rbt.Current_Directory>
/home/itssahil/PROJECTS/Mol_Feturizer/New_Systems/rnas/4nyg

>  <Rbt.Executable>
rbdock ($Id: //depot/dev/client3/rdock/2013.1/src/exe/rbdock.cxx#4 $)

>  <Rbt.Library>
libRbt.so (2013.1, Build901 2013/11/27)

>  <Rbt.Parameter_File>
/export/apps/rDock/src/rDock_2013.1_src/data/scripts/dock_solv.prm

>  <Rbt.Receptor>
prm/blind_docking_80.prm

>  <SCORE>
-9.53433

>  <SCORE.INTER>
-10.9633

>  <SCORE.INTER.CONST>
1

>  <SCORE.INTER.POLAR>
0

>  <SCORE.INTER.ROT>
4

>  <SCORE.INTER.SOLV>
8.64632

>  <SCORE.INTER.VDW>
-16.4576

>  <SCORE.INTER.norm>
-0.609072

>  <SCORE.INTRA>
1.42896

>  <SCORE.INTRA.DIHEDRAL>
1.85221

>  <SCORE.INTRA.DIHEDRAL.0>
3.20029

>  <SCORE.INTRA.POLAR>
0

>  <SCORE.INTRA.POLAR.0>
0

>  <SCORE.INTRA.REPUL>
0

>  <SCORE.INTRA.REPUL.0>
0

>  <SCORE.INTRA.SOLV>
2.55554

>  <SCORE.INTRA.SOLV.lig_0>
-19.3885

>  <SCORE.INTRA.VDW>
-0.774913

>  <SCORE.INTRA.VDW.0>
-1.12705

>  <SCORE.INTRA.norm>
0.0793868

>  <SCORE.RESTR>
0

>  <SCORE.RESTR.CAVITY>
0

>  <SCORE.RESTR.norm>
0

>  <SCORE.SYSTEM>
0

>  <SCORE.SYSTEM.CONST>
0

>  <SCORE.SYSTEM.DIHEDRAL>
0

>  <SCORE.SYSTEM.SOLV>
0

>  <SCORE.SYSTEM.norm>
0

>  <SCORE.heavy>
18

>  <SCORE.norm>
-0.529685

>  <RMSD>
16.431

$$$$
lig.pdb
 OpenBabel11021811503D
libRbt.so/2013.1/901 2013/11/27
 18 19  0  0  0  0  0  0  0  0999 V2000
    6.0805   27.0939   10.0107 C   0  0  0  0  0  0  0  0  0  0  0  0
    3.5549   23.0150    9.2926 N   0  0  0  0  0  0  0  0  0  0  0  0
    6.7302   19.0773    7.0069 C   0  0  0  0  0  0  0  0  0  0  0  0
    4.6039   16.5752    7.9318 O   0  0  0  0  0  0  0  0  0  0  0  0
    5.9932   16.2906    8.0193 C   0  0  0  0  0  0  0  0  0  0  0  0
    6.5934   16.9468    9.2779 C   0  0  0  0  0  0  0  0  0  0  0  0
    5.1519   20.7792    9.9436 C   0  0  0  0  0  0  0  0  0  0  0  0
    5.3625   19.2301   10.6918 S   0  0  0  0  0  0  0  0  0  0  0  0
    6.1184   18.3823    9.3241 C   0  0  0  0  0  0  0  0  0  0  0  0
    6.1438   19.3756    8.3766 C   0  0  0  0  0  0  0  0  0  0  0  0
    5.6384   20.5991    8.7223 N   0  0  0  0  0  0  0  0  0  0  0  0
    5.6436   21.7524    7.7538 C   0  0  0  0  0  0  0  0  0  0  0  0
    4.7260   23.7411    9.0768 C   0  0  0  0  0  0  0  0  0  0  0  0
    4.8518   24.9994    9.5989 N   0  0  0  0  0  0  0  0  0  0  0  0
    5.9640   25.7140    9.4082 C   0  0  0  0  0  0  0  0  0  0  0  0
    6.9800   25.2150    8.6983 N   0  0  0  0  0  0  0  0  0  0  0  0
    6.9285   23.9722    8.1524 C   0  0  0  0  0  0  0  0  0  0  0  0
    5.7927   23.1728    8.3228 C   0  0  0  0  0  0  0  0  0  0  0  0
  5  4  1  0  0  0  0
  5  6  1  0  0  0  0
  7  8  2  0  0  0  0
  7 11  1  0  0  0  0
  8  9  1  0  0  0  0
  9 10  2  0  0  0  0
  9  6  1  0  0  0  0
 10  3  1  0  0  0  0
 11 12  1  0  0  0  0
 11 10  1  0  0  0  0
 12 18  1  0  0  0  0
 13  2  1  0  0  0  0
 13 14  2  0  0  0  0
 15 14  1  0  0  0  0
 15  1  1  0  0  0  0
 16 15  2  0  0  0  0
 17 18  2  0  0  0  0
 17 16  1  0  0  0  0
 18 13  1  0  0  0  0
M  END
>  <CHROM.1>
-47.67841079,129.38693511,30.93674008,-69.54167251,5.68339639,21.23249449
8.98001010,1.56504010,0.99788135,0.07179721

>  <Name>
lig.pdb

>  <RI>
0

>  <Rbt.Current_Directory>
/home/itssahil/PROJECTS/Mol_Feturizer/New_Systems/rnas/4nyg

>  <Rbt.Executable>
rbdock ($Id: //depot/dev/client3/rdock/2013.1/src/exe/rbdock.cxx#4 $)

>  <Rbt.Library>
libRbt.so (2013.1, Build901 2013/11/27)

>  <Rbt.Parameter_File>
/export/apps/rDock/src/rDock_2013.1_src/data/scripts/dock_solv.prm

>  <Rbt.Receptor>
prm/blind_docking_40.prm

>  <SCORE>
-10.9045

>  <SCORE.INTER>
-14.4557

>  <SCORE.INTER.CONST>
1

>  <SCORE.INTER.POLAR>
0

>  <SCORE.INTER.ROT>
4

>  <SCORE.INTER.SOLV>
12.6306

>  <SCORE.INTER.VDW>
-20.114

>  <SCORE.INTER.norm>
-0.803092

>  <SCORE.INTRA>
3.55119

>  <SCORE.INTRA.DIHEDRAL>
2.94774

>  <SCORE.INTRA.DIHEDRAL.0>
3.20029

>  <SCORE.INTRA.POLAR>
0

>  <SCORE.INTRA.POLAR.0>
0

>  <SCORE.INTRA.REPUL>
0

>  <SCORE.INTRA.REPUL.0>
0

>  <SCORE.INTRA.SOLV>
1.43847

>  <SCORE.INTRA.SOLV.lig_0>
-19.3885

>  <SCORE.INTRA.VDW>
1.35808

>  <SCORE.INTRA.VDW.0>
-1.12705

>  <SCORE.INTRA.norm>
0.197288

>  <SCORE.RESTR>
0

>  <SCORE.RESTR.CAVITY>
0

>  <SCORE.RESTR.norm>
0

>  <SCORE.SYSTEM>
0

>  <SCORE.SYSTEM.CONST>
0

>  <SCORE.SYSTEM.DIHEDRAL>
0

>  <SCORE.SYSTEM.SOLV>
0

>  <SCORE.SYSTEM.norm>
0

>  <SCORE.heavy>
18

>  <SCORE.norm>
-0.605804

>  <RMSD>
16.485

$$$$
lig.pdb
 OpenBabel11021811503D
libRbt.so/2013.1/901 2013/11/27
 18 19  0  0  0  0  0  0  0  0999 V2000
    6.8228   16.0068    8.7340 C   0  0  0  0  0  0  0  0  0  0  0  0
    3.5229   19.4907    9.4453 N   0  0  0  0  0  0  0  0  0  0  0  0
    7.4636   23.4493   10.6124 C   0  0  0  0  0  0  0  0  0  0  0  0
    5.6011   26.9224    9.7709 O   0  0  0  0  0  0  0  0  0  0  0  0
    6.9524   26.5422    9.5512 C   0  0  0  0  0  0  0  0  0  0  0  0
    7.0448   25.5656    8.3626 C   0  0  0  0  0  0  0  0  0  0  0  0
    4.3575   22.4340    8.7868 C   0  0  0  0  0  0  0  0  0  0  0  0
    4.6979   23.8479    7.8439 S   0  0  0  0  0  0  0  0  0  0  0  0
    6.1792   24.3661    8.6793 C   0  0  0  0  0  0  0  0  0  0  0  0
    6.2949   23.3949    9.6428 C   0  0  0  0  0  0  0  0  0  0  0  0
    5.3423   22.4133    9.6758 N   0  0  0  0  0  0  0  0  0  0  0  0
    5.4005   21.2970   10.6851 C   0  0  0  0  0  0  0  0  0  0  0  0
    4.8401   19.0545    9.5876 C   0  0  0  0  0  0  0  0  0  0  0  0
    5.1982   17.8140    9.1352 N   0  0  0  0  0  0  0  0  0  0  0  0
    6.4534   17.3743    9.2577 C   0  0  0  0  0  0  0  0  0  0  0  0
    7.3890   18.1377    9.8296 N   0  0  0  0  0  0  0  0  0  0  0  0
    7.1085   19.3811   10.2992 C   0  0  0  0  0  0  0  0  0  0  0  0
    5.8132   19.8999   10.1939 C   0  0  0  0  0  0  0  0  0  0  0  0
  5  4  1  0  0  0  0
  5  6  1  0  0  0  0
  7  8  2  0  0  0  0
  7 11  1  0  0  0  0
  8  9  1  0  0  0  0
  9 10  2  0  0  0  0
  9  6  1  0  0  0  0
 10  3  1  0  0  0  0
 11 12  1  0  0  0  0
 11 10  1  0  0  0  0
 12 18  1  0  0  0  0
 13  2  1  0  0  0  0
 13 14  2  0  0  0  0
 15 14  1  0  0  0  0
 15  1  1  0  0  0  0
 16 15  2  0  0  0  0
 17 18  2  0  0  0  0
 17 16  1  0  0  0  0
 18 13  1  0  0  0  0
M  END
>  <CHROM.1>
-58.20972949,114.27757157,72.57665350,-82.30846080,5.84058521,21.74089051
9.34176924,-1.56712895,-0.41626976,-0.04373427

>  <Name>
lig.pdb

>  <RI>
0

>  <Rbt.Current_Directory>
/home/itssahil/PROJECTS/Mol_Feturizer/New_Systems/rnas/4nyg

>  <Rbt.Executable>
rbdock ($Id: //depot/dev/client3/rdock/2013.1/src/exe/rbdock.cxx#4 $)

>  <Rbt.Library>
libRbt.so (2013.1, Build901 2013/11/27)

>  <Rbt.Parameter_File>
/export/apps/rDock/src/rDock_2013.1_src/data/scripts/dock_solv.prm

>  <Rbt.Receptor>
prm/blind_docking_60.prm

>  <SCORE>
-16.0958

>  <SCORE.INTER>
-17.4656

>  <SCORE.INTER.CONST>
1

>  <SCORE.INTER.POLAR>
0

>  <SCORE.INTER.ROT>
4

>  <SCORE.INTER.SOLV>
14.3218

>  <SCORE.INTER.VDW>
-22.6843

>  <SCORE.INTER.norm>
-0.970308

>  <SCORE.INTRA>
1.3698

>  <SCORE.INTRA.DIHEDRAL>
2.60246

>  <SCORE.INTRA.DIHEDRAL.0>
3.20029

>  <SCORE.INTRA.POLAR>
0

>  <SCORE.INTRA.POLAR.0>
0

>  <SCORE.INTRA.REPUL>
0

>  <SCORE.INTRA.REPUL.0>
0

>  <SCORE.INTRA.SOLV>
1.06533

>  <SCORE.INTRA.SOLV.lig_0>
-19.3885

>  <SCORE.INTRA.VDW>
-0.464098

>  <SCORE.INTRA.VDW.0>
-1.12705

>  <SCORE.INTRA.norm>
0.0761

>  <SCORE.RESTR>
0

>  <SCORE.RESTR.CAVITY>
0

>  <SCORE.RESTR.norm>
0

>  <SCORE.SYSTEM>
0

>  <SCORE.SYSTEM.CONST>
0

>  <SCORE.SYSTEM.DIHEDRAL>
0

>  <SCORE.SYSTEM.SOLV>
0

>  <SCORE.SYSTEM.norm>
0

>  <SCORE.heavy>
18

>  <SCORE.norm>
-0.894209

>  <RMSD>
16.598

$$$$
lig.pdb
 OpenBabel11021811503D
libRbt.so/2013.1/901 2013/11/27
 18 19  0  0  0  0  0  0  0  0999 V2000
    5.9593   27.1112   10.1909 C   0  0  0  0  0  0  0  0  0  0  0  0
    3.5222   22.9857    9.4339 N   0  0  0  0  0  0  0  0  0  0  0  0
    6.5342   19.2996    6.5549 C   0  0  0  0  0  0  0  0  0  0  0  0
    6.5087   14.7327    9.0384 O   0  0  0  0  0  0  0  0  0  0  0  0
    6.0546   16.0676    9.2140 C   0  0  0  0  0  0  0  0  0  0  0  0
    7.0898   17.0609    8.6513 C   0  0  0  0  0  0  0  0  0  0  0  0
    5.6884   20.7619    9.8953 C   0  0  0  0  0  0  0  0  0  0  0  0
    6.1585   19.1954   10.4690 S   0  0  0  0  0  0  0  0  0  0  0  0
    6.5751   18.4607    8.9047 C   0  0  0  0  0  0  0  0  0  0  0  0
    6.3078   19.4968    8.0445 C   0  0  0  0  0  0  0  0  0  0  0  0
    5.8512   20.6694    8.5817 N   0  0  0  0  0  0  0  0  0  0  0  0
    5.5514   21.8648    7.7161 C   0  0  0  0  0  0  0  0  0  0  0  0
    4.6549   23.7599    9.1831 C   0  0  0  0  0  0  0  0  0  0  0  0
    4.7733   24.9970    9.7552 N   0  0  0  0  0  0  0  0  0  0  0  0
    5.8491   25.7566    9.5324 C   0  0  0  0  0  0  0  0  0  0  0  0
    6.8349   25.3246    8.7407 N   0  0  0  0  0  0  0  0  0  0  0  0
    6.7887   24.1066    8.1411 C   0  0  0  0  0  0  0  0  0  0  0  0
    5.6908   23.2624    8.3411 C   0  0  0  0  0  0  0  0  0  0  0  0
  5  4  1  0  0  0  0
  5  6  1  0  0  0  0
  7  8  2  0  0  0  0
  7 11  1  0  0  0  0
  8  9  1  0  0  0  0
  9 10  2  0  0  0  0
  9  6  1  0  0  0  0
 10  3  1  0  0  0  0
 11 12  1  0  0  0  0
 11 10  1  0  0  0  0
 12 18  1  0  0  0  0
 13  2  1  0  0  0  0
 13 14  2  0  0  0  0
 15 14  1  0  0  0  0
 15  1  1  0  0  0  0
 16 15  2  0  0  0  0
 17 18  2  0  0  0  0
 17 16  1  0  0  0  0
 18 13  1  0  0  0  0
M  END
>  <CHROM.1>
-178.23112200,58.05610717,27.21372930,-78.83015436,5.93617732,21.15957412
9.01773831,1.83059688,1.18735580,-0.20039073

>  <Name>
lig.pdb

>  <RI>
0

>  <Rbt.Current_Directory>
/home/itssahil/PROJECTS/Mol_Feturizer/New_Systems/rnas/4nyg

>  <Rbt.Executable>
rbdock ($Id: //depot/dev/client3/rdock/2013.1/src/exe/rbdock.cxx#4 $)

>  <Rbt.Library>
libRbt.so (2013.1, Build901 2013/11/27)

>  <Rbt.Parameter_File>
/export/apps/rDock/src/rDock_2013.1_src/data/scripts/dock_solv.prm

>  <Rbt.Receptor>
prm/blind_docking_60.prm

>  <SCORE>
-15.0826

>  <SCORE.INTER>
-15.1329

>  <SCORE.INTER.CONST>
1

>  <SCORE.INTER.POLAR>
0

>  <SCORE.INTER.ROT>
4

>  <SCORE.INTER.SOLV>
13.4473

>  <SCORE.INTER.VDW>
-20.8377

>  <SCORE.INTER.norm>
-0.840717

>  <SCORE.INTRA>
0.0502606

>  <SCORE.INTRA.DIHEDRAL>
-0.124565

>  <SCORE.INTRA.DIHEDRAL.0>
3.20029

>  <SCORE.INTRA.POLAR>
0

>  <SCORE.INTRA.POLAR.0>
0

>  <SCORE.INTRA.REPUL>
0

>  <SCORE.INTRA.REPUL.0>
0

>  <SCORE.INTRA.SOLV>
0.557641

>  <SCORE.INTRA.SOLV.lig_0>
-19.3885

>  <SCORE.INTRA.VDW>
-0.166278

>  <SCORE.INTRA.VDW.0>
-1.12705

>  <SCORE.INTRA.norm>
0.00279225

>  <SCORE.RESTR>
0

>  <SCORE.RESTR.CAVITY>
0

>  <SCORE.RESTR.norm>
0

>  <SCORE.SYSTEM>
0

>  <SCORE.SYSTEM.CONST>
0

>  <SCORE.SYSTEM.DIHEDRAL>
0

>  <SCORE.SYSTEM.SOLV>
0

>  <SCORE.SYSTEM.norm>
0

>  <SCORE.heavy>
18

>  <SCORE.norm>
-0.837925

>  <RMSD>
16.617

$$$$
lig.pdb
 OpenBabel11021811503D
libRbt.so/2013.1/901 2013/11/27
 18 19  0  0  0  0  0  0  0  0999 V2000
    7.4694   26.5819    8.7484 C   0  0  0  0  0  0  0  0  0  0  0  0
    4.0687   23.1303    8.5142 N   0  0  0  0  0  0  0  0  0  0  0  0
    7.4037   18.8131    6.8632 C   0  0  0  0  0  0  0  0  0  0  0  0
    6.5956   14.4605    9.4543 O   0  0  0  0  0  0  0  0  0  0  0  0
    5.9940   15.7307    9.2457 C   0  0  0  0  0  0  0  0  0  0  0  0
    7.0680   16.8360    9.2493 C   0  0  0  0  0  0  0  0  0  0  0  0
    4.9082   20.3769    9.1738 C   0  0  0  0  0  0  0  0  0  0  0  0
    5.1792   18.9403   10.1048 S   0  0  0  0  0  0  0  0  0  0  0  0
    6.3703   18.1616    9.0391 C   0  0  0  0  0  0  0  0  0  0  0  0
    6.4632   19.0832    8.0257 C   0  0  0  0  0  0  0  0  0  0  0  0
    5.6982   20.2137    8.1203 N   0  0  0  0  0  0  0  0  0  0  0  0
    5.7511   21.2874    7.0656 C   0  0  0  0  0  0  0  0  0  0  0  0
    5.3610   23.5489    8.1973 C   0  0  0  0  0  0  0  0  0  0  0  0
    5.7876   24.7901    8.5837 N   0  0  0  0  0  0  0  0  0  0  0  0
    7.0210   25.2132    8.2944 C   0  0  0  0  0  0  0  0  0  0  0  0
    7.8667   24.4320    7.6163 N   0  0  0  0  0  0  0  0  0  0  0  0
    7.5147   23.1869    7.2029 C   0  0  0  0  0  0  0  0  0  0  0  0
    6.2386   22.6849    7.4813 C   0  0  0  0  0  0  0  0  0  0  0  0
  5  4  1  0  0  0  0
  5  6  1  0  0  0  0
  7  8  2  0  0  0  0
  7 11  1  0  0  0  0
  8  9  1  0  0  0  0
  9 10  2  0  0  0  0
  9  6  1  0  0  0  0
 10  3  1  0  0  0  0
 11 12  1  0  0  0  0
 11 10  1  0  0  0  0
 12 18  1  0  0  0  0
 13  2  1  0  0  0  0
 13 14  2  0  0  0  0
 15 14  1  0  0  0  0
 15  1  1  0  0  0  0
 16 15  2  0  0  0  0
 17 18  2  0  0  0  0
 17 16  1  0  0  0  0
 18 13  1  0  0  0  0
M  END
>  <CHROM.1>
-179.38516435,63.36140426,61.48275218,-77.04214554,6.20081050,20.75898115
8.51788768,-1.51621577,-0.61933752,3.04245858

>  <Name>
lig.pdb

>  <RI>
0

>  <Rbt.Current_Directory>
/home/itssahil/PROJECTS/Mol_Feturizer/New_Systems/rnas/4nyg

>  <Rbt.Executable>
rbdock ($Id: //depot/dev/client3/rdock/2013.1/src/exe/rbdock.cxx#4 $)

>  <Rbt.Library>
libRbt.so (2013.1, Build901 2013/11/27)

>  <Rbt.Parameter_File>
/export/apps/rDock/src/rDock_2013.1_src/data/scripts/dock_solv.prm

>  <Rbt.Receptor>
prm/blind_docking_80.prm

>  <SCORE>
-16.3177

>  <SCORE.INTER>
-16.1583

>  <SCORE.INTER.CONST>
1

>  <SCORE.INTER.POLAR>
0

>  <SCORE.INTER.ROT>
4

>  <SCORE.INTER.SOLV>
15.6803

>  <SCORE.INTER.VDW>
-22.2657

>  <SCORE.INTER.norm>
-0.897685

>  <SCORE.INTRA>
-0.159355

>  <SCORE.INTRA.DIHEDRAL>
-0.0525652

>  <SCORE.INTRA.DIHEDRAL.0>
3.20029

>  <SCORE.INTRA.POLAR>
0

>  <SCORE.INTRA.POLAR.0>
0

>  <SCORE.INTRA.REPUL>
0

>  <SCORE.INTRA.REPUL.0>
0

>  <SCORE.INTRA.SOLV>
0.582447

>  <SCORE.INTRA.SOLV.lig_0>
-19.3885

>  <SCORE.INTRA.VDW>
-0.424295

>  <SCORE.INTRA.VDW.0>
-1.12705

>  <SCORE.INTRA.norm>
-0.00885303

>  <SCORE.RESTR>
0

>  <SCORE.RESTR.CAVITY>
0

>  <SCORE.RESTR.norm>
0

>  <SCORE.SYSTEM>
0

>  <SCORE.SYSTEM.CONST>
0

>  <SCORE.SYSTEM.DIHEDRAL>
0

>  <SCORE.SYSTEM.SOLV>
0

>  <SCORE.SYSTEM.norm>
0

>  <SCORE.heavy>
18

>  <SCORE.norm>
-0.906538

>  <RMSD>
16.620

$$$$
lig.pdb
 OpenBabel11021811503D
libRbt.so/2013.1/901 2013/11/27
 18 19  0  0  0  0  0  0  0  0999 V2000
    7.0663   26.2712    8.4550 C   0  0  0  0  0  0  0  0  0  0  0  0
    3.7425   22.7379    8.4623 N   0  0  0  0  0  0  0  0  0  0  0  0
    3.8686   19.0631    8.7134 C   0  0  0  0  0  0  0  0  0  0  0  0
    5.9317   15.1729   10.0092 O   0  0  0  0  0  0  0  0  0  0  0  0
    6.4131   15.4064    8.6928 C   0  0  0  0  0  0  0  0  0  0  0  0
    5.7001   16.6237    8.0727 C   0  0  0  0  0  0  0  0  0  0  0  0
    7.1222   19.7147   10.4458 C   0  0  0  0  0  0  0  0  0  0  0  0
    7.5576   18.1845    9.7582 S   0  0  0  0  0  0  0  0  0  0  0  0
    6.0313   17.8349    8.9163 C   0  0  0  0  0  0  0  0  0  0  0  0
    5.2879   18.9421    9.2424 C   0  0  0  0  0  0  0  0  0  0  0  0
    5.8741   19.8932   10.0323 N   0  0  0  0  0  0  0  0  0  0  0  0
    5.1409   21.1492   10.4232 C   0  0  0  0  0  0  0  0  0  0  0  0
    4.9519   23.2328    8.9500 C   0  0  0  0  0  0  0  0  0  0  0  0
    5.4242   24.4362    8.5022 N   0  0  0  0  0  0  0  0  0  0  0  0
    6.5783   24.9325    8.9555 C   0  0  0  0  0  0  0  0  0  0  0  0
    7.3007   24.2609    9.8568 N   0  0  0  0  0  0  0  0  0  0  0  0
    6.8938   23.0621   10.3495 C   0  0  0  0  0  0  0  0  0  0  0  0
    5.6903   22.4933    9.9181 C   0  0  0  0  0  0  0  0  0  0  0  0
  5  4  1  0  0  0  0
  5  6  1  0  0  0  0
  7  8  2  0  0  0  0
  7 11  1  0  0  0  0
  8  9  1  0  0  0  0
  9 10  2  0  0  0  0
  9  6  1  0  0  0  0
 10  3  1  0  0  0  0
 11 12  1  0  0  0  0
 11 10  1  0  0  0  0
 12 18  1  0  0  0  0
 13  2  1  0  0  0  0
 13 14  2  0  0  0  0
 15 14  1  0  0  0  0
 15  1  1  0  0  0  0
 16 15  2  0  0  0  0
 17 18  2  0  0  0  0
 17 16  1  0  0  0  0
 18 13  1  0  0  0  0
M  END
>  <CHROM.1>
62.16624926,34.82573995,63.29179275,111.18586048,6.02991292,20.50782652,9.34592075
-1.57407482,0.37494606,3.12005743

>  <Name>
lig.pdb

>  <RI>
0

>  <Rbt.Current_Directory>
/home/itssahil/PROJECTS/Mol_Feturizer/New_Systems/rnas/4nyg

>  <Rbt.Executable>
rbdock ($Id: //depot/dev/client3/rdock/2013.1/src/exe/rbdock.cxx#4 $)

>  <Rbt.Library>
libRbt.so (2013.1, Build901 2013/11/27)

>  <Rbt.Parameter_File>
/export/apps/rDock/src/rDock_2013.1_src/data/scripts/dock_solv.prm

>  <Rbt.Receptor>
prm/blind_docking_40.prm

>  <SCORE>
-16.2664

>  <SCORE.INTER>
-16.834

>  <SCORE.INTER.CONST>
1

>  <SCORE.INTER.POLAR>
0

>  <SCORE.INTER.ROT>
4

>  <SCORE.INTER.SOLV>
13.3634

>  <SCORE.INTER.VDW>
-21.9438

>  <SCORE.INTER.norm>
-0.935222

>  <SCORE.INTRA>
0.567639

>  <SCORE.INTRA.DIHEDRAL>
0.97124

>  <SCORE.INTRA.DIHEDRAL.0>
3.20029

>  <SCORE.INTRA.POLAR>
0

>  <SCORE.INTRA.POLAR.0>
0

>  <SCORE.INTRA.REPUL>
0

>  <SCORE.INTRA.REPUL.0>
0

>  <SCORE.INTRA.SOLV>
0.808412

>  <SCORE.INTRA.SOLV.lig_0>
-19.3885

>  <SCORE.INTRA.VDW>
-0.322187

>  <SCORE.INTRA.VDW.0>
-1.12705

>  <SCORE.INTRA.norm>
0.0315355

>  <SCORE.RESTR>
0

>  <SCORE.RESTR.CAVITY>
0

>  <SCORE.RESTR.norm>
0

>  <SCORE.SYSTEM>
0

>  <SCORE.SYSTEM.CONST>
0

>  <SCORE.SYSTEM.DIHEDRAL>
0

>  <SCORE.SYSTEM.SOLV>
0

>  <SCORE.SYSTEM.norm>
0

>  <SCORE.heavy>
18

>  <SCORE.norm>
-0.903687

>  <RMSD>
16.629

$$$$
lig.pdb
 OpenBabel11021811503D
libRbt.so/2013.1/901 2013/11/27
 18 19  0  0  0  0  0  0  0  0999 V2000
    7.4348   26.5938    9.0102 C   0  0  0  0  0  0  0  0  0  0  0  0
    6.8999   21.9964   10.4628 N   0  0  0  0  0  0  0  0  0  0  0  0
    5.2311   19.2120   10.5211 C   0  0  0  0  0  0  0  0  0  0  0  0
    5.6795   15.7094    7.8256 O   0  0  0  0  0  0  0  0  0  0  0  0
    6.9657   15.7552    8.4278 C   0  0  0  0  0  0  0  0  0  0  0  0
    7.0381   16.9127    9.4427 C   0  0  0  0  0  0  0  0  0  0  0  0
    6.2059   20.1922    7.0425 C   0  0  0  0  0  0  0  0  0  0  0  0
    7.0687   18.6895    7.0828 S   0  0  0  0  0  0  0  0  0  0  0  0
    6.6288   18.1820    8.7288 C   0  0  0  0  0  0  0  0  0  0  0  0
    5.8420   19.2332    9.1300 C   0  0  0  0  0  0  0  0  0  0  0  0
    5.6424   20.2549    8.2422 N   0  0  0  0  0  0  0  0  0  0  0  0
    4.7779   21.4383    8.5892 C   0  0  0  0  0  0  0  0  0  0  0  0
    6.4911   23.0328    9.6236 C   0  0  0  0  0  0  0  0  0  0  0  0
    7.1023   24.2541    9.7040 N   0  0  0  0  0  0  0  0  0  0  0  0
    6.7306   25.2617    8.9100 C   0  0  0  0  0  0  0  0  0  0  0  0
    5.7482   25.0991    8.0190 N   0  0  0  0  0  0  0  0  0  0  0  0
    5.0980   23.9146    7.8799 C   0  0  0  0  0  0  0  0  0  0  0  0
    5.4465   22.8198    8.6787 C   0  0  0  0  0  0  0  0  0  0  0  0
  5  4  1  0  0  0  0
  5  6  1  0  0  0  0
  7  8  2  0  0  0  0
  7 11  1  0  0  0  0
  8  9  1  0  0  0  0
  9 10  2  0  0  0  0
  9  6  1  0  0  0  0
 10  3  1  0  0  0  0
 11 12  1  0  0  0  0
 11 10  1  0  0  0  0
 12 18  1  0  0  0  0
 13  2  1  0  0  0  0
 13 14  2  0  0  0  0
 15 14  1  0  0  0  0
 15  1  1  0  0  0  0
 16 15  2  0  0  0  0
 17 18  2  0  0  0  0
 17 16  1  0  0  0  0
 18 13  1  0  0  0  0
M  END
>  <CHROM.1>
-54.07997242,-40.85896606,-65.48956205,-60.21472368,6.28298502,20.80970221
8.62631852,1.56355102,-1.53425376,0.06977298

>  <Name>
lig.pdb

>  <RI>
0

>  <Rbt.Current_Directory>
/home/itssahil/PROJECTS/Mol_Feturizer/New_Systems/rnas/4nyg

>  <Rbt.Executable>
rbdock ($Id: //depot/dev/client3/rdock/2013.1/src/exe/rbdock.cxx#4 $)

>  <Rbt.Library>
libRbt.so (2013.1, Build901 2013/11/27)

>  <Rbt.Parameter_File>
/export/apps/rDock/src/rDock_2013.1_src/data/scripts/dock_solv.prm

>  <Rbt.Receptor>
prm/blind_docking_60.prm

>  <SCORE>
-12.4945

>  <SCORE.INTER>
-12.9596

>  <SCORE.INTER.CONST>
1

>  <SCORE.INTER.POLAR>
0

>  <SCORE.INTER.ROT>
4

>  <SCORE.INTER.SOLV>
13.4427

>  <SCORE.INTER.VDW>
-19.3873

>  <SCORE.INTER.norm>
-0.719979

>  <SCORE.INTRA>
0.463383

>  <SCORE.INTRA.DIHEDRAL>
0.645605

>  <SCORE.INTRA.DIHEDRAL.0>
3.20029

>  <SCORE.INTRA.POLAR>
0

>  <SCORE.INTRA.POLAR.0>
0

>  <SCORE.INTRA.REPUL>
0

>  <SCORE.INTRA.REPUL.0>
0

>  <SCORE.INTRA.SOLV>
1.61585

>  <SCORE.INTRA.SOLV.lig_0>
-19.3885

>  <SCORE.INTRA.VDW>
-0.667343

>  <SCORE.INTRA.VDW.0>
-1.12705

>  <SCORE.INTRA.norm>
0.0257435

>  <SCORE.RESTR>
0.00176424

>  <SCORE.RESTR.CAVITY>
0.00176424

>  <SCORE.RESTR.norm>
9.80131e-05

>  <SCORE.SYSTEM>
0

>  <SCORE.SYSTEM.CONST>
0

>  <SCORE.SYSTEM.DIHEDRAL>
0

>  <SCORE.SYSTEM.SOLV>
0

>  <SCORE.SYSTEM.norm>
0

>  <SCORE.heavy>
18

>  <SCORE.norm>
-0.694138

>  <RMSD>
16.638

$$$$
lig.pdb
 OpenBabel11021811503D
libRbt.so/2013.1/901 2013/11/27
 18 19  0  0  0  0  0  0  0  0999 V2000
    7.5913   26.6329    8.9951 C   0  0  0  0  0  0  0  0  0  0  0  0
    4.0764   23.7619    7.2821 N   0  0  0  0  0  0  0  0  0  0  0  0
    5.5925   19.3101   10.7451 C   0  0  0  0  0  0  0  0  0  0  0  0
    6.7224   15.5192    7.6644 O   0  0  0  0  0  0  0  0  0  0  0  0
    6.4218   15.7270    9.0376 C   0  0  0  0  0  0  0  0  0  0  0  0
    7.2258   16.9228    9.5841 C   0  0  0  0  0  0  0  0  0  0  0  0
    6.1806   20.1032    7.1344 C   0  0  0  0  0  0  0  0  0  0  0  0
    7.0170   18.5852    7.1510 S   0  0  0  0  0  0  0  0  0  0  0  0
    6.7592   18.1658    8.8592 C   0  0  0  0  0  0  0  0  0  0  0  0
    6.0410   19.2520    9.2944 C   0  0  0  0  0  0  0  0  0  0  0  0
    5.7587   20.2350    8.3855 N   0  0  0  0  0  0  0  0  0  0  0  0
    4.9595   21.4524    8.7691 C   0  0  0  0  0  0  0  0  0  0  0  0
    5.2049   23.9068    8.0889 C   0  0  0  0  0  0  0  0  0  0  0  0
    5.8401   25.1166    8.1586 N   0  0  0  0  0  0  0  0  0  0  0  0
    6.9210   25.2815    8.9255 C   0  0  0  0  0  0  0  0  0  0  0  0
    7.4091   24.2642    9.6412 N   0  0  0  0  0  0  0  0  0  0  0  0
    6.8299   23.0356    9.6248 C   0  0  0  0  0  0  0  0  0  0  0  0
    5.6912   22.8023    8.8457 C   0  0  0  0  0  0  0  0  0  0  0  0
  5  4  1  0  0  0  0
  5  6  1  0  0  0  0
  7  8  2  0  0  0  0
  7 11  1  0  0  0  0
  8  9  1  0  0  0  0
  9 10  2  0  0  0  0
  9  6  1  0  0  0  0
 10  3  1  0  0  0  0
 11 12  1  0  0  0  0
 11 10  1  0  0  0  0
 12 18  1  0  0  0  0
 13  2  1  0  0  0  0
 13 14  2  0  0  0  0
 15 14  1  0  0  0  0
 15  1  1  0  0  0  0
 16 15  2  0  0  0  0
 17 18  2  0  0  0  0
 17 16  1  0  0  0  0
 18 13  1  0  0  0  0
M  END
>  <CHROM.1>
64.55588869,-69.11150818,-71.28710594,125.05971599,6.29817754,20.87988276
8.57123832,-1.65759235,1.09946069,-3.03284487

>  <Name>
lig.pdb

>  <RI>
0

>  <Rbt.Current_Directory>
/home/itssahil/PROJECTS/Mol_Feturizer/New_Systems/rnas/4nyg

>  <Rbt.Executable>
rbdock ($Id: //depot/dev/client3/rdock/2013.1/src/exe/rbdock.cxx#4 $)

>  <Rbt.Library>
libRbt.so (2013.1, Build901 2013/11/27)

>  <Rbt.Parameter_File>
/export/apps/rDock/src/rDock_2013.1_src/data/scripts/dock_solv.prm

>  <Rbt.Receptor>
prm/blind_docking_40.prm

>  <SCORE>
-11.9939

>  <SCORE.INTER>
-11.7705

>  <SCORE.INTER.CONST>
1

>  <SCORE.INTER.POLAR>
0

>  <SCORE.INTER.ROT>
4

>  <SCORE.INTER.SOLV>
15.1528

>  <SCORE.INTER.VDW>
-19.1646

>  <SCORE.INTER.norm>
-0.653917

>  <SCORE.INTRA>
-0.333422

>  <SCORE.INTRA.DIHEDRAL>
0.118964

>  <SCORE.INTRA.DIHEDRAL.0>
3.20029

>  <SCORE.INTRA.POLAR>
0

>  <SCORE.INTRA.POLAR.0>
0

>  <SCORE.INTRA.REPUL>
0

>  <SCORE.INTRA.REPUL.0>
0

>  <SCORE.INTRA.SOLV>
0.525478

>  <SCORE.INTRA.SOLV.lig_0>
-19.3885

>  <SCORE.INTRA.VDW>
-0.655643

>  <SCORE.INTRA.VDW.0>
-1.12705

>  <SCORE.INTRA.norm>
-0.0185234

>  <SCORE.RESTR>
0.110037

>  <SCORE.RESTR.CAVITY>
0.110037

>  <SCORE.RESTR.norm>
0.00611315

>  <SCORE.SYSTEM>
0

>  <SCORE.SYSTEM.CONST>
0

>  <SCORE.SYSTEM.DIHEDRAL>
0

>  <SCORE.SYSTEM.SOLV>
0

>  <SCORE.SYSTEM.norm>
0

>  <SCORE.heavy>
18

>  <SCORE.norm>
-0.666328

>  <RMSD>
16.681

$$$$
lig.pdb
 OpenBabel11021811503D
libRbt.so/2013.1/901 2013/11/27
 18 19  0  0  0  0  0  0  0  0999 V2000
  -20.9368    5.8972   -0.6954 C   0  0  0  0  0  0  0  0  0  0  0  0
  -19.9500   10.5245    0.3754 N   0  0  0  0  0  0  0  0  0  0  0  0
  -24.3218   13.3384   -1.9495 C   0  0  0  0  0  0  0  0  0  0  0  0
  -22.8711   17.5876   -4.3049 O   0  0  0  0  0  0  0  0  0  0  0  0
  -22.3134   16.5529   -3.5066 C   0  0  0  0  0  0  0  0  0  0  0  0
  -22.8320   15.1796   -3.9757 C   0  0  0  0  0  0  0  0  0  0  0  0
  -20.6954   12.4433   -1.7050 C   0  0  0  0  0  0  0  0  0  0  0  0
  -20.5247   13.6644   -2.9232 S   0  0  0  0  0  0  0  0  0  0  0  0
  -22.2356   14.1245   -3.0705 C   0  0  0  0  0  0  0  0  0  0  0  0
  -22.8177   13.2805   -2.1574 C   0  0  0  0  0  0  0  0  0  0  0  0
  -22.0011   12.4247   -1.4698 N   0  0  0  0  0  0  0  0  0  0  0  0
  -22.5499   11.4781   -0.4349 C   0  0  0  0  0  0  0  0  0  0  0  0
  -20.8580    9.5855   -0.1137 C   0  0  0  0  0  0  0  0  0  0  0  0
  -20.5011    8.2666   -0.1833 N   0  0  0  0  0  0  0  0  0  0  0  0
  -21.3533    7.3480   -0.6457 C   0  0  0  0  0  0  0  0  0  0  0  0
  -22.5759    7.6988   -1.0547 N   0  0  0  0  0  0  0  0  0  0  0  0
  -23.0016    8.9881   -1.0121 C   0  0  0  0  0  0  0  0  0  0  0  0
  -22.1568    9.9950   -0.5318 C   0  0  0  0  0  0  0  0  0  0  0  0
  5  4  1  0  0  0  0
  5  6  1  0  0  0  0
  7  8  2  0  0  0  0
  7 11  1  0  0  0  0
  8  9  1  0  0  0  0
  9 10  2  0  0  0  0
  9  6  1  0  0  0  0
 10  3  1  0  0  0  0
 11 12  1  0  0  0  0
 11 10  1  0  0  0  0
 12 18  1  0  0  0  0
 13  2  1  0  0  0  0
 13 14  2  0  0  0  0
 15 14  1  0  0  0  0
 15  1  1  0  0  0  0
 16 15  2  0  0  0  0
 17 18  2  0  0  0  0
 17 16  1  0  0  0  0
 18 13  1  0  0  0  0
M  END
>  <CHROM.1>
-178.55122762,-66.12218441,-51.51796299,76.37944658,-21.83539914,11.78468176
-1.75259446,-1.44590981,-0.11169575,-0.35732288

>  <Name>
lig.pdb

>  <RI>
0

>  <Rbt.Current_Directory>
/home/itssahil/PROJECTS/Mol_Feturizer/New_Systems/rnas/4nyg

>  <Rbt.Executable>
rbdock ($Id: //depot/dev/client3/rdock/2013.1/src/exe/rbdock.cxx#4 $)

>  <Rbt.Library>
libRbt.so (2013.1, Build901 2013/11/27)

>  <Rbt.Parameter_File>
/export/apps/rDock/src/rDock_2013.1_src/data/scripts/dock_solv.prm

>  <Rbt.Receptor>
prm/blind_docking_40.prm

>  <SCORE>
-9.74351

>  <SCORE.INTER>
-9.71775

>  <SCORE.INTER.CONST>
1

>  <SCORE.INTER.POLAR>
0

>  <SCORE.INTER.ROT>
4

>  <SCORE.INTER.SOLV>
9.66709

>  <SCORE.INTER.VDW>
-15.9675

>  <SCORE.INTER.norm>
-0.539875

>  <SCORE.INTRA>
-0.025753

>  <SCORE.INTRA.DIHEDRAL>
0.0292431

>  <SCORE.INTRA.DIHEDRAL.0>
3.20029

>  <SCORE.INTRA.POLAR>
0

>  <SCORE.INTRA.POLAR.0>
0

>  <SCORE.INTRA.REPUL>
0

>  <SCORE.INTRA.REPUL.0>
0

>  <SCORE.INTRA.SOLV>
0.607809

>  <SCORE.INTRA.SOLV.lig_0>
-19.3885

>  <SCORE.INTRA.VDW>
-0.344279

>  <SCORE.INTRA.VDW.0>
-1.12705

>  <SCORE.INTRA.norm>
-0.00143072

>  <SCORE.RESTR>
0

>  <SCORE.RESTR.CAVITY>
0

>  <SCORE.RESTR.norm>
0

>  <SCORE.SYSTEM>
0

>  <SCORE.SYSTEM.CONST>
0

>  <SCORE.SYSTEM.DIHEDRAL>
0

>  <SCORE.SYSTEM.SOLV>
0

>  <SCORE.SYSTEM.norm>
0

>  <SCORE.heavy>
18

>  <SCORE.norm>
-0.541306

>  <RMSD>
16.802

$$$$
lig.pdb
 OpenBabel11021811503D
libRbt.so/2013.1/901 2013/11/27
 18 19  0  0  0  0  0  0  0  0999 V2000
    6.0264   27.2264   10.0915 C   0  0  0  0  0  0  0  0  0  0  0  0
    7.7681   23.5813    7.4059 N   0  0  0  0  0  0  0  0  0  0  0  0
    6.2913   19.3959    6.4572 C   0  0  0  0  0  0  0  0  0  0  0  0
    6.5760   14.8042    8.8997 O   0  0  0  0  0  0  0  0  0  0  0  0
    6.1310   16.1332    9.1341 C   0  0  0  0  0  0  0  0  0  0  0  0
    7.0815   17.1405    8.4582 C   0  0  0  0  0  0  0  0  0  0  0  0
    5.7934   20.8168    9.8843 C   0  0  0  0  0  0  0  0  0  0  0  0
    6.3327   19.2485   10.3877 S   0  0  0  0  0  0  0  0  0  0  0  0
    6.5866   18.5332    8.7801 C   0  0  0  0  0  0  0  0  0  0  0  0
    6.2225   19.5759    7.9645 C   0  0  0  0  0  0  0  0  0  0  0  0
    5.8169   20.7391    8.5599 N   0  0  0  0  0  0  0  0  0  0  0  0
    5.4188   21.9408    7.7441 C   0  0  0  0  0  0  0  0  0  0  0  0
    6.7314   24.0922    8.1867 C   0  0  0  0  0  0  0  0  0  0  0  0
    6.8515   25.3340    8.7483 N   0  0  0  0  0  0  0  0  0  0  0  0
    5.8721   25.8463    9.4981 C   0  0  0  0  0  0  0  0  0  0  0  0
    4.7512   25.1535    9.7192 N   0  0  0  0  0  0  0  0  0  0  0  0
    4.5595   23.9163    9.1920 C   0  0  0  0  0  0  0  0  0  0  0  0
    5.5465   23.3288    8.3928 C   0  0  0  0  0  0  0  0  0  0  0  0
  5  4  1  0  0  0  0
  5  6  1  0  0  0  0
  7  8  2  0  0  0  0
  7 11  1  0  0  0  0
  8  9  1  0  0  0  0
  9 10  2  0  0  0  0
  9  6  1  0  0  0  0
 10  3  1  0  0  0  0
 11 12  1  0  0  0  0
 11 10  1  0  0  0  0
 12 18  1  0  0  0  0
 13  2  1  0  0  0  0
 13 14  2  0  0  0  0
 15 14  1  0  0  0  0
 15  1  1  0  0  0  0
 16 15  2  0  0  0  0
 17 18  2  0  0  0  0
 17 16  1  0  0  0  0
 18 13  1  0  0  0  0
M  END
>  <CHROM.1>
-178.10251275,57.20571818,24.16160105,94.10174646,6.15333260,21.26134004
8.86139716,1.78366545,1.26407406,-0.17045077

>  <Name>
lig.pdb

>  <RI>
0

>  <Rbt.Current_Directory>
/home/itssahil/PROJECTS/Mol_Feturizer/New_Systems/rnas/4nyg

>  <Rbt.Executable>
rbdock ($Id: //depot/dev/client3/rdock/2013.1/src/exe/rbdock.cxx#4 $)

>  <Rbt.Library>
libRbt.so (2013.1, Build901 2013/11/27)

>  <Rbt.Parameter_File>
/export/apps/rDock/src/rDock_2013.1_src/data/scripts/dock_solv.prm

>  <Rbt.Receptor>
prm/blind_docking_40.prm

>  <SCORE>
-16.1696

>  <SCORE.INTER>
-16.1768

>  <SCORE.INTER.CONST>
1

>  <SCORE.INTER.POLAR>
0

>  <SCORE.INTER.ROT>
4

>  <SCORE.INTER.SOLV>
15.0142

>  <SCORE.INTER.VDW>
-22.0559

>  <SCORE.INTER.norm>
-0.89871

>  <SCORE.INTRA>
0.00716072

>  <SCORE.INTRA.DIHEDRAL>
-0.114255

>  <SCORE.INTRA.DIHEDRAL.0>
3.20029

>  <SCORE.INTRA.POLAR>
0

>  <SCORE.INTRA.POLAR.0>
0

>  <SCORE.INTRA.REPUL>
0

>  <SCORE.INTRA.REPUL.0>
0

>  <SCORE.INTRA.SOLV>
0.29071

>  <SCORE.INTRA.SOLV.lig_0>
-19.3885

>  <SCORE.INTRA.VDW>
-0.0810669

>  <SCORE.INTRA.VDW.0>
-1.12705

>  <SCORE.INTRA.norm>
0.000397818

>  <SCORE.RESTR>
0

>  <SCORE.RESTR.CAVITY>
0

>  <SCORE.RESTR.norm>
0

>  <SCORE.SYSTEM>
0

>  <SCORE.SYSTEM.CONST>
0

>  <SCORE.SYSTEM.DIHEDRAL>
0

>  <SCORE.SYSTEM.SOLV>
0

>  <SCORE.SYSTEM.norm>
0

>  <SCORE.heavy>
18

>  <SCORE.norm>
-0.898312

>  <RMSD>
16.814

$$$$
lig.pdb
 OpenBabel11021811503D
libRbt.so/2013.1/901 2013/11/27
 18 19  0  0  0  0  0  0  0  0999 V2000
  -26.1505   17.6042   -0.9988 C   0  0  0  0  0  0  0  0  0  0  0  0
  -26.0618   12.8166   -0.2217 N   0  0  0  0  0  0  0  0  0  0  0  0
  -23.0293   11.5858    0.9202 C   0  0  0  0  0  0  0  0  0  0  0  0
  -18.7135    9.3719    2.3938 O   0  0  0  0  0  0  0  0  0  0  0  0
  -19.3531    9.8188    1.2063 C   0  0  0  0  0  0  0  0  0  0  0  0
  -19.9771   11.2103    1.4284 C   0  0  0  0  0  0  0  0  0  0  0  0
  -21.3272   12.3486   -2.3253 C   0  0  0  0  0  0  0  0  0  0  0  0
  -19.8929   11.9979   -1.4177 S   0  0  0  0  0  0  0  0  0  0  0  0
  -20.6584   11.6239    0.1427 C   0  0  0  0  0  0  0  0  0  0  0  0
  -21.9846   11.8086   -0.1606 C   0  0  0  0  0  0  0  0  0  0  0  0
  -22.3000   12.1829   -1.4382 N   0  0  0  0  0  0  0  0  0  0  0  0
  -23.7295   12.3885   -1.8654 C   0  0  0  0  0  0  0  0  0  0  0  0
  -25.4991   13.9299   -0.8458 C   0  0  0  0  0  0  0  0  0  0  0  0
  -26.0510   15.1673   -0.6558 N   0  0  0  0  0  0  0  0  0  0  0  0
  -25.5294   16.2490   -1.2404 C   0  0  0  0  0  0  0  0  0  0  0  0
  -24.4556   16.1453   -2.0287 N   0  0  0  0  0  0  0  0  0  0  0  0
  -23.8520   14.9508   -2.2612 C   0  0  0  0  0  0  0  0  0  0  0  0
  -24.3480   13.7826   -1.6719 C   0  0  0  0  0  0  0  0  0  0  0  0
  5  4  1  0  0  0  0
  5  6  1  0  0  0  0
  7  8  2  0  0  0  0
  7 11  1  0  0  0  0
  8  9  1  0  0  0  0
  9 10  2  0  0  0  0
  9  6  1  0  0  0  0
 10  3  1  0  0  0  0
 11 12  1  0  0  0  0
 11 10  1  0  0  0  0
 12 18  1  0  0  0  0
 13  2  1  0  0  0  0
 13 14  2  0  0  0  0
 15 14  1  0  0  0  0
 15  1  1  0  0  0  0
 16 15  2  0  0  0  0
 17 18  2  0  0  0  0
 17 16  1  0  0  0  0
 18 13  1  0  0  0  0
M  END
>  <CHROM.1>
-179.17325051,-66.75196115,-92.68197825,-120.10416307,-22.68769675,12.94491595
-0.62310040,2.51247267,0.43335079,-0.90270200

>  <Name>
lig.pdb

>  <RI>
0

>  <Rbt.Current_Directory>
/home/itssahil/PROJECTS/Mol_Feturizer/New_Systems/rnas/4nyg

>  <Rbt.Executable>
rbdock ($Id: //depot/dev/client3/rdock/2013.1/src/exe/rbdock.cxx#4 $)

>  <Rbt.Library>
libRbt.so (2013.1, Build901 2013/11/27)

>  <Rbt.Parameter_File>
/export/apps/rDock/src/rDock_2013.1_src/data/scripts/dock_solv.prm

>  <Rbt.Receptor>
prm/blind_docking_40.prm

>  <SCORE>
-9.92187

>  <SCORE.INTER>
-9.36849

>  <SCORE.INTER.CONST>
1

>  <SCORE.INTER.POLAR>
0

>  <SCORE.INTER.ROT>
4

>  <SCORE.INTER.SOLV>
11.9668

>  <SCORE.INTER.VDW>
-16.5013

>  <SCORE.INTER.norm>
-0.520472

>  <SCORE.INTRA>
-0.553383

>  <SCORE.INTRA.DIHEDRAL>
-0.055328

>  <SCORE.INTRA.DIHEDRAL.0>
3.20029

>  <SCORE.INTRA.POLAR>
0

>  <SCORE.INTRA.POLAR.0>
0

>  <SCORE.INTRA.REPUL>
0

>  <SCORE.INTRA.REPUL.0>
0

>  <SCORE.INTRA.SOLV>
0.394342

>  <SCORE.INTRA.SOLV.lig_0>
-19.3885

>  <SCORE.INTRA.VDW>
-0.72289

>  <SCORE.INTRA.VDW.0>
-1.12705

>  <SCORE.INTRA.norm>
-0.0307435

>  <SCORE.RESTR>
0

>  <SCORE.RESTR.CAVITY>
0

>  <SCORE.RESTR.norm>
0

>  <SCORE.SYSTEM>
0

>  <SCORE.SYSTEM.CONST>
0

>  <SCORE.SYSTEM.DIHEDRAL>
0

>  <SCORE.SYSTEM.SOLV>
0

>  <SCORE.SYSTEM.norm>
0

>  <SCORE.heavy>
18

>  <SCORE.norm>
-0.551215

>  <RMSD>
16.888

$$$$
lig.pdb
 OpenBabel11021811503D
libRbt.so/2013.1/901 2013/11/27
 18 19  0  0  0  0  0  0  0  0999 V2000
    5.6879   27.6810   10.5109 C   0  0  0  0  0  0  0  0  0  0  0  0
    3.8014   23.3341    9.4726 N   0  0  0  0  0  0  0  0  0  0  0  0
    5.6176   19.7925    6.7291 C   0  0  0  0  0  0  0  0  0  0  0  0
    6.8007   15.3977    9.0298 O   0  0  0  0  0  0  0  0  0  0  0  0
    6.9078   16.7970    9.2522 C   0  0  0  0  0  0  0  0  0  0  0  0
    5.6002   17.5030    8.8441 C   0  0  0  0  0  0  0  0  0  0  0  0
    6.1524   21.4333   10.0507 C   0  0  0  0  0  0  0  0  0  0  0  0
    6.0319   19.8081   10.6407 S   0  0  0  0  0  0  0  0  0  0  0  0
    5.7788   18.9857    9.0850 C   0  0  0  0  0  0  0  0  0  0  0  0
    5.8001   20.0483    8.2158 C   0  0  0  0  0  0  0  0  0  0  0  0
    5.9928   21.2971    8.7406 N   0  0  0  0  0  0  0  0  0  0  0  0
    6.0506   22.5177    7.8604 C   0  0  0  0  0  0  0  0  0  0  0  0
    4.8493   24.2419    9.3203 C   0  0  0  0  0  0  0  0  0  0  0  0
    4.7864   25.4624    9.9354 N   0  0  0  0  0  0  0  0  0  0  0  0
    5.7778   26.3480    9.8068 C   0  0  0  0  0  0  0  0  0  0  0  0
    6.8548   26.0616    9.0696 N   0  0  0  0  0  0  0  0  0  0  0  0
    6.9886   24.8694    8.4325 C   0  0  0  0  0  0  0  0  0  0  0  0
    5.9865   23.8980    8.5343 C   0  0  0  0  0  0  0  0  0  0  0  0
  5  4  1  0  0  0  0
  5  6  1  0  0  0  0
  7  8  2  0  0  0  0
  7 11  1  0  0  0  0
  8  9  1  0  0  0  0
  9 10  2  0  0  0  0
  9  6  1  0  0  0  0
 10  3  1  0  0  0  0
 11 12  1  0  0  0  0
 11 10  1  0  0  0  0
 12 18  1  0  0  0  0
 13  2  1  0  0  0  0
 13 14  2  0  0  0  0
 15 14  1  0  0  0  0
 15  1  1  0  0  0  0
 16 15  2  0  0  0  0
 17 18  2  0  0  0  0
 17 16  1  0  0  0  0
 18 13  1  0  0  0  0
M  END
>  <CHROM.1>
-179.27413051,-64.27142194,-13.06817299,-59.62690635,5.87972917,21.74849135
9.19028171,2.18331236,1.45554493,-0.54966046

>  <Name>
lig.pdb

>  <RI>
0

>  <Rbt.Current_Directory>
/home/itssahil/PROJECTS/Mol_Feturizer/New_Systems/rnas/4nyg

>  <Rbt.Executable>
rbdock ($Id: //depot/dev/client3/rdock/2013.1/src/exe/rbdock.cxx#4 $)

>  <Rbt.Library>
libRbt.so (2013.1, Build901 2013/11/27)

>  <Rbt.Parameter_File>
/export/apps/rDock/src/rDock_2013.1_src/data/scripts/dock_solv.prm

>  <Rbt.Receptor>
prm/blind_docking_80.prm

>  <SCORE>
-15.7776

>  <SCORE.INTER>
-16.0178

>  <SCORE.INTER.CONST>
1

>  <SCORE.INTER.POLAR>
0

>  <SCORE.INTER.ROT>
4

>  <SCORE.INTER.SOLV>
13.1756

>  <SCORE.INTER.VDW>
-21.337

>  <SCORE.INTER.norm>
-0.889876

>  <SCORE.INTRA>
0.24017

>  <SCORE.INTRA.DIHEDRAL>
-0.00200028

>  <SCORE.INTRA.DIHEDRAL.0>
3.20029

>  <SCORE.INTRA.POLAR>
0

>  <SCORE.INTRA.POLAR.0>
0

>  <SCORE.INTRA.REPUL>
0

>  <SCORE.INTRA.REPUL.0>
0

>  <SCORE.INTRA.SOLV>
0.845881

>  <SCORE.INTRA.SOLV.lig_0>
-19.3885

>  <SCORE.INTRA.VDW>
-0.18177

>  <SCORE.INTRA.VDW.0>
-1.12705

>  <SCORE.INTRA.norm>
0.0133428

>  <SCORE.RESTR>
0

>  <SCORE.RESTR.CAVITY>
0

>  <SCORE.RESTR.norm>
0

>  <SCORE.SYSTEM>
0

>  <SCORE.SYSTEM.CONST>
0

>  <SCORE.SYSTEM.DIHEDRAL>
0

>  <SCORE.SYSTEM.SOLV>
0

>  <SCORE.SYSTEM.norm>
0

>  <SCORE.heavy>
18

>  <SCORE.norm>
-0.876533

>  <RMSD>
16.889

$$$$
lig.pdb
 OpenBabel11021811503D
libRbt.so/2013.1/901 2013/11/27
 18 19  0  0  0  0  0  0  0  0999 V2000
  -21.8835   10.0885   -1.3079 C   0  0  0  0  0  0  0  0  0  0  0  0
  -24.0080   13.4850   -4.0432 N   0  0  0  0  0  0  0  0  0  0  0  0
  -23.1077   15.7038   -6.3818 C   0  0  0  0  0  0  0  0  0  0  0  0
  -20.5809   15.1735  -10.8419 O   0  0  0  0  0  0  0  0  0  0  0  0
  -20.1510   15.2409   -9.4893 C   0  0  0  0  0  0  0  0  0  0  0  0
  -21.0650   16.1866   -8.6861 C   0  0  0  0  0  0  0  0  0  0  0  0
  -19.7178   15.6890   -4.7943 C   0  0  0  0  0  0  0  0  0  0  0  0
  -19.1827   15.9599   -6.4205 S   0  0  0  0  0  0  0  0  0  0  0  0
  -20.7721   15.9778   -7.2168 C   0  0  0  0  0  0  0  0  0  0  0  0
  -21.6073   15.7625   -6.1485 C   0  0  0  0  0  0  0  0  0  0  0  0
  -21.0373   15.6160   -4.9134 N   0  0  0  0  0  0  0  0  0  0  0  0
  -21.8771   15.3966   -3.6826 C   0  0  0  0  0  0  0  0  0  0  0  0
  -22.9295   13.1059   -3.2442 C   0  0  0  0  0  0  0  0  0  0  0  0
  -22.9087   11.8616   -2.6757 N   0  0  0  0  0  0  0  0  0  0  0  0
  -21.8865   11.4741   -1.9085 C   0  0  0  0  0  0  0  0  0  0  0  0
  -20.8599   12.2972   -1.6760 N   0  0  0  0  0  0  0  0  0  0  0  0
  -20.8097   13.5456   -2.2090 C   0  0  0  0  0  0  0  0  0  0  0  0
  -21.8476   14.0067   -3.0263 C   0  0  0  0  0  0  0  0  0  0  0  0
  5  4  1  0  0  0  0
  5  6  1  0  0  0  0
  7  8  2  0  0  0  0
  7 11  1  0  0  0  0
  8  9  1  0  0  0  0
  9 10  2  0  0  0  0
  9  6  1  0  0  0  0
 10  3  1  0  0  0  0
 11 12  1  0  0  0  0
 11 10  1  0  0  0  0
 12 18  1  0  0  0  0
 13  2  1  0  0  0  0
 13 14  2  0  0  0  0
 15 14  1  0  0  0  0
 15  1  1  0  0  0  0
 16 15  2  0  0  0  0
 17 18  2  0  0  0  0
 17 16  1  0  0  0  0
 18 13  1  0  0  0  0
M  END
>  <CHROM.1>
167.12233171,49.50599469,-72.03603212,-101.97696895,-21.29782957,14.37244759
-5.09996413,1.82319429,0.55167388,1.96686134

>  <Name>
lig.pdb

>  <RI>
0

>  <Rbt.Current_Directory>
/home/itssahil/PROJECTS/Mol_Feturizer/New_Systems/rnas/4nyg

>  <Rbt.Executable>
rbdock ($Id: //depot/dev/client3/rdock/2013.1/src/exe/rbdock.cxx#4 $)

>  <Rbt.Library>
libRbt.so (2013.1, Build901 2013/11/27)

>  <Rbt.Parameter_File>
/export/apps/rDock/src/rDock_2013.1_src/data/scripts/dock_solv.prm

>  <Rbt.Receptor>
prm/blind_docking_80.prm

>  <SCORE>
-5.10998

>  <SCORE.INTER>
-5.28065

>  <SCORE.INTER.CONST>
1

>  <SCORE.INTER.POLAR>
0

>  <SCORE.INTER.ROT>
4

>  <SCORE.INTER.SOLV>
8.78067

>  <SCORE.INTER.VDW>
-12.714

>  <SCORE.INTER.norm>
-0.293369

>  <SCORE.INTRA>
0.167564

>  <SCORE.INTRA.DIHEDRAL>
0.691693

>  <SCORE.INTRA.DIHEDRAL.0>
3.20029

>  <SCORE.INTRA.POLAR>
0

>  <SCORE.INTRA.POLAR.0>
0

>  <SCORE.INTRA.REPUL>
0

>  <SCORE.INTRA.REPUL.0>
0

>  <SCORE.INTRA.SOLV>
0.551397

>  <SCORE.INTRA.SOLV.lig_0>
-19.3885

>  <SCORE.INTRA.VDW>
-0.453981

>  <SCORE.INTRA.VDW.0>
-1.12705

>  <SCORE.INTRA.norm>
0.00930908

>  <SCORE.RESTR>
0.0031058

>  <SCORE.RESTR.CAVITY>
0.0031058

>  <SCORE.RESTR.norm>
0.000172545

>  <SCORE.SYSTEM>
0

>  <SCORE.SYSTEM.CONST>
0

>  <SCORE.SYSTEM.DIHEDRAL>
0

>  <SCORE.SYSTEM.SOLV>
0

>  <SCORE.SYSTEM.norm>
0

>  <SCORE.heavy>
18

>  <SCORE.norm>
-0.283888

>  <RMSD>
16.924

$$$$
lig.pdb
 OpenBabel11021811503D
libRbt.so/2013.1/901 2013/11/27
 18 19  0  0  0  0  0  0  0  0999 V2000
  -18.7578   10.9523    0.9521 C   0  0  0  0  0  0  0  0  0  0  0  0
  -23.4037   11.3802   -0.3764 N   0  0  0  0  0  0  0  0  0  0  0  0
  -22.0433   15.3883   -3.8913 C   0  0  0  0  0  0  0  0  0  0  0  0
  -22.4056   18.1209   -1.2473 O   0  0  0  0  0  0  0  0  0  0  0  0
  -23.6971   18.4504   -1.7398 C   0  0  0  0  0  0  0  0  0  0  0  0
  -23.9901   17.6663   -3.0336 C   0  0  0  0  0  0  0  0  0  0  0  0
  -24.6823   13.7711   -1.7860 C   0  0  0  0  0  0  0  0  0  0  0  0
  -25.2980   15.3879   -1.6825 S   0  0  0  0  0  0  0  0  0  0  0  0
  -24.0683   16.1979   -2.6787 C   0  0  0  0  0  0  0  0  0  0  0  0
  -23.2592   15.1407   -3.0143 C   0  0  0  0  0  0  0  0  0  0  0  0
  -23.5983   13.9030   -2.5398 N   0  0  0  0  0  0  0  0  0  0  0  0
  -22.7803   12.6834   -2.8740 C   0  0  0  0  0  0  0  0  0  0  0  0
  -22.0589   11.6109   -0.6656 C   0  0  0  0  0  0  0  0  0  0  0  0
  -21.0948   11.2115    0.2191 N   0  0  0  0  0  0  0  0  0  0  0  0
  -19.8003   11.4190   -0.0358 C   0  0  0  0  0  0  0  0  0  0  0  0
  -19.4176   12.0261   -1.1629 N   0  0  0  0  0  0  0  0  0  0  0  0
  -20.3174   12.4471   -2.0893 C   0  0  0  0  0  0  0  0  0  0  0  0
  -21.6876   12.2525   -1.8821 C   0  0  0  0  0  0  0  0  0  0  0  0
  5  4  1  0  0  0  0
  5  6  1  0  0  0  0
  7  8  2  0  0  0  0
  7 11  1  0  0  0  0
  8  9  1  0  0  0  0
  9 10  2  0  0  0  0
  9  6  1  0  0  0  0
 10  3  1  0  0  0  0
 11 12  1  0  0  0  0
 11 10  1  0  0  0  0
 12 18  1  0  0  0  0
 13  2  1  0  0  0  0
 13 14  2  0  0  0  0
 15 14  1  0  0  0  0
 15  1  1  0  0  0  0
 16 15  2  0  0  0  0
 17 18  2  0  0  0  0
 17 16  1  0  0  0  0
 18 13  1  0  0  0  0
M  END
>  <CHROM.1>
65.83950541,67.06487487,-86.75489395,75.11275330,-22.54704972,14.04697213
-1.63642962,-0.98956860,-0.17825443,-0.22706338

>  <Name>
lig.pdb

>  <RI>
0

>  <Rbt.Current_Directory>
/home/itssahil/PROJECTS/Mol_Feturizer/New_Systems/rnas/4nyg

>  <Rbt.Executable>
rbdock ($Id: //depot/dev/client3/rdock/2013.1/src/exe/rbdock.cxx#4 $)

>  <Rbt.Library>
libRbt.so (2013.1, Build901 2013/11/27)

>  <Rbt.Parameter_File>
/export/apps/rDock/src/rDock_2013.1_src/data/scripts/dock_solv.prm

>  <Rbt.Receptor>
prm/blind_docking_40.prm

>  <SCORE>
-9.94106

>  <SCORE.INTER>
-9.59258

>  <SCORE.INTER.CONST>
1

>  <SCORE.INTER.POLAR>
0

>  <SCORE.INTER.ROT>
4

>  <SCORE.INTER.SOLV>
10.1084

>  <SCORE.INTER.VDW>
-16.0312

>  <SCORE.INTER.norm>
-0.532921

>  <SCORE.INTRA>
-0.348483

>  <SCORE.INTRA.DIHEDRAL>
0.0696753

>  <SCORE.INTRA.DIHEDRAL.0>
3.20029

>  <SCORE.INTRA.POLAR>
0

>  <SCORE.INTRA.POLAR.0>
0

>  <SCORE.INTRA.REPUL>
0

>  <SCORE.INTRA.REPUL.0>
0

>  <SCORE.INTRA.SOLV>
1.0836

>  <SCORE.INTRA.SOLV.lig_0>
-19.3885

>  <SCORE.INTRA.VDW>
-0.925118

>  <SCORE.INTRA.VDW.0>
-1.12705

>  <SCORE.INTRA.norm>
-0.0193601

>  <SCORE.RESTR>
0

>  <SCORE.RESTR.CAVITY>
0

>  <SCORE.RESTR.norm>
0

>  <SCORE.SYSTEM>
0

>  <SCORE.SYSTEM.CONST>
0

>  <SCORE.SYSTEM.DIHEDRAL>
0

>  <SCORE.SYSTEM.SOLV>
0

>  <SCORE.SYSTEM.norm>
0

>  <SCORE.heavy>
18

>  <SCORE.norm>
-0.552281

>  <RMSD>
16.965

$$$$
lig.pdb
 OpenBabel11021811503D
libRbt.so/2013.1/901 2013/11/27
 18 19  0  0  0  0  0  0  0  0999 V2000
  -26.3438   16.9103   -0.9499 C   0  0  0  0  0  0  0  0  0  0  0  0
  -22.6222   15.4564   -3.7009 N   0  0  0  0  0  0  0  0  0  0  0  0
  -23.2297   10.3707   -1.2573 C   0  0  0  0  0  0  0  0  0  0  0  0
  -19.7016    9.3097    2.4037 O   0  0  0  0  0  0  0  0  0  0  0  0
  -19.9502   10.3031    1.4187 C   0  0  0  0  0  0  0  0  0  0  0  0
  -20.5409    9.6589    0.1494 C   0  0  0  0  0  0  0  0  0  0  0  0
  -20.6944   12.7979   -2.5582 C   0  0  0  0  0  0  0  0  0  0  0  0
  -19.6292   11.9364   -1.4965 S   0  0  0  0  0  0  0  0  0  0  0  0
  -20.7984   10.7616   -0.8537 C   0  0  0  0  0  0  0  0  0  0  0  0
  -21.9423   11.1359   -1.5143 C   0  0  0  0  0  0  0  0  0  0  0  0
  -21.8601   12.1883   -2.3847 N   0  0  0  0  0  0  0  0  0  0  0  0
  -23.0592   12.6547   -3.1674 C   0  0  0  0  0  0  0  0  0  0  0  0
  -23.6775   15.1178   -2.8541 C   0  0  0  0  0  0  0  0  0  0  0  0
  -24.4645   16.1020   -2.3213 N   0  0  0  0  0  0  0  0  0  0  0  0
  -25.4823   15.8035   -1.5098 C   0  0  0  0  0  0  0  0  0  0  0  0
  -25.7531   14.5330   -1.1970 N   0  0  0  0  0  0  0  0  0  0  0  0
  -25.0177   13.5029   -1.6903 C   0  0  0  0  0  0  0  0  0  0  0  0
  -23.9425   13.7514   -2.5506 C   0  0  0  0  0  0  0  0  0  0  0  0
  5  4  1  0  0  0  0
  5  6  1  0  0  0  0
  7  8  2  0  0  0  0
  7 11  1  0  0  0  0
  8  9  1  0  0  0  0
  9 10  2  0  0  0  0
  9  6  1  0  0  0  0
 10  3  1  0  0  0  0
 11 12  1  0  0  0  0
 11 10  1  0  0  0  0
 12 18  1  0  0  0  0
 13  2  1  0  0  0  0
 13 14  2  0  0  0  0
 15 14  1  0  0  0  0
 15  1  1  0  0  0  0
 16 15  2  0  0  0  0
 17 18  2  0  0  0  0
 17 16  1  0  0  0  0
 18 13  1  0  0  0  0
M  END
>  <CHROM.1>
179.37071620,56.40652303,-89.96924544,92.12928450,-22.46876353,12.79915876
-1.39694690,2.41278165,0.51307990,-0.91171481

>  <Name>
lig.pdb

>  <RI>
0

>  <Rbt.Current_Directory>
/home/itssahil/PROJECTS/Mol_Feturizer/New_Systems/rnas/4nyg

>  <Rbt.Executable>
rbdock ($Id: //depot/dev/client3/rdock/2013.1/src/exe/rbdock.cxx#4 $)

>  <Rbt.Library>
libRbt.so (2013.1, Build901 2013/11/27)

>  <Rbt.Parameter_File>
/export/apps/rDock/src/rDock_2013.1_src/data/scripts/dock_solv.prm

>  <Rbt.Receptor>
prm/blind_docking_40.prm

>  <SCORE>
-10.2274

>  <SCORE.INTER>
-9.8243

>  <SCORE.INTER.CONST>
1

>  <SCORE.INTER.POLAR>
0

>  <SCORE.INTER.ROT>
4

>  <SCORE.INTER.SOLV>
9.62243

>  <SCORE.INTER.VDW>
-16.0237

>  <SCORE.INTER.norm>
-0.545794

>  <SCORE.INTRA>
-0.403103

>  <SCORE.INTRA.DIHEDRAL>
-0.119007

>  <SCORE.INTRA.DIHEDRAL.0>
3.20029

>  <SCORE.INTRA.POLAR>
0

>  <SCORE.INTRA.POLAR.0>
0

>  <SCORE.INTRA.REPUL>
0

>  <SCORE.INTRA.REPUL.0>
0

>  <SCORE.INTRA.SOLV>
0.399281

>  <SCORE.INTRA.SOLV.lig_0>
-19.3885

>  <SCORE.INTRA.VDW>
-0.54324

>  <SCORE.INTRA.VDW.0>
-1.12705

>  <SCORE.INTRA.norm>
-0.0223946

>  <SCORE.RESTR>
0

>  <SCORE.RESTR.CAVITY>
0

>  <SCORE.RESTR.norm>
0

>  <SCORE.SYSTEM>
0

>  <SCORE.SYSTEM.CONST>
0

>  <SCORE.SYSTEM.DIHEDRAL>
0

>  <SCORE.SYSTEM.SOLV>
0

>  <SCORE.SYSTEM.norm>
0

>  <SCORE.heavy>
18

>  <SCORE.norm>
-0.568189

>  <RMSD>
16.975

$$$$
lig.pdb
 OpenBabel11021811503D
libRbt.so/2013.1/901 2013/11/27
 18 19  0  0  0  0  0  0  0  0999 V2000
  -25.9907   17.0993   -1.3200 C   0  0  0  0  0  0  0  0  0  0  0  0
  -25.5096   12.2873   -1.7018 N   0  0  0  0  0  0  0  0  0  0  0  0
  -23.1963   10.1173   -1.2544 C   0  0  0  0  0  0  0  0  0  0  0  0
  -19.8551    9.0841    2.5773 O   0  0  0  0  0  0  0  0  0  0  0  0
  -20.1075   10.0930    1.6090 C   0  0  0  0  0  0  0  0  0  0  0  0
  -20.5668    9.4561    0.2831 C   0  0  0  0  0  0  0  0  0  0  0  0
  -20.6713   12.6477   -2.3649 C   0  0  0  0  0  0  0  0  0  0  0  0
  -19.6388   11.7955   -1.2640 S   0  0  0  0  0  0  0  0  0  0  0  0
  -20.8039   10.5722   -0.7102 C   0  0  0  0  0  0  0  0  0  0  0  0
  -21.9214   10.9263   -1.4248 C   0  0  0  0  0  0  0  0  0  0  0  0
  -21.8250   11.9996   -2.2679 N   0  0  0  0  0  0  0  0  0  0  0  0
  -22.9939   12.4467   -3.1057 C   0  0  0  0  0  0  0  0  0  0  0  0
  -24.9996   13.5576   -1.9697 C   0  0  0  0  0  0  0  0  0  0  0  0
  -25.6868   14.6669   -1.5583 N   0  0  0  0  0  0  0  0  0  0  0  0
  -25.2184   15.8939   -1.8007 C   0  0  0  0  0  0  0  0  0  0  0  0
  -24.0662   16.0654   -2.4552 N   0  0  0  0  0  0  0  0  0  0  0  0
  -23.3277   15.0118   -2.8909 C   0  0  0  0  0  0  0  0  0  0  0  0
  -23.7628   13.7018   -2.6616 C   0  0  0  0  0  0  0  0  0  0  0  0
  5  4  1  0  0  0  0
  5  6  1  0  0  0  0
  7  8  2  0  0  0  0
  7 11  1  0  0  0  0
  8  9  1  0  0  0  0
  9 10  2  0  0  0  0
  9  6  1  0  0  0  0
 10  3  1  0  0  0  0
 11 12  1  0  0  0  0
 11 10  1  0  0  0  0
 12 18  1  0  0  0  0
 13  2  1  0  0  0  0
 13 14  2  0  0  0  0
 15 14  1  0  0  0  0
 15  1  1  0  0  0  0
 16 15  2  0  0  0  0
 17 18  2  0  0  0  0
 17 16  1  0  0  0  0
 18 13  1  0  0  0  0
M  END
>  <CHROM.1>
-179.34822583,58.10730256,-77.03838313,-100.68627659,-22.54544244,12.53680166
-1.28904494,2.31000408,0.30388560,-0.70580966

>  <Name>
lig.pdb

>  <RI>
0

>  <Rbt.Current_Directory>
/home/itssahil/PROJECTS/Mol_Feturizer/New_Systems/rnas/4nyg

>  <Rbt.Executable>
rbdock ($Id: //depot/dev/client3/rdock/2013.1/src/exe/rbdock.cxx#4 $)

>  <Rbt.Library>
libRbt.so (2013.1, Build901 2013/11/27)

>  <Rbt.Parameter_File>
/export/apps/rDock/src/rDock_2013.1_src/data/scripts/dock_solv.prm

>  <Rbt.Receptor>
prm/blind_docking_40.prm

>  <SCORE>
-10.3876

>  <SCORE.INTER>
-10.0867

>  <SCORE.INTER.CONST>
1

>  <SCORE.INTER.POLAR>
0

>  <SCORE.INTER.ROT>
4

>  <SCORE.INTER.SOLV>
10.182

>  <SCORE.INTER.VDW>
-16.3851

>  <SCORE.INTER.norm>
-0.560374

>  <SCORE.INTRA>
-0.300859

>  <SCORE.INTRA.DIHEDRAL>
-0.119966

>  <SCORE.INTRA.DIHEDRAL.0>
3.20029

>  <SCORE.INTRA.POLAR>
0

>  <SCORE.INTRA.POLAR.0>
0

>  <SCORE.INTRA.REPUL>
0

>  <SCORE.INTRA.REPUL.0>
0

>  <SCORE.INTRA.SOLV>
0.609967

>  <SCORE.INTRA.SOLV.lig_0>
-19.3885

>  <SCORE.INTRA.VDW>
-0.545859

>  <SCORE.INTRA.VDW.0>
-1.12705

>  <SCORE.INTRA.norm>
-0.0167144

>  <SCORE.RESTR>
0

>  <SCORE.RESTR.CAVITY>
0

>  <SCORE.RESTR.norm>
0

>  <SCORE.SYSTEM>
0

>  <SCORE.SYSTEM.CONST>
0

>  <SCORE.SYSTEM.DIHEDRAL>
0

>  <SCORE.SYSTEM.SOLV>
0

>  <SCORE.SYSTEM.norm>
0

>  <SCORE.heavy>
18

>  <SCORE.norm>
-0.577088

>  <RMSD>
17.013

$$$$
lig.pdb
 OpenBabel11021811503D
libRbt.so/2013.1/901 2013/11/27
 18 19  0  0  0  0  0  0  0  0999 V2000
    5.7190   27.7393   10.5113 C   0  0  0  0  0  0  0  0  0  0  0  0
    8.0339   24.4570    7.7910 N   0  0  0  0  0  0  0  0  0  0  0  0
    5.2644   19.8939    6.6740 C   0  0  0  0  0  0  0  0  0  0  0  0
    7.6777   17.3340    7.8510 O   0  0  0  0  0  0  0  0  0  0  0  0
    6.7651   16.8064    8.8038 C   0  0  0  0  0  0  0  0  0  0  0  0
    5.4062   17.5252    8.6950 C   0  0  0  0  0  0  0  0  0  0  0  0
    6.1457   21.3972    9.9868 C   0  0  0  0  0  0  0  0  0  0  0  0
    6.0515   19.7525   10.5253 S   0  0  0  0  0  0  0  0  0  0  0  0
    5.6351   18.9946    8.9720 C   0  0  0  0  0  0  0  0  0  0  0  0
    5.5932   20.0894    8.1445 C   0  0  0  0  0  0  0  0  0  0  0  0
    5.8588   21.3140    8.6940 N   0  0  0  0  0  0  0  0  0  0  0  0
    5.8552   22.5666    7.8579 C   0  0  0  0  0  0  0  0  0  0  0  0
    6.8938   24.8118    8.5119 C   0  0  0  0  0  0  0  0  0  0  0  0
    6.8386   26.0241    9.1437 N   0  0  0  0  0  0  0  0  0  0  0  0
    5.7574   26.3879    9.8383 C   0  0  0  0  0  0  0  0  0  0  0  0
    4.7039   25.5717    9.9343 N   0  0  0  0  0  0  0  0  0  0  0  0
    4.6851   24.3546    9.3314 C   0  0  0  0  0  0  0  0  0  0  0  0
    5.7855   23.9197    8.5843 C   0  0  0  0  0  0  0  0  0  0  0  0
  5  4  1  0  0  0  0
  5  6  1  0  0  0  0
  7  8  2  0  0  0  0
  7 11  1  0  0  0  0
  8  9  1  0  0  0  0
  9 10  2  0  0  0  0
  9  6  1  0  0  0  0
 10  3  1  0  0  0  0
 11 12  1  0  0  0  0
 11 10  1  0  0  0  0
 12 18  1  0  0  0  0
 13  2  1  0  0  0  0
 13 14  2  0  0  0  0
 15 14  1  0  0  0  0
 15  1  1  0  0  0  0
 16 15  2  0  0  0  0
 17 18  2  0  0  0  0
 17 16  1  0  0  0  0
 18 13  1  0  0  0  0
M  END
>  <CHROM.1>
-60.40210945,-70.13811460,-17.14763650,114.27941860,6.05502664,21.94182412
8.98039940,1.66496321,1.12968184,0.01747508

>  <Name>
lig.pdb

>  <RI>
0

>  <Rbt.Current_Directory>
/home/itssahil/PROJECTS/Mol_Feturizer/New_Systems/rnas/4nyg

>  <Rbt.Executable>
rbdock ($Id: //depot/dev/client3/rdock/2013.1/src/exe/rbdock.cxx#4 $)

>  <Rbt.Library>
libRbt.so (2013.1, Build901 2013/11/27)

>  <Rbt.Parameter_File>
/export/apps/rDock/src/rDock_2013.1_src/data/scripts/dock_solv.prm

>  <Rbt.Receptor>
prm/blind_docking_40.prm

>  <SCORE>
-15.7127

>  <SCORE.INTER>
-15.9185

>  <SCORE.INTER.CONST>
1

>  <SCORE.INTER.POLAR>
0

>  <SCORE.INTER.ROT>
4

>  <SCORE.INTER.SOLV>
15.1812

>  <SCORE.INTER.VDW>
-21.9394

>  <SCORE.INTER.norm>
-0.884363

>  <SCORE.INTRA>
0.205848

>  <SCORE.INTRA.DIHEDRAL>
0.161591

>  <SCORE.INTRA.DIHEDRAL.0>
3.20029

>  <SCORE.INTRA.POLAR>
0

>  <SCORE.INTRA.POLAR.0>
0

>  <SCORE.INTRA.REPUL>
0

>  <SCORE.INTRA.REPUL.0>
0

>  <SCORE.INTRA.SOLV>
0.703189

>  <SCORE.INTRA.SOLV.lig_0>
-19.3885

>  <SCORE.INTRA.VDW>
-0.226542

>  <SCORE.INTRA.VDW.0>
-1.12705

>  <SCORE.INTRA.norm>
0.011436

>  <SCORE.RESTR>
0

>  <SCORE.RESTR.CAVITY>
0

>  <SCORE.RESTR.norm>
0

>  <SCORE.SYSTEM>
0

>  <SCORE.SYSTEM.CONST>
0

>  <SCORE.SYSTEM.DIHEDRAL>
0

>  <SCORE.SYSTEM.SOLV>
0

>  <SCORE.SYSTEM.norm>
0

>  <SCORE.heavy>
18

>  <SCORE.norm>
-0.872927

>  <RMSD>
17.037

$$$$
lig.pdb
 OpenBabel11021811503D
libRbt.so/2013.1/901 2013/11/27
 18 19  0  0  0  0  0  0  0  0999 V2000
  -21.7996   15.3372   -5.6662 C   0  0  0  0  0  0  0  0  0  0  0  0
  -24.9685   12.9678   -2.8598 N   0  0  0  0  0  0  0  0  0  0  0  0
  -23.8906    9.6267   -0.9368 C   0  0  0  0  0  0  0  0  0  0  0  0
  -20.8771    5.6188   -1.0629 O   0  0  0  0  0  0  0  0  0  0  0  0
  -20.7207    7.0253   -0.9353 C   0  0  0  0  0  0  0  0  0  0  0  0
  -21.7537    7.5883    0.0601 C   0  0  0  0  0  0  0  0  0  0  0  0
  -20.9510   11.6563    0.1816 C   0  0  0  0  0  0  0  0  0  0  0  0
  -20.2811   10.1014    0.5525 S   0  0  0  0  0  0  0  0  0  0  0  0
  -21.6521    9.0973    0.0305 C   0  0  0  0  0  0  0  0  0  0  0  0
  -22.5394   10.0566   -0.3905 C   0  0  0  0  0  0  0  0  0  0  0  0
  -22.1528   11.3659   -0.3001 N   0  0  0  0  0  0  0  0  0  0  0  0
  -23.0531   12.4834   -0.7570 C   0  0  0  0  0  0  0  0  0  0  0  0
  -23.6701   13.4412   -3.0482 C   0  0  0  0  0  0  0  0  0  0  0  0
  -23.3522   14.1163   -4.1949 N   0  0  0  0  0  0  0  0  0  0  0  0
  -22.1167   14.5814   -4.3979 C   0  0  0  0  0  0  0  0  0  0  0  0
  -21.1604   14.3940   -3.4837 N   0  0  0  0  0  0  0  0  0  0  0  0
  -21.4026   13.7362   -2.3202 C   0  0  0  0  0  0  0  0  0  0  0  0
  -22.6787   13.2311   -2.0470 C   0  0  0  0  0  0  0  0  0  0  0  0
  5  4  1  0  0  0  0
  5  6  1  0  0  0  0
  7  8  2  0  0  0  0
  7 11  1  0  0  0  0
  8  9  1  0  0  0  0
  9 10  2  0  0  0  0
  9  6  1  0  0  0  0
 10  3  1  0  0  0  0
 11 12  1  0  0  0  0
 11 10  1  0  0  0  0
 12 18  1  0  0  0  0
 13  2  1  0  0  0  0
 13 14  2  0  0  0  0
 15 14  1  0  0  0  0
 15  1  1  0  0  0  0
 16 15  2  0  0  0  0
 17 18  2  0  0  0  0
 17 16  1  0  0  0  0
 18 13  1  0  0  0  0
M  END
>  <CHROM.1>
-173.31242735,-65.91202254,70.86354170,131.33195219,-22.02701973,11.30437680
-1.59900121,-1.79399544,0.57249419,2.74063211

>  <Name>
lig.pdb

>  <RI>
0

>  <Rbt.Current_Directory>
/home/itssahil/PROJECTS/Mol_Feturizer/New_Systems/rnas/4nyg

>  <Rbt.Executable>
rbdock ($Id: //depot/dev/client3/rdock/2013.1/src/exe/rbdock.cxx#4 $)

>  <Rbt.Library>
libRbt.so (2013.1, Build901 2013/11/27)

>  <Rbt.Parameter_File>
/export/apps/rDock/src/rDock_2013.1_src/data/scripts/dock_solv.prm

>  <Rbt.Receptor>
prm/blind_docking_100.prm

>  <SCORE>
-8.79944

>  <SCORE.INTER>
-8.49556

>  <SCORE.INTER.CONST>
1

>  <SCORE.INTER.POLAR>
0

>  <SCORE.INTER.ROT>
4

>  <SCORE.INTER.SOLV>
10.8861

>  <SCORE.INTER.VDW>
-15.5591

>  <SCORE.INTER.norm>
-0.471975

>  <SCORE.INTRA>
-0.303888

>  <SCORE.INTRA.DIHEDRAL>
0.192177

>  <SCORE.INTRA.DIHEDRAL.0>
3.20029

>  <SCORE.INTRA.POLAR>
0

>  <SCORE.INTRA.POLAR.0>
0

>  <SCORE.INTRA.REPUL>
0

>  <SCORE.INTRA.REPUL.0>
0

>  <SCORE.INTRA.SOLV>
0.164168

>  <SCORE.INTRA.SOLV.lig_0>
-19.3885

>  <SCORE.INTRA.VDW>
-0.482061

>  <SCORE.INTRA.VDW.0>
-1.12705

>  <SCORE.INTRA.norm>
-0.0168827

>  <SCORE.RESTR>
0

>  <SCORE.RESTR.CAVITY>
0

>  <SCORE.RESTR.norm>
0

>  <SCORE.SYSTEM>
0

>  <SCORE.SYSTEM.CONST>
0

>  <SCORE.SYSTEM.DIHEDRAL>
0

>  <SCORE.SYSTEM.SOLV>
0

>  <SCORE.SYSTEM.norm>
0

>  <SCORE.heavy>
18

>  <SCORE.norm>
-0.488858

>  <RMSD>
17.138

$$$$
lig.pdb
 OpenBabel11021811503D
libRbt.so/2013.1/901 2013/11/27
 18 19  0  0  0  0  0  0  0  0999 V2000
  -19.3881   11.0506    0.3590 C   0  0  0  0  0  0  0  0  0  0  0  0
  -24.0391   12.4097    0.1271 N   0  0  0  0  0  0  0  0  0  0  0  0
  -22.6731   16.5684   -3.4317 C   0  0  0  0  0  0  0  0  0  0  0  0
  -20.4247   15.6861   -6.6133 O   0  0  0  0  0  0  0  0  0  0  0  0
  -21.5201   16.0843   -7.4261 C   0  0  0  0  0  0  0  0  0  0  0  0
  -22.6690   16.6174   -6.5482 C   0  0  0  0  0  0  0  0  0  0  0  0
  -24.0001   13.2456   -4.5315 C   0  0  0  0  0  0  0  0  0  0  0  0
  -23.7562   13.9048   -6.1158 S   0  0  0  0  0  0  0  0  0  0  0  0
  -23.1182   15.4944   -5.6397 C   0  0  0  0  0  0  0  0  0  0  0  0
  -23.1499   15.3947   -4.2708 C   0  0  0  0  0  0  0  0  0  0  0  0
  -23.6099   14.2263   -3.7274 N   0  0  0  0  0  0  0  0  0  0  0  0
  -23.6610   14.0209   -2.2363 C   0  0  0  0  0  0  0  0  0  0  0  0
  -22.7525   12.4796   -0.4070 C   0  0  0  0  0  0  0  0  0  0  0  0
  -21.7316   11.7884    0.1860 N   0  0  0  0  0  0  0  0  0  0  0  0
  -20.4915   11.8373   -0.3075 C   0  0  0  0  0  0  0  0  0  0  0  0
  -20.2195   12.5674   -1.3930 N   0  0  0  0  0  0  0  0  0  0  0  0
  -21.1822   13.2772   -2.0370 C   0  0  0  0  0  0  0  0  0  0  0  0
  -22.5018   13.2607   -1.5717 C   0  0  0  0  0  0  0  0  0  0  0  0
  5  4  1  0  0  0  0
  5  6  1  0  0  0  0
  7  8  2  0  0  0  0
  7 11  1  0  0  0  0
  8  9  1  0  0  0  0
  9 10  2  0  0  0  0
  9  6  1  0  0  0  0
 10  3  1  0  0  0  0
 11 12  1  0  0  0  0
 11 10  1  0  0  0  0
 12 18  1  0  0  0  0
 13  2  1  0  0  0  0
 13 14  2  0  0  0  0
 15 14  1  0  0  0  0
 15  1  1  0  0  0  0
 16 15  2  0  0  0  0
 17 18  2  0  0  0  0
 17 16  1  0  0  0  0
 18 13  1  0  0  0  0
M  END
>  <CHROM.1>
-61.30843226,-59.64950765,81.66162963,-149.03686799,-22.34267778,13.91095276
-3.33476991,-1.39744537,0.01950498,-1.05144162

>  <Name>
lig.pdb

>  <RI>
0

>  <Rbt.Current_Directory>
/home/itssahil/PROJECTS/Mol_Feturizer/New_Systems/rnas/4nyg

>  <Rbt.Executable>
rbdock ($Id: //depot/dev/client3/rdock/2013.1/src/exe/rbdock.cxx#4 $)

>  <Rbt.Library>
libRbt.so (2013.1, Build901 2013/11/27)

>  <Rbt.Parameter_File>
/export/apps/rDock/src/rDock_2013.1_src/data/scripts/dock_solv.prm

>  <Rbt.Receptor>
prm/blind_docking_60.prm

>  <SCORE>
-10.3168

>  <SCORE.INTER>
-9.84958

>  <SCORE.INTER.CONST>
1

>  <SCORE.INTER.POLAR>
0

>  <SCORE.INTER.ROT>
4

>  <SCORE.INTER.SOLV>
12.398

>  <SCORE.INTER.VDW>
-16.9657

>  <SCORE.INTER.norm>
-0.547199

>  <SCORE.INTRA>
-0.467265

>  <SCORE.INTRA.DIHEDRAL>
-0.0143972

>  <SCORE.INTRA.DIHEDRAL.0>
3.20029

>  <SCORE.INTRA.POLAR>
0

>  <SCORE.INTRA.POLAR.0>
0

>  <SCORE.INTRA.REPUL>
0

>  <SCORE.INTRA.REPUL.0>
0

>  <SCORE.INTRA.SOLV>
0.480476

>  <SCORE.INTRA.SOLV.lig_0>
-19.3885

>  <SCORE.INTRA.VDW>
-0.700305

>  <SCORE.INTRA.VDW.0>
-1.12705

>  <SCORE.INTRA.norm>
-0.0259592

>  <SCORE.RESTR>
0

>  <SCORE.RESTR.CAVITY>
0

>  <SCORE.RESTR.norm>
0

>  <SCORE.SYSTEM>
0

>  <SCORE.SYSTEM.CONST>
0

>  <SCORE.SYSTEM.DIHEDRAL>
0

>  <SCORE.SYSTEM.SOLV>
0

>  <SCORE.SYSTEM.norm>
0

>  <SCORE.heavy>
18

>  <SCORE.norm>
-0.573158

>  <RMSD>
17.140

$$$$
lig.pdb
 OpenBabel11021811503D
libRbt.so/2013.1/901 2013/11/27
 18 19  0  0  0  0  0  0  0  0999 V2000
  -26.2433   16.7325   -0.2804 C   0  0  0  0  0  0  0  0  0  0  0  0
  -25.6603   12.0204   -1.2747 N   0  0  0  0  0  0  0  0  0  0  0  0
  -21.0125   13.4695   -2.0443 C   0  0  0  0  0  0  0  0  0  0  0  0
  -20.5826   11.5411    1.6725 O   0  0  0  0  0  0  0  0  0  0  0  0
  -19.5816   10.7975    0.9912 C   0  0  0  0  0  0  0  0  0  0  0  0
  -19.4082   11.3285   -0.4451 C   0  0  0  0  0  0  0  0  0  0  0  0
  -23.0095   10.3092   -2.2339 C   0  0  0  0  0  0  0  0  0  0  0  0
  -21.7053    9.6724   -1.2866 S   0  0  0  0  0  0  0  0  0  0  0  0
  -20.7254   11.1510   -1.1675 C   0  0  0  0  0  0  0  0  0  0  0  0
  -21.4903   12.0357   -1.8866 C   0  0  0  0  0  0  0  0  0  0  0  0
  -22.6604   11.5749   -2.4255 N   0  0  0  0  0  0  0  0  0  0  0  0
  -23.5720   12.4797   -3.2120 C   0  0  0  0  0  0  0  0  0  0  0  0
  -25.2869   13.3417   -1.5198 C   0  0  0  0  0  0  0  0  0  0  0  0
  -25.9008   14.3589   -0.8413 N   0  0  0  0  0  0  0  0  0  0  0  0
  -25.5595   15.6321   -1.0564 C   0  0  0  0  0  0  0  0  0  0  0  0
  -24.6102   15.9414   -1.9444 N   0  0  0  0  0  0  0  0  0  0  0  0
  -23.9550   14.9853   -2.6528 C   0  0  0  0  0  0  0  0  0  0  0  0
  -24.2635   13.6331   -2.4669 C   0  0  0  0  0  0  0  0  0  0  0  0
  5  4  1  0  0  0  0
  5  6  1  0  0  0  0
  7  8  2  0  0  0  0
  7 11  1  0  0  0  0
  8  9  1  0  0  0  0
  9 10  2  0  0  0  0
  9  6  1  0  0  0  0
 10  3  1  0  0  0  0
 11 12  1  0  0  0  0
 11 10  1  0  0  0  0
 12 18  1  0  0  0  0
 13  2  1  0  0  0  0
 13 14  2  0  0  0  0
 15 14  1  0  0  0  0
 15  1  1  0  0  0  0
 16 15  2  0  0  0  0
 17 18  2  0  0  0  0
 17 16  1  0  0  0  0
 18 13  1  0  0  0  0
M  END
>  <CHROM.1>
-61.28718944,-51.17244794,112.73100178,-69.72375097,-22.94116290,12.61275724
-1.29058330,-2.60583639,0.57317013,-2.59906629

>  <Name>
lig.pdb

>  <RI>
0

>  <Rbt.Current_Directory>
/home/itssahil/PROJECTS/Mol_Feturizer/New_Systems/rnas/4nyg

>  <Rbt.Executable>
rbdock ($Id: //depot/dev/client3/rdock/2013.1/src/exe/rbdock.cxx#4 $)

>  <Rbt.Library>
libRbt.so (2013.1, Build901 2013/11/27)

>  <Rbt.Parameter_File>
/export/apps/rDock/src/rDock_2013.1_src/data/scripts/dock_solv.prm

>  <Rbt.Receptor>
prm/blind_docking_60.prm

>  <SCORE>
-11.1458

>  <SCORE.INTER>
-11.0111

>  <SCORE.INTER.CONST>
1

>  <SCORE.INTER.POLAR>
0

>  <SCORE.INTER.ROT>
4

>  <SCORE.INTER.SOLV>
12.2573

>  <SCORE.INTER.VDW>
-17.6932

>  <SCORE.INTER.norm>
-0.611726

>  <SCORE.INTRA>
-0.134719

>  <SCORE.INTRA.DIHEDRAL>
0.0850232

>  <SCORE.INTRA.DIHEDRAL.0>
3.20029

>  <SCORE.INTRA.POLAR>
0

>  <SCORE.INTRA.POLAR.0>
0

>  <SCORE.INTRA.REPUL>
0

>  <SCORE.INTRA.REPUL.0>
0

>  <SCORE.INTRA.SOLV>
1.16202

>  <SCORE.INTRA.SOLV.lig_0>
-19.3885

>  <SCORE.INTRA.VDW>
-0.758242

>  <SCORE.INTRA.VDW.0>
-1.12705

>  <SCORE.INTRA.norm>
-0.00748438

>  <SCORE.RESTR>
0

>  <SCORE.RESTR.CAVITY>
0

>  <SCORE.RESTR.norm>
0

>  <SCORE.SYSTEM>
0

>  <SCORE.SYSTEM.CONST>
0

>  <SCORE.SYSTEM.DIHEDRAL>
0

>  <SCORE.SYSTEM.SOLV>
0

>  <SCORE.SYSTEM.norm>
0

>  <SCORE.heavy>
18

>  <SCORE.norm>
-0.619211

>  <RMSD>
17.151

$$$$
lig.pdb
 OpenBabel11021811503D
libRbt.so/2013.1/901 2013/11/27
 18 19  0  0  0  0  0  0  0  0999 V2000
    5.3270   28.3820   10.4030 C   0  0  0  0  0  0  0  0  0  0  0  0
    7.6214   24.8893    7.9394 N   0  0  0  0  0  0  0  0  0  0  0  0
    6.2766   19.8940   10.0788 C   0  0  0  0  0  0  0  0  0  0  0  0
    3.0207   17.2893    6.6484 O   0  0  0  0  0  0  0  0  0  0  0  0
    3.4404   18.6203    6.9156 C   0  0  0  0  0  0  0  0  0  0  0  0
    4.7926   18.6144    7.6548 C   0  0  0  0  0  0  0  0  0  0  0  0
    5.7819   22.6425    7.5863 C   0  0  0  0  0  0  0  0  0  0  0  0
    5.0305   21.3856    6.6591 S   0  0  0  0  0  0  0  0  0  0  0  0
    5.2406   20.0505    7.8141 C   0  0  0  0  0  0  0  0  0  0  0  0
    5.8921   20.6873    8.8412 C   0  0  0  0  0  0  0  0  0  0  0  0
    6.1592   22.0213    8.6964 N   0  0  0  0  0  0  0  0  0  0  0  0
    6.8518   22.8050    9.7801 C   0  0  0  0  0  0  0  0  0  0  0  0
    6.8487   25.2549    9.0416 C   0  0  0  0  0  0  0  0  0  0  0  0
    6.4772   26.5610    9.2084 N   0  0  0  0  0  0  0  0  0  0  0  0
    5.7357   26.9358   10.2541 C   0  0  0  0  0  0  0  0  0  0  0  0
    5.3421   26.0409   11.1649 N   0  0  0  0  0  0  0  0  0  0  0  0
    5.6697   24.7265   11.0638 C   0  0  0  0  0  0  0  0  0  0  0  0
    6.4392   24.2714    9.9873 C   0  0  0  0  0  0  0  0  0  0  0  0
  5  4  1  0  0  0  0
  5  6  1  0  0  0  0
  7  8  2  0  0  0  0
  7 11  1  0  0  0  0
  8  9  1  0  0  0  0
  9 10  2  0  0  0  0
  9  6  1  0  0  0  0
 10  3  1  0  0  0  0
 11 12  1  0  0  0  0
 11 10  1  0  0  0  0
 12 18  1  0  0  0  0
 13  2  1  0  0  0  0
 13 14  2  0  0  0  0
 15 14  1  0  0  0  0
 15  1  1  0  0  0  0
 16 15  2  0  0  0  0
 17 18  2  0  0  0  0
 17 16  1  0  0  0  0
 18 13  1  0  0  0  0
M  END
>  <CHROM.1>
175.58713750,-36.67986598,33.77510383,-73.57136405,5.58656956,22.67552215
8.70015200,0.75432733,-1.27915917,-0.43895896

>  <Name>
lig.pdb

>  <RI>
0

>  <Rbt.Current_Directory>
/home/itssahil/PROJECTS/Mol_Feturizer/New_Systems/rnas/4nyg

>  <Rbt.Executable>
rbdock ($Id: //depot/dev/client3/rdock/2013.1/src/exe/rbdock.cxx#4 $)

>  <Rbt.Library>
libRbt.so (2013.1, Build901 2013/11/27)

>  <Rbt.Parameter_File>
/export/apps/rDock/src/rDock_2013.1_src/data/scripts/dock_solv.prm

>  <Rbt.Receptor>
prm/blind_docking_80.prm

>  <SCORE>
-6.93446

>  <SCORE.INTER>
-7.87791

>  <SCORE.INTER.CONST>
1

>  <SCORE.INTER.POLAR>
0

>  <SCORE.INTER.ROT>
4

>  <SCORE.INTER.SOLV>
12.7276

>  <SCORE.INTER.VDW>
-15.7611

>  <SCORE.INTER.norm>
-0.437661

>  <SCORE.INTRA>
0.92641

>  <SCORE.INTRA.DIHEDRAL>
0.803223

>  <SCORE.INTRA.DIHEDRAL.0>
3.20029

>  <SCORE.INTRA.POLAR>
0

>  <SCORE.INTRA.POLAR.0>
0

>  <SCORE.INTRA.REPUL>
0

>  <SCORE.INTRA.REPUL.0>
0

>  <SCORE.INTRA.SOLV>
0.645918

>  <SCORE.INTRA.SOLV.lig_0>
-19.3885

>  <SCORE.INTRA.VDW>
0.201839

>  <SCORE.INTRA.VDW.0>
-1.12705

>  <SCORE.INTRA.norm>
0.0514672

>  <SCORE.RESTR>
0.0170389

>  <SCORE.RESTR.CAVITY>
0.0170389

>  <SCORE.RESTR.norm>
0.000946606

>  <SCORE.SYSTEM>
0

>  <SCORE.SYSTEM.CONST>
0

>  <SCORE.SYSTEM.DIHEDRAL>
0

>  <SCORE.SYSTEM.SOLV>
0

>  <SCORE.SYSTEM.norm>
0

>  <SCORE.heavy>
18

>  <SCORE.norm>
-0.385248

>  <RMSD>
17.161

$$$$
lig.pdb
 OpenBabel11021811503D
libRbt.so/2013.1/901 2013/11/27
 18 19  0  0  0  0  0  0  0  0999 V2000
  -26.3937   16.6408   -0.2487 C   0  0  0  0  0  0  0  0  0  0  0  0
  -25.7374   11.9715   -1.3887 N   0  0  0  0  0  0  0  0  0  0  0  0
  -20.9585   13.4586   -2.0514 C   0  0  0  0  0  0  0  0  0  0  0  0
  -20.1095    9.8149    1.3529 O   0  0  0  0  0  0  0  0  0  0  0  0
  -19.6441   11.1300    1.0830 C   0  0  0  0  0  0  0  0  0  0  0  0
  -19.3936   11.3072   -0.4272 C   0  0  0  0  0  0  0  0  0  0  0  0
  -23.0281   10.3421   -2.1786 C   0  0  0  0  0  0  0  0  0  0  0  0
  -21.7328    9.6908   -1.2288 S   0  0  0  0  0  0  0  0  0  0  0  0
  -20.7188   11.1483   -1.1391 C   0  0  0  0  0  0  0  0  0  0  0  0
  -21.4678   12.0387   -1.8679 C   0  0  0  0  0  0  0  0  0  0  0  0
  -22.6514   11.5963   -2.3926 N   0  0  0  0  0  0  0  0  0  0  0  0
  -23.5470   12.5090   -3.1882 C   0  0  0  0  0  0  0  0  0  0  0  0
  -25.3564   13.3020   -1.5619 C   0  0  0  0  0  0  0  0  0  0  0  0
  -26.0110   14.2911   -0.8801 N   0  0  0  0  0  0  0  0  0  0  0  0
  -25.6635   15.5723   -1.0271 C   0  0  0  0  0  0  0  0  0  0  0  0
  -24.6678   15.9174   -1.8486 N   0  0  0  0  0  0  0  0  0  0  0  0
  -23.9705   14.9905   -2.5556 C   0  0  0  0  0  0  0  0  0  0  0  0
  -24.2833   13.6315   -2.4390 C   0  0  0  0  0  0  0  0  0  0  0  0
  5  4  1  0  0  0  0
  5  6  1  0  0  0  0
  7  8  2  0  0  0  0
  7 11  1  0  0  0  0
  8  9  1  0  0  0  0
  9 10  2  0  0  0  0
  9  6  1  0  0  0  0
 10  3  1  0  0  0  0
 11 12  1  0  0  0  0
 11 10  1  0  0  0  0
 12 18  1  0  0  0  0
 13  2  1  0  0  0  0
 13 14  2  0  0  0  0
 15 14  1  0  0  0  0
 15  1  1  0  0  0  0
 16 15  2  0  0  0  0
 17 18  2  0  0  0  0
 17 16  1  0  0  0  0
 18 13  1  0  0  0  0
M  END
>  <CHROM.1>
63.33027959,-64.52884354,108.61883492,-71.12339781,-22.94423664,12.51296124
-1.28531187,-2.51948908,0.47856069,-2.78667149

>  <Name>
lig.pdb

>  <RI>
0

>  <Rbt.Current_Directory>
/home/itssahil/PROJECTS/Mol_Feturizer/New_Systems/rnas/4nyg

>  <Rbt.Executable>
rbdock ($Id: //depot/dev/client3/rdock/2013.1/src/exe/rbdock.cxx#4 $)

>  <Rbt.Library>
libRbt.so (2013.1, Build901 2013/11/27)

>  <Rbt.Parameter_File>
/export/apps/rDock/src/rDock_2013.1_src/data/scripts/dock_solv.prm

>  <Rbt.Receptor>
prm/blind_docking_40.prm

>  <SCORE>
-11.1418

>  <SCORE.INTER>
-10.8947

>  <SCORE.INTER.CONST>
1

>  <SCORE.INTER.POLAR>
0

>  <SCORE.INTER.ROT>
4

>  <SCORE.INTER.SOLV>
11.6757

>  <SCORE.INTER.VDW>
-17.4217

>  <SCORE.INTER.norm>
-0.60526

>  <SCORE.INTRA>
-0.247162

>  <SCORE.INTRA.DIHEDRAL>
0.0378915

>  <SCORE.INTRA.DIHEDRAL.0>
3.20029

>  <SCORE.INTRA.POLAR>
0

>  <SCORE.INTRA.POLAR.0>
0

>  <SCORE.INTRA.REPUL>
0

>  <SCORE.INTRA.REPUL.0>
0

>  <SCORE.INTRA.SOLV>
1.08446

>  <SCORE.INTRA.SOLV.lig_0>
-19.3885

>  <SCORE.INTRA.VDW>
-0.808338

>  <SCORE.INTRA.VDW.0>
-1.12705

>  <SCORE.INTRA.norm>
-0.0137312

>  <SCORE.RESTR>
0

>  <SCORE.RESTR.CAVITY>
0

>  <SCORE.RESTR.norm>
0

>  <SCORE.SYSTEM>
0

>  <SCORE.SYSTEM.CONST>
0

>  <SCORE.SYSTEM.DIHEDRAL>
0

>  <SCORE.SYSTEM.SOLV>
0

>  <SCORE.SYSTEM.norm>
0

>  <SCORE.heavy>
18

>  <SCORE.norm>
-0.618992

>  <RMSD>
17.173

$$$$
lig.pdb
 OpenBabel11021811503D
libRbt.so/2013.1/901 2013/11/27
 18 19  0  0  0  0  0  0  0  0999 V2000
  -20.9830    5.7942   -0.7075 C   0  0  0  0  0  0  0  0  0  0  0  0
  -24.3857    9.1766   -1.4243 N   0  0  0  0  0  0  0  0  0  0  0  0
  -24.3456   12.6640   -2.7699 C   0  0  0  0  0  0  0  0  0  0  0  0
  -23.0179   16.8419   -5.4618 O   0  0  0  0  0  0  0  0  0  0  0  0
  -22.4917   16.0265   -4.4239 C   0  0  0  0  0  0  0  0  0  0  0  0
  -22.7886   14.5417   -4.7103 C   0  0  0  0  0  0  0  0  0  0  0  0
  -20.7625   12.5401   -1.6942 C   0  0  0  0  0  0  0  0  0  0  0  0
  -20.5422   13.6357   -3.0190 S   0  0  0  0  0  0  0  0  0  0  0  0
  -22.2322   13.7277   -3.5630 C   0  0  0  0  0  0  0  0  0  0  0  0
  -22.8457   12.8854   -2.6691 C   0  0  0  0  0  0  0  0  0  0  0  0
  -22.0647   12.2865   -1.7186 N   0  0  0  0  0  0  0  0  0  0  0  0
  -22.6551   11.3638   -0.6852 C   0  0  0  0  0  0  0  0  0  0  0  0
  -23.0803    8.8661   -1.0435 C   0  0  0  0  0  0  0  0  0  0  0  0
  -22.6642    7.5628   -1.0420 N   0  0  0  0  0  0  0  0  0  0  0  0
  -21.4187    7.2400   -0.6836 C   0  0  0  0  0  0  0  0  0  0  0  0
  -20.5501    8.1858   -0.3146 N   0  0  0  0  0  0  0  0  0  0  0  0
  -20.8906    9.5007   -0.2946 C   0  0  0  0  0  0  0  0  0  0  0  0
  -22.1787    9.9022   -0.6654 C   0  0  0  0  0  0  0  0  0  0  0  0
  5  4  1  0  0  0  0
  5  6  1  0  0  0  0
  7  8  2  0  0  0  0
  7 11  1  0  0  0  0
  8  9  1  0  0  0  0
  9 10  2  0  0  0  0
  9  6  1  0  0  0  0
 10  3  1  0  0  0  0
 11 12  1  0  0  0  0
 11 10  1  0  0  0  0
 12 18  1  0  0  0  0
 13  2  1  0  0  0  0
 13 14  2  0  0  0  0
 15 14  1  0  0  0  0
 15  1  1  0  0  0  0
 16 15  2  0  0  0  0
 17 18  2  0  0  0  0
 17 16  1  0  0  0  0
 18 13  1  0  0  0  0
M  END
>  <CHROM.1>
-178.86565015,-60.01441379,-62.74561000,-111.40703157,-22.11636829,11.48369399
-2.16026218,-1.49534105,-0.17211071,-0.43392671

>  <Name>
lig.pdb

>  <RI>
0

>  <Rbt.Current_Directory>
/home/itssahil/PROJECTS/Mol_Feturizer/New_Systems/rnas/4nyg

>  <Rbt.Executable>
rbdock ($Id: //depot/dev/client3/rdock/2013.1/src/exe/rbdock.cxx#4 $)

>  <Rbt.Library>
libRbt.so (2013.1, Build901 2013/11/27)

>  <Rbt.Parameter_File>
/export/apps/rDock/src/rDock_2013.1_src/data/scripts/dock_solv.prm

>  <Rbt.Receptor>
prm/blind_docking_100.prm

>  <SCORE>
-11.1086

>  <SCORE.INTER>
-10.8016

>  <SCORE.INTER.CONST>
1

>  <SCORE.INTER.POLAR>
0

>  <SCORE.INTER.ROT>
4

>  <SCORE.INTER.SOLV>
12.2183

>  <SCORE.INTER.VDW>
-17.5405

>  <SCORE.INTER.norm>
-0.600088

>  <SCORE.INTRA>
-0.306988

>  <SCORE.INTRA.DIHEDRAL>
-0.0825694

>  <SCORE.INTRA.DIHEDRAL.0>
3.20029

>  <SCORE.INTRA.POLAR>
0

>  <SCORE.INTRA.POLAR.0>
0

>  <SCORE.INTRA.REPUL>
0

>  <SCORE.INTRA.REPUL.0>
0

>  <SCORE.INTRA.SOLV>
0.348208

>  <SCORE.INTRA.SOLV.lig_0>
-19.3885

>  <SCORE.INTRA.VDW>
-0.439807

>  <SCORE.INTRA.VDW.0>
-1.12705

>  <SCORE.INTRA.norm>
-0.0170549

>  <SCORE.RESTR>
0

>  <SCORE.RESTR.CAVITY>
0

>  <SCORE.RESTR.norm>
0

>  <SCORE.SYSTEM>
0

>  <SCORE.SYSTEM.CONST>
0

>  <SCORE.SYSTEM.DIHEDRAL>
0

>  <SCORE.SYSTEM.SOLV>
0

>  <SCORE.SYSTEM.norm>
0

>  <SCORE.heavy>
18

>  <SCORE.norm>
-0.617143

>  <RMSD>
17.184

$$$$
lig.pdb
 OpenBabel11021811503D
libRbt.so/2013.1/901 2013/11/27
 18 19  0  0  0  0  0  0  0  0999 V2000
  -19.2577    8.7694    4.2960 C   0  0  0  0  0  0  0  0  0  0  0  0
  -20.8082    6.8439    0.1222 N   0  0  0  0  0  0  0  0  0  0  0  0
  -24.2520    9.2953   -1.1673 C   0  0  0  0  0  0  0  0  0  0  0  0
  -25.3370   14.3043   -1.1941 O   0  0  0  0  0  0  0  0  0  0  0  0
  -25.9733   13.0811   -0.8506 C   0  0  0  0  0  0  0  0  0  0  0  0
  -25.6343   11.9941   -1.8891 C   0  0  0  0  0  0  0  0  0  0  0  0
  -21.4949   11.7588   -1.7518 C   0  0  0  0  0  0  0  0  0  0  0  0
  -22.8102   12.8430   -2.0658 S   0  0  0  0  0  0  0  0  0  0  0  0
  -24.1518   11.7084   -1.7947 C   0  0  0  0  0  0  0  0  0  0  0  0
  -23.4691   10.5584   -1.4842 C   0  0  0  0  0  0  0  0  0  0  0  0
  -22.1020   10.6128   -1.4710 N   0  0  0  0  0  0  0  0  0  0  0  0
  -21.2721    9.4056   -1.1219 C   0  0  0  0  0  0  0  0  0  0  0  0
  -20.5397    7.9857    0.8769 C   0  0  0  0  0  0  0  0  0  0  0  0
  -20.0641    7.8607    2.1536 N   0  0  0  0  0  0  0  0  0  0  0  0
  -19.7973    8.9386    2.8957 C   0  0  0  0  0  0  0  0  0  0  0  0
  -19.9926   10.1666    2.4068 N   0  0  0  0  0  0  0  0  0  0  0  0
  -20.4590   10.3689    1.1471 C   0  0  0  0  0  0  0  0  0  0  0  0
  -20.7509    9.2794    0.3189 C   0  0  0  0  0  0  0  0  0  0  0  0
  5  4  1  0  0  0  0
  5  6  1  0  0  0  0
  7  8  2  0  0  0  0
  7 11  1  0  0  0  0
  8  9  1  0  0  0  0
  9 10  2  0  0  0  0
  9  6  1  0  0  0  0
 10  3  1  0  0  0  0
 11 12  1  0  0  0  0
 11 10  1  0  0  0  0
 12 18  1  0  0  0  0
 13  2  1  0  0  0  0
 13 14  2  0  0  0  0
 15 14  1  0  0  0  0
 15  1  1  0  0  0  0
 16 15  2  0  0  0  0
 17 18  2  0  0  0  0
 17 16  1  0  0  0  0
 18 13  1  0  0  0  0
M  END
>  <CHROM.1>
65.71707194,-60.78105702,81.34983648,150.55494974,-22.21289755,10.53306989
-0.17378952,-0.22563027,-0.87071518,0.53127689

>  <Name>
lig.pdb

>  <RI>
0

>  <Rbt.Current_Directory>
/home/itssahil/PROJECTS/Mol_Feturizer/New_Systems/rnas/4nyg

>  <Rbt.Executable>
rbdock ($Id: //depot/dev/client3/rdock/2013.1/src/exe/rbdock.cxx#4 $)

>  <Rbt.Library>
libRbt.so (2013.1, Build901 2013/11/27)

>  <Rbt.Parameter_File>
/export/apps/rDock/src/rDock_2013.1_src/data/scripts/dock_solv.prm

>  <Rbt.Receptor>
prm/blind_docking_40.prm

>  <SCORE>
-9.0792

>  <SCORE.INTER>
-8.7982

>  <SCORE.INTER.CONST>
1

>  <SCORE.INTER.POLAR>
0

>  <SCORE.INTER.ROT>
4

>  <SCORE.INTER.SOLV>
8.85551

>  <SCORE.INTER.VDW>
-15.084

>  <SCORE.INTER.norm>
-0.488789

>  <SCORE.INTRA>
-0.280999

>  <SCORE.INTRA.DIHEDRAL>
0.104674

>  <SCORE.INTRA.DIHEDRAL.0>
3.20029

>  <SCORE.INTRA.POLAR>
0

>  <SCORE.INTRA.POLAR.0>
0

>  <SCORE.INTRA.REPUL>
0

>  <SCORE.INTRA.REPUL.0>
0

>  <SCORE.INTRA.SOLV>
0.458571

>  <SCORE.INTRA.SOLV.lig_0>
-19.3885

>  <SCORE.INTRA.VDW>
-0.562622

>  <SCORE.INTRA.VDW.0>
-1.12705

>  <SCORE.INTRA.norm>
-0.0156111

>  <SCORE.RESTR>
0

>  <SCORE.RESTR.CAVITY>
0

>  <SCORE.RESTR.norm>
0

>  <SCORE.SYSTEM>
0

>  <SCORE.SYSTEM.CONST>
0

>  <SCORE.SYSTEM.DIHEDRAL>
0

>  <SCORE.SYSTEM.SOLV>
0

>  <SCORE.SYSTEM.norm>
0

>  <SCORE.heavy>
18

>  <SCORE.norm>
-0.5044

>  <RMSD>
17.228

$$$$
lig.pdb
 OpenBabel11021811503D
libRbt.so/2013.1/901 2013/11/27
 18 19  0  0  0  0  0  0  0  0999 V2000
  -27.0571   16.4567    0.1596 C   0  0  0  0  0  0  0  0  0  0  0  0
  -23.4850   15.5019   -2.9805 N   0  0  0  0  0  0  0  0  0  0  0  0
  -23.3817   10.4563   -0.7755 C   0  0  0  0  0  0  0  0  0  0  0  0
  -20.5517   11.6084    1.9237 O   0  0  0  0  0  0  0  0  0  0  0  0
  -19.6580   10.7801    1.1929 C   0  0  0  0  0  0  0  0  0  0  0  0
  -20.4170   10.0248    0.0846 C   0  0  0  0  0  0  0  0  0  0  0  0
  -21.3685   12.9931   -2.6526 C   0  0  0  0  0  0  0  0  0  0  0  0
  -20.0452   12.2723   -1.7964 S   0  0  0  0  0  0  0  0  0  0  0  0
  -20.9604   11.0494   -0.8867 C   0  0  0  0  0  0  0  0  0  0  0  0
  -22.2399   11.3008   -1.3161 C   0  0  0  0  0  0  0  0  0  0  0  0
  -22.4210   12.3081   -2.2242 N   0  0  0  0  0  0  0  0  0  0  0  0
  -23.7865   12.6405   -2.7654 C   0  0  0  0  0  0  0  0  0  0  0  0
  -24.4672   15.0199   -2.1155 C   0  0  0  0  0  0  0  0  0  0  0  0
  -25.2495   15.8990   -1.4176 N   0  0  0  0  0  0  0  0  0  0  0  0
  -26.1982   15.4625   -0.5849 C   0  0  0  0  0  0  0  0  0  0  0  0
  -26.4024   14.1533   -0.4125 N   0  0  0  0  0  0  0  0  0  0  0  0
  -25.6673   13.2218   -1.0736 C   0  0  0  0  0  0  0  0  0  0  0  0
  -24.6630   13.6170   -1.9644 C   0  0  0  0  0  0  0  0  0  0  0  0
  5  4  1  0  0  0  0
  5  6  1  0  0  0  0
  7  8  2  0  0  0  0
  7 11  1  0  0  0  0
  8  9  1  0  0  0  0
  9 10  2  0  0  0  0
  9  6  1  0  0  0  0
 10  3  1  0  0  0  0
 11 12  1  0  0  0  0
 11 10  1  0  0  0  0
 12 18  1  0  0  0  0
 13  2  1  0  0  0  0
 13 14  2  0  0  0  0
 15 14  1  0  0  0  0
 15  1  1  0  0  0  0
 16 15  2  0  0  0  0
 17 18  2  0  0  0  0
 17 16  1  0  0  0  0
 18 13  1  0  0  0  0
M  END
>  <CHROM.1>
63.63167400,57.12291255,-94.66789705,82.50705644,-22.97893919,12.97157220
-1.09205678,2.75605970,0.54478295,-1.09148551

>  <Name>
lig.pdb

>  <RI>
0

>  <Rbt.Current_Directory>
/home/itssahil/PROJECTS/Mol_Feturizer/New_Systems/rnas/4nyg

>  <Rbt.Executable>
rbdock ($Id: //depot/dev/client3/rdock/2013.1/src/exe/rbdock.cxx#4 $)

>  <Rbt.Library>
libRbt.so (2013.1, Build901 2013/11/27)

>  <Rbt.Parameter_File>
/export/apps/rDock/src/rDock_2013.1_src/data/scripts/dock_solv.prm

>  <Rbt.Receptor>
prm/blind_docking_100.prm

>  <SCORE>
-10.9844

>  <SCORE.INTER>
-10.5529

>  <SCORE.INTER.CONST>
1

>  <SCORE.INTER.POLAR>
0

>  <SCORE.INTER.ROT>
4

>  <SCORE.INTER.SOLV>
11.1808

>  <SCORE.INTER.VDW>
-17.0288

>  <SCORE.INTER.norm>
-0.58627

>  <SCORE.INTRA>
-0.431525

>  <SCORE.INTRA.DIHEDRAL>
-0.0781429

>  <SCORE.INTRA.DIHEDRAL.0>
3.20029

>  <SCORE.INTRA.POLAR>
0

>  <SCORE.INTRA.POLAR.0>
0

>  <SCORE.INTRA.REPUL>
0

>  <SCORE.INTRA.REPUL.0>
0

>  <SCORE.INTRA.SOLV>
0.970479

>  <SCORE.INTRA.SOLV.lig_0>
-19.3885

>  <SCORE.INTRA.VDW>
-0.877693

>  <SCORE.INTRA.VDW.0>
-1.12705

>  <SCORE.INTRA.norm>
-0.0239736

>  <SCORE.RESTR>
0

>  <SCORE.RESTR.CAVITY>
0

>  <SCORE.RESTR.norm>
0

>  <SCORE.SYSTEM>
0

>  <SCORE.SYSTEM.CONST>
0

>  <SCORE.SYSTEM.DIHEDRAL>
0

>  <SCORE.SYSTEM.SOLV>
0

>  <SCORE.SYSTEM.norm>
0

>  <SCORE.heavy>
18

>  <SCORE.norm>
-0.610243

>  <RMSD>
17.267

$$$$
lig.pdb
 OpenBabel11021811503D
libRbt.so/2013.1/901 2013/11/27
 18 19  0  0  0  0  0  0  0  0999 V2000
  -26.7103   16.5586    1.5849 C   0  0  0  0  0  0  0  0  0  0  0  0
  -25.0592   12.4297   -0.3537 N   0  0  0  0  0  0  0  0  0  0  0  0
  -23.0299   15.7755   -4.5462 C   0  0  0  0  0  0  0  0  0  0  0  0
  -20.1363   17.3711   -2.8650 O   0  0  0  0  0  0  0  0  0  0  0  0
  -19.1933   16.5905   -3.5863 C   0  0  0  0  0  0  0  0  0  0  0  0
  -19.9146   15.7049   -4.6208 C   0  0  0  0  0  0  0  0  0  0  0  0
  -21.9963   12.9145   -2.3648 C   0  0  0  0  0  0  0  0  0  0  0  0
  -20.4005   13.4083   -2.8272 S   0  0  0  0  0  0  0  0  0  0  0  0
  -20.8448   14.7780   -3.8698 C   0  0  0  0  0  0  0  0  0  0  0  0
  -22.2147   14.7437   -3.7848 C   0  0  0  0  0  0  0  0  0  0  0  0
  -22.7806   13.7729   -3.0041 N   0  0  0  0  0  0  0  0  0  0  0  0
  -24.2738   13.6723   -2.8364 C   0  0  0  0  0  0  0  0  0  0  0  0
  -25.2916   13.7980   -0.4922 C   0  0  0  0  0  0  0  0  0  0  0  0
  -25.8628   14.4981    0.5352 N   0  0  0  0  0  0  0  0  0  0  0  0
  -26.0935   15.8092    0.4280 C   0  0  0  0  0  0  0  0  0  0  0  0
  -25.7732   16.4673   -0.6899 N   0  0  0  0  0  0  0  0  0  0  0  0
  -25.2003   15.8398   -1.7498 C   0  0  0  0  0  0  0  0  0  0  0  0
  -24.9280   14.4683   -1.6954 C   0  0  0  0  0  0  0  0  0  0  0  0
  5  4  1  0  0  0  0
  5  6  1  0  0  0  0
  7  8  2  0  0  0  0
  7 11  1  0  0  0  0
  8  9  1  0  0  0  0
  9 10  2  0  0  0  0
  9  6  1  0  0  0  0
 10  3  1  0  0  0  0
 11 12  1  0  0  0  0
 11 10  1  0  0  0  0
 12 18  1  0  0  0  0
 13  2  1  0  0  0  0
 13 14  2  0  0  0  0
 15 14  1  0  0  0  0
 15  1  1  0  0  0  0
 16 15  2  0  0  0  0
 17 18  2  0  0  0  0
 17 16  1  0  0  0  0
 18 13  1  0  0  0  0
M  END
>  <CHROM.1>
-61.24726462,-70.26463420,89.92600827,-101.06104605,-23.08034665,14.85834550
-2.10326564,-3.12350965,-0.59103191,-3.09887277

>  <Name>
lig.pdb

>  <RI>
0

>  <Rbt.Current_Directory>
/home/itssahil/PROJECTS/Mol_Feturizer/New_Systems/rnas/4nyg

>  <Rbt.Executable>
rbdock ($Id: //depot/dev/client3/rdock/2013.1/src/exe/rbdock.cxx#4 $)

>  <Rbt.Library>
libRbt.so (2013.1, Build901 2013/11/27)

>  <Rbt.Parameter_File>
/export/apps/rDock/src/rDock_2013.1_src/data/scripts/dock_solv.prm

>  <Rbt.Receptor>
prm/blind_docking_100.prm

>  <SCORE>
-7.48245

>  <SCORE.INTER>
-7.19718

>  <SCORE.INTER.CONST>
1

>  <SCORE.INTER.POLAR>
0

>  <SCORE.INTER.ROT>
4

>  <SCORE.INTER.SOLV>
8.41024

>  <SCORE.INTER.VDW>
-13.8682

>  <SCORE.INTER.norm>
-0.399843

>  <SCORE.INTRA>
-0.28527

>  <SCORE.INTRA.DIHEDRAL>
0.187799

>  <SCORE.INTRA.DIHEDRAL.0>
3.20029

>  <SCORE.INTRA.POLAR>
0

>  <SCORE.INTRA.POLAR.0>
0

>  <SCORE.INTRA.REPUL>
0

>  <SCORE.INTRA.REPUL.0>
0

>  <SCORE.INTRA.SOLV>
0.867904

>  <SCORE.INTRA.SOLV.lig_0>
-19.3885

>  <SCORE.INTRA.VDW>
-0.813122

>  <SCORE.INTRA.VDW.0>
-1.12705

>  <SCORE.INTRA.norm>
-0.0158483

>  <SCORE.RESTR>
0

>  <SCORE.RESTR.CAVITY>
0

>  <SCORE.RESTR.norm>
0

>  <SCORE.SYSTEM>
0

>  <SCORE.SYSTEM.CONST>
0

>  <SCORE.SYSTEM.DIHEDRAL>
0

>  <SCORE.SYSTEM.SOLV>
0

>  <SCORE.SYSTEM.norm>
0

>  <SCORE.heavy>
18

>  <SCORE.norm>
-0.415691

>  <RMSD>
17.273

$$$$
lig.pdb
 OpenBabel11021811503D
libRbt.so/2013.1/901 2013/11/27
 18 19  0  0  0  0  0  0  0  0999 V2000
  -22.8470   14.6733   -5.7649 C   0  0  0  0  0  0  0  0  0  0  0  0
  -24.7515   14.4172   -1.3108 N   0  0  0  0  0  0  0  0  0  0  0  0
  -23.9597    9.5902   -0.7965 C   0  0  0  0  0  0  0  0  0  0  0  0
  -20.9772    5.3789   -1.1966 O   0  0  0  0  0  0  0  0  0  0  0  0
  -20.7868    6.7736   -1.0024 C   0  0  0  0  0  0  0  0  0  0  0  0
  -21.9078    7.3457   -0.1130 C   0  0  0  0  0  0  0  0  0  0  0  0
  -20.8330   11.3308    0.3016 C   0  0  0  0  0  0  0  0  0  0  0  0
  -20.2467    9.7114    0.4964 S   0  0  0  0  0  0  0  0  0  0  0  0
  -21.7088    8.8424   -0.0210 C   0  0  0  0  0  0  0  0  0  0  0  0
  -22.5538    9.8873   -0.3023 C   0  0  0  0  0  0  0  0  0  0  0  0
  -22.0771   11.1576   -0.1259 N   0  0  0  0  0  0  0  0  0  0  0  0
  -22.9268   12.3636   -0.4287 C   0  0  0  0  0  0  0  0  0  0  0  0
  -23.8088   13.9542   -2.2286 C   0  0  0  0  0  0  0  0  0  0  0  0
  -23.7705   14.4835   -3.4896 N   0  0  0  0  0  0  0  0  0  0  0  0
  -22.8760   14.0587   -4.3858 C   0  0  0  0  0  0  0  0  0  0  0  0
  -21.9981   13.1021   -4.0702 N   0  0  0  0  0  0  0  0  0  0  0  0
  -21.9740   12.5324   -2.8373 C   0  0  0  0  0  0  0  0  0  0  0  0
  -22.8819   12.9396   -1.8534 C   0  0  0  0  0  0  0  0  0  0  0  0
  5  4  1  0  0  0  0
  5  6  1  0  0  0  0
  7  8  2  0  0  0  0
  7 11  1  0  0  0  0
  8  9  1  0  0  0  0
  9 10  2  0  0  0  0
  9  6  1  0  0  0  0
 10  3  1  0  0  0  0
 11 12  1  0  0  0  0
 11 10  1  0  0  0  0
 12 18  1  0  0  0  0
 13  2  1  0  0  0  0
 13 14  2  0  0  0  0
 15 14  1  0  0  0  0
 15  1  1  0  0  0  0
 16 15  2  0  0  0  0
 17 18  2  0  0  0  0
 17 16  1  0  0  0  0
 18 13  1  0  0  0  0
M  END
>  <CHROM.1>
-176.11002824,-54.72694832,89.43705607,171.08394074,-22.22555782,11.07689830
-1.47963766,-2.60784535,-1.23669473,1.65978623

>  <Name>
lig.pdb

>  <RI>
0

>  <Rbt.Current_Directory>
/home/itssahil/PROJECTS/Mol_Feturizer/New_Systems/rnas/4nyg

>  <Rbt.Executable>
rbdock ($Id: //depot/dev/client3/rdock/2013.1/src/exe/rbdock.cxx#4 $)

>  <Rbt.Library>
libRbt.so (2013.1, Build901 2013/11/27)

>  <Rbt.Parameter_File>
/export/apps/rDock/src/rDock_2013.1_src/data/scripts/dock_solv.prm

>  <Rbt.Receptor>
prm/blind_docking_60.prm

>  <SCORE>
-7.99416

>  <SCORE.INTER>
-7.57126

>  <SCORE.INTER.CONST>
1

>  <SCORE.INTER.POLAR>
0

>  <SCORE.INTER.ROT>
4

>  <SCORE.INTER.SOLV>
11.7818

>  <SCORE.INTER.VDW>
-15.2414

>  <SCORE.INTER.norm>
-0.420626

>  <SCORE.INTRA>
-0.422901

>  <SCORE.INTRA.DIHEDRAL>
0.0904687

>  <SCORE.INTRA.DIHEDRAL.0>
3.20029

>  <SCORE.INTRA.POLAR>
0

>  <SCORE.INTRA.POLAR.0>
0

>  <SCORE.INTRA.REPUL>
0

>  <SCORE.INTRA.REPUL.0>
0

>  <SCORE.INTRA.SOLV>
-0.0376727

>  <SCORE.INTRA.SOLV.lig_0>
-19.3885

>  <SCORE.INTRA.VDW>
-0.449299

>  <SCORE.INTRA.VDW.0>
-1.12705

>  <SCORE.INTRA.norm>
-0.0234945

>  <SCORE.RESTR>
0

>  <SCORE.RESTR.CAVITY>
0

>  <SCORE.RESTR.norm>
0

>  <SCORE.SYSTEM>
0

>  <SCORE.SYSTEM.CONST>
0

>  <SCORE.SYSTEM.DIHEDRAL>
0

>  <SCORE.SYSTEM.SOLV>
0

>  <SCORE.SYSTEM.norm>
0

>  <SCORE.heavy>
18

>  <SCORE.norm>
-0.44412

>  <RMSD>
17.332

$$$$
lig.pdb
 OpenBabel11021811503D
libRbt.so/2013.1/901 2013/11/27
 18 19  0  0  0  0  0  0  0  0999 V2000
  -26.3075   15.8770   -0.3497 C   0  0  0  0  0  0  0  0  0  0  0  0
  -22.5622   14.4814   -3.0989 N   0  0  0  0  0  0  0  0  0  0  0  0
  -20.5068   11.4277   -0.9672 C   0  0  0  0  0  0  0  0  0  0  0  0
  -19.7348    8.5804    2.9826 O   0  0  0  0  0  0  0  0  0  0  0  0
  -20.7800    8.8633    2.0625 C   0  0  0  0  0  0  0  0  0  0  0  0
  -20.2605    8.7540    0.6158 C   0  0  0  0  0  0  0  0  0  0  0  0
  -23.5674    9.4373   -1.7937 C   0  0  0  0  0  0  0  0  0  0  0  0
  -22.8432    8.2718   -0.7349 S   0  0  0  0  0  0  0  0  0  0  0  0
  -21.3762    9.1825   -0.3115 C   0  0  0  0  0  0  0  0  0  0  0  0
  -21.5582   10.3330   -1.0382 C   0  0  0  0  0  0  0  0  0  0  0  0
  -22.6944   10.4366   -1.7934 N   0  0  0  0  0  0  0  0  0  0  0  0
  -22.9865   11.6703   -2.6063 C   0  0  0  0  0  0  0  0  0  0  0  0
  -23.6204   14.1255   -2.2629 C   0  0  0  0  0  0  0  0  0  0  0  0
  -24.4159   15.0979   -1.7213 N   0  0  0  0  0  0  0  0  0  0  0  0
  -25.4366   14.7827   -0.9197 C   0  0  0  0  0  0  0  0  0  0  0  0
  -25.7020   13.5066   -0.6258 N   0  0  0  0  0  0  0  0  0  0  0  0
  -24.9581   12.4874   -1.1289 C   0  0  0  0  0  0  0  0  0  0  0  0
  -23.8795   12.7536   -1.9796 C   0  0  0  0  0  0  0  0  0  0  0  0
  5  4  1  0  0  0  0
  5  6  1  0  0  0  0
  7  8  2  0  0  0  0
  7 11  1  0  0  0  0
  8  9  1  0  0  0  0
  9 10  2  0  0  0  0
  9  6  1  0  0  0  0
 10  3  1  0  0  0  0
 11 12  1  0  0  0  0
 11 10  1  0  0  0  0
 12 18  1  0  0  0  0
 13  2  1  0  0  0  0
 13 14  2  0  0  0  0
 15 14  1  0  0  0  0
 15  1  1  0  0  0  0
 16 15  2  0  0  0  0
 17 18  2  0  0  0  0
 17 16  1  0  0  0  0
 18 13  1  0  0  0  0
M  END
>  <CHROM.1>
-175.08676905,-74.21870858,83.94035861,145.03580810,-22.90784826,11.41206777
-0.80927599,-2.94754838,1.00432850,-2.16227739

>  <Name>
lig.pdb

>  <RI>
0

>  <Rbt.Current_Directory>
/home/itssahil/PROJECTS/Mol_Feturizer/New_Systems/rnas/4nyg

>  <Rbt.Executable>
rbdock ($Id: //depot/dev/client3/rdock/2013.1/src/exe/rbdock.cxx#4 $)

>  <Rbt.Library>
libRbt.so (2013.1, Build901 2013/11/27)

>  <Rbt.Parameter_File>
/export/apps/rDock/src/rDock_2013.1_src/data/scripts/dock_solv.prm

>  <Rbt.Receptor>
prm/blind_docking_100.prm

>  <SCORE>
-9.38284

>  <SCORE.INTER>
-9.04397

>  <SCORE.INTER.CONST>
1

>  <SCORE.INTER.POLAR>
0

>  <SCORE.INTER.ROT>
4

>  <SCORE.INTER.SOLV>
8.27076

>  <SCORE.INTER.VDW>
-15.0529

>  <SCORE.INTER.norm>
-0.502443

>  <SCORE.INTRA>
-0.338868

>  <SCORE.INTRA.DIHEDRAL>
0.438447

>  <SCORE.INTRA.DIHEDRAL.0>
3.20029

>  <SCORE.INTRA.POLAR>
0

>  <SCORE.INTRA.POLAR.0>
0

>  <SCORE.INTRA.REPUL>
0

>  <SCORE.INTRA.REPUL.0>
0

>  <SCORE.INTRA.SOLV>
0.082435

>  <SCORE.INTRA.SOLV.lig_0>
-19.3885

>  <SCORE.INTRA.VDW>
-0.599309

>  <SCORE.INTRA.VDW.0>
-1.12705

>  <SCORE.INTRA.norm>
-0.018826

>  <SCORE.RESTR>
0

>  <SCORE.RESTR.CAVITY>
0

>  <SCORE.RESTR.norm>
0

>  <SCORE.SYSTEM>
0

>  <SCORE.SYSTEM.CONST>
0

>  <SCORE.SYSTEM.DIHEDRAL>
0

>  <SCORE.SYSTEM.SOLV>
0

>  <SCORE.SYSTEM.norm>
0

>  <SCORE.heavy>
18

>  <SCORE.norm>
-0.521269

>  <RMSD>
17.352

$$$$
lig.pdb
 OpenBabel11021811503D
libRbt.so/2013.1/901 2013/11/27
 18 19  0  0  0  0  0  0  0  0999 V2000
  -19.0769   10.9898    0.8409 C   0  0  0  0  0  0  0  0  0  0  0  0
  -20.4566   13.3300   -3.1781 N   0  0  0  0  0  0  0  0  0  0  0  0
  -22.9049   16.2077   -3.0003 C   0  0  0  0  0  0  0  0  0  0  0  0
  -23.4168   18.3538    0.1886 O   0  0  0  0  0  0  0  0  0  0  0  0
  -24.7637   18.5892   -0.1980 C   0  0  0  0  0  0  0  0  0  0  0  0
  -25.0177   18.0306   -1.6116 C   0  0  0  0  0  0  0  0  0  0  0  0
  -25.1754   13.9169   -1.1005 C   0  0  0  0  0  0  0  0  0  0  0  0
  -25.9557   15.3984   -0.6530 S   0  0  0  0  0  0  0  0  0  0  0  0
  -24.9052   16.5237   -1.5422 C   0  0  0  0  0  0  0  0  0  0  0  0
  -24.0133   15.6546   -2.1203 C   0  0  0  0  0  0  0  0  0  0  0  0
  -24.1753   14.3183   -1.8746 N   0  0  0  0  0  0  0  0  0  0  0  0
  -23.2566   13.2917   -2.4830 C   0  0  0  0  0  0  0  0  0  0  0  0
  -20.8154   12.7130   -1.9798 C   0  0  0  0  0  0  0  0  0  0  0  0
  -19.8491   12.1653   -1.1810 N   0  0  0  0  0  0  0  0  0  0  0  0
  -20.1669   11.5709   -0.0279 C   0  0  0  0  0  0  0  0  0  0  0  0
  -21.4401   11.4953    0.3703 N   0  0  0  0  0  0  0  0  0  0  0  0
  -22.4526   12.0190   -0.3684 C   0  0  0  0  0  0  0  0  0  0  0  0
  -22.1825   12.6598   -1.5827 C   0  0  0  0  0  0  0  0  0  0  0  0
  5  4  1  0  0  0  0
  5  6  1  0  0  0  0
  7  8  2  0  0  0  0
  7 11  1  0  0  0  0
  8  9  1  0  0  0  0
  9 10  2  0  0  0  0
  9  6  1  0  0  0  0
 10  3  1  0  0  0  0
 11 12  1  0  0  0  0
 11 10  1  0  0  0  0
 12 18  1  0  0  0  0
 13  2  1  0  0  0  0
 13 14  2  0  0  0  0
 15 14  1  0  0  0  0
 15  1  1  0  0  0  0
 16 15  2  0  0  0  0
 17 18  2  0  0  0  0
 17 16  1  0  0  0  0
 18 13  1  0  0  0  0
M  END
>  <CHROM.1>
66.64357170,64.99211492,-77.29764170,-125.05333235,-22.99494613,14.42036634
-1.13963255,-0.85502810,0.14263496,-0.19565593

>  <Name>
lig.pdb

>  <RI>
0

>  <Rbt.Current_Directory>
/home/itssahil/PROJECTS/Mol_Feturizer/New_Systems/rnas/4nyg

>  <Rbt.Executable>
rbdock ($Id: //depot/dev/client3/rdock/2013.1/src/exe/rbdock.cxx#4 $)

>  <Rbt.Library>
libRbt.so (2013.1, Build901 2013/11/27)

>  <Rbt.Parameter_File>
/export/apps/rDock/src/rDock_2013.1_src/data/scripts/dock_solv.prm

>  <Rbt.Receptor>
prm/blind_docking_60.prm

>  <SCORE>
-9.89522

>  <SCORE.INTER>
-9.54627

>  <SCORE.INTER.CONST>
1

>  <SCORE.INTER.POLAR>
0

>  <SCORE.INTER.ROT>
4

>  <SCORE.INTER.SOLV>
12.6388

>  <SCORE.INTER.VDW>
-16.8438

>  <SCORE.INTER.norm>
-0.530348

>  <SCORE.INTRA>
-0.348951

>  <SCORE.INTRA.DIHEDRAL>
0.0770775

>  <SCORE.INTRA.DIHEDRAL.0>
3.20029

>  <SCORE.INTRA.POLAR>
0

>  <SCORE.INTRA.POLAR.0>
0

>  <SCORE.INTRA.REPUL>
0

>  <SCORE.INTRA.REPUL.0>
0

>  <SCORE.INTRA.SOLV>
0.747239

>  <SCORE.INTRA.SOLV.lig_0>
-19.3885

>  <SCORE.INTRA.VDW>
-0.761109

>  <SCORE.INTRA.VDW.0>
-1.12705

>  <SCORE.INTRA.norm>
-0.0193862

>  <SCORE.RESTR>
0

>  <SCORE.RESTR.CAVITY>
0

>  <SCORE.RESTR.norm>
0

>  <SCORE.SYSTEM>
0

>  <SCORE.SYSTEM.CONST>
0

>  <SCORE.SYSTEM.DIHEDRAL>
0

>  <SCORE.SYSTEM.SOLV>
0

>  <SCORE.SYSTEM.norm>
0

>  <SCORE.heavy>
18

>  <SCORE.norm>
-0.549734

>  <RMSD>
17.369

$$$$
lig.pdb
 OpenBabel11021811503D
libRbt.so/2013.1/901 2013/11/27
 18 19  0  0  0  0  0  0  0  0999 V2000
  -20.9338    5.8392   -0.8882 C   0  0  0  0  0  0  0  0  0  0  0  0
  -24.5585    9.0445   -1.2342 N   0  0  0  0  0  0  0  0  0  0  0  0
  -24.5988   12.9535   -2.4289 C   0  0  0  0  0  0  0  0  0  0  0  0
  -23.2297   15.3396   -6.6050 O   0  0  0  0  0  0  0  0  0  0  0  0
  -22.7226   14.4492   -5.6206 C   0  0  0  0  0  0  0  0  0  0  0  0
  -23.0371   14.9806   -4.2087 C   0  0  0  0  0  0  0  0  0  0  0  0
  -20.9780   12.5083   -1.5903 C   0  0  0  0  0  0  0  0  0  0  0  0
  -20.7630   13.7512   -2.7789 S   0  0  0  0  0  0  0  0  0  0  0  0
  -22.4707   13.9991   -3.2066 C   0  0  0  0  0  0  0  0  0  0  0  0
  -23.0853   13.0825   -2.3899 C   0  0  0  0  0  0  0  0  0  0  0  0
  -22.2924   12.3276   -1.5693 N   0  0  0  0  0  0  0  0  0  0  0  0
  -22.8815   11.3122   -0.6258 C   0  0  0  0  0  0  0  0  0  0  0  0
  -23.2090    8.7995   -0.9810 C   0  0  0  0  0  0  0  0  0  0  0  0
  -22.7279    7.5200   -1.0380 N   0  0  0  0  0  0  0  0  0  0  0  0
  -21.4393    7.2596   -0.8019 C   0  0  0  0  0  0  0  0  0  0  0  0
  -20.5899    8.2461   -0.5007 N   0  0  0  0  0  0  0  0  0  0  0  0
  -20.9944    9.5409   -0.4292 C   0  0  0  0  0  0  0  0  0  0  0  0
  -22.3306    9.8777   -0.6726 C   0  0  0  0  0  0  0  0  0  0  0  0
  5  4  1  0  0  0  0
  5  6  1  0  0  0  0
  7  8  2  0  0  0  0
  7 11  1  0  0  0  0
  8  9  1  0  0  0  0
  9 10  2  0  0  0  0
  9  6  1  0  0  0  0
 10  3  1  0  0  0  0
 11 12  1  0  0  0  0
 11 10  1  0  0  0  0
 12 18  1  0  0  0  0
 13  2  1  0  0  0  0
 13 14  2  0  0  0  0
 15 14  1  0  0  0  0
 15  1  1  0  0  0  0
 16 15  2  0  0  0  0
 17 18  2  0  0  0  0
 17 16  1  0  0  0  0
 18 13  1  0  0  0  0
M  END
>  <CHROM.1>
-179.75910447,73.78508237,-53.47114730,-120.03868227,-22.28411006,11.37638174
-2.19234875,-1.46717335,-0.25579797,-0.47392688

>  <Name>
lig.pdb

>  <RI>
0

>  <Rbt.Current_Directory>
/home/itssahil/PROJECTS/Mol_Feturizer/New_Systems/rnas/4nyg

>  <Rbt.Executable>
rbdock ($Id: //depot/dev/client3/rdock/2013.1/src/exe/rbdock.cxx#4 $)

>  <Rbt.Library>
libRbt.so (2013.1, Build901 2013/11/27)

>  <Rbt.Parameter_File>
/export/apps/rDock/src/rDock_2013.1_src/data/scripts/dock_solv.prm

>  <Rbt.Receptor>
prm/blind_docking_100.prm

>  <SCORE>
-10.9615

>  <SCORE.INTER>
-10.882

>  <SCORE.INTER.CONST>
1

>  <SCORE.INTER.POLAR>
0

>  <SCORE.INTER.ROT>
4

>  <SCORE.INTER.SOLV>
13.5702

>  <SCORE.INTER.VDW>
-18.0447

>  <SCORE.INTER.norm>
-0.604554

>  <SCORE.INTRA>
-0.0794911

>  <SCORE.INTRA.DIHEDRAL>
0.271371

>  <SCORE.INTRA.DIHEDRAL.0>
3.20029

>  <SCORE.INTRA.POLAR>
0

>  <SCORE.INTRA.POLAR.0>
0

>  <SCORE.INTRA.REPUL>
0

>  <SCORE.INTRA.REPUL.0>
0

>  <SCORE.INTRA.SOLV>
0.203538

>  <SCORE.INTRA.SOLV.lig_0>
-19.3885

>  <SCORE.INTRA.VDW>
-0.316946

>  <SCORE.INTRA.VDW.0>
-1.12705

>  <SCORE.INTRA.norm>
-0.00441617

>  <SCORE.RESTR>
0

>  <SCORE.RESTR.CAVITY>
0

>  <SCORE.RESTR.norm>
0

>  <SCORE.SYSTEM>
0

>  <SCORE.SYSTEM.CONST>
0

>  <SCORE.SYSTEM.DIHEDRAL>
0

>  <SCORE.SYSTEM.SOLV>
0

>  <SCORE.SYSTEM.norm>
0

>  <SCORE.heavy>
18

>  <SCORE.norm>
-0.60897

>  <RMSD>
17.374

$$$$
lig.pdb
 OpenBabel11021811503D
libRbt.so/2013.1/901 2013/11/27
 18 19  0  0  0  0  0  0  0  0999 V2000
  -20.5997    6.5594   -0.5695 C   0  0  0  0  0  0  0  0  0  0  0  0
  -24.9272    8.6310   -1.2864 N   0  0  0  0  0  0  0  0  0  0  0  0
  -24.7638   14.0849   -1.2178 C   0  0  0  0  0  0  0  0  0  0  0  0
  -22.0809   18.2921   -2.5322 O   0  0  0  0  0  0  0  0  0  0  0  0
  -21.9360   16.8786   -2.5168 C   0  0  0  0  0  0  0  0  0  0  0  0
  -23.2558   16.2030   -2.9368 C   0  0  0  0  0  0  0  0  0  0  0  0
  -22.2466   12.1908   -3.2396 C   0  0  0  0  0  0  0  0  0  0  0  0
  -21.8613   13.7653   -3.8533 S   0  0  0  0  0  0  0  0  0  0  0  0
  -23.0394   14.7061   -2.9112 C   0  0  0  0  0  0  0  0  0  0  0  0
  -23.6549   13.7143   -2.1883 C   0  0  0  0  0  0  0  0  0  0  0  0
  -23.2276   12.4285   -2.3784 N   0  0  0  0  0  0  0  0  0  0  0  0
  -23.8312   11.2799   -1.6138 C   0  0  0  0  0  0  0  0  0  0  0  0
  -23.5443    8.7753   -1.1758 C   0  0  0  0  0  0  0  0  0  0  0  0
  -22.7636    7.6786   -0.9313 N   0  0  0  0  0  0  0  0  0  0  0  0
  -21.4371    7.7903   -0.8233 C   0  0  0  0  0  0  0  0  0  0  0  0
  -20.8419    8.9800   -0.9489 N   0  0  0  0  0  0  0  0  0  0  0  0
  -21.5513   10.1119   -1.1953 C   0  0  0  0  0  0  0  0  0  0  0  0
  -22.9436   10.0583   -1.3252 C   0  0  0  0  0  0  0  0  0  0  0  0
  5  4  1  0  0  0  0
  5  6  1  0  0  0  0
  7  8  2  0  0  0  0
  7 11  1  0  0  0  0
  8  9  1  0  0  0  0
  9 10  2  0  0  0  0
  9  6  1  0  0  0  0
 10  3  1  0  0  0  0
 11 12  1  0  0  0  0
 11 10  1  0  0  0  0
 12 18  1  0  0  0  0
 13  2  1  0  0  0  0
 13 14  2  0  0  0  0
 15 14  1  0  0  0  0
 15  1  1  0  0  0  0
 16 15  2  0  0  0  0
 17 18  2  0  0  0  0
 17 16  1  0  0  0  0
 18 13  1  0  0  0  0
M  END
>  <CHROM.1>
179.61362087,-59.92682928,28.39463768,-151.90970377,-22.63001553,11.99413464
-2.00755258,-1.51672820,0.19303284,-0.23849186

>  <Name>
lig.pdb

>  <RI>
0

>  <Rbt.Current_Directory>
/home/itssahil/PROJECTS/Mol_Feturizer/New_Systems/rnas/4nyg

>  <Rbt.Executable>
rbdock ($Id: //depot/dev/client3/rdock/2013.1/src/exe/rbdock.cxx#4 $)

>  <Rbt.Library>
libRbt.so (2013.1, Build901 2013/11/27)

>  <Rbt.Parameter_File>
/export/apps/rDock/src/rDock_2013.1_src/data/scripts/dock_solv.prm

>  <Rbt.Receptor>
prm/blind_docking_40.prm

>  <SCORE>
-9.05343

>  <SCORE.INTER>
-9.40694

>  <SCORE.INTER.CONST>
1

>  <SCORE.INTER.POLAR>
0

>  <SCORE.INTER.ROT>
4

>  <SCORE.INTER.SOLV>
12.6023

>  <SCORE.INTER.VDW>
-16.7387

>  <SCORE.INTER.norm>
-0.522608

>  <SCORE.INTRA>
0.353515

>  <SCORE.INTRA.DIHEDRAL>
-0.145899

>  <SCORE.INTRA.DIHEDRAL.0>
3.20029

>  <SCORE.INTRA.POLAR>
0

>  <SCORE.INTRA.POLAR.0>
0

>  <SCORE.INTRA.REPUL>
0

>  <SCORE.INTRA.REPUL.0>
0

>  <SCORE.INTRA.SOLV>
0.0360076

>  <SCORE.INTRA.SOLV.lig_0>
-19.3885

>  <SCORE.INTRA.VDW>
0.408461

>  <SCORE.INTRA.VDW.0>
-1.12705

>  <SCORE.INTRA.norm>
0.0196397

>  <SCORE.RESTR>
0

>  <SCORE.RESTR.CAVITY>
0

>  <SCORE.RESTR.norm>
0

>  <SCORE.SYSTEM>
0

>  <SCORE.SYSTEM.CONST>
0

>  <SCORE.SYSTEM.DIHEDRAL>
0

>  <SCORE.SYSTEM.SOLV>
0

>  <SCORE.SYSTEM.norm>
0

>  <SCORE.heavy>
18

>  <SCORE.norm>
-0.502968

>  <RMSD>
17.427

$$$$
lig.pdb
 OpenBabel11021811503D
libRbt.so/2013.1/901 2013/11/27
 18 19  0  0  0  0  0  0  0  0999 V2000
  -22.3717   15.6743   -7.4183 C   0  0  0  0  0  0  0  0  0  0  0  0
  -21.5347   16.3532   -2.6885 N   0  0  0  0  0  0  0  0  0  0  0  0
  -24.4119   11.3967   -1.6114 C   0  0  0  0  0  0  0  0  0  0  0  0
  -22.5310    9.1010    1.4998 O   0  0  0  0  0  0  0  0  0  0  0  0
  -22.1839    8.2718    0.3994 C   0  0  0  0  0  0  0  0  0  0  0  0
  -22.7983    8.8264   -0.9005 C   0  0  0  0  0  0  0  0  0  0  0  0
  -20.8271   12.4464   -1.3685 C   0  0  0  0  0  0  0  0  0  0  0  0
  -20.5773   10.7721   -0.9962 S   0  0  0  0  0  0  0  0  0  0  0  0
  -22.2663   10.2278   -1.1040 C   0  0  0  0  0  0  0  0  0  0  0  0
  -22.9048   11.4022   -1.4176 C   0  0  0  0  0  0  0  0  0  0  0  0
  -22.1394   12.5290   -1.5461 N   0  0  0  0  0  0  0  0  0  0  0  0
  -22.7518   13.8565   -1.9077 C   0  0  0  0  0  0  0  0  0  0  0  0
  -22.0668   15.5513   -3.6981 C   0  0  0  0  0  0  0  0  0  0  0  0
  -21.9881   15.9580   -5.0020 N   0  0  0  0  0  0  0  0  0  0  0  0
  -22.4879   15.2071   -5.9869 C   0  0  0  0  0  0  0  0  0  0  0  0
  -23.0805   14.0399   -5.7190 N   0  0  0  0  0  0  0  0  0  0  0  0
  -23.1927   13.5698   -4.4495 C   0  0  0  0  0  0  0  0  0  0  0  0
  -22.6829   14.3080   -3.3756 C   0  0  0  0  0  0  0  0  0  0  0  0
  5  4  1  0  0  0  0
  5  6  1  0  0  0  0
  7  8  2  0  0  0  0
  7 11  1  0  0  0  0
  8  9  1  0  0  0  0
  9 10  2  0  0  0  0
  9  6  1  0  0  0  0
 10  3  1  0  0  0  0
 11 12  1  0  0  0  0
 11 10  1  0  0  0  0
 12 18  1  0  0  0  0
 13  2  1  0  0  0  0
 13 14  2  0  0  0  0
 15 14  1  0  0  0  0
 15  1  1  0  0  0  0
 16 15  2  0  0  0  0
 17 18  2  0  0  0  0
 17 16  1  0  0  0  0
 18 13  1  0  0  0  0
M  END
>  <CHROM.1>
59.25081477,47.81458822,80.41918744,-122.82907983,-22.26168434,12.56694252
-2.47730316,1.62149722,-0.89428554,-0.69305865

>  <Name>
lig.pdb

>  <RI>
0

>  <Rbt.Current_Directory>
/home/itssahil/PROJECTS/Mol_Feturizer/New_Systems/rnas/4nyg

>  <Rbt.Executable>
rbdock ($Id: //depot/dev/client3/rdock/2013.1/src/exe/rbdock.cxx#4 $)

>  <Rbt.Library>
libRbt.so (2013.1, Build901 2013/11/27)

>  <Rbt.Parameter_File>
/export/apps/rDock/src/rDock_2013.1_src/data/scripts/dock_solv.prm

>  <Rbt.Receptor>
prm/blind_docking_100.prm

>  <SCORE>
-6.738

>  <SCORE.INTER>
-6.58871

>  <SCORE.INTER.CONST>
1

>  <SCORE.INTER.POLAR>
0

>  <SCORE.INTER.ROT>
4

>  <SCORE.INTER.SOLV>
7.71932

>  <SCORE.INTER.VDW>
-13.2322

>  <SCORE.INTER.norm>
-0.36604

>  <SCORE.INTRA>
-0.149285

>  <SCORE.INTRA.DIHEDRAL>
0.252045

>  <SCORE.INTRA.DIHEDRAL.0>
3.20029

>  <SCORE.INTRA.POLAR>
0

>  <SCORE.INTRA.POLAR.0>
0

>  <SCORE.INTRA.REPUL>
0

>  <SCORE.INTRA.REPUL.0>
0

>  <SCORE.INTRA.SOLV>
0.601301

>  <SCORE.INTRA.SOLV.lig_0>
-19.3885

>  <SCORE.INTRA.VDW>
-0.575958

>  <SCORE.INTRA.VDW.0>
-1.12705

>  <SCORE.INTRA.norm>
-0.00829364

>  <SCORE.RESTR>
0

>  <SCORE.RESTR.CAVITY>
0

>  <SCORE.RESTR.norm>
0

>  <SCORE.SYSTEM>
0

>  <SCORE.SYSTEM.CONST>
0

>  <SCORE.SYSTEM.DIHEDRAL>
0

>  <SCORE.SYSTEM.SOLV>
0

>  <SCORE.SYSTEM.norm>
0

>  <SCORE.heavy>
18

>  <SCORE.norm>
-0.374333

>  <RMSD>
17.449

$$$$
lig.pdb
 OpenBabel11021811503D
libRbt.so/2013.1/901 2013/11/27
 18 19  0  0  0  0  0  0  0  0999 V2000
  -26.7645   17.5548    1.3546 C   0  0  0  0  0  0  0  0  0  0  0  0
  -25.7583   12.8907    0.4796 N   0  0  0  0  0  0  0  0  0  0  0  0
  -23.7381   10.8588   -0.8674 C   0  0  0  0  0  0  0  0  0  0  0  0
  -20.4860   11.5701    1.3746 O   0  0  0  0  0  0  0  0  0  0  0  0
  -19.7192   10.9885    0.3293 C   0  0  0  0  0  0  0  0  0  0  0  0
  -20.6468   10.4681   -0.7859 C   0  0  0  0  0  0  0  0  0  0  0  0
  -22.2560   13.9154   -2.4397 C   0  0  0  0  0  0  0  0  0  0  0  0
  -20.7580   13.1178   -2.0873 S   0  0  0  0  0  0  0  0  0  0  0  0
  -21.4176   11.6476   -1.3364 C   0  0  0  0  0  0  0  0  0  0  0  0
  -22.7664   11.8931   -1.4105 C   0  0  0  0  0  0  0  0  0  0  0  0
  -23.1696   13.0690   -1.9820 N   0  0  0  0  0  0  0  0  0  0  0  0
  -24.6290   13.4127   -2.1237 C   0  0  0  0  0  0  0  0  0  0  0  0
  -25.7386   14.2137    0.0384 C   0  0  0  0  0  0  0  0  0  0  0  0
  -26.2346   15.2052    0.8400 N   0  0  0  0  0  0  0  0  0  0  0  0
  -26.2251   16.4799    0.4413 C   0  0  0  0  0  0  0  0  0  0  0  0
  -25.7321   16.8151   -0.7545 N   0  0  0  0  0  0  0  0  0  0  0  0
  -25.2198   15.8859   -1.6027 C   0  0  0  0  0  0  0  0  0  0  0  0
  -25.1960   14.5349   -1.2390 C   0  0  0  0  0  0  0  0  0  0  0  0
  5  4  1  0  0  0  0
  5  6  1  0  0  0  0
  7  8  2  0  0  0  0
  7 11  1  0  0  0  0
  8  9  1  0  0  0  0
  9 10  2  0  0  0  0
  9  6  1  0  0  0  0
 10  3  1  0  0  0  0
 11 12  1  0  0  0  0
 11 10  1  0  0  0  0
 12 18  1  0  0  0  0
 13  2  1  0  0  0  0
 13 14  2  0  0  0  0
 15 14  1  0  0  0  0
 15  1  1  0  0  0  0
 16 15  2  0  0  0  0
 17 18  2  0  0  0  0
 17 16  1  0  0  0  0
 18 13  1  0  0  0  0
M  END
>  <CHROM.1>
61.04122366,59.41705741,-71.59564904,-90.15861558,-23.45518871,13.52516022
-0.71810425,2.87025663,0.66490390,-0.94574512

>  <Name>
lig.pdb

>  <RI>
0

>  <Rbt.Current_Directory>
/home/itssahil/PROJECTS/Mol_Feturizer/New_Systems/rnas/4nyg

>  <Rbt.Executable>
rbdock ($Id: //depot/dev/client3/rdock/2013.1/src/exe/rbdock.cxx#4 $)

>  <Rbt.Library>
libRbt.so (2013.1, Build901 2013/11/27)

>  <Rbt.Parameter_File>
/export/apps/rDock/src/rDock_2013.1_src/data/scripts/dock_solv.prm

>  <Rbt.Receptor>
prm/blind_docking_60.prm

>  <SCORE>
-9.92091

>  <SCORE.INTER>
-9.74037

>  <SCORE.INTER.CONST>
1

>  <SCORE.INTER.POLAR>
0

>  <SCORE.INTER.ROT>
4

>  <SCORE.INTER.SOLV>
8.88141

>  <SCORE.INTER.VDW>
-15.7207

>  <SCORE.INTER.norm>
-0.541132

>  <SCORE.INTRA>
-0.180541

>  <SCORE.INTRA.DIHEDRAL>
-0.110181

>  <SCORE.INTRA.DIHEDRAL.0>
3.20029

>  <SCORE.INTRA.POLAR>
0

>  <SCORE.INTRA.POLAR.0>
0

>  <SCORE.INTRA.REPUL>
0

>  <SCORE.INTRA.REPUL.0>
0

>  <SCORE.INTRA.SOLV>
1.21159

>  <SCORE.INTRA.SOLV.lig_0>
-19.3885

>  <SCORE.INTRA.VDW>
-0.731243

>  <SCORE.INTRA.VDW.0>
-1.12705

>  <SCORE.INTRA.norm>
-0.01003

>  <SCORE.RESTR>
0

>  <SCORE.RESTR.CAVITY>
0

>  <SCORE.RESTR.norm>
0

>  <SCORE.SYSTEM>
0

>  <SCORE.SYSTEM.CONST>
0

>  <SCORE.SYSTEM.DIHEDRAL>
0

>  <SCORE.SYSTEM.SOLV>
0

>  <SCORE.SYSTEM.norm>
0

>  <SCORE.heavy>
18

>  <SCORE.norm>
-0.551162

>  <RMSD>
17.524

$$$$
lig.pdb
 OpenBabel11021811503D
libRbt.so/2013.1/901 2013/11/27
 18 19  0  0  0  0  0  0  0  0999 V2000
  -21.9658   15.3735   -5.5472 C   0  0  0  0  0  0  0  0  0  0  0  0
  -25.0941   12.6998   -2.9787 N   0  0  0  0  0  0  0  0  0  0  0  0
  -20.6806   10.5857   -0.5522 C   0  0  0  0  0  0  0  0  0  0  0  0
  -21.6612    7.0780    1.4346 O   0  0  0  0  0  0  0  0  0  0  0  0
  -21.4961    6.4654    0.1633 C   0  0  0  0  0  0  0  0  0  0  0  0
  -21.0173    7.5034   -0.8703 C   0  0  0  0  0  0  0  0  0  0  0  0
  -24.3066    9.9988   -1.2726 C   0  0  0  0  0  0  0  0  0  0  0  0
  -23.8138    8.3381   -1.3289 S   0  0  0  0  0  0  0  0  0  0  0  0
  -22.0847    8.5690   -0.9863 C   0  0  0  0  0  0  0  0  0  0  0  0
  -22.0186    9.9345   -0.8596 C   0  0  0  0  0  0  0  0  0  0  0  0
  -23.1774   10.6456   -1.0134 N   0  0  0  0  0  0  0  0  0  0  0  0
  -23.2028   12.1447   -0.8717 C   0  0  0  0  0  0  0  0  0  0  0  0
  -23.8118   13.2334   -3.1058 C   0  0  0  0  0  0  0  0  0  0  0  0
  -23.4980   13.9970   -4.1968 N   0  0  0  0  0  0  0  0  0  0  0  0
  -22.2780   14.5210   -4.3404 C   0  0  0  0  0  0  0  0  0  0  0  0
  -21.3331   14.3075   -3.4200 N   0  0  0  0  0  0  0  0  0  0  0  0
  -21.5721   13.5629   -2.3094 C   0  0  0  0  0  0  0  0  0  0  0  0
  -22.8327   12.9927   -2.0994 C   0  0  0  0  0  0  0  0  0  0  0  0
  5  4  1  0  0  0  0
  5  6  1  0  0  0  0
  7  8  2  0  0  0  0
  7 11  1  0  0  0  0
  8  9  1  0  0  0  0
  9 10  2  0  0  0  0
  9  6  1  0  0  0  0
 10  3  1  0  0  0  0
 11 12  1  0  0  0  0
 11 10  1  0  0  0  0
 12 18  1  0  0  0  0
 13  2  1  0  0  0  0
 13 14  2  0  0  0  0
 15 14  1  0  0  0  0
 15  1  1  0  0  0  0
 16 15  2  0  0  0  0
 17 18  2  0  0  0  0
 17 16  1  0  0  0  0
 18 13  1  0  0  0  0
M  END
>  <CHROM.1>
-61.71425120,-53.63977472,-96.55487810,81.18581727,-22.61248962,10.97473003
-1.82807968,-1.63904239,0.17860200,2.63068240

>  <Name>
lig.pdb

>  <RI>
0

>  <Rbt.Current_Directory>
/home/itssahil/PROJECTS/Mol_Feturizer/New_Systems/rnas/4nyg

>  <Rbt.Executable>
rbdock ($Id: //depot/dev/client3/rdock/2013.1/src/exe/rbdock.cxx#4 $)

>  <Rbt.Library>
libRbt.so (2013.1, Build901 2013/11/27)

>  <Rbt.Parameter_File>
/export/apps/rDock/src/rDock_2013.1_src/data/scripts/dock_solv.prm

>  <Rbt.Receptor>
prm/blind_docking_40.prm

>  <SCORE>
-11.7083

>  <SCORE.INTER>
-11.3327

>  <SCORE.INTER.CONST>
1

>  <SCORE.INTER.POLAR>
0

>  <SCORE.INTER.ROT>
4

>  <SCORE.INTER.SOLV>
9.7731

>  <SCORE.INTER.VDW>
-17.0795

>  <SCORE.INTER.norm>
-0.629597

>  <SCORE.INTRA>
-0.375565

>  <SCORE.INTRA.DIHEDRAL>
-0.0620806

>  <SCORE.INTRA.DIHEDRAL.0>
3.20029

>  <SCORE.INTRA.POLAR>
0

>  <SCORE.INTRA.POLAR.0>
0

>  <SCORE.INTRA.REPUL>
0

>  <SCORE.INTRA.REPUL.0>
0

>  <SCORE.INTRA.SOLV>
0.983953

>  <SCORE.INTRA.SOLV.lig_0>
-19.3885

>  <SCORE.INTRA.VDW>
-0.836501

>  <SCORE.INTRA.VDW.0>
-1.12705

>  <SCORE.INTRA.norm>
-0.0208647

>  <SCORE.RESTR>
0

>  <SCORE.RESTR.CAVITY>
0

>  <SCORE.RESTR.norm>
0

>  <SCORE.SYSTEM>
0

>  <SCORE.SYSTEM.CONST>
0

>  <SCORE.SYSTEM.DIHEDRAL>
0

>  <SCORE.SYSTEM.SOLV>
0

>  <SCORE.SYSTEM.norm>
0

>  <SCORE.heavy>
18

>  <SCORE.norm>
-0.650462

>  <RMSD>
17.556

$$$$
lig.pdb
 OpenBabel11021811503D
libRbt.so/2013.1/901 2013/11/27
 18 19  0  0  0  0  0  0  0  0999 V2000
  -19.2077   10.3931    0.9518 C   0  0  0  0  0  0  0  0  0  0  0  0
  -23.4324   10.0853   -1.4125 N   0  0  0  0  0  0  0  0  0  0  0  0
  -25.4158   13.1399   -1.3846 C   0  0  0  0  0  0  0  0  0  0  0  0
  -24.6398   17.8781   -0.3704 O   0  0  0  0  0  0  0  0  0  0  0  0
  -25.5530   16.8465   -0.0228 C   0  0  0  0  0  0  0  0  0  0  0  0
  -26.1101   16.1772   -1.2943 C   0  0  0  0  0  0  0  0  0  0  0  0
  -22.7907   14.8734   -3.4134 C   0  0  0  0  0  0  0  0  0  0  0  0
  -23.6911   16.2914   -2.9863 S   0  0  0  0  0  0  0  0  0  0  0  0
  -24.9566   15.5112   -2.0114 C   0  0  0  0  0  0  0  0  0  0  0  0
  -24.5842   14.1926   -2.0982 C   0  0  0  0  0  0  0  0  0  0  0  0
  -23.4661   13.8929   -2.8275 N   0  0  0  0  0  0  0  0  0  0  0  0
  -22.9722   12.4763   -2.9603 C   0  0  0  0  0  0  0  0  0  0  0  0
  -22.2408   10.7763   -1.1933 C   0  0  0  0  0  0  0  0  0  0  0  0
  -21.3395   10.3045   -0.2785 N   0  0  0  0  0  0  0  0  0  0  0  0
  -20.1905   10.9468   -0.0523 C   0  0  0  0  0  0  0  0  0  0  0  0
  -19.8968   12.0696   -0.7144 N   0  0  0  0  0  0  0  0  0  0  0  0
  -20.7410   12.5958   -1.6394 C   0  0  0  0  0  0  0  0  0  0  0  0
  -21.9571   11.9651   -1.9251 C   0  0  0  0  0  0  0  0  0  0  0  0
  5  4  1  0  0  0  0
  5  6  1  0  0  0  0
  7  8  2  0  0  0  0
  7 11  1  0  0  0  0
  8  9  1  0  0  0  0
  9 10  2  0  0  0  0
  9  6  1  0  0  0  0
 10  3  1  0  0  0  0
 11 12  1  0  0  0  0
 11 10  1  0  0  0  0
 12 18  1  0  0  0  0
 13  2  1  0  0  0  0
 13 14  2  0  0  0  0
 15 14  1  0  0  0  0
 15  1  1  0  0  0  0
 16 15  2  0  0  0  0
 17 18  2  0  0  0  0
 17 16  1  0  0  0  0
 18 13  1  0  0  0  0
M  END
>  <CHROM.1>
63.92971672,-76.00554225,88.29365134,125.21736492,-23.02900850,13.60366380
-1.50455987,-0.86359585,-0.44893466,0.15036249

>  <Name>
lig.pdb

>  <RI>
0

>  <Rbt.Current_Directory>
/home/itssahil/PROJECTS/Mol_Feturizer/New_Systems/rnas/4nyg

>  <Rbt.Executable>
rbdock ($Id: //depot/dev/client3/rdock/2013.1/src/exe/rbdock.cxx#4 $)

>  <Rbt.Library>
libRbt.so (2013.1, Build901 2013/11/27)

>  <Rbt.Parameter_File>
/export/apps/rDock/src/rDock_2013.1_src/data/scripts/dock_solv.prm

>  <Rbt.Receptor>
prm/blind_docking_40.prm

>  <SCORE>
-10.0569

>  <SCORE.INTER>
-9.78571

>  <SCORE.INTER.CONST>
1

>  <SCORE.INTER.POLAR>
0

>  <SCORE.INTER.ROT>
4

>  <SCORE.INTER.SOLV>
10.3639

>  <SCORE.INTER.VDW>
-16.2451

>  <SCORE.INTER.norm>
-0.54365

>  <SCORE.INTRA>
-0.271181

>  <SCORE.INTRA.DIHEDRAL>
0.498196

>  <SCORE.INTRA.DIHEDRAL.0>
3.20029

>  <SCORE.INTRA.POLAR>
0

>  <SCORE.INTRA.POLAR.0>
0

>  <SCORE.INTRA.REPUL>
0

>  <SCORE.INTRA.REPUL.0>
0

>  <SCORE.INTRA.SOLV>
0.734895

>  <SCORE.INTRA.SOLV.lig_0>
-19.3885

>  <SCORE.INTRA.VDW>
-0.887727

>  <SCORE.INTRA.VDW.0>
-1.12705

>  <SCORE.INTRA.norm>
-0.0150656

>  <SCORE.RESTR>
0

>  <SCORE.RESTR.CAVITY>
0

>  <SCORE.RESTR.norm>
0

>  <SCORE.SYSTEM>
0

>  <SCORE.SYSTEM.CONST>
0

>  <SCORE.SYSTEM.DIHEDRAL>
0

>  <SCORE.SYSTEM.SOLV>
0

>  <SCORE.SYSTEM.norm>
0

>  <SCORE.heavy>
18

>  <SCORE.norm>
-0.558716

>  <RMSD>
17.585

$$$$
lig.pdb
 OpenBabel11021811503D
libRbt.so/2013.1/901 2013/11/27
 18 19  0  0  0  0  0  0  0  0999 V2000
  -25.9663   13.2399   -0.3454 C   0  0  0  0  0  0  0  0  0  0  0  0
  -25.3396   17.7235   -2.0882 N   0  0  0  0  0  0  0  0  0  0  0  0
  -20.1855   16.4222   -4.0790 C   0  0  0  0  0  0  0  0  0  0  0  0
  -19.8080   16.3892   -9.0865 O   0  0  0  0  0  0  0  0  0  0  0  0
  -18.9466   16.4339   -7.9573 C   0  0  0  0  0  0  0  0  0  0  0  0
  -19.3862   15.3922   -6.9102 C   0  0  0  0  0  0  0  0  0  0  0  0
  -23.3471   16.3029   -6.0795 C   0  0  0  0  0  0  0  0  0  0  0  0
  -22.2890   15.7422   -7.3325 S   0  0  0  0  0  0  0  0  0  0  0  0
  -20.7637   15.7798   -6.4199 C   0  0  0  0  0  0  0  0  0  0  0  0
  -21.1952   16.2369   -5.1993 C   0  0  0  0  0  0  0  0  0  0  0  0
  -22.5300   16.4994   -5.0527 N   0  0  0  0  0  0  0  0  0  0  0  0
  -23.0951   16.9847   -3.7438 C   0  0  0  0  0  0  0  0  0  0  0  0
  -24.9237   16.3926   -2.0548 C   0  0  0  0  0  0  0  0  0  0  0  0
  -25.5847   15.4933   -1.2634 N   0  0  0  0  0  0  0  0  0  0  0  0
  -25.2072   14.2130   -1.2157 C   0  0  0  0  0  0  0  0  0  0  0  0
  -24.1704   13.7819   -1.9400 N   0  0  0  0  0  0  0  0  0  0  0  0
  -23.4686   14.6158   -2.7507 C   0  0  0  0  0  0  0  0  0  0  0  0
  -23.8198   15.9668   -2.8482 C   0  0  0  0  0  0  0  0  0  0  0  0
  5  4  1  0  0  0  0
  5  6  1  0  0  0  0
  7  8  2  0  0  0  0
  7 11  1  0  0  0  0
  8  9  1  0  0  0  0
  9 10  2  0  0  0  0
  9  6  1  0  0  0  0
 10  3  1  0  0  0  0
 11 12  1  0  0  0  0
 11 10  1  0  0  0  0
 12 18  1  0  0  0  0
 13  2  1  0  0  0  0
 13 14  2  0  0  0  0
 15 14  1  0  0  0  0
 15  1  1  0  0  0  0
 16 15  2  0  0  0  0
 17 18  2  0  0  0  0
 17 16  1  0  0  0  0
 18 13  1  0  0  0  0
M  END
>  <CHROM.1>
-63.92599470,68.48148681,77.43537548,-146.37990594,-22.70469707,15.75653951
-4.50173579,-2.52068684,0.70953384,-0.64648423

>  <Name>
lig.pdb

>  <RI>
0

>  <Rbt.Current_Directory>
/home/itssahil/PROJECTS/Mol_Feturizer/New_Systems/rnas/4nyg

>  <Rbt.Executable>
rbdock ($Id: //depot/dev/client3/rdock/2013.1/src/exe/rbdock.cxx#4 $)

>  <Rbt.Library>
libRbt.so (2013.1, Build901 2013/11/27)

>  <Rbt.Parameter_File>
/export/apps/rDock/src/rDock_2013.1_src/data/scripts/dock_solv.prm

>  <Rbt.Receptor>
prm/blind_docking_100.prm

>  <SCORE>
-6.30952

>  <SCORE.INTER>
-5.92168

>  <SCORE.INTER.CONST>
1

>  <SCORE.INTER.POLAR>
0

>  <SCORE.INTER.ROT>
4

>  <SCORE.INTER.SOLV>
8.58335

>  <SCORE.INTER.VDW>
-13.0756

>  <SCORE.INTER.norm>
-0.328982

>  <SCORE.INTRA>
-0.387846

>  <SCORE.INTRA.DIHEDRAL>
0.155443

>  <SCORE.INTRA.DIHEDRAL.0>
3.20029

>  <SCORE.INTRA.POLAR>
0

>  <SCORE.INTRA.POLAR.0>
0

>  <SCORE.INTRA.REPUL>
0

>  <SCORE.INTRA.REPUL.0>
0

>  <SCORE.INTRA.SOLV>
0.40357

>  <SCORE.INTRA.SOLV.lig_0>
-19.3885

>  <SCORE.INTRA.VDW>
-0.667353

>  <SCORE.INTRA.VDW.0>
-1.12705

>  <SCORE.INTRA.norm>
-0.021547

>  <SCORE.RESTR>
0

>  <SCORE.RESTR.CAVITY>
0

>  <SCORE.RESTR.norm>
0

>  <SCORE.SYSTEM>
0

>  <SCORE.SYSTEM.CONST>
0

>  <SCORE.SYSTEM.DIHEDRAL>
0

>  <SCORE.SYSTEM.SOLV>
0

>  <SCORE.SYSTEM.norm>
0

>  <SCORE.heavy>
18

>  <SCORE.norm>
-0.350529

>  <RMSD>
17.586

$$$$
lig.pdb
 OpenBabel11021811503D
libRbt.so/2013.1/901 2013/11/27
 18 19  0  0  0  0  0  0  0  0999 V2000
  -23.2573   14.4972   -6.3481 C   0  0  0  0  0  0  0  0  0  0  0  0
  -25.1043   12.7064   -2.2354 N   0  0  0  0  0  0  0  0  0  0  0  0
  -20.5070   10.3780    0.3037 C   0  0  0  0  0  0  0  0  0  0  0  0
  -20.5761    6.2820   -1.7307 O   0  0  0  0  0  0  0  0  0  0  0  0
  -21.2786    6.0809   -0.5121 C   0  0  0  0  0  0  0  0  0  0  0  0
  -21.1679    7.3329    0.3796 C   0  0  0  0  0  0  0  0  0  0  0  0
  -23.7352    9.9622   -1.5450 C   0  0  0  0  0  0  0  0  0  0  0  0
  -23.5008    8.2885   -1.1605 S   0  0  0  0  0  0  0  0  0  0  0  0
  -21.9683    8.4389   -0.2720 C   0  0  0  0  0  0  0  0  0  0  0  0
  -21.7483    9.7919   -0.3480 C   0  0  0  0  0  0  0  0  0  0  0  0
  -22.6734   10.5517   -1.0105 N   0  0  0  0  0  0  0  0  0  0  0  0
  -22.5240   12.0458   -1.1261 C   0  0  0  0  0  0  0  0  0  0  0  0
  -23.9783   12.9868   -3.0094 C   0  0  0  0  0  0  0  0  0  0  0  0
  -24.1263   13.5643   -4.2409 N   0  0  0  0  0  0  0  0  0  0  0  0
  -23.0638   13.8446   -5.0001 C   0  0  0  0  0  0  0  0  0  0  0  0
  -21.8293   13.5632   -4.5733 N   0  0  0  0  0  0  0  0  0  0  0  0
  -21.6045   12.9929   -3.3610 C   0  0  0  0  0  0  0  0  0  0  0  0
  -22.6767   12.6816   -2.5175 C   0  0  0  0  0  0  0  0  0  0  0  0
  5  4  1  0  0  0  0
  5  6  1  0  0  0  0
  7  8  2  0  0  0  0
  7 11  1  0  0  0  0
  8  9  1  0  0  0  0
  9 10  2  0  0  0  0
  9  6  1  0  0  0  0
 10  3  1  0  0  0  0
 11 12  1  0  0  0  0
 11 10  1  0  0  0  0
 12 18  1  0  0  0  0
 13  2  1  0  0  0  0
 13 14  2  0  0  0  0
 15 14  1  0  0  0  0
 15  1  1  0  0  0  0
 16 15  2  0  0  0  0
 17 18  2  0  0  0  0
 17 16  1  0  0  0  0
 18 13  1  0  0  0  0
M  END
>  <CHROM.1>
69.18476592,36.47519643,-50.45470542,83.82059031,-22.55791514,10.65644540
-2.05888538,-1.80231048,-0.35231529,2.49951136

>  <Name>
lig.pdb

>  <RI>
0

>  <Rbt.Current_Directory>
/home/itssahil/PROJECTS/Mol_Feturizer/New_Systems/rnas/4nyg

>  <Rbt.Executable>
rbdock ($Id: //depot/dev/client3/rdock/2013.1/src/exe/rbdock.cxx#4 $)

>  <Rbt.Library>
libRbt.so (2013.1, Build901 2013/11/27)

>  <Rbt.Parameter_File>
/export/apps/rDock/src/rDock_2013.1_src/data/scripts/dock_solv.prm

>  <Rbt.Receptor>
prm/blind_docking_100.prm

>  <SCORE>
-10.3661

>  <SCORE.INTER>
-11.0865

>  <SCORE.INTER.CONST>
1

>  <SCORE.INTER.POLAR>
0

>  <SCORE.INTER.ROT>
4

>  <SCORE.INTER.SOLV>
12.0996

>  <SCORE.INTER.VDW>
-17.6909

>  <SCORE.INTER.norm>
-0.615919

>  <SCORE.INTRA>
0.720409

>  <SCORE.INTRA.DIHEDRAL>
1.17467

>  <SCORE.INTRA.DIHEDRAL.0>
3.20029

>  <SCORE.INTRA.POLAR>
0

>  <SCORE.INTRA.POLAR.0>
0

>  <SCORE.INTRA.REPUL>
0

>  <SCORE.INTRA.REPUL.0>
0

>  <SCORE.INTRA.SOLV>
0.89678

>  <SCORE.INTRA.SOLV.lig_0>
-19.3885

>  <SCORE.INTRA.VDW>
-0.315314

>  <SCORE.INTRA.VDW.0>
-1.12705

>  <SCORE.INTRA.norm>
0.0400227

>  <SCORE.RESTR>
0

>  <SCORE.RESTR.CAVITY>
0

>  <SCORE.RESTR.norm>
0

>  <SCORE.SYSTEM>
0

>  <SCORE.SYSTEM.CONST>
0

>  <SCORE.SYSTEM.DIHEDRAL>
0

>  <SCORE.SYSTEM.SOLV>
0

>  <SCORE.SYSTEM.norm>
0

>  <SCORE.heavy>
18

>  <SCORE.norm>
-0.575897

>  <RMSD>
17.588

$$$$
lig.pdb
 OpenBabel11021811503D
libRbt.so/2013.1/901 2013/11/27
 18 19  0  0  0  0  0  0  0  0999 V2000
  -19.7842   17.6128   -1.8955 C   0  0  0  0  0  0  0  0  0  0  0  0
  -24.2087   15.7436   -2.5755 N   0  0  0  0  0  0  0  0  0  0  0  0
  -22.1484   11.8290   -2.1729 C   0  0  0  0  0  0  0  0  0  0  0  0
  -24.2587    8.0636    0.1395 O   0  0  0  0  0  0  0  0  0  0  0  0
  -24.4627    8.9975   -0.9118 C   0  0  0  0  0  0  0  0  0  0  0  0
  -24.2903   10.4363   -0.3873 C   0  0  0  0  0  0  0  0  0  0  0  0
  -25.4766   12.9774   -3.4441 C   0  0  0  0  0  0  0  0  0  0  0  0
  -26.0800   11.9523   -2.1835 S   0  0  0  0  0  0  0  0  0  0  0  0
  -24.5218   11.3827   -1.5445 C   0  0  0  0  0  0  0  0  0  0  0  0
  -23.6408   12.0335   -2.3723 C   0  0  0  0  0  0  0  0  0  0  0  0
  -24.1601   12.8469   -3.3423 N   0  0  0  0  0  0  0  0  0  0  0  0
  -23.2687   13.6154   -4.2819 C   0  0  0  0  0  0  0  0  0  0  0  0
  -22.8410   15.6876   -2.8432 C   0  0  0  0  0  0  0  0  0  0  0  0
  -22.0017   16.6169   -2.2919 N   0  0  0  0  0  0  0  0  0  0  0  0
  -20.6881   16.5835   -2.5311 C   0  0  0  0  0  0  0  0  0  0  0  0
  -20.1638   15.6404   -3.3192 N   0  0  0  0  0  0  0  0  0  0  0  0
  -20.9341   14.6831   -3.8984 C   0  0  0  0  0  0  0  0  0  0  0  0
  -22.3162   14.6616   -3.6805 C   0  0  0  0  0  0  0  0  0  0  0  0
  5  4  1  0  0  0  0
  5  6  1  0  0  0  0
  7  8  2  0  0  0  0
  7 11  1  0  0  0  0
  8  9  1  0  0  0  0
  9 10  2  0  0  0  0
  9  6  1  0  0  0  0
 10  3  1  0  0  0  0
 11 12  1  0  0  0  0
 11 10  1  0  0  0  0
 12 18  1  0  0  0  0
 13  2  1  0  0  0  0
 13 14  2  0  0  0  0
 15 14  1  0  0  0  0
 15  1  1  0  0  0  0
 16 15  2  0  0  0  0
 17 18  2  0  0  0  0
 17 16  1  0  0  0  0
 18 13  1  0  0  0  0
M  END
>  <CHROM.1>
-179.84847448,81.75428666,116.86597465,-54.30439262,-23.27832817,13.24968022
-2.36380211,-1.02357117,0.28639804,2.70640597

>  <Name>
lig.pdb

>  <RI>
0

>  <Rbt.Current_Directory>
/home/itssahil/PROJECTS/Mol_Feturizer/New_Systems/rnas/4nyg

>  <Rbt.Executable>
rbdock ($Id: //depot/dev/client3/rdock/2013.1/src/exe/rbdock.cxx#4 $)

>  <Rbt.Library>
libRbt.so (2013.1, Build901 2013/11/27)

>  <Rbt.Parameter_File>
/export/apps/rDock/src/rDock_2013.1_src/data/scripts/dock_solv.prm

>  <Rbt.Receptor>
prm/blind_docking_60.prm

>  <SCORE>
-11.9342

>  <SCORE.INTER>
-11.8861

>  <SCORE.INTER.CONST>
1

>  <SCORE.INTER.POLAR>
0

>  <SCORE.INTER.ROT>
4

>  <SCORE.INTER.SOLV>
13.0946

>  <SCORE.INTER.VDW>
-18.5556

>  <SCORE.INTER.norm>
-0.660339

>  <SCORE.INTRA>
-0.0480662

>  <SCORE.INTRA.DIHEDRAL>
0.700386

>  <SCORE.INTRA.DIHEDRAL.0>
3.20029

>  <SCORE.INTRA.POLAR>
0

>  <SCORE.INTRA.POLAR.0>
0

>  <SCORE.INTRA.REPUL>
0

>  <SCORE.INTRA.REPUL.0>
0

>  <SCORE.INTRA.SOLV>
1.01433

>  <SCORE.INTRA.SOLV.lig_0>
-19.3885

>  <SCORE.INTRA.VDW>
-0.905422

>  <SCORE.INTRA.VDW.0>
-1.12705

>  <SCORE.INTRA.norm>
-0.00267035

>  <SCORE.RESTR>
0

>  <SCORE.RESTR.CAVITY>
0

>  <SCORE.RESTR.norm>
0

>  <SCORE.SYSTEM>
0

>  <SCORE.SYSTEM.CONST>
0

>  <SCORE.SYSTEM.DIHEDRAL>
0

>  <SCORE.SYSTEM.SOLV>
0

>  <SCORE.SYSTEM.norm>
0

>  <SCORE.heavy>
18

>  <SCORE.norm>
-0.66301

>  <RMSD>
18.096

$$$$
lig.pdb
 OpenBabel11021811503D
libRbt.so/2013.1/901 2013/11/27
 18 19  0  0  0  0  0  0  0  0999 V2000
  -26.8392   16.8654    1.6056 C   0  0  0  0  0  0  0  0  0  0  0  0
  -24.3569   16.1168   -2.4944 N   0  0  0  0  0  0  0  0  0  0  0  0
  -21.6327   12.3780   -2.0556 C   0  0  0  0  0  0  0  0  0  0  0  0
  -19.9381    8.4009    0.6418 O   0  0  0  0  0  0  0  0  0  0  0  0
  -21.1474    9.0962    0.3715 C   0  0  0  0  0  0  0  0  0  0  0  0
  -21.2478    9.4265   -1.1304 C   0  0  0  0  0  0  0  0  0  0  0  0
  -25.0701   10.9741   -1.5815 C   0  0  0  0  0  0  0  0  0  0  0  0
  -24.1998    9.5392   -1.1483 S   0  0  0  0  0  0  0  0  0  0  0  0
  -22.5488   10.1644   -1.3572 C   0  0  0  0  0  0  0  0  0  0  0  0
  -22.8010   11.4527   -1.7591 C   0  0  0  0  0  0  0  0  0  0  0  0
  -24.1082   11.8421   -1.8674 N   0  0  0  0  0  0  0  0  0  0  0  0
  -24.4782   13.2419   -2.2818 C   0  0  0  0  0  0  0  0  0  0  0  0
  -25.0128   15.5788   -1.3872 C   0  0  0  0  0  0  0  0  0  0  0  0
  -25.5768   16.4119   -0.4600 N   0  0  0  0  0  0  0  0  0  0  0  0
  -26.2122   15.9214    0.6075 C   0  0  0  0  0  0  0  0  0  0  0  0
  -26.3084   14.6020    0.7953 N   0  0  0  0  0  0  0  0  0  0  0  0
  -25.7762   13.7139   -0.0841 C   0  0  0  0  0  0  0  0  0  0  0  0
  -25.1041   14.1665   -1.2250 C   0  0  0  0  0  0  0  0  0  0  0  0
  5  4  1  0  0  0  0
  5  6  1  0  0  0  0
  7  8  2  0  0  0  0
  7 11  1  0  0  0  0
  8  9  1  0  0  0  0
  9 10  2  0  0  0  0
  9  6  1  0  0  0  0
 10  3  1  0  0  0  0
 11 12  1  0  0  0  0
 11 10  1  0  0  0  0
 12 18  1  0  0  0  0
 13  2  1  0  0  0  0
 13 14  2  0  0  0  0
 15 14  1  0  0  0  0
 15  1  1  0  0  0  0
 16 15  2  0  0  0  0
 17 18  2  0  0  0  0
 17 16  1  0  0  0  0
 18 13  1  0  0  0  0
M  END
>  <CHROM.1>
-179.94094020,-65.21155701,68.69678920,156.71920070,-23.98000175,12.50730373
-0.82168468,2.49799255,0.84074667,-0.70472223

>  <Name>
lig.pdb

>  <RI>
0

>  <Rbt.Current_Directory>
/home/itssahil/PROJECTS/Mol_Feturizer/New_Systems/rnas/4nyg

>  <Rbt.Executable>
rbdock ($Id: //depot/dev/client3/rdock/2013.1/src/exe/rbdock.cxx#4 $)

>  <Rbt.Library>
libRbt.so (2013.1, Build901 2013/11/27)

>  <Rbt.Parameter_File>
/export/apps/rDock/src/rDock_2013.1_src/data/scripts/dock_solv.prm

>  <Rbt.Receptor>
prm/blind_docking_100.prm

>  <SCORE>
-8.82813

>  <SCORE.INTER>
-8.5113

>  <SCORE.INTER.CONST>
1

>  <SCORE.INTER.POLAR>
0

>  <SCORE.INTER.ROT>
4

>  <SCORE.INTER.SOLV>
9.57774

>  <SCORE.INTER.VDW>
-15.1334

>  <SCORE.INTER.norm>
-0.47285

>  <SCORE.INTRA>
-0.316829

>  <SCORE.INTRA.DIHEDRAL>
0.00404839

>  <SCORE.INTRA.DIHEDRAL.0>
3.20029

>  <SCORE.INTRA.POLAR>
0

>  <SCORE.INTRA.POLAR.0>
0

>  <SCORE.INTRA.REPUL>
0

>  <SCORE.INTRA.REPUL.0>
0

>  <SCORE.INTRA.SOLV>
-0.00763731

>  <SCORE.INTRA.SOLV.lig_0>
-19.3885

>  <SCORE.INTRA.VDW>
-0.315035

>  <SCORE.INTRA.VDW.0>
-1.12705

>  <SCORE.INTRA.norm>
-0.0176016

>  <SCORE.RESTR>
0

>  <SCORE.RESTR.CAVITY>
0

>  <SCORE.RESTR.norm>
0

>  <SCORE.SYSTEM>
0

>  <SCORE.SYSTEM.CONST>
0

>  <SCORE.SYSTEM.DIHEDRAL>
0

>  <SCORE.SYSTEM.SOLV>
0

>  <SCORE.SYSTEM.norm>
0

>  <SCORE.heavy>
18

>  <SCORE.norm>
-0.490452

>  <RMSD>
18.188

$$$$
lig.pdb
 OpenBabel11021811503D
libRbt.so/2013.1/901 2013/11/27
 18 19  0  0  0  0  0  0  0  0999 V2000
  -25.0117   19.5700    0.9854 C   0  0  0  0  0  0  0  0  0  0  0  0
  -22.4305   17.7051   -2.6741 N   0  0  0  0  0  0  0  0  0  0  0  0
  -25.4904   12.9432   -1.6576 C   0  0  0  0  0  0  0  0  0  0  0  0
  -23.8388    8.1462   -1.2618 O   0  0  0  0  0  0  0  0  0  0  0  0
  -23.3807    9.4038   -1.7389 C   0  0  0  0  0  0  0  0  0  0  0  0
  -23.7560   10.5198   -0.7445 C   0  0  0  0  0  0  0  0  0  0  0  0
  -21.9294   13.9094   -2.2880 C   0  0  0  0  0  0  0  0  0  0  0  0
  -21.6040   12.3373   -1.6350 S   0  0  0  0  0  0  0  0  0  0  0  0
  -23.2802   11.8347   -1.3216 C   0  0  0  0  0  0  0  0  0  0  0  0
  -23.9735   12.9412   -1.7459 C   0  0  0  0  0  0  0  0  0  0  0  0
  -23.2526   13.9951   -2.2374 N   0  0  0  0  0  0  0  0  0  0  0  0
  -23.9301   15.2411   -2.7437 C   0  0  0  0  0  0  0  0  0  0  0  0
  -23.4637   17.5523   -1.7496 C   0  0  0  0  0  0  0  0  0  0  0  0
  -23.7372   18.5578   -0.8631 N   0  0  0  0  0  0  0  0  0  0  0  0
  -24.7226   18.4366    0.0303 C   0  0  0  0  0  0  0  0  0  0  0  0
  -25.4632   17.3255    0.0798 N   0  0  0  0  0  0  0  0  0  0  0  0
  -25.2524   16.2872   -0.7703 C   0  0  0  0  0  0  0  0  0  0  0  0
  -24.2389   16.3572   -1.7326 C   0  0  0  0  0  0  0  0  0  0  0  0
  5  4  1  0  0  0  0
  5  6  1  0  0  0  0
  7  8  2  0  0  0  0
  7 11  1  0  0  0  0
  8  9  1  0  0  0  0
  9 10  2  0  0  0  0
  9  6  1  0  0  0  0
 10  3  1  0  0  0  0
 11 12  1  0  0  0  0
 11 10  1  0  0  0  0
 12 18  1  0  0  0  0
 13  2  1  0  0  0  0
 13 14  2  0  0  0  0
 15 14  1  0  0  0  0
 15  1  1  0  0  0  0
 16 15  2  0  0  0  0
 17 18  2  0  0  0  0
 17 16  1  0  0  0  0
 18 13  1  0  0  0  0
M  END
>  <CHROM.1>
-178.40211757,-64.43860967,-93.15108346,106.79929464,-23.67592760,14.38652474
-1.34912960,1.73694998,0.55470433,0.02469214

>  <Name>
lig.pdb

>  <RI>
0

>  <Rbt.Current_Directory>
/home/itssahil/PROJECTS/Mol_Feturizer/New_Systems/rnas/4nyg

>  <Rbt.Executable>
rbdock ($Id: //depot/dev/client3/rdock/2013.1/src/exe/rbdock.cxx#4 $)

>  <Rbt.Library>
libRbt.so (2013.1, Build901 2013/11/27)

>  <Rbt.Parameter_File>
/export/apps/rDock/src/rDock_2013.1_src/data/scripts/dock_solv.prm

>  <Rbt.Receptor>
prm/blind_docking_60.prm

>  <SCORE>
-8.52063

>  <SCORE.INTER>
-8.06145

>  <SCORE.INTER.CONST>
1

>  <SCORE.INTER.POLAR>
0

>  <SCORE.INTER.ROT>
4

>  <SCORE.INTER.SOLV>
9.1564

>  <SCORE.INTER.VDW>
-14.6931

>  <SCORE.INTER.norm>
-0.447858

>  <SCORE.INTRA>
-0.459186

>  <SCORE.INTRA.DIHEDRAL>
-0.0970177

>  <SCORE.INTRA.DIHEDRAL.0>
3.20029

>  <SCORE.INTRA.POLAR>
0

>  <SCORE.INTRA.POLAR.0>
0

>  <SCORE.INTRA.REPUL>
0

>  <SCORE.INTRA.REPUL.0>
0

>  <SCORE.INTRA.SOLV>
0.263359

>  <SCORE.INTRA.SOLV.lig_0>
-19.3885

>  <SCORE.INTRA.VDW>
-0.542357

>  <SCORE.INTRA.VDW.0>
-1.12705

>  <SCORE.INTRA.norm>
-0.0255104

>  <SCORE.RESTR>
0

>  <SCORE.RESTR.CAVITY>
0

>  <SCORE.RESTR.norm>
0

>  <SCORE.SYSTEM>
0

>  <SCORE.SYSTEM.CONST>
0

>  <SCORE.SYSTEM.DIHEDRAL>
0

>  <SCORE.SYSTEM.SOLV>
0

>  <SCORE.SYSTEM.norm>
0

>  <SCORE.heavy>
18

>  <SCORE.norm>
-0.473369

>  <RMSD>
18.233

$$$$
lig.pdb
 OpenBabel11021811503D
libRbt.so/2013.1/901 2013/11/27
 18 19  0  0  0  0  0  0  0  0999 V2000
  -23.9160    8.3816   -1.1492 C   0  0  0  0  0  0  0  0  0  0  0  0
  -25.8765   12.7990   -1.5685 N   0  0  0  0  0  0  0  0  0  0  0  0
  -22.1322   16.2469   -4.0690 C   0  0  0  0  0  0  0  0  0  0  0  0
  -20.6376   16.6710   -9.0224 O   0  0  0  0  0  0  0  0  0  0  0  0
  -21.2627   15.7292   -8.1615 C   0  0  0  0  0  0  0  0  0  0  0  0
  -22.2057   16.4497   -7.1784 C   0  0  0  0  0  0  0  0  0  0  0  0
  -24.1528   13.3296   -5.2596 C   0  0  0  0  0  0  0  0  0  0  0  0
  -23.8216   14.0024   -6.8222 S   0  0  0  0  0  0  0  0  0  0  0  0
  -22.8533   15.3999   -6.3027 C   0  0  0  0  0  0  0  0  0  0  0  0
  -22.8665   15.2406   -4.9391 C   0  0  0  0  0  0  0  0  0  0  0  0
  -23.5443   14.1669   -4.4295 N   0  0  0  0  0  0  0  0  0  0  0  0
  -23.5950   13.9023   -2.9478 C   0  0  0  0  0  0  0  0  0  0  0  0
  -24.7925   11.9529   -1.8019 C   0  0  0  0  0  0  0  0  0  0  0  0
  -24.8457   10.6497   -1.3886 N   0  0  0  0  0  0  0  0  0  0  0  0
  -23.8218    9.8192   -1.6022 C   0  0  0  0  0  0  0  0  0  0  0  0
  -22.7182   10.2452   -2.2234 N   0  0  0  0  0  0  0  0  0  0  0  0
  -22.5947   11.5240   -2.6647 C   0  0  0  0  0  0  0  0  0  0  0  0
  -23.6359   12.4397   -2.4761 C   0  0  0  0  0  0  0  0  0  0  0  0
  5  4  1  0  0  0  0
  5  6  1  0  0  0  0
  7  8  2  0  0  0  0
  7 11  1  0  0  0  0
  8  9  1  0  0  0  0
  9 10  2  0  0  0  0
  9  6  1  0  0  0  0
 10  3  1  0  0  0  0
 11 12  1  0  0  0  0
 11 10  1  0  0  0  0
 12 18  1  0  0  0  0
 13  2  1  0  0  0  0
 13 14  2  0  0  0  0
 15 14  1  0  0  0  0
 15  1  1  0  0  0  0
 16 15  2  0  0  0  0
 17 18  2  0  0  0  0
 17 16  1  0  0  0  0
 18 13  1  0  0  0  0
M  END
>  <CHROM.1>
179.30219904,-57.29920692,32.32797324,-114.76508254,-23.29475813,13.36177702
-4.35129190,-2.10369466,1.03483327,-0.35413117

>  <Name>
lig.pdb

>  <RI>
0

>  <Rbt.Current_Directory>
/home/itssahil/PROJECTS/Mol_Feturizer/New_Systems/rnas/4nyg

>  <Rbt.Executable>
rbdock ($Id: //depot/dev/client3/rdock/2013.1/src/exe/rbdock.cxx#4 $)

>  <Rbt.Library>
libRbt.so (2013.1, Build901 2013/11/27)

>  <Rbt.Parameter_File>
/export/apps/rDock/src/rDock_2013.1_src/data/scripts/dock_solv.prm

>  <Rbt.Receptor>
prm/blind_docking_40.prm

>  <SCORE>
-11.1656

>  <SCORE.INTER>
-11.0501

>  <SCORE.INTER.CONST>
1

>  <SCORE.INTER.POLAR>
0

>  <SCORE.INTER.ROT>
4

>  <SCORE.INTER.SOLV>
12.031

>  <SCORE.INTER.VDW>
-17.6437

>  <SCORE.INTER.norm>
-0.613895

>  <SCORE.INTRA>
-0.115527

>  <SCORE.INTRA.DIHEDRAL>
-0.131189

>  <SCORE.INTRA.DIHEDRAL.0>
3.20029

>  <SCORE.INTRA.POLAR>
0

>  <SCORE.INTRA.POLAR.0>
0

>  <SCORE.INTRA.REPUL>
0

>  <SCORE.INTRA.REPUL.0>
0

>  <SCORE.INTRA.SOLV>
0.1402

>  <SCORE.INTRA.SOLV.lig_0>
-19.3885

>  <SCORE.INTRA.VDW>
-0.120033

>  <SCORE.INTRA.VDW.0>
-1.12705

>  <SCORE.INTRA.norm>
-0.00641818

>  <SCORE.RESTR>
0

>  <SCORE.RESTR.CAVITY>
0

>  <SCORE.RESTR.norm>
0

>  <SCORE.SYSTEM>
0

>  <SCORE.SYSTEM.CONST>
0

>  <SCORE.SYSTEM.DIHEDRAL>
0

>  <SCORE.SYSTEM.SOLV>
0

>  <SCORE.SYSTEM.norm>
0

>  <SCORE.heavy>
18

>  <SCORE.norm>
-0.620313

>  <RMSD>
18.256

$$$$
lig.pdb
 OpenBabel11021811503D
libRbt.so/2013.1/901 2013/11/27
 18 19  0  0  0  0  0  0  0  0999 V2000
  -20.2755   11.9279   -1.4772 C   0  0  0  0  0  0  0  0  0  0  0  0
  -24.2842   13.1424   -3.9243 N   0  0  0  0  0  0  0  0  0  0  0  0
  -21.5827   16.3074   -7.7885 C   0  0  0  0  0  0  0  0  0  0  0  0
  -21.1858   13.6874  -12.2731 O   0  0  0  0  0  0  0  0  0  0  0  0
  -21.7394   13.4930  -10.9790 C   0  0  0  0  0  0  0  0  0  0  0  0
  -22.2983   14.8215  -10.4334 C   0  0  0  0  0  0  0  0  0  0  0  0
  -24.0894   13.6840   -6.8688 C   0  0  0  0  0  0  0  0  0  0  0  0
  -24.0347   13.3313   -8.5649 S   0  0  0  0  0  0  0  0  0  0  0  0
  -22.8444   14.5606   -9.0470 C   0  0  0  0  0  0  0  0  0  0  0  0
  -22.5818   15.1637   -7.8420 C   0  0  0  0  0  0  0  0  0  0  0  0
  -23.2379   14.6931   -6.7374 N   0  0  0  0  0  0  0  0  0  0  0  0
  -22.9969   15.2807   -5.3719 C   0  0  0  0  0  0  0  0  0  0  0  0
  -22.9360   13.3813   -3.6584 C   0  0  0  0  0  0  0  0  0  0  0  0
  -22.2746   12.6046   -2.7467 N   0  0  0  0  0  0  0  0  0  0  0  0
  -20.9832   12.8120   -2.4763 C   0  0  0  0  0  0  0  0  0  0  0  0
  -20.3077   13.7878   -3.0901 N   0  0  0  0  0  0  0  0  0  0  0  0
  -20.8966   14.5966   -4.0089 C   0  0  0  0  0  0  0  0  0  0  0  0
  -22.2454   14.4247   -4.3394 C   0  0  0  0  0  0  0  0  0  0  0  0
  5  4  1  0  0  0  0
  5  6  1  0  0  0  0
  7  8  2  0  0  0  0
  7 11  1  0  0  0  0
  8  9  1  0  0  0  0
  9 10  2  0  0  0  0
  9  6  1  0  0  0  0
 10  3  1  0  0  0  0
 11 12  1  0  0  0  0
 11 10  1  0  0  0  0
 12 18  1  0  0  0  0
 13  2  1  0  0  0  0
 13 14  2  0  0  0  0
 15 14  1  0  0  0  0
 15  1  1  0  0  0  0
 16 15  2  0  0  0  0
 17 18  2  0  0  0  0
 17 16  1  0  0  0  0
 18 13  1  0  0  0  0
M  END
>  <CHROM.1>
-178.76700830,-53.92741806,69.22272846,-77.90580812,-22.36569686,13.93297134
-6.43209727,-1.45727612,-0.10632363,-1.42302591

>  <Name>
lig.pdb

>  <RI>
0

>  <Rbt.Current_Directory>
/home/itssahil/PROJECTS/Mol_Feturizer/New_Systems/rnas/4nyg

>  <Rbt.Executable>
rbdock ($Id: //depot/dev/client3/rdock/2013.1/src/exe/rbdock.cxx#4 $)

>  <Rbt.Library>
libRbt.so (2013.1, Build901 2013/11/27)

>  <Rbt.Parameter_File>
/export/apps/rDock/src/rDock_2013.1_src/data/scripts/dock_solv.prm

>  <Rbt.Receptor>
prm/blind_docking_40.prm

>  <SCORE>
-13.4643

>  <SCORE.INTER>
-13.3098

>  <SCORE.INTER.CONST>
1

>  <SCORE.INTER.POLAR>
0

>  <SCORE.INTER.ROT>
4

>  <SCORE.INTER.SOLV>
11.188

>  <SCORE.INTER.VDW>
-18.8692

>  <SCORE.INTER.norm>
-0.739433

>  <SCORE.INTRA>
-0.154476

>  <SCORE.INTRA.DIHEDRAL>
0.0219354

>  <SCORE.INTRA.DIHEDRAL.0>
3.20029

>  <SCORE.INTRA.POLAR>
0

>  <SCORE.INTRA.POLAR.0>
0

>  <SCORE.INTRA.REPUL>
0

>  <SCORE.INTRA.REPUL.0>
0

>  <SCORE.INTRA.SOLV>
0.567287

>  <SCORE.INTRA.SOLV.lig_0>
-19.3885

>  <SCORE.INTRA.VDW>
-0.449088

>  <SCORE.INTRA.VDW.0>
-1.12705

>  <SCORE.INTRA.norm>
-0.00858201

>  <SCORE.RESTR>
0

>  <SCORE.RESTR.CAVITY>
0

>  <SCORE.RESTR.norm>
0

>  <SCORE.SYSTEM>
0

>  <SCORE.SYSTEM.CONST>
0

>  <SCORE.SYSTEM.DIHEDRAL>
0

>  <SCORE.SYSTEM.SOLV>
0

>  <SCORE.SYSTEM.norm>
0

>  <SCORE.heavy>
18

>  <SCORE.norm>
-0.748015

>  <RMSD>
18.383

$$$$
lig.pdb
 OpenBabel11021811503D
libRbt.so/2013.1/901 2013/11/27
 18 19  0  0  0  0  0  0  0  0999 V2000
  -21.7010   15.8455   -8.1091 C   0  0  0  0  0  0  0  0  0  0  0  0
  -24.1655   13.2228   -4.8564 N   0  0  0  0  0  0  0  0  0  0  0  0
  -21.8910   12.4376   -2.1699 C   0  0  0  0  0  0  0  0  0  0  0  0
  -23.7447    8.1942    0.1323 O   0  0  0  0  0  0  0  0  0  0  0  0
  -24.1618    9.5129   -0.1934 C   0  0  0  0  0  0  0  0  0  0  0  0
  -23.6238    9.9146   -1.5805 C   0  0  0  0  0  0  0  0  0  0  0  0
  -25.4583   13.5629   -2.3107 C   0  0  0  0  0  0  0  0  0  0  0  0
  -25.7813   11.8977   -1.9547 S   0  0  0  0  0  0  0  0  0  0  0  0
  -24.1021   11.3192   -1.8747 C   0  0  0  0  0  0  0  0  0  0  0  0
  -23.4098   12.4746   -2.1406 C   0  0  0  0  0  0  0  0  0  0  0  0
  -24.1334   13.6144   -2.3626 N   0  0  0  0  0  0  0  0  0  0  0  0
  -23.4576   14.9311   -2.6416 C   0  0  0  0  0  0  0  0  0  0  0  0
  -23.3475   14.3204   -5.1240 C   0  0  0  0  0  0  0  0  0  0  0  0
  -22.9226   14.5561   -6.4030 N   0  0  0  0  0  0  0  0  0  0  0  0
  -22.1407   15.6015   -6.6852 C   0  0  0  0  0  0  0  0  0  0  0  0
  -21.7525   16.4408   -5.7207 N   0  0  0  0  0  0  0  0  0  0  0  0
  -22.1371   16.2724   -4.4288 C   0  0  0  0  0  0  0  0  0  0  0  0
  -22.9615   15.1996   -4.0717 C   0  0  0  0  0  0  0  0  0  0  0  0
  5  4  1  0  0  0  0
  5  6  1  0  0  0  0
  7  8  2  0  0  0  0
  7 11  1  0  0  0  0
  8  9  1  0  0  0  0
  9 10  2  0  0  0  0
  9  6  1  0  0  0  0
 10  3  1  0  0  0  0
 11 12  1  0  0  0  0
 11 10  1  0  0  0  0
 12 18  1  0  0  0  0
 13  2  1  0  0  0  0
 13 14  2  0  0  0  0
 15 14  1  0  0  0  0
 15  1  1  0  0  0  0
 16 15  2  0  0  0  0
 17 18  2  0  0  0  0
 17 16  1  0  0  0  0
 18 13  1  0  0  0  0
M  END
>  <CHROM.1>
179.77749181,-58.75521536,-100.13856417,10.60089402,-23.54247022,13.13595766
-3.33423987,-1.26901538,-0.52696150,2.53309453

>  <Name>
lig.pdb

>  <RI>
0

>  <Rbt.Current_Directory>
/home/itssahil/PROJECTS/Mol_Feturizer/New_Systems/rnas/4nyg

>  <Rbt.Executable>
rbdock ($Id: //depot/dev/client3/rdock/2013.1/src/exe/rbdock.cxx#4 $)

>  <Rbt.Library>
libRbt.so (2013.1, Build901 2013/11/27)

>  <Rbt.Parameter_File>
/export/apps/rDock/src/rDock_2013.1_src/data/scripts/dock_solv.prm

>  <Rbt.Receptor>
prm/blind_docking_100.prm

>  <SCORE>
-8.2991

>  <SCORE.INTER>
-8.81251

>  <SCORE.INTER.CONST>
1

>  <SCORE.INTER.POLAR>
0

>  <SCORE.INTER.ROT>
4

>  <SCORE.INTER.SOLV>
10.1236

>  <SCORE.INTER.VDW>
-15.5162

>  <SCORE.INTER.norm>
-0.489584

>  <SCORE.INTRA>
0.513414

>  <SCORE.INTRA.DIHEDRAL>
-0.134895

>  <SCORE.INTRA.DIHEDRAL.0>
3.20029

>  <SCORE.INTRA.POLAR>
0

>  <SCORE.INTRA.POLAR.0>
0

>  <SCORE.INTRA.REPUL>
0

>  <SCORE.INTRA.REPUL.0>
0

>  <SCORE.INTRA.SOLV>
1.79635

>  <SCORE.INTRA.SOLV.lig_0>
-19.3885

>  <SCORE.INTRA.VDW>
-0.317312

>  <SCORE.INTRA.VDW.0>
-1.12705

>  <SCORE.INTRA.norm>
0.028523

>  <SCORE.RESTR>
0

>  <SCORE.RESTR.CAVITY>
0

>  <SCORE.RESTR.norm>
0

>  <SCORE.SYSTEM>
0

>  <SCORE.SYSTEM.CONST>
0

>  <SCORE.SYSTEM.DIHEDRAL>
0

>  <SCORE.SYSTEM.SOLV>
0

>  <SCORE.SYSTEM.norm>
0

>  <SCORE.heavy>
18

>  <SCORE.norm>
-0.461061

>  <RMSD>
18.564

$$$$
lig.pdb
 OpenBabel11021811503D
libRbt.so/2013.1/901 2013/11/27
 18 19  0  0  0  0  0  0  0  0999 V2000
  -20.7044   12.1032   -1.1430 C   0  0  0  0  0  0  0  0  0  0  0  0
  -23.9845   15.3607   -2.6134 N   0  0  0  0  0  0  0  0  0  0  0  0
  -21.6409   16.2908   -7.7486 C   0  0  0  0  0  0  0  0  0  0  0  0
  -24.1374   13.7456  -11.5250 O   0  0  0  0  0  0  0  0  0  0  0  0
  -23.3997   14.9514  -11.3795 C   0  0  0  0  0  0  0  0  0  0  0  0
  -22.2354   14.7477  -10.3907 C   0  0  0  0  0  0  0  0  0  0  0  0
  -24.1375   13.6425   -6.8738 C   0  0  0  0  0  0  0  0  0  0  0  0
  -24.0151   13.2614   -8.5602 S   0  0  0  0  0  0  0  0  0  0  0  0
  -22.8277   14.5018   -9.0207 C   0  0  0  0  0  0  0  0  0  0  0  0
  -22.6190   15.1300   -7.8178 C   0  0  0  0  0  0  0  0  0  0  0  0
  -23.3076   14.6677   -6.7296 N   0  0  0  0  0  0  0  0  0  0  0  0
  -23.1261   15.2828   -5.3670 C   0  0  0  0  0  0  0  0  0  0  0  0
  -22.9216   14.5164   -2.9342 C   0  0  0  0  0  0  0  0  0  0  0  0
  -22.3368   13.7581   -1.9571 N   0  0  0  0  0  0  0  0  0  0  0  0
  -21.3192   12.9404   -2.2393 C   0  0  0  0  0  0  0  0  0  0  0  0
  -20.8466   12.8472   -3.4856 N   0  0  0  0  0  0  0  0  0  0  0  0
  -21.3787   13.5666   -4.5077 C   0  0  0  0  0  0  0  0  0  0  0  0
  -22.4506   14.4358   -4.2762 C   0  0  0  0  0  0  0  0  0  0  0  0
  5  4  1  0  0  0  0
  5  6  1  0  0  0  0
  7  8  2  0  0  0  0
  7 11  1  0  0  0  0
  8  9  1  0  0  0  0
  9 10  2  0  0  0  0
  9  6  1  0  0  0  0
 10  3  1  0  0  0  0
 11 12  1  0  0  0  0
 11 10  1  0  0  0  0
 12 18  1  0  0  0  0
 13  2  1  0  0  0  0
 13 14  2  0  0  0  0
 15 14  1  0  0  0  0
 15  1  1  0  0  0  0
 16 15  2  0  0  0  0
 17 18  2  0  0  0  0
 17 16  1  0  0  0  0
 18 13  1  0  0  0  0
M  END
>  <CHROM.1>
-66.61033304,54.96172187,66.77517150,-141.86837620,-22.73474535,14.14062260
-6.26765738,-1.15785989,1.06041742,-1.82479295

>  <Name>
lig.pdb

>  <RI>
0

>  <Rbt.Current_Directory>
/home/itssahil/PROJECTS/Mol_Feturizer/New_Systems/rnas/4nyg

>  <Rbt.Executable>
rbdock ($Id: //depot/dev/client3/rdock/2013.1/src/exe/rbdock.cxx#4 $)

>  <Rbt.Library>
libRbt.so (2013.1, Build901 2013/11/27)

>  <Rbt.Parameter_File>
/export/apps/rDock/src/rDock_2013.1_src/data/scripts/dock_solv.prm

>  <Rbt.Receptor>
prm/blind_docking_80.prm

>  <SCORE>
-13.0981

>  <SCORE.INTER>
-13.0661

>  <SCORE.INTER.CONST>
1

>  <SCORE.INTER.POLAR>
0

>  <SCORE.INTER.ROT>
4

>  <SCORE.INTER.SOLV>
12.289

>  <SCORE.INTER.VDW>
-19.0737

>  <SCORE.INTER.norm>
-0.725896

>  <SCORE.INTRA>
-0.139514

>  <SCORE.INTRA.DIHEDRAL>
0.156873

>  <SCORE.INTRA.DIHEDRAL.0>
3.20029

>  <SCORE.INTRA.POLAR>
0

>  <SCORE.INTRA.POLAR.0>
0

>  <SCORE.INTRA.REPUL>
0

>  <SCORE.INTRA.REPUL.0>
0

>  <SCORE.INTRA.SOLV>
0.397453

>  <SCORE.INTRA.SOLV.lig_0>
-19.3885

>  <SCORE.INTRA.VDW>
-0.416677

>  <SCORE.INTRA.VDW.0>
-1.12705

>  <SCORE.INTRA.norm>
-0.00775078

>  <SCORE.RESTR>
0.107516

>  <SCORE.RESTR.CAVITY>
0.107516

>  <SCORE.RESTR.norm>
0.00597314

>  <SCORE.SYSTEM>
0

>  <SCORE.SYSTEM.CONST>
0

>  <SCORE.SYSTEM.DIHEDRAL>
0

>  <SCORE.SYSTEM.SOLV>
0

>  <SCORE.SYSTEM.norm>
0

>  <SCORE.heavy>
18

>  <SCORE.norm>
-0.727673

>  <RMSD>
18.705

$$$$
lig.pdb
 OpenBabel11021811503D
libRbt.so/2013.1/901 2013/11/27
 18 19  0  0  0  0  0  0  0  0999 V2000
  -20.8323   12.3110   -1.1794 C   0  0  0  0  0  0  0  0  0  0  0  0
  -23.6699   15.8812   -2.8329 N   0  0  0  0  0  0  0  0  0  0  0  0
  -21.5475   16.3206   -8.0877 C   0  0  0  0  0  0  0  0  0  0  0  0
  -23.0684   15.0880  -12.8880 O   0  0  0  0  0  0  0  0  0  0  0  0
  -23.5103   14.8183  -11.5648 C   0  0  0  0  0  0  0  0  0  0  0  0
  -22.3023   14.6673  -10.6199 C   0  0  0  0  0  0  0  0  0  0  0  0
  -24.0527   13.7754   -6.9662 C   0  0  0  0  0  0  0  0  0  0  0  0
  -24.0208   13.3115   -8.6359 S   0  0  0  0  0  0  0  0  0  0  0  0
  -22.8319   14.5008   -9.2127 C   0  0  0  0  0  0  0  0  0  0  0  0
  -22.5516   15.1807   -8.0533 C   0  0  0  0  0  0  0  0  0  0  0  0
  -23.1956   14.7869   -6.9121 N   0  0  0  0  0  0  0  0  0  0  0  0
  -22.9350   15.4620   -5.5914 C   0  0  0  0  0  0  0  0  0  0  0  0
  -22.7503   14.8695   -3.1090 C   0  0  0  0  0  0  0  0  0  0  0  0
  -22.2427   14.1145   -2.0871 N   0  0  0  0  0  0  0  0  0  0  0  0
  -21.3627   13.1386   -2.3258 C   0  0  0  0  0  0  0  0  0  0  0  0
  -20.9551   12.8796   -3.5717 N   0  0  0  0  0  0  0  0  0  0  0  0
  -21.4177   13.5850   -4.6364 C   0  0  0  0  0  0  0  0  0  0  0  0
  -22.3461   14.6155   -4.4512 C   0  0  0  0  0  0  0  0  0  0  0  0
  5  4  1  0  0  0  0
  5  6  1  0  0  0  0
  7  8  2  0  0  0  0
  7 11  1  0  0  0  0
  8  9  1  0  0  0  0
  9 10  2  0  0  0  0
  9  6  1  0  0  0  0
 10  3  1  0  0  0  0
 11 12  1  0  0  0  0
 11 10  1  0  0  0  0
 12 18  1  0  0  0  0
 13  2  1  0  0  0  0
 13 14  2  0  0  0  0
 15 14  1  0  0  0  0
 15  1  1  0  0  0  0
 16 15  2  0  0  0  0
 17 18  2  0  0  0  0
 17 16  1  0  0  0  0
 18 13  1  0  0  0  0
M  END
>  <CHROM.1>
175.23070738,53.70181640,61.11080401,-144.53715694,-22.63370043,14.33857985
-6.49924906,-1.07416812,1.23476153,-1.92752343

>  <Name>
lig.pdb

>  <RI>
0

>  <Rbt.Current_Directory>
/home/itssahil/PROJECTS/Mol_Feturizer/New_Systems/rnas/4nyg

>  <Rbt.Executable>
rbdock ($Id: //depot/dev/client3/rdock/2013.1/src/exe/rbdock.cxx#4 $)

>  <Rbt.Library>
libRbt.so (2013.1, Build901 2013/11/27)

>  <Rbt.Parameter_File>
/export/apps/rDock/src/rDock_2013.1_src/data/scripts/dock_solv.prm

>  <Rbt.Receptor>
prm/blind_docking_100.prm

>  <SCORE>
-13.6744

>  <SCORE.INTER>
-13.4111

>  <SCORE.INTER.CONST>
1

>  <SCORE.INTER.POLAR>
0

>  <SCORE.INTER.ROT>
4

>  <SCORE.INTER.SOLV>
11.7554

>  <SCORE.INTER.VDW>
-19.1259

>  <SCORE.INTER.norm>
-0.74506

>  <SCORE.INTRA>
-0.263356

>  <SCORE.INTRA.DIHEDRAL>
0.0866476

>  <SCORE.INTRA.DIHEDRAL.0>
3.20029

>  <SCORE.INTRA.POLAR>
0

>  <SCORE.INTRA.POLAR.0>
0

>  <SCORE.INTRA.REPUL>
0

>  <SCORE.INTRA.REPUL.0>
0

>  <SCORE.INTRA.SOLV>
-0.0334271

>  <SCORE.INTRA.SOLV.lig_0>
-19.3885

>  <SCORE.INTRA.VDW>
-0.289967

>  <SCORE.INTRA.VDW.0>
-1.12705

>  <SCORE.INTRA.norm>
-0.0146309

>  <SCORE.RESTR>
0

>  <SCORE.RESTR.CAVITY>
0

>  <SCORE.RESTR.norm>
0

>  <SCORE.SYSTEM>
0

>  <SCORE.SYSTEM.CONST>
0

>  <SCORE.SYSTEM.DIHEDRAL>
0

>  <SCORE.SYSTEM.SOLV>
0

>  <SCORE.SYSTEM.norm>
0

>  <SCORE.heavy>
18

>  <SCORE.norm>
-0.759691

>  <RMSD>
18.722

$$$$
lig.pdb
 OpenBabel11021811503D
libRbt.so/2013.1/901 2013/11/27
 18 19  0  0  0  0  0  0  0  0999 V2000
  -20.1870   17.3217   -2.1291 C   0  0  0  0  0  0  0  0  0  0  0  0
  -21.5375   13.4672   -4.7467 N   0  0  0  0  0  0  0  0  0  0  0  0
  -23.9396   13.2918   -8.8862 C   0  0  0  0  0  0  0  0  0  0  0  0
  -24.5116   15.3035  -12.1212 O   0  0  0  0  0  0  0  0  0  0  0  0
  -23.1945   14.9876  -12.5506 C   0  0  0  0  0  0  0  0  0  0  0  0
  -22.5568   13.9563  -11.5994 C   0  0  0  0  0  0  0  0  0  0  0  0
  -21.6127   16.1433   -8.2032 C   0  0  0  0  0  0  0  0  0  0  0  0
  -21.2500   15.9807   -9.8902 S   0  0  0  0  0  0  0  0  0  0  0  0
  -22.3434   14.6290  -10.2614 C   0  0  0  0  0  0  0  0  0  0  0  0
  -22.9088   14.3987   -9.0316 C   0  0  0  0  0  0  0  0  0  0  0  0
  -22.5131   15.1923   -7.9897 N   0  0  0  0  0  0  0  0  0  0  0  0
  -23.0947   15.0246   -6.6107 C   0  0  0  0  0  0  0  0  0  0  0  0
  -21.5960   14.8460   -4.5444 C   0  0  0  0  0  0  0  0  0  0  0  0
  -20.9192   15.4090   -3.4971 N   0  0  0  0  0  0  0  0  0  0  0  0
  -20.9577   16.7269   -3.2836 C   0  0  0  0  0  0  0  0  0  0  0  0
  -21.6630   17.5264   -4.0890 N   0  0  0  0  0  0  0  0  0  0  0  0
  -22.3572   17.0397   -5.1503 C   0  0  0  0  0  0  0  0  0  0  0  0
  -22.3505   15.6686   -5.4296 C   0  0  0  0  0  0  0  0  0  0  0  0
  5  4  1  0  0  0  0
  5  6  1  0  0  0  0
  7  8  2  0  0  0  0
  7 11  1  0  0  0  0
  8  9  1  0  0  0  0
  9 10  2  0  0  0  0
  9  6  1  0  0  0  0
 10  3  1  0  0  0  0
 11 12  1  0  0  0  0
 11 10  1  0  0  0  0
 12 18  1  0  0  0  0
 13  2  1  0  0  0  0
 13 14  2  0  0  0  0
 15 14  1  0  0  0  0
 15  1  1  0  0  0  0
 16 15  2  0  0  0  0
 17 18  2  0  0  0  0
 17 16  1  0  0  0  0
 18 13  1  0  0  0  0
M  END
>  <CHROM.1>
-67.52295963,-65.53735386,-17.33470196,-104.89740230,-22.15362305,15.41960999
-7.46224304,-1.04021401,-1.09438306,-1.28000887

>  <Name>
lig.pdb

>  <RI>
0

>  <Rbt.Current_Directory>
/home/itssahil/PROJECTS/Mol_Feturizer/New_Systems/rnas/4nyg

>  <Rbt.Executable>
rbdock ($Id: //depot/dev/client3/rdock/2013.1/src/exe/rbdock.cxx#4 $)

>  <Rbt.Library>
libRbt.so (2013.1, Build901 2013/11/27)

>  <Rbt.Parameter_File>
/export/apps/rDock/src/rDock_2013.1_src/data/scripts/dock_solv.prm

>  <Rbt.Receptor>
prm/blind_docking_100.prm

>  <SCORE>
-9.42604

>  <SCORE.INTER>
-9.63141

>  <SCORE.INTER.CONST>
1

>  <SCORE.INTER.POLAR>
0

>  <SCORE.INTER.ROT>
4

>  <SCORE.INTER.SOLV>
9.68957

>  <SCORE.INTER.VDW>
-15.9175

>  <SCORE.INTER.norm>
-0.535078

>  <SCORE.INTRA>
0.205364

>  <SCORE.INTRA.DIHEDRAL>
0.241892

>  <SCORE.INTRA.DIHEDRAL.0>
3.20029

>  <SCORE.INTRA.POLAR>
0

>  <SCORE.INTRA.POLAR.0>
0

>  <SCORE.INTRA.REPUL>
0

>  <SCORE.INTRA.REPUL.0>
0

>  <SCORE.INTRA.SOLV>
0.640173

>  <SCORE.INTRA.SOLV.lig_0>
-19.3885

>  <SCORE.INTRA.VDW>
-0.235668

>  <SCORE.INTRA.VDW.0>
-1.12705

>  <SCORE.INTRA.norm>
0.0114091

>  <SCORE.RESTR>
0

>  <SCORE.RESTR.CAVITY>
0

>  <SCORE.RESTR.norm>
0

>  <SCORE.SYSTEM>
0

>  <SCORE.SYSTEM.CONST>
0

>  <SCORE.SYSTEM.DIHEDRAL>
0

>  <SCORE.SYSTEM.SOLV>
0

>  <SCORE.SYSTEM.norm>
0

>  <SCORE.heavy>
18

>  <SCORE.norm>
-0.523669

>  <RMSD>
18.864

$$$$
lig.pdb
 OpenBabel11021811503D
libRbt.so/2013.1/901 2013/11/27
 18 19  0  0  0  0  0  0  0  0999 V2000
  -20.4473   12.3847   -1.7665 C   0  0  0  0  0  0  0  0  0  0  0  0
  -24.3076   13.1016   -4.6155 N   0  0  0  0  0  0  0  0  0  0  0  0
  -21.4879   16.0778   -8.4218 C   0  0  0  0  0  0  0  0  0  0  0  0
  -24.0024   15.4742  -11.8867 O   0  0  0  0  0  0  0  0  0  0  0  0
  -23.1565   14.3419  -12.0328 C   0  0  0  0  0  0  0  0  0  0  0  0
  -22.0427   14.3678  -10.9681 C   0  0  0  0  0  0  0  0  0  0  0  0
  -24.1217   13.5971   -7.4620 C   0  0  0  0  0  0  0  0  0  0  0  0
  -23.9502   13.0886   -9.1100 S   0  0  0  0  0  0  0  0  0  0  0  0
  -22.6966   14.2460   -9.6095 C   0  0  0  0  0  0  0  0  0  0  0  0
  -22.5089   14.9527   -8.4474 C   0  0  0  0  0  0  0  0  0  0  0  0
  -23.2569   14.5981   -7.3580 N   0  0  0  0  0  0  0  0  0  0  0  0
  -23.1030   15.3046   -6.0369 C   0  0  0  0  0  0  0  0  0  0  0  0
  -23.0196   13.4841   -4.2409 C   0  0  0  0  0  0  0  0  0  0  0  0
  -22.3747   12.8111   -3.2394 N   0  0  0  0  0  0  0  0  0  0  0  0
  -21.1404   13.1566   -2.8639 C   0  0  0  0  0  0  0  0  0  0  0  0
  -20.5077   14.1725   -3.4581 N   0  0  0  0  0  0  0  0  0  0  0  0
  -21.0833   14.8844   -4.4616 C   0  0  0  0  0  0  0  0  0  0  0  0
  -22.3723   14.5662   -4.9037 C   0  0  0  0  0  0  0  0  0  0  0  0
  5  4  1  0  0  0  0
  5  6  1  0  0  0  0
  7  8  2  0  0  0  0
  7 11  1  0  0  0  0
  8  9  1  0  0  0  0
  9 10  2  0  0  0  0
  9  6  1  0  0  0  0
 10  3  1  0  0  0  0
 11 12  1  0  0  0  0
 11 10  1  0  0  0  0
 12 18  1  0  0  0  0
 13  2  1  0  0  0  0
 13 14  2  0  0  0  0
 15 14  1  0  0  0  0
 15  1  1  0  0  0  0
 16 15  2  0  0  0  0
 17 18  2  0  0  0  0
 17 16  1  0  0  0  0
 18 13  1  0  0  0  0
M  END
>  <CHROM.1>
63.99126339,47.11778516,73.03090221,-72.91746300,-22.63524960,14.08489302
-6.94014599,-1.29966807,-0.61058162,-1.26191080

>  <Name>
lig.pdb

>  <RI>
0

>  <Rbt.Current_Directory>
/home/itssahil/PROJECTS/Mol_Feturizer/New_Systems/rnas/4nyg

>  <Rbt.Executable>
rbdock ($Id: //depot/dev/client3/rdock/2013.1/src/exe/rbdock.cxx#4 $)

>  <Rbt.Library>
libRbt.so (2013.1, Build901 2013/11/27)

>  <Rbt.Parameter_File>
/export/apps/rDock/src/rDock_2013.1_src/data/scripts/dock_solv.prm

>  <Rbt.Receptor>
prm/blind_docking_60.prm

>  <SCORE>
-13.5718

>  <SCORE.INTER>
-13.7883

>  <SCORE.INTER.CONST>
1

>  <SCORE.INTER.POLAR>
0

>  <SCORE.INTER.ROT>
4

>  <SCORE.INTER.SOLV>
12.6788

>  <SCORE.INTER.VDW>
-19.6851

>  <SCORE.INTER.norm>
-0.766016

>  <SCORE.INTRA>
0.216513

>  <SCORE.INTRA.DIHEDRAL>
0.325311

>  <SCORE.INTRA.DIHEDRAL.0>
3.20029

>  <SCORE.INTRA.POLAR>
0

>  <SCORE.INTRA.POLAR.0>
0

>  <SCORE.INTRA.REPUL>
0

>  <SCORE.INTRA.REPUL.0>
0

>  <SCORE.INTRA.SOLV>
1.08112

>  <SCORE.INTRA.SOLV.lig_0>
-19.3885

>  <SCORE.INTRA.VDW>
-0.4867

>  <SCORE.INTRA.VDW.0>
-1.12705

>  <SCORE.INTRA.norm>
0.0120285

>  <SCORE.RESTR>
0

>  <SCORE.RESTR.CAVITY>
0

>  <SCORE.RESTR.norm>
0

>  <SCORE.SYSTEM>
0

>  <SCORE.SYSTEM.CONST>
0

>  <SCORE.SYSTEM.DIHEDRAL>
0

>  <SCORE.SYSTEM.SOLV>
0

>  <SCORE.SYSTEM.norm>
0

>  <SCORE.heavy>
18

>  <SCORE.norm>
-0.753987

>  <RMSD>
18.878

$$$$
lig.pdb
 OpenBabel11021811503D
libRbt.so/2013.1/901 2013/11/27
 18 19  0  0  0  0  0  0  0  0999 V2000
  -24.1803   13.2270   -0.6005 C   0  0  0  0  0  0  0  0  0  0  0  0
  -23.9491   17.1033   -3.5079 N   0  0  0  0  0  0  0  0  0  0  0  0
  -21.3687   16.2864   -8.2552 C   0  0  0  0  0  0  0  0  0  0  0  0
  -24.3494   13.7740  -11.5922 O   0  0  0  0  0  0  0  0  0  0  0  0
  -23.4131   14.8428  -11.5870 C   0  0  0  0  0  0  0  0  0  0  0  0
  -22.2246   14.5055  -10.6658 C   0  0  0  0  0  0  0  0  0  0  0  0
  -23.9557   13.9214   -6.9415 C   0  0  0  0  0  0  0  0  0  0  0  0
  -23.9663   13.3503   -8.5779 S   0  0  0  0  0  0  0  0  0  0  0  0
  -22.7399   14.4513   -9.2446 C   0  0  0  0  0  0  0  0  0  0  0  0
  -22.4164   15.1924   -8.1351 C   0  0  0  0  0  0  0  0  0  0  0  0
  -23.0588   14.8989   -6.9632 N   0  0  0  0  0  0  0  0  0  0  0  0
  -22.7528   15.6464   -5.6921 C   0  0  0  0  0  0  0  0  0  0  0  0
  -23.6950   15.7455   -3.3152 C   0  0  0  0  0  0  0  0  0  0  0  0
  -24.0232   15.1543   -2.1259 N   0  0  0  0  0  0  0  0  0  0  0  0
  -23.7921   13.8555   -1.9177 C   0  0  0  0  0  0  0  0  0  0  0  0
  -23.2304   13.1034   -2.8686 N   0  0  0  0  0  0  0  0  0  0  0  0
  -22.8808   13.6199   -4.0753 C   0  0  0  0  0  0  0  0  0  0  0  0
  -23.1036   14.9727   -4.3556 C   0  0  0  0  0  0  0  0  0  0  0  0
  5  4  1  0  0  0  0
  5  6  1  0  0  0  0
  7  8  2  0  0  0  0
  7 11  1  0  0  0  0
  8  9  1  0  0  0  0
  9 10  2  0  0  0  0
  9  6  1  0  0  0  0
 10  3  1  0  0  0  0
 11 12  1  0  0  0  0
 11 10  1  0  0  0  0
 12 18  1  0  0  0  0
 13  2  1  0  0  0  0
 13 14  2  0  0  0  0
 15 14  1  0  0  0  0
 15  1  1  0  0  0  0
 16 15  2  0  0  0  0
 17 18  2  0  0  0  0
 17 16  1  0  0  0  0
 18 13  1  0  0  0  0
M  END
>  <CHROM.1>
-66.64146467,61.56614208,20.47498202,-137.88914836,-23.33841028,14.55146362
-6.36438430,1.72244658,1.15444337,1.42434144

>  <Name>
lig.pdb

>  <RI>
0

>  <Rbt.Current_Directory>
/home/itssahil/PROJECTS/Mol_Feturizer/New_Systems/rnas/4nyg

>  <Rbt.Executable>
rbdock ($Id: //depot/dev/client3/rdock/2013.1/src/exe/rbdock.cxx#4 $)

>  <Rbt.Library>
libRbt.so (2013.1, Build901 2013/11/27)

>  <Rbt.Parameter_File>
/export/apps/rDock/src/rDock_2013.1_src/data/scripts/dock_solv.prm

>  <Rbt.Receptor>
prm/blind_docking_100.prm

>  <SCORE>
-11.6927

>  <SCORE.INTER>
-12.0938

>  <SCORE.INTER.CONST>
1

>  <SCORE.INTER.POLAR>
0

>  <SCORE.INTER.ROT>
4

>  <SCORE.INTER.SOLV>
10.8301

>  <SCORE.INTER.VDW>
-17.9393

>  <SCORE.INTER.norm>
-0.67188

>  <SCORE.INTRA>
0.401133

>  <SCORE.INTRA.DIHEDRAL>
0.0295126

>  <SCORE.INTRA.DIHEDRAL.0>
3.20029

>  <SCORE.INTRA.POLAR>
0

>  <SCORE.INTRA.POLAR.0>
0

>  <SCORE.INTRA.REPUL>
0

>  <SCORE.INTRA.REPUL.0>
0

>  <SCORE.INTRA.SOLV>
0.465767

>  <SCORE.INTRA.SOLV.lig_0>
-19.3885

>  <SCORE.INTRA.VDW>
0.153493

>  <SCORE.INTRA.VDW.0>
-1.12705

>  <SCORE.INTRA.norm>
0.0222852

>  <SCORE.RESTR>
0

>  <SCORE.RESTR.CAVITY>
0

>  <SCORE.RESTR.norm>
0

>  <SCORE.SYSTEM>
0

>  <SCORE.SYSTEM.CONST>
0

>  <SCORE.SYSTEM.DIHEDRAL>
0

>  <SCORE.SYSTEM.SOLV>
0

>  <SCORE.SYSTEM.norm>
0

>  <SCORE.heavy>
18

>  <SCORE.norm>
-0.649595

>  <RMSD>
19.179

$$$$
lig.pdb
 OpenBabel11021811503D
libRbt.so/2013.1/901 2013/11/27
 18 19  0  0  0  0  0  0  0  0999 V2000
  -22.9269   15.3945   -5.4822 C   0  0  0  0  0  0  0  0  0  0  0  0
  -20.0839   16.8912   -9.1167 N   0  0  0  0  0  0  0  0  0  0  0  0
  -21.2280   12.5761  -12.3471 C   0  0  0  0  0  0  0  0  0  0  0  0
  -22.4989   10.6454  -16.1922 O   0  0  0  0  0  0  0  0  0  0  0  0
  -22.3875   11.8526  -15.4511 C   0  0  0  0  0  0  0  0  0  0  0  0
  -23.4965   11.9268  -14.3836 C   0  0  0  0  0  0  0  0  0  0  0  0
  -23.4262   15.6036  -12.4642 C   0  0  0  0  0  0  0  0  0  0  0  0
  -24.3101   14.6622  -13.6202 S   0  0  0  0  0  0  0  0  0  0  0  0
  -23.2965   13.2019  -13.5947 C   0  0  0  0  0  0  0  0  0  0  0  0
  -22.3332   13.5625  -12.6853 C   0  0  0  0  0  0  0  0  0  0  0  0
  -22.4238   14.8052  -12.1201 N   0  0  0  0  0  0  0  0  0  0  0  0
  -21.4232   15.2774  -11.0983 C   0  0  0  0  0  0  0  0  0  0  0  0
  -21.1434   16.0913   -8.6887 C   0  0  0  0  0  0  0  0  0  0  0  0
  -21.5156   16.1032   -7.3722 N   0  0  0  0  0  0  0  0  0  0  0  0
  -22.5281   15.3481   -6.9380 C   0  0  0  0  0  0  0  0  0  0  0  0
  -23.1997   14.5596   -7.7822 N   0  0  0  0  0  0  0  0  0  0  0  0
  -22.8893   14.4980   -9.1032 C   0  0  0  0  0  0  0  0  0  0  0  0
  -21.8428   15.2704   -9.6194 C   0  0  0  0  0  0  0  0  0  0  0  0
  5  4  1  0  0  0  0
  5  6  1  0  0  0  0
  7  8  2  0  0  0  0
  7 11  1  0  0  0  0
  8  9  1  0  0  0  0
  9 10  2  0  0  0  0
  9  6  1  0  0  0  0
 10  3  1  0  0  0  0
 11 12  1  0  0  0  0
 11 10  1  0  0  0  0
 12 18  1  0  0  0  0
 13  2  1  0  0  0  0
 13 14  2  0  0  0  0
 15 14  1  0  0  0  0
 15  1  1  0  0  0  0
 16 15  2  0  0  0  0
 17 18  2  0  0  0  0
 17 16  1  0  0  0  0
 18 13  1  0  0  0  0
M  END
>  <CHROM.1>
177.87415646,109.58487544,76.18674587,-159.30969963,-22.51734063,14.32018316
-11.23525588,1.43310680,-0.52046804,1.07913443

>  <Name>
lig.pdb

>  <RI>
0

>  <Rbt.Current_Directory>
/home/itssahil/PROJECTS/Mol_Feturizer/New_Systems/rnas/4nyg

>  <Rbt.Executable>
rbdock ($Id: //depot/dev/client3/rdock/2013.1/src/exe/rbdock.cxx#4 $)

>  <Rbt.Library>
libRbt.so (2013.1, Build901 2013/11/27)

>  <Rbt.Parameter_File>
/export/apps/rDock/src/rDock_2013.1_src/data/scripts/dock_solv.prm

>  <Rbt.Receptor>
prm/blind_docking_40.prm

>  <SCORE>
-13.7057

>  <SCORE.INTER>
-14.6649

>  <SCORE.INTER.CONST>
1

>  <SCORE.INTER.POLAR>
0

>  <SCORE.INTER.ROT>
4

>  <SCORE.INTER.SOLV>
8.71014

>  <SCORE.INTER.VDW>
-18.9466

>  <SCORE.INTER.norm>
-0.814714

>  <SCORE.INTRA>
0.9592

>  <SCORE.INTRA.DIHEDRAL>
2.47681

>  <SCORE.INTRA.DIHEDRAL.0>
3.20029

>  <SCORE.INTRA.POLAR>
0

>  <SCORE.INTRA.POLAR.0>
0

>  <SCORE.INTRA.REPUL>
0

>  <SCORE.INTRA.REPUL.0>
0

>  <SCORE.INTRA.SOLV>
0.0215122

>  <SCORE.INTRA.SOLV.lig_0>
-19.3885

>  <SCORE.INTRA.VDW>
-0.28996

>  <SCORE.INTRA.VDW.0>
-1.12705

>  <SCORE.INTRA.norm>
0.0532889

>  <SCORE.RESTR>
0

>  <SCORE.RESTR.CAVITY>
0

>  <SCORE.RESTR.norm>
0

>  <SCORE.SYSTEM>
0

>  <SCORE.SYSTEM.CONST>
0

>  <SCORE.SYSTEM.DIHEDRAL>
0

>  <SCORE.SYSTEM.SOLV>
0

>  <SCORE.SYSTEM.norm>
0

>  <SCORE.heavy>
18

>  <SCORE.norm>
-0.761426

>  <RMSD>
21.156

$$$$
lig.pdb
 OpenBabel11021811503D
libRbt.so/2013.1/901 2013/11/27
 18 19  0  0  0  0  0  0  0  0999 V2000
  -27.1098    9.6937  -17.1026 C   0  0  0  0  0  0  0  0  0  0  0  0
  -24.1857   13.4952  -17.8312 N   0  0  0  0  0  0  0  0  0  0  0  0
  -24.2131   14.6456  -12.8155 C   0  0  0  0  0  0  0  0  0  0  0  0
  -21.5586   16.0669  -10.5517 O   0  0  0  0  0  0  0  0  0  0  0  0
  -21.6716   14.9725   -9.6525 C   0  0  0  0  0  0  0  0  0  0  0  0
  -22.7759   14.0068  -10.1244 C   0  0  0  0  0  0  0  0  0  0  0  0
  -21.3517   12.3880  -13.6684 C   0  0  0  0  0  0  0  0  0  0  0  0
  -21.0599   12.4547  -11.9612 S   0  0  0  0  0  0  0  0  0  0  0  0
  -22.4078   13.5222  -11.5094 C   0  0  0  0  0  0  0  0  0  0  0  0
  -22.9849   13.7546  -12.7332 C   0  0  0  0  0  0  0  0  0  0  0  0
  -22.4196   13.1592  -13.8277 N   0  0  0  0  0  0  0  0  0  0  0  0
  -22.9974   13.3418  -15.2064 C   0  0  0  0  0  0  0  0  0  0  0  0
  -24.6390   12.4914  -16.9754 C   0  0  0  0  0  0  0  0  0  0  0  0
  -25.6052   11.6208  -17.4001 N   0  0  0  0  0  0  0  0  0  0  0  0
  -26.0543   10.6499  -16.6004 C   0  0  0  0  0  0  0  0  0  0  0  0
  -25.5704   10.5093  -15.3630 N   0  0  0  0  0  0  0  0  0  0  0  0
  -24.6079   11.3336  -14.8737 C   0  0  0  0  0  0  0  0  0  0  0  0
  -24.0927   12.3657  -15.6658 C   0  0  0  0  0  0  0  0  0  0  0  0
  5  4  1  0  0  0  0
  5  6  1  0  0  0  0
  7  8  2  0  0  0  0
  7 11  1  0  0  0  0
  8  9  1  0  0  0  0
  9 10  2  0  0  0  0
  9  6  1  0  0  0  0
 10  3  1  0  0  0  0
 11 12  1  0  0  0  0
 11 10  1  0  0  0  0
 12 18  1  0  0  0  0
 13  2  1  0  0  0  0
 13 14  2  0  0  0  0
 15 14  1  0  0  0  0
 15  1  1  0  0  0  0
 16 15  2  0  0  0  0
 17 18  2  0  0  0  0
 17 16  1  0  0  0  0
 18 13  1  0  0  0  0
M  END
>  <CHROM.1>
59.14366026,68.52634473,90.77558779,-178.57306919,-23.44067615,12.81658564
-13.91138097,2.91574237,-1.03318465,-0.73932170

>  <Name>
lig.pdb

>  <RI>
0

>  <Rbt.Current_Directory>
/home/itssahil/PROJECTS/Mol_Feturizer/New_Systems/rnas/4nyg

>  <Rbt.Executable>
rbdock ($Id: //depot/dev/client3/rdock/2013.1/src/exe/rbdock.cxx#4 $)

>  <Rbt.Library>
libRbt.so (2013.1, Build901 2013/11/27)

>  <Rbt.Parameter_File>
/export/apps/rDock/src/rDock_2013.1_src/data/scripts/dock_solv.prm

>  <Rbt.Receptor>
prm/blind_docking_80.prm

>  <SCORE>
-16.027

>  <SCORE.INTER>
-15.5946

>  <SCORE.INTER.CONST>
1

>  <SCORE.INTER.POLAR>
0

>  <SCORE.INTER.ROT>
4

>  <SCORE.INTER.SOLV>
8.63685

>  <SCORE.INTER.VDW>
-19.542

>  <SCORE.INTER.norm>
-0.866364

>  <SCORE.INTRA>
-0.432472

>  <SCORE.INTRA.DIHEDRAL>
0.114637

>  <SCORE.INTRA.DIHEDRAL.0>
3.20029

>  <SCORE.INTRA.POLAR>
0

>  <SCORE.INTRA.POLAR.0>
0

>  <SCORE.INTRA.REPUL>
0

>  <SCORE.INTRA.REPUL.0>
0

>  <SCORE.INTRA.SOLV>
0.523173

>  <SCORE.INTRA.SOLV.lig_0>
-19.3885

>  <SCORE.INTRA.VDW>
-0.751377

>  <SCORE.INTRA.VDW.0>
-1.12705

>  <SCORE.INTRA.norm>
-0.0240262

>  <SCORE.RESTR>
0

>  <SCORE.RESTR.CAVITY>
0

>  <SCORE.RESTR.norm>
0

>  <SCORE.SYSTEM>
0

>  <SCORE.SYSTEM.CONST>
0

>  <SCORE.SYSTEM.DIHEDRAL>
0

>  <SCORE.SYSTEM.SOLV>
0

>  <SCORE.SYSTEM.norm>
0

>  <SCORE.heavy>
18

>  <SCORE.norm>
-0.890391

>  <RMSD>
23.875

$$$$
lig.pdb
 OpenBabel11021811503D
libRbt.so/2013.1/901 2013/11/27
 18 19  0  0  0  0  0  0  0  0999 V2000
  -23.5032    8.6385  -18.5097 C   0  0  0  0  0  0  0  0  0  0  0  0
  -24.1171   13.4017  -17.8266 N   0  0  0  0  0  0  0  0  0  0  0  0
  -24.4348   14.7092  -12.6992 C   0  0  0  0  0  0  0  0  0  0  0  0
  -23.9710   13.5543   -7.9471 O   0  0  0  0  0  0  0  0  0  0  0  0
  -23.6535   13.1077   -9.2581 C   0  0  0  0  0  0  0  0  0  0  0  0
  -22.9041   14.2109  -10.0301 C   0  0  0  0  0  0  0  0  0  0  0  0
  -21.5641   12.4604  -13.5441 C   0  0  0  0  0  0  0  0  0  0  0  0
  -21.2205   12.6063  -11.8516 S   0  0  0  0  0  0  0  0  0  0  0  0
  -22.5713   13.6718  -11.4037 C   0  0  0  0  0  0  0  0  0  0  0  0
  -23.1900   13.8415  -12.6175 C   0  0  0  0  0  0  0  0  0  0  0  0
  -22.6492   13.2075  -13.7027 N   0  0  0  0  0  0  0  0  0  0  0  0
  -23.2726   13.3207  -15.0689 C   0  0  0  0  0  0  0  0  0  0  0  0
  -23.7561   12.1623  -17.2986 C   0  0  0  0  0  0  0  0  0  0  0  0
  -23.8015   11.0469  -18.0896 N   0  0  0  0  0  0  0  0  0  0  0  0
  -23.4587    9.8492  -17.6082 C   0  0  0  0  0  0  0  0  0  0  0  0
  -23.0657    9.7133  -16.3384 N   0  0  0  0  0  0  0  0  0  0  0  0
  -22.9926   10.7756  -15.4950 C   0  0  0  0  0  0  0  0  0  0  0  0
  -23.3326   12.0571  -15.9425 C   0  0  0  0  0  0  0  0  0  0  0  0
  5  4  1  0  0  0  0
  5  6  1  0  0  0  0
  7  8  2  0  0  0  0
  7 11  1  0  0  0  0
  8  9  1  0  0  0  0
  9 10  2  0  0  0  0
  9  6  1  0  0  0  0
 10  3  1  0  0  0  0
 11 12  1  0  0  0  0
 11 10  1  0  0  0  0
 12 18  1  0  0  0  0
 13  2  1  0  0  0  0
 13 14  2  0  0  0  0
 15 14  1  0  0  0  0
 15  1  1  0  0  0  0
 16 15  2  0  0  0  0
 17 18  2  0  0  0  0
 17 16  1  0  0  0  0
 18 13  1  0  0  0  0
M  END
>  <CHROM.1>
178.97631918,-80.82290048,39.64243915,-171.99292611,-23.07272116,12.38042229
-13.94972740,-1.71191373,-1.11202268,1.06863714

>  <Name>
lig.pdb

>  <RI>
0

>  <Rbt.Current_Directory>
/home/itssahil/PROJECTS/Mol_Feturizer/New_Systems/rnas/4nyg

>  <Rbt.Executable>
rbdock ($Id: //depot/dev/client3/rdock/2013.1/src/exe/rbdock.cxx#4 $)

>  <Rbt.Library>
libRbt.so (2013.1, Build901 2013/11/27)

>  <Rbt.Parameter_File>
/export/apps/rDock/src/rDock_2013.1_src/data/scripts/dock_solv.prm

>  <Rbt.Receptor>
prm/blind_docking_60.prm

>  <SCORE>
-15.0743

>  <SCORE.INTER>
-15.7576

>  <SCORE.INTER.CONST>
1

>  <SCORE.INTER.POLAR>
0

>  <SCORE.INTER.ROT>
4

>  <SCORE.INTER.SOLV>
11.2139

>  <SCORE.INTER.VDW>
-20.5097

>  <SCORE.INTER.norm>
-0.875423

>  <SCORE.INTRA>
0.683262

>  <SCORE.INTRA.DIHEDRAL>
0.601402

>  <SCORE.INTRA.DIHEDRAL.0>
3.20029

>  <SCORE.INTRA.POLAR>
0

>  <SCORE.INTRA.POLAR.0>
0

>  <SCORE.INTRA.REPUL>
0

>  <SCORE.INTRA.REPUL.0>
0

>  <SCORE.INTRA.SOLV>
0.0532064

>  <SCORE.INTRA.SOLV.lig_0>
-19.3885

>  <SCORE.INTRA.VDW>
0.355958

>  <SCORE.INTRA.VDW.0>
-1.12705

>  <SCORE.INTRA.norm>
0.037959

>  <SCORE.RESTR>
0

>  <SCORE.RESTR.CAVITY>
0

>  <SCORE.RESTR.norm>
0

>  <SCORE.SYSTEM>
0

>  <SCORE.SYSTEM.CONST>
0

>  <SCORE.SYSTEM.DIHEDRAL>
0

>  <SCORE.SYSTEM.SOLV>
0

>  <SCORE.SYSTEM.norm>
0

>  <SCORE.heavy>
18

>  <SCORE.norm>
-0.837464

>  <RMSD>
23.908

$$$$
lig.pdb
 OpenBabel11021811503D
libRbt.so/2013.1/901 2013/11/27
 18 19  0  0  0  0  0  0  0  0999 V2000
  -26.2058   11.5123  -19.0160 C   0  0  0  0  0  0  0  0  0  0  0  0
  -24.7377   11.2013  -14.4030 N   0  0  0  0  0  0  0  0  0  0  0  0
  -21.1265   12.7673  -12.1299 C   0  0  0  0  0  0  0  0  0  0  0  0
  -23.7147   12.6435   -9.3216 O   0  0  0  0  0  0  0  0  0  0  0  0
  -23.5734   14.0401   -9.1016 C   0  0  0  0  0  0  0  0  0  0  0  0
  -22.4547   14.6098   -9.9954 C   0  0  0  0  0  0  0  0  0  0  0  0
  -23.9902   14.4600  -13.8462 C   0  0  0  0  0  0  0  0  0  0  0  0
  -24.2190   15.1926  -12.2921 S   0  0  0  0  0  0  0  0  0  0  0  0
  -22.8682   14.4146  -11.4374 C   0  0  0  0  0  0  0  0  0  0  0  0
  -22.3399   13.6304  -12.4327 C   0  0  0  0  0  0  0  0  0  0  0  0
  -22.9383   13.6723  -13.6624 N   0  0  0  0  0  0  0  0  0  0  0  0
  -22.4144   12.8612  -14.8181 C   0  0  0  0  0  0  0  0  0  0  0  0
  -24.5177   11.6932  -15.6895 C   0  0  0  0  0  0  0  0  0  0  0  0
  -25.3968   11.3898  -16.6930 N   0  0  0  0  0  0  0  0  0  0  0  0
  -25.2095   11.8503  -17.9326 C   0  0  0  0  0  0  0  0  0  0  0  0
  -24.1543   12.6174  -18.2213 N   0  0  0  0  0  0  0  0  0  0  0  0
  -23.2415   12.9627  -17.2764 C   0  0  0  0  0  0  0  0  0  0  0  0
  -23.3866   12.5164  -15.9581 C   0  0  0  0  0  0  0  0  0  0  0  0
  5  4  1  0  0  0  0
  5  6  1  0  0  0  0
  7  8  2  0  0  0  0
  7 11  1  0  0  0  0
  8  9  1  0  0  0  0
  9 10  2  0  0  0  0
  9  6  1  0  0  0  0
 10  3  1  0  0  0  0
 11 12  1  0  0  0  0
 11 10  1  0  0  0  0
 12 18  1  0  0  0  0
 13  2  1  0  0  0  0
 13 14  2  0  0  0  0
 15 14  1  0  0  0  0
 15  1  1  0  0  0  0
 16 15  2  0  0  0  0
 17 18  2  0  0  0  0
 17 16  1  0  0  0  0
 18 13  1  0  0  0  0
M  END
>  <CHROM.1>
62.83785494,66.74797030,-24.47366738,-63.67819229,-23.73143548,13.14495065
-13.93955817,1.84262386,-0.52595258,-1.71918454

>  <Name>
lig.pdb

>  <RI>
0

>  <Rbt.Current_Directory>
/home/itssahil/PROJECTS/Mol_Feturizer/New_Systems/rnas/4nyg

>  <Rbt.Executable>
rbdock ($Id: //depot/dev/client3/rdock/2013.1/src/exe/rbdock.cxx#4 $)

>  <Rbt.Library>
libRbt.so (2013.1, Build901 2013/11/27)

>  <Rbt.Parameter_File>
/export/apps/rDock/src/rDock_2013.1_src/data/scripts/dock_solv.prm

>  <Rbt.Receptor>
prm/blind_docking_60.prm

>  <SCORE>
-15.7947

>  <SCORE.INTER>
-15.8838

>  <SCORE.INTER.CONST>
1

>  <SCORE.INTER.POLAR>
0

>  <SCORE.INTER.ROT>
4

>  <SCORE.INTER.SOLV>
8.93463

>  <SCORE.INTER.VDW>
-19.8341

>  <SCORE.INTER.norm>
-0.882432

>  <SCORE.INTRA>
0.089072

>  <SCORE.INTRA.DIHEDRAL>
0.091644

>  <SCORE.INTRA.DIHEDRAL.0>
3.20029

>  <SCORE.INTRA.POLAR>
0

>  <SCORE.INTRA.POLAR.0>
0

>  <SCORE.INTRA.REPUL>
0

>  <SCORE.INTRA.REPUL.0>
0

>  <SCORE.INTRA.SOLV>
1.26684

>  <SCORE.INTRA.SOLV.lig_0>
-19.3885

>  <SCORE.INTRA.VDW>
-0.59017

>  <SCORE.INTRA.VDW.0>
-1.12705

>  <SCORE.INTRA.norm>
0.00494845

>  <SCORE.RESTR>
0

>  <SCORE.RESTR.CAVITY>
0

>  <SCORE.RESTR.norm>
0

>  <SCORE.SYSTEM>
0

>  <SCORE.SYSTEM.CONST>
0

>  <SCORE.SYSTEM.DIHEDRAL>
0

>  <SCORE.SYSTEM.SOLV>
0

>  <SCORE.SYSTEM.norm>
0

>  <SCORE.heavy>
18

>  <SCORE.norm>
-0.877483

>  <RMSD>
23.977

$$$$
lig.pdb
 OpenBabel11021811503D
libRbt.so/2013.1/901 2013/11/27
 18 19  0  0  0  0  0  0  0  0999 V2000
  -26.1093   11.3296  -19.1694 C   0  0  0  0  0  0  0  0  0  0  0  0
  -22.8688   14.2627  -17.0650 N   0  0  0  0  0  0  0  0  0  0  0  0
  -21.2304   12.6421  -12.0725 C   0  0  0  0  0  0  0  0  0  0  0  0
  -23.2847   14.3787   -7.7789 O   0  0  0  0  0  0  0  0  0  0  0  0
  -23.5402   13.9982   -9.1239 C   0  0  0  0  0  0  0  0  0  0  0  0
  -22.5136   14.6543  -10.0675 C   0  0  0  0  0  0  0  0  0  0  0  0
  -24.0753   14.2589  -13.8902 C   0  0  0  0  0  0  0  0  0  0  0  0
  -24.2819   15.1037  -12.3910 S   0  0  0  0  0  0  0  0  0  0  0  0
  -22.9393   14.3647  -11.4899 C   0  0  0  0  0  0  0  0  0  0  0  0
  -22.4307   13.5027  -12.4297 C   0  0  0  0  0  0  0  0  0  0  0  0
  -23.0359   13.4680  -13.6563 N   0  0  0  0  0  0  0  0  0  0  0  0
  -22.5333   12.5679  -14.7541 C   0  0  0  0  0  0  0  0  0  0  0  0
  -23.6196   13.0884  -17.0116 C   0  0  0  0  0  0  0  0  0  0  0  0
  -24.4669   12.7758  -18.0393 N   0  0  0  0  0  0  0  0  0  0  0  0
  -25.1949   11.6564  -18.0128 C   0  0  0  0  0  0  0  0  0  0  0  0
  -25.1136   10.8162  -16.9771 N   0  0  0  0  0  0  0  0  0  0  0  0
  -24.2922   11.0585  -15.9226 C   0  0  0  0  0  0  0  0  0  0  0  0
  -23.4997   12.2115  -15.8954 C   0  0  0  0  0  0  0  0  0  0  0  0
  5  4  1  0  0  0  0
  5  6  1  0  0  0  0
  7  8  2  0  0  0  0
  7 11  1  0  0  0  0
  8  9  1  0  0  0  0
  9 10  2  0  0  0  0
  9  6  1  0  0  0  0
 10  3  1  0  0  0  0
 11 12  1  0  0  0  0
 11 10  1  0  0  0  0
 12 18  1  0  0  0  0
 13  2  1  0  0  0  0
 13 14  2  0  0  0  0
 15 14  1  0  0  0  0
 15  1  1  0  0  0  0
 16 15  2  0  0  0  0
 17 18  2  0  0  0  0
 17 16  1  0  0  0  0
 18 13  1  0  0  0  0
M  END
>  <CHROM.1>
-172.69679180,74.41489260,-21.77382099,85.82234061,-23.65520118,13.26554698
-14.01053299,1.87535102,0.84271041,-2.10002216

>  <Name>
lig.pdb

>  <RI>
0

>  <Rbt.Current_Directory>
/home/itssahil/PROJECTS/Mol_Feturizer/New_Systems/rnas/4nyg

>  <Rbt.Executable>
rbdock ($Id: //depot/dev/client3/rdock/2013.1/src/exe/rbdock.cxx#4 $)

>  <Rbt.Library>
libRbt.so (2013.1, Build901 2013/11/27)

>  <Rbt.Parameter_File>
/export/apps/rDock/src/rDock_2013.1_src/data/scripts/dock_solv.prm

>  <Rbt.Receptor>
prm/blind_docking_40.prm

>  <SCORE>
-16.1795

>  <SCORE.INTER>
-16.4045

>  <SCORE.INTER.CONST>
1

>  <SCORE.INTER.POLAR>
0

>  <SCORE.INTER.ROT>
4

>  <SCORE.INTER.SOLV>
8.44556

>  <SCORE.INTER.VDW>
-20.0182

>  <SCORE.INTER.norm>
-0.911362

>  <SCORE.INTRA>
0.225006

>  <SCORE.INTRA.DIHEDRAL>
0.534412

>  <SCORE.INTRA.DIHEDRAL.0>
3.20029

>  <SCORE.INTRA.POLAR>
0

>  <SCORE.INTRA.POLAR.0>
0

>  <SCORE.INTRA.REPUL>
0

>  <SCORE.INTRA.REPUL.0>
0

>  <SCORE.INTRA.SOLV>
0.449199

>  <SCORE.INTRA.SOLV.lig_0>
-19.3885

>  <SCORE.INTRA.VDW>
-0.266799

>  <SCORE.INTRA.VDW.0>
-1.12705

>  <SCORE.INTRA.norm>
0.0125003

>  <SCORE.RESTR>
0

>  <SCORE.RESTR.CAVITY>
0

>  <SCORE.RESTR.norm>
0

>  <SCORE.SYSTEM>
0

>  <SCORE.SYSTEM.CONST>
0

>  <SCORE.SYSTEM.DIHEDRAL>
0

>  <SCORE.SYSTEM.SOLV>
0

>  <SCORE.SYSTEM.norm>
0

>  <SCORE.heavy>
18

>  <SCORE.norm>
-0.898862

>  <RMSD>
24.039

$$$$
lig.pdb
 OpenBabel11021811503D
libRbt.so/2013.1/901 2013/11/27
 18 19  0  0  0  0  0  0  0  0999 V2000
  -25.8881   11.7119  -19.3293 C   0  0  0  0  0  0  0  0  0  0  0  0
  -24.5837   11.6971  -14.6569 N   0  0  0  0  0  0  0  0  0  0  0  0
  -21.2477   13.0098  -12.3251 C   0  0  0  0  0  0  0  0  0  0  0  0
  -24.6852   12.9647   -9.8672 O   0  0  0  0  0  0  0  0  0  0  0  0
  -23.3312   13.1713   -9.4889 C   0  0  0  0  0  0  0  0  0  0  0  0
  -22.8105   14.4977  -10.0758 C   0  0  0  0  0  0  0  0  0  0  0  0
  -24.0328   14.8446  -14.0247 C   0  0  0  0  0  0  0  0  0  0  0  0
  -24.4112   15.3460  -12.4093 S   0  0  0  0  0  0  0  0  0  0  0  0
  -23.1018   14.4945  -11.5602 C   0  0  0  0  0  0  0  0  0  0  0  0
  -22.4668   13.8723  -12.6063 C   0  0  0  0  0  0  0  0  0  0  0  0
  -22.9683   14.0689  -13.8640 N   0  0  0  0  0  0  0  0  0  0  0  0
  -22.3241   13.4424  -15.0725 C   0  0  0  0  0  0  0  0  0  0  0  0
  -24.3376   12.1351  -15.9580 C   0  0  0  0  0  0  0  0  0  0  0  0
  -25.1633   11.7418  -16.9756 N   0  0  0  0  0  0  0  0  0  0  0  0
  -24.9501   12.1493  -18.2295 C   0  0  0  0  0  0  0  0  0  0  0  0
  -23.9205   12.9502  -18.5189 N   0  0  0  0  0  0  0  0  0  0  0  0
  -23.0608   13.3841  -17.5607 C   0  0  0  0  0  0  0  0  0  0  0  0
  -23.2355   12.9966  -16.2275 C   0  0  0  0  0  0  0  0  0  0  0  0
  5  4  1  0  0  0  0
  5  6  1  0  0  0  0
  7  8  2  0  0  0  0
  7 11  1  0  0  0  0
  8  9  1  0  0  0  0
  9 10  2  0  0  0  0
  9  6  1  0  0  0  0
 10  3  1  0  0  0  0
 11 12  1  0  0  0  0
 11 10  1  0  0  0  0
 12 18  1  0  0  0  0
 13  2  1  0  0  0  0
 13 14  2  0  0  0  0
 15 14  1  0  0  0  0
 15  1  1  0  0  0  0
 16 15  2  0  0  0  0
 17 18  2  0  0  0  0
 17 16  1  0  0  0  0
 18 13  1  0  0  0  0
M  END
>  <CHROM.1>
-51.89671743,102.10976262,-35.47478278,-53.02365396,-23.75513714,13.38213491
-14.18496329,1.75983473,-0.50902363,-1.71474873

>  <Name>
lig.pdb

>  <RI>
0

>  <Rbt.Current_Directory>
/home/itssahil/PROJECTS/Mol_Feturizer/New_Systems/rnas/4nyg

>  <Rbt.Executable>
rbdock ($Id: //depot/dev/client3/rdock/2013.1/src/exe/rbdock.cxx#4 $)

>  <Rbt.Library>
libRbt.so (2013.1, Build901 2013/11/27)

>  <Rbt.Parameter_File>
/export/apps/rDock/src/rDock_2013.1_src/data/scripts/dock_solv.prm

>  <Rbt.Receptor>
prm/blind_docking_80.prm

>  <SCORE>
-13.9323

>  <SCORE.INTER>
-15.2933

>  <SCORE.INTER.CONST>
1

>  <SCORE.INTER.POLAR>
0

>  <SCORE.INTER.ROT>
4

>  <SCORE.INTER.SOLV>
9.11434

>  <SCORE.INTER.VDW>
-19.5003

>  <SCORE.INTER.norm>
-0.849627

>  <SCORE.INTRA>
1.36096

>  <SCORE.INTRA.DIHEDRAL>
2.36115

>  <SCORE.INTRA.DIHEDRAL.0>
3.20029

>  <SCORE.INTRA.POLAR>
0

>  <SCORE.INTRA.POLAR.0>
0

>  <SCORE.INTRA.REPUL>
0

>  <SCORE.INTRA.REPUL.0>
0

>  <SCORE.INTRA.SOLV>
1.56786

>  <SCORE.INTRA.SOLV.lig_0>
-19.3885

>  <SCORE.INTRA.VDW>
-0.603547

>  <SCORE.INTRA.VDW.0>
-1.12705

>  <SCORE.INTRA.norm>
0.0756088

>  <SCORE.RESTR>
0

>  <SCORE.RESTR.CAVITY>
0

>  <SCORE.RESTR.norm>
0

>  <SCORE.SYSTEM>
0

>  <SCORE.SYSTEM.CONST>
0

>  <SCORE.SYSTEM.DIHEDRAL>
0

>  <SCORE.SYSTEM.SOLV>
0

>  <SCORE.SYSTEM.norm>
0

>  <SCORE.heavy>
18

>  <SCORE.norm>
-0.774018

>  <RMSD>
24.164

$$$$
lig.pdb
 OpenBabel11021811503D
libRbt.so/2013.1/901 2013/11/27
 18 19  0  0  0  0  0  0  0  0999 V2000
  -23.3142   14.1966   -8.8431 C   0  0  0  0  0  0  0  0  0  0  0  0
  -24.6245   15.4132  -13.3526 N   0  0  0  0  0  0  0  0  0  0  0  0
  -22.8840   13.5506  -17.5753 C   0  0  0  0  0  0  0  0  0  0  0  0
  -26.5309   11.2308  -20.2695 O   0  0  0  0  0  0  0  0  0  0  0  0
  -26.1979   11.5392  -18.9230 C   0  0  0  0  0  0  0  0  0  0  0  0
  -24.7026   11.2673  -18.6681 C   0  0  0  0  0  0  0  0  0  0  0  0
  -24.2210   11.7529  -14.5766 C   0  0  0  0  0  0  0  0  0  0  0  0
  -25.0218   10.7854  -15.7710 S   0  0  0  0  0  0  0  0  0  0  0  0
  -24.4089   11.6069  -17.2236 C   0  0  0  0  0  0  0  0  0  0  0  0
  -23.6254   12.5861  -16.6648 C   0  0  0  0  0  0  0  0  0  0  0  0
  -23.5481   12.6388  -15.2998 N   0  0  0  0  0  0  0  0  0  0  0  0
  -22.6971   13.6663  -14.6011 C   0  0  0  0  0  0  0  0  0  0  0  0
  -23.7936   14.6671  -12.5170 C   0  0  0  0  0  0  0  0  0  0  0  0
  -23.9212   14.7747  -11.1590 N   0  0  0  0  0  0  0  0  0  0  0  0
  -23.1391   14.0693  -10.3377 C   0  0  0  0  0  0  0  0  0  0  0  0
  -22.2098   13.2428  -10.8261 N   0  0  0  0  0  0  0  0  0  0  0  0
  -22.0274   13.0816  -12.1625 C   0  0  0  0  0  0  0  0  0  0  0  0
  -22.8202   13.7884  -13.0735 C   0  0  0  0  0  0  0  0  0  0  0  0
  5  4  1  0  0  0  0
  5  6  1  0  0  0  0
  7  8  2  0  0  0  0
  7 11  1  0  0  0  0
  8  9  1  0  0  0  0
  9 10  2  0  0  0  0
  9  6  1  0  0  0  0
 10  3  1  0  0  0  0
 11 12  1  0  0  0  0
 11 10  1  0  0  0  0
 12 18  1  0  0  0  0
 13  2  1  0  0  0  0
 13 14  2  0  0  0  0
 15 14  1  0  0  0  0
 15  1  1  0  0  0  0
 16 15  2  0  0  0  0
 17 18  2  0  0  0  0
 17 16  1  0  0  0  0
 18 13  1  0  0  0  0
M  END
>  <CHROM.1>
-179.78156204,66.17296290,-9.62465224,-88.87597208,-23.98257082,12.82456052
-14.69586747,0.98171342,1.08286500,1.76535921

>  <Name>
lig.pdb

>  <RI>
0

>  <Rbt.Current_Directory>
/home/itssahil/PROJECTS/Mol_Feturizer/New_Systems/rnas/4nyg

>  <Rbt.Executable>
rbdock ($Id: //depot/dev/client3/rdock/2013.1/src/exe/rbdock.cxx#4 $)

>  <Rbt.Library>
libRbt.so (2013.1, Build901 2013/11/27)

>  <Rbt.Parameter_File>
/export/apps/rDock/src/rDock_2013.1_src/data/scripts/dock_solv.prm

>  <Rbt.Receptor>
prm/blind_docking_80.prm

>  <SCORE>
-11.9179

>  <SCORE.INTER>
-11.9585

>  <SCORE.INTER.CONST>
1

>  <SCORE.INTER.POLAR>
0

>  <SCORE.INTER.ROT>
4

>  <SCORE.INTER.SOLV>
10.6279

>  <SCORE.INTER.VDW>
-17.7816

>  <SCORE.INTER.norm>
-0.664361

>  <SCORE.INTRA>
0.0395665

>  <SCORE.INTRA.DIHEDRAL>
0.016754

>  <SCORE.INTRA.DIHEDRAL.0>
3.20029

>  <SCORE.INTRA.POLAR>
0

>  <SCORE.INTRA.POLAR.0>
0

>  <SCORE.INTRA.REPUL>
0

>  <SCORE.INTRA.REPUL.0>
0

>  <SCORE.INTRA.SOLV>
0.29235

>  <SCORE.INTRA.SOLV.lig_0>
-19.3885

>  <SCORE.INTRA.VDW>
-0.114985

>  <SCORE.INTRA.VDW.0>
-1.12705

>  <SCORE.INTRA.norm>
0.00219814

>  <SCORE.RESTR>
0.00107282

>  <SCORE.RESTR.CAVITY>
0.00107282

>  <SCORE.RESTR.norm>
5.96012e-05

>  <SCORE.SYSTEM>
0

>  <SCORE.SYSTEM.CONST>
0

>  <SCORE.SYSTEM.DIHEDRAL>
0

>  <SCORE.SYSTEM.SOLV>
0

>  <SCORE.SYSTEM.norm>
0

>  <SCORE.heavy>
18

>  <SCORE.norm>
-0.662104

>  <RMSD>
24.719

$$$$
lig.pdb
 OpenBabel11021811503D
libRbt.so/2013.1/901 2013/11/27
 18 19  0  0  0  0  0  0  0  0999 V2000
  -23.1220   13.9318  -10.4255 C   0  0  0  0  0  0  0  0  0  0  0  0
  -24.8225   12.2295  -14.6377 N   0  0  0  0  0  0  0  0  0  0  0  0
  -23.5411    9.9010  -17.4193 C   0  0  0  0  0  0  0  0  0  0  0  0
  -27.6340   11.2956  -17.9216 O   0  0  0  0  0  0  0  0  0  0  0  0
  -26.8702   10.2729  -18.5458 C   0  0  0  0  0  0  0  0  0  0  0  0
  -25.7411   10.8923  -19.3923 C   0  0  0  0  0  0  0  0  0  0  0  0
  -23.6598   13.6257  -17.0675 C   0  0  0  0  0  0  0  0  0  0  0  0
  -24.8958   13.4932  -18.2753 S   0  0  0  0  0  0  0  0  0  0  0  0
  -24.8765   11.7266  -18.4732 C   0  0  0  0  0  0  0  0  0  0  0  0
  -23.8956   11.3696  -17.5814 C   0  0  0  0  0  0  0  0  0  0  0  0
  -23.2851   12.3679  -16.8723 N   0  0  0  0  0  0  0  0  0  0  0  0
  -22.2131   12.0674  -15.8582 C   0  0  0  0  0  0  0  0  0  0  0  0
  -23.7271   12.6333  -13.8746 C   0  0  0  0  0  0  0  0  0  0  0  0
  -23.9165   13.0748  -12.5935 N   0  0  0  0  0  0  0  0  0  0  0  0
  -22.8838   13.4648  -11.8418 C   0  0  0  0  0  0  0  0  0  0  0  0
  -21.6393   13.4353  -12.3273 N   0  0  0  0  0  0  0  0  0  0  0  0
  -21.3738   13.0063  -13.5885 C   0  0  0  0  0  0  0  0  0  0  0  0
  -22.4132   12.5789  -14.4223 C   0  0  0  0  0  0  0  0  0  0  0  0
  5  4  1  0  0  0  0
  5  6  1  0  0  0  0
  7  8  2  0  0  0  0
  7 11  1  0  0  0  0
  8  9  1  0  0  0  0
  9 10  2  0  0  0  0
  9  6  1  0  0  0  0
 10  3  1  0  0  0  0
 11 12  1  0  0  0  0
 11 10  1  0  0  0  0
 12 18  1  0  0  0  0
 13  2  1  0  0  0  0
 13 14  2  0  0  0  0
 15 14  1  0  0  0  0
 15  1  1  0  0  0  0
 16 15  2  0  0  0  0
 17 18  2  0  0  0  0
 17 16  1  0  0  0  0
 18 13  1  0  0  0  0
M  END
>  <CHROM.1>
58.79144593,-100.95656459,54.72021775,34.09886712,-24.03263106,12.35969936
-15.82191878,1.12818863,0.16324178,1.35854489

>  <Name>
lig.pdb

>  <RI>
0

>  <Rbt.Current_Directory>
/home/itssahil/PROJECTS/Mol_Feturizer/New_Systems/rnas/4nyg

>  <Rbt.Executable>
rbdock ($Id: //depot/dev/client3/rdock/2013.1/src/exe/rbdock.cxx#4 $)

>  <Rbt.Library>
libRbt.so (2013.1, Build901 2013/11/27)

>  <Rbt.Parameter_File>
/export/apps/rDock/src/rDock_2013.1_src/data/scripts/dock_solv.prm

>  <Rbt.Receptor>
prm/blind_docking_100.prm

>  <SCORE>
-8.53231

>  <SCORE.INTER>
-9.68386

>  <SCORE.INTER.CONST>
1

>  <SCORE.INTER.POLAR>
0

>  <SCORE.INTER.ROT>
4

>  <SCORE.INTER.SOLV>
8.36578

>  <SCORE.INTER.VDW>
-15.5112

>  <SCORE.INTER.norm>
-0.537992

>  <SCORE.INTRA>
1.15155

>  <SCORE.INTRA.DIHEDRAL>
1.99642

>  <SCORE.INTRA.DIHEDRAL.0>
3.20029

>  <SCORE.INTRA.POLAR>
0

>  <SCORE.INTRA.POLAR.0>
0

>  <SCORE.INTRA.REPUL>
0

>  <SCORE.INTRA.REPUL.0>
0

>  <SCORE.INTRA.SOLV>
2.01

>  <SCORE.INTRA.SOLV.lig_0>
-19.3885

>  <SCORE.INTRA.VDW>
-0.851653

>  <SCORE.INTRA.VDW.0>
-1.12705

>  <SCORE.INTRA.norm>
0.0639751

>  <SCORE.RESTR>
0

>  <SCORE.RESTR.CAVITY>
0

>  <SCORE.RESTR.norm>
0

>  <SCORE.SYSTEM>
0

>  <SCORE.SYSTEM.CONST>
0

>  <SCORE.SYSTEM.DIHEDRAL>
0

>  <SCORE.SYSTEM.SOLV>
0

>  <SCORE.SYSTEM.norm>
0

>  <SCORE.heavy>
18

>  <SCORE.norm>
-0.474017

>  <RMSD>
25.489

$$$$
lig.pdb
 OpenBabel11021811503D
libRbt.so/2013.1/901 2013/11/27
 18 19  0  0  0  0  0  0  0  0999 V2000
  -27.1135    9.6999  -20.8792 C   0  0  0  0  0  0  0  0  0  0  0  0
  -23.3750    8.5315  -18.0173 N   0  0  0  0  0  0  0  0  0  0  0  0
  -22.5293   14.1078  -16.7699 C   0  0  0  0  0  0  0  0  0  0  0  0
  -23.9767   15.1071  -11.8330 O   0  0  0  0  0  0  0  0  0  0  0  0
  -23.0243   15.5872  -12.7717 C   0  0  0  0  0  0  0  0  0  0  0  0
  -23.5982   15.5106  -14.1999 C   0  0  0  0  0  0  0  0  0  0  0  0
  -24.2122   11.4448  -14.7481 C   0  0  0  0  0  0  0  0  0  0  0  0
  -24.5007   12.7524  -13.6476 S   0  0  0  0  0  0  0  0  0  0  0  0
  -23.7153   14.0499  -14.5751 C   0  0  0  0  0  0  0  0  0  0  0  0
  -23.2772   13.3604  -15.6786 C   0  0  0  0  0  0  0  0  0  0  0  0
  -23.5456   12.0202  -15.7406 N   0  0  0  0  0  0  0  0  0  0  0  0
  -23.1208   11.1887  -16.9223 C   0  0  0  0  0  0  0  0  0  0  0  0
  -24.2590    9.5067  -18.4787 C   0  0  0  0  0  0  0  0  0  0  0  0
  -25.2074    9.1794  -19.4089 N   0  0  0  0  0  0  0  0  0  0  0  0
  -26.0668   10.0946  -19.8647 C   0  0  0  0  0  0  0  0  0  0  0  0
  -26.0167   11.3546  -19.4230 N   0  0  0  0  0  0  0  0  0  0  0  0
  -25.1049   11.7523  -18.4980 C   0  0  0  0  0  0  0  0  0  0  0  0
  -24.1821   10.8380  -17.9777 C   0  0  0  0  0  0  0  0  0  0  0  0
  5  4  1  0  0  0  0
  5  6  1  0  0  0  0
  7  8  2  0  0  0  0
  7 11  1  0  0  0  0
  8  9  1  0  0  0  0
  9 10  2  0  0  0  0
  9  6  1  0  0  0  0
 10  3  1  0  0  0  0
 11 12  1  0  0  0  0
 11 10  1  0  0  0  0
 12 18  1  0  0  0  0
 13  2  1  0  0  0  0
 13 14  2  0  0  0  0
 15 14  1  0  0  0  0
 15  1  1  0  0  0  0
 16 15  2  0  0  0  0
 17 18  2  0  0  0  0
 17 16  1  0  0  0  0
 18 13  1  0  0  0  0
M  END
>  <CHROM.1>
-68.97845182,51.50801960,77.84632589,-135.21972571,-24.28183947,12.09910021
-16.38407875,2.08769578,1.09499837,-2.69157534

>  <Name>
lig.pdb

>  <RI>
0

>  <Rbt.Current_Directory>
/home/itssahil/PROJECTS/Mol_Feturizer/New_Systems/rnas/4nyg

>  <Rbt.Executable>
rbdock ($Id: //depot/dev/client3/rdock/2013.1/src/exe/rbdock.cxx#4 $)

>  <Rbt.Library>
libRbt.so (2013.1, Build901 2013/11/27)

>  <Rbt.Parameter_File>
/export/apps/rDock/src/rDock_2013.1_src/data/scripts/dock_solv.prm

>  <Rbt.Receptor>
prm/blind_docking_40.prm

>  <SCORE>
-13.2008

>  <SCORE.INTER>
-13.1121

>  <SCORE.INTER.CONST>
1

>  <SCORE.INTER.POLAR>
0

>  <SCORE.INTER.ROT>
4

>  <SCORE.INTER.SOLV>
8.1332

>  <SCORE.INTER.VDW>
-17.7192

>  <SCORE.INTER.norm>
-0.728452

>  <SCORE.INTRA>
-0.0887028

>  <SCORE.INTRA.DIHEDRAL>
0.408425

>  <SCORE.INTRA.DIHEDRAL.0>
3.20029

>  <SCORE.INTRA.POLAR>
0

>  <SCORE.INTRA.POLAR.0>
0

>  <SCORE.INTRA.REPUL>
0

>  <SCORE.INTRA.REPUL.0>
0

>  <SCORE.INTRA.SOLV>
0.42524

>  <SCORE.INTRA.SOLV.lig_0>
-19.3885

>  <SCORE.INTRA.VDW>
-0.505535

>  <SCORE.INTRA.VDW.0>
-1.12705

>  <SCORE.INTRA.norm>
-0.00492794

>  <SCORE.RESTR>
0

>  <SCORE.RESTR.CAVITY>
0

>  <SCORE.RESTR.norm>
0

>  <SCORE.SYSTEM>
0

>  <SCORE.SYSTEM.CONST>
0

>  <SCORE.SYSTEM.DIHEDRAL>
0

>  <SCORE.SYSTEM.SOLV>
0

>  <SCORE.SYSTEM.norm>
0

>  <SCORE.heavy>
18

>  <SCORE.norm>
-0.733379

>  <RMSD>
26.210

$$$$
