@<TRIPOS>MOLECULE
4nyg_rdock.pdb
 1557 1736 0 0 0
SMALL
GASTEIGER

@<TRIPOS>ATOM
      1  O5'        3.1450   20.0130   28.6980 O.3     9  G9         -0.2176
      2  C5'        3.5180   18.6950   28.2340 C.3     9  G9          0.2141
      3  C4'        2.8540   17.5290   28.9470 C.3     9  G9          0.1802
      4  O4'        2.8760   17.7640   30.3820 O.3     9  G9         -0.3306
      5  C3'        1.3880   17.3070   28.6090 C.3     9  G9          0.1861
      6  O3'        1.2490   16.4800   27.4690 O.3     9  G9         -0.3112
      7  C2'        0.8500   16.6260   29.8580 C.3     9  G9          0.2309
      8  O2'        1.0510   15.2320   29.8720 O.3     9  G9         -0.2156
      9  C1'        1.6660   17.3090   30.9580 C.3     9  G9          0.2408
     10   N9        0.9930   18.4640   31.5380 N.ar    9  G9         -0.2693
     11   C8        1.2790   19.7860   31.3160 C.ar    9  G9          0.1817
     12   N7        0.5150   20.5940   32.0000 N.ar    9  G9         -0.2173
     13   C5       -0.3210   19.7500   32.7090 C.ar    9  G9          0.1748
     14   C6       -1.3390   20.0450   33.6180 C.ar    9  G9          0.3023
     15   O6       -1.7230   21.1480   34.0130 O.2     9  G9         -0.2633
     16   N.1      -1.9400   18.8950   34.0940 N.ar    9  G9         -0.1709
     17   C.2      -1.5980   17.6260   33.7380 C.ar    9  G9          0.2606
     18   N.2      -2.3060   16.6510   34.3010 N.pl3   9  G9         -0.0859
     19   N.3      -0.6380   17.3330   32.8960 N.ar    9  G9         -0.1918
     20   C4       -0.0450   18.4360   32.4240 C.ar    9  G9          0.1723
     21    P.3      0.0200   16.7180   26.4680 P.3    10  C10         0.2141
     22  OP1        0.2200   15.8350   25.2770 O.2    10  C10        -0.5172
     23  OP2       -0.1430   18.1850   26.2770 O.3    10  C10        -0.4373
     24  O5'       -1.2340   16.1810   27.2820 O.3    10  C10        -0.3114
     25  C5'       -1.3640   14.8120   27.5760 C.3    10  C10         0.1812
     26  C4'       -2.3590   14.6180   28.6890 C.3    10  C10         0.1773
     27  O4'       -1.9530   15.4140   29.8430 O.3    10  C10        -0.3307
     28  C3'       -3.7810   15.0980   28.4530 C.3    10  C10         0.1860
     29  O3'       -4.5270   14.2190   27.6130 O.3    10  C10        -0.3112
     30  C2'       -4.3020   15.1360   29.8860 C.3    10  C10         0.2309
     31  O2'       -4.5190   13.8500   30.4300 O.3    10  C10        -0.2156
     32  C1'       -3.1030   15.7510   30.6130 C.3    10  C10         0.2420
     33   N.1      -3.2090   17.2230   30.7260 N.ar   10  C10        -0.2535
     34   C.2      -4.2640   17.7570   31.4770 C.ar   10  C10         0.3532
     35   O.2      -5.0420   16.9780   32.0630 O.2    10  C10        -0.2443
     36   N.3      -4.4120   19.1050   31.5520 N.ar   10  C10        -0.1739
     37   C4       -3.5510   19.9040   30.9290 C.ar   10  C10         0.1759
     38   N.4      -3.7480   21.2140   31.0260 N.pl3  10  C10        -0.1070
     39   C5       -2.4570   19.3910   30.1810 C.ar   10  C10         0.0566
     40   C6       -2.3230   18.0560   30.1070 C.ar   10  C10         0.0850
     41    P.3     -5.6640   14.8200   26.6410 P.3    11  G11         0.2141
     42  OP1       -6.1680   13.7250   25.7640 O.2    11  G11        -0.5172
     43  OP2       -5.1950   16.1050   26.0310 O.3    11  G11        -0.4373
     44  O5'       -6.8440   15.1370   27.6460 O.3    11  G11        -0.3114
     45  C5'       -7.6050   14.0780   28.1830 C.3    11  G11         0.1812
     46  C4'       -8.7010   14.6300   29.0410 C.3    11  G11         0.1773
     47  O4'       -8.0980   15.3180   30.1720 O.3    11  G11        -0.3307
     48  C3'       -9.5650   15.6860   28.3690 C.3    11  G11         0.1860
     49  O3'      -10.5930   15.1140   27.5640 O.3    11  G11        -0.3112
     50  C2'      -10.1000   16.4460   29.5750 C.3    11  G11         0.2309
     51  O2'      -11.1700   15.7930   30.2200 O.3    11  G11        -0.2156
     52  C1'       -8.8610   16.4720   30.4780 C.3    11  G11         0.2408
     53   N9       -8.0550   17.6500   30.1810 N.ar   11  G11        -0.2693
     54   C8       -6.9760   17.7510   29.3290 C.ar   11  G11         0.1817
     55   N7       -6.5310   18.9740   29.2160 N.ar   11  G11        -0.2173
     56   C5       -7.3540   19.7140   30.0590 C.ar   11  G11         0.1748
     57   C6       -7.3640   21.0920   30.3570 C.ar   11  G11         0.3023
     58   O6       -6.6390   21.9830   29.9160 O.2    11  G11        -0.2633
     59   N.1      -8.3540   21.4020   31.2750 N.ar   11  G11        -0.1709
     60   C.2      -9.2240   20.5080   31.8320 C.ar   11  G11         0.2606
     61   N.2     -10.1100   21.0010   32.7070 N.pl3  11  G11        -0.0859
     62   N.3      -9.2310   19.2290   31.5570 N.ar   11  G11        -0.1918
     63   C4       -8.2800   18.9030   30.6720 C.ar   11  G11         0.1723
     64    P.3    -11.4710   16.0610   26.5940 P.3    12  A12         0.2141
     65  OP1      -12.4530   15.2020   25.8720 O.3    12  A12        -0.4373
     66  OP2      -10.5810   16.9560   25.8030 O.2    12  A12        -0.5172
     67  O5'      -12.2700   16.9820   27.6190 O.3    12  A12        -0.3114
     68  C5'      -13.2670   16.4420   28.4750 C.3    12  A12         0.1812
     69  C4'      -13.9340   17.5510   29.2430 C.3    12  A12         0.1773
     70  O4'      -12.9300   18.1880   30.0810 O.3    12  A12        -0.3307
     71  C3'      -14.4860   18.6760   28.3820 C.3    12  A12         0.1860
     72  O3'      -15.7980   18.3850   27.9040 O.3    12  A12        -0.3112
     73  C2'      -14.4290   19.8680   29.3340 C.3    12  A12         0.2309
     74  O2'      -15.5060   19.9310   30.2420 O.3    12  A12        -0.2156
     75  C1'      -13.1240   19.5930   30.0860 C.3    12  A12         0.2408
     76   N9      -11.9620   20.2140   29.4430 N.ar   12  A12        -0.2693
     77   C8      -11.1190   19.6740   28.5060 C.ar   12  A12         0.1816
     78   N7      -10.1910   20.4950   28.0950 N.ar   12  A12        -0.2193
     79   C5      -10.4310   21.6510   28.8170 C.ar   12  A12         0.1518
     80   C6       -9.7980   22.8930   28.8390 C.ar   12  A12         0.1919
     81   N6       -8.7370   23.2040   28.0890 N.pl3  12  A12        -0.1054
     82   N.1     -10.2930   23.8290   29.6720 N.ar   12  A12        -0.2040
     83   C.2     -11.3440   23.5230   30.4250 C.ar   12  A12         0.2016
     84   N.3     -12.0210   22.3960   30.4960 N.ar   12  A12        -0.2048
     85   C4      -11.5110   21.4890   29.6550 C.ar   12  A12         0.1692
     86    P.3    -16.5220   19.4010   26.8840 P.3    13  C13         0.2141
     87  OP1      -17.9610   19.0560   26.8350 O.3    13  C13        -0.4373
     88  OP2      -15.7520   19.4860   25.6140 O.2    13  C13        -0.5172
     89  O5'      -16.4440   20.8030   27.6340 O.3    13  C13        -0.3114
     90  C5'      -17.4890   21.2410   28.4930 C.3    13  C13         0.1812
     91  C4'      -17.4430   22.7410   28.6200 C.3    13  C13         0.1773
     92  O4'      -16.1790   23.1180   29.2340 O.3    13  C13        -0.3307
     93  C3'      -17.4530   23.4790   27.2910 C.3    13  C13         0.1860
     94  O3'      -18.7800   23.7150   26.8400 O.3    13  C13        -0.3112
     95  C2'      -16.7420   24.7800   27.6400 C.3    13  C13         0.2309
     96  O2'      -17.5800   25.7250   28.2590 O.3    13  C13        -0.2156
     97  C1'      -15.6710   24.2960   28.6170 C.3    13  C13         0.2420
     98   N.1     -14.4190   23.9640   27.9060 N.ar   13  C13        -0.2535
     99   C.2     -13.6060   25.0040   27.4530 C.ar   13  C13         0.3532
    100   O.2     -13.9230   26.1740   27.7270 O.2    13  C13        -0.2443
    101   N.3     -12.5000   24.7100   26.7270 N.ar   13  C13        -0.1739
    102   C4      -12.1930   23.4390   26.4610 C.ar   13  C13         0.1759
    103   N.4     -11.1190   23.1940   25.7210 N.pl3  13  C13        -0.1070
    104   C5      -12.9810   22.3610   26.9400 C.ar   13  C13         0.0566
    105   C6      -14.0720   22.6640   27.6560 C.ar   13  C13         0.0850
    106    P.3    -19.0480   24.1330   25.3080 P.3    14  U14         0.2141
    107  OP1      -20.5130   24.3300   25.1530 O.3    14  U14        -0.4373
    108  OP2      -18.3370   23.1710   24.4210 O.2    14  U14        -0.5172
    109  O5'      -18.3810   25.5720   25.1570 O.3    14  U14        -0.3114
    110  C5'      -18.8180   26.6520   25.9680 C.3    14  U14         0.1812
    111  C4'      -17.9280   27.8650   25.7800 C.3    14  U14         0.1773
    112  O4'      -16.5720   27.6140   26.2570 O.3    14  U14        -0.3307
    113  C3'      -17.7110   28.3360   24.3570 C.3    14  U14         0.1860
    114  O3'      -18.8140   29.0810   23.8720 O.3    14  U14        -0.3112
    115  C2'      -16.4930   29.2340   24.5210 C.3    14  U14         0.2309
    116  O2'      -16.8640   30.4930   25.0480 O.3    14  U14        -0.2156
    117  C1'      -15.6580   28.4320   25.5290 C.3    14  U14         0.2420
    118   N.1     -14.6660   27.5710   24.8580 N.ar   14  U14        -0.2534
    119   C.2     -13.5990   28.1920   24.2470 C.ar   14  U14         0.3546
    120   O.2     -13.4320   29.3960   24.2780 O.2    14  U14        -0.2443
    121   N.3     -12.7330   27.3490   23.5940 N.ar   14  U14        -0.1530
    122   C4      -12.8210   25.9740   23.5010 C.ar   14  U14         0.2846
    123   O4      -11.9650   25.3510   22.8630 O.2    14  U14        -0.2650
    124   C5      -13.9410   25.4070   24.1750 C.ar   14  U14         0.0814
    125   C6      -14.8010   26.2020   24.8150 C.ar   14  U14         0.0870
    126    P.3    -19.0500   29.1930   22.2870 P.3    15  C15         0.2141
    127  OP1      -20.1280   30.1950   22.0930 O.3    15  C15        -0.4373
    128  OP2      -19.2030   27.8180   21.7180 O.2    15  C15        -0.5172
    129  O5'      -17.7110   29.8700   21.7400 O.3    15  C15        -0.3114
    130  C5'      -17.4670   31.2520   21.9790 C.3    15  C15         0.1812
    131  C4'      -16.1590   31.6870   21.3640 C.3    15  C15         0.1773
    132  O4'      -15.0490   31.0110   22.0130 O.3    15  C15        -0.3307
    133  C3'      -15.9270   31.3340   19.9130 C.3    15  C15         0.1860
    134  O3'      -16.6150   32.1490   18.9900 O.3    15  C15        -0.3112
    135  C2'      -14.4260   31.5380   19.7940 C.3    15  C15         0.2309
    136  O2'      -14.0370   32.8920   19.7100 O.3    15  C15        -0.2156
    137  C1'      -13.9510   30.9330   21.1090 C.3    15  C15         0.2420
    138   N.1     -13.6300   29.5260   20.8560 N.ar   15  C15        -0.2535
    139   C.2     -12.3880   29.2200   20.3210 C.ar   15  C15         0.3532
    140   O.2     -11.5770   30.1410   20.1360 O.2    15  C15        -0.2443
    141   N.3     -12.0990   27.9380   20.0130 N.ar   15  C15        -0.1739
    142   C4      -13.0010   26.9850   20.2310 C.ar   15  C15         0.1759
    143   N.4     -12.6880   25.7380   19.8990 N.pl3  15  C15        -0.1070
    144   C5      -14.2690   27.2680   20.7980 C.ar   15  C15         0.0566
    145   C6      -14.5380   28.5410   21.1000 C.ar   15  C15         0.0850
    146    P.3    -16.5130   31.7930   17.4270 P.3    16  G16         0.2141
    147  OP1      -17.5920   32.5120   16.6930 O.2    16  G16        -0.5172
    148  OP2      -16.4080   30.3030   17.3180 O.3    16  G16        -0.4373
    149  O5'      -15.1030   32.3990   16.9950 O.3    16  G16        -0.3114
    150  C5'      -14.4630   31.9460   15.8130 C.3    16  G16         0.1812
    151  C4'      -12.9630   31.9180   15.9900 C.3    16  G16         0.1773
    152  O4'      -12.5870   31.1470   17.1560 O.3    16  G16        -0.3307
    153  C3'      -12.2980   31.2210   14.8270 C.3    16  G16         0.1860
    154  O3'      -12.0350   32.1730   13.8350 O.3    16  G16        -0.3112
    155  C2'      -11.0510   30.6010   15.4360 C.3    16  G16         0.2309
    156  O2'       -9.9520   31.4770   15.5420 O.3    16  G16        -0.2156
    157  C1'      -11.5740   30.2110   16.8140 C.3    16  G16         0.2408
    158   N9      -12.1840   28.8850   16.8530 N.ar   16  G16        -0.2693
    159   C8      -13.4870   28.5950   17.1870 C.ar   16  G16         0.1817
    160   N7      -13.7420   27.3190   17.1870 N.ar   16  G16        -0.2173
    161   C5      -12.5410   26.7340   16.8210 C.ar   16  G16         0.1748
    162   C6      -12.2130   25.3890   16.6570 C.ar   16  G16         0.3023
    163   O6      -12.9360   24.4080   16.8200 O.2    16  G16        -0.2633
    164   N.1     -10.8910   25.2290   16.2610 N.ar   16  G16        -0.1709
    165   C.2     -10.0120   26.2480   16.0530 C.ar   16  G16         0.2606
    166   N.2      -8.7990   25.9040   15.6620 N.pl3  16  G16        -0.0859
    167   N.3     -10.3040   27.5150   16.2150 N.ar   16  G16        -0.1918
    168   C4      -11.5760   27.6870   16.5970 C.ar   16  G16         0.1723
    169    P.3    -12.2500   31.7780   12.3140 P.3    17  G17         0.2141
    170  OP1      -11.8760   32.9980   11.5400 O.2    17  G17        -0.5172
    171  OP2      -13.6150   31.1890   12.1830 O.3    17  G17        -0.4373
    172  O5'      -11.1280   30.6740   12.0680 O.3    17  G17        -0.3114
    173  C5'       -9.7590   31.0530   12.0810 C.3    17  G17         0.1812
    174  C4'       -8.8880   29.9230   11.6060 C.3    17  G17         0.1773
    175  O4'       -8.7480   28.9200   12.6460 O.3    17  G17        -0.3307
    176  C3'       -9.4130   29.1440   10.4210 C.3    17  G17         0.1860
    177  O3'       -9.1750   29.8070    9.1980 O.3    17  G17        -0.3112
    178  C2'       -8.6310   27.8560   10.5690 C.3    17  G17         0.2309
    179  O2'       -7.2740   28.1070   10.3290 O.3    17  G17        -0.2156
    180  C1'       -8.7840   27.6170   12.0670 C.3    17  G17         0.2408
    181   N9      -10.0500   26.9820   12.4560 N.ar   17  G17        -0.2693
    182   C8      -11.1720   27.6100   12.9450 C.ar   17  G17         0.1817
    183   N7      -12.1380   26.7840   13.2290 N.ar   17  G17        -0.2173
    184   C5      -11.6280   25.5380   12.9090 C.ar   17  G17         0.1748
    185   C6      -12.2140   24.2550   13.0170 C.ar   17  G17         0.3023
    186   O6      -13.3390   23.9550   13.4350 O.2    17  G17        -0.2633
    187   N.1     -11.3500   23.2600   12.5810 N.ar   17  G17        -0.1709
    188   C.2     -10.0920   23.4770   12.0970 C.ar   17  G17         0.2606
    189   N.2      -9.4160   22.4030   11.7150 N.pl3  17  G17        -0.0859
    190   N.3      -9.5340   24.6650   11.9930 N.ar   17  G17        -0.1918
    191   C4      -10.3490   25.6430   12.4190 C.ar   17  G17         0.1723
    192    P.3     -9.8780   29.2660    7.8710 P.3    18  G18         0.2141
    193  OP1       -9.6410   30.1810    6.7410 O.2    18  G18        -0.5172
    194  OP2      -11.2600   28.8520    8.1770 O.3    18  G18        -0.4373
    195  O5'       -9.0370   27.9590    7.5870 O.3    18  G18        -0.3114
    196  C5'       -9.4640   27.0700    6.5890 C.3    18  G18         0.1812
    197  C4'       -8.9360   25.6900    6.8400 C.3    18  G18         0.1773
    198  O4'       -9.2980   25.2360    8.1630 O.3    18  G18        -0.3307
    199  C3'       -9.6110   24.7080    5.9140 C.3    18  G18         0.1860
    200  O3'       -8.9490   24.7610    4.6720 O.3    18  G18        -0.3112
    201  C2'       -9.4970   23.3880    6.6630 C.3    18  G18         0.2309
    202  O2'       -8.2780   22.7100    6.4520 O.3    18  G18        -0.2156
    203  C1'       -9.6060   23.8610    8.1130 C.3    18  G18         0.2408
    204   N9      -10.9100   23.6630    8.7180 N.ar   18  G18        -0.2693
    205   C8      -11.8100   24.6120    9.1250 C.ar   18  G18         0.1817
    206   N7      -12.8430   24.1020    9.7380 N.ar   18  G18        -0.2173
    207   C5      -12.6100   22.7330    9.7040 C.ar   18  G18         0.1748
    208   C6      -13.3620   21.6540   10.2300 C.ar   18  G18         0.3023
    209   O6      -14.4120   21.6870   10.8460 O.2    18  G18        -0.2633
    210   N.1     -12.7580   20.4360    9.9760 N.ar   18  G18        -0.1709
    211   C.2     -11.5730   20.2710    9.2930 C.ar   18  G18         0.2606
    212   N.2     -11.1270   19.0110    9.1390 N.pl3  18  G18        -0.0859
    213   N.3     -10.8690   21.2680    8.7970 N.ar   18  G18        -0.1918
    214   C4      -11.4370   22.4580    9.0470 C.ar   18  G18         0.1723
    215    P.3     -9.7410   25.3030    3.3980 P.3    19  G19         0.2141
    216  OP1       -8.8400   26.2410    2.6850 O.2    19  G19        -0.5172
    217  OP2      -11.0970   25.7510    3.8380 O.3    19  G19        -0.4373
    218  O5'       -9.8830   23.9870    2.5170 O.3    19  G19        -0.3114
    219  C5'       -8.8470   22.9980    2.5200 C.3    19  G19         0.1812
    220  C4'       -9.4330   21.6210    2.7430 C.3    19  G19         0.1773
    221  O4'       -9.9660   21.5090    4.0900 O.3    19  G19        -0.3307
    222  C3'      -10.6220   21.2580    1.8800 C.3    19  G19         0.1860
    223  O3'      -10.1590   20.8680    0.5880 O.3    19  G19        -0.3112
    224  C2'      -11.2290   20.0990    2.6660 C.3    19  G19         0.2309
    225  O2'      -10.4630   18.9280    2.4570 O.3    19  G19        -0.2156
    226  C1'      -11.0010   20.5450    4.1140 C.3    19  G19         0.2408
    227   N9      -12.1220   21.1190    4.8500 N.ar   19  G19        -0.2693
    228   C8      -12.4740   22.4440    4.8840 C.ar   19  G19         0.1817
    229   N7      -13.4760   22.6920    5.6930 N.ar   19  G19        -0.2173
    230   C5      -13.8210   21.4530    6.2090 C.ar   19  G19         0.1748
    231   C6      -14.8340   21.0990    7.1330 C.ar   19  G19         0.3023
    232   O6      -15.6450   21.8340    7.7080 O.2    19  G19        -0.2633
    233   N.1     -14.8490   19.7330    7.3740 N.ar   19  G19        -0.1709
    234   C.2     -13.9910   18.8230    6.8110 C.ar   19  G19         0.2606
    235   N.2     -14.1650   17.5450    7.1810 N.pl3  19  G19        -0.0859
    236   N.3     -13.0320   19.1410    5.9510 N.ar   19  G19        -0.1918
    237   C4      -13.0050   20.4630    5.6930 C.ar   19  G19         0.1723
    238    P.3    -10.9480   21.3630   -0.7290 P.3    20  U20         0.2141
    239  OP1      -10.2280   20.7280   -1.8670 O.2    20  U20        -0.5172
    240  OP2      -11.1480   22.8410   -0.6890 O.3    20  U20        -0.4373
    241  O5'      -12.3940   20.7020   -0.6120 O.3    20  U20        -0.3114
    242  C5'      -12.5530   19.2860   -0.6590 C.3    20  U20         0.1812
    243  C4'      -13.9540   18.9020   -0.2510 C.3    20  U20         0.1773
    244  O4'      -14.2190   19.2690    1.1250 O.3    20  U20        -0.3307
    245  C3'      -15.0910   19.5900   -0.9900 C.3    20  U20         0.1860
    246  O3'      -15.3400   18.9270   -2.2360 O.3    20  U20        -0.3112
    247  C2'      -16.2810   19.3890   -0.0470 C.3    20  U20         0.2309
    248  O2'      -16.9950   18.2280   -0.3930 O.3    20  U20        -0.2156
    249  C1'      -15.6060   19.1760    1.3140 C.3    20  U20         0.2420
    250   N.1     -16.0460   20.0090    2.4390 N.ar   20  U20        -0.2534
    251   C.2     -16.7840   19.3630    3.4150 C.ar   20  U20         0.3546
    252   O.2     -17.0320   18.1710    3.3730 O.2    20  U20        -0.2443
    253   N.3     -17.2210   20.1510    4.4490 N.ar   20  U20        -0.1530
    254   C4      -17.0000   21.4870    4.6110 C.ar   20  U20         0.2846
    255   O4      -17.4780   22.0510    5.5930 O.2    20  U20        -0.2650
    256   C5      -16.2140   22.0960    3.5670 C.ar   20  U20         0.0814
    257   C6      -15.7720   21.3450    2.5390 C.ar   20  U20         0.0870
    258    P.3    -15.8840   19.7660   -3.5110 P.3    21  G21         0.2141
    259  OP1      -16.2360   21.1450   -3.0480 O.3    21  G21        -0.4373
    260  OP2      -16.9140   18.9500   -4.2160 O.2    21  G21        -0.5172
    261  O5'      -14.6200   19.8330   -4.4790 O.3    21  G21        -0.3114
    262  C5'      -14.4840   18.9010   -5.5380 C.3    21  G21         0.1812
    263  C4'      -13.2610   18.0470   -5.3310 C.3    21  G21         0.1773
    264  O4'      -13.3070   17.4500   -4.0140 O.3    21  G21        -0.3307
    265  C3'      -13.1790   16.8680   -6.2810 C.3    21  G21         0.1860
    266  O3'      -12.5520   17.2500   -7.4900 O.3    21  G21        -0.3112
    267  C2'      -12.3660   15.8490   -5.4990 C.3    21  G21         0.2309
    268  O2'      -10.9860   16.1240   -5.5480 O.3    21  G21        -0.2156
    269  C1'      -12.8680   16.0990   -4.0800 C.3    21  G21         0.2408
    270   N9      -13.9790   15.2640   -3.6460 N.ar   21  G21        -0.2693
    271   C8      -15.1620   15.7330   -3.1320 C.ar   21  G21         0.1817
    272   N7      -15.9740   14.7840   -2.7660 N.ar   21  G21        -0.2173
    273   C5      -15.2930   13.6140   -3.0660 C.ar   21  G21         0.1748
    274   C6      -15.6800   12.2760   -2.8810 C.ar   21  G21         0.3023
    275   O6      -16.7330   11.8430   -2.3850 O.2    21  G21        -0.2633
    276   N.1     -14.7030   11.3980   -3.3270 N.ar   21  G21        -0.1709
    277   C.2     -13.5050   11.7640   -3.8700 C.ar   21  G21         0.2606
    278   N.2     -12.6940   10.7480   -4.2310 N.pl3  21  G21        -0.0859
    279   N.3     -13.1260   13.0260   -4.0440 N.ar   21  G21        -0.1918
    280   C4      -14.0640   13.8900   -3.6230 C.ar   21  G21         0.1723
    281    P.3    -13.2720   16.9140   -8.8800 P.3    22  C22         0.2141
    282  OP1      -12.3710   17.3500   -9.9770 O.2    22  C22        -0.5172
    283  OP2      -14.6730   17.4240   -8.8190 O.3    22  C22        -0.4373
    284  O5'      -13.3180   15.3270   -8.8880 O.3    22  C22        -0.3114
    285  C5'      -12.1320   14.5630   -9.0240 C.3    22  C22         0.1812
    286  C4'      -12.4860   13.1030   -9.1110 C.3    22  C22         0.1773
    287  O4'      -12.8070   12.5730   -7.7930 O.3    22  C22        -0.3307
    288  C3'      -13.7220   12.8110   -9.9410 C.3    22  C22         0.1860
    289  O3'      -13.4230   12.7960  -11.3360 O.3    22  C22        -0.3112
    290  C2'      -14.1600   11.4530   -9.4000 C.3    22  C22         0.2309
    291  O2'      -13.4570   10.3680   -9.9680 O.3    22  C22        -0.2156
    292  C1'      -13.8220   11.5880   -7.9110 C.3    22  C22         0.2420
    293   N.1     -14.9960   12.0230   -7.1430 N.ar   22  C22        -0.2535
    294   C.2     -15.9110   11.0660   -6.7540 C.ar   22  C22         0.3532
    295   O.2     -15.6780    9.8870   -7.0340 O.2    22  C22        -0.2443
    296   N.3     -17.0280   11.4380   -6.0870 N.ar   22  C22        -0.1739
    297   C4      -17.2350   12.7240   -5.8080 C.ar   22  C22         0.1759
    298   N.4     -18.3600   13.0550   -5.1620 N.pl3  22  C22        -0.1070
    299   C5      -16.3020   13.7290   -6.1810 C.ar   22  C22         0.0566
    300   C6      -15.2020   13.3370   -6.8380 C.ar   22  C22         0.0850
    301    P.3    -14.6240   12.8760  -12.4020 P.3    23  C23         0.2141
    302  OP1      -14.0510   13.2860  -13.7140 O.2    23  C23        -0.5172
    303  OP2      -15.7140   13.6830  -11.7900 O.3    23  C23        -0.4373
    304  O5'      -15.1270   11.3650  -12.4960 O.3    23  C23        -0.3114
    305  C5'      -16.4650   11.0550  -12.8850 C.3    23  C23         0.1812
    306  C4'      -16.9130    9.7480  -12.2660 C.3    23  C23         0.1773
    307  O4'      -16.8280    9.8470  -10.8200 O.3    23  C23        -0.3307
    308  C3'      -18.3700    9.4000  -12.5320 C.3    23  C23         0.1860
    309  O3'      -18.5320    8.7210  -13.7760 O.3    23  C23        -0.3112
    310  C2'      -18.7080    8.4980  -11.3560 C.3    23  C23         0.2309
    311  O2'      -18.3260    7.1570  -11.5470 O.3    23  C23        -0.2156
    312  C1'      -17.9040    9.1440  -10.2300 C.3    23  C23         0.2420
    313   N.1     -18.7320   10.1060   -9.5100 N.ar   23  C23        -0.2535
    314   C.2     -19.7910    9.6290   -8.7340 C.ar   23  C23         0.3532
    315   O.2     -19.9710    8.4030   -8.6540 O.2    23  C23        -0.2443
    316   N.3     -20.5910   10.5140   -8.0930 N.ar   23  C23        -0.1739
    317   C4      -20.3590   11.8270   -8.2050 C.ar   23  C23         0.1759
    318   N.4     -21.1770   12.6690   -7.5580 N.pl3  23  C23        -0.1070
    319   C5      -19.2770   12.3350   -8.9820 C.ar   23  C23         0.0566
    320   C6      -18.4930   11.4460   -9.6080 C.ar   23  C23         0.0850
    321    P.3    -19.7980    9.0540  -14.7160 P.3    24  C24         0.2141
    322  OP1      -20.0520    7.8300  -15.5210 O.2    24  C24        -0.5172
    323  OP2      -19.5640   10.3550  -15.3960 O.3    24  C24        -0.4373
    324  O5'      -21.0190    9.2120  -13.7040 O.3    24  C24        -0.3114
    325  C5'      -21.3910    8.1380  -12.8410 C.3    24  C24         0.1811
    326  C4'      -22.6520    8.4740  -12.0760 C.3    24  C24         0.1752
    327  O4'      -22.4940    9.7450  -11.3820 O.3    24  C24        -0.3483
    328  C3'      -23.9010    8.6740  -12.9120 C.3    24  C24         0.1839
    329  O3'      -24.4740    7.4120  -13.2320 O.3    24  C24        -0.3113
    330  C2'      -24.7710    9.4740  -11.9520 C.3    24  C24         0.2112
    331  O2'      -25.2900    8.6640  -10.9170 O.3    24  C24        -0.2177
    332  C1'      -23.7390   10.4200  -11.3360 C.3    24  C24         0.1776
    333    P.3    -24.3380    6.8340  -14.7270 P.3    25  U25         0.2141
    334  OP1      -22.9270    6.3900  -14.9090 O.3    25  U25        -0.4373
    335  OP2      -24.9060    7.8590  -15.6380 O.2    25  U25        -0.5172
    336  O5'      -25.2820    5.5410  -14.7530 O.3    25  U25        -0.3114
    337  C5'      -26.5810    5.5770  -15.3670 C.3    25  U25         0.1813
    338  C4'      -27.0310    4.1790  -15.7680 C.3    25  U25         0.1801
    339  O4'      -26.0750    3.6140  -16.7060 O.3    25  U25        -0.3306
    340  C3'      -27.1280    3.1530  -14.6460 C.3    25  U25         0.2161
    341  O3'      -28.4020    3.2150  -14.0100 O.3    25  U25        -0.2175
    342  C2'      -26.9240    1.8340  -15.3860 C.3    25  U25         0.2338
    343  O2'      -28.0880    1.3550  -16.0350 O.3    25  U25        -0.2155
    344  C1'      -25.8810    2.2350  -16.4300 C.3    25  U25         0.2421
    345   N.1     -24.4960    2.0510  -15.9640 N.ar   25  U25        -0.2534
    346   C.2     -23.8380    0.8900  -16.3340 C.ar   25  U25         0.3546
    347   O.2     -24.3570    0.0270  -17.0220 O.2    25  U25        -0.2443
    348   N.3     -22.5500    0.7790  -15.8670 N.ar   25  U25        -0.1530
    349   C4      -21.8670    1.6900  -15.0850 C.ar   25  U25         0.2846
    350   O4      -20.7080    1.4480  -14.7470 O.2    25  U25        -0.2650
    351   C5      -22.6140    2.8620  -14.7440 C.ar   25  U25         0.0814
    352   C6      -23.8690    3.0000  -15.1830 C.ar   25  U25         0.0870
    353    P.3    -25.8170    7.2520  -23.5710 Pac    30  C30         0.3942
    354  OP1      -25.8230    6.0900  -24.4960 O.3    30  C30        -0.1425
    355  OP2      -25.2230    7.1130  -22.2150 O.3    30  C30        -0.1425
    356  O5'      -25.1180    8.4780  -24.3110 O.3    30  C30        -0.2926
    357  C5'      -24.8360    9.6870  -23.6130 C.3    30  C30         0.1829
    358  C4'      -25.0160   10.8750  -24.5290 C.3    30  C30         0.1774
    359  O4'      -26.3640   10.8600  -25.0750 O.3    30  C30        -0.3307
    360  C3'      -24.9080   12.2320  -23.8510 C.3    30  C30         0.1860
    361  O3'      -23.5580   12.6590  -23.7150 O.3    30  C30        -0.3112
    362  C2'      -25.7010   13.1200  -24.7980 C.3    30  C30         0.2309
    363  O2'      -24.9830   13.4650  -25.9670 O.3    30  C30        -0.2156
    364  C1'      -26.8580   12.1890  -25.1630 C.3    30  C30         0.2420
    365   N.1     -28.0200   12.3140  -24.2620 N.ar   30  C30        -0.2535
    366   C.2     -28.6370   13.5670  -24.1150 C.ar   30  C30         0.3532
    367   O.2     -28.1740   14.5420  -24.7260 O.2    30  C30        -0.2443
    368   N.3     -29.7180   13.6820  -23.3110 N.ar   30  C30        -0.1739
    369   C4      -30.1850   12.6130  -22.6660 C.ar   30  C30         0.1759
    370   N.4     -31.2580   12.7750  -21.8910 N.pl3  30  C30        -0.1070
    371   C5      -29.5730   11.3300  -22.7870 C.ar   30  C30         0.0566
    372   C6      -28.5030   11.2270  -23.5860 C.ar   30  C30         0.0850
    373    P.3    -23.0850   13.3730  -22.3540 P.3    31  G31         0.2141
    374  OP1      -21.6780   13.8180  -22.5250 O.2    31  G31        -0.5172
    375  OP2      -23.4380   12.4620  -21.2350 O.3    31  G31        -0.4373
    376  O5'      -24.0120   14.6660  -22.2420 O.3    31  G31        -0.3114
    377  C5'      -24.2590   15.2820  -20.9790 C.3    31  G31         0.1812
    378  C4'      -25.3310   16.3390  -21.1100 C.3    31  G31         0.1773
    379  O4'      -26.4900   15.7630  -21.7720 O.3    31  G31        -0.3307
    380  C3'      -25.8780   16.8720  -19.7940 C.3    31  G31         0.1860
    381  O3'      -25.0700   17.9170  -19.2620 O.3    31  G31        -0.3112
    382  C2'      -27.2580   17.3680  -20.2030 C.3    31  G31         0.2309
    383  O2'      -27.2190   18.6180  -20.8610 O.3    31  G31        -0.2156
    384  C1'      -27.6780   16.2820  -21.1950 C.3    31  G31         0.2408
    385   N9      -28.3940   15.1780  -20.5630 N.ar   31  G31        -0.2693
    386   C8      -28.0410   13.8500  -20.5790 C.ar   31  G31         0.1817
    387   N7      -28.8800   13.0890  -19.9310 N.ar   31  G31        -0.2173
    388   C5      -29.8460   13.9660  -19.4550 C.ar   31  G31         0.1748
    389   C6      -31.0130   13.7190  -18.6830 C.ar   31  G31         0.3023
    390   O6      -31.4390   12.6390  -18.2530 O.2    31  G31        -0.2633
    391   N.1     -31.7110   14.8940  -18.4200 N.ar   31  G31        -0.1709
    392   C.2     -31.3390   16.1440  -18.8440 C.ar   31  G31         0.2606
    393   N.2     -32.1470   17.1520  -18.4850 N.pl3  31  G31        -0.0859
    394   N.3     -30.2560   16.3890  -19.5670 N.ar   31  G31        -0.1918
    395   C4      -29.5610   15.2610  -19.8350 C.ar   31  G31         0.1723
    396    P.3    -24.0750   17.5990  -18.0450 P.3    32  U32         0.2141
    397  OP1      -22.6920   17.6160  -18.5840 O.2    32  U32        -0.5172
    398  OP2      -24.5920   16.3720  -17.3930 O.3    32  U32        -0.4373
    399  O5'      -24.2490   18.8110  -17.0230 O.3    32  U32        -0.3114
    400  C5'      -23.8250   18.6840  -15.6630 C.3    32  U32         0.1812
    401  C4'      -24.9650   19.0170  -14.7290 C.3    32  U32         0.1773
    402  O4'      -26.1820   18.4140  -15.2400 O.3    32  U32        -0.3307
    403  C3'      -24.8260   18.5090  -13.2980 C.3    32  U32         0.1860
    404  O3'      -24.1150   19.4510  -12.4900 O.3    32  U32        -0.3112
    405  C2'      -26.2790   18.3440  -12.8600 C.3    32  U32         0.2309
    406  O2'      -26.8510   19.5500  -12.4010 O.3    32  U32        -0.2156
    407  C1'      -26.9580   17.9120  -14.1660 C.3    32  U32         0.2420
    408   N.1     -27.1110   16.4610  -14.3630 N.ar   32  U32        -0.2534
    409   C.2     -27.6930   15.7120  -13.3500 C.ar   32  U32         0.3546
    410   O.2     -28.0920   16.2020  -12.3050 O.2    32  U32        -0.2443
    411   N.3     -27.7880   14.3650  -13.6100 N.ar   32  U32        -0.1530
    412   C4      -27.3740   13.7060  -14.7510 C.ar   32  U32         0.2846
    413   O4      -27.5180   12.4880  -14.8310 O.2    32  U32        -0.2650
    414   C5      -26.7950   14.5460  -15.7500 C.ar   32  U32         0.0814
    415   C6      -26.6860   15.8600  -15.5290 C.ar   32  U32         0.0870
    416    P.3    -24.1170   19.3090  -10.8810 P.3    33  G33         0.2141
    417  OP1      -25.2290   20.1270  -10.3370 O.3    33  G33        -0.4373
    418  OP2      -22.7350   19.5500  -10.3960 O.2    33  G33        -0.5172
    419  O5'      -24.4550   17.7790  -10.6060 O.3    33  G33        -0.3114
    420  C5'      -24.5820   17.2880   -9.2700 C.3    33  G33         0.1811
    421  C4'      -25.9530   16.6860   -9.0660 C.3    33  G33         0.1752
    422  O4'      -26.1820   15.6720  -10.0820 O.3    33  G33        -0.3483
    423  C3'      -26.1890   15.9590   -7.7490 C.3    33  G33         0.1839
    424  O3'      -26.5680   16.8620   -6.7110 O.3    33  G33        -0.3113
    425  C2'      -27.3360   15.0300   -8.1150 C.3    33  G33         0.2112
    426  O2'      -28.5760   15.7060   -8.1440 O.3    33  G33        -0.2177
    427  C1'      -26.9510   14.6150   -9.5360 C.3    33  G33         0.1776
    428    P.3    -26.9850   16.2920   -5.2590 P.3    34  A34         0.2141
    429  OP1      -27.2170   17.4560   -4.3670 O.3    34  A34        -0.4373
    430  OP2      -26.0120   15.2410   -4.8530 O.2    34  A34        -0.5172
    431  O5'      -28.3960   15.5970   -5.5130 O.3    34  A34        -0.3114
    432  C5'      -29.6140   16.2990   -5.2740 C.3    34  A34         0.1812
    433  C4'      -30.7660   15.3250   -5.1910 C.3    34  A34         0.1773
    434  O4'      -31.1010   14.8240   -6.5100 O.3    34  A34        -0.3307
    435  C3'      -30.4730   14.0780   -4.3780 C.3    34  A34         0.1860
    436  O3'      -30.6680   14.3320   -2.9910 O.3    34  A34        -0.3112
    437  C2'      -31.4800   13.0720   -4.9340 C.3    34  A34         0.2309
    438  O2'      -32.7490   13.1800   -4.3200 O.3    34  A34        -0.2156
    439  C1'      -31.5640   13.4840   -6.4090 C.3    34  A34         0.2408
    440   N9      -30.8020   12.6630   -7.3580 N.ar   34  A34        -0.2693
    441   C8      -29.6160   13.0040   -7.9540 C.ar   34  A34         0.1816
    442   N7      -29.1620   12.1060   -8.7960 N.ar   34  A34        -0.2193
    443   C5      -30.1090   11.0940   -8.7450 C.ar   34  A34         0.1518
    444   C6      -30.2040    9.8580   -9.4080 C.ar   34  A34         0.1919
    445   N6      -29.2960    9.4130  -10.2800 N.pl3  34  A34        -0.1054
    446   N.1     -31.2730    9.0830   -9.1390 N.ar   34  A34        -0.2040
    447   C.2     -32.1770    9.5260   -8.2590 C.ar   34  A34         0.2016
    448   N.3     -32.1980   10.6670   -7.5680 N.ar   34  A34        -0.2048
    449   C4      -31.1240   11.4180   -7.8590 C.ar   34  A34         0.1692
    450    P.3    -29.4840   14.0170   -1.9480 P.3    35  A35         0.2141
    451  OP1      -29.8170   14.6960   -0.6680 O.3    35  A35        -0.4373
    452  OP2      -28.1850   14.2970   -2.6140 O.2    35  A35        -0.5172
    453  O5'      -29.5840   12.4450   -1.7270 O.3    35  A35        -0.3114
    454  C5'      -30.8160   11.8300   -1.3590 C.3    35  A35         0.1812
    455  C4'      -30.9560   10.5040   -2.0630 C.3    35  A35         0.1773
    456  O4'      -31.1340   10.7330   -3.4920 O.3    35  A35        -0.3307
    457  C3'      -29.7220    9.6190   -2.0090 C.3    35  A35         0.1860
    458  O3'      -29.5710    8.9290   -0.7720 O.3    35  A35        -0.3112
    459  C2'      -29.9500    8.7050   -3.2060 C.3    35  A35         0.2309
    460  O2'      -30.9180    7.7000   -2.9760 O.3    35  A35        -0.2156
    461  C1'      -30.4720    9.7100   -4.2340 C.3    35  A35         0.2408
    462   N9      -29.3530   10.3080   -4.9690 N.ar   35  A35        -0.2693
    463   C8      -28.7110   11.5020   -4.7250 C.ar   35  A35         0.1816
    464   N7      -27.6960   11.7320   -5.5230 N.ar   35  A35        -0.2193
    465   C5      -27.6710   10.6200   -6.3570 C.ar   35  A35         0.1518
    466   C6      -26.8210   10.2490   -7.4140 C.ar   35  A35         0.1919
    467   N6      -25.7860   10.9810   -7.8300 N.pl3  35  A35        -0.1054
    468   N.1     -27.0730    9.0800   -8.0340 N.ar   35  A35        -0.2040
    469   C.2     -28.1050    8.3380   -7.6130 C.ar   35  A35         0.2016
    470   N.3     -28.9690    8.5740   -6.6330 N.ar   35  A35        -0.2048
    471   C4      -28.6950    9.7440   -6.0360 C.ar   35  A35         0.1692
    472    P.3    -28.0960    8.7420   -0.1450 P.3    36  G36         0.2141
    473  OP1      -28.2530    8.1030    1.1910 O.3    36  G36        -0.4373
    474  OP2      -27.3570   10.0300   -0.2590 O.2    36  G36        -0.5172
    475  O5'      -27.3990    7.6930   -1.1230 O.3    36  G36        -0.3114
    476  C5'      -28.0550    6.4790   -1.4660 C.3    36  G36         0.1812
    477  C4'      -27.4940    5.9230   -2.7510 C.3    36  G36         0.1773
    478  O4'      -27.6160    6.9240   -3.7920 O.3    36  G36        -0.3307
    479  C3'      -26.0090    5.6060   -2.7510 C.3    36  G36         0.1860
    480  O3'      -25.7360    4.3360   -2.1920 O.3    36  G36        -0.3112
    481  C2'      -25.6850    5.6100   -4.2320 C.3    36  G36         0.2309
    482  O2'      -26.0440    4.4030   -4.8710 O.3    36  G36        -0.2156
    483  C1'      -26.5580    6.7650   -4.7210 C.3    36  G36         0.2408
    484   N9      -25.7900    8.0020   -4.7820 N.ar   36  G36        -0.2693
    485   C8      -25.9620    9.1530   -4.0460 C.ar   36  G36         0.1817
    486   N7      -25.0960   10.0840   -4.3480 N.ar   36  G36        -0.2173
    487   C5      -24.3110    9.5100   -5.3410 C.ar   36  G36         0.1748
    488   C6      -23.2190   10.0320   -6.0540 C.ar   36  G36         0.3023
    489   O6      -22.7060   11.1490   -5.9600 O.2    36  G36        -0.2633
    490   N.1     -22.7110    9.1060   -6.9620 N.ar   36  G36        -0.1709
    491   C.2     -23.1950    7.8350   -7.1530 C.ar   36  G36         0.2606
    492   N.2     -22.5670    7.0770   -8.0700 N.pl3  36  G36        -0.0859
    493   N.3     -24.2190    7.3410   -6.4940 N.ar   36  G36        -0.1918
    494   C4      -24.7250    8.2260   -5.6120 C.ar   36  G36         0.1723
    495    P.3    -24.4890    4.1740   -1.2000 P.3    37  G37         0.2141
    496  OP1      -24.7220    3.0050   -0.3100 O.3    37  G37        -0.4373
    497  OP2      -24.2920    5.5210   -0.6020 O.2    37  G37        -0.5172
    498  O5'      -23.2530    3.8640   -2.1600 O.3    37  G37        -0.3114
    499  C5'      -23.1770    2.6470   -2.8800 C.3    37  G37         0.1812
    500  C4'      -22.1280    2.7450   -3.9520 C.3    37  G37         0.1773
    501  O4'      -22.4600    3.8380   -4.8510 O.3    37  G37        -0.3307
    502  C3'      -20.7380    3.1040   -3.4690 C.3    37  G37         0.1860
    503  O3'      -20.0230    1.9700   -3.0060 O.3    37  G37        -0.3112
    504  C2'      -20.1130    3.6480   -4.7400 C.3    37  G37         0.2309
    505  O2'      -19.7800    2.5980   -5.6190 O.3    37  G37        -0.2156
    506  C1'      -21.2690    4.4710   -5.3020 C.3    37  G37         0.2408
    507   N9      -21.2750    5.8510   -4.8200 N.ar   37  G37        -0.2693
    508   C8      -22.2160    6.4290   -3.9900 C.ar   37  G37         0.1817
    509   N7      -21.9670    7.6880   -3.7240 N.ar   37  G37        -0.2173
    510   C5      -20.7960    7.9630   -4.4220 C.ar   37  G37         0.1748
    511   C6      -20.0430    9.1690   -4.5230 C.ar   37  G37         0.3023
    512   O6      -20.2740   10.2750   -4.0100 O.2    37  G37        -0.2633
    513   N.1     -18.9210    8.9990   -5.3210 N.ar   37  G37        -0.1709
    514   C.2     -18.5670    7.8340   -5.9400 C.ar   37  G37         0.2606
    515   N.2     -17.4430    7.8790   -6.6480 N.pl3  37  G37        -0.0859
    516   N.3     -19.2590    6.7090   -5.8670 N.ar   37  G37        -0.1918
    517   C4      -20.3510    6.8400   -5.1000 C.ar   37  G37         0.1723
    518    P.3    -18.8860    2.1600   -1.8910 P.3    38  C38         0.2141
    519  OP1      -18.5080    0.8130   -1.4000 O.2    38  C38        -0.5172
    520  OP2      -19.4170    3.1710   -0.9520 O.3    38  C38        -0.4373
    521  O5'      -17.6370    2.7920   -2.6570 O.3    38  C38        -0.3114
    522  C5'      -16.8480    2.0280   -3.5670 C.3    38  C38         0.1812
    523  C4'      -15.5610    2.7640   -3.8790 C.3    38  C38         0.1773
    524  O4'      -15.8840    4.0000   -4.5830 O.3    38  C38        -0.3307
    525  C3'      -14.7650    3.2170   -2.6560 C.3    38  C38         0.1860
    526  O3'      -13.8800    2.2200   -2.1410 O.3    38  C38        -0.3112
    527  C2'      -14.0040    4.4400   -3.1650 C.3    38  C38         0.2309
    528  O2'      -12.7550    4.1250   -3.7720 O.3    38  C38        -0.2156
    529  C1'      -15.0300    5.0610   -4.1320 C.3    38  C38         0.2420
    530   N.1     -15.8820    6.1050   -3.5050 N.ar   38  C38        -0.2535
    531   C.2     -15.3790    7.4080   -3.3090 C.ar   38  C38         0.3532
    532   O.2     -14.2250    7.6760   -3.6720 O.2    38  C38        -0.2443
    533   N.3     -16.1740    8.3370   -2.7100 N.ar   38  C38        -0.1739
    534   C4      -17.4090    8.0060   -2.3020 C.ar   38  C38         0.1759
    535   N.4     -18.1530    8.9300   -1.6800 N.pl3  38  C38        -0.1070
    536   C5      -17.9390    6.7040   -2.5030 C.ar   38  C38         0.0566
    537   C6      -17.1520    5.7950   -3.1040 C.ar   38  C38         0.0850
    538    P.3    -13.6090    2.1460   -0.5490 P.3    39  U39         0.2141
    539  OP1      -12.8420    0.9040   -0.2690 O.2    39  U39        -0.5172
    540  OP2      -14.8950    2.4040    0.1760 O.3    39  U39        -0.4373
    541  O5'      -12.6330    3.3690   -0.2460 O.3    39  U39        -0.3114
    542  C5'      -11.2570    3.3210   -0.6180 C.3    39  U39         0.1812
    543  C4'      -10.5920    4.6540   -0.3430 C.3    39  U39         0.1773
    544  O4'      -11.2060    5.7080   -1.1400 O.3    39  U39        -0.3307
    545  C3'      -10.7050    5.1890    1.0720 C.3    39  U39         0.1860
    546  O3'       -9.7470    4.5240    1.9020 O.3    39  U39        -0.3112
    547  C2'      -10.3520    6.6550    0.8390 C.3    39  U39         0.2309
    548  O2'       -8.9700    6.8150    0.5740 O.3    39  U39        -0.2156
    549  C1'      -11.1020    6.9440   -0.4620 C.3    39  U39         0.2420
    550   N.1     -12.4560    7.4790   -0.2650 N.ar   39  U39        -0.2534
    551   C.2     -12.6210    8.8620   -0.2280 C.ar   39  U39         0.3546
    552   O.2     -11.7070    9.6560   -0.3840 O.2    39  U39        -0.2443
    553   N.3     -13.9030    9.2900   -0.0060 N.ar   39  U39        -0.1530
    554   C4      -15.0150    8.5130    0.1670 C.ar   39  U39         0.2846
    555   O4      -16.1080    9.0560    0.3620 O.2    39  U39        -0.2650
    556   C5      -14.7680    7.1020    0.0980 C.ar   39  U39         0.0814
    557   C6      -13.5260    6.6480   -0.1100 C.ar   39  U39         0.0870
    558    P.3    -10.1070    4.1700    3.4300 P.3    40  G40         0.2141
    559  OP1       -9.0360    3.2820    3.9700 O.3    40  G40        -0.4373
    560  OP2      -11.5240    3.7260    3.4630 O.2    40  G40        -0.5172
    561  O5'      -10.0010    5.5760    4.1740 O.3    40  G40        -0.3114
    562  C5'       -8.7760    6.3170    4.1970 C.3    40  G40         0.1812
    563  C4'       -9.0430    7.7260    4.6570 C.3    40  G40         0.1773
    564  O4'       -9.8610    8.3880    3.6550 O.3    40  G40        -0.3307
    565  C3'       -9.8350    7.7860    5.9530 C.3    40  G40         0.1860
    566  O3'       -8.9310    7.8020    7.0810 O.3    40  G40        -0.3112
    567  C2'      -10.6410    9.0790    5.7920 C.3    40  G40         0.2309
    568  O2'       -9.9360   10.2330    6.1910 O.3    40  G40        -0.2156
    569  C1'      -10.8960    9.1300    4.2770 C.3    40  G40         0.2408
    570   N9      -12.1710    8.5400    3.8770 N.ar   40  G40        -0.2693
    571   C8      -12.3690    7.2210    3.5690 C.ar   40  G40         0.1817
    572   N7      -13.6180    6.9240    3.3550 N.ar   40  G40        -0.2173
    573   C5      -14.2890    8.1280    3.5030 C.ar   40  G40         0.1748
    574   C6      -15.6740    8.4140    3.4110 C.ar   40  G40         0.3023
    575   O6      -16.6140    7.6270    3.1840 O.2    40  G40        -0.2633
    576   N.1     -15.9330    9.7620    3.6240 N.ar   40  G40        -0.1709
    577   C.2     -14.9890   10.7080    3.8930 C.ar   40  G40         0.2606
    578   N.2     -15.4650   11.9530    4.0620 N.pl3  40  G40        -0.0859
    579   N.3     -13.6830   10.4530    3.9900 N.ar   40  G40        -0.1918
    580   C4      -13.4100    9.1470    3.7910 C.ar   40  G40         0.1723
    581    P.3     -9.0720    6.7010    8.2770 P.3    41  A41         0.2141
    582  OP1       -7.7450    6.5820    8.9790 O.3    41  A41        -0.4373
    583  OP2       -9.7100    5.4780    7.6890 O.2    41  A41        -0.5172
    584  O5'      -10.0950    7.3580    9.3160 O.3    41  A41        -0.3114
    585  C5'      -11.4240    7.7110    8.9230 C.3    41  A41         0.1812
    586  C4'      -12.0450    8.6320    9.9480 C.3    41  A41         0.1773
    587  O4'      -10.9970    9.3100   10.6720 O.3    41  A41        -0.3307
    588  C3'      -12.9340    9.7040    9.3380 C.3    41  A41         0.1860
    589  O3'      -14.2950    9.2790    9.3650 O.3    41  A41        -0.3112
    590  C2'      -12.7070   10.9230   10.2310 C.3    41  A41         0.2309
    591  O2'      -13.5980   10.9800   11.3110 O.3    41  A41        -0.2156
    592  C1'      -11.2950   10.6860   10.7700 C.3    41  A41         0.2408
    593   N9      -10.1920   11.4270   10.1490 N.ar   41  A41        -0.2693
    594   C8       -8.9410   10.9130    9.8830 C.ar   41  A41         0.1816
    595   N7       -8.1010   11.7870    9.4030 N.ar   41  A41        -0.2193
    596   C5       -8.8450   12.9560    9.3250 C.ar   41  A41         0.1518
    597   C6       -8.5080   14.2530    8.9090 C.ar   41  A41         0.1919
    598   N6       -7.2800   14.5760    8.4720 N.pl3  41  A41        -0.1054
    599   N.1      -9.4780   15.2100    8.9610 N.ar   41  A41        -0.2040
    600   C.2     -10.6970   14.8620    9.4100 C.ar   41  A41         0.2016
    601   N.3     -11.1320   13.6690    9.8300 N.ar   41  A41        -0.2048
    602   C4      -10.1440   12.7490    9.7640 C.ar   41  A41         0.1692
    603    P.3    -15.0480    8.8920    7.9950 P.3    42  G42         0.2141
    604  OP1      -16.2290    8.0520    8.3430 O.3    42  G42        -0.4373
    605  OP2      -14.0210    8.3700    7.0540 O.2    42  G42        -0.5172
    606  O5'      -15.6160   10.2800    7.4650 O.3    42  G42        -0.3114
    607  C5'      -16.7710   10.8760    8.0750 C.3    42  G42         0.1812
    608  C4'      -16.7020   12.3810    7.9530 C.3    42  G42         0.1773
    609  O4'      -15.3910   12.7780    8.4160 O.3    42  G42        -0.3307
    610  C3'      -16.7940   12.9390    6.5400 C.3    42  G42         0.1860
    611  O3'      -18.1510   13.2520    6.2380 O.3    42  G42        -0.3112
    612  C2'      -15.9790   14.2220    6.6320 C.3    42  G42         0.2309
    613  O2'      -16.7300   15.2520    7.2380 O.3    42  G42        -0.2156
    614  C1'      -14.8910   13.8230    7.6200 C.3    42  G42         0.2408
    615   N9      -13.6060   13.3950    7.0910 N.ar   42  G42        -0.2693
    616   C8      -13.1380   12.1080    6.9810 C.ar   42  G42         0.1817
    617   N7      -11.8910   12.0490    6.5860 N.ar   42  G42        -0.2173
    618   C5      -11.5300   13.3790    6.3960 C.ar   42  G42         0.1748
    619   C6      -10.2930   13.9590    5.9860 C.ar   42  G42         0.3023
    620   O6       -9.2360   13.4000    5.6820 O.2    42  G42        -0.2633
    621   N.1     -10.3700   15.3400    5.9440 N.ar   42  G42        -0.1709
    622   C.2     -11.4850   16.0800    6.2360 C.ar   42  G42         0.2606
    623   N.2     -11.3560   17.4070    6.1020 N.pl3  42  G42        -0.0859
    624   N.3     -12.6390   15.5630    6.6210 N.ar   42  G42        -0.1918
    625   C4      -12.5900   14.2180    6.6810 C.ar   42  G42         0.1723
    626    P.3    -18.6820   13.1240    4.7260 P.3    43  A43         0.2141
    627  OP1      -20.1290   13.4560    4.7700 O.3    43  A43        -0.4373
    628  OP2      -18.2340   11.8000    4.1880 O.2    43  A43        -0.5172
    629  O5'      -17.8920   14.2590    3.9230 O.3    43  A43        -0.3114
    630  C5'      -18.5600   15.3950    3.3730 C.3    43  A43         0.1812
    631  C4'      -18.2490   15.5080    1.9010 C.3    43  A43         0.1773
    632  O4'      -16.8530   15.2120    1.7170 O.3    43  A43        -0.3307
    633  C3'      -18.9500   14.4980    0.9980 C.3    43  A43         0.1860
    634  O3'      -20.1150   15.0740    0.4030 O.3    43  A43        -0.3112
    635  C2'      -17.9690   14.2700   -0.1540 C.3    43  A43         0.2309
    636  O2'      -18.3580   14.9160   -1.3390 O.3    43  A43        -0.2156
    637  C1'      -16.6670   14.8780    0.3730 C.3    43  A43         0.2408
    638   N9      -15.4850   14.0450    0.2070 N.ar   43  A43        -0.2693
    639   C8      -15.4000   12.6830    0.2770 C.ar   43  A43         0.1816
    640   N7      -14.2160   12.2110   -0.0420 N.ar   43  A43        -0.2193
    641   C5      -13.4630   13.3440   -0.3080 C.ar   43  A43         0.1518
    642   C6      -12.1280   13.5150   -0.6890 C.ar   43  A43         0.1919
    643   N6      -11.2860   12.5000   -0.8870 N.pl3  43  A43        -0.1054
    644   N.1     -11.6800   14.7740   -0.8610 N.ar   43  A43        -0.2040
    645   C.2     -12.5300   15.7890   -0.6640 C.ar   43  A43         0.2016
    646   N.3     -13.8130   15.7560   -0.3070 N.ar   43  A43        -0.2048
    647   C4      -14.2240   14.4850   -0.1400 C.ar   43  A43         0.1692
    648    P.3    -21.4490   15.3180    1.2720 P.3    44  A44         0.2141
    649  OP1      -21.7260   14.1130    2.0930 O.3    44  A44        -0.4373
    650  OP2      -22.4890   15.8270    0.3420 O.2    44  A44        -0.5172
    651  O5'      -21.0680   16.5060    2.2590 O.3    44  A44        -0.3114
    652  C5'      -20.7280   17.7930    1.7570 C.3    44  A44         0.1811
    653  C4'      -20.9600   18.8380    2.8200 C.3    44  A44         0.1752
    654  O4'      -20.5710   20.1390    2.3070 O.3    44  A44        -0.3483
    655  C3'      -22.4120   18.9870    3.2540 C.3    44  A44         0.1839
    656  O3'      -22.6940   18.0930    4.3360 O.3    44  A44        -0.3113
    657  C2'      -22.4720   20.4410    3.7110 C.3    44  A44         0.2112
    658  O2'      -22.0300   20.6120    5.0410 O.3    44  A44        -0.2177
    659  C1'      -21.4930   21.1190    2.7470 C.3    44  A44         0.1776
    660    P.3    -24.1970   17.5450    4.5690 P.3    45  A45         0.2141
    661  OP1      -24.2750   16.2240    3.8850 O.2    45  A45        -0.5172
    662  OP2      -25.1560   18.6220    4.1960 O.3    45  A45        -0.4373
    663  O5'      -24.2970   17.3090    6.1500 O.3    45  A45        -0.3114
    664  C5'      -25.0550   16.2180    6.6950 C.3    45  A45         0.1812
    665  C4'      -24.2660   15.5140    7.7870 C.3    45  A45         0.1774
    666  O4'      -22.8490   15.6650    7.4750 O.3    45  A45        -0.3307
    667  C3'      -24.4140   16.0360    9.2170 C.3    45  A45         0.1876
    668  O3'      -25.5160   15.4160    9.9080 O.3    45  A45        -0.2924
    669  C2'      -23.0570   15.6780    9.8230 C.3    45  A45         0.2309
    670  O2'      -22.9500   14.3140   10.1810 O.3    45  A45        -0.2156
    671  C1'      -22.1190   15.9730    8.6480 C.3    45  A45         0.2408
    672   N9      -21.7150   17.3790    8.5510 N.ar   45  A45        -0.2693
    673   C8      -22.2280   18.4510    9.2430 C.ar   45  A45         0.1816
    674   N7      -21.6880   19.6010    8.9160 N.ar   45  A45        -0.2193
    675   C5      -20.7520   19.2650    7.9510 C.ar   45  A45         0.1518
    676   C6      -19.8610   20.0380    7.2130 C.ar   45  A45         0.1919
    677   N6      -19.7670   21.3580    7.3360 N.pl3  45  A45        -0.1054
    678   N.1     -19.0580   19.4060    6.3310 N.ar   45  A45        -0.2040
    679   C.2     -19.1610   18.0770    6.2120 C.ar   45  A45         0.2016
    680   N.3     -19.9660   17.2350    6.8540 N.ar   45  A45        -0.2048
    681   C4      -20.7480   17.9000    7.7210 C.ar   45  A45         0.1692
    682    P.3    -25.8730   15.8500   11.4310 Pac    46  U46         0.3943
    683  OP1      -25.3470   14.8160   12.3560 O.3    46  U46        -0.1425
    684  OP2      -27.2930   16.2850   11.5470 O.3    46  U46        -0.1425
    685    P.3    -24.2760   17.5900   16.6060 Pac    47  A47         0.3942
    686  OP1      -25.2910   16.5190   16.4380 O.3    47  A47        -0.1425
    687  OP2      -23.4580   17.6350   17.8510 O.3    47  A47        -0.1425
    688  O5'      -23.3370   17.6210   15.3070 O.3    47  A47        -0.2926
    689  C5'      -21.9380   17.3030   15.3830 C.3    47  A47         0.1829
    690  C4'      -21.5020   16.4920   14.1730 C.3    47  A47         0.1774
    691  O4'      -21.7280   17.2550   12.9510 O.3    47  A47        -0.3307
    692  C3'      -20.0150   16.1660   14.1460 C.3    47  A47         0.1860
    693  O3'      -19.6940   15.0160   14.9240 O.3    47  A47        -0.3112
    694  C2'      -19.7290   15.9680   12.6590 C.3    47  A47         0.2309
    695  O2'      -19.9000   14.6550   12.1660 O.3    47  A47        -0.2156
    696  C1'      -20.6970   16.9680   12.0150 C.3    47  A47         0.2408
    697   N9      -20.0170   18.2150   11.6580 N.ar   47  A47        -0.2693
    698   C8      -20.1970   19.4820   12.1570 C.ar   47  A47         0.1816
    699   N7      -19.4010   20.3770   11.6210 N.ar   47  A47        -0.2193
    700   C5      -18.6520   19.6510   10.7030 C.ar   47  A47         0.1518
    701   C6      -17.6310   20.0160    9.8010 C.ar   47  A47         0.1919
    702   N6      -17.1740   21.2620    9.6580 N.pl3  47  A47        -0.1054
    703   N.1     -17.0910   19.0420    9.0360 N.ar   47  A47        -0.2040
    704   C.2     -17.5510   17.7960    9.1680 C.ar   47  A47         0.2016
    705   N.3     -18.5040   17.3330    9.9700 N.ar   47  A47        -0.2048
    706   C4      -19.0200   18.3200   10.7190 C.ar   47  A47         0.1692
    707    P.3    -18.4800   15.0860   15.9860 P.3    48  C48         0.2141
    708  OP1      -18.5940   13.9600   16.9410 O.3    48  C48        -0.4373
    709  OP2      -18.5010   16.4760   16.5070 O.2    48  C48        -0.5172
    710  O5'      -17.1720   14.8250   15.0990 O.3    48  C48        -0.3114
    711  C5'      -17.0160   13.6030   14.3680 C.3    48  C48         0.1812
    712  C4'      -15.9900   13.7530   13.2470 C.3    48  C48         0.1773
    713  O4'      -16.4580   14.6510   12.1920 O.3    48  C48        -0.3307
    714  C3'      -14.6460   14.3290   13.6370 C.3    48  C48         0.1860
    715  O3'      -13.8130   13.3160   14.1460 O.3    48  C48        -0.3112
    716  C2'      -14.1170   14.7740   12.2930 C.3    48  C48         0.2309
    717  O2'      -13.8040   13.6120   11.5620 O.3    48  C48        -0.2156
    718  C1'      -15.3630   15.4070   11.6820 C.3    48  C48         0.2420
    719   N.1     -15.5640   16.8270   12.0470 N.ar   48  C48        -0.2535
    720   C.2     -14.8630   17.8220   11.3680 C.ar   48  C48         0.3532
    721   O.2     -14.0560   17.5020   10.5000 O.2    48  C48        -0.2443
    722   N.3     -15.0870   19.1150   11.6760 N.ar   48  C48        -0.1739
    723   C4      -15.9700   19.4310   12.6230 C.ar   48  C48         0.1759
    724   N.4     -16.1800   20.7180   12.8830 N.pl3  48  C48        -0.1070
    725   C5      -16.6820   18.4430   13.3430 C.ar   48  C48         0.0566
    726   C6      -16.4470   17.1660   13.0320 C.ar   48  C48         0.0850
    727    P.3    -12.9340   13.6180   15.4430 P.3    49  C49         0.2141
    728  OP1      -12.3960   12.3350   15.9600 O.2    49  C49        -0.5172
    729  OP2      -13.7460   14.4990   16.3290 O.3    49  C49        -0.4373
    730  O5'      -11.7080   14.4740   14.9090 O.3    49  C49        -0.3114
    731  C5'      -10.7690   13.9150   14.0200 C.3    49  C49         0.1812
    732  C4'       -9.9850   15.0100   13.3440 C.3    49  C49         0.1773
    733  O4'      -10.8980   15.9120   12.6670 O.3    49  C49        -0.3307
    734  C3'       -9.2290   15.9600   14.2410 C.3    49  C49         0.1860
    735  O3'       -8.0060   15.3940   14.6590 O.3    49  C49        -0.3112
    736  C2'       -8.9620   17.1030   13.2810 C.3    49  C49         0.2309
    737  O2'       -7.9800   16.7560   12.3360 O.3    49  C49        -0.2156
    738  C1'      -10.2930   17.1850   12.5500 C.3    49  C49         0.2420
    739   N.1     -11.1860   18.2040   13.1130 N.ar   49  C49        -0.2535
    740   C.2     -10.9480   19.5310   12.7850 C.ar   49  C49         0.3532
    741   O.2      -9.9840   19.7870   12.0390 O.2    49  C49        -0.2443
    742   N.3     -11.7690   20.4940   13.2810 N.ar   49  C49        -0.1739
    743   C4      -12.7940   20.1520   14.0710 C.ar   49  C49         0.1759
    744   N.4     -13.5840   21.1130   14.5330 N.pl3  49  C49        -0.1070
    745   C5      -13.0500   18.8060   14.4210 C.ar   49  C49         0.0566
    746   C6      -12.2290   17.8710   13.9280 C.ar   49  C49         0.0850
    747    P.3     -7.3110   15.9260   16.0020 P.3    50  C50         0.2141
    748  OP1       -6.0550   15.1440   16.2030 O.2    50  C50        -0.5172
    749  OP2       -8.3670   15.9310   17.0560 O.3    50  C50        -0.4373
    750  O5'       -6.9240   17.4380   15.6620 O.3    50  C50        -0.3114
    751  C5'       -5.7750   17.7510   14.8840 C.3    50  C50         0.1812
    752  C4'       -5.6680   19.2430   14.6850 C.3    50  C50         0.1773
    753  O4'       -6.8980   19.7200   14.1060 O.3    50  C50        -0.3307
    754  C3'       -5.4950   20.0870   15.9300 C.3    50  C50         0.1860
    755  O3'       -4.1100   20.2060   16.1680 O.3    50  C50        -0.3112
    756  C2'       -6.0200   21.4380   15.4770 C.3    50  C50         0.2309
    757  O2'       -5.0520   22.1370   14.7180 O.3    50  C50        -0.2156
    758  C1'       -7.1690   21.0330   14.5590 C.3    50  C50         0.2420
    759   N.1      -8.4850   21.0300   15.2100 N.ar   50  C50        -0.2535
    760   C.2      -9.1780   22.2190   15.3100 C.ar   50  C50         0.3532
    761   O.2      -8.6610   23.2360   14.8450 O.2    50  C50        -0.2443
    762   N.3     -10.3910   22.2320   15.9050 N.ar   50  C50        -0.1739
    763   C4      -10.9060   21.1000   16.3840 C.ar   50  C50         0.1759
    764   N.4     -12.1050   21.1390   16.9600 N.pl3  50  C50        -0.1070
    765   C5      -10.2160   19.8700   16.2920 C.ar   50  C50         0.0566
    766   C6       -9.0190   19.8770   15.7050 C.ar   50  C50         0.0850
    767    P.3     -3.5690   20.4920   17.6490 P.3    51  G51         0.2141
    768  OP1       -2.1060   20.2180   17.5200 O.2    51  G51        -0.5172
    769  OP2       -4.3750   19.7620   18.6680 O.3    51  G51        -0.4373
    770  O5'       -3.7750   22.0610   17.8410 O.3    51  G51        -0.3114
    771  C5'       -2.8510   22.9700   17.2700 C.3    51  G51         0.1812
    772  C4'       -3.2730   24.3860   17.5280 C.3    51  G51         0.1773
    773  O4'       -4.5430   24.6490   16.8950 O.3    51  G51        -0.3307
    774  C3'       -3.5060   24.7730   18.9670 C.3    51  G51         0.1860
    775  O3'       -2.2610   25.1120   19.5430 O.3    51  G51        -0.3112
    776  C2'       -4.3500   26.0270   18.7930 C.3    51  G51         0.2309
    777  O2'       -3.5680   27.1320   18.3870 O.3    51  G51        -0.2156
    778  C1'       -5.2510   25.6170   17.6340 C.3    51  G51         0.2408
    779   N9       -6.4810   25.0060   18.1050 N.ar   51  G51        -0.2693
    780   C8       -6.7510   23.6640   18.2390 C.ar   51  G51         0.1817
    781   N7       -7.9460   23.4270   18.7100 N.ar   51  G51        -0.2173
    782   C5       -8.4920   24.6880   18.8910 C.ar   51  G51         0.1748
    783   C6       -9.7510   25.0680   19.3700 C.ar   51  G51         0.3023
    784   O6      -10.6740   24.3450   19.7530 O.2    51  G51        -0.2633
    785   N.1      -9.8970   26.4480   19.3850 N.ar   51  G51        -0.1709
    786   C.2      -8.9420   27.3450   18.9950 C.ar   51  G51         0.2606
    787   N.2      -9.2700   28.6350   19.0880 N.pl3  51  G51        -0.0859
    788   N.3      -7.7530   27.0040   18.5460 N.ar   51  G51        -0.1918
    789   C4       -7.5990   25.6690   18.5180 C.ar   51  G51         0.1723
    790    P.3     -1.7460   24.3380   20.8450 P.3    52  U52         0.2141
    791  OP1       -1.9330   22.8850   20.6150 O.2    52  U52        -0.5172
    792  OP2       -2.3400   24.9770   22.0510 O.3    52  U52        -0.4373
    793  O5'       -0.1890   24.6500   20.8070 O.3    52  U52        -0.3114
    794  C5'        0.6560   24.0680   19.8210 C.3    52  U52         0.1812
    795  C4'        1.7130   25.0610   19.3920 C.3    52  U52         0.1773
    796  O4'        1.2570   25.8600   18.2860 O.3    52  U52        -0.3307
    797  C3'        2.1730   26.0650   20.4450 C.3    52  U52         0.1860
    798  O3'        3.1720   25.4930   21.3010 O.3    52  U52        -0.3112
    799  C2'        2.6530   27.2790   19.6440 C.3    52  U52         0.2309
    800  O2'        4.0530   27.3580   19.4860 O.3    52  U52        -0.2156
    801  C1'        1.9530   27.0940   18.2900 C.3    52  U52         0.2420
    802   N.1       1.0330   28.1630   17.8800 N.ar   52  U52        -0.2534
    803   C.2       1.5850   29.2900   17.3210 C.ar   52  U52         0.3546
    804   O.2       2.7790   29.4350   17.1880 O.2    52  U52        -0.2443
    805   N.3       0.6840   30.2430   16.9200 N.ar   52  U52        -0.1530
    806   C4       -0.6910   30.1840   17.0240 C.ar   52  U52         0.2846
    807   O4       -1.3750   31.1310   16.6180 O.2    52  U52        -0.2650
    808   C5       -1.1870   28.9850   17.6250 C.ar   52  U52         0.0814
    809   C6       -0.3270   28.0400   18.0270 C.ar   52  U52         0.0870
    810    P.3      4.5010   24.8280   20.6640 P.3    53  A53         0.2141
    811  OP1        4.9270   23.7760   21.6280 O.3    53  A53        -0.4373
    812  OP2        5.4690   25.8830   20.2460 O.2    53  A53        -0.5172
    813  O5'        3.9800   24.0540   19.3680 O.3    53  A53        -0.3114
    814  C5'        4.7630   23.9940   18.1790 C.3    53  A53         0.1812
    815  C4'        4.0930   23.1100   17.1510 C.3    53  A53         0.1773
    816  O4'        2.7250   23.5370   16.9380 O.3    53  A53        -0.3307
    817  C3'        4.7400   23.1210   15.7730 C.3    53  A53         0.1860
    818  O3'        5.7520   22.1130   15.7700 O.3    53  A53        -0.3112
    819  C2'        3.5810   22.7600   14.8370 C.3    53  A53         0.2309
    820  O2'        3.4140   21.3690   14.6640 O.3    53  A53        -0.2156
    821  C1'        2.3620   23.2980   15.5920 C.3    53  A53         0.2408
    822   N9        1.7610   24.5160   15.0650 N.ar   53  A53        -0.2693
    823   C8        0.4570   24.7120   14.6900 C.ar   53  A53         0.1816
    824   N7        0.1960   25.9330   14.2930 N.ar   53  A53        -0.2193
    825   C5        1.4180   26.5840   14.4070 C.ar   53  A53         0.1518
    826   C6        1.8160   27.9120   14.1460 C.ar   53  A53         0.1919
    827   N6        0.9940   28.8610   13.6980 N.pl3  53  A53        -0.1054
    828   N.1       3.1070   28.2320   14.3640 N.ar   53  A53        -0.2040
    829   C.2       3.9370   27.2760   14.8140 C.ar   53  A53         0.2016
    830   N.3       3.6820   25.9970   15.0970 N.ar   53  A53        -0.2048
    831   C4        2.3920   25.7150   14.8690 C.ar   53  A53         0.1692
    832    P.3      7.0220   22.2240   14.7810 P.3    54  U54         0.2141
    833  OP1        7.9930   23.1770   15.3860 O.3    54  U54        -0.4373
    834  OP2        6.5650   22.4280   13.3780 O.2    54  U54        -0.5172
    835  O5'        7.6560   20.7680   14.8700 O.3    54  U54        -0.3114
    836  C5'        6.8680   19.6590   15.3010 C.3    54  U54         0.1812
    837  C4'        6.4270   18.8450   14.1090 C.3    54  U54         0.1773
    838  O4'        7.5630   18.6370   13.2370 O.3    54  U54        -0.3307
    839  C3'        5.8670   17.4640   14.4180 C.3    54  U54         0.1860
    840  O3'        4.4610   17.6090   14.6700 O.3    54  U54        -0.3112
    841  C2'        6.2360   16.6630   13.1660 C.3    54  U54         0.2309
    842  O2'        5.3270   16.8090   12.0970 O.3    54  U54        -0.2156
    843  C1'        7.5630   17.3110   12.7560 C.3    54  U54         0.2420
    844   N.1       8.7870   16.6650   13.2500 N.ar   54  U54        -0.2534
    845   C.2       9.3980   15.7390   12.4300 C.ar   54  U54         0.3546
    846   O.2       8.9540   15.4290   11.3340 O.2    54  U54        -0.2443
    847   N.3      10.5510   15.1900   12.9360 N.ar   54  U54        -0.1530
    848   C4       11.1400   15.4660   14.1550 C.ar   54  U54         0.2846
    849   O4       12.1840   14.8850   14.4700 O.2    54  U54        -0.2650
    850   C5       10.4410   16.4330   14.9490 C.ar   54  U54         0.0814
    851   C6        9.3170   16.9840   14.4810 C.ar   54  U54         0.0870
    852    P.3      3.5040   16.3130   14.8220 P.3    55  C55         0.2141
    853  OP1        2.8110   16.4280   16.1420 O.3    55  C55        -0.4373
    854  OP2        4.2750   15.0740   14.5000 O.2    55  C55        -0.5172
    855  O5'        2.4240   16.5580   13.6680 O.3    55  C55        -0.3114
    856  C5'        2.3850   17.8160   12.9860 C.3    55  C55         0.1812
    857  C4'        2.2060   17.6190   11.4970 C.3    55  C55         0.1773
    858  O4'        3.2260   16.7150   10.9850 O.3    55  C55        -0.3307
    859  C3'        0.9180   16.9400   11.0850 C.3    55  C55         0.1860
    860  O3'       -0.1750   17.8370   11.0980 O.3    55  C55        -0.3112
    861  C2'        1.2580   16.4350    9.6880 C.3    55  C55         0.2309
    862  O2'        1.1900   17.4230    8.6810 O.3    55  C55        -0.2156
    863  C1'        2.7020   15.9680    9.8900 C.3    55  C55         0.2420
    864   N.1       2.7290   14.5300   10.2240 N.ar   55  C55        -0.2535
    865   C.2       3.2440   13.6220    9.2810 C.ar   55  C55         0.3532
    866   O.2       3.7180   14.0590    8.2180 O.2    55  C55        -0.2443
    867   N.3       3.2120   12.2960    9.5550 N.ar   55  C55        -0.1739
    868   C4        2.7050   11.8670   10.7150 C.ar   55  C55         0.1759
    869   N.4       2.6890   10.5500   10.9440 N.pl3  55  C55        -0.1070
    870   C5        2.1940   12.7680   11.6960 C.ar   55  C55         0.0566
    871   C6        2.2300   14.0760   11.4160 C.ar   55  C55         0.0850
    872    P.3     -1.5480   17.3770   11.7900 P.3    56  A56         0.2141
    873  OP1       -1.4210   17.6190   13.2530 O.3    56  A56        -0.4373
    874  OP2       -1.8950   16.0120   11.2880 O.2    56  A56        -0.5172
    875  O5'       -2.6210   18.3900   11.2140 O.3    56  A56        -0.3114
    876  C5'       -3.3350   18.0770   10.0390 C.3    56  A56         0.1812
    877  C4'       -4.7930   18.2810   10.2790 C.3    56  A56         0.1773
    878  O4'       -4.9570   19.2750   11.3230 O.3    56  A56        -0.3307
    879  C3'       -5.5070   18.8280    9.0670 C.3    56  A56         0.1860
    880  O3'       -5.8940   17.7690    8.2040 O.3    56  A56        -0.3112
    881  C2'       -6.6250   19.6510    9.7010 C.3    56  A56         0.2309
    882  O2'       -7.7420   18.9040   10.1530 O.3    56  A56        -0.2156
    883  C1'       -5.8920   20.2500   10.9090 C.3    56  A56         0.2408
    884   N9       -5.1360   21.4790   10.6290 N.ar   56  A56        -0.2693
    885   C8       -3.7900   21.5870   10.3550 C.ar   56  A56         0.1816
    886   N7       -3.3840   22.8140   10.1570 N.ar   56  A56        -0.2193
    887   C5       -4.5290   23.5670   10.3110 C.ar   56  A56         0.1518
    888   C6       -4.7520   24.9350   10.2450 C.ar   56  A56         0.1919
    889   N6       -3.7950   25.8230    9.9850 N.pl3  56  A56        -0.1054
    890   N.1      -6.0120   25.3790   10.4600 N.ar   56  A56        -0.2040
    891   C.2      -6.9730   24.4810   10.7230 C.ar   56  A56         0.2016
    892   N.3      -6.8830   23.1600   10.8150 N.ar   56  A56        -0.2048
    893   C4       -5.6190   22.7620   10.5970 C.ar   56  A56         0.1692
    894    P.3     -5.1230   17.5640    6.7990 P.3    57  C57         0.2141
    895  OP1       -5.9470   16.7100    5.9040 O.2    57  C57        -0.5172
    896  OP2       -3.6840   17.2170    7.0400 O.3    57  C57        -0.4373
    897  O5'       -5.2020   19.0180    6.1680 O.3    57  C57        -0.3114
    898  C5'       -6.4630   19.6460    5.9710 C.3    57  C57         0.1812
    899  C4'       -6.2880   21.1390    5.8410 C.3    57  C57         0.1773
    900  O4'       -5.6290   21.6410    7.0270 O.3    57  C57        -0.3307
    901  C3'       -5.4180   21.6580    4.7100 C.3    57  C57         0.1860
    902  O3'       -6.1780   21.7140    3.5070 O.3    57  C57        -0.3112
    903  C2'       -5.1080   23.0560    5.2170 C.3    57  C57         0.2309
    904  O2'       -6.2590   23.8740    5.1350 O.3    57  C57        -0.2156
    905  C1'       -4.8670   22.7860    6.6990 C.3    57  C57         0.2420
    906   N.1      -3.4660   22.5140    7.0390 N.ar   57  C57        -0.2535
    907   C.2      -2.5750   23.5750    7.1240 C.ar   57  C57         0.3532
    908   O.2      -2.9830   24.7120    6.9050 O.2    57  C57        -0.2443
    909   N.3      -1.2910   23.3340    7.4470 N.ar   57  C57        -0.1739
    910   C4       -0.8870   22.0870    7.6890 C.ar   57  C57         0.1759
    911   N.4       0.3960   21.8920    8.0150 N.pl3  57  C57        -0.1070
    912   C5       -1.7750   20.9870    7.6090 C.ar   57  C57         0.0566
    913   C6       -3.0430   21.2410    7.2780 C.ar   57  C57         0.0850
    914    P.3     -5.4380   21.6110    2.0820 P.3    58  C58         0.2141
    915  OP1       -6.5280   21.4620    1.0840 O.2    58  C58        -0.5172
    916  OP2       -4.3460   20.6100    2.1340 O.3    58  C58        -0.4373
    917  O5'       -4.8070   23.0590    1.8690 O.3    58  C58        -0.3114
    918  C5'       -5.6620   24.1820    1.6360 C.3    58  C58         0.1812
    919  C4'       -4.8550   25.4430    1.4720 C.3    58  C58         0.1773
    920  O4'       -4.2140   25.7760    2.7290 O.3    58  C58        -0.3307
    921  C3'       -3.7070   25.3560    0.4820 C.3    58  C58         0.1860
    922  O3'       -4.1520   25.5710   -0.8490 O.3    58  C58        -0.3112
    923  C2'       -2.8050   26.4760    0.9700 C.3    58  C58         0.2309
    924  O2'       -3.3090   27.7510    0.6190 O.3    58  C58        -0.2156
    925  C1'       -2.9180   26.2850    2.4790 C.3    58  C58         0.2420
    926   N.1      -1.9480   25.3080    2.9750 N.ar   58  C58        -0.2535
    927   C.2      -0.6200   25.6770    3.0330 C.ar   58  C58         0.3532
    928   O.2      -0.3110   26.8040    2.6480 O.2    58  C58        -0.2443
    929   N.3       0.3010   24.8050    3.4980 N.ar   58  C58        -0.1739
    930   C4       -0.0770   23.5910    3.8880 C.ar   58  C58         0.1759
    931   N.4       0.8630   22.7600    4.3330 N.pl3  58  C58        -0.1070
    932   C5       -1.4410   23.1780    3.8370 C.ar   58  C58         0.0566
    933   C6       -2.3370   24.0630    3.3750 C.ar   58  C58         0.0850
    934    P.3     -3.3200   24.9430   -2.0660 P.3    59  U59         0.2141
    935  OP1       -3.9800   25.4650   -3.2880 O.2    59  U59        -0.5172
    936  OP2       -3.1830   23.4750   -1.8730 O.3    59  U59        -0.4373
    937  O5'       -1.8680   25.5880   -1.9120 O.3    59  U59        -0.3114
    938  C5'       -1.6680   26.9970   -2.0370 C.3    59  U59         0.1812
    939  C4'       -0.1920   27.3260   -1.9690 C.3    59  U59         0.1773
    940  O4'        0.3180   27.1020   -0.6280 O.3    59  U59        -0.3307
    941  C3'        0.6910   26.4650   -2.8500 C.3    59  U59         0.1860
    942  O3'        0.7090   26.9530   -4.1750 O.3    59  U59        -0.3112
    943  C2'        2.0450   26.5820   -2.1690 C.3    59  U59         0.2309
    944  O2'        2.7460   27.7650   -2.4940 O.3    59  U59        -0.2156
    945  C1'        1.6320   26.5720   -0.6980 C.3    59  U59         0.2420
    946   N.1       1.5730   25.2030   -0.1820 N.ar   59  U59        -0.2534
    947   C.2       2.7410   24.6200    0.2560 C.ar   59  U59         0.3546
    948   O.2       3.8140   25.1950    0.2370 O.2    59  U59        -0.2443
    949   N.3       2.6030   23.3350    0.7190 N.ar   59  U59        -0.1530
    950   C4        1.4370   22.5970    0.7850 C.ar   59  U59         0.2846
    951   O4        1.4690   21.4460    1.2190 O.2    59  U59        -0.2650
    952   C5        0.2770   23.2750    0.3120 C.ar   59  U59         0.0814
    953   C6        0.3820   24.5240   -0.1430 C.ar   59  U59         0.0870
    954    P.3      0.5600   25.9220   -5.3870 P.3    60  G60         0.2141
    955  OP1        0.2250   26.7440   -6.5770 O.2    60  G60        -0.5172
    956  OP2       -0.3590   24.8310   -4.9620 O.3    60  G60        -0.4373
    957  O5'        2.0200   25.3080   -5.5380 O.3    60  G60        -0.3114
    958  C5'        3.1310   26.1500   -5.7800 C.3    60  G60         0.1812
    959  C4'        4.3940   25.4280   -5.4210 C.3    60  G60         0.1773
    960  O4'        4.3250   25.0700   -4.0200 O.3    60  G60        -0.3307
    961  C3'        4.5870   24.1020   -6.1370 C.3    60  G60         0.1860
    962  O3'        5.2300   24.2900   -7.3940 O.3    60  G60        -0.3112
    963  C2'        5.4890   23.3380   -5.1740 C.3    60  G60         0.2309
    964  O2'        6.8640   23.6370   -5.3370 O.3    60  G60        -0.2156
    965  C1'        4.9670   23.8210   -3.8150 C.3    60  G60         0.2408
    966   N9        3.9990   22.8990   -3.2260 N.ar   60  G60        -0.2693
    967   C8        2.6890   22.7190   -3.6050 C.ar   60  G60         0.1817
    968   N7        2.0770   21.7960   -2.9140 N.ar   60  G60        -0.2173
    969   C5        3.0360   21.3460   -2.0170 C.ar   60  G60         0.1748
    970   C6        2.9540   20.3520   -1.0120 C.ar   60  G60         0.3023
    971   O6        1.9830   19.6520   -0.6980 O.2    60  G60        -0.2633
    972   N.1       4.1610   20.2100   -0.3350 N.ar   60  G60        -0.1709
    973   C.2       5.2990   20.9340   -0.5860 C.ar   60  G60         0.2606
    974   N.2       6.3590   20.6440    0.1810 N.pl3  60  G60        -0.0859
    975   N.3       5.3880   21.8690   -1.5180 N.ar   60  G60        -0.1918
    976   C4        4.2270   22.0200   -2.1920 C.ar   60  G60         0.1723
    977    P.3      4.5840   23.6580   -8.7210 P.3    61  A61         0.2141
    978  OP1        5.6990   23.1100   -9.5430 O.2    61  A61        -0.5172
    979  OP2        3.6730   24.6860   -9.2960 O.3    61  A61        -0.4373
    980  O5'        3.7150   22.4400   -8.1670 O.3    61  A61        -0.3114
    981  C5'        3.0390   21.5430   -9.0490 C.3    61  A61         0.1811
    982  C4'        1.8850   20.8800   -8.3280 C.3    61  A61         0.1752
    983  O4'        2.3970   20.1630   -7.1710 O.3    61  A61        -0.3483
    984  C3'        0.8620   21.8510   -7.7590 C.3    61  A61         0.1839
    985  O3'       -0.1320   22.1610   -8.7310 O.3    61  A61        -0.3113
    986  C2'        0.2690   21.0600   -6.5990 C.3    61  A61         0.2112
    987  O2'       -0.7220   20.1460   -7.0170 O.3    61  A61        -0.2177
    988  C1'        1.4980   20.3060   -6.0830 C.3    61  A61         0.1776
    989    P.3      0.1210   23.3490   -9.7820 P.3    62  U62         0.2141
    990  OP1        1.0630   24.3130   -9.1570 O.3    62  U62        -0.4373
    991  OP2       -1.1980   23.8300  -10.2760 O.2    62  U62        -0.5172
    992  O5'        0.8840   22.6280  -10.9850 O.3    62  U62        -0.3114
    993  C5'        0.2240   21.6500  -11.7930 C.3    62  U62         0.1811
    994  C4'        0.8400   21.6050  -13.1740 C.3    62  U62         0.1752
    995  O4'        0.7560   22.9290  -13.7640 O.3    62  U62        -0.3483
    996  C3'        2.3210   21.2510  -13.2200 C.3    62  U62         0.1839
    997  O3'        2.4880   19.8400  -13.3200 O.3    62  U62        -0.3113
    998  C2'        2.7740   21.9190  -14.5140 C.3    62  U62         0.2112
    999  O2'        2.4870   21.1490  -15.6660 O.3    62  U62        -0.2177
   1000  C1'        1.9280   23.1940  -14.5150 C.3    62  U62         0.1776
   1001    P.3      2.8560   18.9800  -12.0130 P.3    63  C63         0.2141
   1002  OP1        2.7770   17.5490  -12.4150 O.2    63  C63        -0.5172
   1003  OP2        2.0140   19.4780  -10.8910 O.3    63  C63        -0.4373
   1004  O5'        4.3830   19.3280  -11.7050 O.3    63  C63        -0.3114
   1005  C5'        4.9170   19.1780  -10.3840 C.3    63  C63         0.1811
   1006  C4'        6.3290   18.6300  -10.4330 C.3    63  C63         0.1753
   1007  O4'        6.8640   18.5870   -9.0800 O.3    63  C63        -0.3483
   1008  C3'        6.4630   17.1980  -10.9330 C.3    63  C63         0.1856
   1009  O3'        6.5130   17.1340  -12.3570 O.3    63  C63        -0.2925
   1010  C2'        7.7710   16.7510  -10.2900 C.3    63  C63         0.2112
   1011  O2'        8.9130   17.1860  -10.9970 O.3    63  C63        -0.2177
   1012  C1'        7.7000   17.4520   -8.9300 C.3    63  C63         0.1776
   1013    P.3      5.4510   16.2190  -13.1490 Pac    64  U64         0.3943
   1014  OP1        6.1660   15.0540  -13.7270 O.3    64  U64        -0.1425
   1015  OP2        4.6190   17.0800  -14.0240 O.3    64  U64        -0.1425
   1016  O5'        5.7480    6.5400  -14.4120 O.3    65  G65        -0.2176
   1017  C5'        5.1210    5.3490  -13.9500 C.3    65  G65         0.2141
   1018  C4'        6.0880    4.5500  -13.1110 C.3    65  G65         0.1802
   1019  O4'        6.6240    5.4060  -12.0750 O.3    65  G65        -0.3306
   1020  C3'        5.5000    3.3550  -12.3700 C.3    65  G65         0.1861
   1021  O3'        5.5170    2.1920  -13.1990 O.3    65  G65        -0.3112
   1022  C2'        6.4410    3.1940  -11.1760 C.3    65  G65         0.2309
   1023  O2'        7.5640    2.3790  -11.4370 O.3    65  G65        -0.2156
   1024  C1'        6.8870    4.6370  -10.9160 C.3    65  G65         0.2408
   1025   N9        6.2310    5.2740   -9.7780 N.ar   65  G65        -0.2693
   1026   C8        5.4710    6.4200   -9.7860 C.ar   65  G65         0.1817
   1027   N7        5.0250    6.7460   -8.6030 N.ar   65  G65        -0.2173
   1028   C5        5.5200    5.7560   -7.7650 C.ar   65  G65         0.1748
   1029   C6        5.3700    5.5740   -6.3620 C.ar   65  G65         0.3023
   1030   O6        4.7470    6.2810   -5.5510 O.2    65  G65        -0.2633
   1031   N.1       6.0410    4.4340   -5.9220 N.ar   65  G65        -0.1709
   1032   C.2       6.7630    3.5780   -6.7250 C.ar   65  G65         0.2606
   1033   N.2       7.3390    2.5320   -6.1150 N.pl3  65  G65        -0.0859
   1034   N.3       6.9080    3.7380   -8.0300 N.ar   65  G65        -0.1918
   1035   C4        6.2660    4.8380   -8.4780 C.ar   65  G65         0.1723
   1036    P.3      4.4050    1.0440  -13.0010 P.3    66  G66         0.2141
   1037  OP1        4.8760   -0.1770  -13.7150 O.2    66  G66        -0.5172
   1038  OP2        3.0720    1.6170  -13.3270 O.3    66  G66        -0.4373
   1039  O5'        4.4380    0.7480  -11.4370 O.3    66  G66        -0.3114
   1040  C5'        4.0300   -0.5140  -10.9220 C.3    66  G66         0.1812
   1041  C4'        2.7620   -0.3620  -10.1170 C.3    66  G66         0.1773
   1042  O4'        2.9730    0.6520   -9.0920 O.3    66  G66        -0.3307
   1043  C3'        1.5500    0.1470  -10.8810 C.3    66  G66         0.1860
   1044  O3'        0.8780   -0.9060  -11.5680 O.3    66  G66        -0.3112
   1045  C2'        0.7130    0.7180   -9.7490 C.3    66  G66         0.2309
   1046  O2'        0.1400   -0.3000   -8.9610 O.3    66  G66        -0.2156
   1047  C1'        1.7880    1.4140   -8.9200 C.3    66  G66         0.2408
   1048   N9        2.0540    2.7780   -9.3680 N.ar   66  G66        -0.2693
   1049   C8        3.0840    3.1870  -10.1770 C.ar   66  G66         0.1817
   1050   N7        3.0840    4.4720  -10.4000 N.ar   66  G66        -0.2173
   1051   C5        1.9850    4.9430   -9.6980 C.ar   66  G66         0.1748
   1052   C6        1.4820    6.2610   -9.5610 C.ar   66  G66         0.3023
   1053   O6        1.9240    7.3090  -10.0450 O.2    66  G66        -0.2633
   1054   N.1       0.3470    6.2930   -8.7620 N.ar   66  G66        -0.1709
   1055   C.2      -0.2320    5.1990   -8.1710 C.ar   66  G66         0.2606
   1056   N.2      -1.3260    5.4400   -7.4400 N.pl3  66  G66        -0.0859
   1057   N.3       0.2270    3.9630   -8.2880 N.ar   66  G66        -0.1918
   1058   C4        1.3320    3.9100   -9.0600 C.ar   66  G66         0.1723
   1059    P.3     -0.2740   -0.5560  -12.6410 P.3    67  A67         0.2141
   1060  OP1       -0.4950   -1.7480  -13.5020 O.2    67  A67        -0.5172
   1061  OP2        0.0380    0.7560  -13.2680 O.3    67  A67        -0.4373
   1062  O5'       -1.5710   -0.3830  -11.7390 O.3    67  A67        -0.3114
   1063  C5'       -1.8220   -1.2750  -10.6630 C.3    67  A67         0.1812
   1064  C4'       -2.6750   -0.5960   -9.6270 C.3    67  A67         0.1773
   1065  O4'       -1.9650    0.5500   -9.0810 O.3    67  A67        -0.3307
   1066  C3'       -3.9500   -0.0020  -10.1850 C.3    67  A67         0.1860
   1067  O3'       -4.9490   -1.0000  -10.2950 O.3    67  A67        -0.3112
   1068  C2'       -4.2640    1.0760   -9.1610 C.3    67  A67         0.2309
   1069  O2'       -4.7940    0.5520   -7.9600 O.3    67  A67        -0.2156
   1070  C1'       -2.8650    1.6290   -8.8970 C.3    67  A67         0.2408
   1071   N9       -2.5040    2.6760   -9.8470 N.ar   67  A67        -0.2693
   1072   C8       -1.3870    2.7440  -10.6410 C.ar   67  A67         0.1816
   1073   N7       -1.3420    3.8090  -11.4010 N.ar   67  A67        -0.2193
   1074   C5       -2.5080    4.4880  -11.0870 C.ar   67  A67         0.1518
   1075   C6       -3.0480    5.6900  -11.5520 C.ar   67  A67         0.1919
   1076   N6       -2.4610    6.4560  -12.4760 N.pl3  67  A67        -0.1054
   1077   N.1      -4.2290    6.0890  -11.0310 N.ar   67  A67        -0.2040
   1078   C.2      -4.8140    5.3170  -10.1070 C.ar   67  A67         0.2016
   1079   N.3      -4.4050    4.1650   -9.5940 N.ar   67  A67        -0.2048
   1080   C4       -3.2320    3.8020  -10.1310 C.ar   67  A67         0.1692
   1081    P.3     -5.5840   -1.3110  -11.7310 P.3    68  U68         0.2141
   1082  OP1       -5.6810   -2.7840  -11.8790 O.3    68  U68        -0.4373
   1083  OP2       -4.8110   -0.5160  -12.7180 O.2    68  U68        -0.5172
   1084  O5'       -7.0470   -0.6970  -11.6410 O.3    68  U68        -0.3114
   1085  C5'       -7.8440   -0.9190  -10.4900 C.3    68  U68         0.1812
   1086  C4'       -8.6500    0.3120  -10.1690 C.3    68  U68         0.1773
   1087  O4'       -7.7680    1.4290   -9.8740 O.3    68  U68        -0.3307
   1088  C3'       -9.4940    0.8430  -11.3050 C.3    68  U68         0.1860
   1089  O3'      -10.6710    0.0590  -11.4450 O.3    68  U68        -0.3112
   1090  C2'       -9.7670    2.2680  -10.8340 C.3    68  U68         0.2309
   1091  O2'      -10.7730    2.3290   -9.8430 O.3    68  U68        -0.2156
   1092  C1'       -8.4180    2.6460  -10.2110 C.3    68  U68         0.2420
   1093   N.1      -7.5580    3.3980  -11.1360 N.ar   68  U68        -0.2534
   1094   C.2      -7.7750    4.7620  -11.2510 C.ar   68  U68         0.3546
   1095   O.2      -8.5980    5.3600  -10.5800 O.2    68  U68        -0.2443
   1096   N.3      -6.9890    5.3980  -12.1820 N.ar   68  U68        -0.1530
   1097   C4       -6.0240    4.8250  -12.9850 C.ar   68  U68         0.2846
   1098   O4       -5.4080    5.5270  -13.7890 O.2    68  U68        -0.2650
   1099   C5       -5.8390    3.4180  -12.7820 C.ar   68  U68         0.0814
   1100   C6       -6.5910    2.7700  -11.8830 C.ar   68  U68         0.0870
   1101    P.3    -11.0590   -0.5370  -12.8870 P.3    69  A69         0.2141
   1102  OP1      -11.6200   -1.8930  -12.6620 O.3    69  A69        -0.4373
   1103  OP2       -9.8790   -0.3660  -13.7710 O.2    69  A69        -0.5172
   1104  O5'      -12.2320    0.4200  -13.3880 O.3    69  A69        -0.3114
   1105  C5'      -12.3590    0.8080  -14.7570 C.3    69  A69         0.1812
   1106  C4'      -12.9880    2.1840  -14.8450 C.3    69  A69         0.1773
   1107  O4'      -14.2620    2.1700  -14.1420 O.3    69  A69        -0.3307
   1108  C3'      -12.1680    3.2900  -14.1940 C.3    69  A69         0.1860
   1109  O3'      -11.3080    3.8650  -15.1780 O.3    69  A69        -0.3112
   1110  C2'      -13.2310    4.2710  -13.6980 C.3    69  A69         0.2309
   1111  O2'      -13.6520    5.1960  -14.6780 O.3    69  A69        -0.2156
   1112  C1'      -14.3910    3.3350  -13.3470 C.3    69  A69         0.2408
   1113   N9      -14.4790    2.9130  -11.9460 N.ar   69  A69        -0.2693
   1114   C8      -14.1080    1.6970  -11.4260 C.ar   69  A69         0.1816
   1115   N7      -14.3580    1.5680  -10.1470 N.ar   69  A69        -0.2193
   1116   C5      -14.9190    2.7890   -9.7910 C.ar   69  A69         0.1518
   1117   C6      -15.4120    3.2920   -8.5620 C.ar   69  A69         0.1919
   1118   N6      -15.4150    2.6020   -7.4150 N.pl3  69  A69        -0.1054
   1119   N.1     -15.9050    4.5460   -8.5540 N.ar   69  A69        -0.2040
   1120   C.2     -15.9000    5.2410   -9.6950 C.ar   69  A69         0.2016
   1121   N.3     -15.4680    4.8840  -10.9050 N.ar   69  A69        -0.2048
   1122   C4      -14.9860    3.6310  -10.8870 C.ar   69  A69         0.1692
   1123    P.3     -9.8240    4.3370  -14.7780 P.3    70  A70         0.2141
   1124  OP1       -9.0150    4.4680  -16.0220 O.2    70  A70        -0.5172
   1125  OP2       -9.3510    3.4400  -13.6980 O.3    70  A70        -0.4373
   1126  O5'      -10.0560    5.8000  -14.1810 O.3    70  A70        -0.3114
   1127  C5'      -10.5920    6.8500  -14.9940 C.3    70  A70         0.1812
   1128  C4'      -11.2220    7.9320  -14.1360 C.3    70  A70         0.1773
   1129  O4'      -12.3880    7.3950  -13.4540 O.3    70  A70        -0.3307
   1130  C3'      -10.3530    8.5280  -13.0320 C.3    70  A70         0.1860
   1131  O3'       -9.5630    9.6130  -13.5190 O.3    70  A70        -0.3112
   1132  C2'      -11.4060    9.0180  -12.0490 C.3    70  A70         0.2309
   1133  O2'      -11.9950   10.2390  -12.4540 O.3    70  A70        -0.2156
   1134  C1'      -12.4300    7.8850  -12.1260 C.3    70  A70         0.2408
   1135   N9      -12.0900    6.7730  -11.2400 N.ar   70  A70        -0.2693
   1136   C8      -11.3070    5.6970  -11.5610 C.ar   70  A70         0.1816
   1137   N7      -11.1520    4.8420  -10.5840 N.ar   70  A70        -0.2193
   1138   C5      -11.8850    5.3910   -9.5430 C.ar   70  A70         0.1518
   1139   C6      -12.1160    4.9620   -8.2290 C.ar   70  A70         0.1919
   1140   N6      -11.6100    3.8350   -7.7290 N.pl3  70  A70        -0.1054
   1141   N.1     -12.8900    5.7370   -7.4370 N.ar   70  A70        -0.2040
   1142   C.2     -13.3880    6.8670   -7.9440 C.ar   70  A70         0.2016
   1143   N.3     -13.2420    7.3790   -9.1690 N.ar   70  A70        -0.2048
   1144   C4      -12.4690    6.5820   -9.9300 C.ar   70  A70         0.1692
   1145    P.3     -8.1430    9.9550  -12.8360 P.3    71  U71         0.2141
   1146  OP1       -7.5500   10.9990  -13.7060 O.2    71  U71        -0.5172
   1147  OP2       -7.3780    8.7050  -12.5670 O.3    71  U71        -0.4373
   1148  O5'       -8.5260   10.6400  -11.4480 O.3    71  U71        -0.3114
   1149  C5'       -8.9130   12.0120  -11.4010 C.3    71  U71         0.1812
   1150  C4'       -9.2710   12.4180   -9.9910 C.3    71  U71         0.1773
   1151  O4'      -10.3610   11.5780   -9.5490 O.3    71  U71        -0.3307
   1152  C3'       -8.1890   12.2270   -8.9420 C.3    71  U71         0.1860
   1153  O3'       -7.3530   13.3790   -8.8470 O.3    71  U71        -0.3112
   1154  C2'       -9.0140   12.0830   -7.6780 C.3    71  U71         0.2309
   1155  O2'       -9.4610   13.3450   -7.2440 O.3    71  U71        -0.2156
   1156  C1'      -10.2060   11.2700   -8.1820 C.3    71  U71         0.2420
   1157   N.1     -10.0220    9.8200   -8.0690 N.ar   71  U71        -0.2534
   1158   C.2     -10.4190    9.2130   -6.9020 C.ar   71  U71         0.3546
   1159   O.2     -10.9170    9.8340   -5.9740 O.2    71  U71        -0.2443
   1160   N.3     -10.2110    7.8520   -6.8570 N.ar   71  U71        -0.1530
   1161   C4       -9.6510    7.0620   -7.8430 C.ar   71  U71         0.2846
   1162   O4       -9.5070    5.8520   -7.6520 O.2    71  U71        -0.2650
   1163   C5       -9.2710    7.7710   -9.0190 C.ar   71  U71         0.0814
   1164   C6       -9.4660    9.0940   -9.0900 C.ar   71  U71         0.0870
   1165    P.3     -5.7530   13.2060   -8.8320 P.3    72  G72         0.2141
   1166  OP1       -5.1610   14.2680   -9.6800 O.2    72  G72        -0.5172
   1167  OP2       -5.4070   11.7830   -9.0850 O.3    72  G72        -0.4373
   1168  O5'       -5.3140   13.5880   -7.3540 O.3    72  G72        -0.3114
   1169  C5'       -6.0450   13.1530   -6.2160 C.3    72  G72         0.1812
   1170  C4'       -5.2200   13.3820   -4.9730 C.3    72  G72         0.1773
   1171  O4'       -4.6520   14.7230   -5.0360 O.3    72  G72        -0.3307
   1172  C3'       -5.9770   13.3580   -3.6590 C.3    72  G72         0.1860
   1173  O3'       -6.1600   12.0460   -3.1540 O.3    72  G72        -0.3112
   1174  C2'       -5.0770   14.2340   -2.8050 C.3    72  G72         0.2309
   1175  O2'       -3.8560   13.5820   -2.5080 O.3    72  G72        -0.2156
   1176  C1'       -4.8200   15.3790   -3.7890 C.3    72  G72         0.2408
   1177   N9       -6.0000   16.2420   -3.9020 N.ar   72  G72        -0.2693
   1178   C8       -6.7890   16.6940   -2.8670 C.ar   72  G72         0.1817
   1179   N7       -7.8130   17.3980   -3.2690 N.ar   72  G72        -0.2173
   1180   C5       -7.6910   17.4310   -4.6520 C.ar   72  G72         0.1748
   1181   C6       -8.5160   18.0440   -5.6330 C.ar   72  G72         0.3023
   1182   O6       -9.5550   18.6950   -5.4690 O.2    72  G72        -0.2633
   1183   N.1      -8.0260   17.8370   -6.9200 N.ar   72  G72        -0.1709
   1184   C.2      -6.8910   17.1320   -7.2290 C.ar   72  G72         0.2606
   1185   N.2      -6.5870   17.0510   -8.5290 N.pl3  72  G72        -0.0859
   1186   N.3      -6.1120   16.5490   -6.3260 N.ar   72  G72        -0.1918
   1187   C4       -6.5690   16.7380   -5.0640 C.ar   72  G72         0.1723
   1188    P.3     -7.6480   11.5320   -2.8190 P.3    73  C73         0.2141
   1189  OP1       -8.5870   12.3230   -3.6480 O.2    73  C73        -0.5172
   1190  OP2       -7.8580   11.4730   -1.3550 O.3    73  C73        -0.4373
   1191  O5'       -7.6520   10.0370   -3.3600 O.3    73  C73        -0.3114
   1192  C5'       -8.4280    9.0320   -2.7180 C.3    73  C73         0.1812
   1193  C4'       -7.7620    7.6890   -2.8750 C.3    73  C73         0.1773
   1194  O4'       -7.7130    7.3600   -4.2830 O.3    73  C73        -0.3307
   1195  C3'       -6.3120    7.6280   -2.4160 C.3    73  C73         0.1860
   1196  O3'       -6.2490    7.3210   -1.0250 O.3    73  C73        -0.3112
   1197  C2'       -5.7630    6.4770   -3.2440 C.3    73  C73         0.2309
   1198  O2'       -6.0590    5.2270   -2.6680 O.3    73  C73        -0.2156
   1199  C1'       -6.5300    6.6400   -4.5580 C.3    73  C73         0.2420
   1200   N.1      -5.7690    7.3630   -5.5850 N.ar   73  C73        -0.2535
   1201   C.2      -4.8740    6.6450   -6.3560 C.ar   73  C73         0.3532
   1202   O.2      -4.7790    5.4240   -6.1670 O.2    73  C73        -0.2443
   1203   N.3      -4.1340    7.2850   -7.2880 N.ar   73  C73        -0.1739
   1204   C4       -4.2790    8.5950   -7.4670 C.ar   73  C73         0.1759
   1205   N.4      -3.5260    9.1790   -8.3990 N.pl3  73  C73        -0.1070
   1206   C5       -5.2020    9.3590   -6.7010 C.ar   73  C73         0.0566
   1207   C6       -5.9220    8.7070   -5.7770 C.ar   73  C73         0.0850
   1208    P.3     -5.0560    7.9130   -0.1210 P.3    74  C74         0.2141
   1209  OP1       -5.1880    7.3040    1.2280 O.3    74  C74        -0.4373
   1210  OP2       -5.0250    9.3880   -0.2630 O.2    74  C74        -0.5172
   1211  O5'       -3.7440    7.3240   -0.7920 O.3    74  C74        -0.3114
   1212  C5'       -2.4910    7.3840   -0.1340 C.3    74  C74         0.1812
   1213  C4'       -1.7370    6.1170   -0.4070 C.3    74  C74         0.1773
   1214  O4'       -2.1170    5.6410   -1.7190 O.3    74  C74        -0.3307
   1215  C3'       -0.2260    6.2500   -0.4140 C.3    74  C74         0.1860
   1216  O3'        0.2890    5.9680    0.8800 O.3    74  C74        -0.3112
   1217  C2'        0.1940    5.2000   -1.4370 C.3    74  C74         0.2309
   1218  O2'        0.2800    3.9030   -0.8820 O.3    74  C74        -0.2156
   1219  C1'       -0.9670    5.2610   -2.4370 C.3    74  C74         0.2420
   1220   N.1      -0.8150    6.2160   -3.5490 N.ar   74  C74        -0.2535
   1221   C.2      -0.0480    5.8500   -4.6490 C.ar   74  C74         0.3532
   1222   O.2       0.5240    4.7520   -4.6390 O.2    74  C74        -0.2443
   1223   N.3       0.0490    6.6960   -5.6970 N.ar   74  C74        -0.1739
   1224   C4       -0.5840    7.8670   -5.6690 C.ar   74  C74         0.1759
   1225   N.4      -0.4770    8.6540   -6.7370 N.pl3  74  C74        -0.1070
   1226   C5       -1.3560    8.2780   -4.5480 C.ar   74  C74         0.0566
   1227   C6       -1.4400    7.4320   -3.5170 C.ar   74  C74         0.0850
   1228    P.3      1.3950    6.9330    1.5260 P.3    75  A75         0.2141
   1229  OP1        1.5100    6.5720    2.9630 O.3    75  A75        -0.4373
   1230  OP2        1.0660    8.3320    1.1430 O.2    75  A75        -0.5172
   1231  O5'        2.7550    6.5000    0.8140 O.3    75  A75        -0.3114
   1232  C5'        3.8090    5.8910    1.5620 C.3    75  A75         0.1812
   1233  C4'        5.1360    6.1360    0.8870 C.3    75  A75         0.1773
   1234  O4'        5.1190    5.5050   -0.4220 O.3    75  A75        -0.3307
   1235  C3'        5.4600    7.5970    0.6110 C.3    75  A75         0.1860
   1236  O3'        6.1070    8.1940    1.7270 O.3    75  A75        -0.3112
   1237  C2'        6.3800    7.4820   -0.5930 C.3    75  A75         0.2309
   1238  O2'        7.6780    7.0510   -0.2340 O.3    75  A75        -0.2156
   1239  C1'        5.6620    6.3900   -1.3880 C.3    75  A75         0.2408
   1240   N9        4.5370    6.9330   -2.1460 N.ar   75  A75        -0.2693
   1241   C8        3.2360    6.4950   -2.1270 C.ar   75  A75         0.1816
   1242   N7        2.4240    7.2190   -2.8570 N.ar   75  A75        -0.2193
   1243   C5        3.2470    8.1900   -3.4070 C.ar   75  A75         0.1518
   1244   C6        2.9890    9.2650   -4.2660 C.ar   75  A75         0.1919
   1245   N6        1.7770    9.5550   -4.7350 N.pl3  75  A75        -0.1054
   1246   N.1       4.0300   10.0450   -4.6280 N.ar   75  A75        -0.2040
   1247   C.2       5.2470    9.7530   -4.1500 C.ar   75  A75         0.2016
   1248   N.3       5.6170    8.7710   -3.3310 N.ar   75  A75        -0.2048
   1249   C4        4.5560    8.0170   -2.9910 C.ar   75  A75         0.1692
   1250    P.3      5.8830    9.7560    2.0410 P.3    76  G76         0.2141
   1251  OP1        6.0400    9.9500    3.5040 O.3    76  G76        -0.4373
   1252  OP2        4.6270   10.1900    1.3710 O.2    76  G76        -0.5172
   1253  O5'        7.1160   10.4780    1.3320 O.3    76  G76        -0.3114
   1254  C5'        8.4450    9.9550    1.4330 C.3    76  G76         0.1812
   1255  C4'        9.2710   10.4100    0.2470 C.3    76  G76         0.1773
   1256  O4'        8.6360    9.9350   -0.9760 O.3    76  G76        -0.3307
   1257  C3'        9.3570   11.9210    0.0740 C.3    76  G76         0.1860
   1258  O3'       10.4380   12.4630    0.8200 O.3    76  G76        -0.3112
   1259  C2'        9.5280   12.0660   -1.4330 C.3    76  G76         0.2309
   1260  O2'       10.8300   11.7670   -1.8940 O.3    76  G76        -0.2156
   1261  C1'        8.5630   10.9900   -1.9230 C.3    76  G76         0.2408
   1262   N9        7.1860   11.4710   -1.9340 N.ar   76  G76        -0.2693
   1263   C8        6.1070   10.9120   -1.2890 C.ar   76  G76         0.1817
   1264   N7        5.0000   11.5760   -1.4720 N.ar   76  G76        -0.2173
   1265   C5        5.3690   12.6360   -2.2890 C.ar   76  G76         0.1748
   1266   C6        4.5960   13.6930   -2.8230 C.ar   76  G76         0.3023
   1267   O6        3.3880   13.9190   -2.6750 O.2    76  G76        -0.2633
   1268   N.1       5.3710   14.5460   -3.6000 N.ar   76  G76        -0.1709
   1269   C.2       6.7180   14.4030   -3.8310 C.ar   76  G76         0.2606
   1270   N.2       7.2840   15.3320   -4.6120 N.pl3  76  G76        -0.0859
   1271   N.3       7.4510   13.4240   -3.3350 N.ar   76  G76        -0.1918
   1272   C4        6.7170   12.5820   -2.5810 C.ar   76  G76         0.1723
   1273    P.3     10.1810   13.7180    1.7900 P.3    77  C77         0.2141
   1274  OP1       11.3240   13.7950    2.7360 O.3    77  C77        -0.4373
   1275  OP2        8.7980   13.6230    2.3190 O.2    77  C77        -0.5172
   1276  O5'       10.2350   14.9800    0.8210 O.3    77  C77        -0.3114
   1277  C5'       11.4230   15.3160    0.1110 C.3    77  C77         0.1812
   1278  C4'       11.1810   16.5320   -0.7520 C.3    77  C77         0.1773
   1279  O4'       10.1320   16.2340   -1.7150 O.3    77  C77        -0.3307
   1280  C3'       10.6740   17.7560   -0.0040 C.3    77  C77         0.1860
   1281  O3'       11.7740   18.4860    0.5380 O.3    77  C77        -0.3112
   1282  C2'        9.9160   18.5260   -1.0850 C.3    77  C77         0.2309
   1283  O2'       10.7530   19.3270   -1.8960 O.3    77  C77        -0.2156
   1284  C1'        9.3260   17.3850   -1.9230 C.3    77  C77         0.2420
   1285   N.1       7.9280   17.0330   -1.6100 N.ar   77  C77        -0.2535
   1286   C.2       6.9040   17.9140   -1.9850 C.ar   77  C77         0.3532
   1287   O.2       7.2020   18.9750   -2.5540 O.2    77  C77        -0.2443
   1288   N.3       5.6190   17.5830   -1.7190 N.ar   77  C77        -0.1739
   1289   C4        5.3390   16.4310   -1.1030 C.ar   77  C77         0.1759
   1290   N.4       4.0560   16.1390   -0.8660 N.pl3  77  C77        -0.1070
   1291   C5        6.3630   15.5220   -0.7020 C.ar   77  C77         0.0566
   1292   C6        7.6300   15.8590   -0.9730 C.ar   77  C77         0.0850
   1293    P.3     11.5160   19.6430    1.6290 P.3    78  G78         0.2141
   1294  OP1       11.1820   20.8840    0.8840 O.2    78  G78        -0.5172
   1295  OP2       12.6500   19.6460    2.5860 O.3    78  G78        -0.4373
   1296  O5'       10.2180   19.1700    2.4260 O.3    78  G78        -0.3114
   1297  C5'       10.2170   17.9720    3.1990 C.3    78  G78         0.1811
   1298  C4'        8.8310   17.7110    3.7450 C.3    78  G78         0.1752
   1299  O4'        7.8530   17.8080    2.6710 O.3    78  G78        -0.3483
   1300  C3'        8.6190   16.3320    4.3510 C.3    78  G78         0.1839
   1301  O3'        9.0310   16.3270    5.7200 O.3    78  G78        -0.3113
   1302  C2'        7.1090   16.1520    4.1950 C.3    78  G78         0.2112
   1303  O2'        6.3560   16.8430    5.1710 O.3    78  G78        -0.2177
   1304  C1'        6.8570   16.8140    2.8390 C.3    78  G78         0.1776
   1305    P.3     10.1430   15.2740    6.2290 P.3    79  U79         0.2141
   1306  OP1       11.0570   15.0060    5.0860 O.2    79  U79        -0.5172
   1307  OP2        9.4610   14.1390    6.9070 O.3    79  U79        -0.4373
   1308  O5'       10.9450   16.0770    7.3510 O.3    79  U79        -0.3114
   1309  C5'       10.3990   16.2660    8.6580 C.3    79  U79         0.1811
   1310  C4'       11.2190   17.2800    9.4320 C.3    79  U79         0.1752
   1311  O4'       12.6080   16.8550    9.4240 O.3    79  U79        -0.3483
   1312  C3'       11.2430   18.7130    8.8960 C.3    79  U79         0.1839
   1313  O3'       10.1410   19.4510    9.4310 O.3    79  U79        -0.3113
   1314  C2'       12.5720   19.2390    9.4330 C.3    79  U79         0.2112
   1315  O2'       12.5010   19.6850   10.7740 O.3    79  U79        -0.2177
   1316  C1'       13.4550   17.9910    9.3430 C.3    79  U79         0.1776
   1317    P.3      9.8510   20.9680    8.9510 P.3    80  A80         0.2141
   1318  OP1       10.0200   21.8570   10.1350 O.3    80  A80        -0.4373
   1319  OP2        8.5500   20.9580    8.2220 O.2    80  A80        -0.5172
   1320  O5'       11.0010   21.3160    7.9030 O.3    80  A80        -0.3114
   1321  C5'       10.7920   21.0820    6.5160 C.3    80  A80         0.1812
   1322  C4'       11.2260   22.2700    5.6750 C.3    80  A80         0.1773
   1323  O4'       10.8070   21.9630    4.3190 O.3    80  A80        -0.3307
   1324  C3'       10.6410   23.6520    6.0090 C.3    80  A80         0.1860
   1325  O3'       11.6000   24.4070    6.7850 O.3    80  A80        -0.3112
   1326  C2'       10.4280   24.2690    4.6250 C.3    80  A80         0.2309
   1327  O2'       11.6030   24.8420    4.0840 O.3    80  A80        -0.2156
   1328  C1'       10.0670   23.0390    3.7900 C.3    80  A80         0.2408
   1329   N9        8.6570   22.6280    3.7720 N.ar   80  A80        -0.2693
   1330   C8        8.1140   21.5200    4.3830 C.ar   80  A80         0.1816
   1331   N7        6.8330   21.3610    4.1540 N.ar   80  A80        -0.2193
   1332   C5        6.5030   22.4420    3.3520 C.ar   80  A80         0.1518
   1333   C6        5.2980   22.8410    2.7670 C.ar   80  A80         0.1919
   1334   N6        4.1520   22.1790    2.9140 N.pl3  80  A80        -0.1054
   1335   N.1       5.3060   23.9620    2.0150 N.ar   80  A80        -0.2040
   1336   C.2       6.4560   24.6280    1.8710 C.ar   80  A80         0.2016
   1337   N.3       7.6560   24.3550    2.3740 N.ar   80  A80        -0.2048
   1338   C4        7.6130   23.2360    3.1140 C.ar   80  A80         0.1692
   1339    P.3     11.2150   25.8500    7.4300 P.3    81  G81         0.2141
   1340  OP1       12.4700   26.6450    7.5240 O.2    81  G81        -0.5172
   1341  OP2       10.4060   25.6300    8.6560 O.3    81  G81        -0.4373
   1342  O5'       10.2930   26.5650    6.3390 O.3    81  G81        -0.3114
   1343  C5'       10.7210   27.7680    5.6990 C.3    81  G81         0.1812
   1344  C4'        9.5320   28.5600    5.1890 C.3    81  G81         0.1773
   1345  O4'        8.7860   27.7550    4.2380 O.3    81  G81        -0.3307
   1346  C3'        8.4770   28.9780    6.2010 C.3    81  G81         0.1860
   1347  O3'        8.8130   30.1760    6.8850 O.3    81  G81        -0.3112
   1348  C2'        7.2730   29.2390    5.3110 C.3    81  G81         0.2309
   1349  O2'        7.3640   30.5210    4.7210 O.3    81  G81        -0.2156
   1350  C1'        7.4170   28.1280    4.2640 C.3    81  G81         0.2408
   1351   N9        6.6220   26.9370    4.5630 N.ar   81  G81        -0.2693
   1352   C8        7.0520   25.7840    5.1790 C.ar   81  G81         0.1817
   1353   N7        6.1070   24.8930    5.3140 N.ar   81  G81        -0.2173
   1354   C5        4.9860   25.4920    4.7570 C.ar   81  G81         0.1748
   1355   C6        3.6540   25.0120    4.6190 C.ar   81  G81         0.3023
   1356   O6        3.1780   23.9250    4.9720 O.2    81  G81        -0.2633
   1357   N.1       2.8420   25.9420    3.9930 N.ar   81  G81        -0.1709
   1358   C.2       3.2470   27.1710    3.5540 C.ar   81  G81         0.2606
   1359   N.2       2.3050   27.9190    2.9580 N.pl3  81  G81        -0.0859
   1360   N.3       4.4760   27.6350    3.6830 N.ar   81  G81        -0.1918
   1361   C4        5.2880   26.7500    4.2860 C.ar   81  G81         0.1723
   1362    P.3      7.8670   30.6880    8.0770 P.3    82  G82         0.2141
   1363  OP1        8.5860   31.7340    8.8550 O.3    82  G82        -0.4373
   1364  OP2        7.2950   29.5080    8.7870 O.2    82  G82        -0.5172
   1365  O5'        6.6740   31.4030    7.3180 O.3    82  G82        -0.3114
   1366  C5'        5.5030   31.7740    8.0160 C.3    82  G82         0.1812
   1367  C4'        4.3550   31.8030    7.0650 C.3    82  G82         0.1773
   1368  O4'        4.5190   30.7070    6.1300 O.3    82  G82        -0.3307
   1369  C3'        2.9990   31.5770    7.6990 C.3    82  G82         0.1860
   1370  O3'        2.4730   32.7910    8.2260 O.3    82  G82        -0.3112
   1371  C2'        2.2190   31.0200    6.5140 C.3    82  G82         0.2309
   1372  O2'        1.8730   32.0140    5.5790 O.3    82  G82        -0.2156
   1373  C1'        3.2670   30.1000    5.8810 C.3    82  G82         0.2408
   1374   N9        3.2740   28.7820    6.5130 N.ar   82  G82        -0.2693
   1375   C8        4.3460   28.1040    7.0500 C.ar   82  G82         0.1817
   1376   N7        4.0120   26.9600    7.5850 N.ar   82  G82        -0.2173
   1377   C5        2.6420   26.8740    7.3800 C.ar   82  G82         0.1748
   1378   C6        1.7220   25.8640    7.7340 C.ar   82  G82         0.3023
   1379   O6        1.9340   24.7970    8.3290 O.2    82  G82        -0.2633
   1380   N.1       0.4310   26.1860    7.3260 N.ar   82  G82        -0.1709
   1381   C.2       0.0700   27.3330    6.6610 C.ar   82  G82         0.2606
   1382   N.2      -1.2240   27.4660    6.3370 N.pl3  82  G82        -0.0859
   1383   N.3       0.9150   28.2810    6.3320 N.ar   82  G82        -0.1918
   1384   C4        2.1750   27.9880    6.7150 C.ar   82  G82         0.1723
   1385    P.3      2.2010   32.9210    9.8070 P.3    83  G83         0.2141
   1386  OP1        1.7100   34.2990   10.0420 O.2    83  G83        -0.5172
   1387  OP2        3.3620   32.4020   10.5880 O.3    83  G83        -0.4373
   1388  O5'        0.9670   31.9560   10.0840 O.3    83  G83        -0.3114
   1389  C5'       -0.2320   32.0630    9.3270 C.3    83  G83         0.1812
   1390  C4'       -1.0410   30.7840    9.4330 C.3    83  G83         0.1773
   1391  O4'       -0.2460   29.6490    8.9890 O.3    83  G83        -0.3307
   1392  C3'       -1.4900   30.3580   10.8170 C.3    83  G83         0.1860
   1393  O3'       -2.6850   31.0550   11.1730 O.3    83  G83        -0.3112
   1394  C2'       -1.8390   28.9000   10.5580 C.3    83  G83         0.2309
   1395  O2'       -3.0640   28.8460    9.8420 O.3    83  G83        -0.2156
   1396  C1'       -0.7190   28.4700    9.6090 C.3    83  G83         0.2408
   1397   N9        0.4190   27.7520   10.1810 N.ar   83  G83        -0.2693
   1398   C8        1.6640   28.2590   10.4310 C.ar   83  G83         0.1817
   1399   N7        2.5000   27.3720   10.9040 N.ar   83  G83        -0.2173
   1400   C5        1.7600   26.2070   10.9820 C.ar   83  G83         0.1748
   1401   C6        2.1330   24.9030   11.4210 C.ar   83  G83         0.3023
   1402   O6        3.2210   24.5180   11.8680 O.2    83  G83        -0.2633
   1403   N.1       1.0800   24.0070   11.3180 N.ar   83  G83        -0.1709
   1404   C.2      -0.1700   24.3210   10.8810 C.ar   83  G83         0.2606
   1405   N.2      -1.0490   23.3190   10.8800 N.pl3  83  G83        -0.0859
   1406   N.3      -0.5420   25.5320   10.4770 N.ar   83  G83        -0.1918
   1407   C4        0.4690   26.4200   10.5490 C.ar   83  G83         0.1723
   1408    P.3     -2.6160   32.3490   12.1330 P.3    84  A84         0.2141
   1409  OP1       -3.2180   33.4510   11.3310 O.2    84  A84        -0.5172
   1410  OP2       -1.2530   32.4850   12.7090 O.3    84  A84        -0.4373
   1411  O5'       -3.5910   32.0190   13.3370 O.3    84  A84        -0.3114
   1412  C5'       -4.8750   32.6090   13.3990 C.3    84  A84         0.1812
   1413  C4'       -5.8000   31.7210   14.1830 C.3    84  A84         0.1773
   1414  O4'       -5.8940   30.4440   13.5040 O.3    84  A84        -0.3307
   1415  C3'       -5.3480   31.3580   15.5850 C.3    84  A84         0.1860
   1416  O3'       -5.8080   32.3440   16.4860 O.3    84  A84        -0.3112
   1417  C2'       -6.1360   30.0860   15.8300 C.3    84  A84         0.2309
   1418  O2'       -7.4760   30.4140   16.1520 O.3    84  A84        -0.2156
   1419  C1'       -6.0760   29.4160   14.4510 C.3    84  A84         0.2408
   1420   N9       -4.9650   28.4850   14.3050 N.ar   84  A84        -0.2693
   1421   C8       -3.6300   28.7750   14.3700 C.ar   84  A84         0.1816
   1422   N7       -2.8540   27.7260   14.2470 N.ar   84  A84        -0.2193
   1423   C5       -3.7430   26.6770   14.0770 C.ar   84  A84         0.1518
   1424   C6       -3.5470   25.3070   13.8980 C.ar   84  A84         0.1919
   1425   N6       -2.3440   24.7420   13.8620 N.pl3  84  A84        -0.1054
   1426   N.1      -4.6370   24.5280   13.7560 N.ar   84  A84        -0.2040
   1427   C.2      -5.8380   25.1030   13.7950 C.ar   84  A84         0.2016
   1428   N.3      -6.1540   26.3880   13.9600 N.ar   84  A84        -0.2048
   1429   C4       -5.0450   27.1300   14.0990 C.ar   84  A84         0.1692
   1430    P.3     -4.8200   32.9430   17.5940 P.3    85  A85         0.2141
   1431  OP1       -5.6900   33.6430   18.5770 O.3    85  A85        -0.4373
   1432  OP2       -3.7190   33.6770   16.9270 O.2    85  A85        -0.5172
   1433  O5'       -4.1660   31.6720   18.2940 O.3    85  A85        -0.3114
   1434  C5'       -3.5740   31.7920   19.5820 C.3    85  A85         0.1812
   1435  C4'       -4.6400   32.1720   20.5620 C.3    85  A85         0.1773
   1436  O4'       -5.7180   31.2210   20.4350 O.3    85  A85        -0.3307
   1437  C3'       -4.2950   32.2120   22.0410 C.3    85  A85         0.1860
   1438  O3'       -3.7260   33.4980   22.3560 O.3    85  A85        -0.3112
   1439  C2'       -5.6740   32.0180   22.6790 C.3    85  A85         0.2309
   1440  O2'       -6.4180   33.2340   22.7110 O.3    85  A85        -0.2156
   1441  C1'       -6.3550   31.0640   21.6870 C.3    85  A85         0.2408
   1442   N9       -6.3810   29.6350   22.0000 N.ar   85  A85        -0.2693
   1443   C8       -5.3530   28.7390   21.9060 C.ar   85  A85         0.1816
   1444   N7       -5.7100   27.4990   22.1350 N.ar   85  A85        -0.2193
   1445   C5       -7.0550   27.5920   22.4300 C.ar   85  A85         0.1518
   1446   C6       -8.0010   26.6280   22.7540 C.ar   85  A85         0.1919
   1447   N6       -7.7200   25.3240   22.8250 N.pl3  85  A85        -0.1054
   1448   N.1      -9.2660   27.0460   23.0020 N.ar   85  A85        -0.2040
   1449   C.2      -9.5350   28.3570   22.9180 C.ar   85  A85         0.2016
   1450   N.3      -8.7230   29.3590   22.6150 N.ar   85  A85        -0.2048
   1451   C4       -7.4800   28.9040   22.3770 C.ar   85  A85         0.1692
   1452    P.3     -3.5340   33.9490   23.8920 P.3    86  G86         0.2141
   1453  OP1       -4.4510   35.1000   24.1060 O.2    86  G86        -0.5172
   1454  OP2       -2.0810   34.0980   24.1800 O.3    86  G86        -0.4373
   1455  O5'       -4.0670   32.6990   24.7210 O.3    86  G86        -0.3114
   1456  C5'       -4.2680   32.7580   26.1290 C.3    86  G86         0.1812
   1457  C4'       -5.7440   32.8530   26.4320 C.3    86  G86         0.1773
   1458  O4'       -6.5300   32.1230   25.4480 O.3    86  G86        -0.3307
   1459  C3'       -6.1830   32.2580   27.7510 C.3    86  G86         0.1860
   1460  O3'       -5.8440   33.1350   28.8210 O.3    86  G86        -0.3112
   1461  C2'       -7.6840   32.0800   27.5060 C.3    86  G86         0.2309
   1462  O2'       -8.4290   33.2830   27.5470 O.3    86  G86        -0.2156
   1463  C1'       -7.6930   31.5880   26.0580 C.3    86  G86         0.2408
   1464   N9       -7.6310   30.1340   25.9500 N.ar   86  G86        -0.2693
   1465   C8       -6.5410   29.3840   25.5940 C.ar   86  G86         0.1817
   1466   N7       -6.7680   28.1010   25.6260 N.ar   86  G86        -0.2173
   1467   C5       -8.0890   28.0000   26.0160 C.ar   86  G86         0.1748
   1468   C6       -8.8840   26.8570   26.2380 C.ar   86  G86         0.3023
   1469   O6       -8.5710   25.6640   26.1330 O.2    86  G86        -0.2633
   1470   N.1     -10.1680   27.2030   26.6330 N.ar   86  G86        -0.1709
   1471   C.2     -10.6250   28.4870   26.7980 C.ar   86  G86         0.2606
   1472   N.2     -11.9060   28.6100   27.2000 N.pl3  86  G86        -0.0859
   1473   N.3      -9.8860   29.5640   26.5890 N.ar   86  G86        -0.1918
   1474   C4       -8.6390   29.2470   26.2070 C.ar   86  G86         0.1723
   1475    P.3     -5.5260   32.5280   30.2740 P.3    87  U87         0.2141
   1476  OP1       -5.2710   33.6650   31.1940 O.3    87  U87        -0.4373
   1477  OP2       -4.5370   31.4170   30.1870 O.2    87  U87        -0.5172
   1478  O5'       -6.9250   31.9170   30.7010 O.3    87  U87        -0.3114
   1479  C5'       -8.0140   32.7750   30.9800 C.3    87  U87         0.1812
   1480  C4'       -9.1970   31.9730   31.4400 C.3    87  U87         0.1773
   1481  O4'       -9.7190   31.2190   30.3100 O.3    87  U87        -0.3307
   1482  C3'       -8.9110   30.9180   32.5020 C.3    87  U87         0.1860
   1483  O3'       -8.8780   31.4570   33.8270 O.3    87  U87        -0.3112
   1484  C2'      -10.0910   29.9780   32.2910 C.3    87  U87         0.2309
   1485  O2'      -11.2780   30.5450   32.7980 O.3    87  U87        -0.2156
   1486  C1'      -10.1870   29.9530   30.7590 C.3    87  U87         0.2420
   1487   N.1      -9.3620   28.8900   30.1500 N.ar   87  U87        -0.2534
   1488   C.2      -9.8750   27.6100   30.1150 C.ar   87  U87         0.3546
   1489   O.2     -10.9860   27.3360   30.5150 O.2    87  U87        -0.2443
   1490   N.3      -9.0360   26.6620   29.5970 N.ar   87  U87        -0.1530
   1491   C4       -7.7760   26.8590   29.1090 C.ar   87  U87         0.2846
   1492   O4       -7.1420   25.9060   28.6720 O.2    87  U87        -0.2650
   1493   C5       -7.3260   28.2050   29.1540 C.ar   87  U87         0.0814
   1494   C6       -8.1120   29.1520   29.6570 C.ar   87  U87         0.0870
   1495    P.3     -8.1890   30.6130   35.0230 P.3    88  C88         0.2141
   1496  OP1       -8.4150   31.3370   36.2940 O.3    88  C88        -0.4373
   1497  OP2       -6.8170   30.2220   34.6410 O.2    88  C88        -0.5172
   1498  O5'       -9.0650   29.2890   35.1460 O.3    88  C88        -0.3114
   1499  C5'      -10.3920   29.3370   35.6800 C.3    88  C88         0.1812
   1500  C4'      -10.9980   27.9480   35.7300 C.3    88  C88         0.1773
   1501  O4'      -11.0980   27.4070   34.3850 O.3    88  C88        -0.3307
   1502  C3'      -10.1980   26.9210   36.5120 C.3    88  C88         0.1860
   1503  O3'      -10.5840   26.9620   37.8760 O.3    88  C88        -0.3112
   1504  C2'      -10.6220   25.6090   35.8710 C.3    88  C88         0.2309
   1505  O2'      -11.8400   25.1600   36.4050 O.3    88  C88        -0.2156
   1506  C1'      -10.8130   26.0200   34.4080 C.3    88  C88         0.2420
   1507   N.1      -9.6290   25.7950   33.5690 N.ar   88  C88        -0.2535
   1508   C.2      -9.2730   24.4960   33.2350 C.ar   88  C88         0.3532
   1509   O.2      -9.9570   23.5630   33.6640 O.2    88  C88        -0.2443
   1510   N.3      -8.1950   24.2870   32.4570 N.ar   88  C88        -0.1739
   1511   C4       -7.4830   25.3190   32.0210 C.ar   88  C88         0.1759
   1512   N.4      -6.4260   25.0710   31.2610 N.pl3  88  C88        -0.1070
   1513   C5       -7.8220   26.6550   32.3480 C.ar   88  C88         0.0566
   1514   C6       -8.8920   26.8480   33.1180 C.ar   88  C88         0.0850
   1515    P.3     -9.7360   26.1490   38.9740 P.3    89  G89         0.2141
   1516  OP1      -10.4680   26.2820   40.2600 O.3    89  G89        -0.4373
   1517  OP2       -8.3050   26.5640   38.8940 O.2    89  G89        -0.5172
   1518  O5'       -9.8560   24.6310   38.5080 O.3    89  G89        -0.3114
   1519  C5'      -11.0620   23.9020   38.7150 C.3    89  G89         0.1812
   1520  C4'      -10.9190   22.4950   38.2000 C.3    89  G89         0.1773
   1521  O4'      -10.5610   22.5360   36.8000 O.3    89  G89        -0.3307
   1522  C3'       -9.8030   21.6900   38.8330 C.3    89  G89         0.1860
   1523  O3'      -10.2840   21.1000   40.0210 O.3    89  G89        -0.3112
   1524  C2'       -9.5320   20.6350   37.7750 C.3    89  G89         0.2309
   1525  O2'      -10.5120   19.6270   37.7900 O.3    89  G89        -0.2156
   1526  C1'       -9.7280   21.4350   36.4930 C.3    89  G89         0.2408
   1527   N9       -8.5160   21.9470   35.8720 N.ar   89  G89        -0.2693
   1528   C8       -8.0360   23.2300   35.9480 C.ar   89  G89         0.1817
   1529   N7       -6.9880   23.4290   35.1940 N.ar   89  G89        -0.2173
   1530   C5       -6.7490   22.1920   34.6090 C.ar   89  G89         0.1748
   1531   C6       -5.7520   21.7880   33.6780 C.ar   89  G89         0.3023
   1532   O6       -4.8500   22.4620   33.1660 O.2    89  G89        -0.2633
   1533   N.1      -5.8810   20.4480   33.3510 N.ar   89  G89        -0.1709
   1534   C.2      -6.8320   19.6070   33.8510 C.ar   89  G89         0.2606
   1535   N.2      -6.7670   18.3540   33.4270 N.pl3  89  G89        -0.0859
   1536   N.3      -7.7680   19.9670   34.7050 N.ar   89  G89        -0.1918
   1537   C4       -7.6700   21.2630   35.0380 C.ar   89  G89         0.1723
   1538    P.3     -9.2500   20.5380   41.0970 P.3    90  C90         0.2141
   1539  OP1      -10.0120   19.8000   42.1290 O.3    90  C90        -0.4373
   1540  OP2       -8.3940   21.6910   41.4960 O.2    90  C90        -0.5172
   1541  O5'       -8.4330   19.4200   40.3100 O.3    90  C90        -0.3114
   1542  C5'       -8.9410   18.0870   40.2420 C.3    90  C90         0.1813
   1543  C4'       -8.0770   17.2080   39.3560 C.3    90  C90         0.1801
   1544  O4'       -7.8550   17.8430   38.0800 O.3    90  C90        -0.3306
   1545  C3'       -6.6920   16.8700   39.8570 C.3    90  C90         0.2161
   1546  O3'       -6.8090   15.7260   40.6820 O.3    90  C90        -0.2175
   1547  C2'       -5.9560   16.5110   38.5700 C.3    90  C90         0.2338
   1548  O2'       -6.2390   15.2080   38.1190 O.3    90  C90        -0.2155
   1549  C1'       -6.5920   17.4670   37.5710 C.3    90  C90         0.2421
   1550   N.1      -5.8380   18.6900   37.2670 N.ar   90  C90        -0.2535
   1551   C.2      -4.7970   18.6240   36.3580 C.ar   90  C90         0.3532
   1552   O.2      -4.4880   17.5300   35.8880 O.2    90  C90        -0.2443
   1553   N.3      -4.1580   19.7550   36.0080 N.ar   90  C90        -0.1739
   1554   C4       -4.5300   20.9220   36.5380 C.ar   90  C90         0.1759
   1555   N.4      -3.8920   22.0250   36.1390 N.pl3  90  C90        -0.1070
   1556   C5       -5.5710   21.0130   37.4930 C.ar   90  C90         0.0566
   1557   C6       -6.1860   19.8820   37.8340 C.ar   90  C90         0.0850
@<TRIPOS>BOND
     1   363   362    1
     2   364   359    1
     3   364   362    1
     4   364   365    1
     5   359   358    1
     6   362   360    1
     7   367   366    2
     8   358   360    1
     9   358   357    1
    10   354   353    1
    11   356   357    1
    12   356   353    1
    13   365   366   ar
    14   365   372   ar
    15   366   368   ar
    16   360   361    1
    17   361   373    1
    18   372   371   ar
    19   353   355    1
    20   368   369   ar
    21   371   369   ar
    22   369   370    1
    23   374   373    2
    24   373   376    1
    25   373   375    1
    26   376   377    1
    27   379   384    1
    28   379   378    1
    29   384   385    1
    30   384   382    1
    31   378   377    1
    32   378   380    1
    33   383   382    1
    34   386   385   ar
    35   386   387   ar
    36   385   395   ar
    37   382   380    1
    38   387   388   ar
    39   395   394   ar
    40   395   388   ar
    41   380   381    1
    42   394   392   ar
    43   388   389   ar
    44   381   396    1
    45   392   393    1
    46   392   391   ar
    47   389   391   ar
    48   389   390    2
    49   397   396    2
    50   396   398    1
    51   396   399    1
    52   399   400    1
    53   347   346    2
    54   339   344    1
    55   339   338    1
    56   344   345    1
    57   344   342    1
    58   346   345   ar
    59   346   348   ar
    60   343   342    1
    61  1124  1123    2
    62   345   352   ar
    63   348   349   ar
    64   338   337    1
    65   338   340    1
    66   414   415   ar
    67   414   412   ar
    68   999   998    1
    69   400   401    1
    70   335   333    2
    71   415   408   ar
    72   322   321    2
    73   323   321    1
    74   342   340    1
    75   337   336    1
    76   402   401    1
    77   402   407    1
    78   352   351   ar
    79  1109  1123    1
    80  1109  1108    1
    81   349   350    2
    82   349   351   ar
    83  1127  1126    1
    84  1127  1128    1
    85   334   333    1
    86  1106  1105    1
    87  1106  1108    1
    88  1106  1107    1
    89   413   412    2
    90  1123  1126    1
    91  1123  1125    1
    92  1105  1104    1
    93   336   333    1
    94   412   411   ar
    95   401   403    1
    96   333   329    1
    97   321   309    1
    98   321   324    1
    99  1111  1110    1
   100   340   341    1
   101  1000   998    1
   102  1000   995    1
   103   998   996    1
   104  1016  1017    1
   105   408   407    1
   106   408   409   ar
   107  1108  1110    1
   108   407   405    1
   109  1107  1112    1
   110  1128  1129    1
   111  1128  1130    1
   112  1015  1013    1
   113  1017  1018    1
   114  1098  1097    2
   115   309   308    1
   116  1103  1101    2
   117   995   994    1
   118  1014  1013    1
   119  1037  1036    2
   120   302   301    2
   121  1146  1145    2
   122   324   325    1
   123  1110  1112    1
   124   411   409   ar
   125  1131  1130    1
   126  1131  1145    1
   127  1060  1059    2
   128  1129  1134    1
   129  1104  1101    1
   130   409   410    2
   131  1112  1113    1
   132  1038  1036    1
   133   997   996    1
   134   997  1001    1
   135   403   405    1
   136   403   404    1
   137  1061  1059    1
   138   329   328    1
   139   996   994    1
   140  1021  1036    1
   141  1021  1020    1
   142   994   993    1
   143  1013  1009    1
   144  1018  1020    1
   145  1018  1019    1
   146  1130  1132    1
   147  1036  1039    1
   148  1097  1099   ar
   149  1097  1096   ar
   150   328   326    1
   151   328   330    1
   152  1101  1102    1
   153  1101  1089    1
   154   305   304    1
   155   305   306    1
   156   405   406    1
   157   325   326    1
   158  1145  1147    1
   159  1145  1148    1
   160  1099  1100   ar
   161  1083  1081    2
   162  1059  1062    1
   163  1059  1044    1
   164   308   306    1
   165   308   310    1
   166   304   301    1
   167   404   416    1
   168  1076  1075    1
   169  1133  1132    1
   170  1002  1001    2
   171   301   303    1
   172   301   289    1
   173  1020  1022    1
   174  1009  1008    1
   175   306   307    1
   176  1096  1094   ar
   177  1134  1132    1
   178  1134  1135    1
   179   326   327    1
   180  1019  1024    1
   181  1001  1004    1
   182  1001  1003    1
   183   330   332    1
   184   330   331    1
   185  1113  1114   ar
   186  1113  1122   ar
   187  1100  1093   ar
   188  1082  1081    1
   189   993   992    1
   190  1062  1063    1
   191  1081  1084    1
   192  1081  1067    1
   193  1004  1005    1
   194  1084  1085    1
   195  1044  1043    1
   196  1136  1135   ar
   197  1136  1137   ar
   198  1075  1074   ar
   199  1075  1077   ar
   200   311   310    1
   201  1148  1149    1
   202  1089  1088    1
   203  1039  1040    1
   204  1023  1022    1
   205  1114  1115   ar
   206  1149  1150    1
   207  1073  1074   ar
   208  1073  1072   ar
   209   327   332    1
   210   310   312    1
   211   289   288    1
   212  1088  1090    1
   213  1088  1086    1
   214  1094  1093   ar
   215  1094  1095    2
   216  1135  1144   ar
   217  1022  1024    1
   218  1093  1092    1
   219  1074  1080   ar
   220  1077  1078   ar
   221  1011  1010    1
   222   992   989    1
   223  1008  1006    1
   224  1008  1010    1
   225  1040  1041    1
   226  1024  1025    1
   227  1121  1122   ar
   228  1121  1120   ar
   229  1122  1116   ar
   230  1043  1041    1
   231  1043  1045    1
   232   416   419    1
   233   416   418    2
   234   416   417    1
   235  1090  1092    1
   236  1090  1091    1
   237   307   312    1
   238  1063  1064    1
   239  1072  1071   ar
   240   419   420    1
   241  1137  1138   ar
   242  1085  1086    1
   243  1006  1005    1
   244  1006  1007    1
   245  1050  1049   ar
   246  1050  1051   ar
   247  1067  1066    1
   248  1010  1012    1
   249   445   444    1
   250   991   989    2
   251   312   313    1
   252  1092  1087    1
   253  1066  1064    1
   254  1066  1068    1
   255  1049  1048   ar
   256  1086  1087    1
   257  1115  1116   ar
   258  1080  1071   ar
   259  1080  1079   ar
   260  1041  1042    1
   261  1078  1079   ar
   262   422   427    1
   263   422   421    1
   264  1053  1052    2
   265  1150  1151    1
   266  1150  1152    1
   267   282   281    2
   268   291   290    1
   269   288   290    1
   270   288   286    1
   271  1144  1138   ar
   272  1144  1143   ar
   273  1071  1070    1
   274  1116  1117   ar
   275  1026  1025   ar
   276  1026  1027   ar
   277   989   990    1
   278   989   985    1
   279  1025  1035   ar
   280  1045  1046    1
   281  1045  1047    1
   282  1051  1052   ar
   283  1051  1058   ar
   284  1120  1119   ar
   285  1166  1165    2
   286  1064  1065    1
   287   320   313   ar
   288   320   319   ar
   289  1052  1054   ar
   290  1151  1156    1
   291   978   977    2
   292  1138  1139   ar
   293   427   425    1
   294   313   314   ar
   295   444   446   ar
   296   444   443   ar
   297   290   292    1
   298  1048  1058   ar
   299  1048  1047    1
   300   979   977    1
   301   420   421    1
   302  1143  1142   ar
   303  1068  1070    1
   304  1068  1069    1
   305   446   447   ar
   306   286   285    1
   307   286   287    1
   308  1042  1047    1
   309  1164  1163   ar
   310  1164  1157   ar
   311  1167  1165    1
   312  1065  1070    1
   313  1007  1012    1
   314   421   423    1
   315  1058  1057   ar
   316   981   982    1
   317   981   980    1
   318   285   284    1
   319  1163  1161   ar
   320   319   317   ar
   321  1152  1153    1
   322  1152  1154    1
   323   284   281    1
   324   281   283    1
   325   281   266    1
   326  1153  1165    1
   327  1165  1168    1
   328   442   443   ar
   329   442   441   ar
   330  1054  1055   ar
   331   443   449   ar
   332   314   315    2
   333   314   316   ar
   334   985   984    1
   335   977   980    1
   336   977   962    1
   337  1027  1028   ar
   338  1117  1119   ar
   339  1117  1118    1
   340  1185  1184    1
   341  1035  1034   ar
   342  1035  1028   ar
   343  1205  1204    1
   344   982   984    1
   345   982   983    1
   346  1057  1055   ar
   347   447   448   ar
   348  1139  1140    1
   349  1139  1141   ar
   350   317   316   ar
   351   317   318    1
   352  1156  1157    1
   353  1156  1154    1
   354  1055  1056    1
   355   426   425    1
   356   425   423    1
   357   492   491    1
   358  1157  1158   ar
   359   468   469   ar
   360   468   466   ar
   361  1034  1032   ar
   362   441   440   ar
   363  1142  1141   ar
   364   292   287    1
   365   292   293    1
   366   449   448   ar
   367   449   440   ar
   368  1161  1162    2
   369  1161  1160   ar
   370   467   466    1
   371  1028  1029   ar
   372   984   986    1
   373   423   424    1
   374  1154  1155    1
   375   469   470   ar
   376   266   265    1
   377  1204  1203   ar
   378  1204  1206   ar
   379   466   465   ar
   380   962   961    1
   381   440   439    1
   382  1168  1169    1
   383  1203  1201   ar
   384  1184  1183   ar
   385  1184  1186   ar
   386   983   988    1
   387   491   490   ar
   388   491   493   ar
   389   293   300   ar
   390   293   294   ar
   391   295   294    2
   392   987   986    1
   393   490   488   ar
   394  1183  1181   ar
   395  1158  1160   ar
   396  1158  1159    2
   397   300   299   ar
   398   294   296   ar
   399  1225  1224    1
   400  1032  1033    1
   401  1032  1031   ar
   402   424   428    1
   403  1206  1207   ar
   404   515   514    1
   405   470   471   ar
   406   986   988    1
   407   955   954    2
   408   434   439    1
   409   434   433    1
   410   493   494   ar
   411   439   437    1
   412  1029  1031   ar
   413  1029  1030    2
   414   465   471   ar
   415   465   464   ar
   416  1201  1202    2
   417  1201  1200   ar
   418  1186  1187   ar
   419   265   267    1
   420   265   263    1
   421  1169  1170    1
   422   299   297   ar
   423   961   959    1
   424   961   963    1
   425   296   297   ar
   426   488   489    2
   427   488   487   ar
   428   471   462   ar
   429   514   516   ar
   430   514   513   ar
   431   516   517   ar
   432   297   298    1
   433   958   957    1
   434   958   959    1
   435  1207  1200   ar
   436  1223  1224   ar
   437  1223  1221   ar
   438  1224  1226   ar
   439  1181  1182    2
   440  1181  1180   ar
   441   505   504    1
   442   494   487   ar
   443   494   484   ar
   444  1200  1199    1
   445   268   267    1
   446   957   954    1
   447   262   263    1
   448   262   261    1
   449   464   463   ar
   450   431   432    1
   451   431   428    1
   452   267   269    1
   453   959   960    1
   454   954   956    1
   455   954   942    1
   456   487   486   ar
   457   964   963    1
   458   263   264    1
   459   513   511   ar
   460   506   501    1
   461   506   507    1
   462   506   504    1
   463   432   433    1
   464   428   430    2
   465   428   429    1
   466   433   435    1
   467   963   965    1
   468   517   507   ar
   469   517   510   ar
   470  1187  1180   ar
   471  1187  1177   ar
   472  1171  1170    1
   473  1171  1176    1
   474  1170  1172    1
   475   462   463   ar
   476   462   461    1
   477   437   435    1
   478   437   438    1
   479   482   481    1
   480   501   500    1
   481   507   508   ar
   482   484   483    1
   483   484   485   ar
   484   504   502    1
   485  1245  1244    1
   486   483   481    1
   487   483   478    1
   488  1180  1179   ar
   489  1221  1222    2
   490  1221  1220   ar
   491  1246  1244   ar
   492  1246  1247   ar
   493  1270  1269    1
   494   524   529    1
   495   524   523    1
   496  1199  1194    1
   497  1199  1197    1
   498  1226  1227   ar
   499   511   510   ar
   500   511   512    2
   501   261   258    1
   502   510   509   ar
   503   435   436    1
   504   486   485   ar
   505  1194  1193    1
   506  1244  1243   ar
   507   461   456    1
   508   461   459    1
   509   481   479    1
   510   278   277    1
   511   260   258    2
   512   942   941    1
   513  1247  1248   ar
   514   529   530    1
   515   529   527    1
   516   269   264    1
   517   269   270    1
   518   279   277   ar
   519   279   280   ar
   520   960   965    1
   521   508   509   ar
   522   500   502    1
   523   500   499    1
   524  1177  1176    1
   525  1177  1178   ar
   526   523   522    1
   527   523   525    1
   528   277   276   ar
   529  1269  1268   ar
   530  1269  1271   ar
   531   965   966    1
   532   478   477    1
   533  1176  1174    1
   534   528   527    1
   535   532   531    2
   536  1172  1173    1
   537  1172  1174    1
   538  1189  1188    2
   539   270   280   ar
   540   270   271   ar
   541   280   273   ar
   542   967   966   ar
   543   967   968   ar
   544  1268  1266   ar
   545   522   521    1
   546  1220  1227   ar
   547  1220  1219    1
   548   258   259    1
   549   258   246    1
   550   530   531   ar
   551   530   537   ar
   552   456   455    1
   553   502   503    1
   554  1243  1249   ar
   555  1243  1242   ar
   556  1191  1188    1
   557  1191  1192    1
   558  1271  1272   ar
   559  1248  1249   ar
   560   276   274   ar
   561   531   533   ar
   562   935   934    2
   563  1179  1178   ar
   564  1197  1198    1
   565  1197  1195    1
   566   966   976   ar
   567   459   460    1
   568   459   457    1
   569   527   525    1
   570  1173  1188    1
   571   271   272   ar
   572   537   536   ar
   573   273   274   ar
   574   273   272   ar
   575   503   518    1
   576  1249  1240   ar
   577   436   450    1
   578   968   969   ar
   579   274   275    2
   580   499   498    1
   581  1193  1192    1
   582  1193  1195    1
   583  1242  1241   ar
   584   941   943    1
   585   941   939    1
   586  1266  1267    2
   587  1266  1265   ar
   588  1188  1190    1
   589  1174  1175    1
   590   477   479    1
   591   477   476    1
   592   479   480    1
   593   533   534   ar
   594   521   518    1
   595   525   526    1
   596   452   450    2
   597  1272  1265   ar
   598  1272  1262   ar
   599  1287  1286    2
   600   536   534   ar
   601   944   943    1
   602  1219  1214    1
   603  1219  1217    1
   604  1195  1196    1
   605   534   535    1
   606  1265  1264   ar
   607   246   245    1
   608   976   969   ar
   609   976   975   ar
   610   480   495    1
   611   943   945    1
   612   498   495    1
   613  1240  1241   ar
   614  1240  1239    1
   615   526   538    1
   616   934   937    1
   617   934   936    1
   618   934   922    1
   619   455   457    1
   620   455   454    1
   621   938   939    1
   622   938   937    1
   623   969   970   ar
   624   457   458    1
   625  1286  1288   ar
   626  1286  1285   ar
   627   939   940    1
   628   450   453    1
   629   450   451    1
   630  1262  1261    1
   631  1262  1263   ar
   632  1261  1259    1
   633  1261  1256    1
   634  1284  1279    1
   635  1284  1285    1
   636  1284  1282    1
   637  1283  1282    1
   638  1260  1259    1
   639   518   519    2
   640   518   520    1
   641   239   238    2
   642   453   454    1
   643  1214  1213    1
   644  1288  1289   ar
   645  1279  1278    1
   646  1285  1292   ar
   647   975   973   ar
   648  1264  1263   ar
   649   476   475    1
   650  1217  1218    1
   651  1217  1215    1
   652  1259  1257    1
   653  1239  1237    1
   654  1239  1234    1
   655   636   635    1
   656   495   497    2
   657   495   496    1
   658   544   549    1
   659   544   543    1
   660   475   472    1
   661  1289  1290    1
   662  1289  1291   ar
   663  1282  1280    1
   664  1196  1208    1
   665   970   971    2
   666   970   972   ar
   667   245   243    1
   668   245   247    1
   669  1256  1255    1
   670  1292  1291   ar
   671   643   642    1
   672   644   642   ar
   673   644   645   ar
   674   922   921    1
   675  1211  1212    1
   676  1211  1208    1
   677   458   472    1
   678  1278  1280    1
   679  1278  1277    1
   680   238   240    1
   681   238   241    1
   682   238   223    1
   683   945   940    1
   684   945   946    1
   685   642   641   ar
   686   645   646   ar
   687   242   241    1
   688   242   243    1
   689   542   543    1
   690   542   541    1
   691  1237  1238    1
   692  1237  1235    1
   693   973   972   ar
   694   973   974    1
   695   538   539    2
   696   538   541    1
   697   538   540    1
   698   549   550    1
   699   549   547    1
   700  1234  1233    1
   701  1215  1213    1
   702  1215  1216    1
   703  1213  1212    1
   704   248   247    1
   705   552   551    2
   706   543   545    1
   707   641   647   ar
   708   641   640   ar
   709   646   647   ar
   710   550   551   ar
   711   550   557   ar
   712  1210  1208    2
   713   474   472    2
   714   243   244    1
   715   551   553   ar
   716   946   953   ar
   717   946   947   ar
   718   635   637    1
   719   635   633    1
   720   472   473    1
   721   953   952   ar
   722   647   638   ar
   723  1208  1209    1
   724   557   556   ar
   725   247   249    1
   726   640   639   ar
   727   553   554   ar
   728  1280  1281    1
   729  1257  1255    1
   730  1257  1258    1
   731   556   554   ar
   732  1277  1276    1
   733   554   555    2
   734   638   639   ar
   735   638   637    1
   736   948   947    2
   737  1255  1254    1
   738   947   949   ar
   739   952   950   ar
   740   650   648    2
   741   637   632    1
   742   634   633    1
   743   634   648    1
   744   921   923    1
   745   921   919    1
   746  1281  1293    1
   747   548   547    1
   748   223   222    1
   749  1235  1233    1
   750  1235  1236    1
   751   924   923    1
   752   949   950   ar
   753   950   951    2
   754  1231  1228    1
   755  1231  1232    1
   756  1258  1273    1
   757  1276  1273    1
   758   547   545    1
   759  1216  1228    1
   760  1294  1293    2
   761  1233  1232    1
   762   923   925    1
   763   633   631    1
   764   545   546    1
   765   915   914    2
   766   244   249    1
   767  1230  1228    2
   768   648   649    1
   769   648   651    1
   770   249   250    1
   771  1253  1254    1
   772  1253  1250    1
   773  1252  1250    2
   774   919   918    1
   775   919   920    1
   776  1228  1229    1
   777  1293  1296    1
   778  1293  1295    1
   779   918   917    1
   780   632   631    1
   781  1236  1250    1
   782   652   651    1
   783   652   653    1
   784  1273  1275    2
   785  1273  1274    1
   786   917   914    1
   787  1336  1335   ar
   788  1336  1337   ar
   789   222   224    1
   790   222   220    1
   791   631   630    1
   792   546   558    1
   793  1335  1333   ar
   794  1250  1251    1
   795   914   916    1
   796   914   902    1
   797   654   659    1
   798   654   653    1
   799  1337  1338   ar
   800  1296  1297    1
   801   250   257   ar
   802   250   251   ar
   803   225   224    1
   804   925   920    1
   805   925   926    1
   806   218   219    1
   807   218   215    1
   808   219   220    1
   809   257   256   ar
   810   928   927    2
   811   224   226    1
   812  1299  1304    1
   813  1299  1298    1
   814   216   215    2
   815   220   221    1
   816   659   657    1
   817  1333  1334    1
   818  1333  1332   ar
   819   653   655    1
   820  1304  1302    1
   821  1359  1358    1
   822   926   927   ar
   823   926   933   ar
   824   927   929   ar
   825  1338  1332   ar
   826  1338  1329   ar
   827   575   574    2
   828  1297  1298    1
   829   655   657    1
   830   655   656    1
   831  1332  1331   ar
   832   572   573   ar
   833   572   571   ar
   834   630   629    1
   835   252   251    2
   836   933   932   ar
   837   215   217    1
   838   215   200    1
   839   574   573   ar
   840   574   576   ar
   841   251   253   ar
   842   558   560    2
   843   558   559    1
   844   558   561    1
   845   929   930   ar
   846   573   580   ar
   847   902   901    1
   848  1358  1360   ar
   849  1358  1357   ar
   850   256   254   ar
   851   571   570   ar
   852   576   577   ar
   853   564   569    1
   854   564   563    1
   855  1360  1361   ar
   856   657   658    1
   857  1298  1300    1
   858  1329  1328    1
   859  1329  1330   ar
   860  1328  1323    1
   861  1328  1326    1
   862   580   570   ar
   863   580   579   ar
   864   932   930   ar
   865   570   569    1
   866   661   660    2
   867   930   931    1
   868   577   579   ar
   869   577   578    1
   870   629   626    1
   871  1357  1355   ar
   872  1327  1326    1
   873   221   226    1
   874   226   227    1
   875  1331  1330   ar
   876   561   562    1
   877   628   626    2
   878  1302  1300    1
   879  1302  1303    1
   880   662   660    1
   881   562   563    1
   882  1345  1350    1
   883  1345  1344    1
   884  1350  1351    1
   885  1350  1348    1
   886   569   567    1
   887  1361  1351   ar
   888  1361  1354   ar
   889  1323  1322    1
   890   656   660    1
   891  1300  1301    1
   892   253   254   ar
   893  1351  1352   ar
   894   660   663    1
   895   254   255    2
   896  1355  1354   ar
   897  1355  1356    2
   898  1326  1324    1
   899   563   565    1
   900   200   199    1
   901   901   903    1
   902   901   899    1
   903  1349  1348    1
   904   626   627    1
   905   626   611    1
   906  1354  1353   ar
   907   227   228   ar
   908   227   237   ar
   909   228   229   ar
   910  1306  1305    2
   911   904   903    1
   912  1352  1353   ar
   913  1344  1343    1
   914  1344  1346    1
   915   903   905    1
   916  1348  1346    1
   917  1372  1371    1
   918  1322  1324    1
   919  1322  1321    1
   920   620   619    2
   921   229   230   ar
   922   237   236   ar
   923   237   230   ar
   924  1343  1342    1
   925  1301  1305    1
   926   567   565    1
   927   567   568    1
   928   899   898    1
   929   899   900    1
   930  1373  1368    1
   931  1373  1374    1
   932  1373  1371    1
   933   895   894    2
   934   199   201    1
   935   199   197    1
   936   621   619   ar
   937   621   622   ar
   938   236   234   ar
   939   565   566    1
   940   898   897    1
   941   619   618   ar
   942  1324  1325    1
   943   623   622    1
   944  1368  1367    1
   945   663   664    1
   946   897   894    1
   947  1346  1347    1
   948   230   231   ar
   949   679   678   ar
   950   679   680   ar
   951  1305  1307    1
   952  1305  1308    1
   953   622   624   ar
   954   611   610    1
   955   678   676   ar
   956  1383  1381   ar
   957  1383  1384   ar
   958  1382  1381    1
   959  1342  1339    1
   960   618   617   ar
   961   618   625   ar
   962   202   201    1
   963  1374  1384   ar
   964  1374  1375   ar
   965  1371  1369    1
   966  1321  1320    1
   967   610   612    1
   968   610   608    1
   969   617   616   ar
   970   196   197    1
   971   196   195    1
   972   624   625   ar
   973   612   613    1
   974   612   614    1
   975  1381  1380   ar
   976   201   203    1
   977   625   615   ar
   978   664   665    1
   979   905   900    1
   980   905   906    1
   981  1384  1377   ar
   982   193   192    2
   983  1325  1339    1
   984   894   896    1
   985   894   880    1
   986   234   235    1
   987   234   233   ar
   988   197   198    1
   989   680   681   ar
   990  1347  1362    1
   991   908   907    2
   992   616   615   ar
   993   906   907   ar
   994   906   913   ar
   995  1375  1376   ar
   996   605   603    2
   997  1367  1369    1
   998  1367  1366    1
   999   566   581    1
  1000   615   614    1
  1001   907   909   ar
  1002   231   233   ar
  1003   231   232    2
  1004   676   677    1
  1005   676   675   ar
  1006   913   912   ar
  1007  1365  1366    1
  1008  1365  1362    1
  1009  1380  1378   ar
  1010  1308  1309    1
  1011  1377  1376   ar
  1012  1377  1378   ar
  1013  1339  1340    2
  1014  1339  1341    1
  1015   909   910   ar
  1016   606   603    1
  1017   606   607    1
  1018   666   665    1
  1019   666   671    1
  1020   195   192    1
  1021   912   910   ar
  1022   614   609    1
  1023   910   911    1
  1024   583   581    2
  1025  1369  1370    1
  1026   681   675   ar
  1027   681   672   ar
  1028  1378  1379    2
  1029   665   667    1
  1030   192   194    1
  1031   192   177    1
  1032  1320  1317    1
  1033   675   674   ar
  1034   608   607    1
  1035   608   609    1
  1036   603   604    1
  1037   603   589    1
  1038  1362  1364    2
  1039  1362  1363    1
  1040   203   198    1
  1041   203   204    1
  1042   880   879    1
  1043   866   865    2
  1044  1319  1317    2
  1045  1370  1385    1
  1046   581   582    1
  1047   581   584    1
  1048   598   597    1
  1049   672   671    1
  1050   672   673   ar
  1051   671   669    1
  1052  1309  1310    1
  1053   862   861    1
  1054   204   214   ar
  1055   204   205   ar
  1056   213   214   ar
  1057   213   211   ar
  1058  1312  1313    1
  1059  1312  1310    1
  1060  1312  1314    1
  1061   597   599   ar
  1062   597   596   ar
  1063   674   673   ar
  1064   585   584    1
  1065   585   586    1
  1066  1317  1313    1
  1067  1317  1318    1
  1068   599   600   ar
  1069  1391  1390    1
  1070  1391  1396    1
  1071   703   704   ar
  1072   703   701   ar
  1073   214   207   ar
  1074   879   881    1
  1075   879   877    1
  1076   205   206   ar
  1077   212   211    1
  1078   704   705   ar
  1079   177   176    1
  1080   667   669    1
  1081   667   668    1
  1082   865   867   ar
  1083   865   864   ar
  1084   211   210   ar
  1085   596   595   ar
  1086   596   602   ar
  1087  1389  1390    1
  1088  1389  1388    1
  1089   588   589    1
  1090   588   586    1
  1091   588   590    1
  1092  1316  1311    1
  1093  1316  1314    1
  1094   595   594   ar
  1095   600   601   ar
  1096  1311  1310    1
  1097  1390  1392    1
  1098  1314  1315    1
  1099   867   868   ar
  1100  1396  1397    1
  1101  1396  1394    1
  1102   702   701    1
  1103   861   863    1
  1104   861   859    1
  1105   881   882    1
  1106   881   883    1
  1107   207   206   ar
  1108   207   208   ar
  1109   602   601   ar
  1110   602   593   ar
  1111   701   700   ar
  1112  1385  1386    2
  1113  1385  1388    1
  1114  1385  1387    1
  1115   669   670    1
  1116  1395  1394    1
  1117   594   593   ar
  1118   863   864    1
  1119   863   858    1
  1120   668   682    1
  1121   586   587    1
  1122   705   706   ar
  1123   210   208   ar
  1124   889   888    1
  1125   876   877    1
  1126   876   875    1
  1127   593   592    1
  1128   886   887   ar
  1129   886   885   ar
  1130  1397  1398   ar
  1131  1397  1407   ar
  1132   864   871   ar
  1133   208   209    2
  1134   590   592    1
  1135   590   591    1
  1136   888   887   ar
  1137   888   890   ar
  1138   877   878    1
  1139   887   893   ar
  1140   179   178    1
  1141   885   884   ar
  1142   176   178    1
  1143   176   174    1
  1144  1398  1399   ar
  1145   890   891   ar
  1146  1406  1407   ar
  1147  1406  1404   ar
  1148   721   720    2
  1149  1407  1400   ar
  1150  1394  1392    1
  1151   178   180    1
  1152   893   884   ar
  1153   893   892   ar
  1154   884   883    1
  1155   587   592    1
  1156   700   706   ar
  1157   700   699   ar
  1158   868   869    1
  1159   868   870   ar
  1160   706   697   ar
  1161   891   892   ar
  1162  1392  1393    1
  1163  1405  1404    1
  1164  1404  1403   ar
  1165  1399  1400   ar
  1166   883   878    1
  1167  1400  1401   ar
  1168   858   857    1
  1169   859   860    1
  1170   859   857    1
  1171   860   872    1
  1172  1393  1408    1
  1173   875   872    1
  1174   874   872    2
  1175  1403  1401   ar
  1176  1409  1408    2
  1177   846   845    2
  1178   720   722   ar
  1179   720   719   ar
  1180   871   870   ar
  1181  1401  1402    2
  1182   682   684    1
  1183   682   683    1
  1184   857   856    1
  1185   170   169    2
  1186   717   716    1
  1187   174   173    1
  1188   174   175    1
  1189   699   698   ar
  1190   697   696    1
  1191   697   698   ar
  1192   722   723   ar
  1193   718   719    1
  1194   718   713    1
  1195   718   716    1
  1196   189   188    1
  1197   872   873    1
  1198   190   188   ar
  1199   190   191   ar
  1200   696   694    1
  1201   696   691    1
  1202   741   740    2
  1203   719   726   ar
  1204   180   181    1
  1205   180   175    1
  1206   172   173    1
  1207   172   169    1
  1208   842   841    1
  1209   188   187   ar
  1210  1408  1410    1
  1211  1408  1411    1
  1212   695   694    1
  1213   171   169    1
  1214   713   712    1
  1215   716   714    1
  1216   169   154    1
  1217   737   736    1
  1218   191   181   ar
  1219   191   184   ar
  1220   845   847   ar
  1221   845   844   ar
  1222   181   182   ar
  1223   738   733    1
  1224   738   739    1
  1225   738   736    1
  1226   187   185   ar
  1227   723   724    1
  1228   723   725   ar
  1229   694   692    1
  1230   733   732    1
  1231   843   841    1
  1232   843   838    1
  1233   843   844    1
  1234   740   739   ar
  1235   740   742   ar
  1236   184   185   ar
  1237   184   183   ar
  1238   847   848   ar
  1239   182   183   ar
  1240   691   690    1
  1241   856   855    1
  1242   185   186    2
  1243   726   725   ar
  1244   739   746   ar
  1245   841   839    1
  1246   838   837    1
  1247   712   714    1
  1248   712   711    1
  1249   844   851   ar
  1250   742   743   ar
  1251   736   734    1
  1252  1411  1412    1
  1253   732   731    1
  1254   732   734    1
  1255   834   832    2
  1256  1412  1413    1
  1257  1414  1413    1
  1258  1414  1419    1
  1259   714   715    1
  1260   855   852    1
  1261   827   826    1
  1262  1426  1427   ar
  1263  1426  1424   ar
  1264  1427  1428   ar
  1265   154   153    1
  1266  1425  1424    1
  1267  1424  1423   ar
  1268   746   745   ar
  1269  1428  1429   ar
  1270   731   730    1
  1271   743   745   ar
  1272   743   744    1
  1273  1423  1429   ar
  1274  1423  1422   ar
  1275  1429  1420   ar
  1276   753   758    1
  1277   753   752    1
  1278   837   839    1
  1279   837   836    1
  1280   715   727    1
  1281   826   828   ar
  1282   826   825   ar
  1283   692   690    1
  1284   692   693    1
  1285   848   849    2
  1286   848   850   ar
  1287   690   689    1
  1288  1413  1415    1
  1289   734   735    1
  1290  1422  1421   ar
  1291   824   825   ar
  1292   824   823   ar
  1293  1420  1421   ar
  1294  1420  1419    1
  1295   828   829   ar
  1296   711   710    1
  1297   825   831   ar
  1298   839   840    1
  1299  1419  1417    1
  1300   851   850   ar
  1301   854   852    2
  1302   758   759    1
  1303   758   756    1
  1304   735   747    1
  1305   820   819    1
  1306   840   852    1
  1307   752   751    1
  1308   752   754    1
  1309   823   822   ar
  1310   757   756    1
  1311   832   835    1
  1312   832   833    1
  1313   832   818    1
  1314   829   830   ar
  1315   852   853    1
  1316   153   155    1
  1317   153   151    1
  1318   819   821    1
  1319   819   817    1
  1320   761   760    2
  1321   831   822   ar
  1322   831   830   ar
  1323   835   836    1
  1324   751   750    1
  1325   730   727    1
  1326   693   707    1
  1327   822   821    1
  1328   710   707    1
  1329   759   760   ar
  1330   759   766   ar
  1331   688   689    1
  1332   688   685    1
  1333   760   762   ar
  1334   155   156    1
  1335   155   157    1
  1336   727   728    2
  1337   727   729    1
  1338   756   754    1
  1339  1415  1417    1
  1340  1415  1416    1
  1341   821   816    1
  1342   166   165    1
  1343   750   747    1
  1344   766   765   ar
  1345   818   817    1
  1346   817   815    1
  1347   150   151    1
  1348   150   149    1
  1349  1417  1418    1
  1350   762   763   ar
  1351   754   755    1
  1352   707   709    2
  1353   707   708    1
  1354   151   152    1
  1355   747   748    2
  1356   747   749    1
  1357   165   167   ar
  1358   165   164   ar
  1359   755   767    1
  1360   167   168   ar
  1361   164   162   ar
  1362   765   763   ar
  1363   763   764    1
  1364   686   685    1
  1365  1416  1430    1
  1366   168   161   ar
  1367   168   158   ar
  1368   685   687    1
  1369   807   806    2
  1370   162   163    2
  1371   162   161   ar
  1372   147   146    2
  1373   157   158    1
  1374   157   152    1
  1375   161   160   ar
  1376   158   159   ar
  1377   773   772    1
  1378   773   778    1
  1379   805   806   ar
  1380   805   803   ar
  1381  1432  1430    2
  1382   816   815    1
  1383   149   146    1
  1384   806   808   ar
  1385   815   814    1
  1386   159   160   ar
  1387   804   803    2
  1388   771   772    1
  1389   771   770    1
  1390   148   146    1
  1391   803   802   ar
  1392   146   134    1
  1393   768   767    2
  1394   772   774    1
  1395  1430  1433    1
  1396  1430  1431    1
  1397   808   809   ar
  1398   778   779    1
  1399   778   776    1
  1400   767   770    1
  1401   767   769    1
  1402   802   809   ar
  1403   802   801    1
  1404   779   780   ar
  1405   779   789   ar
  1406   814   813    1
  1407   780   781   ar
  1408   796   801    1
  1409   796   795    1
  1410   801   799    1
  1411  1433  1434    1
  1412   777   776    1
  1413   789   788   ar
  1414   789   782   ar
  1415   788   786   ar
  1416   781   782   ar
  1417   776   774    1
  1418   782   783   ar
  1419   774   775    1
  1420   134   133    1
  1421   786   787    1
  1422   786   785   ar
  1423   813   810    1
  1424   783   785   ar
  1425   783   784    2
  1426   795   794    1
  1427   795   797    1
  1428   800   799    1
  1429   775   790    1
  1430  1434  1435    1
  1431   799   797    1
  1432   136   135    1
  1433   135   133    1
  1434   135   137    1
  1435   794   793    1
  1436   143   142    1
  1437   133   131    1
  1438   141   142   ar
  1439   141   139   ar
  1440   140   139    2
  1441   142   144   ar
  1442   812   810    2
  1443   139   138   ar
  1444  1436  1435    1
  1445  1436  1441    1
  1446   797   798    1
  1447  1435  1437    1
  1448   791   790    2
  1449   810   798    1
  1450   810   811    1
  1451   144   145   ar
  1452   793   790    1
  1453   790   792    1
  1454   138   145   ar
  1455   138   137    1
  1456   137   132    1
  1457   131   130    1
  1458   131   132    1
  1459  1441  1442    1
  1460  1441  1439    1
  1461   128   126    2
  1462   129   130    1
  1463   129   126    1
  1464  1443  1442   ar
  1465  1443  1444   ar
  1466  1442  1451   ar
  1467  1437  1438    1
  1468  1437  1439    1
  1469   127   126    1
  1470  1444  1445   ar
  1471   126   114    1
  1472  1438  1452    1
  1473  1451  1445   ar
  1474  1451  1450   ar
  1475  1445  1446   ar
  1476  1450  1449   ar
  1477  1439  1440    1
  1478  1446  1447    1
  1479  1446  1448   ar
  1480   123   122    2
  1481  1449  1448   ar
  1482   122   121   ar
  1483   122   124   ar
  1484   121   119   ar
  1485   114   113    1
  1486  1452  1453    2
  1487  1452  1454    1
  1488  1452  1455    1
  1489   124   125   ar
  1490   119   120    2
  1491   119   118   ar
  1492   113   115    1
  1493   113   111    1
  1494   108   106    2
  1495   115   116    1
  1496   115   117    1
  1497  1455  1456    1
  1498   125   118   ar
  1499   118   117    1
  1500   107   106    1
  1501   109   106    1
  1502   109   110    1
  1503    22    21    2
  1504   106    94    1
  1505  1458  1463    1
  1506  1458  1457    1
  1507   117   112    1
  1508  1465  1466   ar
  1509  1465  1464   ar
  1510    88    86    2
  1511  1466  1467   ar
  1512   103   102    1
  1513    42    41    2
  1514   111   110    1
  1515   111   112    1
  1516    66    64    2
  1517    65    64    1
  1518  1464  1463    1
  1519  1464  1474   ar
  1520  1467  1474   ar
  1521  1467  1468   ar
  1522    43    41    1
  1523  1463  1461    1
  1524  1456  1457    1
  1525  1469  1468    2
  1526  1474  1473   ar
  1527  1468  1470   ar
  1528    23    21    1
  1529  1457  1459    1
  1530   102   101   ar
  1531   102   104   ar
  1532    21    24    1
  1533    21     6    1
  1534  1473  1471   ar
  1535    64    49    1
  1536    64    67    1
  1537  1470  1471   ar
  1538    41    29    1
  1539    41    44    1
  1540   101    99   ar
  1541  1471  1472    1
  1542    87    86    1
  1543    94    93    1
  1544    86    89    1
  1545    86    72    1
  1546   104   105   ar
  1547    24    25    1
  1548    93    95    1
  1549    93    91    1
  1550    99   100    2
  1551    99    98   ar
  1552     6     5    1
  1553  1461  1462    1
  1554  1461  1459    1
  1555    49    48    1
  1556    25    26    1
  1557    29    28    1
  1558    67    68    1
  1559    89    90    1
  1560    95    96    1
  1561    95    97    1
  1562    44    45    1
  1563   105    98   ar
  1564  1459  1460    1
  1565    72    71    1
  1566    98    97    1
  1567    81    80    1
  1568    78    77   ar
  1569    78    79   ar
  1570    45    46    1
  1571     2     1    1
  1572     2     3    1
  1573    48    46    1
  1574    48    50    1
  1575    71    69    1
  1576    71    73    1
  1577    28    26    1
  1578    28    30    1
  1579    68    69    1
  1580    90    91    1
  1581    77    76   ar
  1582     5     3    1
  1583     5     7    1
  1584    97    92    1
  1585    91    92    1
  1586  1492  1491    2
  1587    26    27    1
  1588    79    80   ar
  1589    79    85   ar
  1590  1460  1475    1
  1591    80    82   ar
  1592     3     4    1
  1593    46    47    1
  1594  1491  1493   ar
  1595  1491  1490   ar
  1596  1493  1494   ar
  1597    55    54   ar
  1598    55    56   ar
  1599    69    70    1
  1600    54    53   ar
  1601    73    75    1
  1602    73    74    1
  1603    76    85   ar
  1604    76    75    1
  1605    50    51    1
  1606    50    52    1
  1607  1490  1488   ar
  1608    85    84   ar
  1609  1494  1487   ar
  1610    82    83   ar
  1611    27    32    1
  1612     7     8    1
  1613     7     9    1
  1614    30    31    1
  1615    30    32    1
  1616    58    57    2
  1617    56    57   ar
  1618    56    63   ar
  1619    70    75    1
  1620    40    39   ar
  1621    40    33   ar
  1622  1488  1487   ar
  1623  1488  1489    2
  1624  1487  1486    1
  1625    47    52    1
  1626    39    37   ar
  1627    53    52    1
  1628    53    63   ar
  1629  1477  1475    2
  1630  1475  1478    1
  1631  1475  1476    1
  1632  1481  1486    1
  1633  1481  1480    1
  1634    57    59   ar
  1635     4     9    1
  1636    83    84   ar
  1637    32    33    1
  1638    63    62   ar
  1639  1478  1479    1
  1640    33    34   ar
  1641  1486  1484    1
  1642    37    38    1
  1643    37    36   ar
  1644     9    10    1
  1645  1479  1480    1
  1646  1512  1511    1
  1647    59    60   ar
  1648    11    10   ar
  1649    11    12   ar
  1650  1480  1482    1
  1651    34    36   ar
  1652    34    35    2
  1653    10    20   ar
  1654    62    60   ar
  1655    60    61    1
  1656    12    13   ar
  1657  1511  1513   ar
  1658  1511  1510   ar
  1659  1484  1482    1
  1660  1484  1485    1
  1661  1513  1514   ar
  1662    20    13   ar
  1663    20    19   ar
  1664  1510  1508   ar
  1665  1482  1483    1
  1666    13    14   ar
  1667    19    17   ar
  1668  1514  1507   ar
  1669  1532  1531    2
  1670  1508  1507   ar
  1671  1508  1509    2
  1672  1533  1531   ar
  1673  1533  1534   ar
  1674  1535  1534    1
  1675  1507  1506    1
  1676    14    15    2
  1677    14    16   ar
  1678  1531  1530   ar
  1679    17    16   ar
  1680    17    18    1
  1681  1483  1495    1
  1682  1534  1536   ar
  1683  1501  1506    1
  1684  1501  1500    1
  1685  1506  1504    1
  1686  1530  1537   ar
  1687  1530  1529   ar
  1688  1497  1495    2
  1689  1536  1537   ar
  1690  1495  1498    1
  1691  1495  1496    1
  1692  1537  1527   ar
  1693  1498  1499    1
  1694  1529  1528   ar
  1695  1499  1500    1
  1696  1500  1502    1
  1697  1504  1505    1
  1698  1504  1502    1
  1699  1527  1528   ar
  1700  1527  1526    1
  1701  1552  1551    2
  1702  1553  1551   ar
  1703  1553  1554   ar
  1704  1555  1554    1
  1705  1551  1550   ar
  1706  1526  1521    1
  1707  1526  1524    1
  1708  1502  1503    1
  1709  1554  1556   ar
  1710  1521  1520    1
  1711  1550  1549    1
  1712  1550  1557   ar
  1713  1556  1557   ar
  1714  1549  1544    1
  1715  1549  1547    1
  1716  1524  1525    1
  1717  1524  1522    1
  1718  1503  1515    1
  1719  1544  1543    1
  1720  1548  1547    1
  1721  1520  1519    1
  1722  1520  1522    1
  1723  1518  1519    1
  1724  1518  1515    1
  1725  1547  1545    1
  1726  1522  1523    1
  1727  1517  1515    2
  1728  1515  1516    1
  1729  1543  1545    1
  1730  1543  1542    1
  1731  1545  1546    1
  1732  1523  1538    1
  1733  1542  1541    1
  1734  1541  1538    1
  1735  1538  1540    2
  1736  1538  1539    1
