ligand
  PyMOL2.2          3D                             0

 26 27  0  0  0  0  0  0  0  0999 V2000
  -13.0200   -7.6790   -0.1810 C   0  0  0  0  0  0  0  0  0  0  0  0
  -17.6430  -13.1960   -1.2040 C   0  0  0  0  0  0  0  0  0  0  0  0
  -21.9480  -15.3960    1.8430 P   0  0  0  0  0  0  0  0  0  0  0  0
  -24.4540  -16.2920    0.6700 P   0  0  0  0  0  0  0  0  0  0  0  0
  -15.8230  -12.5420    1.0550 C   0  0  0  0  0  0  0  0  0  0  0  0
  -15.6980  -10.0230    0.8840 C   0  0  0  0  0  0  0  0  0  0  0  0
  -15.0840  -11.2580    0.7180 C   0  0  0  0  0  0  0  0  0  0  0  0
  -13.7800  -11.2950    0.2520 C   0  0  0  0  0  0  0  0  0  0  0  0
  -13.1400  -12.4760    0.0730 N   0  0  0  0  0  0  0  0  0  0  0  0
  -13.1380  -10.1400   -0.0280 N   0  0  0  0  0  0  0  0  0  0  0  0
  -13.7570   -8.9510    0.1400 C   0  0  0  0  0  0  0  0  0  0  0  0
  -15.0330   -8.8960    0.5940 N   0  0  0  0  0  0  0  0  0  0  0  0
  -21.6240  -14.7390    3.1590 O   0  5  0  0  0  0  0  0  0  0  0  0
  -24.0310  -17.7080    0.9140 O   0  0  0  0  0  0  0  0  0  0  0  0
  -19.5710  -11.6270    2.0050 S   0  0  0  0  0  0  0  0  0  0  0  0
  -17.8580  -11.7740    2.2440 C   0  0  0  0  0  0  0  0  0  0  0  0
  -21.3980  -16.7730    1.6060 O   0  0  0  0  0  0  0  0  0  0  0  0
  -25.8550  -16.1050    1.1490 O   0  5  0  0  0  0  0  0  0  0  0  0
  -17.2640  -12.3040    1.1390 N   0  0  0  0  0  0  0  0  0  0  0  0
  -23.5550  -15.3510    1.6370 O   0  0  0  0  0  0  0  0  0  0  0  0
  -24.2400  -15.7710   -0.7250 O   0  0  0  0  0  0  0  0  0  0  0  0
  -18.0960  -12.6040    0.1040 C   0  0  0  0  0  0  0  0  0  0  0  0
  -19.5120  -12.2620    0.4080 C   0  0  0  0  0  0  0  0  0  0  0  0
  -20.8120  -12.3760   -0.3430 C   0  0  0  0  0  0  0  0  0  0  0  0
  -21.8150  -13.1160    0.5280 C   0  0  0  0  0  0  0  0  0  0  0  0
  -21.3740  -14.4610    0.6680 O   0  0  0  0  0  0  0  0  0  0  0  0
  3 13  1  0  0  0  0
  3 17  2  0  0  0  0
  3 20  1  0  0  0  0
  4 14  1  0  0  0  0
  4 18  1  0  0  0  0
  4 21  2  0  0  0  0
  5 19  1  0  0  0  0
  5  7  1  0  0  0  0
  6  7  4  0  0  0  0
  7  8  4  0  0  0  0
  8  9  1  0  0  0  0
  8 10  4  0  0  0  0
  1 11  1  0  0  0  0
 10 11  4  0  0  0  0
  6 12  4  0  0  0  0
 11 12  4  0  0  0  0
 15 23  4  0  0  0  0
 15 16  4  0  0  0  0
 16 19  4  0  0  0  0
 19 22  4  0  0  0  0
  4 20  1  0  0  0  0
  2 22  1  0  0  0  0
 22 23  4  0  0  0  0
 23 24  1  0  0  0  0
 24 25  1  0  0  0  0
 25 26  1  0  0  0  0
  3 26  1  0  0  0  0
M  END
$$$$
