ligand
 OpenBabel11021811433D
libRbt.so/2013.1/901 2013/11/27
 26 27  0  0  0  0  0  0  0  0999 V2000
  -12.7185   -7.3242   -0.4009 C   0  0  0  0  0  0  0  0  0  0  0  0
  -17.6899  -13.6193   -0.6892 C   0  0  0  0  0  0  0  0  0  0  0  0
  -22.1807  -15.6429    2.1119 P   0  0  1  0  0  0  0  0  0  0  0  0
  -24.4506  -15.9340    0.3170 P   0  0  1  0  0  0  0  0  0  0  0  0
  -15.5585  -12.1747    0.7987 C   0  0  0  0  0  0  0  0  0  0  0  0
  -15.4780   -9.6808    0.3939 C   0  0  0  0  0  0  0  0  0  0  0  0
  -14.8078  -10.8951    0.4714 C   0  0  0  0  0  0  0  0  0  0  0  0
  -13.4392  -10.9141    0.2577 C   0  0  0  0  0  0  0  0  0  0  0  0
  -12.7426  -12.0747    0.3217 N   0  0  0  0  0  0  0  0  0  0  0  0
  -12.7905   -9.7618   -0.0183 N   0  0  0  0  0  0  0  0  0  0  0  0
  -13.4647   -8.5933   -0.0901 C   0  0  0  0  0  0  0  0  0  0  0  0
  -14.8040   -8.5563    0.1152 N   0  0  0  0  0  0  0  0  0  0  0  0
  -22.9710  -14.8873    3.1478 O   0  5  0  0  0  0  0  0  0  0  0  0
  -25.0930  -17.1136   -0.3459 O   0  0  0  0  0  0  0  0  0  0  0  0
  -19.1407  -10.9021    1.9545 S   0  0  0  0  0  0  0  0  0  0  0  0
  -17.4065  -10.9739    1.9336 C   0  0  0  0  0  0  0  0  0  0  0  0
  -21.0410  -16.4912    2.5979 O   0  0  0  0  0  0  0  0  0  0  0  0
  -25.4001  -15.3452    1.3064 O   0  5  0  0  0  0  0  0  0  0  0  0
  -16.9763  -11.8989    1.0313 N   0  0  0  0  0  0  0  0  0  0  0  0
  -23.2190  -16.4982    1.2078 O   0  0  0  0  0  0  0  0  0  0  0  0
  -23.8542  -14.9043   -0.6034 O   0  0  0  0  0  0  0  0  0  0  0  0
  -17.9510  -12.5611    0.3494 C   0  0  1  0  0  0  0  0  0  0  0  0
  -19.3132  -12.1049    0.7377 C   0  0  1  0  0  0  0  0  0  0  0  0
  -20.7115  -12.4782    0.3228 C   0  0  0  0  0  0  0  0  0  0  0  0
  -21.3811  -13.2145    1.4725 C   0  0  0  0  0  0  0  0  0  0  0  0
  -21.5559  -14.5727    1.0879 O   0  0  0  0  0  0  0  0  0  0  0  0
  1 11  1  0  0  0  0
  3 13  1  1  0  0  0
  3 17  2  0  0  0  0
  3 20  1  0  0  0  0
  3 26  1  0  0  0  0
  4 14  1  6  0  0  0
  4 18  1  0  0  0  0
  4 21  2  0  0  0  0
  4 20  1  0  0  0  0
  5 19  1  0  0  0  0
  5  7  1  0  0  0  0
  6  7  2  0  0  0  0
  6 12  1  0  0  0  0
  7  8  1  0  0  0  0
  8  9  1  0  0  0  0
  8 10  2  0  0  0  0
 10 11  1  0  0  0  0
 11 12  2  0  0  0  0
 15 23  1  0  0  0  0
 15 16  1  0  0  0  0
 16 19  1  0  0  0  0
 19 22  1  0  0  0  0
 22  2  1  6  0  0  0
 22 23  1  0  0  0  0
 23 24  1  1  0  0  0
 24 25  1  0  0  0  0
 25 26  1  0  0  0  0
M  CHG  2  13  -1  18  -1
M  END
>  <CHROM.1>
59.20709526,-53.85654874,-1.50420960,179.09551284,-69.06729252,-111.19140300
177.22660622,22.02063794,-19.31880574,-12.98827464,0.86372878,0.55459663
0.08170098,0.00087973

>  <Name>
ligand

>  <RI>
0

>  <Rbt.Current_Directory>
/home/itssahil/PROJECTS/Mol_Feturizer/New_Systems/rnas/2GDI

>  <Rbt.Executable>
rbdock ($Id: //depot/dev/client3/rdock/2013.1/src/exe/rbdock.cxx#4 $)

>  <Rbt.Library>
libRbt.so (2013.1, Build901 2013/11/27)

>  <Rbt.Parameter_File>
/export/apps/rDock/src/rDock_2013.1_src/data/scripts/dock_solv.prm

>  <Rbt.Receptor>
prm/pocket_docking_2.prm

>  <SCORE>
-10.8654

>  <SCORE.INTER>
-14.8448

>  <SCORE.INTER.CONST>
1

>  <SCORE.INTER.POLAR>
0

>  <SCORE.INTER.ROT>
8

>  <SCORE.INTER.SOLV>
21.4258

>  <SCORE.INTER.VDW>
-25.9718

>  <SCORE.INTER.norm>
-0.570956

>  <SCORE.INTRA>
3.96287

>  <SCORE.INTRA.DIHEDRAL>
4.21006

>  <SCORE.INTRA.DIHEDRAL.0>
8.13976

>  <SCORE.INTRA.POLAR>
0

>  <SCORE.INTRA.POLAR.0>
0

>  <SCORE.INTRA.REPUL>
0

>  <SCORE.INTRA.REPUL.0>
0

>  <SCORE.INTRA.SOLV>
2.13568

>  <SCORE.INTRA.SOLV.lig_0>
-82.9561

>  <SCORE.INTRA.VDW>
0.789994

>  <SCORE.INTRA.VDW.0>
-3.29171

>  <SCORE.INTRA.norm>
0.152418

>  <SCORE.RESTR>
0.0165386

>  <SCORE.RESTR.CAVITY>
0.0165386

>  <SCORE.RESTR.norm>
0.0006361

>  <SCORE.SYSTEM>
0

>  <SCORE.SYSTEM.CONST>
0

>  <SCORE.SYSTEM.DIHEDRAL>
0

>  <SCORE.SYSTEM.SOLV>
0

>  <SCORE.SYSTEM.norm>
0

>  <SCORE.heavy>
26

>  <SCORE.norm>
-0.417902

>  <RMSD>
0.810

$$$$
ligand
 OpenBabel11021811433D
libRbt.so/2013.1/901 2013/11/27
 26 27  0  0  0  0  0  0  0  0999 V2000
  -12.6347   -7.5047   -0.5638 C   0  0  0  0  0  0  0  0  0  0  0  0
  -17.3936  -13.1273   -1.0174 C   0  0  0  0  0  0  0  0  0  0  0  0
  -21.3029  -15.4840    1.4521 P   0  0  1  0  0  0  0  0  0  0  0  0
  -24.0734  -15.5907    0.5734 P   0  0  1  0  0  0  0  0  0  0  0  0
  -15.6074  -12.1204    1.1364 C   0  0  0  0  0  0  0  0  0  0  0  0
  -15.3053   -9.6203    0.9166 C   0  0  0  0  0  0  0  0  0  0  0  0
  -14.8251  -10.9016    0.6771 C   0  0  0  0  0  0  0  0  0  0  0  0
  -13.6125  -11.0458    0.0233 C   0  0  0  0  0  0  0  0  0  0  0  0
  -13.1042  -12.2755   -0.2336 N   0  0  0  0  0  0  0  0  0  0  0  0
  -12.9278   -9.9476   -0.3636 N   0  0  0  0  0  0  0  0  0  0  0  0
  -13.4163   -8.7117   -0.1208 C   0  0  0  0  0  0  0  0  0  0  0  0
  -14.6018   -8.5519    0.5168 N   0  0  0  0  0  0  0  0  0  0  0  0
  -21.8873  -14.8977    2.7103 O   0  5  0  0  0  0  0  0  0  0  0  0
  -24.8549  -16.6189   -0.1852 O   0  0  0  0  0  0  0  0  0  0  0  0
  -19.3521  -10.9787    1.8154 S   0  0  0  0  0  0  0  0  0  0  0  0
  -17.6486  -11.1147    2.1198 C   0  0  0  0  0  0  0  0  0  0  0  0
  -20.2066  -16.4981    1.6085 O   0  0  0  0  0  0  0  0  0  0  0  0
  -24.4623  -15.6374    2.0135 O   0  5  0  0  0  0  0  0  0  0  0  0
  -17.0438  -11.8431    1.1408 N   0  0  0  0  0  0  0  0  0  0  0  0
  -22.5202  -16.0551    0.5471 O   0  0  0  0  0  0  0  0  0  0  0  0
  -24.0951  -14.1967    0.0082 O   0  0  0  0  0  0  0  0  0  0  0  0
  -17.8603  -12.3048    0.1541 C   0  0  1  0  0  0  0  0  0  0  0  0
  -19.2740  -11.8868    0.3572 C   0  0  1  0  0  0  0  0  0  0  0  0
  -20.5599  -12.1062   -0.3946 C   0  0  0  0  0  0  0  0  0  0  0  0
  -21.4279  -13.0729    0.3955 C   0  0  0  0  0  0  0  0  0  0  0  0
  -20.6955  -14.2783    0.5794 O   0  0  0  0  0  0  0  0  0  0  0  0
  1 11  1  0  0  0  0
  3 13  1  1  0  0  0
  3 17  2  0  0  0  0
  3 20  1  0  0  0  0
  3 26  1  0  0  0  0
  4 14  1  6  0  0  0
  4 18  1  0  0  0  0
  4 21  2  0  0  0  0
  4 20  1  0  0  0  0
  5 19  1  0  0  0  0
  5  7  1  0  0  0  0
  6  7  2  0  0  0  0
  6 12  1  0  0  0  0
  7  8  1  0  0  0  0
  8  9  1  0  0  0  0
  8 10  2  0  0  0  0
 10 11  1  0  0  0  0
 11 12  2  0  0  0  0
 15 23  1  0  0  0  0
 15 16  1  0  0  0  0
 16 19  1  0  0  0  0
 19 22  1  0  0  0  0
 22  2  1  6  0  0  0
 22 23  1  0  0  0  0
 23 24  1  1  0  0  0
 24 25  1  0  0  0  0
 25 26  1  0  0  0  0
M  CHG  2  13  -1  18  -1
M  END
>  <CHROM.1>
24.18701324,-77.21195883,30.17804439,-166.55892824,-70.62257474,-57.69495314
176.56394306,-44.89538641,-19.07229131,-12.87133826,0.70303187,0.54925043
0.09924599,0.03402326

>  <Name>
ligand

>  <RI>
0

>  <Rbt.Current_Directory>
/home/itssahil/PROJECTS/Mol_Feturizer/New_Systems/rnas/2GDI

>  <Rbt.Executable>
rbdock ($Id: //depot/dev/client3/rdock/2013.1/src/exe/rbdock.cxx#4 $)

>  <Rbt.Library>
libRbt.so (2013.1, Build901 2013/11/27)

>  <Rbt.Parameter_File>
/export/apps/rDock/src/rDock_2013.1_src/data/scripts/dock_solv.prm

>  <Rbt.Receptor>
prm/pocket_docking_4.prm

>  <SCORE>
-16.0746

>  <SCORE.INTER>
-16.7384

>  <SCORE.INTER.CONST>
1

>  <SCORE.INTER.POLAR>
0

>  <SCORE.INTER.ROT>
8

>  <SCORE.INTER.SOLV>
17.9458

>  <SCORE.INTER.VDW>
-26.0742

>  <SCORE.INTER.norm>
-0.643786

>  <SCORE.INTRA>
0.663824

>  <SCORE.INTRA.DIHEDRAL>
-1.38981

>  <SCORE.INTRA.DIHEDRAL.0>
8.13976

>  <SCORE.INTRA.POLAR>
0

>  <SCORE.INTRA.POLAR.0>
0

>  <SCORE.INTRA.REPUL>
0

>  <SCORE.INTRA.REPUL.0>
0

>  <SCORE.INTRA.SOLV>
3.22075

>  <SCORE.INTRA.SOLV.lig_0>
-82.9561

>  <SCORE.INTRA.VDW>
-0.251645

>  <SCORE.INTRA.VDW.0>
-3.29171

>  <SCORE.INTRA.norm>
0.0255317

>  <SCORE.RESTR>
0

>  <SCORE.RESTR.CAVITY>
0

>  <SCORE.RESTR.norm>
0

>  <SCORE.SYSTEM>
0

>  <SCORE.SYSTEM.CONST>
0

>  <SCORE.SYSTEM.DIHEDRAL>
0

>  <SCORE.SYSTEM.SOLV>
0

>  <SCORE.SYSTEM.norm>
0

>  <SCORE.heavy>
26

>  <SCORE.norm>
-0.618254

>  <RMSD>
0.864

$$$$
ligand
 OpenBabel11021811433D
libRbt.so/2013.1/901 2013/11/27
 26 27  0  0  0  0  0  0  0  0999 V2000
  -12.6273   -7.9028   -0.4772 C   0  0  0  0  0  0  0  0  0  0  0  0
  -17.4388  -13.2325   -0.9300 C   0  0  0  0  0  0  0  0  0  0  0  0
  -21.4206  -15.6692    1.1218 P   0  0  1  0  0  0  0  0  0  0  0  0
  -24.2900  -15.3620    1.4834 P   0  0  1  0  0  0  0  0  0  0  0  0
  -15.7690  -12.3485    1.3664 C   0  0  0  0  0  0  0  0  0  0  0  0
  -15.3393   -9.8687    1.1293 C   0  0  0  0  0  0  0  0  0  0  0  0
  -14.9426  -11.1744    0.8694 C   0  0  0  0  0  0  0  0  0  0  0  0
  -13.7717  -11.3849    0.1599 C   0  0  0  0  0  0  0  0  0  0  0  0
  -13.3450  -12.6406   -0.1187 N   0  0  0  0  0  0  0  0  0  0  0  0
  -13.0459  -10.3259   -0.2601 N   0  0  0  0  0  0  0  0  0  0  0  0
  -13.4533   -9.0651    0.0035 C   0  0  0  0  0  0  0  0  0  0  0  0
  -14.5969   -8.8405    0.6955 N   0  0  0  0  0  0  0  0  0  0  0  0
  -20.4870  -16.2800    2.1336 O   0  5  0  0  0  0  0  0  0  0  0  0
  -24.5607  -16.8339    1.5452 O   0  0  0  0  0  0  0  0  0  0  0  0
  -19.5276  -11.1609    1.8669 S   0  0  0  0  0  0  0  0  0  0  0  0
  -17.8482  -11.3428    2.2667 C   0  0  0  0  0  0  0  0  0  0  0  0
  -21.7816  -16.5023   -0.0742 O   0  0  0  0  0  0  0  0  0  0  0  0
  -25.0758  -14.6697    2.5466 O   0  5  0  0  0  0  0  0  0  0  0  0
  -17.1980  -12.0432    1.2963 N   0  0  0  0  0  0  0  0  0  0  0  0
  -22.7394  -15.1428    1.9032 O   0  0  0  0  0  0  0  0  0  0  0  0
  -24.4446  -14.7194    0.1319 O   0  0  0  0  0  0  0  0  0  0  0  0
  -17.9613  -12.4486    0.2444 C   0  0  1  0  0  0  0  0  0  0  0  0
  -19.3771  -12.0112    0.3798 C   0  0  1  0  0  0  0  0  0  0  0  0
  -20.6189  -12.1746   -0.4559 C   0  0  0  0  0  0  0  0  0  0  0  0
  -21.5241  -13.1985    0.2108 C   0  0  0  0  0  0  0  0  0  0  0  0
  -20.7340  -14.3284    0.5604 O   0  0  0  0  0  0  0  0  0  0  0  0
  1 11  1  0  0  0  0
  3 13  1  1  0  0  0
  3 17  2  0  0  0  0
  3 20  1  0  0  0  0
  3 26  1  0  0  0  0
  4 14  1  6  0  0  0
  4 18  1  0  0  0  0
  4 21  2  0  0  0  0
  4 20  1  0  0  0  0
  5 19  1  0  0  0  0
  5  7  1  0  0  0  0
  6  7  2  0  0  0  0
  6 12  1  0  0  0  0
  7  8  1  0  0  0  0
  8  9  1  0  0  0  0
  8 10  2  0  0  0  0
 10 11  1  0  0  0  0
 11 12  2  0  0  0  0
 15 23  1  0  0  0  0
 15 16  1  0  0  0  0
 16 19  1  0  0  0  0
 19 22  1  0  0  0  0
 22  2  1  6  0  0  0
 22 23  1  0  0  0  0
 23 24  1  1  0  0  0
 24 25  1  0  0  0  0
 25 26  1  0  0  0  0
M  CHG  2  13  -1  18  -1
M  END
>  <CHROM.1>
-133.84057712,-83.01082580,36.48641859,64.00905740,-72.95096767,-47.47036502
-172.43617349,-145.52876503,-19.20320842,-13.01594105,0.85676938,0.49516563
0.18905018,0.14756114

>  <Name>
ligand

>  <RI>
0

>  <Rbt.Current_Directory>
/home/itssahil/PROJECTS/Mol_Feturizer/New_Systems/rnas/2GDI

>  <Rbt.Executable>
rbdock ($Id: //depot/dev/client3/rdock/2013.1/src/exe/rbdock.cxx#4 $)

>  <Rbt.Library>
libRbt.so (2013.1, Build901 2013/11/27)

>  <Rbt.Parameter_File>
/export/apps/rDock/src/rDock_2013.1_src/data/scripts/dock_solv.prm

>  <Rbt.Receptor>
prm/pocket_docking_2.prm

>  <SCORE>
-14.6077

>  <SCORE.INTER>
-15.5879

>  <SCORE.INTER.CONST>
1

>  <SCORE.INTER.POLAR>
0

>  <SCORE.INTER.ROT>
8

>  <SCORE.INTER.SOLV>
15.7781

>  <SCORE.INTER.VDW>
-24.5846

>  <SCORE.INTER.norm>
-0.599535

>  <SCORE.INTRA>
0.980192

>  <SCORE.INTRA.DIHEDRAL>
1.21858

>  <SCORE.INTRA.DIHEDRAL.0>
8.13976

>  <SCORE.INTRA.POLAR>
0

>  <SCORE.INTRA.POLAR.0>
0

>  <SCORE.INTRA.REPUL>
0

>  <SCORE.INTRA.REPUL.0>
0

>  <SCORE.INTRA.SOLV>
1.25822

>  <SCORE.INTRA.SOLV.lig_0>
-82.9561

>  <SCORE.INTRA.VDW>
-0.258208

>  <SCORE.INTRA.VDW.0>
-3.29171

>  <SCORE.INTRA.norm>
0.0376997

>  <SCORE.RESTR>
0

>  <SCORE.RESTR.CAVITY>
0

>  <SCORE.RESTR.norm>
0

>  <SCORE.SYSTEM>
0

>  <SCORE.SYSTEM.CONST>
0

>  <SCORE.SYSTEM.DIHEDRAL>
0

>  <SCORE.SYSTEM.SOLV>
0

>  <SCORE.SYSTEM.norm>
0

>  <SCORE.heavy>
26

>  <SCORE.norm>
-0.561835

>  <RMSD>
0.913

$$$$
ligand
 OpenBabel11021811433D
libRbt.so/2013.1/901 2013/11/27
 26 27  0  0  0  0  0  0  0  0999 V2000
  -12.5677   -7.7491   -0.5403 C   0  0  0  0  0  0  0  0  0  0  0  0
  -17.4493  -13.0159   -1.0849 C   0  0  0  0  0  0  0  0  0  0  0  0
  -22.0214  -14.7699    1.7803 P   0  0  1  0  0  0  0  0  0  0  0  0
  -24.2412  -16.5125    1.0771 P   0  0  1  0  0  0  0  0  0  0  0  0
  -15.7272  -12.2215    1.2057 C   0  0  0  0  0  0  0  0  0  0  0  0
  -15.3518   -9.7399    0.9038 C   0  0  0  0  0  0  0  0  0  0  0  0
  -14.8952  -11.0409    0.7342 C   0  0  0  0  0  0  0  0  0  0  0  0
  -13.6603  -11.2399    0.1389 C   0  0  0  0  0  0  0  0  0  0  0  0
  -13.1736  -12.4906   -0.0489 N   0  0  0  0  0  0  0  0  0  0  0  0
  -12.9319  -10.1745   -0.2598 N   0  0  0  0  0  0  0  0  0  0  0  0
  -13.3982   -8.9186   -0.0855 C   0  0  0  0  0  0  0  0  0  0  0  0
  -14.6048   -8.7053    0.4941 N   0  0  0  0  0  0  0  0  0  0  0  0
  -22.5723  -14.4747    3.1507 O   0  5  0  0  0  0  0  0  0  0  0  0
  -25.1193  -16.6188   -0.1317 O   0  0  0  0  0  0  0  0  0  0  0  0
  -19.4611  -11.0052    1.8111 S   0  0  0  0  0  0  0  0  0  0  0  0
  -17.7771  -11.2190    2.1740 C   0  0  0  0  0  0  0  0  0  0  0  0
  -20.8516  -15.7074    1.6947 O   0  0  0  0  0  0  0  0  0  0  0  0
  -23.3441  -17.7033    1.1427 O   0  5  0  0  0  0  0  0  0  0  0  0
  -17.1534  -11.8973    1.1712 N   0  0  0  0  0  0  0  0  0  0  0  0
  -23.2462  -15.2552    0.8363 O   0  0  0  0  0  0  0  0  0  0  0  0
  -24.9426  -16.2380    2.3794 O   0  0  0  0  0  0  0  0  0  0  0  0
  -17.9406  -12.2617    0.1220 C   0  0  1  0  0  0  0  0  0  0  0  0
  -19.3482  -11.8118    0.2966 C   0  0  1  0  0  0  0  0  0  0  0  0
  -20.6068  -11.9352   -0.5205 C   0  0  0  0  0  0  0  0  0  0  0  0
  -21.2278  -13.2979   -0.2566 C   0  0  0  0  0  0  0  0  0  0  0  0
  -21.5476  -13.3796    1.1269 O   0  0  0  0  0  0  0  0  0  0  0  0
  1 11  1  0  0  0  0
  3 13  1  1  0  0  0
  3 17  2  0  0  0  0
  3 20  1  0  0  0  0
  3 26  1  0  0  0  0
  4 14  1  6  0  0  0
  4 18  1  0  0  0  0
  4 21  2  0  0  0  0
  4 20  1  0  0  0  0
  5 19  1  0  0  0  0
  5  7  1  0  0  0  0
  6  7  2  0  0  0  0
  6 12  1  0  0  0  0
  7  8  1  0  0  0  0
  8  9  1  0  0  0  0
  8 10  2  0  0  0  0
 10 11  1  0  0  0  0
 11 12  2  0  0  0  0
 15 23  1  0  0  0  0
 15 16  1  0  0  0  0
 16 19  1  0  0  0  0
 19 22  1  0  0  0  0
 22  2  1  6  0  0  0
 22 23  1  0  0  0  0
 23 24  1  1  0  0  0
 24 25  1  0  0  0  0
 25 26  1  0  0  0  0
M  CHG  2  13  -1  18  -1
M  END
>  <CHROM.1>
-58.10918254,-82.78208371,28.68291692,-174.91755405,-96.33365233,61.07035035
-170.96919656,-167.57500877,-19.27432232,-12.98472601,0.86497392,0.50748877
0.26198101,0.25309725

>  <Name>
ligand

>  <RI>
0

>  <Rbt.Current_Directory>
/home/itssahil/PROJECTS/Mol_Feturizer/New_Systems/rnas/2GDI

>  <Rbt.Executable>
rbdock ($Id: //depot/dev/client3/rdock/2013.1/src/exe/rbdock.cxx#4 $)

>  <Rbt.Library>
libRbt.so (2013.1, Build901 2013/11/27)

>  <Rbt.Parameter_File>
/export/apps/rDock/src/rDock_2013.1_src/data/scripts/dock_solv.prm

>  <Rbt.Receptor>
prm/pocket_docking_2.prm

>  <SCORE>
-18.1492

>  <SCORE.INTER>
-17.1265

>  <SCORE.INTER.CONST>
1

>  <SCORE.INTER.POLAR>
0

>  <SCORE.INTER.ROT>
8

>  <SCORE.INTER.SOLV>
17.8438

>  <SCORE.INTER.VDW>
-26.299

>  <SCORE.INTER.norm>
-0.658712

>  <SCORE.INTRA>
-1.02267

>  <SCORE.INTRA.DIHEDRAL>
-2.82432

>  <SCORE.INTRA.DIHEDRAL.0>
8.13976

>  <SCORE.INTRA.POLAR>
0

>  <SCORE.INTRA.POLAR.0>
0

>  <SCORE.INTRA.REPUL>
0

>  <SCORE.INTRA.REPUL.0>
0

>  <SCORE.INTRA.SOLV>
2.0038

>  <SCORE.INTRA.SOLV.lig_0>
-82.9561

>  <SCORE.INTRA.VDW>
-0.612409

>  <SCORE.INTRA.VDW.0>
-3.29171

>  <SCORE.INTRA.norm>
-0.0393336

>  <SCORE.RESTR>
0

>  <SCORE.RESTR.CAVITY>
0

>  <SCORE.RESTR.norm>
0

>  <SCORE.SYSTEM>
0

>  <SCORE.SYSTEM.CONST>
0

>  <SCORE.SYSTEM.DIHEDRAL>
0

>  <SCORE.SYSTEM.SOLV>
0

>  <SCORE.SYSTEM.norm>
0

>  <SCORE.heavy>
26

>  <SCORE.norm>
-0.698046

>  <RMSD>
0.931

$$$$
ligand
 OpenBabel11021811433D
libRbt.so/2013.1/901 2013/11/27
 26 27  0  0  0  0  0  0  0  0999 V2000
  -12.7165   -7.9358   -0.3973 C   0  0  0  0  0  0  0  0  0  0  0  0
  -17.7173  -13.8298   -0.5044 C   0  0  0  0  0  0  0  0  0  0  0  0
  -21.6696  -15.1560    1.7445 P   0  0  1  0  0  0  0  0  0  0  0  0
  -23.8842  -16.5806    0.5096 P   0  0  1  0  0  0  0  0  0  0  0  0
  -15.7907  -12.4802    1.3149 C   0  0  0  0  0  0  0  0  0  0  0  0
  -15.4454   -9.9884    1.0657 C   0  0  0  0  0  0  0  0  0  0  0  0
  -14.9815  -11.2803    0.8524 C   0  0  0  0  0  0  0  0  0  0  0  0
  -13.7602  -11.4526    0.2219 C   0  0  0  0  0  0  0  0  0  0  0  0
  -13.2671  -12.6936   -0.0090 N   0  0  0  0  0  0  0  0  0  0  0  0
  -13.0516  -10.3708   -0.1683 N   0  0  0  0  0  0  0  0  0  0  0  0
  -13.5247   -9.1241    0.0488 C   0  0  0  0  0  0  0  0  0  0  0  0
  -14.7183   -8.9368    0.6634 N   0  0  0  0  0  0  0  0  0  0  0  0
  -21.9072  -15.9206    3.0202 O   0  5  0  0  0  0  0  0  0  0  0  0
  -24.6593  -16.9159    1.7467 O   0  0  0  0  0  0  0  0  0  0  0  0
  -19.4669  -11.1150    1.9543 S   0  0  0  0  0  0  0  0  0  0  0  0
  -17.7517  -11.2414    2.1894 C   0  0  0  0  0  0  0  0  0  0  0  0
  -20.4398  -15.4988    0.9542 O   0  0  0  0  0  0  0  0  0  0  0  0
  -24.8284  -16.1588   -0.5664 O   0  5  0  0  0  0  0  0  0  0  0  0
  -17.2187  -12.1636    1.3407 N   0  0  0  0  0  0  0  0  0  0  0  0
  -23.0094  -15.2556    0.8379 O   0  0  0  0  0  0  0  0  0  0  0  0
  -22.8991  -17.6193    0.0470 O   0  0  0  0  0  0  0  0  0  0  0  0
  -18.0996  -12.7823    0.5072 C   0  0  1  0  0  0  0  0  0  0  0  0
  -19.4907  -12.2900    0.6990 C   0  0  1  0  0  0  0  0  0  0  0  0
  -20.8219  -12.6113    0.0730 C   0  0  0  0  0  0  0  0  0  0  0  0
  -21.8872  -12.5960    1.1579 C   0  0  0  0  0  0  0  0  0  0  0  0
  -21.5601  -13.5956    2.1154 O   0  0  0  0  0  0  0  0  0  0  0  0
  1 11  1  0  0  0  0
  3 13  1  1  0  0  0
  3 17  2  0  0  0  0
  3 20  1  0  0  0  0
  3 26  1  0  0  0  0
  4 14  1  1  0  0  0
  4 18  1  0  0  0  0
  4 21  2  0  0  0  0
  4 20  1  0  0  0  0
  5 19  1  0  0  0  0
  5  7  1  0  0  0  0
  6  7  2  0  0  0  0
  6 12  1  0  0  0  0
  7  8  1  0  0  0  0
  8  9  1  0  0  0  0
  8 10  2  0  0  0  0
 10 11  1  0  0  0  0
 11 12  2  0  0  0  0
 15 23  1  0  0  0  0
 15 16  1  0  0  0  0
 16 19  1  0  0  0  0
 19 22  1  0  0  0  0
 22  2  1  6  0  0  0
 22 23  1  0  0  0  0
 23 24  1  1  0  0  0
 24 25  1  0  0  0  0
 25 26  1  0  0  0  0
M  CHG  2  13  -1  18  -1
M  END
>  <CHROM.1>
-46.46377873,-65.40131144,27.95023930,74.67360422,-37.56946315,-61.21836281
-69.48478761,-153.72579058,-19.21268471,-13.21668316,0.90318520,0.52289568
0.25112496,0.30894811

>  <Name>
ligand

>  <RI>
0

>  <Rbt.Current_Directory>
/home/itssahil/PROJECTS/Mol_Feturizer/New_Systems/rnas/2GDI

>  <Rbt.Executable>
rbdock ($Id: //depot/dev/client3/rdock/2013.1/src/exe/rbdock.cxx#4 $)

>  <Rbt.Library>
libRbt.so (2013.1, Build901 2013/11/27)

>  <Rbt.Parameter_File>
/export/apps/rDock/src/rDock_2013.1_src/data/scripts/dock_solv.prm

>  <Rbt.Receptor>
prm/pocket_docking_2.prm

>  <SCORE>
-12.8515

>  <SCORE.INTER>
-14.9658

>  <SCORE.INTER.CONST>
1

>  <SCORE.INTER.POLAR>
0

>  <SCORE.INTER.ROT>
8

>  <SCORE.INTER.SOLV>
18.7528

>  <SCORE.INTER.VDW>
-25.1615

>  <SCORE.INTER.norm>
-0.575609

>  <SCORE.INTRA>
2.1143

>  <SCORE.INTRA.DIHEDRAL>
-1.16497

>  <SCORE.INTRA.DIHEDRAL.0>
8.13976

>  <SCORE.INTRA.POLAR>
0

>  <SCORE.INTRA.POLAR.0>
0

>  <SCORE.INTRA.REPUL>
0

>  <SCORE.INTRA.REPUL.0>
0

>  <SCORE.INTRA.SOLV>
2.34922

>  <SCORE.INTRA.SOLV.lig_0>
-82.9561

>  <SCORE.INTRA.VDW>
1.52218

>  <SCORE.INTRA.VDW.0>
-3.29171

>  <SCORE.INTRA.norm>
0.0813193

>  <SCORE.RESTR>
0

>  <SCORE.RESTR.CAVITY>
0

>  <SCORE.RESTR.norm>
0

>  <SCORE.SYSTEM>
0

>  <SCORE.SYSTEM.CONST>
0

>  <SCORE.SYSTEM.DIHEDRAL>
0

>  <SCORE.SYSTEM.SOLV>
0

>  <SCORE.SYSTEM.norm>
0

>  <SCORE.heavy>
26

>  <SCORE.norm>
-0.494289

>  <RMSD>
0.958

$$$$
ligand
 OpenBabel11021811433D
libRbt.so/2013.1/901 2013/11/27
 26 27  0  0  0  0  0  0  0  0999 V2000
  -12.9234   -7.7920   -0.2685 C   0  0  0  0  0  0  0  0  0  0  0  0
  -17.4612  -14.0731   -0.5131 C   0  0  0  0  0  0  0  0  0  0  0  0
  -22.1249  -14.9492    2.6181 P   0  0  1  0  0  0  0  0  0  0  0  0
  -24.4504  -14.9916    0.8721 P   0  0  1  0  0  0  0  0  0  0  0  0
  -15.5373  -12.6737    1.2710 C   0  0  0  0  0  0  0  0  0  0  0  0
  -15.4765  -10.1581    1.0289 C   0  0  0  0  0  0  0  0  0  0  0  0
  -14.8489  -11.3850    0.8539 C   0  0  0  0  0  0  0  0  0  0  0  0
  -13.5777  -11.4092    0.3042 C   0  0  0  0  0  0  0  0  0  0  0  0
  -12.9261  -12.5820    0.1132 N   0  0  0  0  0  0  0  0  0  0  0  0
  -12.9796  -10.2499   -0.0463 N   0  0  0  0  0  0  0  0  0  0  0  0
  -13.6111   -9.0690    0.1321 C   0  0  0  0  0  0  0  0  0  0  0  0
  -14.8556   -9.0266    0.6676 N   0  0  0  0  0  0  0  0  0  0  0  0
  -21.9018  -14.0020    3.7678 O   0  5  0  0  0  0  0  0  0  0  0  0
  -24.2130  -16.4692    0.9357 O   0  0  0  0  0  0  0  0  0  0  0  0
  -19.2619  -11.6414    2.1926 S   0  0  0  0  0  0  0  0  0  0  0  0
  -17.5310  -11.6434    2.3238 C   0  0  0  0  0  0  0  0  0  0  0  0
  -22.4969  -16.3648    2.9534 O   0  0  0  0  0  0  0  0  0  0  0  0
  -25.6347  -14.6446    1.7114 O   0  5  0  0  0  0  0  0  0  0  0  0
  -16.9812  -12.4735    1.3947 N   0  0  0  0  0  0  0  0  0  0  0  0
  -23.1958  -14.2737    1.6064 O   0  0  0  0  0  0  0  0  0  0  0  0
  -24.5170  -14.3933   -0.5066 O   0  0  0  0  0  0  0  0  0  0  0  0
  -17.8608  -13.1150    0.5772 C   0  0  1  0  0  0  0  0  0  0  0  0
  -19.2714  -12.7459    0.8746 C   0  0  1  0  0  0  0  0  0  0  0  0
  -20.6094  -13.1382    0.3063 C   0  0  0  0  0  0  0  0  0  0  0  0
  -20.7502  -14.6499    0.3897 C   0  0  0  0  0  0  0  0  0  0  0  0
  -20.7653  -15.0192    1.7632 O   0  0  0  0  0  0  0  0  0  0  0  0
  1 11  1  0  0  0  0
  3 13  1  1  0  0  0
  3 17  2  0  0  0  0
  3 20  1  0  0  0  0
  3 26  1  0  0  0  0
  4 14  1  6  0  0  0
  4 18  1  0  0  0  0
  4 21  2  0  0  0  0
  4 20  1  0  0  0  0
  5 19  1  0  0  0  0
  5  7  1  0  0  0  0
  6  7  2  0  0  0  0
  6 12  1  0  0  0  0
  7  8  1  0  0  0  0
  8  9  1  0  0  0  0
  8 10  2  0  0  0  0
 10 11  1  0  0  0  0
 11 12  2  0  0  0  0
 15 23  1  0  0  0  0
 15 16  1  0  0  0  0
 16 19  1  0  0  0  0
 19 22  1  0  0  0  0
 22  2  1  6  0  0  0
 22 23  1  0  0  0  0
 23 24  1  1  0  0  0
 24 25  1  0  0  0  0
 25 26  1  0  0  0  0
M  CHG  2  13  -1  18  -1
M  END
>  <CHROM.1>
-136.73272679,-64.57792599,19.56070378,-17.58990036,-122.30125290,64.49745523
83.29443908,-120.47932474,-19.30560804,-13.04371417,1.17859480,0.45793909
0.10532680,-0.01935479

>  <Name>
ligand

>  <RI>
0

>  <Rbt.Current_Directory>
/home/itssahil/PROJECTS/Mol_Feturizer/New_Systems/rnas/2GDI

>  <Rbt.Executable>
rbdock ($Id: //depot/dev/client3/rdock/2013.1/src/exe/rbdock.cxx#4 $)

>  <Rbt.Library>
libRbt.so (2013.1, Build901 2013/11/27)

>  <Rbt.Parameter_File>
/export/apps/rDock/src/rDock_2013.1_src/data/scripts/dock_solv.prm

>  <Rbt.Receptor>
prm/pocket_docking_2.prm

>  <SCORE>
-10.2883

>  <SCORE.INTER>
-13.7434

>  <SCORE.INTER.CONST>
1

>  <SCORE.INTER.POLAR>
0

>  <SCORE.INTER.ROT>
8

>  <SCORE.INTER.SOLV>
20.828

>  <SCORE.INTER.VDW>
-25.0383

>  <SCORE.INTER.norm>
-0.528594

>  <SCORE.INTRA>
3.42797

>  <SCORE.INTRA.DIHEDRAL>
5.14542

>  <SCORE.INTRA.DIHEDRAL.0>
8.13976

>  <SCORE.INTRA.POLAR>
0

>  <SCORE.INTRA.POLAR.0>
0

>  <SCORE.INTRA.REPUL>
0

>  <SCORE.INTRA.REPUL.0>
0

>  <SCORE.INTRA.SOLV>
0.963172

>  <SCORE.INTRA.SOLV.lig_0>
-82.9561

>  <SCORE.INTRA.VDW>
0.373667

>  <SCORE.INTRA.VDW.0>
-3.29171

>  <SCORE.INTRA.norm>
0.131845

>  <SCORE.RESTR>
0.0271975

>  <SCORE.RESTR.CAVITY>
0.0271975

>  <SCORE.RESTR.norm>
0.00104606

>  <SCORE.SYSTEM>
0

>  <SCORE.SYSTEM.CONST>
0

>  <SCORE.SYSTEM.DIHEDRAL>
0

>  <SCORE.SYSTEM.SOLV>
0

>  <SCORE.SYSTEM.norm>
0

>  <SCORE.heavy>
26

>  <SCORE.norm>
-0.395703

>  <RMSD>
0.959

$$$$
ligand
 OpenBabel11021811433D
libRbt.so/2013.1/901 2013/11/27
 26 27  0  0  0  0  0  0  0  0999 V2000
  -12.6306   -7.4464   -0.5858 C   0  0  0  0  0  0  0  0  0  0  0  0
  -17.3257  -12.9350   -1.1105 C   0  0  0  0  0  0  0  0  0  0  0  0
  -21.9093  -14.7537    1.9030 P   0  0  1  0  0  0  0  0  0  0  0  0
  -24.2322  -16.3710    1.2344 P   0  0  1  0  0  0  0  0  0  0  0  0
  -15.5857  -12.0646    1.1385 C   0  0  0  0  0  0  0  0  0  0  0  0
  -15.2845   -9.5641    0.9219 C   0  0  0  0  0  0  0  0  0  0  0  0
  -14.8083  -10.8451    0.6729 C   0  0  0  0  0  0  0  0  0  0  0  0
  -13.6039  -10.9884    0.0037 C   0  0  0  0  0  0  0  0  0  0  0  0
  -13.0999  -12.2178   -0.2629 N   0  0  0  0  0  0  0  0  0  0  0  0
  -12.9232   -9.8897   -0.3887 N   0  0  0  0  0  0  0  0  0  0  0  0
  -13.4077   -8.6541   -0.1365 C   0  0  0  0  0  0  0  0  0  0  0  0
  -14.5850   -8.4951    0.5163 N   0  0  0  0  0  0  0  0  0  0  0  0
  -22.3426  -14.4264    3.3079 O   0  5  0  0  0  0  0  0  0  0  0  0
  -25.1748  -16.3738    0.0704 O   0  0  0  0  0  0  0  0  0  0  0  0
  -19.3493  -10.9892    1.8213 S   0  0  0  0  0  0  0  0  0  0  0  0
  -17.6509  -11.1367    2.1479 C   0  0  0  0  0  0  0  0  0  0  0  0
  -20.8398  -15.7945    1.7362 O   0  0  0  0  0  0  0  0  0  0  0  0
  -23.3523  -17.5741    1.1610 O   0  5  0  0  0  0  0  0  0  0  0  0
  -17.0237  -11.7953    1.1342 N   0  0  0  0  0  0  0  0  0  0  0  0
  -23.2311  -15.1111    1.0360 O   0  0  0  0  0  0  0  0  0  0  0  0
  -24.8589  -16.1884    2.5898 O   0  0  0  0  0  0  0  0  0  0  0  0
  -17.8190  -12.1945    0.1039 C   0  0  1  0  0  0  0  0  0  0  0  0
  -19.2387  -11.7980    0.3077 C   0  0  1  0  0  0  0  0  0  0  0  0
  -20.5092  -11.9733   -0.4810 C   0  0  0  0  0  0  0  0  0  0  0  0
  -21.0931  -13.3418   -0.1672 C   0  0  0  0  0  0  0  0  0  0  0  0
  -21.3499  -13.4050    1.2303 O   0  0  0  0  0  0  0  0  0  0  0  0
  1 11  1  0  0  0  0
  3 13  1  1  0  0  0
  3 17  2  0  0  0  0
  3 20  1  0  0  0  0
  3 26  1  0  0  0  0
  4 14  1  6  0  0  0
  4 18  1  0  0  0  0
  4 21  2  0  0  0  0
  4 20  1  0  0  0  0
  5 19  1  0  0  0  0
  5  7  1  0  0  0  0
  6  7  2  0  0  0  0
  6 12  1  0  0  0  0
  7  8  1  0  0  0  0
  8  9  1  0  0  0  0
  8 10  2  0  0  0  0
 10 11  1  0  0  0  0
 11 12  2  0  0  0  0
 15 23  1  0  0  0  0
 15 16  1  0  0  0  0
 16 19  1  0  0  0  0
 19 22  1  0  0  0  0
 22  2  1  6  0  0  0
 22 23  1  0  0  0  0
 23 24  1  1  0  0  0
 24 25  1  0  0  0  0
 25 26  1  0  0  0  0
M  CHG  2  13  -1  18  -1
M  END
>  <CHROM.1>
-65.42294017,-81.55805552,31.38260306,-171.73278613,-94.70850537,59.46009735
-177.08275701,-168.51082135,-19.20012828,-12.87694877,0.90215926,0.49378546
0.31543205,0.30903474

>  <Name>
ligand

>  <RI>
0

>  <Rbt.Current_Directory>
/home/itssahil/PROJECTS/Mol_Feturizer/New_Systems/rnas/2GDI

>  <Rbt.Executable>
rbdock ($Id: //depot/dev/client3/rdock/2013.1/src/exe/rbdock.cxx#4 $)

>  <Rbt.Library>
libRbt.so (2013.1, Build901 2013/11/27)

>  <Rbt.Parameter_File>
/export/apps/rDock/src/rDock_2013.1_src/data/scripts/dock_solv.prm

>  <Rbt.Receptor>
prm/pocket_docking_2.prm

>  <SCORE>
-18.1416

>  <SCORE.INTER>
-17.0767

>  <SCORE.INTER.CONST>
1

>  <SCORE.INTER.POLAR>
0

>  <SCORE.INTER.ROT>
8

>  <SCORE.INTER.SOLV>
18.8645

>  <SCORE.INTER.VDW>
-26.606

>  <SCORE.INTER.norm>
-0.656796

>  <SCORE.INTRA>
-1.06492

>  <SCORE.INTRA.DIHEDRAL>
-3.22285

>  <SCORE.INTRA.DIHEDRAL.0>
8.13976

>  <SCORE.INTRA.POLAR>
0

>  <SCORE.INTRA.POLAR.0>
0

>  <SCORE.INTRA.REPUL>
0

>  <SCORE.INTRA.REPUL.0>
0

>  <SCORE.INTRA.SOLV>
2.05372

>  <SCORE.INTRA.SOLV.lig_0>
-82.9561

>  <SCORE.INTRA.VDW>
-0.480354

>  <SCORE.INTRA.VDW.0>
-3.29171

>  <SCORE.INTRA.norm>
-0.0409584

>  <SCORE.RESTR>
0

>  <SCORE.RESTR.CAVITY>
0

>  <SCORE.RESTR.norm>
0

>  <SCORE.SYSTEM>
0

>  <SCORE.SYSTEM.CONST>
0

>  <SCORE.SYSTEM.DIHEDRAL>
0

>  <SCORE.SYSTEM.SOLV>
0

>  <SCORE.SYSTEM.norm>
0

>  <SCORE.heavy>
26

>  <SCORE.norm>
-0.697754

>  <RMSD>
0.967

$$$$
ligand
 OpenBabel11021811433D
libRbt.so/2013.1/901 2013/11/27
 26 27  0  0  0  0  0  0  0  0999 V2000
  -12.6280   -7.4913   -0.5833 C   0  0  0  0  0  0  0  0  0  0  0  0
  -17.4080  -13.0650   -1.0541 C   0  0  0  0  0  0  0  0  0  0  0  0
  -21.9142  -14.7711    2.0920 P   0  0  1  0  0  0  0  0  0  0  0  0
  -24.3227  -15.4410    0.6057 P   0  0  1  0  0  0  0  0  0  0  0  0
  -15.5990  -12.1124    1.1054 C   0  0  0  0  0  0  0  0  0  0  0  0
  -15.2947   -9.6115    0.8978 C   0  0  0  0  0  0  0  0  0  0  0  0
  -14.8173  -10.8921    0.6492 C   0  0  0  0  0  0  0  0  0  0  0  0
  -13.6077  -11.0343   -0.0109 C   0  0  0  0  0  0  0  0  0  0  0  0
  -13.1022  -12.2632   -0.2768 N   0  0  0  0  0  0  0  0  0  0  0  0
  -12.9234   -9.9348   -0.3950 N   0  0  0  0  0  0  0  0  0  0  0  0
  -13.4093   -8.6997   -0.1433 C   0  0  0  0  0  0  0  0  0  0  0  0
  -14.5916   -8.5418    0.5005 N   0  0  0  0  0  0  0  0  0  0  0  0
  -21.6666  -14.6245    3.5704 O   0  5  0  0  0  0  0  0  0  0  0  0
  -23.6811  -14.9471   -0.6544 O   0  0  0  0  0  0  0  0  0  0  0  0
  -19.3330  -10.9716    1.8422 S   0  0  0  0  0  0  0  0  0  0  0  0
  -17.6275  -11.1208    2.1285 C   0  0  0  0  0  0  0  0  0  0  0  0
  -21.2424  -15.9164    1.3907 O   0  0  0  0  0  0  0  0  0  0  0  0
  -24.0866  -16.9086    0.7384 O   0  5  0  0  0  0  0  0  0  0  0  0
  -17.0342  -11.8298    1.1285 N   0  0  0  0  0  0  0  0  0  0  0  0
  -23.5160  -14.7764    1.8452 O   0  0  0  0  0  0  0  0  0  0  0  0
  -25.7651  -15.0619    0.8036 O   0  0  0  0  0  0  0  0  0  0  0  0
  -17.8611  -12.2666    0.1392 C   0  0  1  0  0  0  0  0  0  0  0  0
  -19.2713  -11.8478    0.3639 C   0  0  1  0  0  0  0  0  0  0  0  0
  -20.5646  -12.0457   -0.3812 C   0  0  0  0  0  0  0  0  0  0  0  0
  -21.1284  -13.4123   -0.0249 C   0  0  0  0  0  0  0  0  0  0  0  0
  -21.4088  -13.4269    1.3695 O   0  0  0  0  0  0  0  0  0  0  0  0
  1 11  1  0  0  0  0
  3 13  1  1  0  0  0
  3 17  2  0  0  0  0
  3 20  1  0  0  0  0
  3 26  1  0  0  0  0
  4 14  1  6  0  0  0
  4 18  1  0  0  0  0
  4 21  2  0  0  0  0
  4 20  1  0  0  0  0
  5 19  1  0  0  0  0
  5  7  1  0  0  0  0
  6  7  2  0  0  0  0
  6 12  1  0  0  0  0
  7  8  1  0  0  0  0
  8  9  1  0  0  0  0
  8 10  2  0  0  0  0
 10 11  1  0  0  0  0
 11 12  2  0  0  0  0
 15 23  1  0  0  0  0
 15 16  1  0  0  0  0
 16 19  1  0  0  0  0
 19 22  1  0  0  0  0
 22  2  1  6  0  0  0
 22 23  1  0  0  0  0
 23 24  1  1  0  0  0
 24 25  1  0  0  0  0
 25 26  1  0  0  0  0
M  CHG  2  13  -1  18  -1
M  END
>  <CHROM.1>
-154.85790095,-77.92773905,29.70227845,-51.06392605,-96.50358970,62.57814860
-175.29223564,160.62536395,-19.22342930,-12.71199191,0.79990195,0.44147521
0.28538533,0.36223127

>  <Name>
ligand

>  <RI>
0

>  <Rbt.Current_Directory>
/home/itssahil/PROJECTS/Mol_Feturizer/New_Systems/rnas/2GDI

>  <Rbt.Executable>
rbdock ($Id: //depot/dev/client3/rdock/2013.1/src/exe/rbdock.cxx#4 $)

>  <Rbt.Library>
libRbt.so (2013.1, Build901 2013/11/27)

>  <Rbt.Parameter_File>
/export/apps/rDock/src/rDock_2013.1_src/data/scripts/dock_solv.prm

>  <Rbt.Receptor>
prm/pocket_docking_2.prm

>  <SCORE>
-16.1399

>  <SCORE.INTER>
-15.0771

>  <SCORE.INTER.CONST>
1

>  <SCORE.INTER.POLAR>
0

>  <SCORE.INTER.ROT>
8

>  <SCORE.INTER.SOLV>
23.0394

>  <SCORE.INTER.VDW>
-26.6645

>  <SCORE.INTER.norm>
-0.57989

>  <SCORE.INTRA>
-1.06275

>  <SCORE.INTRA.DIHEDRAL>
-1.25246

>  <SCORE.INTRA.DIHEDRAL.0>
8.13976

>  <SCORE.INTRA.POLAR>
0

>  <SCORE.INTRA.POLAR.0>
0

>  <SCORE.INTRA.REPUL>
0

>  <SCORE.INTRA.REPUL.0>
0

>  <SCORE.INTRA.SOLV>
0.14314

>  <SCORE.INTRA.SOLV.lig_0>
-82.9561

>  <SCORE.INTRA.VDW>
-0.508092

>  <SCORE.INTRA.VDW.0>
-3.29171

>  <SCORE.INTRA.norm>
-0.0408751

>  <SCORE.RESTR>
0

>  <SCORE.RESTR.CAVITY>
0

>  <SCORE.RESTR.norm>
0

>  <SCORE.SYSTEM>
0

>  <SCORE.SYSTEM.CONST>
0

>  <SCORE.SYSTEM.DIHEDRAL>
0

>  <SCORE.SYSTEM.SOLV>
0

>  <SCORE.SYSTEM.norm>
0

>  <SCORE.heavy>
26

>  <SCORE.norm>
-0.620765

>  <RMSD>
0.968

$$$$
ligand
 OpenBabel11021811433D
libRbt.so/2013.1/901 2013/11/27
 26 27  0  0  0  0  0  0  0  0999 V2000
  -12.6035   -7.9103   -0.4093 C   0  0  0  0  0  0  0  0  0  0  0  0
  -17.4372  -12.9875   -1.0339 C   0  0  0  0  0  0  0  0  0  0  0  0
  -21.9682  -15.4801    0.2859 P   0  0  1  0  0  0  0  0  0  0  0  0
  -24.5888  -15.7824    1.5107 P   0  0  1  0  0  0  0  0  0  0  0  0
  -15.8137  -12.3332    1.3701 C   0  0  0  0  0  0  0  0  0  0  0  0
  -15.3996   -9.8574    1.0708 C   0  0  0  0  0  0  0  0  0  0  0  0
  -14.9685  -11.1655    0.8898 C   0  0  0  0  0  0  0  0  0  0  0  0
  -13.7465  -11.3839    0.2750 C   0  0  0  0  0  0  0  0  0  0  0  0
  -13.2847  -12.6422    0.0756 N   0  0  0  0  0  0  0  0  0  0  0  0
  -13.0058  -10.3299   -0.1314 N   0  0  0  0  0  0  0  0  0  0  0  0
  -13.4472   -9.0667    0.0543 C   0  0  0  0  0  0  0  0  0  0  0  0
  -14.6409   -8.8345    0.6531 N   0  0  0  0  0  0  0  0  0  0  0  0
  -21.1469  -16.5896    0.8886 O   0  5  0  0  0  0  0  0  0  0  0  0
  -24.3542  -17.1760    2.0071 O   0  0  0  0  0  0  0  0  0  0  0  0
  -19.5723  -11.1550    1.8918 S   0  0  0  0  0  0  0  0  0  0  0  0
  -17.9044  -11.3905    2.3110 C   0  0  0  0  0  0  0  0  0  0  0  0
  -22.5191  -15.7012   -1.0934 O   0  0  0  0  0  0  0  0  0  0  0  0
  -25.2714  -14.9874    2.5734 O   0  5  0  0  0  0  0  0  0  0  0  0
  -17.2379  -12.0072    1.2959 N   0  0  0  0  0  0  0  0  0  0  0  0
  -23.1352  -15.0850    1.3390 O   0  0  0  0  0  0  0  0  0  0  0  0
  -25.2621  -15.6644    0.1706 O   0  0  0  0  0  0  0  0  0  0  0  0
  -17.9800  -12.3075    0.1947 C   0  0  1  0  0  0  0  0  0  0  0  0
  -19.3947  -11.8687    0.3374 C   0  0  1  0  0  0  0  0  0  0  0  0
  -20.6180  -11.9424   -0.5374 C   0  0  0  0  0  0  0  0  0  0  0  0
  -21.6288  -12.8723    0.1152 C   0  0  0  0  0  0  0  0  0  0  0  0
  -21.0454  -14.1661    0.2094 O   0  0  0  0  0  0  0  0  0  0  0  0
  1 11  1  0  0  0  0
  3 13  1  1  0  0  0
  3 17  2  0  0  0  0
  3 20  1  0  0  0  0
  3 26  1  0  0  0  0
  4 14  1  1  0  0  0
  4 18  1  0  0  0  0
  4 21  2  0  0  0  0
  4 20  1  0  0  0  0
  5 19  1  0  0  0  0
  5  7  1  0  0  0  0
  6  7  2  0  0  0  0
  6 12  1  0  0  0  0
  7  8  1  0  0  0  0
  8  9  1  0  0  0  0
  8 10  2  0  0  0  0
 10 11  1  0  0  0  0
 11 12  2  0  0  0  0
 15 23  1  0  0  0  0
 15 16  1  0  0  0  0
 16 19  1  0  0  0  0
 19 22  1  0  0  0  0
 22  2  1  6  0  0  0
 22 23  1  0  0  0  0
 23 24  1  1  0  0  0
 24 25  1  0  0  0  0
 25 26  1  0  0  0  0
M  CHG  2  13  -1  18  -1
M  END
>  <CHROM.1>
-85.38151768,-87.71759931,31.48857227,66.34128547,-65.33098765,-61.65240157
-155.39507652,-158.86775936,-19.38842389,-13.03046339,0.70191274,0.46370254
0.25205157,0.34008415

>  <Name>
ligand

>  <RI>
0

>  <Rbt.Current_Directory>
/home/itssahil/PROJECTS/Mol_Feturizer/New_Systems/rnas/2GDI

>  <Rbt.Executable>
rbdock ($Id: //depot/dev/client3/rdock/2013.1/src/exe/rbdock.cxx#4 $)

>  <Rbt.Library>
libRbt.so (2013.1, Build901 2013/11/27)

>  <Rbt.Parameter_File>
/export/apps/rDock/src/rDock_2013.1_src/data/scripts/dock_solv.prm

>  <Rbt.Receptor>
prm/pocket_docking_2.prm

>  <SCORE>
-14.9688

>  <SCORE.INTER>
-15.3743

>  <SCORE.INTER.CONST>
1

>  <SCORE.INTER.POLAR>
0

>  <SCORE.INTER.ROT>
8

>  <SCORE.INTER.SOLV>
17.7093

>  <SCORE.INTER.VDW>
-25.0859

>  <SCORE.INTER.norm>
-0.591318

>  <SCORE.INTRA>
0.405415

>  <SCORE.INTRA.DIHEDRAL>
0.669053

>  <SCORE.INTRA.DIHEDRAL.0>
8.13976

>  <SCORE.INTRA.POLAR>
0

>  <SCORE.INTRA.POLAR.0>
0

>  <SCORE.INTRA.REPUL>
0

>  <SCORE.INTRA.REPUL.0>
0

>  <SCORE.INTRA.SOLV>
0.588673

>  <SCORE.INTRA.SOLV.lig_0>
-82.9561

>  <SCORE.INTRA.VDW>
-0.223448

>  <SCORE.INTRA.VDW.0>
-3.29171

>  <SCORE.INTRA.norm>
0.0155929

>  <SCORE.RESTR>
0

>  <SCORE.RESTR.CAVITY>
0

>  <SCORE.RESTR.norm>
0

>  <SCORE.SYSTEM>
0

>  <SCORE.SYSTEM.CONST>
0

>  <SCORE.SYSTEM.DIHEDRAL>
0

>  <SCORE.SYSTEM.SOLV>
0

>  <SCORE.SYSTEM.norm>
0

>  <SCORE.heavy>
26

>  <SCORE.norm>
-0.575725

>  <RMSD>
1.112

$$$$
ligand
 OpenBabel11021811433D
libRbt.so/2013.1/901 2013/11/27
 26 27  0  0  0  0  0  0  0  0999 V2000
  -12.5938   -7.9057   -0.4299 C   0  0  0  0  0  0  0  0  0  0  0  0
  -17.4161  -12.8835   -1.1184 C   0  0  0  0  0  0  0  0  0  0  0  0
  -22.0507  -14.1898    1.1081 P   0  0  1  0  0  0  0  0  0  0  0  0
  -23.9099  -16.3598    0.5670 P   0  0  1  0  0  0  0  0  0  0  0  0
  -15.7801  -12.3616    1.3094 C   0  0  0  0  0  0  0  0  0  0  0  0
  -15.3602   -9.8805    1.0691 C   0  0  0  0  0  0  0  0  0  0  0  0
  -14.9415  -11.1850    0.8398 C   0  0  0  0  0  0  0  0  0  0  0  0
  -13.7375  -11.3917    0.1865 C   0  0  0  0  0  0  0  0  0  0  0  0
  -13.2883  -12.6461   -0.0607 N   0  0  0  0  0  0  0  0  0  0  0  0
  -13.0020  -10.3303   -0.2097 N   0  0  0  0  0  0  0  0  0  0  0  0
  -13.4313   -9.0707    0.0233 C   0  0  0  0  0  0  0  0  0  0  0  0
  -14.6072   -8.8498    0.6603 N   0  0  0  0  0  0  0  0  0  0  0  0
  -22.1216  -12.9173    1.9107 O   0  5  0  0  0  0  0  0  0  0  0  0
  -25.3673  -16.5502    0.8557 O   0  0  0  0  0  0  0  0  0  0  0  0
  -19.5373  -11.2208    1.9167 S   0  0  0  0  0  0  0  0  0  0  0  0
  -17.8668  -11.4765    2.3130 C   0  0  0  0  0  0  0  0  0  0  0  0
  -20.8786  -15.0957    1.3542 O   0  0  0  0  0  0  0  0  0  0  0  0
  -23.7228  -16.1183   -0.8938 O   0  5  0  0  0  0  0  0  0  0  0  0
  -17.2052  -12.0345    1.2614 N   0  0  0  0  0  0  0  0  0  0  0  0
  -23.4584  -14.9747    1.2785 O   0  0  0  0  0  0  0  0  0  0  0  0
  -22.9872  -17.4186    1.1061 O   0  0  0  0  0  0  0  0  0  0  0  0
  -17.9529  -12.2741    0.1492 C   0  0  1  0  0  0  0  0  0  0  0  0
  -19.3674  -11.8463    0.3240 C   0  0  1  0  0  0  0  0  0  0  0  0
  -20.5954  -11.8731   -0.5468 C   0  0  0  0  0  0  0  0  0  0  0  0
  -20.8129  -13.2951   -1.0396 C   0  0  0  0  0  0  0  0  0  0  0  0
  -22.0076  -13.7917   -0.4488 O   0  0  0  0  0  0  0  0  0  0  0  0
  1 11  1  0  0  0  0
  3 13  1  1  0  0  0
  3 17  2  0  0  0  0
  3 20  1  0  0  0  0
  3 26  1  0  0  0  0
  4 14  1  1  0  0  0
  4 18  1  0  0  0  0
  4 21  2  0  0  0  0
  4 20  1  0  0  0  0
  5 19  1  0  0  0  0
  5  7  1  0  0  0  0
  6  7  2  0  0  0  0
  6 12  1  0  0  0  0
  7  8  1  0  0  0  0
  8  9  1  0  0  0  0
  8 10  2  0  0  0  0
 10 11  1  0  0  0  0
 11 12  2  0  0  0  0
 15 23  1  0  0  0  0
 15 16  1  0  0  0  0
 16 19  1  0  0  0  0
 19 22  1  0  0  0  0
 22  2  1  6  0  0  0
 22 23  1  0  0  0  0
 23 24  1  1  0  0  0
 24 25  1  0  0  0  0
 25 26  1  0  0  0  0
M  CHG  2  13  -1  18  -1
M  END
>  <CHROM.1>
177.14707990,-89.88118189,32.43945075,-170.50596997,-124.68863135,112.95820796
-73.05520543,76.44349233,-19.21992302,-12.89985379,0.59966458,0.48267765
0.23830076,0.36323586

>  <Name>
ligand

>  <RI>
0

>  <Rbt.Current_Directory>
/home/itssahil/PROJECTS/Mol_Feturizer/New_Systems/rnas/2GDI

>  <Rbt.Executable>
rbdock ($Id: //depot/dev/client3/rdock/2013.1/src/exe/rbdock.cxx#4 $)

>  <Rbt.Library>
libRbt.so (2013.1, Build901 2013/11/27)

>  <Rbt.Parameter_File>
/export/apps/rDock/src/rDock_2013.1_src/data/scripts/dock_solv.prm

>  <Rbt.Receptor>
prm/pocket_docking_2.prm

>  <SCORE>
-14.3629

>  <SCORE.INTER>
-16.8543

>  <SCORE.INTER.CONST>
1

>  <SCORE.INTER.POLAR>
0

>  <SCORE.INTER.ROT>
8

>  <SCORE.INTER.SOLV>
16.6265

>  <SCORE.INTER.VDW>
-25.7117

>  <SCORE.INTER.norm>
-0.648243

>  <SCORE.INTRA>
2.49137

>  <SCORE.INTRA.DIHEDRAL>
2.94108

>  <SCORE.INTRA.DIHEDRAL.0>
8.13976

>  <SCORE.INTRA.POLAR>
0

>  <SCORE.INTRA.POLAR.0>
0

>  <SCORE.INTRA.REPUL>
0

>  <SCORE.INTRA.REPUL.0>
0

>  <SCORE.INTRA.SOLV>
4.09866

>  <SCORE.INTRA.SOLV.lig_0>
-82.9561

>  <SCORE.INTRA.VDW>
-1.0285

>  <SCORE.INTRA.VDW.0>
-3.29171

>  <SCORE.INTRA.norm>
0.0958219

>  <SCORE.RESTR>
0

>  <SCORE.RESTR.CAVITY>
0

>  <SCORE.RESTR.norm>
0

>  <SCORE.SYSTEM>
0

>  <SCORE.SYSTEM.CONST>
0

>  <SCORE.SYSTEM.DIHEDRAL>
0

>  <SCORE.SYSTEM.SOLV>
0

>  <SCORE.SYSTEM.norm>
0

>  <SCORE.heavy>
26

>  <SCORE.norm>
-0.552421

>  <RMSD>
1.123

$$$$
ligand
 OpenBabel11021811433D
libRbt.so/2013.1/901 2013/11/27
 26 27  0  0  0  0  0  0  0  0999 V2000
  -12.5690   -7.5053   -0.6098 C   0  0  0  0  0  0  0  0  0  0  0  0
  -17.2096  -13.0213   -0.9891 C   0  0  0  0  0  0  0  0  0  0  0  0
  -21.4063  -15.4898    1.1444 P   0  0  1  0  0  0  0  0  0  0  0  0
  -24.1470  -14.6016    0.7459 P   0  0  1  0  0  0  0  0  0  0  0  0
  -15.5339  -12.0561    1.2700 C   0  0  0  0  0  0  0  0  0  0  0  0
  -15.1867   -9.5629    1.0378 C   0  0  0  0  0  0  0  0  0  0  0  0
  -14.7544  -10.8543    0.7635 C   0  0  0  0  0  0  0  0  0  0  0  0
  -13.5913  -11.0246    0.0306 C   0  0  0  0  0  0  0  0  0  0  0  0
  -13.1310  -12.2650   -0.2628 N   0  0  0  0  0  0  0  0  0  0  0  0
  -12.9073   -9.9414   -0.3975 N   0  0  0  0  0  0  0  0  0  0  0  0
  -13.3488   -8.6952   -0.1195 C   0  0  0  0  0  0  0  0  0  0  0  0
  -14.4854   -8.5099    0.5954 N   0  0  0  0  0  0  0  0  0  0  0  0
  -21.5893  -15.6152    2.6341 O   0  5  0  0  0  0  0  0  0  0  0  0
  -25.1659  -14.8858   -0.3146 O   0  0  0  0  0  0  0  0  0  0  0  0
  -19.3215  -10.9879    1.8183 S   0  0  0  0  0  0  0  0  0  0  0  0
  -17.6309  -11.1095    2.1928 C   0  0  0  0  0  0  0  0  0  0  0  0
  -20.4389  -16.4314    0.4869 O   0  0  0  0  0  0  0  0  0  0  0  0
  -24.6667  -15.0619    2.0669 O   0  5  0  0  0  0  0  0  0  0  0  0
  -16.9732  -11.7991    1.2197 N   0  0  0  0  0  0  0  0  0  0  0  0
  -22.8684  -15.5530    0.4478 O   0  0  0  0  0  0  0  0  0  0  0  0
  -23.6125  -13.1959    0.7870 O   0  0  0  0  0  0  0  0  0  0  0  0
  -17.7391  -12.2417    0.1849 C   0  0  1  0  0  0  0  0  0  0  0  0
  -19.1665  -11.8498    0.3384 C   0  0  1  0  0  0  0  0  0  0  0  0
  -20.4151  -12.0639   -0.4752 C   0  0  0  0  0  0  0  0  0  0  0  0
  -20.7270  -13.5518   -0.5073 C   0  0  0  0  0  0  0  0  0  0  0  0
  -20.8857  -14.0011    0.8328 O   0  0  0  0  0  0  0  0  0  0  0  0
  1 11  1  0  0  0  0
  3 13  1  1  0  0  0
  3 17  2  0  0  0  0
  3 20  1  0  0  0  0
  3 26  1  0  0  0  0
  4 14  1  6  0  0  0
  4 18  1  0  0  0  0
  4 21  2  0  0  0  0
  4 20  1  0  0  0  0
  5 19  1  0  0  0  0
  5  7  1  0  0  0  0
  6  7  2  0  0  0  0
  6 12  1  0  0  0  0
  7  8  1  0  0  0  0
  8  9  1  0  0  0  0
  8 10  2  0  0  0  0
 10 11  1  0  0  0  0
 11 12  2  0  0  0  0
 15 23  1  0  0  0  0
 15 16  1  0  0  0  0
 16 19  1  0  0  0  0
 19 22  1  0  0  0  0
 22  2  1  6  0  0  0
 22 23  1  0  0  0  0
 23 24  1  1  0  0  0
 24 25  1  0  0  0  0
 25 26  1  0  0  0  0
M  CHG  2  13  -1  18  -1
M  END
>  <CHROM.1>
56.19071638,-82.28138965,36.89516811,169.80245870,-114.02582887,58.38387660
172.18927161,-174.81152171,-19.04148036,-12.66584813,0.66287167,0.49498658
0.11127519,0.06627375

>  <Name>
ligand

>  <RI>
0

>  <Rbt.Current_Directory>
/home/itssahil/PROJECTS/Mol_Feturizer/New_Systems/rnas/2GDI

>  <Rbt.Executable>
rbdock ($Id: //depot/dev/client3/rdock/2013.1/src/exe/rbdock.cxx#4 $)

>  <Rbt.Library>
libRbt.so (2013.1, Build901 2013/11/27)

>  <Rbt.Parameter_File>
/export/apps/rDock/src/rDock_2013.1_src/data/scripts/dock_solv.prm

>  <Rbt.Receptor>
prm/pocket_docking_2.prm

>  <SCORE>
-16.9328

>  <SCORE.INTER>
-15.9252

>  <SCORE.INTER.CONST>
1

>  <SCORE.INTER.POLAR>
0

>  <SCORE.INTER.ROT>
8

>  <SCORE.INTER.SOLV>
16.8008

>  <SCORE.INTER.VDW>
-25.1504

>  <SCORE.INTER.norm>
-0.612509

>  <SCORE.INTRA>
-1.02013

>  <SCORE.INTRA.DIHEDRAL>
-2.98636

>  <SCORE.INTRA.DIHEDRAL.0>
8.13976

>  <SCORE.INTRA.POLAR>
0

>  <SCORE.INTRA.POLAR.0>
0

>  <SCORE.INTRA.REPUL>
0

>  <SCORE.INTRA.REPUL.0>
0

>  <SCORE.INTRA.SOLV>
2.94259

>  <SCORE.INTRA.SOLV.lig_0>
-82.9561

>  <SCORE.INTRA.VDW>
-0.998241

>  <SCORE.INTRA.VDW.0>
-3.29171

>  <SCORE.INTRA.norm>
-0.0392356

>  <SCORE.RESTR>
0.0125157

>  <SCORE.RESTR.CAVITY>
0.0125157

>  <SCORE.RESTR.norm>
0.000481375

>  <SCORE.SYSTEM>
0

>  <SCORE.SYSTEM.CONST>
0

>  <SCORE.SYSTEM.DIHEDRAL>
0

>  <SCORE.SYSTEM.SOLV>
0

>  <SCORE.SYSTEM.norm>
0

>  <SCORE.heavy>
26

>  <SCORE.norm>
-0.651263

>  <RMSD>
1.231

$$$$
ligand
 OpenBabel11021811433D
libRbt.so/2013.1/901 2013/11/27
 26 27  0  0  0  0  0  0  0  0999 V2000
  -12.6814   -8.1008   -0.3357 C   0  0  0  0  0  0  0  0  0  0  0  0
  -17.5325  -12.7260   -1.3113 C   0  0  0  0  0  0  0  0  0  0  0  0
  -21.8495  -14.2091    0.8448 P   0  0  1  0  0  0  0  0  0  0  0  0
  -24.4306  -15.5495    0.8490 P   0  0  1  0  0  0  0  0  0  0  0  0
  -16.0284  -12.4980    1.2439 C   0  0  0  0  0  0  0  0  0  0  0  0
  -15.6262  -10.0348    0.8422 C   0  0  0  0  0  0  0  0  0  0  0  0
  -15.1455  -11.3379    0.8162 C   0  0  0  0  0  0  0  0  0  0  0  0
  -13.8408  -11.5572    0.4055 C   0  0  0  0  0  0  0  0  0  0  0  0
  -13.3280  -12.8108    0.3625 N   0  0  0  0  0  0  0  0  0  0  0  0
  -13.0698  -10.5090    0.0429 N   0  0  0  0  0  0  0  0  0  0  0  0
  -13.5606   -9.2507    0.0751 C   0  0  0  0  0  0  0  0  0  0  0  0
  -14.8352   -9.0177    0.4732 N   0  0  0  0  0  0  0  0  0  0  0  0
  -22.3678  -13.1680    1.8019 O   0  5  0  0  0  0  0  0  0  0  0  0
  -24.8031  -15.1620   -0.5491 O   0  0  0  0  0  0  0  0  0  0  0  0
  -19.7935  -11.3388    1.7612 S   0  0  0  0  0  0  0  0  0  0  0  0
  -18.1530  -11.6735    2.2192 C   0  0  0  0  0  0  0  0  0  0  0  0
  -20.3998  -14.5848    0.9535 O   0  0  0  0  0  0  0  0  0  0  0  0
  -24.7915  -16.9793    1.0786 O   0  5  0  0  0  0  0  0  0  0  0  0
  -17.4425  -12.1343    1.1526 N   0  0  0  0  0  0  0  0  0  0  0  0
  -22.8124  -15.5093    0.9413 O   0  0  0  0  0  0  0  0  0  0  0  0
  -24.9272  -14.6402    1.9398 O   0  0  0  0  0  0  0  0  0  0  0  0
  -18.1298  -12.2393   -0.0179 C   0  0  1  0  0  0  0  0  0  0  0  0
  -19.5443  -11.7990    0.1231 C   0  0  1  0  0  0  0  0  0  0  0  0
  -20.7210  -11.7063   -0.8115 C   0  0  0  0  0  0  0  0  0  0  0  0
  -20.9996  -13.0874   -1.3834 C   0  0  0  0  0  0  0  0  0  0  0  0
  -22.0741  -13.6629   -0.6504 O   0  0  0  0  0  0  0  0  0  0  0  0
  1 11  1  0  0  0  0
  3 13  1  1  0  0  0
  3 17  2  0  0  0  0
  3 20  1  0  0  0  0
  3 26  1  0  0  0  0
  4 14  1  6  0  0  0
  4 18  1  0  0  0  0
  4 21  2  0  0  0  0
  4 20  1  0  0  0  0
  5 19  1  0  0  0  0
  5  7  1  0  0  0  0
  6  7  2  0  0  0  0
  6 12  1  0  0  0  0
  7  8  1  0  0  0  0
  8  9  1  0  0  0  0
  8 10  2  0  0  0  0
 10 11  1  0  0  0  0
 11 12  2  0  0  0  0
 15 23  1  0  0  0  0
 15 16  1  0  0  0  0
 16 19  1  0  0  0  0
 19 22  1  0  0  0  0
 22  2  1  6  0  0  0
 22 23  1  0  0  0  0
 23 24  1  1  0  0  0
 24 25  1  0  0  0  0
 25 26  1  0  0  0  0
M  CHG  2  13  -1  18  -1
M  END
>  <CHROM.1>
50.37302008,-95.39943927,21.74564769,67.07136834,-120.52453213,99.30893341
-73.91160310,100.58932672,-19.40953896,-12.76531537,0.57650475,0.44827084
0.11565073,0.14458576

>  <Name>
ligand

>  <RI>
0

>  <Rbt.Current_Directory>
/home/itssahil/PROJECTS/Mol_Feturizer/New_Systems/rnas/2GDI

>  <Rbt.Executable>
rbdock ($Id: //depot/dev/client3/rdock/2013.1/src/exe/rbdock.cxx#4 $)

>  <Rbt.Library>
libRbt.so (2013.1, Build901 2013/11/27)

>  <Rbt.Parameter_File>
/export/apps/rDock/src/rDock_2013.1_src/data/scripts/dock_solv.prm

>  <Rbt.Receptor>
prm/pocket_docking_2.prm

>  <SCORE>
-14.0775

>  <SCORE.INTER>
-15.7809

>  <SCORE.INTER.CONST>
1

>  <SCORE.INTER.POLAR>
0

>  <SCORE.INTER.ROT>
8

>  <SCORE.INTER.SOLV>
18.0672

>  <SCORE.INTER.VDW>
-25.4763

>  <SCORE.INTER.norm>
-0.606958

>  <SCORE.INTRA>
1.7032

>  <SCORE.INTRA.DIHEDRAL>
3.06171

>  <SCORE.INTRA.DIHEDRAL.0>
8.13976

>  <SCORE.INTRA.POLAR>
0

>  <SCORE.INTRA.POLAR.0>
0

>  <SCORE.INTRA.REPUL>
0

>  <SCORE.INTRA.REPUL.0>
0

>  <SCORE.INTRA.SOLV>
3.1062

>  <SCORE.INTRA.SOLV.lig_0>
-82.9561

>  <SCORE.INTRA.VDW>
-1.38075

>  <SCORE.INTRA.VDW.0>
-3.29171

>  <SCORE.INTRA.norm>
0.0655077

>  <SCORE.RESTR>
0.000224317

>  <SCORE.RESTR.CAVITY>
0.000224317

>  <SCORE.RESTR.norm>
8.62758e-06

>  <SCORE.SYSTEM>
0

>  <SCORE.SYSTEM.CONST>
0

>  <SCORE.SYSTEM.DIHEDRAL>
0

>  <SCORE.SYSTEM.SOLV>
0

>  <SCORE.SYSTEM.norm>
0

>  <SCORE.heavy>
26

>  <SCORE.norm>
-0.541441

>  <RMSD>
1.240

$$$$
ligand
 OpenBabel11021811433D
libRbt.so/2013.1/901 2013/11/27
 26 27  0  0  0  0  0  0  0  0999 V2000
  -12.7072   -8.0424   -0.3949 C   0  0  0  0  0  0  0  0  0  0  0  0
  -17.3760  -13.1388   -1.0102 C   0  0  0  0  0  0  0  0  0  0  0  0
  -23.0874  -14.3074    1.3414 P   0  0  1  0  0  0  0  0  0  0  0  0
  -23.9342  -16.9008    0.3334 P   0  0  1  0  0  0  0  0  0  0  0  0
  -15.9676  -12.3811    1.4969 C   0  0  0  0  0  0  0  0  0  0  0  0
  -15.4969   -9.9167    1.1877 C   0  0  0  0  0  0  0  0  0  0  0  0
  -15.1095  -11.2356    0.9871 C   0  0  0  0  0  0  0  0  0  0  0  0
  -13.9187  -11.4855    0.3249 C   0  0  0  0  0  0  0  0  0  0  0  0
  -13.5000  -12.7554    0.1048 N   0  0  0  0  0  0  0  0  0  0  0  0
  -13.1653  -10.4510   -0.1073 N   0  0  0  0  0  0  0  0  0  0  0  0
  -13.5641   -9.1767    0.0983 C   0  0  0  0  0  0  0  0  0  0  0  0
  -14.7269   -8.9137    0.7433 N   0  0  0  0  0  0  0  0  0  0  0  0
  -24.4968  -13.8179    1.5472 O   0  5  0  0  0  0  0  0  0  0  0  0
  -25.0439  -16.7057    1.3203 O   0  0  0  0  0  0  0  0  0  0  0  0
  -19.7816  -11.2826    1.6814 S   0  0  0  0  0  0  0  0  0  0  0  0
  -18.1483  -11.4657    2.2397 C   0  0  0  0  0  0  0  0  0  0  0  0
  -22.3087  -14.7005    2.5637 O   0  0  0  0  0  0  0  0  0  0  0  0
  -24.5123  -17.0939   -1.0288 O   0  5  0  0  0  0  0  0  0  0  0  0
  -17.3881  -12.0925    1.2994 N   0  0  0  0  0  0  0  0  0  0  0  0
  -23.1211  -15.5009    0.2453 O   0  0  0  0  0  0  0  0  0  0  0  0
  -22.9132  -17.9475    0.6875 O   0  0  0  0  0  0  0  0  0  0  0  0
  -18.0316  -12.4400    0.1511 C   0  0  1  0  0  0  0  0  0  0  0  0
  -19.4628  -12.0327    0.1671 C   0  0  1  0  0  0  0  0  0  0  0  0
  -20.6092  -12.1596   -0.8006 C   0  0  0  0  0  0  0  0  0  0  0  0
  -21.3894  -13.4221   -0.4693 C   0  0  0  0  0  0  0  0  0  0  0  0
  -22.2559  -13.1349    0.6215 O   0  0  0  0  0  0  0  0  0  0  0  0
  1 11  1  0  0  0  0
  3 13  1  1  0  0  0
  3 17  2  0  0  0  0
  3 20  1  0  0  0  0
  3 26  1  0  0  0  0
  4 14  1  1  0  0  0
  4 18  1  0  0  0  0
  4 21  2  0  0  0  0
  4 20  1  0  0  0  0
  5 19  1  0  0  0  0
  5  7  1  0  0  0  0
  6  7  2  0  0  0  0
  6 12  1  0  0  0  0
  7  8  1  0  0  0  0
  8  9  1  0  0  0  0
  8 10  2  0  0  0  0
 10 11  1  0  0  0  0
 11 12  2  0  0  0  0
 15 23  1  0  0  0  0
 15 16  1  0  0  0  0
 16 19  1  0  0  0  0
 19 22  1  0  0  0  0
 22  2  1  6  0  0  0
 22 23  1  0  0  0  0
 23 24  1  1  0  0  0
 24 25  1  0  0  0  0
 25 26  1  0  0  0  0
M  CHG  2  13  -1  18  -1
M  END
>  <CHROM.1>
-59.13482889,-90.63933472,39.66784750,21.29502927,-85.02536161,80.65477256
-172.18640038,-135.47723063,-19.55664740,-13.08963242,0.65425071,0.49392690
0.22370173,0.34134087

>  <Name>
ligand

>  <RI>
0

>  <Rbt.Current_Directory>
/home/itssahil/PROJECTS/Mol_Feturizer/New_Systems/rnas/2GDI

>  <Rbt.Executable>
rbdock ($Id: //depot/dev/client3/rdock/2013.1/src/exe/rbdock.cxx#4 $)

>  <Rbt.Library>
libRbt.so (2013.1, Build901 2013/11/27)

>  <Rbt.Parameter_File>
/export/apps/rDock/src/rDock_2013.1_src/data/scripts/dock_solv.prm

>  <Rbt.Receptor>
prm/pocket_docking_2.prm

>  <SCORE>
-14.164

>  <SCORE.INTER>
-15.2573

>  <SCORE.INTER.CONST>
1

>  <SCORE.INTER.POLAR>
0

>  <SCORE.INTER.ROT>
8

>  <SCORE.INTER.SOLV>
16.302

>  <SCORE.INTER.VDW>
-24.5388

>  <SCORE.INTER.norm>
-0.586818

>  <SCORE.INTRA>
0.952782

>  <SCORE.INTRA.DIHEDRAL>
2.24037

>  <SCORE.INTRA.DIHEDRAL.0>
8.13976

>  <SCORE.INTRA.POLAR>
0

>  <SCORE.INTRA.POLAR.0>
0

>  <SCORE.INTRA.REPUL>
0

>  <SCORE.INTRA.REPUL.0>
0

>  <SCORE.INTRA.SOLV>
0.255823

>  <SCORE.INTRA.SOLV.lig_0>
-82.9561

>  <SCORE.INTRA.VDW>
-0.295316

>  <SCORE.INTRA.VDW.0>
-3.29171

>  <SCORE.INTRA.norm>
0.0366455

>  <SCORE.RESTR>
0.140522

>  <SCORE.RESTR.CAVITY>
0.140522

>  <SCORE.RESTR.norm>
0.00540468

>  <SCORE.SYSTEM>
0

>  <SCORE.SYSTEM.CONST>
0

>  <SCORE.SYSTEM.DIHEDRAL>
0

>  <SCORE.SYSTEM.SOLV>
0

>  <SCORE.SYSTEM.norm>
0

>  <SCORE.heavy>
26

>  <SCORE.norm>
-0.544768

>  <RMSD>
1.294

$$$$
ligand
 OpenBabel11021811433D
libRbt.so/2013.1/901 2013/11/27
 26 27  0  0  0  0  0  0  0  0999 V2000
  -12.4255   -7.5725   -0.8927 C   0  0  0  0  0  0  0  0  0  0  0  0
  -17.3206  -14.1100    0.4991 C   0  0  0  0  0  0  0  0  0  0  0  0
  -22.5809  -14.9067    1.9992 P   0  0  1  0  0  0  0  0  0  0  0  0
  -24.1700  -16.3449    0.0332 P   0  0  1  0  0  0  0  0  0  0  0  0
  -15.2399  -12.1137    1.2262 C   0  0  0  0  0  0  0  0  0  0  0  0
  -14.8703   -9.6223    1.0103 C   0  0  0  0  0  0  0  0  0  0  0  0
  -14.5013  -10.9141    0.6570 C   0  0  0  0  0  0  0  0  0  0  0  0
  -13.4381  -11.0873   -0.2139 C   0  0  0  0  0  0  0  0  0  0  0  0
  -13.0424  -12.3282   -0.5883 N   0  0  0  0  0  0  0  0  0  0  0  0
  -12.7874  -10.0065   -0.6965 N   0  0  0  0  0  0  0  0  0  0  0  0
  -13.1660   -8.7598   -0.3394 C   0  0  0  0  0  0  0  0  0  0  0  0
  -14.2048   -8.5715    0.5108 N   0  0  0  0  0  0  0  0  0  0  0  0
  -23.1899  -15.4836    3.2501 O   0  5  0  0  0  0  0  0  0  0  0  0
  -24.9293  -15.8969   -1.1777 O   0  0  0  0  0  0  0  0  0  0  0  0
  -18.8623  -10.6234    1.8932 S   0  0  0  0  0  0  0  0  0  0  0  0
  -17.1270  -10.6318    1.8488 C   0  0  0  0  0  0  0  0  0  0  0  0
  -21.2461  -15.4449    1.5708 O   0  0  0  0  0  0  0  0  0  0  0  0
  -22.9127  -17.0253   -0.3954 O   0  5  0  0  0  0  0  0  0  0  0  0
  -16.6659  -11.8221    1.3741 N   0  0  0  0  0  0  0  0  0  0  0  0
  -23.6763  -15.0096    0.8091 O   0  0  0  0  0  0  0  0  0  0  0  0
  -24.9498  -17.1423    1.0428 O   0  0  0  0  0  0  0  0  0  0  0  0
  -17.6173  -12.7371    1.0409 C   0  0  1  0  0  0  0  0  0  0  0  0
  -18.9942  -12.2162    1.2585 C   0  0  1  0  0  0  0  0  0  0  0  0
  -20.3788  -12.7763    1.0689 C   0  0  0  0  0  0  0  0  0  0  0  0
  -21.0956  -12.7689    2.4100 C   0  0  0  0  0  0  0  0  0  0  0  0
  -22.3909  -13.3263    2.2240 O   0  0  0  0  0  0  0  0  0  0  0  0
  1 11  1  0  0  0  0
  3 13  1  1  0  0  0
  3 17  2  0  0  0  0
  3 20  1  0  0  0  0
  3 26  1  0  0  0  0
  4 14  1  6  0  0  0
  4 18  1  0  0  0  0
  4 21  2  0  0  0  0
  4 20  1  0  0  0  0
  5 19  1  0  0  0  0
  5  7  1  0  0  0  0
  6  7  2  0  0  0  0
  6 12  1  0  0  0  0
  7  8  1  0  0  0  0
  8  9  1  0  0  0  0
  8 10  2  0  0  0  0
 10 11  1  0  0  0  0
 11 12  2  0  0  0  0
 15 23  1  0  0  0  0
 15 16  1  0  0  0  0
 16 19  1  0  0  0  0
 19 22  1  0  0  0  0
 22  2  1  6  0  0  0
 22 23  1  0  0  0  0
 23 24  1  1  0  0  0
 24 25  1  0  0  0  0
 25 26  1  0  0  0  0
M  CHG  2  13  -1  18  -1
M  END
>  <CHROM.1>
-72.11178019,-41.90094229,36.02547483,-166.79264038,-58.27409014,-178.76237480
73.49423778,107.96910884,-19.17509536,-12.96556519,0.89063016,-0.38865604
-0.39808873,-2.50540966

>  <Name>
ligand

>  <RI>
0

>  <Rbt.Current_Directory>
/home/itssahil/PROJECTS/Mol_Feturizer/New_Systems/rnas/2GDI

>  <Rbt.Executable>
rbdock ($Id: //depot/dev/client3/rdock/2013.1/src/exe/rbdock.cxx#4 $)

>  <Rbt.Library>
libRbt.so (2013.1, Build901 2013/11/27)

>  <Rbt.Parameter_File>
/export/apps/rDock/src/rDock_2013.1_src/data/scripts/dock_solv.prm

>  <Rbt.Receptor>
prm/pocket_docking_2.prm

>  <SCORE>
-7.29725

>  <SCORE.INTER>
-12.3759

>  <SCORE.INTER.CONST>
1

>  <SCORE.INTER.POLAR>
0

>  <SCORE.INTER.ROT>
8

>  <SCORE.INTER.SOLV>
20.6804

>  <SCORE.INTER.VDW>
-24.0774

>  <SCORE.INTER.norm>
-0.475995

>  <SCORE.INTRA>
4.81391

>  <SCORE.INTRA.DIHEDRAL>
0.13867

>  <SCORE.INTRA.DIHEDRAL.0>
8.13976

>  <SCORE.INTRA.POLAR>
0

>  <SCORE.INTRA.POLAR.0>
0

>  <SCORE.INTRA.REPUL>
0

>  <SCORE.INTRA.REPUL.0>
0

>  <SCORE.INTRA.SOLV>
3.10557

>  <SCORE.INTRA.SOLV.lig_0>
-82.9561

>  <SCORE.INTRA.VDW>
3.19179

>  <SCORE.INTRA.VDW.0>
-3.29171

>  <SCORE.INTRA.norm>
0.18515

>  <SCORE.RESTR>
0.264705

>  <SCORE.RESTR.CAVITY>
0.264705

>  <SCORE.RESTR.norm>
0.010181

>  <SCORE.SYSTEM>
0

>  <SCORE.SYSTEM.CONST>
0

>  <SCORE.SYSTEM.DIHEDRAL>
0

>  <SCORE.SYSTEM.SOLV>
0

>  <SCORE.SYSTEM.norm>
0

>  <SCORE.heavy>
26

>  <SCORE.norm>
-0.280664

>  <RMSD>
1.373

$$$$
ligand
 OpenBabel11021811433D
libRbt.so/2013.1/901 2013/11/27
 26 27  0  0  0  0  0  0  0  0999 V2000
  -12.7458   -7.9736   -0.3301 C   0  0  0  0  0  0  0  0  0  0  0  0
  -17.3742  -12.9543   -1.1454 C   0  0  0  0  0  0  0  0  0  0  0  0
  -20.8668  -15.1276    0.2217 P   0  0  1  0  0  0  0  0  0  0  0  0
  -23.0684  -17.0280    0.2220 P   0  0  1  0  0  0  0  0  0  0  0  0
  -15.9354  -12.4294    1.4037 C   0  0  0  0  0  0  0  0  0  0  0  0
  -15.5374   -9.9491    1.1207 C   0  0  0  0  0  0  0  0  0  0  0  0
  -15.0956  -11.2531    0.9354 C   0  0  0  0  0  0  0  0  0  0  0  0
  -13.8680  -11.4591    0.3275 C   0  0  0  0  0  0  0  0  0  0  0  0
  -13.3957  -12.7130    0.1243 N   0  0  0  0  0  0  0  0  0  0  0  0
  -13.1323  -10.3977   -0.0681 N   0  0  0  0  0  0  0  0  0  0  0  0
  -13.5842   -9.1387    0.1215 C   0  0  0  0  0  0  0  0  0  0  0  0
  -14.7834   -8.9185    0.7137 N   0  0  0  0  0  0  0  0  0  0  0  0
  -20.9210  -14.9120    1.7114 O   0  5  0  0  0  0  0  0  0  0  0  0
  -23.9865  -16.1190   -0.5358 O   0  0  0  0  0  0  0  0  0  0  0  0
  -19.7572  -11.3992    1.7494 S   0  0  0  0  0  0  0  0  0  0  0  0
  -18.1137  -11.6170    2.2637 C   0  0  0  0  0  0  0  0  0  0  0  0
  -19.5298  -14.9868   -0.4471 O   0  0  0  0  0  0  0  0  0  0  0  0
  -23.1711  -18.4094   -0.3334 O   0  5  0  0  0  0  0  0  0  0  0  0
  -17.3617  -12.1396    1.2557 N   0  0  0  0  0  0  0  0  0  0  0  0
  -21.5518  -16.5591   -0.1077 O   0  0  0  0  0  0  0  0  0  0  0  0
  -23.1934  -16.9911    1.7208 O   0  0  0  0  0  0  0  0  0  0  0  0
  -18.0191  -12.3805    0.0881 C   0  0  1  0  0  0  0  0  0  0  0  0
  -19.4540  -11.9935    0.1645 C   0  0  1  0  0  0  0  0  0  0  0  0
  -20.6138  -12.0385   -0.7946 C   0  0  0  0  0  0  0  0  0  0  0  0
  -21.8001  -12.6834   -0.0952 C   0  0  0  0  0  0  0  0  0  0  0  0
  -21.8443  -14.0548   -0.4698 O   0  0  0  0  0  0  0  0  0  0  0  0
  1 11  1  0  0  0  0
  3 13  1  1  0  0  0
  3 17  2  0  0  0  0
  3 20  1  0  0  0  0
  3 26  1  0  0  0  0
  4 14  1  6  0  0  0
  4 18  1  0  0  0  0
  4 21  2  0  0  0  0
  4 20  1  0  0  0  0
  5 19  1  0  0  0  0
  5  7  1  0  0  0  0
  6  7  2  0  0  0  0
  6 12  1  0  0  0  0
  7  8  1  0  0  0  0
  8  9  1  0  0  0  0
  8 10  2  0  0  0  0
 10 11  1  0  0  0  0
 11 12  2  0  0  0  0
 15 23  1  0  0  0  0
 15 16  1  0  0  0  0
 16 19  1  0  0  0  0
 19 22  1  0  0  0  0
 22  2  1  6  0  0  0
 22 23  1  0  0  0  0
 23 24  1  1  0  0  0
 24 25  1  0  0  0  0
 25 26  1  0  0  0  0
M  CHG  2  13  -1  18  -1
M  END
>  <CHROM.1>
59.37905204,-93.28207321,34.46939297,62.15252315,-47.93848358,-97.69159379
79.19894935,47.26560088,-18.93517602,-13.25180472,0.40203253,0.62904126,0.12567202
0.20567120

>  <Name>
ligand

>  <RI>
0

>  <Rbt.Current_Directory>
/home/itssahil/PROJECTS/Mol_Feturizer/New_Systems/rnas/2GDI

>  <Rbt.Executable>
rbdock ($Id: //depot/dev/client3/rdock/2013.1/src/exe/rbdock.cxx#4 $)

>  <Rbt.Library>
libRbt.so (2013.1, Build901 2013/11/27)

>  <Rbt.Parameter_File>
/export/apps/rDock/src/rDock_2013.1_src/data/scripts/dock_solv.prm

>  <Rbt.Receptor>
prm/pocket_docking_3.prm

>  <SCORE>
-12.3184

>  <SCORE.INTER>
-14.8068

>  <SCORE.INTER.CONST>
1

>  <SCORE.INTER.POLAR>
0

>  <SCORE.INTER.ROT>
8

>  <SCORE.INTER.SOLV>
14.1688

>  <SCORE.INTER.VDW>
-23.5275

>  <SCORE.INTER.norm>
-0.569494

>  <SCORE.INTRA>
2.48847

>  <SCORE.INTRA.DIHEDRAL>
3.00485

>  <SCORE.INTRA.DIHEDRAL.0>
8.13976

>  <SCORE.INTRA.POLAR>
0

>  <SCORE.INTRA.POLAR.0>
0

>  <SCORE.INTRA.REPUL>
0

>  <SCORE.INTRA.REPUL.0>
0

>  <SCORE.INTRA.SOLV>
3.51593

>  <SCORE.INTRA.SOLV.lig_0>
-82.9561

>  <SCORE.INTRA.VDW>
-0.771921

>  <SCORE.INTRA.VDW.0>
-3.29171

>  <SCORE.INTRA.norm>
0.0957104

>  <SCORE.RESTR>
0

>  <SCORE.RESTR.CAVITY>
0

>  <SCORE.RESTR.norm>
0

>  <SCORE.SYSTEM>
0

>  <SCORE.SYSTEM.CONST>
0

>  <SCORE.SYSTEM.DIHEDRAL>
0

>  <SCORE.SYSTEM.SOLV>
0

>  <SCORE.SYSTEM.norm>
0

>  <SCORE.heavy>
26

>  <SCORE.norm>
-0.473784

>  <RMSD>
1.391

$$$$
ligand
 OpenBabel11021811433D
libRbt.so/2013.1/901 2013/11/27
 26 27  0  0  0  0  0  0  0  0999 V2000
  -12.3176   -6.8828   -0.8461 C   0  0  0  0  0  0  0  0  0  0  0  0
  -17.1819  -13.6267    1.4733 C   0  0  0  0  0  0  0  0  0  0  0  0
  -21.7734  -15.0972    1.8709 P   0  0  1  0  0  0  0  0  0  0  0  0
  -24.0517  -16.5087    0.7413 P   0  0  1  0  0  0  0  0  0  0  0  0
  -15.2320  -11.3997    1.1878 C   0  0  0  0  0  0  0  0  0  0  0  0
  -14.8210   -8.9124    1.0016 C   0  0  0  0  0  0  0  0  0  0  0  0
  -14.4669  -10.2064    0.6410 C   0  0  0  0  0  0  0  0  0  0  0  0
  -13.3939  -10.3878   -0.2161 C   0  0  0  0  0  0  0  0  0  0  0  0
  -13.0120  -11.6310   -0.5969 N   0  0  0  0  0  0  0  0  0  0  0  0
  -12.7197   -9.3126   -0.6788 N   0  0  0  0  0  0  0  0  0  0  0  0
  -13.0842   -8.0636   -0.3150 C   0  0  0  0  0  0  0  0  0  0  0  0
  -14.1322   -7.8674    0.5219 N   0  0  0  0  0  0  0  0  0  0  0  0
  -21.5995  -14.0973    2.9838 O   0  5  0  0  0  0  0  0  0  0  0  0
  -23.5873  -16.1083   -0.6252 O   0  0  0  0  0  0  0  0  0  0  0  0
  -18.9448  -10.0192    0.8779 S   0  0  0  0  0  0  0  0  0  0  0  0
  -17.2115   -9.9333    0.9123 C   0  0  0  0  0  0  0  0  0  0  0  0
  -20.8834  -16.3065    1.8852 O   0  0  0  0  0  0  0  0  0  0  0  0
  -23.5130  -17.8611    1.0700 O   0  5  0  0  0  0  0  0  0  0  0  0
  -16.6746  -11.1686    1.1140 N   0  0  0  0  0  0  0  0  0  0  0  0
  -23.3394  -15.5089    1.8005 O   0  0  0  0  0  0  0  0  0  0  0  0
  -25.5298  -16.3919    0.9959 O   0  0  0  0  0  0  0  0  0  0  0  0
  -17.5662  -12.1891    1.2450 C   0  0  1  0  0  0  0  0  0  0  0  0
  -18.9733  -11.7216    1.1188 C   0  0  1  0  0  0  0  0  0  0  0  0
  -20.3198  -12.3925    1.1798 C   0  0  0  0  0  0  0  0  0  0  0  0
  -20.2993  -13.6107    0.2700 C   0  0  0  0  0  0  0  0  0  0  0  0
  -21.5021  -14.3408    0.4785 O   0  0  0  0  0  0  0  0  0  0  0  0
  1 11  1  0  0  0  0
  3 13  1  1  0  0  0
  3 17  2  0  0  0  0
  3 20  1  0  0  0  0
  3 26  1  0  0  0  0
  4 14  1  6  0  0  0
  4 18  1  0  0  0  0
  4 21  2  0  0  0  0
  4 20  1  0  0  0  0
  5 19  1  0  0  0  0
  5  7  1  0  0  0  0
  6  7  2  0  0  0  0
  6 12  1  0  0  0  0
  7  8  1  0  0  0  0
  8  9  1  0  0  0  0
  8 10  2  0  0  0  0
 10 11  1  0  0  0  0
 11 12  2  0  0  0  0
 15 23  1  0  0  0  0
 15 16  1  0  0  0  0
 16 19  1  0  0  0  0
 19 22  1  0  0  0  0
 22  2  1  6  0  0  0
 22 23  1  0  0  0  0
 23 24  1  1  0  0  0
 24 25  1  0  0  0  0
 25 26  1  0  0  0  0
M  CHG  2  13  -1  18  -1
M  END
>  <CHROM.1>
177.53049513,-15.59346753,45.27194189,-47.92702630,131.89732116,171.85770757
-68.21626341,53.39902339,-18.93617721,-12.72109098,0.83833763,0.62660104
0.13736382,0.03870149

>  <Name>
ligand

>  <RI>
0

>  <Rbt.Current_Directory>
/home/itssahil/PROJECTS/Mol_Feturizer/New_Systems/rnas/2GDI

>  <Rbt.Executable>
rbdock ($Id: //depot/dev/client3/rdock/2013.1/src/exe/rbdock.cxx#4 $)

>  <Rbt.Library>
libRbt.so (2013.1, Build901 2013/11/27)

>  <Rbt.Parameter_File>
/export/apps/rDock/src/rDock_2013.1_src/data/scripts/dock_solv.prm

>  <Rbt.Receptor>
prm/pocket_docking_2.prm

>  <SCORE>
-10.0705

>  <SCORE.INTER>
-13.0492

>  <SCORE.INTER.CONST>
1

>  <SCORE.INTER.POLAR>
0

>  <SCORE.INTER.ROT>
8

>  <SCORE.INTER.SOLV>
24.7187

>  <SCORE.INTER.VDW>
-25.8724

>  <SCORE.INTER.norm>
-0.501892

>  <SCORE.INTRA>
2.18037

>  <SCORE.INTRA.DIHEDRAL>
-2.62957

>  <SCORE.INTRA.DIHEDRAL.0>
8.13976

>  <SCORE.INTRA.POLAR>
0

>  <SCORE.INTRA.POLAR.0>
0

>  <SCORE.INTRA.REPUL>
0

>  <SCORE.INTRA.REPUL.0>
0

>  <SCORE.INTRA.SOLV>
0.872907

>  <SCORE.INTRA.SOLV.lig_0>
-82.9561

>  <SCORE.INTRA.VDW>
3.0587

>  <SCORE.INTRA.VDW.0>
-3.29171

>  <SCORE.INTRA.norm>
0.0838603

>  <SCORE.RESTR>
0.798306

>  <SCORE.RESTR.CAVITY>
0.798306

>  <SCORE.RESTR.norm>
0.0307041

>  <SCORE.SYSTEM>
0

>  <SCORE.SYSTEM.CONST>
0

>  <SCORE.SYSTEM.DIHEDRAL>
0

>  <SCORE.SYSTEM.SOLV>
0

>  <SCORE.SYSTEM.norm>
0

>  <SCORE.heavy>
26

>  <SCORE.norm>
-0.387328

>  <RMSD>
1.466

$$$$
ligand
 OpenBabel11021811433D
libRbt.so/2013.1/901 2013/11/27
 26 27  0  0  0  0  0  0  0  0999 V2000
  -12.3133   -7.3871   -0.7412 C   0  0  0  0  0  0  0  0  0  0  0  0
  -17.0034  -14.1221    0.4871 C   0  0  0  0  0  0  0  0  0  0  0  0
  -21.9706  -16.2802    0.8982 P   0  0  1  0  0  0  0  0  0  0  0  0
  -24.7428  -15.9695    1.7209 P   0  0  1  0  0  0  0  0  0  0  0  0
  -15.5601  -11.6588    1.3189 C   0  0  0  0  0  0  0  0  0  0  0  0
  -15.0049   -9.2062    1.0605 C   0  0  0  0  0  0  0  0  0  0  0  0
  -14.7067  -10.5304    0.7650 C   0  0  0  0  0  0  0  0  0  0  0  0
  -13.6079  -10.8023   -0.0335 C   0  0  0  0  0  0  0  0  0  0  0  0
  -13.2783  -12.0781   -0.3498 N   0  0  0  0  0  0  0  0  0  0  0  0
  -12.8555   -9.7836   -0.5034 N   0  0  0  0  0  0  0  0  0  0  0  0
  -13.1668   -8.5036   -0.2035 C   0  0  0  0  0  0  0  0  0  0  0  0
  -14.2389   -8.2191    0.5755 N   0  0  0  0  0  0  0  0  0  0  0  0
  -21.5464  -16.0848    2.3301 O   0  5  0  0  0  0  0  0  0  0  0  0
  -24.3603  -15.4505    3.0729 O   0  0  0  0  0  0  0  0  0  0  0  0
  -19.1636  -10.7318   -0.0749 S   0  0  0  0  0  0  0  0  0  0  0  0
  -17.5926  -10.4347    0.6010 C   0  0  0  0  0  0  0  0  0  0  0  0
  -21.8314  -17.6589    0.3199 O   0  0  0  0  0  0  0  0  0  0  0  0
  -25.8413  -15.1285    1.1611 O   0  5  0  0  0  0  0  0  0  0  0  0
  -16.9139  -11.6037    0.7672 N   0  0  0  0  0  0  0  0  0  0  0  0
  -23.4805  -15.7139    0.7359 O   0  0  0  0  0  0  0  0  0  0  0  0
  -25.0364  -17.4427    1.6389 O   0  0  0  0  0  0  0  0  0  0  0  0
  -17.5735  -12.7323    0.3869 C   0  0  1  0  0  0  0  0  0  0  0  0
  -18.9250  -12.4327   -0.1589 C   0  0  1  0  0  0  0  0  0  0  0  0
  -20.0522  -13.2663   -0.7082 C   0  0  0  0  0  0  0  0  0  0  0  0
  -20.7149  -14.0086    0.4416 C   0  0  0  0  0  0  0  0  0  0  0  0
  -21.0829  -15.3030   -0.0191 O   0  0  0  0  0  0  0  0  0  0  0  0
  1 11  1  0  0  0  0
  3 13  1  1  0  0  0
  3 17  2  0  0  0  0
  3 20  1  0  0  0  0
  3 26  1  0  0  0  0
  4 14  1  1  0  0  0
  4 18  1  0  0  0  0
  4 21  2  0  0  0  0
  4 20  1  0  0  0  0
  5 19  1  0  0  0  0
  5  7  1  0  0  0  0
  6  7  2  0  0  0  0
  6 12  1  0  0  0  0
  7  8  1  0  0  0  0
  8  9  1  0  0  0  0
  8 10  2  0  0  0  0
 10 11  1  0  0  0  0
 11 12  2  0  0  0  0
 15 23  1  0  0  0  0
 15 16  1  0  0  0  0
 16 19  1  0  0  0  0
 19 22  1  0  0  0  0
 22  2  1  6  0  0  0
 22 23  1  0  0  0  0
 23 24  1  1  0  0  0
 24 25  1  0  0  0  0
 25 26  1  0  0  0  0
M  CHG  2  13  -1  18  -1
M  END
>  <CHROM.1>
-45.47623243,-41.11027807,65.39062225,59.28227290,-106.41181334,-142.67210471
-172.37561615,-36.60829920,-19.20699252,-13.14336206,0.65363490,0.58776227
0.13349091,-0.00358400

>  <Name>
ligand

>  <RI>
0

>  <Rbt.Current_Directory>
/home/itssahil/PROJECTS/Mol_Feturizer/New_Systems/rnas/2GDI

>  <Rbt.Executable>
rbdock ($Id: //depot/dev/client3/rdock/2013.1/src/exe/rbdock.cxx#4 $)

>  <Rbt.Library>
libRbt.so (2013.1, Build901 2013/11/27)

>  <Rbt.Parameter_File>
/export/apps/rDock/src/rDock_2013.1_src/data/scripts/dock_solv.prm

>  <Rbt.Receptor>
prm/pocket_docking_2.prm

>  <SCORE>
-10.7084

>  <SCORE.INTER>
-12.8148

>  <SCORE.INTER.CONST>
1

>  <SCORE.INTER.POLAR>
0

>  <SCORE.INTER.ROT>
8

>  <SCORE.INTER.SOLV>
19.5833

>  <SCORE.INTER.VDW>
-24.0043

>  <SCORE.INTER.norm>
-0.492878

>  <SCORE.INTRA>
1.47947

>  <SCORE.INTRA.DIHEDRAL>
1.73257

>  <SCORE.INTRA.DIHEDRAL.0>
8.13976

>  <SCORE.INTRA.POLAR>
0

>  <SCORE.INTRA.POLAR.0>
0

>  <SCORE.INTRA.REPUL>
0

>  <SCORE.INTRA.REPUL.0>
0

>  <SCORE.INTRA.SOLV>
0.63854

>  <SCORE.INTRA.SOLV.lig_0>
-82.9561

>  <SCORE.INTRA.VDW>
0.293913

>  <SCORE.INTRA.VDW.0>
-3.29171

>  <SCORE.INTRA.norm>
0.0569025

>  <SCORE.RESTR>
0.626997

>  <SCORE.RESTR.CAVITY>
0.626997

>  <SCORE.RESTR.norm>
0.0241153

>  <SCORE.SYSTEM>
0

>  <SCORE.SYSTEM.CONST>
0

>  <SCORE.SYSTEM.DIHEDRAL>
0

>  <SCORE.SYSTEM.SOLV>
0

>  <SCORE.SYSTEM.norm>
0

>  <SCORE.heavy>
26

>  <SCORE.norm>
-0.41186

>  <RMSD>
1.468

$$$$
ligand
 OpenBabel11021811433D
libRbt.so/2013.1/901 2013/11/27
 26 27  0  0  0  0  0  0  0  0999 V2000
  -12.5742   -8.1725   -0.4196 C   0  0  0  0  0  0  0  0  0  0  0  0
  -17.4027  -12.6223   -1.1604 C   0  0  0  0  0  0  0  0  0  0  0  0
  -21.6698  -15.3583   -0.7083 P   0  0  1  0  0  0  0  0  0  0  0  0
  -23.8485  -16.2649    0.9917 P   0  0  1  0  0  0  0  0  0  0  0  0
  -16.0131  -12.3778    1.4573 C   0  0  0  0  0  0  0  0  0  0  0  0
  -15.4481   -9.9341    1.1416 C   0  0  0  0  0  0  0  0  0  0  0  0
  -15.1077  -11.2674    0.9514 C   0  0  0  0  0  0  0  0  0  0  0  0
  -13.9201  -11.5646    0.3033 C   0  0  0  0  0  0  0  0  0  0  0  0
  -13.5464  -12.8502    0.0936 N   0  0  0  0  0  0  0  0  0  0  0  0
  -13.1243  -10.5609   -0.1257 N   0  0  0  0  0  0  0  0  0  0  0  0
  -13.4777   -9.2717    0.0696 C   0  0  0  0  0  0  0  0  0  0  0  0
  -14.6367   -8.9626    0.7009 N   0  0  0  0  0  0  0  0  0  0  0  0
  -20.6743  -16.4463   -0.4018 O   0  5  0  0  0  0  0  0  0  0  0  0
  -24.7039  -16.5057   -0.2141 O   0  0  0  0  0  0  0  0  0  0  0  0
  -19.7939  -11.2043    1.7973 S   0  0  0  0  0  0  0  0  0  0  0  0
  -18.1764  -11.5397    2.3305 C   0  0  0  0  0  0  0  0  0  0  0  0
  -22.4141  -15.4515   -2.0091 O   0  0  0  0  0  0  0  0  0  0  0  0
  -23.1289  -17.5232    1.3466 O   0  5  0  0  0  0  0  0  0  0  0  0
  -17.4206  -12.0110    1.3003 N   0  0  0  0  0  0  0  0  0  0  0  0
  -22.6817  -15.2289    0.5510 O   0  0  0  0  0  0  0  0  0  0  0  0
  -24.5351  -15.6329    2.1717 O   0  0  0  0  0  0  0  0  0  0  0  0
  -18.0554  -12.1236    0.1012 C   0  0  1  0  0  0  0  0  0  0  0  0
  -19.4734  -11.6785    0.1757 C   0  0  1  0  0  0  0  0  0  0  0  0
  -20.6072  -11.5901   -0.8111 C   0  0  0  0  0  0  0  0  0  0  0  0
  -21.5773  -12.7298   -0.5425 C   0  0  0  0  0  0  0  0  0  0  0  0
  -20.8822  -13.9570   -0.7263 O   0  0  0  0  0  0  0  0  0  0  0  0
  1 11  1  0  0  0  0
  3 13  1  1  0  0  0
  3 17  2  0  0  0  0
  3 20  1  0  0  0  0
  3 26  1  0  0  0  0
  4 14  1  6  0  0  0
  4 18  1  0  0  0  0
  4 21  2  0  0  0  0
  4 20  1  0  0  0  0
  5 19  1  0  0  0  0
  5  7  1  0  0  0  0
  6  7  2  0  0  0  0
  6 12  1  0  0  0  0
  7  8  1  0  0  0  0
  8  9  1  0  0  0  0
  8 10  2  0  0  0  0
 10 11  1  0  0  0  0
 11 12  2  0  0  0  0
 15 23  1  0  0  0  0
 15 16  1  0  0  0  0
 16 19  1  0  0  0  0
 19 22  1  0  0  0  0
 22  2  1  6  0  0  0
 22 23  1  0  0  0  0
 23 24  1  1  0  0  0
 24 25  1  0  0  0  0
 25 26  1  0  0  0  0
M  CHG  2  13  -1  18  -1
M  END
>  <CHROM.1>
-72.09855104,-100.13069122,37.02340290,-52.46896373,-74.34019538,-61.16466185
-171.88688155,-158.82576501,-19.23090865,-13.12364008,0.34451447,0.49848905
0.28113786,0.48314333

>  <Name>
ligand

>  <RI>
0

>  <Rbt.Current_Directory>
/home/itssahil/PROJECTS/Mol_Feturizer/New_Systems/rnas/2GDI

>  <Rbt.Executable>
rbdock ($Id: //depot/dev/client3/rdock/2013.1/src/exe/rbdock.cxx#4 $)

>  <Rbt.Library>
libRbt.so (2013.1, Build901 2013/11/27)

>  <Rbt.Parameter_File>
/export/apps/rDock/src/rDock_2013.1_src/data/scripts/dock_solv.prm

>  <Rbt.Receptor>
prm/pocket_docking_4.prm

>  <SCORE>
-17.5457

>  <SCORE.INTER>
-16.2585

>  <SCORE.INTER.CONST>
1

>  <SCORE.INTER.POLAR>
0

>  <SCORE.INTER.ROT>
8

>  <SCORE.INTER.SOLV>
12.9055

>  <SCORE.INTER.VDW>
-24.0742

>  <SCORE.INTER.norm>
-0.625326

>  <SCORE.INTRA>
-1.28723

>  <SCORE.INTRA.DIHEDRAL>
-2.20859

>  <SCORE.INTRA.DIHEDRAL.0>
8.13976

>  <SCORE.INTRA.POLAR>
0

>  <SCORE.INTRA.POLAR.0>
0

>  <SCORE.INTRA.REPUL>
0

>  <SCORE.INTRA.REPUL.0>
0

>  <SCORE.INTRA.SOLV>
0.739633

>  <SCORE.INTRA.SOLV.lig_0>
-82.9561

>  <SCORE.INTRA.VDW>
-0.552746

>  <SCORE.INTRA.VDW.0>
-3.29171

>  <SCORE.INTRA.norm>
-0.0495087

>  <SCORE.RESTR>
0

>  <SCORE.RESTR.CAVITY>
0

>  <SCORE.RESTR.norm>
0

>  <SCORE.SYSTEM>
0

>  <SCORE.SYSTEM.CONST>
0

>  <SCORE.SYSTEM.DIHEDRAL>
0

>  <SCORE.SYSTEM.SOLV>
0

>  <SCORE.SYSTEM.norm>
0

>  <SCORE.heavy>
26

>  <SCORE.norm>
-0.674835

>  <RMSD>
1.549

$$$$
ligand
 OpenBabel11021811433D
libRbt.so/2013.1/901 2013/11/27
 26 27  0  0  0  0  0  0  0  0999 V2000
  -12.8607   -7.6531   -0.1047 C   0  0  0  0  0  0  0  0  0  0  0  0
  -18.2397  -13.3885   -1.2477 C   0  0  0  0  0  0  0  0  0  0  0  0
  -23.3107  -15.5771   -0.1690 P   0  0  1  0  0  0  0  0  0  0  0  0
  -24.9690  -16.1350    2.1542 P   0  0  1  0  0  0  0  0  0  0  0  0
  -15.7943  -12.5834    0.2405 C   0  0  0  0  0  0  0  0  0  0  0  0
  -15.6797  -10.0601    0.1386 C   0  0  0  0  0  0  0  0  0  0  0  0
  -15.0178  -11.2814    0.1389 C   0  0  0  0  0  0  0  0  0  0  0  0
  -13.6349  -11.2882    0.0582 C   0  0  0  0  0  0  0  0  0  0  0  0
  -12.9455  -12.4549    0.0539 N   0  0  0  0  0  0  0  0  0  0  0  0
  -12.9647  -10.1179   -0.0174 N   0  0  0  0  0  0  0  0  0  0  0  0
  -13.6311   -8.9427   -0.0177 C   0  0  0  0  0  0  0  0  0  0  0  0
  -14.9841   -8.9172    0.0595 N   0  0  0  0  0  0  0  0  0  0  0  0
  -22.4196  -16.6745    0.3509 O   0  5  0  0  0  0  0  0  0  0  0  0
  -26.4456  -16.0820    2.3998 O   0  0  0  0  0  0  0  0  0  0  0  0
  -19.0420  -11.6287    2.3211 S   0  0  0  0  0  0  0  0  0  0  0  0
  -17.3427  -11.7517    1.9885 C   0  0  0  0  0  0  0  0  0  0  0  0
  -23.5172  -15.5023   -1.6545 O   0  0  0  0  0  0  0  0  0  0  0  0
  -24.5136  -17.5560    2.1834 O   0  5  0  0  0  0  0  0  0  0  0  0
  -17.1327  -12.3477    0.7821 N   0  0  0  0  0  0  0  0  0  0  0  0
  -24.7205  -15.6502    0.6272 O   0  0  0  0  0  0  0  0  0  0  0  0
  -24.1248  -15.2342    3.0140 O   0  0  0  0  0  0  0  0  0  0  0  0
  -18.2513  -12.7170    0.0997 C   0  0  1  0  0  0  0  0  0  0  0  0
  -19.4963  -12.3635    0.8342 C   0  0  1  0  0  0  0  0  0  0  0  0
  -20.9678  -12.5314    0.5631 C   0  0  0  0  0  0  0  0  0  0  0  0
  -21.2690  -14.0138    0.4079 C   0  0  0  0  0  0  0  0  0  0  0  0
  -22.6770  -14.1697    0.2805 O   0  0  0  0  0  0  0  0  0  0  0  0
  1 11  1  0  0  0  0
  3 13  1  1  0  0  0
  3 17  2  0  0  0  0
  3 20  1  0  0  0  0
  3 26  1  0  0  0  0
  4 14  1  1  0  0  0
  4 18  1  0  0  0  0
  4 21  2  0  0  0  0
  4 20  1  0  0  0  0
  5 19  1  0  0  0  0
  5  7  1  0  0  0  0
  6  7  2  0  0  0  0
  6 12  1  0  0  0  0
  7  8  1  0  0  0  0
  8  9  1  0  0  0  0
  8 10  2  0  0  0  0
 10 11  1  0  0  0  0
 11 12  2  0  0  0  0
 15 23  1  0  0  0  0
 15 16  1  0  0  0  0
 16 19  1  0  0  0  0
 19 22  1  0  0  0  0
 22  2  1  6  0  0  0
 22 23  1  0  0  0  0
 23 24  1  1  0  0  0
 24 25  1  0  0  0  0
 25 26  1  0  0  0  0
M  CHG  2  13  -1  18  -1
M  END
>  <CHROM.1>
31.43888017,-57.06023132,-19.53494656,-177.34289725,-119.13687028,174.50562114
168.63951516,31.88980393,-19.73122992,-13.26898749,0.71486979,0.25452155
0.46180447,0.85787072

>  <Name>
ligand

>  <RI>
0

>  <Rbt.Current_Directory>
/home/itssahil/PROJECTS/Mol_Feturizer/New_Systems/rnas/2GDI

>  <Rbt.Executable>
rbdock ($Id: //depot/dev/client3/rdock/2013.1/src/exe/rbdock.cxx#4 $)

>  <Rbt.Library>
libRbt.so (2013.1, Build901 2013/11/27)

>  <Rbt.Parameter_File>
/export/apps/rDock/src/rDock_2013.1_src/data/scripts/dock_solv.prm

>  <Rbt.Receptor>
prm/pocket_docking_2.prm

>  <SCORE>
-13.391

>  <SCORE.INTER>
-14.3137

>  <SCORE.INTER.CONST>
1

>  <SCORE.INTER.POLAR>
0

>  <SCORE.INTER.ROT>
8

>  <SCORE.INTER.SOLV>
17.0792

>  <SCORE.INTER.VDW>
-24.1689

>  <SCORE.INTER.norm>
-0.550529

>  <SCORE.INTRA>
0.852355

>  <SCORE.INTRA.DIHEDRAL>
-0.688344

>  <SCORE.INTRA.DIHEDRAL.0>
8.13976

>  <SCORE.INTRA.POLAR>
0

>  <SCORE.INTRA.POLAR.0>
0

>  <SCORE.INTRA.REPUL>
0

>  <SCORE.INTRA.REPUL.0>
0

>  <SCORE.INTRA.SOLV>
1.82076

>  <SCORE.INTRA.SOLV.lig_0>
-82.9561

>  <SCORE.INTRA.VDW>
0.286149

>  <SCORE.INTRA.VDW.0>
-3.29171

>  <SCORE.INTRA.norm>
0.0327829

>  <SCORE.RESTR>
0.0703546

>  <SCORE.RESTR.CAVITY>
0.0703546

>  <SCORE.RESTR.norm>
0.00270595

>  <SCORE.SYSTEM>
0

>  <SCORE.SYSTEM.CONST>
0

>  <SCORE.SYSTEM.DIHEDRAL>
0

>  <SCORE.SYSTEM.SOLV>
0

>  <SCORE.SYSTEM.norm>
0

>  <SCORE.heavy>
26

>  <SCORE.norm>
-0.51504

>  <RMSD>
1.586

$$$$
ligand
 OpenBabel11021811433D
libRbt.so/2013.1/901 2013/11/27
 26 27  0  0  0  0  0  0  0  0999 V2000
  -12.2744   -7.8946   -0.5992 C   0  0  0  0  0  0  0  0  0  0  0  0
  -17.6704  -14.0157    0.0009 C   0  0  0  0  0  0  0  0  0  0  0  0
  -22.2151  -14.5049    1.7907 P   0  0  1  0  0  0  0  0  0  0  0  0
  -24.9297  -13.8441    0.9827 P   0  0  1  0  0  0  0  0  0  0  0  0
  -16.1299  -11.7651    1.1861 C   0  0  0  0  0  0  0  0  0  0  0  0
  -15.3068   -9.3874    0.9423 C   0  0  0  0  0  0  0  0  0  0  0  0
  -15.1147  -10.7425    0.7043 C   0  0  0  0  0  0  0  0  0  0  0  0
  -13.9726  -11.1441    0.0311 C   0  0  0  0  0  0  0  0  0  0  0  0
  -13.7424  -12.4547   -0.2251 N   0  0  0  0  0  0  0  0  0  0  0  0
  -13.0770  -10.2183   -0.3756 N   0  0  0  0  0  0  0  0  0  0  0  0
  -13.2869   -8.9058   -0.1339 C   0  0  0  0  0  0  0  0  0  0  0  0
  -14.3993   -8.4948    0.5225 N   0  0  0  0  0  0  0  0  0  0  0  0
  -22.4341  -13.3729    2.7598 O   0  5  0  0  0  0  0  0  0  0  0  0
  -25.9196  -14.5024    0.0715 O   0  0  0  0  0  0  0  0  0  0  0  0
  -19.5320  -10.4279   -0.3712 S   0  0  0  0  0  0  0  0  0  0  0  0
  -18.0049  -10.3217    0.4472 C   0  0  0  0  0  0  0  0  0  0  0  0
  -21.6157  -15.7704    2.3330 O   0  0  0  0  0  0  0  0  0  0  0  0
  -25.4540  -13.8646    2.3798 O   0  5  0  0  0  0  0  0  0  0  0  0
  -17.4265  -11.5509    0.5432 N   0  0  0  0  0  0  0  0  0  0  0  0
  -23.6121  -14.7882    1.0194 O   0  0  0  0  0  0  0  0  0  0  0  0
  -24.4483  -12.4829    0.5602 O   0  0  0  0  0  0  0  0  0  0  0  0
  -18.1307  -12.5823    0.0011 C   0  0  1  0  0  0  0  0  0  0  0  0
  -19.4082  -12.1262   -0.6108 C   0  0  1  0  0  0  0  0  0  0  0  0
  -20.5424  -12.8118   -1.3252 C   0  0  0  0  0  0  0  0  0  0  0  0
  -21.6727  -13.0446   -0.3350 C   0  0  0  0  0  0  0  0  0  0  0  0
  -21.2261  -13.9836    0.6355 O   0  0  0  0  0  0  0  0  0  0  0  0
  1 11  1  0  0  0  0
  3 13  1  1  0  0  0
  3 17  2  0  0  0  0
  3 20  1  0  0  0  0
  3 26  1  0  0  0  0
  4 14  1  6  0  0  0
  4 18  1  0  0  0  0
  4 21  2  0  0  0  0
  4 20  1  0  0  0  0
  5 19  1  0  0  0  0
  5  7  1  0  0  0  0
  6  7  2  0  0  0  0
  6 12  1  0  0  0  0
  7  8  1  0  0  0  0
  8  9  1  0  0  0  0
  8 10  2  0  0  0  0
 10 11  1  0  0  0  0
 11 12  2  0  0  0  0
 15 23  1  0  0  0  0
 15 16  1  0  0  0  0
 16 19  1  0  0  0  0
 19 22  1  0  0  0  0
 22  2  1  6  0  0  0
 22 23  1  0  0  0  0
 23 24  1  1  0  0  0
 24 25  1  0  0  0  0
 25 26  1  0  0  0  0
M  CHG  2  13  -1  18  -1
M  END
>  <CHROM.1>
13.76173446,-46.97732678,62.55858901,176.62499778,-80.33642107,-66.43459335
-176.92578995,-71.43384864,-19.53749251,-12.31634955,0.56808645,0.41350760
-0.01584200,-0.31128274

>  <Name>
ligand

>  <RI>
0

>  <Rbt.Current_Directory>
/home/itssahil/PROJECTS/Mol_Feturizer/New_Systems/rnas/2GDI

>  <Rbt.Executable>
rbdock ($Id: //depot/dev/client3/rdock/2013.1/src/exe/rbdock.cxx#4 $)

>  <Rbt.Library>
libRbt.so (2013.1, Build901 2013/11/27)

>  <Rbt.Parameter_File>
/export/apps/rDock/src/rDock_2013.1_src/data/scripts/dock_solv.prm

>  <Rbt.Receptor>
prm/pocket_docking_3.prm

>  <SCORE>
-15.2182

>  <SCORE.INTER>
-16.2985

>  <SCORE.INTER.CONST>
1

>  <SCORE.INTER.POLAR>
0

>  <SCORE.INTER.ROT>
8

>  <SCORE.INTER.SOLV>
15.2221

>  <SCORE.INTER.VDW>
-24.873

>  <SCORE.INTER.norm>
-0.626865

>  <SCORE.INTRA>
1.08027

>  <SCORE.INTRA.DIHEDRAL>
-0.714448

>  <SCORE.INTRA.DIHEDRAL.0>
8.13976

>  <SCORE.INTRA.POLAR>
0

>  <SCORE.INTRA.POLAR.0>
0

>  <SCORE.INTRA.REPUL>
0

>  <SCORE.INTRA.REPUL.0>
0

>  <SCORE.INTRA.SOLV>
3.24762

>  <SCORE.INTRA.SOLV.lig_0>
-82.9561

>  <SCORE.INTRA.VDW>
-0.186321

>  <SCORE.INTRA.VDW.0>
-3.29171

>  <SCORE.INTRA.norm>
0.0415487

>  <SCORE.RESTR>
0

>  <SCORE.RESTR.CAVITY>
0

>  <SCORE.RESTR.norm>
0

>  <SCORE.SYSTEM>
0

>  <SCORE.SYSTEM.CONST>
0

>  <SCORE.SYSTEM.DIHEDRAL>
0

>  <SCORE.SYSTEM.SOLV>
0

>  <SCORE.SYSTEM.norm>
0

>  <SCORE.heavy>
26

>  <SCORE.norm>
-0.585316

>  <RMSD>
1.625

$$$$
ligand
 OpenBabel11021811433D
libRbt.so/2013.1/901 2013/11/27
 26 27  0  0  0  0  0  0  0  0999 V2000
  -12.7479   -7.8646    0.0536 C   0  0  0  0  0  0  0  0  0  0  0  0
  -17.9638  -14.6928    1.0169 C   0  0  0  0  0  0  0  0  0  0  0  0
  -21.2722  -16.9564    1.6602 P   0  0  1  0  0  0  0  0  0  0  0  0
  -24.1446  -16.7896    1.2357 P   0  0  1  0  0  0  0  0  0  0  0  0
  -15.8330  -12.6977    0.4491 C   0  0  0  0  0  0  0  0  0  0  0  0
  -15.5672  -10.1962    0.6981 C   0  0  0  0  0  0  0  0  0  0  0  0
  -15.0193  -11.4198    0.3342 C   0  0  0  0  0  0  0  0  0  0  0  0
  -13.7120  -11.4534   -0.1228 C   0  0  0  0  0  0  0  0  0  0  0  0
  -13.1350  -12.6231   -0.4905 N   0  0  0  0  0  0  0  0  0  0  0  0
  -13.0032  -10.3064   -0.2035 N   0  0  0  0  0  0  0  0  0  0  0  0
  -13.5586   -9.1282    0.1548 C   0  0  0  0  0  0  0  0  0  0  0  0
  -14.8368   -9.0764    0.6031 N   0  0  0  0  0  0  0  0  0  0  0  0
  -20.4081  -17.3270    2.8369 O   0  5  0  0  0  0  0  0  0  0  0  0
  -23.9475  -15.5938    0.3556 O   0  0  0  0  0  0  0  0  0  0  0  0
  -19.3366  -11.3778   -0.8813 S   0  0  0  0  0  0  0  0  0  0  0  0
  -17.6290  -11.3287   -0.5730 C   0  0  0  0  0  0  0  0  0  0  0  0
  -21.1059  -17.7600    0.4026 O   0  0  0  0  0  0  0  0  0  0  0  0
  -24.1636  -18.0235    0.3964 O   0  5  0  0  0  0  0  0  0  0  0  0
  -17.2244  -12.4628    0.0633 N   0  0  0  0  0  0  0  0  0  0  0  0
  -22.8158  -16.9318    2.1538 O   0  0  0  0  0  0  0  0  0  0  0  0
  -25.3012  -16.7188    2.1951 O   0  0  0  0  0  0  0  0  0  0  0  0
  -18.1989  -13.3770    0.3241 C   0  0  1  0  0  0  0  0  0  0  0  0
  -19.5295  -12.9327   -0.1724 C   0  0  1  0  0  0  0  0  0  0  0  0
  -20.9148  -13.5222   -0.1566 C   0  0  0  0  0  0  0  0  0  0  0  0
  -20.7995  -15.0366   -0.0822 C   0  0  0  0  0  0  0  0  0  0  0  0
  -20.9570  -15.4275    1.2763 O   0  0  0  0  0  0  0  0  0  0  0  0
  1 11  1  0  0  0  0
  3 13  1  1  0  0  0
  3 17  2  0  0  0  0
  3 20  1  0  0  0  0
  3 26  1  0  0  0  0
  4 14  1  6  0  0  0
  4 18  1  0  0  0  0
  4 21  2  0  0  0  0
  4 20  1  0  0  0  0
  5 19  1  0  0  0  0
  5  7  1  0  0  0  0
  6  7  2  0  0  0  0
  6 12  1  0  0  0  0
  7  8  1  0  0  0  0
  8  9  1  0  0  0  0
  8 10  2  0  0  0  0
 10 11  1  0  0  0  0
 11 12  2  0  0  0  0
 15 23  1  0  0  0  0
 15 16  1  0  0  0  0
 16 19  1  0  0  0  0
 19 22  1  0  0  0  0
 22  2  1  6  0  0  0
 22 23  1  0  0  0  0
 23 24  1  1  0  0  0
 24 25  1  0  0  0  0
 25 26  1  0  0  0  0
M  CHG  2  13  -1  18  -1
M  END
>  <CHROM.1>
-170.96457992,12.78446186,38.66437033,-51.47402223,155.41962100,97.63238831
163.89259668,136.46062962,-19.15020167,-13.85292541,0.57784116,0.64584432
-0.10520612,-0.33345914

>  <Name>
ligand

>  <RI>
0

>  <Rbt.Current_Directory>
/home/itssahil/PROJECTS/Mol_Feturizer/New_Systems/rnas/2GDI

>  <Rbt.Executable>
rbdock ($Id: //depot/dev/client3/rdock/2013.1/src/exe/rbdock.cxx#4 $)

>  <Rbt.Library>
libRbt.so (2013.1, Build901 2013/11/27)

>  <Rbt.Parameter_File>
/export/apps/rDock/src/rDock_2013.1_src/data/scripts/dock_solv.prm

>  <Rbt.Receptor>
prm/pocket_docking_2.prm

>  <SCORE>
-4.5954

>  <SCORE.INTER>
-10.8203

>  <SCORE.INTER.CONST>
1

>  <SCORE.INTER.POLAR>
0

>  <SCORE.INTER.ROT>
8

>  <SCORE.INTER.SOLV>
19.5574

>  <SCORE.INTER.VDW>
-22.666

>  <SCORE.INTER.norm>
-0.416165

>  <SCORE.INTRA>
5.07933

>  <SCORE.INTRA.DIHEDRAL>
4.29215

>  <SCORE.INTRA.DIHEDRAL.0>
8.13976

>  <SCORE.INTRA.POLAR>
0

>  <SCORE.INTRA.POLAR.0>
0

>  <SCORE.INTRA.REPUL>
0

>  <SCORE.INTRA.REPUL.0>
0

>  <SCORE.INTRA.SOLV>
0.525097

>  <SCORE.INTRA.SOLV.lig_0>
-82.9561

>  <SCORE.INTRA.VDW>
2.6707

>  <SCORE.INTRA.VDW.0>
-3.29171

>  <SCORE.INTRA.norm>
0.195359

>  <SCORE.RESTR>
1.14555

>  <SCORE.RESTR.CAVITY>
1.14555

>  <SCORE.RESTR.norm>
0.0440597

>  <SCORE.SYSTEM>
0

>  <SCORE.SYSTEM.CONST>
0

>  <SCORE.SYSTEM.DIHEDRAL>
0

>  <SCORE.SYSTEM.SOLV>
0

>  <SCORE.SYSTEM.norm>
0

>  <SCORE.heavy>
26

>  <SCORE.norm>
-0.176746

>  <RMSD>
1.631

$$$$
ligand
 OpenBabel11021811433D
libRbt.so/2013.1/901 2013/11/27
 26 27  0  0  0  0  0  0  0  0999 V2000
  -12.8921   -7.6344   -0.1849 C   0  0  0  0  0  0  0  0  0  0  0  0
  -17.6484  -11.4946    2.5024 C   0  0  0  0  0  0  0  0  0  0  0  0
  -21.7819  -15.3779    1.7953 P   0  0  1  0  0  0  0  0  0  0  0  0
  -24.1190  -15.5274    0.0706 P   0  0  1  0  0  0  0  0  0  0  0  0
  -15.5044  -12.6580    0.8016 C   0  0  0  0  0  0  0  0  0  0  0  0
  -15.4391  -10.1315    0.8533 C   0  0  0  0  0  0  0  0  0  0  0  0
  -14.8165  -11.3307    0.5306 C   0  0  0  0  0  0  0  0  0  0  0  0
  -13.5506  -11.2927   -0.0305 C   0  0  0  0  0  0  0  0  0  0  0  0
  -12.9041  -12.4363   -0.3630 N   0  0  0  0  0  0  0  0  0  0  0  0
  -12.9528  -10.1014   -0.2496 N   0  0  0  0  0  0  0  0  0  0  0  0
  -13.5794   -8.9483    0.0711 C   0  0  0  0  0  0  0  0  0  0  0  0
  -14.8186   -8.9665    0.6200 N   0  0  0  0  0  0  0  0  0  0  0  0
  -22.6170  -15.0049    2.9919 O   0  5  0  0  0  0  0  0  0  0  0  0
  -24.9425  -14.9894    1.2001 O   0  0  0  0  0  0  0  0  0  0  0  0
  -19.0101  -12.9044   -1.0521 S   0  0  0  0  0  0  0  0  0  0  0  0
  -17.2984  -13.1087   -0.8485 C   0  0  0  0  0  0  0  0  0  0  0  0
  -20.5343  -16.1748    2.0466 O   0  0  0  0  0  0  0  0  0  0  0  0
  -23.6886  -14.4004   -0.8080 O   0  5  0  0  0  0  0  0  0  0  0  0
  -16.8978  -12.6198    0.3578 N   0  0  0  0  0  0  0  0  0  0  0  0
  -22.7454  -16.1024    0.7118 O   0  0  0  0  0  0  0  0  0  0  0  0
  -24.7228  -16.6699   -0.6998 O   0  0  0  0  0  0  0  0  0  0  0  0
  -17.8783  -12.0868    1.1376 C   0  0  1  0  0  0  0  0  0  0  0  0
  -19.2155  -12.1721    0.4902 C   0  0  1  0  0  0  0  0  0  0  0  0
  -20.6079  -11.7527    0.8805 C   0  0  0  0  0  0  0  0  0  0  0  0
  -21.1945  -12.8089    1.8039 C   0  0  0  0  0  0  0  0  0  0  0  0
  -21.3235  -14.0194    1.0683 O   0  0  0  0  0  0  0  0  0  0  0  0
  1 11  1  0  0  0  0
  3 13  1  1  0  0  0
  3 17  2  0  0  0  0
  3 20  1  0  0  0  0
  3 26  1  0  0  0  0
  4 14  1  1  0  0  0
  4 18  1  0  0  0  0
  4 21  2  0  0  0  0
  4 20  1  0  0  0  0
  5 19  1  0  0  0  0
  5  7  1  0  0  0  0
  6  7  2  0  0  0  0
  6 12  1  0  0  0  0
  7  8  1  0  0  0  0
  8  9  1  0  0  0  0
  8 10  2  0  0  0  0
 10 11  1  0  0  0  0
 11 12  2  0  0  0  0
 15 23  1  0  0  0  0
 15 16  1  0  0  0  0
 16 19  1  0  0  0  0
 19 22  1  0  0  0  0
 22  2  1  1  0  0  0
 22 23  1  0  0  0  0
 23 24  1  6  0  0  0
 24 25  1  0  0  0  0
 25 26  1  0  0  0  0
M  CHG  2  13  -1  18  -1
M  END
>  <CHROM.1>
54.84989317,97.12070801,45.92174169,-46.90212127,100.07034744,-64.50949360
174.00560507,26.94289596,-19.15631218,-13.06879465,0.58232244,0.50887750
0.05167766,-0.01887881

>  <Name>
ligand

>  <RI>
0

>  <Rbt.Current_Directory>
/home/itssahil/PROJECTS/Mol_Feturizer/New_Systems/rnas/2GDI

>  <Rbt.Executable>
rbdock ($Id: //depot/dev/client3/rdock/2013.1/src/exe/rbdock.cxx#4 $)

>  <Rbt.Library>
libRbt.so (2013.1, Build901 2013/11/27)

>  <Rbt.Parameter_File>
/export/apps/rDock/src/rDock_2013.1_src/data/scripts/dock_solv.prm

>  <Rbt.Receptor>
prm/pocket_docking_2.prm

>  <SCORE>
-14.2137

>  <SCORE.INTER>
-13.3196

>  <SCORE.INTER.CONST>
1

>  <SCORE.INTER.POLAR>
0

>  <SCORE.INTER.ROT>
8

>  <SCORE.INTER.SOLV>
21.8701

>  <SCORE.INTER.VDW>
-25.1031

>  <SCORE.INTER.norm>
-0.512293

>  <SCORE.INTRA>
-0.912258

>  <SCORE.INTRA.DIHEDRAL>
-1.29269

>  <SCORE.INTRA.DIHEDRAL.0>
8.13976

>  <SCORE.INTRA.POLAR>
0

>  <SCORE.INTRA.POLAR.0>
0

>  <SCORE.INTRA.REPUL>
0

>  <SCORE.INTRA.REPUL.0>
0

>  <SCORE.INTRA.SOLV>
0.0358189

>  <SCORE.INTRA.SOLV.lig_0>
-82.9561

>  <SCORE.INTRA.VDW>
-0.283822

>  <SCORE.INTRA.VDW.0>
-3.29171

>  <SCORE.INTRA.norm>
-0.0350868

>  <SCORE.RESTR>
0.0182007

>  <SCORE.RESTR.CAVITY>
0.0182007

>  <SCORE.RESTR.norm>
0.000700025

>  <SCORE.SYSTEM>
0

>  <SCORE.SYSTEM.CONST>
0

>  <SCORE.SYSTEM.DIHEDRAL>
0

>  <SCORE.SYSTEM.SOLV>
0

>  <SCORE.SYSTEM.norm>
0

>  <SCORE.heavy>
26

>  <SCORE.norm>
-0.54668

>  <RMSD>
1.640

$$$$
ligand
 OpenBabel11021811433D
libRbt.so/2013.1/901 2013/11/27
 26 27  0  0  0  0  0  0  0  0999 V2000
  -12.6166   -7.8701   -0.4050 C   0  0  0  0  0  0  0  0  0  0  0  0
  -18.4916  -11.3577    1.9132 C   0  0  0  0  0  0  0  0  0  0  0  0
  -21.8908  -14.3681    1.5391 P   0  0  1  0  0  0  0  0  0  0  0  0
  -23.8077  -16.3797    0.6802 P   0  0  1  0  0  0  0  0  0  0  0  0
  -15.7758  -12.3751    1.2556 C   0  0  0  0  0  0  0  0  0  0  0  0
  -15.3997   -9.8882    1.0028 C   0  0  0  0  0  0  0  0  0  0  0  0
  -14.9439  -11.1857    0.8067 C   0  0  0  0  0  0  0  0  0  0  0  0
  -13.7099  -11.3733    0.2059 C   0  0  0  0  0  0  0  0  0  0  0  0
  -13.2239  -12.6202   -0.0074 N   0  0  0  0  0  0  0  0  0  0  0  0
  -12.9815  -10.3005   -0.1725 N   0  0  0  0  0  0  0  0  0  0  0  0
  -13.4470   -9.0481    0.0275 C   0  0  0  0  0  0  0  0  0  0  0  0
  -14.6527   -8.8459    0.6128 N   0  0  0  0  0  0  0  0  0  0  0  0
  -21.9959  -12.9247    1.9564 O   0  5  0  0  0  0  0  0  0  0  0  0
  -22.9821  -16.7580   -0.5110 O   0  0  0  0  0  0  0  0  0  0  0  0
  -18.3297  -13.3139   -1.6398 S   0  0  0  0  0  0  0  0  0  0  0  0
  -16.7972  -13.2489   -0.8272 C   0  0  0  0  0  0  0  0  0  0  0  0
  -21.2337  -15.3173    2.4993 O   0  0  0  0  0  0  0  0  0  0  0  0
  -23.4248  -17.2378    1.8397 O   0  5  0  0  0  0  0  0  0  0  0  0
  -16.9102  -12.5835    0.3557 N   0  0  0  0  0  0  0  0  0  0  0  0
  -23.3677  -14.8796    1.1100 O   0  0  0  0  0  0  0  0  0  0  0  0
  -25.2950  -16.3249    0.4610 O   0  0  0  0  0  0  0  0  0  0  0  0
  -18.1530  -12.1171    0.6581 C   0  0  1  0  0  0  0  0  0  0  0  0
  -19.1496  -12.4603   -0.3924 C   0  0  1  0  0  0  0  0  0  0  0  0
  -20.6221  -12.2055   -0.5765 C   0  0  0  0  0  0  0  0  0  0  0  0
  -21.3099  -13.5251   -0.8893 C   0  0  0  0  0  0  0  0  0  0  0  0
  -21.0414  -14.4290    0.1756 O   0  0  0  0  0  0  0  0  0  0  0  0
  1 11  1  0  0  0  0
  3 13  1  1  0  0  0
  3 17  2  0  0  0  0
  3 20  1  0  0  0  0
  3 26  1  0  0  0  0
  4 14  1  6  0  0  0
  4 18  1  0  0  0  0
  4 21  2  0  0  0  0
  4 20  1  0  0  0  0
  5 19  1  0  0  0  0
  5  7  1  0  0  0  0
  6  7  2  0  0  0  0
  6 12  1  0  0  0  0
  7  8  1  0  0  0  0
  8  9  1  0  0  0  0
  8 10  2  0  0  0  0
 10 11  1  0  0  0  0
 11 12  2  0  0  0  0
 15 23  1  0  0  0  0
 15 16  1  0  0  0  0
 16 19  1  0  0  0  0
 19 22  1  0  0  0  0
 22  2  1  1  0  0  0
 22 23  1  0  0  0  0
 23 24  1  6  0  0  0
 24 25  1  0  0  0  0
 25 26  1  0  0  0  0
M  CHG  2  13  -1  18  -1
M  END
>  <CHROM.1>
-175.54725877,81.91014657,74.48333345,-58.86458787,52.42688078,57.48149156
80.99132499,-45.58717943,-19.07727673,-13.15606868,0.44285464,0.34254470
0.43051967,0.73248428

>  <Name>
ligand

>  <RI>
0

>  <Rbt.Current_Directory>
/home/itssahil/PROJECTS/Mol_Feturizer/New_Systems/rnas/2GDI

>  <Rbt.Executable>
rbdock ($Id: //depot/dev/client3/rdock/2013.1/src/exe/rbdock.cxx#4 $)

>  <Rbt.Library>
libRbt.so (2013.1, Build901 2013/11/27)

>  <Rbt.Parameter_File>
/export/apps/rDock/src/rDock_2013.1_src/data/scripts/dock_solv.prm

>  <Rbt.Receptor>
prm/pocket_docking_2.prm

>  <SCORE>
-12.1539

>  <SCORE.INTER>
-12.3733

>  <SCORE.INTER.CONST>
1

>  <SCORE.INTER.POLAR>
0

>  <SCORE.INTER.ROT>
8

>  <SCORE.INTER.SOLV>
20.2491

>  <SCORE.INTER.VDW>
-23.9319

>  <SCORE.INTER.norm>
-0.475896

>  <SCORE.INTRA>
0.219377

>  <SCORE.INTRA.DIHEDRAL>
-0.652864

>  <SCORE.INTRA.DIHEDRAL.0>
8.13976

>  <SCORE.INTRA.POLAR>
0

>  <SCORE.INTRA.POLAR.0>
0

>  <SCORE.INTRA.REPUL>
0

>  <SCORE.INTRA.REPUL.0>
0

>  <SCORE.INTRA.SOLV>
1.81579

>  <SCORE.INTRA.SOLV.lig_0>
-82.9561

>  <SCORE.INTRA.VDW>
-0.362087

>  <SCORE.INTRA.VDW.0>
-3.29171

>  <SCORE.INTRA.norm>
0.00843758

>  <SCORE.RESTR>
0

>  <SCORE.RESTR.CAVITY>
0

>  <SCORE.RESTR.norm>
0

>  <SCORE.SYSTEM>
0

>  <SCORE.SYSTEM.CONST>
0

>  <SCORE.SYSTEM.DIHEDRAL>
0

>  <SCORE.SYSTEM.SOLV>
0

>  <SCORE.SYSTEM.norm>
0

>  <SCORE.heavy>
26

>  <SCORE.norm>
-0.467458

>  <RMSD>
1.694

$$$$
ligand
 OpenBabel11021811433D
libRbt.so/2013.1/901 2013/11/27
 26 27  0  0  0  0  0  0  0  0999 V2000
  -12.7315   -6.9722   -0.2697 C   0  0  0  0  0  0  0  0  0  0  0  0
  -17.1139  -11.8116    2.8797 C   0  0  0  0  0  0  0  0  0  0  0  0
  -21.7122  -14.9264    1.8813 P   0  0  1  0  0  0  0  0  0  0  0  0
  -23.5630  -15.7997   -0.1853 P   0  0  1  0  0  0  0  0  0  0  0  0
  -15.5951  -11.9198    0.3253 C   0  0  0  0  0  0  0  0  0  0  0  0
  -15.4981   -9.3947    0.2570 C   0  0  0  0  0  0  0  0  0  0  0  0
  -14.8383  -10.6131    0.1575 C   0  0  0  0  0  0  0  0  0  0  0  0
  -13.4743  -10.6129   -0.0842 C   0  0  0  0  0  0  0  0  0  0  0  0
  -12.7879  -11.7765   -0.1905 N   0  0  0  0  0  0  0  0  0  0  0  0
  -12.8198   -9.4386   -0.2162 N   0  0  0  0  0  0  0  0  0  0  0  0
  -13.4839   -8.2663   -0.1170 C   0  0  0  0  0  0  0  0  0  0  0  0
  -14.8187   -8.2478    0.1182 N   0  0  0  0  0  0  0  0  0  0  0  0
  -22.7337  -14.8915    2.9876 O   0  5  0  0  0  0  0  0  0  0  0  0
  -23.9582  -15.2373   -1.5161 O   0  0  0  0  0  0  0  0  0  0  0  0
  -19.4441  -11.2471   -0.3958 S   0  0  0  0  0  0  0  0  0  0  0  0
  -17.7714  -11.5000   -0.7847 C   0  0  0  0  0  0  0  0  0  0  0  0
  -20.7547  -16.0830    1.8633 O   0  0  0  0  0  0  0  0  0  0  0  0
  -22.8029  -17.0676   -0.3903 O   0  5  0  0  0  0  0  0  0  0  0  0
  -17.0386  -11.6836    0.3485 N   0  0  0  0  0  0  0  0  0  0  0  0
  -22.4911  -14.7736    0.4682 O   0  0  0  0  0  0  0  0  0  0  0  0
  -24.6679  -15.9390    0.8261 O   0  0  0  0  0  0  0  0  0  0  0  0
  -17.7326  -11.6342    1.5187 C   0  0  1  0  0  0  0  0  0  0  0  0
  -19.1855  -11.4003    1.2974 C   0  0  1  0  0  0  0  0  0  0  0  0
  -20.3829  -11.2579    2.1989 C   0  0  0  0  0  0  0  0  0  0  0  0
  -21.4116  -12.3091    1.8129 C   0  0  0  0  0  0  0  0  0  0  0  0
  -20.8222  -13.5918    1.9868 O   0  0  0  0  0  0  0  0  0  0  0  0
  1 11  1  0  0  0  0
  3 13  1  1  0  0  0
  3 17  2  0  0  0  0
  3 20  1  0  0  0  0
  3 26  1  0  0  0  0
  4 14  1  6  0  0  0
  4 18  1  0  0  0  0
  4 21  2  0  0  0  0
  4 20  1  0  0  0  0
  5 19  1  0  0  0  0
  5  7  1  0  0  0  0
  6  7  2  0  0  0  0
  6 12  1  0  0  0  0
  7  8  1  0  0  0  0
  8  9  1  0  0  0  0
  8 10  2  0  0  0  0
 10 11  1  0  0  0  0
 11 12  2  0  0  0  0
 15 23  1  0  0  0  0
 15 16  1  0  0  0  0
 16 19  1  0  0  0  0
 19 22  1  0  0  0  0
 22  2  1  6  0  0  0
 22 23  1  0  0  0  0
 23 24  1  1  0  0  0
 24 25  1  0  0  0  0
 25 26  1  0  0  0  0
M  CHG  2  13  -1  18  -1
M  END
>  <CHROM.1>
-64.18588710,80.42294532,10.04252951,-178.01039607,58.57671657,60.59917162
170.59495553,-63.11537871,-19.03368604,-12.60454428,0.63915824,0.19041821
0.56535659,1.11799144

>  <Name>
ligand

>  <RI>
0

>  <Rbt.Current_Directory>
/home/itssahil/PROJECTS/Mol_Feturizer/New_Systems/rnas/2GDI

>  <Rbt.Executable>
rbdock ($Id: //depot/dev/client3/rdock/2013.1/src/exe/rbdock.cxx#4 $)

>  <Rbt.Library>
libRbt.so (2013.1, Build901 2013/11/27)

>  <Rbt.Parameter_File>
/export/apps/rDock/src/rDock_2013.1_src/data/scripts/dock_solv.prm

>  <Rbt.Receptor>
prm/pocket_docking_3.prm

>  <SCORE>
-17.2381

>  <SCORE.INTER>
-16.8795

>  <SCORE.INTER.CONST>
1

>  <SCORE.INTER.POLAR>
0

>  <SCORE.INTER.ROT>
8

>  <SCORE.INTER.SOLV>
21.3813

>  <SCORE.INTER.VDW>
-27.3135

>  <SCORE.INTER.norm>
-0.649213

>  <SCORE.INTRA>
-0.358557

>  <SCORE.INTRA.DIHEDRAL>
-2.43839

>  <SCORE.INTRA.DIHEDRAL.0>
8.13976

>  <SCORE.INTRA.POLAR>
0

>  <SCORE.INTRA.POLAR.0>
0

>  <SCORE.INTRA.REPUL>
0

>  <SCORE.INTRA.REPUL.0>
0

>  <SCORE.INTRA.SOLV>
1.59886

>  <SCORE.INTRA.SOLV.lig_0>
-82.9561

>  <SCORE.INTRA.VDW>
0.0612094

>  <SCORE.INTRA.VDW.0>
-3.29171

>  <SCORE.INTRA.norm>
-0.0137907

>  <SCORE.RESTR>
0

>  <SCORE.RESTR.CAVITY>
0

>  <SCORE.RESTR.norm>
0

>  <SCORE.SYSTEM>
0

>  <SCORE.SYSTEM.CONST>
0

>  <SCORE.SYSTEM.DIHEDRAL>
0

>  <SCORE.SYSTEM.SOLV>
0

>  <SCORE.SYSTEM.norm>
0

>  <SCORE.heavy>
26

>  <SCORE.norm>
-0.663003

>  <RMSD>
1.800

$$$$
ligand
 OpenBabel11021811433D
libRbt.so/2013.1/901 2013/11/27
 26 27  0  0  0  0  0  0  0  0999 V2000
  -12.3981   -7.7686   -0.6221 C   0  0  0  0  0  0  0  0  0  0  0  0
  -17.3889  -12.5446   -1.3359 C   0  0  0  0  0  0  0  0  0  0  0  0
  -23.0478  -13.4664    1.3750 P   0  0  1  0  0  0  0  0  0  0  0  0
  -25.8541  -13.6168    0.6262 P   0  0  1  0  0  0  0  0  0  0  0  0
  -15.7718  -12.0846    1.1169 C   0  0  0  0  0  0  0  0  0  0  0  0
  -15.3450   -9.6364    0.6536 C   0  0  0  0  0  0  0  0  0  0  0  0
  -14.8820  -10.9461    0.6472 C   0  0  0  0  0  0  0  0  0  0  0  0
  -13.5885  -11.1920    0.2168 C   0  0  0  0  0  0  0  0  0  0  0  0
  -13.0931  -12.4532    0.1916 N   0  0  0  0  0  0  0  0  0  0  0  0
  -12.8108  -10.1626   -0.1833 N   0  0  0  0  0  0  0  0  0  0  0  0
  -13.2843   -8.8973   -0.1696 C   0  0  0  0  0  0  0  0  0  0  0  0
  -14.5478   -8.6384    0.2474 N   0  0  0  0  0  0  0  0  0  0  0  0
  -23.4579  -12.9833    2.7413 O   0  5  0  0  0  0  0  0  0  0  0  0
  -26.5602  -13.5089   -0.6904 O   0  0  0  0  0  0  0  0  0  0  0  0
  -19.4913  -10.7997    1.6661 S   0  0  0  0  0  0  0  0  0  0  0  0
  -17.8381  -11.1193    2.0881 C   0  0  0  0  0  0  0  0  0  0  0  0
  -22.4904  -14.8571    1.2740 O   0  0  0  0  0  0  0  0  0  0  0  0
  -25.8418  -15.0431    1.0652 O   0  5  0  0  0  0  0  0  0  0  0  0
  -17.1823  -11.7029    1.0469 N   0  0  0  0  0  0  0  0  0  0  0  0
  -24.2968  -13.2487    0.3653 O   0  0  0  0  0  0  0  0  0  0  0  0
  -26.3231  -12.6786    1.7047 O   0  0  0  0  0  0  0  0  0  0  0  0
  -17.9214  -11.9142   -0.0767 C   0  0  1  0  0  0  0  0  0  0  0  0
  -19.3210  -11.4322    0.0762 C   0  0  1  0  0  0  0  0  0  0  0  0
  -20.5355  -11.4122   -0.8135 C   0  0  0  0  0  0  0  0  0  0  0  0
  -21.3923  -12.6278   -0.4963 C   0  0  0  0  0  0  0  0  0  0  0  0
  -21.9134  -12.4727    0.8181 O   0  0  0  0  0  0  0  0  0  0  0  0
  1 11  1  0  0  0  0
  3 13  1  1  0  0  0
  3 17  2  0  0  0  0
  3 20  1  0  0  0  0
  3 26  1  0  0  0  0
  4 14  1  6  0  0  0
  4 18  1  0  0  0  0
  4 21  2  0  0  0  0
  4 20  1  0  0  0  0
  5 19  1  0  0  0  0
  5  7  1  0  0  0  0
  6  7  2  0  0  0  0
  6 12  1  0  0  0  0
  7  8  1  0  0  0  0
  8  9  1  0  0  0  0
  8 10  2  0  0  0  0
 10 11  1  0  0  0  0
 11 12  2  0  0  0  0
 15 23  1  0  0  0  0
 15 16  1  0  0  0  0
 16 19  1  0  0  0  0
 19 22  1  0  0  0  0
 22  2  1  6  0  0  0
 22 23  1  0  0  0  0
 23 24  1  1  0  0  0
 24 25  1  0  0  0  0
 25 26  1  0  0  0  0
M  CHG  2  13  -1  18  -1
M  END
>  <CHROM.1>
-45.81151962,-90.44702890,21.63771644,-167.90878533,-82.98433219,67.17499598
170.13063668,-175.86147814,-19.80947429,-11.99743684,0.61976036,0.30562991
0.07269984,0.01770509

>  <Name>
ligand

>  <RI>
0

>  <Rbt.Current_Directory>
/home/itssahil/PROJECTS/Mol_Feturizer/New_Systems/rnas/2GDI

>  <Rbt.Executable>
rbdock ($Id: //depot/dev/client3/rdock/2013.1/src/exe/rbdock.cxx#4 $)

>  <Rbt.Library>
libRbt.so (2013.1, Build901 2013/11/27)

>  <Rbt.Parameter_File>
/export/apps/rDock/src/rDock_2013.1_src/data/scripts/dock_solv.prm

>  <Rbt.Receptor>
prm/pocket_docking_4.prm

>  <SCORE>
-18.9818

>  <SCORE.INTER>
-18.506

>  <SCORE.INTER.CONST>
1

>  <SCORE.INTER.POLAR>
0

>  <SCORE.INTER.ROT>
8

>  <SCORE.INTER.SOLV>
23.1078

>  <SCORE.INTER.VDW>
-28.9733

>  <SCORE.INTER.norm>
-0.711769

>  <SCORE.INTRA>
-0.475778

>  <SCORE.INTRA.DIHEDRAL>
-1.85936

>  <SCORE.INTRA.DIHEDRAL.0>
8.13976

>  <SCORE.INTRA.POLAR>
0

>  <SCORE.INTRA.POLAR.0>
0

>  <SCORE.INTRA.REPUL>
0

>  <SCORE.INTRA.REPUL.0>
0

>  <SCORE.INTRA.SOLV>
1.74743

>  <SCORE.INTRA.SOLV.lig_0>
-82.9561

>  <SCORE.INTRA.VDW>
-0.419817

>  <SCORE.INTRA.VDW.0>
-3.29171

>  <SCORE.INTRA.norm>
-0.0182991

>  <SCORE.RESTR>
0

>  <SCORE.RESTR.CAVITY>
0

>  <SCORE.RESTR.norm>
0

>  <SCORE.SYSTEM>
0

>  <SCORE.SYSTEM.CONST>
0

>  <SCORE.SYSTEM.DIHEDRAL>
0

>  <SCORE.SYSTEM.SOLV>
0

>  <SCORE.SYSTEM.norm>
0

>  <SCORE.heavy>
26

>  <SCORE.norm>
-0.730068

>  <RMSD>
1.818

$$$$
ligand
 OpenBabel11021811433D
libRbt.so/2013.1/901 2013/11/27
 26 27  0  0  0  0  0  0  0  0999 V2000
  -12.9546   -8.0304   -0.2791 C   0  0  0  0  0  0  0  0  0  0  0  0
  -17.8258  -14.5577    0.3575 C   0  0  0  0  0  0  0  0  0  0  0  0
  -23.3588  -15.2909    0.1976 P   0  0  1  0  0  0  0  0  0  0  0  0
  -25.6117  -15.4963    2.0255 P   0  0  1  0  0  0  0  0  0  0  0  0
  -15.8418  -12.6665    1.5109 C   0  0  0  0  0  0  0  0  0  0  0  0
  -15.5497  -10.1639    1.3064 C   0  0  0  0  0  0  0  0  0  0  0  0
  -15.0826  -11.4422    1.0281 C   0  0  0  0  0  0  0  0  0  0  0  0
  -13.9039  -11.5784    0.3133 C   0  0  0  0  0  0  0  0  0  0  0  0
  -13.4096  -12.8049    0.0168 N   0  0  0  0  0  0  0  0  0  0  0  0
  -13.2386  -10.4756   -0.0939 N   0  0  0  0  0  0  0  0  0  0  0  0
  -13.7140   -9.2427    0.1876 C   0  0  0  0  0  0  0  0  0  0  0  0
  -14.8663   -9.0907    0.8850 N   0  0  0  0  0  0  0  0  0  0  0  0
  -22.6042  -16.3274   -0.5928 O   0  5  0  0  0  0  0  0  0  0  0  0
  -26.6415  -16.5575    2.2635 O   0  0  0  0  0  0  0  0  0  0  0  0
  -19.5266  -11.2749    2.0330 S   0  0  0  0  0  0  0  0  0  0  0  0
  -17.7943  -11.2762    2.1429 C   0  0  0  0  0  0  0  0  0  0  0  0
  -23.6374  -13.9781   -0.4760 O   0  0  0  0  0  0  0  0  0  0  0  0
  -24.6613  -15.4627    3.1756 O   0  5  0  0  0  0  0  0  0  0  0  0
  -17.2786  -12.3971    1.5663 N   0  0  0  0  0  0  0  0  0  0  0  0
  -24.7168  -15.9735    0.7605 O   0  0  0  0  0  0  0  0  0  0  0  0
  -26.1395  -14.1344    1.6649 O   0  0  0  0  0  0  0  0  0  0  0  0
  -18.1857  -13.2638    1.0379 C   0  0  1  0  0  0  0  0  0  0  0  0
  -19.5826  -12.7756    1.1951 C   0  0  1  0  0  0  0  0  0  0  0  0
  -20.9383  -13.3087    0.8143 C   0  0  0  0  0  0  0  0  0  0  0  0
  -21.1140  -14.6843    1.4379 C   0  0  0  0  0  0  0  0  0  0  0  0
  -22.5071  -14.9597    1.5202 O   0  0  0  0  0  0  0  0  0  0  0  0
  1 11  1  0  0  0  0
  3 13  1  6  0  0  0
  3 17  2  0  0  0  0
  3 20  1  0  0  0  0
  3 26  1  0  0  0  0
  4 14  1  1  0  0  0
  4 18  1  0  0  0  0
  4 21  2  0  0  0  0
  4 20  1  0  0  0  0
  5 19  1  0  0  0  0
  5  7  1  0  0  0  0
  6  7  2  0  0  0  0
  6 12  1  0  0  0  0
  7  8  1  0  0  0  0
  8  9  1  0  0  0  0
  8 10  2  0  0  0  0
 10 11  1  0  0  0  0
 11 12  2  0  0  0  0
 15 23  1  0  0  0  0
 15 16  1  0  0  0  0
 16 19  1  0  0  0  0
 19 22  1  0  0  0  0
 22  2  1  6  0  0  0
 22 23  1  0  0  0  0
 23 24  1  1  0  0  0
 24 25  1  0  0  0  0
 25 26  1  0  0  0  0
M  CHG  2  13  -1  18  -1
M  END
>  <CHROM.1>
157.98687689,-47.62426387,31.21288099,-171.85881406,-122.01135022,158.22051091
72.22407542,48.16775961,-19.94611575,-13.21694268,1.05417722,0.37578793,0.25414653
0.40432613

>  <Name>
ligand

>  <RI>
0

>  <Rbt.Current_Directory>
/home/itssahil/PROJECTS/Mol_Feturizer/New_Systems/rnas/2GDI

>  <Rbt.Executable>
rbdock ($Id: //depot/dev/client3/rdock/2013.1/src/exe/rbdock.cxx#4 $)

>  <Rbt.Library>
libRbt.so (2013.1, Build901 2013/11/27)

>  <Rbt.Parameter_File>
/export/apps/rDock/src/rDock_2013.1_src/data/scripts/dock_solv.prm

>  <Rbt.Receptor>
prm/pocket_docking_3.prm

>  <SCORE>
-13.3274

>  <SCORE.INTER>
-16.1465

>  <SCORE.INTER.CONST>
1

>  <SCORE.INTER.POLAR>
0

>  <SCORE.INTER.ROT>
8

>  <SCORE.INTER.SOLV>
16.3517

>  <SCORE.INTER.VDW>
-25.1482

>  <SCORE.INTER.norm>
-0.62102

>  <SCORE.INTRA>
2.8191

>  <SCORE.INTRA.DIHEDRAL>
-0.370962

>  <SCORE.INTRA.DIHEDRAL.0>
8.13976

>  <SCORE.INTRA.POLAR>
0

>  <SCORE.INTRA.POLAR.0>
0

>  <SCORE.INTRA.REPUL>
0

>  <SCORE.INTRA.REPUL.0>
0

>  <SCORE.INTRA.SOLV>
2.5864

>  <SCORE.INTRA.SOLV.lig_0>
-82.9561

>  <SCORE.INTRA.VDW>
1.71138

>  <SCORE.INTRA.VDW.0>
-3.29171

>  <SCORE.INTRA.norm>
0.108427

>  <SCORE.RESTR>
0

>  <SCORE.RESTR.CAVITY>
0

>  <SCORE.RESTR.norm>
0

>  <SCORE.SYSTEM>
0

>  <SCORE.SYSTEM.CONST>
0

>  <SCORE.SYSTEM.DIHEDRAL>
0

>  <SCORE.SYSTEM.SOLV>
0

>  <SCORE.SYSTEM.norm>
0

>  <SCORE.heavy>
26

>  <SCORE.norm>
-0.512593

>  <RMSD>
1.830

$$$$
ligand
 OpenBabel11021811433D
libRbt.so/2013.1/901 2013/11/27
 26 27  0  0  0  0  0  0  0  0999 V2000
  -12.5623   -8.1636   -0.4075 C   0  0  0  0  0  0  0  0  0  0  0  0
  -17.3114  -12.4694   -1.1182 C   0  0  0  0  0  0  0  0  0  0  0  0
  -22.4704  -14.8060   -0.0522 P   0  0  1  0  0  0  0  0  0  0  0  0
  -24.7447  -13.4537    1.1551 P   0  0  1  0  0  0  0  0  0  0  0  0
  -16.0218  -12.3118    1.5568 C   0  0  0  0  0  0  0  0  0  0  0  0
  -15.4574   -9.8788    1.1663 C   0  0  0  0  0  0  0  0  0  0  0  0
  -15.1108  -11.2169    1.0277 C   0  0  0  0  0  0  0  0  0  0  0  0
  -13.9120  -11.5327    0.4097 C   0  0  0  0  0  0  0  0  0  0  0  0
  -13.5319  -12.8237    0.2507 N   0  0  0  0  0  0  0  0  0  0  0  0
  -13.1116  -10.5421   -0.0405 N   0  0  0  0  0  0  0  0  0  0  0  0
  -13.4712   -9.2480    0.1045 C   0  0  0  0  0  0  0  0  0  0  0  0
  -14.6411   -8.9207    0.7057 N   0  0  0  0  0  0  0  0  0  0  0  0
  -21.4342  -15.6988    0.5783 O   0  5  0  0  0  0  0  0  0  0  0  0
  -25.9243  -13.9556    1.9300 O   0  0  0  0  0  0  0  0  0  0  0  0
  -19.8277  -11.1974    1.8020 S   0  0  0  0  0  0  0  0  0  0  0  0
  -18.2265  -11.5344    2.3812 C   0  0  0  0  0  0  0  0  0  0  0  0
  -22.9045  -15.1349   -1.4516 O   0  0  0  0  0  0  0  0  0  0  0  0
  -23.9847  -12.4770    1.9891 O   0  5  0  0  0  0  0  0  0  0  0  0
  -17.4273  -11.9558    1.3621 N   0  0  0  0  0  0  0  0  0  0  0  0
  -23.7344  -14.7063    0.9574 O   0  0  0  0  0  0  0  0  0  0  0  0
  -25.0354  -12.9379   -0.2279 O   0  0  0  0  0  0  0  0  0  0  0  0
  -18.0164  -12.0285    0.1369 C   0  0  1  0  0  0  0  0  0  0  0  0
  -19.4419  -11.6034    0.1761 C   0  0  1  0  0  0  0  0  0  0  0  0
  -20.5399  -11.4896   -0.8479 C   0  0  0  0  0  0  0  0  0  0  0  0
  -21.0541  -12.8842   -1.1685 C   0  0  0  0  0  0  0  0  0  0  0  0
  -21.8790  -13.3117   -0.0915 O   0  0  0  0  0  0  0  0  0  0  0  0
  1 11  1  0  0  0  0
  3 13  1  1  0  0  0
  3 17  2  0  0  0  0
  3 20  1  0  0  0  0
  3 26  1  0  0  0  0
  4 14  1  1  0  0  0
  4 18  1  0  0  0  0
  4 21  2  0  0  0  0
  4 20  1  0  0  0  0
  5 19  1  0  0  0  0
  5  7  1  0  0  0  0
  6  7  2  0  0  0  0
  6 12  1  0  0  0  0
  7  8  1  0  0  0  0
  8  9  1  0  0  0  0
  8 10  2  0  0  0  0
 10 11  1  0  0  0  0
 11 12  2  0  0  0  0
 15 23  1  0  0  0  0
 15 16  1  0  0  0  0
 16 19  1  0  0  0  0
 19 22  1  0  0  0  0
 22  2  1  6  0  0  0
 22 23  1  0  0  0  0
 23 24  1  1  0  0  0
 24 25  1  0  0  0  0
 25 26  1  0  0  0  0
M  CHG  2  13  -1  18  -1
M  END
>  <CHROM.1>
148.95956596,-104.58029588,37.12110527,166.29987403,-103.21335716,76.18988255
-174.14204562,85.69522877,-19.55954261,-12.37430300,0.52189287,0.29739645
0.19081888,0.49677010

>  <Name>
ligand

>  <RI>
0

>  <Rbt.Current_Directory>
/home/itssahil/PROJECTS/Mol_Feturizer/New_Systems/rnas/2GDI

>  <Rbt.Executable>
rbdock ($Id: //depot/dev/client3/rdock/2013.1/src/exe/rbdock.cxx#4 $)

>  <Rbt.Library>
libRbt.so (2013.1, Build901 2013/11/27)

>  <Rbt.Parameter_File>
/export/apps/rDock/src/rDock_2013.1_src/data/scripts/dock_solv.prm

>  <Rbt.Receptor>
prm/pocket_docking_3.prm

>  <SCORE>
-16.7373

>  <SCORE.INTER>
-16.7703

>  <SCORE.INTER.CONST>
1

>  <SCORE.INTER.POLAR>
0

>  <SCORE.INTER.ROT>
8

>  <SCORE.INTER.SOLV>
14.193

>  <SCORE.INTER.VDW>
-24.8445

>  <SCORE.INTER.norm>
-0.645011

>  <SCORE.INTRA>
0.0329539

>  <SCORE.INTRA.DIHEDRAL>
-0.39145

>  <SCORE.INTRA.DIHEDRAL.0>
8.13976

>  <SCORE.INTRA.POLAR>
0

>  <SCORE.INTRA.POLAR.0>
0

>  <SCORE.INTRA.REPUL>
0

>  <SCORE.INTRA.REPUL.0>
0

>  <SCORE.INTRA.SOLV>
2.28689

>  <SCORE.INTRA.SOLV.lig_0>
-82.9561

>  <SCORE.INTRA.VDW>
-0.914766

>  <SCORE.INTRA.VDW.0>
-3.29171

>  <SCORE.INTRA.norm>
0.00126746

>  <SCORE.RESTR>
0

>  <SCORE.RESTR.CAVITY>
0

>  <SCORE.RESTR.norm>
0

>  <SCORE.SYSTEM>
0

>  <SCORE.SYSTEM.CONST>
0

>  <SCORE.SYSTEM.DIHEDRAL>
0

>  <SCORE.SYSTEM.SOLV>
0

>  <SCORE.SYSTEM.norm>
0

>  <SCORE.heavy>
26

>  <SCORE.norm>
-0.643743

>  <RMSD>
1.851

$$$$
ligand
 OpenBabel11021811433D
libRbt.so/2013.1/901 2013/11/27
 26 27  0  0  0  0  0  0  0  0999 V2000
  -12.6426   -8.1275   -0.4326 C   0  0  0  0  0  0  0  0  0  0  0  0
  -17.8295  -14.0883   -0.0474 C   0  0  0  0  0  0  0  0  0  0  0  0
  -23.3468  -14.8253    0.2857 P   0  0  1  0  0  0  0  0  0  0  0  0
  -22.8793  -17.4850    1.3655 P   0  0  1  0  0  0  0  0  0  0  0  0
  -15.8545  -12.4868    1.4946 C   0  0  0  0  0  0  0  0  0  0  0  0
  -15.4235  -10.0208    1.1429 C   0  0  0  0  0  0  0  0  0  0  0  0
  -15.0090  -11.3361    0.9754 C   0  0  0  0  0  0  0  0  0  0  0  0
  -13.8032  -11.5772    0.3376 C   0  0  0  0  0  0  0  0  0  0  0  0
  -13.3580  -12.8433    0.1501 N   0  0  0  0  0  0  0  0  0  0  0  0
  -13.0616  -10.5379   -0.1035 N   0  0  0  0  0  0  0  0  0  0  0  0
  -13.4868   -9.2673    0.0698 C   0  0  0  0  0  0  0  0  0  0  0  0
  -14.6645   -9.0129    0.6907 N   0  0  0  0  0  0  0  0  0  0  0  0
  -22.5376  -14.8904   -0.9830 O   0  5  0  0  0  0  0  0  0  0  0  0
  -22.4317  -17.9921    0.0290 O   0  0  0  0  0  0  0  0  0  0  0  0
  -19.4927  -10.9445    1.9090 S   0  0  0  0  0  0  0  0  0  0  0  0
  -17.7784  -11.0683    2.1513 C   0  0  0  0  0  0  0  0  0  0  0  0
  -24.8338  -14.9954    0.1644 O   0  0  0  0  0  0  0  0  0  0  0  0
  -21.9303  -17.9567    2.4163 O   0  5  0  0  0  0  0  0  0  0  0  0
  -17.2748  -12.1370    1.4738 N   0  0  0  0  0  0  0  0  0  0  0  0
  -22.7103  -15.8726    1.3462 O   0  0  0  0  0  0  0  0  0  0  0  0
  -24.3182  -17.7432    1.7205 O   0  0  0  0  0  0  0  0  0  0  0  0
  -18.1779  -12.8712    0.7675 C   0  0  1  0  0  0  0  0  0  0  0  0
  -19.5557  -12.3203    0.8792 C   0  0  1  0  0  0  0  0  0  0  0  0
  -20.9001  -12.7148    0.3280 C   0  0  0  0  0  0  0  0  0  0  0  0
  -21.8267  -13.0401    1.4889 C   0  0  0  0  0  0  0  0  0  0  0  0
  -23.0999  -13.3857    0.9573 O   0  0  0  0  0  0  0  0  0  0  0  0
  1 11  1  0  0  0  0
  3 13  1  6  0  0  0
  3 17  2  0  0  0  0
  3 20  1  0  0  0  0
  3 26  1  0  0  0  0
  4 14  1  6  0  0  0
  4 18  1  0  0  0  0
  4 21  2  0  0  0  0
  4 20  1  0  0  0  0
  5 19  1  0  0  0  0
  5  7  1  0  0  0  0
  6  7  2  0  0  0  0
  6 12  1  0  0  0  0
  7  8  1  0  0  0  0
  8  9  1  0  0  0  0
  8 10  2  0  0  0  0
 10 11  1  0  0  0  0
 11 12  2  0  0  0  0
 15 23  1  0  0  0  0
 15 16  1  0  0  0  0
 16 19  1  0  0  0  0
 19 22  1  0  0  0  0
 22  2  1  6  0  0  0
 22 23  1  0  0  0  0
 23 24  1  1  0  0  0
 24 25  1  0  0  0  0
 25 26  1  0  0  0  0
M  CHG  2  13  -1  18  -1
M  END
>  <CHROM.1>
-77.16622616,-58.63833948,30.24474414,55.64513607,-60.65779571,178.88179187
76.30248474,-67.48659257,-19.37506045,-13.37341399,0.83419701,0.58947770
0.05214753,0.01050338

>  <Name>
ligand

>  <RI>
0

>  <Rbt.Current_Directory>
/home/itssahil/PROJECTS/Mol_Feturizer/New_Systems/rnas/2GDI

>  <Rbt.Executable>
rbdock ($Id: //depot/dev/client3/rdock/2013.1/src/exe/rbdock.cxx#4 $)

>  <Rbt.Library>
libRbt.so (2013.1, Build901 2013/11/27)

>  <Rbt.Parameter_File>
/export/apps/rDock/src/rDock_2013.1_src/data/scripts/dock_solv.prm

>  <Rbt.Receptor>
prm/pocket_docking_2.prm

>  <SCORE>
-12.2404

>  <SCORE.INTER>
-13.3264

>  <SCORE.INTER.CONST>
1

>  <SCORE.INTER.POLAR>
0

>  <SCORE.INTER.ROT>
8

>  <SCORE.INTER.SOLV>
14.1121

>  <SCORE.INTER.VDW>
-22.5216

>  <SCORE.INTER.norm>
-0.512554

>  <SCORE.INTRA>
1.08601

>  <SCORE.INTRA.DIHEDRAL>
-1.21519

>  <SCORE.INTRA.DIHEDRAL.0>
8.13976

>  <SCORE.INTRA.POLAR>
0

>  <SCORE.INTRA.POLAR.0>
0

>  <SCORE.INTRA.REPUL>
0

>  <SCORE.INTRA.REPUL.0>
0

>  <SCORE.INTRA.SOLV>
0.870226

>  <SCORE.INTRA.SOLV.lig_0>
-82.9561

>  <SCORE.INTRA.VDW>
1.25849

>  <SCORE.INTRA.VDW.0>
-3.29171

>  <SCORE.INTRA.norm>
0.0417695

>  <SCORE.RESTR>
0

>  <SCORE.RESTR.CAVITY>
0

>  <SCORE.RESTR.norm>
0

>  <SCORE.SYSTEM>
0

>  <SCORE.SYSTEM.CONST>
0

>  <SCORE.SYSTEM.DIHEDRAL>
0

>  <SCORE.SYSTEM.SOLV>
0

>  <SCORE.SYSTEM.norm>
0

>  <SCORE.heavy>
26

>  <SCORE.norm>
-0.470784

>  <RMSD>
1.858

$$$$
ligand
 OpenBabel11021811433D
libRbt.so/2013.1/901 2013/11/27
 26 27  0  0  0  0  0  0  0  0999 V2000
  -12.2007   -7.8956   -0.6917 C   0  0  0  0  0  0  0  0  0  0  0  0
  -17.8049  -13.8140    0.0996 C   0  0  0  0  0  0  0  0  0  0  0  0
  -23.1712  -15.3654   -0.2557 P   0  0  1  0  0  0  0  0  0  0  0  0
  -24.7484  -15.4607    2.1860 P   0  0  1  0  0  0  0  0  0  0  0  0
  -16.1755  -11.5869    1.2078 C   0  0  0  0  0  0  0  0  0  0  0  0
  -15.2887   -9.2435    0.8726 C   0  0  0  0  0  0  0  0  0  0  0  0
  -15.1286  -10.6121    0.6959 C   0  0  0  0  0  0  0  0  0  0  0  0
  -13.9891  -11.0710    0.0558 C   0  0  0  0  0  0  0  0  0  0  0  0
  -13.7896  -12.3969   -0.1406 N   0  0  0  0  0  0  0  0  0  0  0  0
  -13.0652  -10.1866   -0.3787 N   0  0  0  0  0  0  0  0  0  0  0  0
  -13.2443   -8.8600   -0.1966 C   0  0  0  0  0  0  0  0  0  0  0  0
  -14.3537   -8.3931    0.4267 N   0  0  0  0  0  0  0  0  0  0  0  0
  -22.1452  -16.3237    0.2896 O   0  5  0  0  0  0  0  0  0  0  0  0
  -25.8251  -16.2809    1.5444 O   0  0  0  0  0  0  0  0  0  0  0  0
  -19.5364  -10.1730   -0.3709 S   0  0  0  0  0  0  0  0  0  0  0  0
  -18.0011  -10.0984    0.4357 C   0  0  0  0  0  0  0  0  0  0  0  0
  -24.1250  -15.8912   -1.2894 O   0  0  0  0  0  0  0  0  0  0  0  0
  -23.7353  -16.3683    2.8002 O   0  5  0  0  0  0  0  0  0  0  0  0
  -17.4675  -11.3447    0.5657 N   0  0  0  0  0  0  0  0  0  0  0  0
  -23.9553  -14.6974    0.9957 O   0  0  0  0  0  0  0  0  0  0  0  0
  -25.2130  -14.3831    3.1273 O   0  0  0  0  0  0  0  0  0  0  0  0
  -18.2124  -12.3653    0.0589 C   0  0  1  0  0  0  0  0  0  0  0  0
  -19.4762  -11.8811   -0.5597 C   0  0  1  0  0  0  0  0  0  0  0  0
  -20.6394  -12.5457   -1.2470 C   0  0  0  0  0  0  0  0  0  0  0  0
  -21.2728  -13.5377   -0.2841 C   0  0  0  0  0  0  0  0  0  0  0  0
  -22.3891  -14.1348   -0.9326 O   0  0  0  0  0  0  0  0  0  0  0  0
  1 11  1  0  0  0  0
  3 13  1  1  0  0  0
  3 17  2  0  0  0  0
  3 20  1  0  0  0  0
  3 26  1  0  0  0  0
  4 14  1  6  0  0  0
  4 18  1  0  0  0  0
  4 21  2  0  0  0  0
  4 20  1  0  0  0  0
  5 19  1  0  0  0  0
  5  7  1  0  0  0  0
  6  7  2  0  0  0  0
  6 12  1  0  0  0  0
  7  8  1  0  0  0  0
  8  9  1  0  0  0  0
  8 10  2  0  0  0  0
 10 11  1  0  0  0  0
 11 12  2  0  0  0  0
 15 23  1  0  0  0  0
 15 16  1  0  0  0  0
 16 19  1  0  0  0  0
 19 22  1  0  0  0  0
 22  2  1  6  0  0  0
 22 23  1  0  0  0  0
 23 24  1  1  0  0  0
 24 25  1  0  0  0  0
 25 26  1  0  0  0  0
M  CHG  2  13  -1  18  -1
M  END
>  <CHROM.1>
-55.87999625,-46.64818522,61.01929253,-59.15565865,-119.67047163,178.60141242
172.27193046,-43.80467957,-19.69555270,-12.78669428,0.38735535,0.50573399
0.17414846,0.11381783

>  <Name>
ligand

>  <RI>
0

>  <Rbt.Current_Directory>
/home/itssahil/PROJECTS/Mol_Feturizer/New_Systems/rnas/2GDI

>  <Rbt.Executable>
rbdock ($Id: //depot/dev/client3/rdock/2013.1/src/exe/rbdock.cxx#4 $)

>  <Rbt.Library>
libRbt.so (2013.1, Build901 2013/11/27)

>  <Rbt.Parameter_File>
/export/apps/rDock/src/rDock_2013.1_src/data/scripts/dock_solv.prm

>  <Rbt.Receptor>
prm/pocket_docking_4.prm

>  <SCORE>
-16.4102

>  <SCORE.INTER>
-15.7634

>  <SCORE.INTER.CONST>
1

>  <SCORE.INTER.POLAR>
0

>  <SCORE.INTER.ROT>
8

>  <SCORE.INTER.SOLV>
13.6549

>  <SCORE.INTER.VDW>
-23.9939

>  <SCORE.INTER.norm>
-0.606286

>  <SCORE.INTRA>
-0.646748

>  <SCORE.INTRA.DIHEDRAL>
-2.8512

>  <SCORE.INTRA.DIHEDRAL.0>
8.13976

>  <SCORE.INTRA.POLAR>
0

>  <SCORE.INTRA.POLAR.0>
0

>  <SCORE.INTRA.REPUL>
0

>  <SCORE.INTRA.REPUL.0>
0

>  <SCORE.INTRA.SOLV>
0.87262

>  <SCORE.INTRA.SOLV.lig_0>
-82.9561

>  <SCORE.INTRA.VDW>
0.342542

>  <SCORE.INTRA.VDW.0>
-3.29171

>  <SCORE.INTRA.norm>
-0.0248749

>  <SCORE.RESTR>
0

>  <SCORE.RESTR.CAVITY>
0

>  <SCORE.RESTR.norm>
0

>  <SCORE.SYSTEM>
0

>  <SCORE.SYSTEM.CONST>
0

>  <SCORE.SYSTEM.DIHEDRAL>
0

>  <SCORE.SYSTEM.SOLV>
0

>  <SCORE.SYSTEM.norm>
0

>  <SCORE.heavy>
26

>  <SCORE.norm>
-0.631161

>  <RMSD>
1.862

$$$$
ligand
 OpenBabel11021811433D
libRbt.so/2013.1/901 2013/11/27
 26 27  0  0  0  0  0  0  0  0999 V2000
  -12.1943   -7.5915   -0.8464 C   0  0  0  0  0  0  0  0  0  0  0  0
  -17.4280  -13.8013    0.5477 C   0  0  0  0  0  0  0  0  0  0  0  0
  -23.1474  -14.8721    1.4655 P   0  0  1  0  0  0  0  0  0  0  0  0
  -22.6926  -17.7323    1.1993 P   0  0  1  0  0  0  0  0  0  0  0  0
  -15.6737  -11.5646    1.4211 C   0  0  0  0  0  0  0  0  0  0  0  0
  -14.9649   -9.1645    1.0640 C   0  0  0  0  0  0  0  0  0  0  0  0
  -14.7591  -10.5151    0.8125 C   0  0  0  0  0  0  0  0  0  0  0  0
  -13.6953  -10.8869    0.0068 C   0  0  0  0  0  0  0  0  0  0  0  0
  -13.4554  -12.1921   -0.2679 N   0  0  0  0  0  0  0  0  0  0  0  0
  -12.8870   -9.9372   -0.5122 N   0  0  0  0  0  0  0  0  0  0  0  0
  -13.1086   -8.6297   -0.2545 C   0  0  0  0  0  0  0  0  0  0  0  0
  -14.1453   -8.2478    0.5309 N   0  0  0  0  0  0  0  0  0  0  0  0
  -24.4413  -15.1971    0.7666 O   0  5  0  0  0  0  0  0  0  0  0  0
  -23.0137  -17.8505   -0.2589 O   0  0  0  0  0  0  0  0  0  0  0  0
  -19.2850  -10.1923    0.4922 S   0  0  0  0  0  0  0  0  0  0  0  0
  -17.6344  -10.1014    1.0218 C   0  0  0  0  0  0  0  0  0  0  0  0
  -23.2376  -14.2634    2.8352 O   0  0  0  0  0  0  0  0  0  0  0  0
  -21.4908  -18.5609    1.5097 O   0  5  0  0  0  0  0  0  0  0  0  0
  -17.0622  -11.3372    1.0205 N   0  0  0  0  0  0  0  0  0  0  0  0
  -22.2227  -16.2032    1.4631 O   0  0  0  0  0  0  0  0  0  0  0  0
  -23.8334  -17.9811    2.1480 O   0  0  0  0  0  0  0  0  0  0  0  0
  -17.8642  -12.3623    0.6209 C   0  0  1  0  0  0  0  0  0  0  0  0
  -19.2257  -11.8931    0.2458 C   0  0  1  0  0  0  0  0  0  0  0  0
  -20.4777  -12.5678   -0.2483 C   0  0  0  0  0  0  0  0  0  0  0  0
  -20.9794  -13.5149    0.8303 C   0  0  0  0  0  0  0  0  0  0  0  0
  -22.3379  -13.8286    0.5489 O   0  0  0  0  0  0  0  0  0  0  0  0
  1 11  1  0  0  0  0
  3 13  1  6  0  0  0
  3 17  2  0  0  0  0
  3 20  1  0  0  0  0
  3 26  1  0  0  0  0
  4 14  1  6  0  0  0
  4 18  1  0  0  0  0
  4 21  2  0  0  0  0
  4 20  1  0  0  0  0
  5 19  1  0  0  0  0
  5  7  1  0  0  0  0
  6  7  2  0  0  0  0
  6 12  1  0  0  0  0
  7  8  1  0  0  0  0
  8  9  1  0  0  0  0
  8 10  2  0  0  0  0
 10 11  1  0  0  0  0
 11 12  2  0  0  0  0
 15 23  1  0  0  0  0
 15 16  1  0  0  0  0
 16 19  1  0  0  0  0
 19 22  1  0  0  0  0
 22  2  1  6  0  0  0
 22 23  1  0  0  0  0
 23 24  1  1  0  0  0
 24 25  1  0  0  0  0
 25 26  1  0  0  0  0
M  CHG  2  13  -1  18  -1
M  END
>  <CHROM.1>
-17.49816638,-44.17295711,58.29424344,71.86339429,-114.99341860,162.43119887
176.93722804,-168.94103238,-19.11821468,-13.09284758,0.76309241,-0.66208556
-0.12607737,3.13798738

>  <Name>
ligand

>  <RI>
0

>  <Rbt.Current_Directory>
/home/itssahil/PROJECTS/Mol_Feturizer/New_Systems/rnas/2GDI

>  <Rbt.Executable>
rbdock ($Id: //depot/dev/client3/rdock/2013.1/src/exe/rbdock.cxx#4 $)

>  <Rbt.Library>
libRbt.so (2013.1, Build901 2013/11/27)

>  <Rbt.Parameter_File>
/export/apps/rDock/src/rDock_2013.1_src/data/scripts/dock_solv.prm

>  <Rbt.Receptor>
prm/pocket_docking_2.prm

>  <SCORE>
-11.7367

>  <SCORE.INTER>
-13.6198

>  <SCORE.INTER.CONST>
1

>  <SCORE.INTER.POLAR>
0

>  <SCORE.INTER.ROT>
8

>  <SCORE.INTER.SOLV>
14.0628

>  <SCORE.INTER.VDW>
-22.7008

>  <SCORE.INTER.norm>
-0.523839

>  <SCORE.INTRA>
0.832697

>  <SCORE.INTRA.DIHEDRAL>
-0.0842583

>  <SCORE.INTRA.DIHEDRAL.0>
8.13976

>  <SCORE.INTRA.POLAR>
0

>  <SCORE.INTRA.POLAR.0>
0

>  <SCORE.INTRA.REPUL>
0

>  <SCORE.INTRA.REPUL.0>
0

>  <SCORE.INTRA.SOLV>
0.680735

>  <SCORE.INTRA.SOLV.lig_0>
-82.9561

>  <SCORE.INTRA.VDW>
0.534458

>  <SCORE.INTRA.VDW.0>
-3.29171

>  <SCORE.INTRA.norm>
0.0320268

>  <SCORE.RESTR>
1.05039

>  <SCORE.RESTR.CAVITY>
1.05039

>  <SCORE.RESTR.norm>
0.0403997

>  <SCORE.SYSTEM>
0

>  <SCORE.SYSTEM.CONST>
0

>  <SCORE.SYSTEM.DIHEDRAL>
0

>  <SCORE.SYSTEM.SOLV>
0

>  <SCORE.SYSTEM.norm>
0

>  <SCORE.heavy>
26

>  <SCORE.norm>
-0.451413

>  <RMSD>
1.883

$$$$
ligand
 OpenBabel11021811433D
libRbt.so/2013.1/901 2013/11/27
 26 27  0  0  0  0  0  0  0  0999 V2000
  -12.6050   -7.8602   -0.4036 C   0  0  0  0  0  0  0  0  0  0  0  0
  -17.5251  -12.9463   -1.0648 C   0  0  0  0  0  0  0  0  0  0  0  0
  -24.0141  -13.9160   -0.3334 P   0  0  1  0  0  0  0  0  0  0  0  0
  -24.0305  -16.6754    0.5853 P   0  0  1  0  0  0  0  0  0  0  0  0
  -15.8396  -12.2961    1.2973 C   0  0  0  0  0  0  0  0  0  0  0  0
  -15.3808   -9.8180    1.1004 C   0  0  0  0  0  0  0  0  0  0  0  0
  -14.9884  -11.1245    0.8379 C   0  0  0  0  0  0  0  0  0  0  0  0
  -13.7989  -11.3382    0.1609 C   0  0  0  0  0  0  0  0  0  0  0  0
  -13.3754  -12.5947   -0.1189 N   0  0  0  0  0  0  0  0  0  0  0  0
  -13.0515  -10.2815   -0.2258 N   0  0  0  0  0  0  0  0  0  0  0  0
  -13.4552   -9.0199    0.0397 C   0  0  0  0  0  0  0  0  0  0  0  0
  -14.6167   -8.7921    0.7001 N   0  0  0  0  0  0  0  0  0  0  0  0
  -24.8836  -14.0804   -1.5522 O   0  5  0  0  0  0  0  0  0  0  0  0
  -25.0677  -17.1042   -0.4067 O   0  0  0  0  0  0  0  0  0  0  0  0
  -19.5707  -11.0677    1.8954 S   0  0  0  0  0  0  0  0  0  0  0  0
  -17.8967  -11.3212    2.2785 C   0  0  0  0  0  0  0  0  0  0  0  0
  -24.6477  -13.3187    0.8900 O   0  0  0  0  0  0  0  0  0  0  0  0
  -22.9443  -17.6974    0.6380 O   0  5  0  0  0  0  0  0  0  0  0  0
  -17.2611  -11.9530    1.2530 N   0  0  0  0  0  0  0  0  0  0  0  0
  -23.3207  -15.3448   -0.0100 O   0  0  0  0  0  0  0  0  0  0  0  0
  -24.5398  -16.2946    1.9487 O   0  0  0  0  0  0  0  0  0  0  0  0
  -18.0315  -12.2514    0.1710 C   0  0  1  0  0  0  0  0  0  0  0  0
  -19.4371  -11.7940    0.3425 C   0  0  1  0  0  0  0  0  0  0  0  0
  -20.6807  -11.8583   -0.5039 C   0  0  0  0  0  0  0  0  0  0  0  0
  -21.6263  -12.8868    0.0962 C   0  0  0  0  0  0  0  0  0  0  0  0
  -22.7828  -12.9611   -0.7286 O   0  0  0  0  0  0  0  0  0  0  0  0
  1 11  1  0  0  0  0
  3 13  1  6  0  0  0
  3 17  2  0  0  0  0
  3 20  1  0  0  0  0
  3 26  1  0  0  0  0
  4 14  1  6  0  0  0
  4 18  1  0  0  0  0
  4 21  2  0  0  0  0
  4 20  1  0  0  0  0
  5 19  1  0  0  0  0
  5  7  1  0  0  0  0
  6  7  2  0  0  0  0
  6 12  1  0  0  0  0
  7  8  1  0  0  0  0
  8  9  1  0  0  0  0
  8 10  2  0  0  0  0
 10 11  1  0  0  0  0
 11 12  2  0  0  0  0
 15 23  1  0  0  0  0
 15 16  1  0  0  0  0
 16 19  1  0  0  0  0
 19 22  1  0  0  0  0
 22  2  1  6  0  0  0
 22 23  1  0  0  0  0
 23 24  1  1  0  0  0
 24 25  1  0  0  0  0
 25 26  1  0  0  0  0
M  CHG  2  13  -1  18  -1
M  END
>  <CHROM.1>
-71.77869135,-85.65322739,33.60470132,61.98960438,-71.47071559,-178.66465606
-177.28879530,-164.20812528,-19.72191335,-12.85178963,0.36624263,0.49387030
-0.02257440,-0.00222175

>  <Name>
ligand

>  <RI>
0

>  <Rbt.Current_Directory>
/home/itssahil/PROJECTS/Mol_Feturizer/New_Systems/rnas/2GDI

>  <Rbt.Executable>
rbdock ($Id: //depot/dev/client3/rdock/2013.1/src/exe/rbdock.cxx#4 $)

>  <Rbt.Library>
libRbt.so (2013.1, Build901 2013/11/27)

>  <Rbt.Parameter_File>
/export/apps/rDock/src/rDock_2013.1_src/data/scripts/dock_solv.prm

>  <Rbt.Receptor>
prm/pocket_docking_3.prm

>  <SCORE>
-18.6694

>  <SCORE.INTER>
-17.5872

>  <SCORE.INTER.CONST>
1

>  <SCORE.INTER.POLAR>
0

>  <SCORE.INTER.ROT>
8

>  <SCORE.INTER.SOLV>
16.1084

>  <SCORE.INTER.VDW>
-26.0276

>  <SCORE.INTER.norm>
-0.676429

>  <SCORE.INTRA>
-1.08224

>  <SCORE.INTRA.DIHEDRAL>
-2.72681

>  <SCORE.INTRA.DIHEDRAL.0>
8.13976

>  <SCORE.INTRA.POLAR>
0

>  <SCORE.INTRA.POLAR.0>
0

>  <SCORE.INTRA.REPUL>
0

>  <SCORE.INTRA.REPUL.0>
0

>  <SCORE.INTRA.SOLV>
0.497522

>  <SCORE.INTRA.SOLV.lig_0>
-82.9561

>  <SCORE.INTRA.VDW>
0.0324041

>  <SCORE.INTRA.VDW.0>
-3.29171

>  <SCORE.INTRA.norm>
-0.0416246

>  <SCORE.RESTR>
0

>  <SCORE.RESTR.CAVITY>
0

>  <SCORE.RESTR.norm>
0

>  <SCORE.SYSTEM>
0

>  <SCORE.SYSTEM.CONST>
0

>  <SCORE.SYSTEM.DIHEDRAL>
0

>  <SCORE.SYSTEM.SOLV>
0

>  <SCORE.SYSTEM.norm>
0

>  <SCORE.heavy>
26

>  <SCORE.norm>
-0.718054

>  <RMSD>
1.885

$$$$
ligand
 OpenBabel11021811433D
libRbt.so/2013.1/901 2013/11/27
 26 27  0  0  0  0  0  0  0  0999 V2000
  -12.7318   -6.7988   -0.1604 C   0  0  0  0  0  0  0  0  0  0  0  0
  -17.5498  -12.5018   -1.3584 C   0  0  0  0  0  0  0  0  0  0  0  0
  -23.1242  -14.1552    2.3784 P   0  0  1  0  0  0  0  0  0  0  0  0
  -24.2950  -15.2325   -0.0562 P   0  0  1  0  0  0  0  0  0  0  0  0
  -15.1198  -12.0078    0.2830 C   0  0  0  0  0  0  0  0  0  0  0  0
  -13.1159  -10.4669    0.2844 C   0  0  0  0  0  0  0  0  0  0  0  0
  -14.4913  -10.6287    0.1758 C   0  0  0  0  0  0  0  0  0  0  0  0
  -15.2771   -9.5096   -0.0458 C   0  0  0  0  0  0  0  0  0  0  0  0
  -16.6233   -9.6177   -0.1575 N   0  0  0  0  0  0  0  0  0  0  0  0
  -14.6949   -8.2953   -0.1515 N   0  0  0  0  0  0  0  0  0  0  0  0
  -13.3550   -8.1631   -0.0406 C   0  0  0  0  0  0  0  0  0  0  0  0
  -12.5709   -9.2470    0.1773 N   0  0  0  0  0  0  0  0  0  0  0  0
  -24.4210  -13.4833    2.7462 O   0  5  0  0  0  0  0  0  0  0  0  0
  -24.6411  -16.6287   -0.4739 O   0  0  0  0  0  0  0  0  0  0  0  0
  -18.3849  -11.5986    2.5099 S   0  0  0  0  0  0  0  0  0  0  0  0
  -16.6836  -11.6148    2.1658 C   0  0  0  0  0  0  0  0  0  0  0  0
  -22.2548  -14.6385    3.5033 O   0  0  0  0  0  0  0  0  0  0  0  0
  -25.5432  -14.5040    0.3159 O   0  5  0  0  0  0  0  0  0  0  0  0
  -16.4624  -11.9223    0.8576 N   0  0  0  0  0  0  0  0  0  0  0  0
  -23.4503  -15.3416    1.3234 O   0  0  0  0  0  0  0  0  0  0  0  0
  -23.4278  -14.4553   -1.0087 O   0  0  0  0  0  0  0  0  0  0  0  0
  -17.5740  -12.1488    0.1050 C   0  0  1  0  0  0  0  0  0  0  0  0
  -18.8254  -11.9900    0.8944 C   0  0  1  0  0  0  0  0  0  0  0  0
  -20.2936  -12.1184    0.5862 C   0  0  0  0  0  0  0  0  0  0  0  0
  -20.8498  -13.3099    1.3499 C   0  0  0  0  0  0  0  0  0  0  0  0
  -22.2456  -13.1072    1.5333 O   0  0  0  0  0  0  0  0  0  0  0  0
  1 11  1  0  0  0  0
  3 13  1  1  0  0  0
  3 17  2  0  0  0  0
  3 20  1  0  0  0  0
  3 26  1  0  0  0  0
  4 14  1  6  0  0  0
  4 18  1  0  0  0  0
  4 21  2  0  0  0  0
  4 20  1  0  0  0  0
  5 19  1  0  0  0  0
  5  7  1  0  0  0  0
  6  7  2  0  0  0  0
  6 12  1  0  0  0  0
  7  8  1  0  0  0  0
  8  9  1  0  0  0  0
  8 10  2  0  0  0  0
 10 11  1  0  0  0  0
 11 12  2  0  0  0  0
 15 23  1  0  0  0  0
 15 16  1  0  0  0  0
 16 19  1  0  0  0  0
 19 22  1  0  0  0  0
 22  2  1  6  0  0  0
 22 23  1  0  0  0  0
 23 24  1  1  0  0  0
 24 25  1  0  0  0  0
 25 26  1  0  0  0  0
M  CHG  2  13  -1  18  -1
M  END
>  <CHROM.1>
52.25166042,-70.62586886,149.13161987,-164.65727993,-65.55207152,155.41352855
-176.71833053,163.14574735,-19.40598041,-12.37126809,0.81382760,-0.02052331
-0.50905768,-1.76167179

>  <Name>
ligand

>  <RI>
0

>  <Rbt.Current_Directory>
/home/itssahil/PROJECTS/Mol_Feturizer/New_Systems/rnas/2GDI

>  <Rbt.Executable>
rbdock ($Id: //depot/dev/client3/rdock/2013.1/src/exe/rbdock.cxx#4 $)

>  <Rbt.Library>
libRbt.so (2013.1, Build901 2013/11/27)

>  <Rbt.Parameter_File>
/export/apps/rDock/src/rDock_2013.1_src/data/scripts/dock_solv.prm

>  <Rbt.Receptor>
prm/pocket_docking_3.prm

>  <SCORE>
-12.6276

>  <SCORE.INTER>
-16.534

>  <SCORE.INTER.CONST>
1

>  <SCORE.INTER.POLAR>
0

>  <SCORE.INTER.ROT>
8

>  <SCORE.INTER.SOLV>
15.0407

>  <SCORE.INTER.VDW>
-24.9696

>  <SCORE.INTER.norm>
-0.635923

>  <SCORE.INTRA>
3.90635

>  <SCORE.INTRA.DIHEDRAL>
-0.0523105

>  <SCORE.INTRA.DIHEDRAL.0>
8.13976

>  <SCORE.INTRA.POLAR>
0

>  <SCORE.INTRA.POLAR.0>
0

>  <SCORE.INTRA.REPUL>
0

>  <SCORE.INTRA.REPUL.0>
0

>  <SCORE.INTRA.SOLV>
7.02111

>  <SCORE.INTRA.SOLV.lig_0>
-82.9561

>  <SCORE.INTRA.VDW>
0.42195

>  <SCORE.INTRA.VDW.0>
-3.29171

>  <SCORE.INTRA.norm>
0.150244

>  <SCORE.RESTR>
0

>  <SCORE.RESTR.CAVITY>
0

>  <SCORE.RESTR.norm>
0

>  <SCORE.SYSTEM>
0

>  <SCORE.SYSTEM.CONST>
0

>  <SCORE.SYSTEM.DIHEDRAL>
0

>  <SCORE.SYSTEM.SOLV>
0

>  <SCORE.SYSTEM.norm>
0

>  <SCORE.heavy>
26

>  <SCORE.norm>
-0.485679

>  <RMSD>
1.902

$$$$
ligand
 OpenBabel11021811433D
libRbt.so/2013.1/901 2013/11/27
 26 27  0  0  0  0  0  0  0  0999 V2000
  -12.5763   -7.7526   -0.4993 C   0  0  0  0  0  0  0  0  0  0  0  0
  -17.5050  -12.7708   -1.2344 C   0  0  0  0  0  0  0  0  0  0  0  0
  -23.3676  -14.4344   -1.2790 P   0  0  1  0  0  0  0  0  0  0  0  0
  -23.8677  -16.4855    0.7214 P   0  0  1  0  0  0  0  0  0  0  0  0
  -15.7411  -12.2732    1.1074 C   0  0  0  0  0  0  0  0  0  0  0  0
  -15.3758   -9.7847    0.8550 C   0  0  0  0  0  0  0  0  0  0  0  0
  -14.9075  -11.0797    0.6727 C   0  0  0  0  0  0  0  0  0  0  0  0
  -13.6597  -11.2610    0.0990 C   0  0  0  0  0  0  0  0  0  0  0  0
  -13.1613  -12.5053   -0.1001 N   0  0  0  0  0  0  0  0  0  0  0  0
  -12.9304  -10.1846   -0.2671 N   0  0  0  0  0  0  0  0  0  0  0  0
  -13.4081   -8.9347   -0.0810 C   0  0  0  0  0  0  0  0  0  0  0  0
  -14.6274   -8.7387    0.4778 N   0  0  0  0  0  0  0  0  0  0  0  0
  -22.5531  -15.4426   -2.0462 O   0  5  0  0  0  0  0  0  0  0  0  0
  -22.6891  -17.3328    0.3520 O   0  0  0  0  0  0  0  0  0  0  0  0
  -19.4495  -11.0935    1.9092 S   0  0  0  0  0  0  0  0  0  0  0  0
  -17.7637  -11.3684    2.2186 C   0  0  0  0  0  0  0  0  0  0  0  0
  -24.6837  -14.0179   -1.8700 O   0  0  0  0  0  0  0  0  0  0  0  0
  -23.9691  -16.4006    2.2079 O   0  5  0  0  0  0  0  0  0  0  0  0
  -17.1631  -11.9306    1.1333 N   0  0  0  0  0  0  0  0  0  0  0  0
  -23.5386  -14.9726    0.2402 O   0  0  0  0  0  0  0  0  0  0  0  0
  -25.1727  -16.8500    0.0675 O   0  0  0  0  0  0  0  0  0  0  0  0
  -17.9694  -12.1590    0.0604 C   0  0  1  0  0  0  0  0  0  0  0  0
  -19.3684  -11.7164    0.3085 C   0  0  1  0  0  0  0  0  0  0  0  0
  -20.6397  -11.7275   -0.4982 C   0  0  0  0  0  0  0  0  0  0  0  0
  -21.2366  -13.1252   -0.4483 C   0  0  0  0  0  0  0  0  0  0  0  0
  -22.4865  -13.0985   -1.1267 O   0  0  0  0  0  0  0  0  0  0  0  0
  1 11  1  0  0  0  0
  3 13  1  6  0  0  0
  3 17  2  0  0  0  0
  3 20  1  0  0  0  0
  3 26  1  0  0  0  0
  4 14  1  6  0  0  0
  4 18  1  0  0  0  0
  4 21  2  0  0  0  0
  4 20  1  0  0  0  0
  5 19  1  0  0  0  0
  5  7  1  0  0  0  0
  6  7  2  0  0  0  0
  6 12  1  0  0  0  0
  7  8  1  0  0  0  0
  8  9  1  0  0  0  0
  8 10  2  0  0  0  0
 10 11  1  0  0  0  0
 11 12  2  0  0  0  0
 15 23  1  0  0  0  0
 15 16  1  0  0  0  0
 16 19  1  0  0  0  0
 19 22  1  0  0  0  0
 22  2  1  6  0  0  0
 22 23  1  0  0  0  0
 23 24  1  1  0  0  0
 24 25  1  0  0  0  0
 25 26  1  0  0  0  0
M  CHG  2  13  -1  18  -1
M  END
>  <CHROM.1>
-42.65054366,-86.69227998,25.00771963,66.16830267,-99.31067034,175.62644934
178.82176872,-60.52275223,-19.48530374,-12.90180496,0.12526719,0.44233900
-0.29493461,-0.47063126

>  <Name>
ligand

>  <RI>
0

>  <Rbt.Current_Directory>
/home/itssahil/PROJECTS/Mol_Feturizer/New_Systems/rnas/2GDI

>  <Rbt.Executable>
rbdock ($Id: //depot/dev/client3/rdock/2013.1/src/exe/rbdock.cxx#4 $)

>  <Rbt.Library>
libRbt.so (2013.1, Build901 2013/11/27)

>  <Rbt.Parameter_File>
/export/apps/rDock/src/rDock_2013.1_src/data/scripts/dock_solv.prm

>  <Rbt.Receptor>
prm/pocket_docking_3.prm

>  <SCORE>
-16.6419

>  <SCORE.INTER>
-15.3642

>  <SCORE.INTER.CONST>
1

>  <SCORE.INTER.POLAR>
0

>  <SCORE.INTER.ROT>
8

>  <SCORE.INTER.SOLV>
19.3414

>  <SCORE.INTER.VDW>
-25.6233

>  <SCORE.INTER.norm>
-0.590932

>  <SCORE.INTRA>
-1.27766

>  <SCORE.INTRA.DIHEDRAL>
-2.60202

>  <SCORE.INTRA.DIHEDRAL.0>
8.13976

>  <SCORE.INTRA.POLAR>
0

>  <SCORE.INTRA.POLAR.0>
0

>  <SCORE.INTRA.REPUL>
0

>  <SCORE.INTRA.REPUL.0>
0

>  <SCORE.INTRA.SOLV>
0.424359

>  <SCORE.INTRA.SOLV.lig_0>
-82.9561

>  <SCORE.INTRA.VDW>
-0.188833

>  <SCORE.INTRA.VDW.0>
-3.29171

>  <SCORE.INTRA.norm>
-0.0491409

>  <SCORE.RESTR>
0

>  <SCORE.RESTR.CAVITY>
0

>  <SCORE.RESTR.norm>
0

>  <SCORE.SYSTEM>
0

>  <SCORE.SYSTEM.CONST>
0

>  <SCORE.SYSTEM.DIHEDRAL>
0

>  <SCORE.SYSTEM.SOLV>
0

>  <SCORE.SYSTEM.norm>
0

>  <SCORE.heavy>
26

>  <SCORE.norm>
-0.640073

>  <RMSD>
1.905

$$$$
ligand
 OpenBabel11021811433D
libRbt.so/2013.1/901 2013/11/27
 26 27  0  0  0  0  0  0  0  0999 V2000
  -12.4845   -8.1530   -0.5247 C   0  0  0  0  0  0  0  0  0  0  0  0
  -18.5255  -11.7286    2.1844 C   0  0  0  0  0  0  0  0  0  0  0  0
  -21.8842  -15.2226    2.1225 P   0  0  1  0  0  0  0  0  0  0  0  0
  -24.2897  -15.5439    0.5196 P   0  0  1  0  0  0  0  0  0  0  0  0
  -15.7882  -12.4863    1.3031 C   0  0  0  0  0  0  0  0  0  0  0  0
  -13.6316  -11.5768    0.3481 C   0  0  0  0  0  0  0  0  0  0  0  0
  -14.9125  -11.3385    0.8299 C   0  0  0  0  0  0  0  0  0  0  0  0
  -15.3806  -10.0350    0.8578 C   0  0  0  0  0  0  0  0  0  0  0  0
  -16.6228   -9.7531    1.3202 N   0  0  0  0  0  0  0  0  0  0  0  0
  -14.5894   -9.0319    0.4191 N   0  0  0  0  0  0  0  0  0  0  0  0
  -13.3464   -9.2887   -0.0435 C   0  0  0  0  0  0  0  0  0  0  0  0
  -12.8717  -10.5579   -0.0770 N   0  0  0  0  0  0  0  0  0  0  0  0
  -21.5835  -14.5946    3.4581 O   0  5  0  0  0  0  0  0  0  0  0  0
  -24.1490  -17.0328    0.4376 O   0  0  0  0  0  0  0  0  0  0  0  0
  -18.4104  -13.2094   -1.5933 S   0  0  0  0  0  0  0  0  0  0  0  0
  -16.8496  -13.1527   -0.8357 C   0  0  0  0  0  0  0  0  0  0  0  0
  -21.4260  -16.6362    1.9065 O   0  0  0  0  0  0  0  0  0  0  0  0
  -25.7124  -15.1969    0.8071 O   0  5  0  0  0  0  0  0  0  0  0  0
  -16.9477  -12.6495    0.4260 N   0  0  0  0  0  0  0  0  0  0  0  0
  -23.4701  -15.0577    1.8314 O   0  0  0  0  0  0  0  0  0  0  0  0
  -23.7204  -14.7632   -0.6335 O   0  0  0  0  0  0  0  0  0  0  0  0
  -18.2003  -12.3020    0.8309 C   0  0  1  0  0  0  0  0  0  0  0  0
  -19.2213  -12.5713   -0.2177 C   0  0  1  0  0  0  0  0  0  0  0  0
  -20.7125  -12.3865   -0.3137 C   0  0  0  0  0  0  0  0  0  0  0  0
  -21.3527  -12.9186    0.9588 C   0  0  0  0  0  0  0  0  0  0  0  0
  -21.1802  -14.3302    0.9858 O   0  0  0  0  0  0  0  0  0  0  0  0
  1 11  1  0  0  0  0
  3 13  1  1  0  0  0
  3 17  2  0  0  0  0
  3 20  1  0  0  0  0
  3 26  1  0  0  0  0
  4 14  1  6  0  0  0
  4 18  1  0  0  0  0
  4 21  2  0  0  0  0
  4 20  1  0  0  0  0
  5 19  1  0  0  0  0
  5  7  1  0  0  0  0
  6  7  2  0  0  0  0
  6 12  1  0  0  0  0
  7  8  1  0  0  0  0
  8  9  1  0  0  0  0
  8 10  2  0  0  0  0
 10 11  1  0  0  0  0
 11 12  2  0  0  0  0
 15 23  1  0  0  0  0
 15 16  1  0  0  0  0
 16 19  1  0  0  0  0
 19 22  1  0  0  0  0
 22  2  1  1  0  0  0
 22 23  1  0  0  0  0
 23 24  1  6  0  0  0
 24 25  1  0  0  0  0
 25 26  1  0  0  0  0
M  CHG  2  13  -1  18  -1
M  END
>  <CHROM.1>
178.96682386,72.09833528,-113.68000365,61.36708627,134.61388845,-67.58469046
-173.23815774,-49.56499975,-19.30035103,-13.10061360,0.65565032,0.13904278
-0.50698685,-1.45117214

>  <Name>
ligand

>  <RI>
0

>  <Rbt.Current_Directory>
/home/itssahil/PROJECTS/Mol_Feturizer/New_Systems/rnas/2GDI

>  <Rbt.Executable>
rbdock ($Id: //depot/dev/client3/rdock/2013.1/src/exe/rbdock.cxx#4 $)

>  <Rbt.Library>
libRbt.so (2013.1, Build901 2013/11/27)

>  <Rbt.Parameter_File>
/export/apps/rDock/src/rDock_2013.1_src/data/scripts/dock_solv.prm

>  <Rbt.Receptor>
prm/pocket_docking_2.prm

>  <SCORE>
-12.4868

>  <SCORE.INTER>
-12.7423

>  <SCORE.INTER.CONST>
1

>  <SCORE.INTER.POLAR>
0

>  <SCORE.INTER.ROT>
8

>  <SCORE.INTER.SOLV>
16.552

>  <SCORE.INTER.VDW>
-22.9455

>  <SCORE.INTER.norm>
-0.490088

>  <SCORE.INTRA>
0.255452

>  <SCORE.INTRA.DIHEDRAL>
-2.96969

>  <SCORE.INTRA.DIHEDRAL.0>
8.13976

>  <SCORE.INTRA.POLAR>
0

>  <SCORE.INTRA.POLAR.0>
0

>  <SCORE.INTRA.REPUL>
0

>  <SCORE.INTRA.REPUL.0>
0

>  <SCORE.INTRA.SOLV>
4.22755

>  <SCORE.INTRA.SOLV.lig_0>
-82.9561

>  <SCORE.INTRA.VDW>
-0.373477

>  <SCORE.INTRA.VDW.0>
-3.29171

>  <SCORE.INTRA.norm>
0.00982507

>  <SCORE.RESTR>
0

>  <SCORE.RESTR.CAVITY>
0

>  <SCORE.RESTR.norm>
0

>  <SCORE.SYSTEM>
0

>  <SCORE.SYSTEM.CONST>
0

>  <SCORE.SYSTEM.DIHEDRAL>
0

>  <SCORE.SYSTEM.SOLV>
0

>  <SCORE.SYSTEM.norm>
0

>  <SCORE.heavy>
26

>  <SCORE.norm>
-0.480263

>  <RMSD>
1.914

$$$$
ligand
 OpenBabel11021811433D
libRbt.so/2013.1/901 2013/11/27
 26 27  0  0  0  0  0  0  0  0999 V2000
  -12.5704   -7.9871   -0.4206 C   0  0  0  0  0  0  0  0  0  0  0  0
  -17.3878  -12.5193   -1.2446 C   0  0  0  0  0  0  0  0  0  0  0  0
  -22.7763  -14.3312    0.7346 P   0  0  1  0  0  0  0  0  0  0  0  0
  -21.8178  -17.0509    1.1133 P   0  0  1  0  0  0  0  0  0  0  0  0
  -15.9769  -12.2599    1.3603 C   0  0  0  0  0  0  0  0  0  0  0  0
  -15.4437   -9.8053    1.0754 C   0  0  0  0  0  0  0  0  0  0  0  0
  -15.0800  -11.1317    0.8797 C   0  0  0  0  0  0  0  0  0  0  0  0
  -13.8770  -11.4052    0.2497 C   0  0  0  0  0  0  0  0  0  0  0  0
  -13.4803  -12.6832    0.0356 N   0  0  0  0  0  0  0  0  0  0  0  0
  -13.0892  -10.3860   -0.1567 N   0  0  0  0  0  0  0  0  0  0  0  0
  -13.4654   -9.1040    0.0435 C   0  0  0  0  0  0  0  0  0  0  0  0
  -14.6397   -8.8179    0.6572 N   0  0  0  0  0  0  0  0  0  0  0  0
  -23.7057  -14.6313   -0.4119 O   0  5  0  0  0  0  0  0  0  0  0  0
  -22.6799  -17.6375    0.0381 O   0  0  0  0  0  0  0  0  0  0  0  0
  -19.7593  -11.0999    1.7283 S   0  0  0  0  0  0  0  0  0  0  0  0
  -18.1360  -11.4270    2.2489 C   0  0  0  0  0  0  0  0  0  0  0  0
  -23.3946  -14.1239    2.0872 O   0  0  0  0  0  0  0  0  0  0  0  0
  -20.4453  -17.6291    1.0171 O   0  5  0  0  0  0  0  0  0  0  0  0
  -17.3871  -11.8992    1.2140 N   0  0  0  0  0  0  0  0  0  0  0  0
  -21.6308  -15.4772    0.7708 O   0  0  0  0  0  0  0  0  0  0  0  0
  -22.3767  -17.1041    2.5090 O   0  0  0  0  0  0  0  0  0  0  0  0
  -18.0317  -12.0186    0.0208 C   0  0  1  0  0  0  0  0  0  0  0  0
  -19.4508  -11.5786    0.1057 C   0  0  1  0  0  0  0  0  0  0  0  0
  -20.5932  -11.4982   -0.8718 C   0  0  0  0  0  0  0  0  0  0  0  0
  -21.3268  -12.8301   -0.8750 C   0  0  0  0  0  0  0  0  0  0  0  0
  -21.9741  -12.9834    0.3822 O   0  0  0  0  0  0  0  0  0  0  0  0
  1 11  1  0  0  0  0
  3 13  1  6  0  0  0
  3 17  2  0  0  0  0
  3 20  1  0  0  0  0
  3 26  1  0  0  0  0
  4 14  1  6  0  0  0
  4 18  1  0  0  0  0
  4 21  2  0  0  0  0
  4 20  1  0  0  0  0
  5 19  1  0  0  0  0
  5  7  1  0  0  0  0
  6  7  2  0  0  0  0
  6 12  1  0  0  0  0
  7  8  1  0  0  0  0
  8  9  1  0  0  0  0
  8 10  2  0  0  0  0
 10 11  1  0  0  0  0
 11 12  2  0  0  0  0
 15 23  1  0  0  0  0
 15 16  1  0  0  0  0
 16 19  1  0  0  0  0
 19 22  1  0  0  0  0
 22  2  1  6  0  0  0
 22 23  1  0  0  0  0
 23 24  1  1  0  0  0
 24 25  1  0  0  0  0
 25 26  1  0  0  0  0
M  CHG  2  13  -1  18  -1
M  END
>  <CHROM.1>
-67.01711427,-98.50311857,35.56946158,64.54254763,-90.77153379,68.19152557
-176.64083576,-49.77014578,-19.03204074,-12.99325856,0.63241509,0.61101362
0.02916108,-0.06070759

>  <Name>
ligand

>  <RI>
0

>  <Rbt.Current_Directory>
/home/itssahil/PROJECTS/Mol_Feturizer/New_Systems/rnas/2GDI

>  <Rbt.Executable>
rbdock ($Id: //depot/dev/client3/rdock/2013.1/src/exe/rbdock.cxx#4 $)

>  <Rbt.Library>
libRbt.so (2013.1, Build901 2013/11/27)

>  <Rbt.Parameter_File>
/export/apps/rDock/src/rDock_2013.1_src/data/scripts/dock_solv.prm

>  <Rbt.Receptor>
prm/pocket_docking_2.prm

>  <SCORE>
-17.3208

>  <SCORE.INTER>
-15.4279

>  <SCORE.INTER.CONST>
1

>  <SCORE.INTER.POLAR>
0

>  <SCORE.INTER.ROT>
8

>  <SCORE.INTER.SOLV>
13.7694

>  <SCORE.INTER.VDW>
-23.8084

>  <SCORE.INTER.norm>
-0.593381

>  <SCORE.INTRA>
-1.89291

>  <SCORE.INTRA.DIHEDRAL>
-2.96787

>  <SCORE.INTRA.DIHEDRAL.0>
8.13976

>  <SCORE.INTRA.POLAR>
0

>  <SCORE.INTRA.POLAR.0>
0

>  <SCORE.INTRA.REPUL>
0

>  <SCORE.INTRA.REPUL.0>
0

>  <SCORE.INTRA.SOLV>
0.641633

>  <SCORE.INTRA.SOLV.lig_0>
-82.9561

>  <SCORE.INTRA.VDW>
-0.729791

>  <SCORE.INTRA.VDW.0>
-3.29171

>  <SCORE.INTRA.norm>
-0.0728043

>  <SCORE.RESTR>
0

>  <SCORE.RESTR.CAVITY>
0

>  <SCORE.RESTR.norm>
0

>  <SCORE.SYSTEM>
0

>  <SCORE.SYSTEM.CONST>
0

>  <SCORE.SYSTEM.DIHEDRAL>
0

>  <SCORE.SYSTEM.SOLV>
0

>  <SCORE.SYSTEM.norm>
0

>  <SCORE.heavy>
26

>  <SCORE.norm>
-0.666185

>  <RMSD>
1.915

$$$$
ligand
 OpenBabel11021811433D
libRbt.so/2013.1/901 2013/11/27
 26 27  0  0  0  0  0  0  0  0999 V2000
  -12.6325   -7.8957   -0.4454 C   0  0  0  0  0  0  0  0  0  0  0  0
  -17.3664  -12.4273   -1.1594 C   0  0  0  0  0  0  0  0  0  0  0  0
  -21.7636  -14.3579    0.3797 P   0  0  1  0  0  0  0  0  0  0  0  0
  -21.9651  -16.5630    2.2653 P   0  0  1  0  0  0  0  0  0  0  0  0
  -15.7885  -12.3470    1.3599 C   0  0  0  0  0  0  0  0  0  0  0  0
  -15.3670   -9.8664    1.1163 C   0  0  0  0  0  0  0  0  0  0  0  0
  -14.9581  -11.1715    0.8729 C   0  0  0  0  0  0  0  0  0  0  0  0
  -13.7714  -11.3800    0.1894 C   0  0  0  0  0  0  0  0  0  0  0  0
  -13.3323  -12.6350   -0.0724 N   0  0  0  0  0  0  0  0  0  0  0  0
  -13.0427  -10.3197   -0.2220 N   0  0  0  0  0  0  0  0  0  0  0  0
  -13.4621   -9.0595    0.0252 C   0  0  0  0  0  0  0  0  0  0  0  0
  -14.6212   -8.8368    0.6917 N   0  0  0  0  0  0  0  0  0  0  0  0
  -22.9546  -14.6503   -0.4946 O   0  5  0  0  0  0  0  0  0  0  0  0
  -21.0913  -17.7421    2.5649 O   0  0  0  0  0  0  0  0  0  0  0  0
  -19.5650  -11.3400    2.0749 S   0  0  0  0  0  0  0  0  0  0  0  0
  -17.9023  -11.6600    2.4574 C   0  0  0  0  0  0  0  0  0  0  0  0
  -21.9131  -13.2746    1.4088 O   0  0  0  0  0  0  0  0  0  0  0  0
  -21.9345  -15.6187    3.4205 O   0  5  0  0  0  0  0  0  0  0  0  0
  -17.2140  -12.0189    1.3384 N   0  0  0  0  0  0  0  0  0  0  0  0
  -21.2708  -15.7508    1.0459 O   0  0  0  0  0  0  0  0  0  0  0  0
  -23.3627  -16.8779    1.8061 O   0  0  0  0  0  0  0  0  0  0  0  0
  -17.9351  -12.0562    0.1843 C   0  0  1  0  0  0  0  0  0  0  0  0
  -19.3557  -11.6692    0.4001 C   0  0  1  0  0  0  0  0  0  0  0  0
  -20.5637  -11.5412   -0.4895 C   0  0  0  0  0  0  0  0  0  0  0  0
  -20.6371  -12.7637   -1.3909 C   0  0  0  0  0  0  0  0  0  0  0  0
  -20.5440  -13.9240   -0.5735 O   0  0  0  0  0  0  0  0  0  0  0  0
  1 11  1  0  0  0  0
  3 13  1  6  0  0  0
  3 17  2  0  0  0  0
  3 20  1  0  0  0  0
  3 26  1  0  0  0  0
  4 14  1  1  0  0  0
  4 18  1  0  0  0  0
  4 21  2  0  0  0  0
  4 20  1  0  0  0  0
  5 19  1  0  0  0  0
  5  7  1  0  0  0  0
  6  7  2  0  0  0  0
  6 12  1  0  0  0  0
  7  8  1  0  0  0  0
  8  9  1  0  0  0  0
  8 10  2  0  0  0  0
 10 11  1  0  0  0  0
 11 12  2  0  0  0  0
 15 23  1  0  0  0  0
 15 16  1  0  0  0  0
 16 19  1  0  0  0  0
 19 22  1  0  0  0  0
 22  2  1  6  0  0  0
 22 23  1  0  0  0  0
 23 24  1  1  0  0  0
 24 25  1  0  0  0  0
 25 26  1  0  0  0  0
M  CHG  2  13  -1  18  -1
M  END
>  <CHROM.1>
-75.41616973,-100.57300219,32.87647692,-176.78781859,-133.39879956,51.40107905
71.62092082,61.94960059,-18.77014742,-12.91826065,0.83961086,0.59435498,-0.20153480
-0.50353611

>  <Name>
ligand

>  <RI>
0

>  <Rbt.Current_Directory>
/home/itssahil/PROJECTS/Mol_Feturizer/New_Systems/rnas/2GDI

>  <Rbt.Executable>
rbdock ($Id: //depot/dev/client3/rdock/2013.1/src/exe/rbdock.cxx#4 $)

>  <Rbt.Library>
libRbt.so (2013.1, Build901 2013/11/27)

>  <Rbt.Parameter_File>
/export/apps/rDock/src/rDock_2013.1_src/data/scripts/dock_solv.prm

>  <Rbt.Receptor>
prm/pocket_docking_2.prm

>  <SCORE>
-15.2105

>  <SCORE.INTER>
-15.9162

>  <SCORE.INTER.CONST>
1

>  <SCORE.INTER.POLAR>
0

>  <SCORE.INTER.ROT>
8

>  <SCORE.INTER.SOLV>
16.539

>  <SCORE.INTER.VDW>
-25.0571

>  <SCORE.INTER.norm>
-0.612162

>  <SCORE.INTRA>
0.703397

>  <SCORE.INTRA.DIHEDRAL>
-2.34587

>  <SCORE.INTRA.DIHEDRAL.0>
8.13976

>  <SCORE.INTRA.POLAR>
0

>  <SCORE.INTRA.POLAR.0>
0

>  <SCORE.INTRA.REPUL>
0

>  <SCORE.INTRA.REPUL.0>
0

>  <SCORE.INTRA.SOLV>
4.3296

>  <SCORE.INTRA.SOLV.lig_0>
-82.9561

>  <SCORE.INTRA.VDW>
-0.288466

>  <SCORE.INTRA.VDW.0>
-3.29171

>  <SCORE.INTRA.norm>
0.0270537

>  <SCORE.RESTR>
0.00230683

>  <SCORE.RESTR.CAVITY>
0.00230683

>  <SCORE.RESTR.norm>
8.87242e-05

>  <SCORE.SYSTEM>
0

>  <SCORE.SYSTEM.CONST>
0

>  <SCORE.SYSTEM.DIHEDRAL>
0

>  <SCORE.SYSTEM.SOLV>
0

>  <SCORE.SYSTEM.norm>
0

>  <SCORE.heavy>
26

>  <SCORE.norm>
-0.585019

>  <RMSD>
1.934

$$$$
ligand
 OpenBabel11021811433D
libRbt.so/2013.1/901 2013/11/27
 26 27  0  0  0  0  0  0  0  0999 V2000
  -12.6330   -7.5492   -0.5105 C   0  0  0  0  0  0  0  0  0  0  0  0
  -17.3861  -12.9997   -1.1053 C   0  0  0  0  0  0  0  0  0  0  0  0
  -23.0065  -15.0223   -1.0091 P   0  0  1  0  0  0  0  0  0  0  0  0
  -24.9824  -13.9717    0.8485 P   0  0  1  0  0  0  0  0  0  0  0  0
  -15.6204  -12.1734    1.1402 C   0  0  0  0  0  0  0  0  0  0  0  0
  -15.3075   -9.6720    0.9526 C   0  0  0  0  0  0  0  0  0  0  0  0
  -14.8343  -10.9522    0.6940 C   0  0  0  0  0  0  0  0  0  0  0  0
  -13.6250  -11.0933    0.0332 C   0  0  0  0  0  0  0  0  0  0  0  0
  -13.1236  -12.3217   -0.2422 N   0  0  0  0  0  0  0  0  0  0  0  0
  -12.9368   -9.9932   -0.3418 N   0  0  0  0  0  0  0  0  0  0  0  0
  -13.4185   -8.7584   -0.0804 C   0  0  0  0  0  0  0  0  0  0  0  0
  -14.6005   -8.6016    0.5642 N   0  0  0  0  0  0  0  0  0  0  0  0
  -22.3570  -15.9299    0.0022 O   0  5  0  0  0  0  0  0  0  0  0  0
  -24.4095  -12.5882    0.8136 O   0  0  0  0  0  0  0  0  0  0  0  0
  -19.3681  -11.0711    1.8660 S   0  0  0  0  0  0  0  0  0  0  0  0
  -17.6687  -11.2386    2.1773 C   0  0  0  0  0  0  0  0  0  0  0  0
  -22.9700  -15.4541   -2.4468 O   0  0  0  0  0  0  0  0  0  0  0  0
  -26.4699  -13.8933    0.7558 O   0  5  0  0  0  0  0  0  0  0  0  0
  -17.0557  -11.8906    1.1507 N   0  0  0  0  0  0  0  0  0  0  0  0
  -24.5196  -14.7155   -0.5158 O   0  0  0  0  0  0  0  0  0  0  0  0
  -24.5137  -14.8512    1.9754 O   0  0  0  0  0  0  0  0  0  0  0  0
  -17.8629  -12.2696    0.1219 C   0  0  1  0  0  0  0  0  0  0  0  0
  -19.2771  -11.8623    0.3419 C   0  0  1  0  0  0  0  0  0  0  0  0
  -20.5554  -12.0159   -0.4388 C   0  0  0  0  0  0  0  0  0  0  0  0
  -20.9307  -13.4891   -0.4747 C   0  0  0  0  0  0  0  0  0  0  0  0
  -22.2717  -13.5943   -0.9372 O   0  0  0  0  0  0  0  0  0  0  0  0
  1 11  1  0  0  0  0
  3 13  1  1  0  0  0
  3 17  2  0  0  0  0
  3 20  1  0  0  0  0
  3 26  1  0  0  0  0
  4 14  1  1  0  0  0
  4 18  1  0  0  0  0
  4 21  2  0  0  0  0
  4 20  1  0  0  0  0
  5 19  1  0  0  0  0
  5  7  1  0  0  0  0
  6  7  2  0  0  0  0
  6 12  1  0  0  0  0
  7  8  1  0  0  0  0
  8  9  1  0  0  0  0
  8 10  2  0  0  0  0
 10 11  1  0  0  0  0
 11 12  2  0  0  0  0
 15 23  1  0  0  0  0
 15 16  1  0  0  0  0
 16 19  1  0  0  0  0
 19 22  1  0  0  0  0
 22  2  1  6  0  0  0
 22 23  1  0  0  0  0
 23 24  1  1  0  0  0
 24 25  1  0  0  0  0
 25 26  1  0  0  0  0
M  CHG  2  13  -1  18  -1
M  END
>  <CHROM.1>
61.81120373,-81.10353329,30.33393676,60.84073747,-111.32488665,166.89461415
-176.37702057,25.52980329,-19.58929528,-12.47413643,0.22680045,0.32906727
0.24999508,0.66951025

>  <Name>
ligand

>  <RI>
0

>  <Rbt.Current_Directory>
/home/itssahil/PROJECTS/Mol_Feturizer/New_Systems/rnas/2GDI

>  <Rbt.Executable>
rbdock ($Id: //depot/dev/client3/rdock/2013.1/src/exe/rbdock.cxx#4 $)

>  <Rbt.Library>
libRbt.so (2013.1, Build901 2013/11/27)

>  <Rbt.Parameter_File>
/export/apps/rDock/src/rDock_2013.1_src/data/scripts/dock_solv.prm

>  <Rbt.Receptor>
prm/pocket_docking_3.prm

>  <SCORE>
-16.372

>  <SCORE.INTER>
-15.7011

>  <SCORE.INTER.CONST>
1

>  <SCORE.INTER.POLAR>
0

>  <SCORE.INTER.ROT>
8

>  <SCORE.INTER.SOLV>
18.7566

>  <SCORE.INTER.VDW>
-25.6529

>  <SCORE.INTER.norm>
-0.603888

>  <SCORE.INTRA>
-0.677653

>  <SCORE.INTRA.DIHEDRAL>
-1.08692

>  <SCORE.INTRA.DIHEDRAL.0>
8.13976

>  <SCORE.INTRA.POLAR>
0

>  <SCORE.INTRA.POLAR.0>
0

>  <SCORE.INTRA.REPUL>
0

>  <SCORE.INTRA.REPUL.0>
0

>  <SCORE.INTRA.SOLV>
0.0309656

>  <SCORE.INTRA.SOLV.lig_0>
-82.9561

>  <SCORE.INTRA.VDW>
-0.149676

>  <SCORE.INTRA.VDW.0>
-3.29171

>  <SCORE.INTRA.norm>
-0.0260636

>  <SCORE.RESTR>
0.00669649

>  <SCORE.RESTR.CAVITY>
0.00669649

>  <SCORE.RESTR.norm>
0.000257557

>  <SCORE.SYSTEM>
0

>  <SCORE.SYSTEM.CONST>
0

>  <SCORE.SYSTEM.DIHEDRAL>
0

>  <SCORE.SYSTEM.SOLV>
0

>  <SCORE.SYSTEM.norm>
0

>  <SCORE.heavy>
26

>  <SCORE.norm>
-0.629694

>  <RMSD>
1.991

$$$$
ligand
 OpenBabel11021811433D
libRbt.so/2013.1/901 2013/11/27
 26 27  0  0  0  0  0  0  0  0999 V2000
  -12.2689   -7.6771   -0.6831 C   0  0  0  0  0  0  0  0  0  0  0  0
  -17.5319  -14.0213    0.6087 C   0  0  0  0  0  0  0  0  0  0  0  0
  -24.0955  -13.6651    0.3019 P   0  0  1  0  0  0  0  0  0  0  0  0
  -23.7300  -16.4618    1.0118 P   0  0  1  0  0  0  0  0  0  0  0  0
  -15.9360  -11.6181    1.3303 C   0  0  0  0  0  0  0  0  0  0  0  0
  -15.1789   -9.2250    1.0304 C   0  0  0  0  0  0  0  0  0  0  0  0
  -14.9711  -10.5771    0.7886 C   0  0  0  0  0  0  0  0  0  0  0  0
  -13.8594  -10.9582    0.0552 C   0  0  0  0  0  0  0  0  0  0  0  0
  -13.6155  -12.2651   -0.2071 N   0  0  0  0  0  0  0  0  0  0  0  0
  -13.0077  -10.0160   -0.4046 N   0  0  0  0  0  0  0  0  0  0  0  0
  -13.2322   -8.7068   -0.1579 C   0  0  0  0  0  0  0  0  0  0  0  0
  -14.3154   -8.3158    0.5570 N   0  0  0  0  0  0  0  0  0  0  0  0
  -24.9880  -12.9681   -0.6911 O   0  5  0  0  0  0  0  0  0  0  0  0
  -22.9253  -15.9403    2.1625 O   0  0  0  0  0  0  0  0  0  0  0  0
  -19.3470  -10.5317   -0.3937 S   0  0  0  0  0  0  0  0  0  0  0  0
  -17.8031  -10.3032    0.3662 C   0  0  0  0  0  0  0  0  0  0  0  0
  -23.9490  -13.0360    1.6575 O   0  0  0  0  0  0  0  0  0  0  0  0
  -24.7662  -17.4072    1.5213 O   0  5  0  0  0  0  0  0  0  0  0  0
  -17.2412  -11.5035    0.6797 N   0  0  0  0  0  0  0  0  0  0  0  0
  -24.5683  -15.2117    0.4090 O   0  0  0  0  0  0  0  0  0  0  0  0
  -22.9441  -17.0238   -0.1414 O   0  0  0  0  0  0  0  0  0  0  0  0
  -17.9708  -12.6047    0.3500 C   0  0  1  0  0  0  0  0  0  0  0  0
  -19.2528  -12.2470   -0.3155 C   0  0  1  0  0  0  0  0  0  0  0  0
  -20.4105  -13.0326   -0.8720 C   0  0  0  0  0  0  0  0  0  0  0  0
  -21.6360  -12.7714   -0.0105 C   0  0  0  0  0  0  0  0  0  0  0  0
  -22.6199  -13.7473   -0.3308 O   0  0  0  0  0  0  0  0  0  0  0  0
  1 11  1  0  0  0  0
  3 13  1  6  0  0  0
  3 17  2  0  0  0  0
  3 20  1  0  0  0  0
  3 26  1  0  0  0  0
  4 14  1  1  0  0  0
  4 18  1  0  0  0  0
  4 21  2  0  0  0  0
  4 20  1  0  0  0  0
  5 19  1  0  0  0  0
  5  7  1  0  0  0  0
  6  7  2  0  0  0  0
  6 12  1  0  0  0  0
  7  8  1  0  0  0  0
  8  9  1  0  0  0  0
  8 10  2  0  0  0  0
 10 11  1  0  0  0  0
 11 12  2  0  0  0  0
 15 23  1  0  0  0  0
 15 16  1  0  0  0  0
 16 19  1  0  0  0  0
 19 22  1  0  0  0  0
 22  2  1  6  0  0  0
 22 23  1  0  0  0  0
 23 24  1  1  0  0  0
 24 25  1  0  0  0  0
 25 26  1  0  0  0  0
M  CHG  2  13  -1  18  -1
M  END
>  <CHROM.1>
162.41730861,-38.62146932,67.10468111,35.34527989,-66.29998507,-165.96605522
-173.94176341,95.85499685,-19.59177545,-12.65537121,0.33664199,0.51234518
-0.06053318,-0.20953732

>  <Name>
ligand

>  <RI>
0

>  <Rbt.Current_Directory>
/home/itssahil/PROJECTS/Mol_Feturizer/New_Systems/rnas/2GDI

>  <Rbt.Executable>
rbdock ($Id: //depot/dev/client3/rdock/2013.1/src/exe/rbdock.cxx#4 $)

>  <Rbt.Library>
libRbt.so (2013.1, Build901 2013/11/27)

>  <Rbt.Parameter_File>
/export/apps/rDock/src/rDock_2013.1_src/data/scripts/dock_solv.prm

>  <Rbt.Receptor>
prm/pocket_docking_3.prm

>  <SCORE>
-14.9917

>  <SCORE.INTER>
-15.7133

>  <SCORE.INTER.CONST>
1

>  <SCORE.INTER.POLAR>
0

>  <SCORE.INTER.ROT>
8

>  <SCORE.INTER.SOLV>
14.9706

>  <SCORE.INTER.VDW>
-24.3991

>  <SCORE.INTER.norm>
-0.60436

>  <SCORE.INTRA>
0.72164

>  <SCORE.INTRA.DIHEDRAL>
0.493465

>  <SCORE.INTRA.DIHEDRAL.0>
8.13976

>  <SCORE.INTRA.POLAR>
0

>  <SCORE.INTRA.POLAR.0>
0

>  <SCORE.INTRA.REPUL>
0

>  <SCORE.INTRA.REPUL.0>
0

>  <SCORE.INTRA.SOLV>
-0.213422

>  <SCORE.INTRA.SOLV.lig_0>
-82.9561

>  <SCORE.INTRA.VDW>
0.581618

>  <SCORE.INTRA.VDW.0>
-3.29171

>  <SCORE.INTRA.norm>
0.0277554

>  <SCORE.RESTR>
0

>  <SCORE.RESTR.CAVITY>
0

>  <SCORE.RESTR.norm>
0

>  <SCORE.SYSTEM>
0

>  <SCORE.SYSTEM.CONST>
0

>  <SCORE.SYSTEM.DIHEDRAL>
0

>  <SCORE.SYSTEM.SOLV>
0

>  <SCORE.SYSTEM.norm>
0

>  <SCORE.heavy>
26

>  <SCORE.norm>
-0.576604

>  <RMSD>
1.992

$$$$
ligand
 OpenBabel11021811433D
libRbt.so/2013.1/901 2013/11/27
 26 27  0  0  0  0  0  0  0  0999 V2000
  -12.5512   -7.9807   -0.4741 C   0  0  0  0  0  0  0  0  0  0  0  0
  -17.3212  -12.5106   -1.1545 C   0  0  0  0  0  0  0  0  0  0  0  0
  -22.2417  -13.9036    0.5530 P   0  0  1  0  0  0  0  0  0  0  0  0
  -21.6527  -16.5651    1.5671 P   0  0  1  0  0  0  0  0  0  0  0  0
  -15.8628  -12.2765    1.4265 C   0  0  0  0  0  0  0  0  0  0  0  0
  -15.3654   -9.8186    1.1078 C   0  0  0  0  0  0  0  0  0  0  0  0
  -14.9912  -11.1423    0.9143 C   0  0  0  0  0  0  0  0  0  0  0  0
  -13.8010  -11.4076    0.2571 C   0  0  0  0  0  0  0  0  0  0  0  0
  -13.3949  -12.6828    0.0440 N   0  0  0  0  0  0  0  0  0  0  0  0
  -13.0354  -10.3830   -0.1773 N   0  0  0  0  0  0  0  0  0  0  0  0
  -13.4215   -9.1037    0.0213 C   0  0  0  0  0  0  0  0  0  0  0  0
  -14.5835   -8.8257    0.6615 N   0  0  0  0  0  0  0  0  0  0  0  0
  -23.3406  -14.4662   -0.3097 O   0  5  0  0  0  0  0  0  0  0  0  0
  -20.3763  -16.7224    0.7991 O   0  0  0  0  0  0  0  0  0  0  0  0
  -19.6521  -11.1741    1.8881 S   0  0  0  0  0  0  0  0  0  0  0  0
  -18.0147  -11.4881    2.3712 C   0  0  0  0  0  0  0  0  0  0  0  0
  -22.4372  -12.5204    1.1036 O   0  0  0  0  0  0  0  0  0  0  0  0
  -21.4557  -17.0618    2.9605 O   0  5  0  0  0  0  0  0  0  0  0  0
  -17.2803  -11.9325    1.3139 N   0  0  0  0  0  0  0  0  0  0  0  0
  -21.9216  -14.9742    1.7270 O   0  0  0  0  0  0  0  0  0  0  0  0
  -22.8872  -17.1272    0.9165 O   0  0  0  0  0  0  0  0  0  0  0  0
  -17.9466  -12.0402    0.1316 C   0  0  1  0  0  0  0  0  0  0  0  0
  -19.3694  -11.6210    0.2518 C   0  0  1  0  0  0  0  0  0  0  0  0
  -20.5318  -11.5394   -0.7017 C   0  0  0  0  0  0  0  0  0  0  0  0
  -20.7242  -12.8997   -1.3535 C   0  0  0  0  0  0  0  0  0  0  0  0
  -20.8944  -13.8655   -0.3233 O   0  0  0  0  0  0  0  0  0  0  0  0
  1 11  1  0  0  0  0
  3 13  1  6  0  0  0
  3 17  2  0  0  0  0
  3 20  1  0  0  0  0
  3 26  1  0  0  0  0
  4 14  1  6  0  0  0
  4 18  1  0  0  0  0
  4 21  2  0  0  0  0
  4 20  1  0  0  0  0
  5 19  1  0  0  0  0
  5  7  1  0  0  0  0
  6  7  2  0  0  0  0
  6 12  1  0  0  0  0
  7  8  1  0  0  0  0
  8  9  1  0  0  0  0
  8 10  2  0  0  0  0
 10 11  1  0  0  0  0
 11 12  2  0  0  0  0
 15 23  1  0  0  0  0
 15 16  1  0  0  0  0
 16 19  1  0  0  0  0
 19 22  1  0  0  0  0
 22  2  1  6  0  0  0
 22 23  1  0  0  0  0
 23 24  1  1  0  0  0
 24 25  1  0  0  0  0
 25 26  1  0  0  0  0
M  CHG  2  13  -1  18  -1
M  END
>  <CHROM.1>
49.18364894,-99.97599678,35.48643830,65.55752585,-124.13935949,56.00789264
70.99005967,73.55936540,-18.80548670,-12.83166496,0.69188562,0.59275621,-0.04942023
-0.21073168

>  <Name>
ligand

>  <RI>
0

>  <Rbt.Current_Directory>
/home/itssahil/PROJECTS/Mol_Feturizer/New_Systems/rnas/2GDI

>  <Rbt.Executable>
rbdock ($Id: //depot/dev/client3/rdock/2013.1/src/exe/rbdock.cxx#4 $)

>  <Rbt.Library>
libRbt.so (2013.1, Build901 2013/11/27)

>  <Rbt.Parameter_File>
/export/apps/rDock/src/rDock_2013.1_src/data/scripts/dock_solv.prm

>  <Rbt.Receptor>
prm/pocket_docking_2.prm

>  <SCORE>
-16.7677

>  <SCORE.INTER>
-16.1947

>  <SCORE.INTER.CONST>
1

>  <SCORE.INTER.POLAR>
0

>  <SCORE.INTER.ROT>
8

>  <SCORE.INTER.SOLV>
15.4317

>  <SCORE.INTER.VDW>
-24.8737

>  <SCORE.INTER.norm>
-0.622872

>  <SCORE.INTRA>
-0.596741

>  <SCORE.INTRA.DIHEDRAL>
-2.68468

>  <SCORE.INTRA.DIHEDRAL.0>
8.13976

>  <SCORE.INTRA.POLAR>
0

>  <SCORE.INTRA.POLAR.0>
0

>  <SCORE.INTRA.REPUL>
0

>  <SCORE.INTRA.REPUL.0>
0

>  <SCORE.INTRA.SOLV>
2.18514

>  <SCORE.INTRA.SOLV.lig_0>
-82.9561

>  <SCORE.INTRA.VDW>
-0.346968

>  <SCORE.INTRA.VDW.0>
-3.29171

>  <SCORE.INTRA.norm>
-0.0229516

>  <SCORE.RESTR>
0.0236907

>  <SCORE.RESTR.CAVITY>
0.0236907

>  <SCORE.RESTR.norm>
0.000911182

>  <SCORE.SYSTEM>
0

>  <SCORE.SYSTEM.CONST>
0

>  <SCORE.SYSTEM.DIHEDRAL>
0

>  <SCORE.SYSTEM.SOLV>
0

>  <SCORE.SYSTEM.norm>
0

>  <SCORE.heavy>
26

>  <SCORE.norm>
-0.644913

>  <RMSD>
2.008

$$$$
ligand
 OpenBabel11021811433D
libRbt.so/2013.1/901 2013/11/27
 26 27  0  0  0  0  0  0  0  0999 V2000
  -12.2822   -7.7721   -0.6409 C   0  0  0  0  0  0  0  0  0  0  0  0
  -17.3228  -14.0372    0.0005 C   0  0  0  0  0  0  0  0  0  0  0  0
  -21.0533  -15.7086    1.5172 P   0  0  1  0  0  0  0  0  0  0  0  0
  -21.2342  -17.9634   -0.3109 P   0  0  1  0  0  0  0  0  0  0  0  0
  -15.9302  -11.7607    1.3126 C   0  0  0  0  0  0  0  0  0  0  0  0
  -15.1886   -9.3592    1.0426 C   0  0  0  0  0  0  0  0  0  0  0  0
  -14.9703  -10.7070    0.7866 C   0  0  0  0  0  0  0  0  0  0  0  0
  -13.8529  -11.0722    0.0539 C   0  0  0  0  0  0  0  0  0  0  0  0
  -13.5988  -12.3744   -0.2220 N   0  0  0  0  0  0  0  0  0  0  0  0
  -13.0059  -10.1190   -0.3918 N   0  0  0  0  0  0  0  0  0  0  0  0
  -13.2405   -8.8143   -0.1314 C   0  0  0  0  0  0  0  0  0  0  0  0
  -14.3294   -8.4387    0.5831 N   0  0  0  0  0  0  0  0  0  0  0  0
  -22.0583  -14.9413    2.3355 O   0  5  0  0  0  0  0  0  0  0  0  0
  -19.7481  -17.7773   -0.3240 O   0  0  0  0  0  0  0  0  0  0  0  0
  -19.4586  -10.5865   -0.0871 S   0  0  0  0  0  0  0  0  0  0  0  0
  -17.9255  -10.4190    0.7096 C   0  0  0  0  0  0  0  0  0  0  0  0
  -19.9182  -16.3602    2.2532 O   0  0  0  0  0  0  0  0  0  0  0  0
  -21.5688  -19.2189    0.4232 O   0  5  0  0  0  0  0  0  0  0  0  0
  -17.2537  -11.6037    0.7093 N   0  0  0  0  0  0  0  0  0  0  0  0
  -21.8573  -16.7728    0.5963 O   0  0  0  0  0  0  0  0  0  0  0  0
  -21.9226  -17.8667   -1.6451 O   0  0  0  0  0  0  0  0  0  0  0  0
  -17.8900  -12.6468    0.1090 C   0  0  1  0  0  0  0  0  0  0  0  0
  -19.2121  -12.2499   -0.4469 C   0  0  1  0  0  0  0  0  0  0  0  0
  -20.3073  -12.9704   -1.1873 C   0  0  0  0  0  0  0  0  0  0  0  0
  -21.1838  -13.6947   -0.1776 C   0  0  0  0  0  0  0  0  0  0  0  0
  -20.3951  -14.6917    0.4603 O   0  0  0  0  0  0  0  0  0  0  0  0
  1 11  1  0  0  0  0
  3 13  1  1  0  0  0
  3 17  2  0  0  0  0
  3 20  1  0  0  0  0
  3 26  1  0  0  0  0
  4 14  1  6  0  0  0
  4 18  1  0  0  0  0
  4 21  2  0  0  0  0
  4 20  1  0  0  0  0
  5 19  1  0  0  0  0
  5  7  1  0  0  0  0
  6  7  2  0  0  0  0
  6 12  1  0  0  0  0
  7  8  1  0  0  0  0
  8  9  1  0  0  0  0
  8 10  2  0  0  0  0
 10 11  1  0  0  0  0
 11 12  2  0  0  0  0
 15 23  1  0  0  0  0
 15 16  1  0  0  0  0
 16 19  1  0  0  0  0
 19 22  1  0  0  0  0
 22  2  1  6  0  0  0
 22 23  1  0  0  0  0
 23 24  1  1  0  0  0
 24 25  1  0  0  0  0
 25 26  1  0  0  0  0
M  CHG  2  13  -1  18  -1
M  END
>  <CHROM.1>
-171.17084249,-52.18678985,64.13666314,-8.83998454,-96.22739532,-64.42135946
-175.76059408,-38.38194365,-18.42695977,-13.46319713,0.29839749,-0.80788766
-0.10371079,-3.07233755

>  <Name>
ligand

>  <RI>
0

>  <Rbt.Current_Directory>
/home/itssahil/PROJECTS/Mol_Feturizer/New_Systems/rnas/2GDI

>  <Rbt.Executable>
rbdock ($Id: //depot/dev/client3/rdock/2013.1/src/exe/rbdock.cxx#4 $)

>  <Rbt.Library>
libRbt.so (2013.1, Build901 2013/11/27)

>  <Rbt.Parameter_File>
/export/apps/rDock/src/rDock_2013.1_src/data/scripts/dock_solv.prm

>  <Rbt.Receptor>
prm/pocket_docking_4.prm

>  <SCORE>
-16.1208

>  <SCORE.INTER>
-15.6975

>  <SCORE.INTER.CONST>
1

>  <SCORE.INTER.POLAR>
0

>  <SCORE.INTER.ROT>
8

>  <SCORE.INTER.SOLV>
16.2928

>  <SCORE.INTER.VDW>
-24.8293

>  <SCORE.INTER.norm>
-0.603749

>  <SCORE.INTRA>
-0.423349

>  <SCORE.INTRA.DIHEDRAL>
-0.281352

>  <SCORE.INTRA.DIHEDRAL.0>
8.13976

>  <SCORE.INTRA.POLAR>
0

>  <SCORE.INTRA.POLAR.0>
0

>  <SCORE.INTRA.REPUL>
0

>  <SCORE.INTRA.REPUL.0>
0

>  <SCORE.INTRA.SOLV>
0.387726

>  <SCORE.INTRA.SOLV.lig_0>
-82.9561

>  <SCORE.INTRA.VDW>
-0.476536

>  <SCORE.INTRA.VDW.0>
-3.29171

>  <SCORE.INTRA.norm>
-0.0162827

>  <SCORE.RESTR>
0

>  <SCORE.RESTR.CAVITY>
0

>  <SCORE.RESTR.norm>
0

>  <SCORE.SYSTEM>
0

>  <SCORE.SYSTEM.CONST>
0

>  <SCORE.SYSTEM.DIHEDRAL>
0

>  <SCORE.SYSTEM.SOLV>
0

>  <SCORE.SYSTEM.norm>
0

>  <SCORE.heavy>
26

>  <SCORE.norm>
-0.620032

>  <RMSD>
2.010

$$$$
ligand
 OpenBabel11021811433D
libRbt.so/2013.1/901 2013/11/27
 26 27  0  0  0  0  0  0  0  0999 V2000
  -12.6035   -7.8808   -0.4245 C   0  0  0  0  0  0  0  0  0  0  0  0
  -17.3974  -12.8107   -1.0977 C   0  0  0  0  0  0  0  0  0  0  0  0
  -21.1150  -15.6687    0.0583 P   0  0  1  0  0  0  0  0  0  0  0  0
  -21.6144  -17.7017    2.0773 P   0  0  1  0  0  0  0  0  0  0  0  0
  -15.7601  -12.3476    1.3411 C   0  0  0  0  0  0  0  0  0  0  0  0
  -15.3525   -9.8650    1.0942 C   0  0  0  0  0  0  0  0  0  0  0  0
  -14.9294  -11.1681    0.8646 C   0  0  0  0  0  0  0  0  0  0  0  0
  -13.7285  -11.3707    0.2045 C   0  0  0  0  0  0  0  0  0  0  0  0
  -13.2752  -12.6235   -0.0432 N   0  0  0  0  0  0  0  0  0  0  0  0
  -12.9999  -10.3068   -0.1978 N   0  0  0  0  0  0  0  0  0  0  0  0
  -13.4333   -9.0487    0.0357 C   0  0  0  0  0  0  0  0  0  0  0  0
  -14.6064   -8.8318    0.6792 N   0  0  0  0  0  0  0  0  0  0  0  0
  -19.7530  -16.1636   -0.3522 O   0  5  0  0  0  0  0  0  0  0  0  0
  -20.4457  -18.4973    1.5824 O   0  0  0  0  0  0  0  0  0  0  0  0
  -19.5214  -11.2403    1.9844 S   0  0  0  0  0  0  0  0  0  0  0  0
  -17.8492  -11.4993    2.3712 C   0  0  0  0  0  0  0  0  0  0  0  0
  -22.2648  -15.9757   -0.8573 O   0  0  0  0  0  0  0  0  0  0  0  0
  -21.5623  -17.6207    3.5665 O   0  5  0  0  0  0  0  0  0  0  0  0
  -17.1867  -12.0256    1.3040 N   0  0  0  0  0  0  0  0  0  0  0  0
  -21.4033  -16.1762    1.5703 O   0  0  0  0  0  0  0  0  0  0  0  0
  -22.9639  -18.1227    1.5628 O   0  0  0  0  0  0  0  0  0  0  0  0
  -17.9350  -12.2382    0.1868 C   0  0  1  0  0  0  0  0  0  0  0  0
  -19.3512  -11.8217    0.3750 C   0  0  1  0  0  0  0  0  0  0  0  0
  -20.5804  -11.8303   -0.4945 C   0  0  0  0  0  0  0  0  0  0  0  0
  -20.8374  -13.2544   -0.9614 C   0  0  0  0  0  0  0  0  0  0  0  0
  -21.0422  -14.0679    0.1873 O   0  0  0  0  0  0  0  0  0  0  0  0
  1 11  1  0  0  0  0
  3 13  1  6  0  0  0
  3 17  2  0  0  0  0
  3 20  1  0  0  0  0
  3 26  1  0  0  0  0
  4 14  1  6  0  0  0
  4 18  1  0  0  0  0
  4 21  2  0  0  0  0
  4 20  1  0  0  0  0
  5 19  1  0  0  0  0
  5  7  1  0  0  0  0
  6  7  2  0  0  0  0
  6 12  1  0  0  0  0
  7  8  1  0  0  0  0
  8  9  1  0  0  0  0
  8 10  2  0  0  0  0
 10 11  1  0  0  0  0
 11 12  2  0  0  0  0
 15 23  1  0  0  0  0
 15 16  1  0  0  0  0
 16 19  1  0  0  0  0
 19 22  1  0  0  0  0
 22  2  1  6  0  0  0
 22 23  1  0  0  0  0
 23 24  1  1  0  0  0
 24 25  1  0  0  0  0
 25 26  1  0  0  0  0
M  CHG  2  13  -1  18  -1
M  END
>  <CHROM.1>
-66.81319448,-91.49955447,32.30588915,52.57103629,-121.51609540,60.31767472
-170.50703168,66.97360182,-18.55040178,-13.47102826,0.73511323,0.75692891
-0.06199922,-0.19858895

>  <Name>
ligand

>  <RI>
0

>  <Rbt.Current_Directory>
/home/itssahil/PROJECTS/Mol_Feturizer/New_Systems/rnas/2GDI

>  <Rbt.Executable>
rbdock ($Id: //depot/dev/client3/rdock/2013.1/src/exe/rbdock.cxx#4 $)

>  <Rbt.Library>
libRbt.so (2013.1, Build901 2013/11/27)

>  <Rbt.Parameter_File>
/export/apps/rDock/src/rDock_2013.1_src/data/scripts/dock_solv.prm

>  <Rbt.Receptor>
prm/pocket_docking_3.prm

>  <SCORE>
-18.5242

>  <SCORE.INTER>
-16.9128

>  <SCORE.INTER.CONST>
1

>  <SCORE.INTER.POLAR>
0

>  <SCORE.INTER.ROT>
8

>  <SCORE.INTER.SOLV>
14.4881

>  <SCORE.INTER.VDW>
-25.0379

>  <SCORE.INTER.norm>
-0.650492

>  <SCORE.INTRA>
-1.62668

>  <SCORE.INTRA.DIHEDRAL>
-2.9287

>  <SCORE.INTRA.DIHEDRAL.0>
8.13976

>  <SCORE.INTRA.POLAR>
0

>  <SCORE.INTRA.POLAR.0>
0

>  <SCORE.INTRA.REPUL>
0

>  <SCORE.INTRA.REPUL.0>
0

>  <SCORE.INTRA.SOLV>
0.958622

>  <SCORE.INTRA.SOLV.lig_0>
-82.9561

>  <SCORE.INTRA.VDW>
-0.641639

>  <SCORE.INTRA.VDW.0>
-3.29171

>  <SCORE.INTRA.norm>
-0.0625646

>  <SCORE.RESTR>
0.0152375

>  <SCORE.RESTR.CAVITY>
0.0152375

>  <SCORE.RESTR.norm>
0.000586058

>  <SCORE.SYSTEM>
0

>  <SCORE.SYSTEM.CONST>
0

>  <SCORE.SYSTEM.DIHEDRAL>
0

>  <SCORE.SYSTEM.SOLV>
0

>  <SCORE.SYSTEM.norm>
0

>  <SCORE.heavy>
26

>  <SCORE.norm>
-0.71247

>  <RMSD>
2.016

$$$$
ligand
 OpenBabel11021811433D
libRbt.so/2013.1/901 2013/11/27
 26 27  0  0  0  0  0  0  0  0999 V2000
  -12.9107   -7.8335   -0.2867 C   0  0  0  0  0  0  0  0  0  0  0  0
  -17.5164  -13.8622   -0.6836 C   0  0  0  0  0  0  0  0  0  0  0  0
  -20.9187  -16.5358    1.7930 P   0  0  1  0  0  0  0  0  0  0  0  0
  -22.8167  -15.9006    3.9032 P   0  0  1  0  0  0  0  0  0  0  0  0
  -15.5651  -12.6987    1.2353 C   0  0  0  0  0  0  0  0  0  0  0  0
  -15.4792  -10.1822    1.0119 C   0  0  0  0  0  0  0  0  0  0  0  0
  -14.8661  -11.4144    0.8229 C   0  0  0  0  0  0  0  0  0  0  0  0
  -13.5993  -11.4479    0.2634 C   0  0  0  0  0  0  0  0  0  0  0  0
  -12.9618  -12.6260    0.0586 N   0  0  0  0  0  0  0  0  0  0  0  0
  -12.9915  -10.2923   -0.0828 N   0  0  0  0  0  0  0  0  0  0  0  0
  -13.6090   -9.1062    0.1094 C   0  0  0  0  0  0  0  0  0  0  0  0
  -14.8489   -9.0546    0.6545 N   0  0  0  0  0  0  0  0  0  0  0  0
  -19.9051  -16.9839    2.8130 O   0  5  0  0  0  0  0  0  0  0  0  0
  -22.2757  -14.5040    3.9217 O   0  0  0  0  0  0  0  0  0  0  0  0
  -19.2679  -11.6893    2.2638 S   0  0  0  0  0  0  0  0  0  0  0  0
  -17.5376  -11.7420    2.3923 C   0  0  0  0  0  0  0  0  0  0  0  0
  -20.9223  -17.2425    0.4681 O   0  0  0  0  0  0  0  0  0  0  0  0
  -24.3077  -15.8527    3.8616 O   0  5  0  0  0  0  0  0  0  0  0  0
  -17.0046  -12.4819    1.3807 N   0  0  0  0  0  0  0  0  0  0  0  0
  -22.3825  -16.5630    2.4885 O   0  0  0  0  0  0  0  0  0  0  0  0
  -22.2922  -16.8251    4.9680 O   0  0  0  0  0  0  0  0  0  0  0  0
  -17.8967  -13.0152    0.5015 C   0  0  1  0  0  0  0  0  0  0  0  0
  -19.2994  -12.6492    0.8374 C   0  0  1  0  0  0  0  0  0  0  0  0
  -20.6448  -12.9512    0.2325 C   0  0  0  0  0  0  0  0  0  0  0  0
  -20.8248  -14.4599    0.1722 C   0  0  0  0  0  0  0  0  0  0  0  0
  -20.6576  -14.9797    1.4856 O   0  0  0  0  0  0  0  0  0  0  0  0
  1 11  1  0  0  0  0
  3 13  1  1  0  0  0
  3 17  2  0  0  0  0
  3 20  1  0  0  0  0
  3 26  1  0  0  0  0
  4 14  1  1  0  0  0
  4 18  1  0  0  0  0
  4 21  2  0  0  0  0
  4 20  1  0  0  0  0
  5 19  1  0  0  0  0
  5  7  1  0  0  0  0
  6  7  2  0  0  0  0
  6 12  1  0  0  0  0
  7  8  1  0  0  0  0
  8  9  1  0  0  0  0
  8 10  2  0  0  0  0
 10 11  1  0  0  0  0
 11 12  2  0  0  0  0
 15 23  1  0  0  0  0
 15 16  1  0  0  0  0
 16 19  1  0  0  0  0
 19 22  1  0  0  0  0
 22  2  1  6  0  0  0
 22 23  1  0  0  0  0
 23 24  1  1  0  0  0
 24 25  1  0  0  0  0
 25 26  1  0  0  0  0
M  CHG  2  13  -1  18  -1
M  END
>  <CHROM.1>
50.46640350,-70.04480479,19.15133417,47.04133242,-121.64804911,56.03659088
174.34263144,143.30512680,-18.72539784,-13.51709999,1.61868202,0.46357293
0.50894147,0.34157011

>  <Name>
ligand

>  <RI>
0

>  <Rbt.Current_Directory>
/home/itssahil/PROJECTS/Mol_Feturizer/New_Systems/rnas/2GDI

>  <Rbt.Executable>
rbdock ($Id: //depot/dev/client3/rdock/2013.1/src/exe/rbdock.cxx#4 $)

>  <Rbt.Library>
libRbt.so (2013.1, Build901 2013/11/27)

>  <Rbt.Parameter_File>
/export/apps/rDock/src/rDock_2013.1_src/data/scripts/dock_solv.prm

>  <Rbt.Receptor>
prm/pocket_docking_8.prm

>  <SCORE>
-16.6091

>  <SCORE.INTER>
-15.7352

>  <SCORE.INTER.CONST>
1

>  <SCORE.INTER.POLAR>
0

>  <SCORE.INTER.ROT>
8

>  <SCORE.INTER.SOLV>
19.6614

>  <SCORE.INTER.VDW>
-25.9773

>  <SCORE.INTER.norm>
-0.6052

>  <SCORE.INTRA>
-0.882666

>  <SCORE.INTRA.DIHEDRAL>
-1.09919

>  <SCORE.INTRA.DIHEDRAL.0>
8.13976

>  <SCORE.INTRA.POLAR>
0

>  <SCORE.INTRA.POLAR.0>
0

>  <SCORE.INTRA.REPUL>
0

>  <SCORE.INTRA.REPUL.0>
0

>  <SCORE.INTRA.SOLV>
-0.864135

>  <SCORE.INTRA.SOLV.lig_0>
-82.9561

>  <SCORE.INTRA.VDW>
0.0989959

>  <SCORE.INTRA.VDW.0>
-3.29171

>  <SCORE.INTRA.norm>
-0.0339487

>  <SCORE.RESTR>
0.00878031

>  <SCORE.RESTR.CAVITY>
0.00878031

>  <SCORE.RESTR.norm>
0.000337704

>  <SCORE.SYSTEM>
0

>  <SCORE.SYSTEM.CONST>
0

>  <SCORE.SYSTEM.DIHEDRAL>
0

>  <SCORE.SYSTEM.SOLV>
0

>  <SCORE.SYSTEM.norm>
0

>  <SCORE.heavy>
26

>  <SCORE.norm>
-0.638811

>  <RMSD>
2.021

$$$$
ligand
 OpenBabel11021811433D
libRbt.so/2013.1/901 2013/11/27
 26 27  0  0  0  0  0  0  0  0999 V2000
  -12.2273   -7.6354   -0.7626 C   0  0  0  0  0  0  0  0  0  0  0  0
  -17.4962  -13.8241    0.1000 C   0  0  0  0  0  0  0  0  0  0  0  0
  -22.8391  -15.5820   -0.0257 P   0  0  1  0  0  0  0  0  0  0  0  0
  -24.5835  -13.5507    1.1099 P   0  0  1  0  0  0  0  0  0  0  0  0
  -15.9419  -11.5486    1.2178 C   0  0  0  0  0  0  0  0  0  0  0  0
  -15.1805   -9.1595    0.8976 C   0  0  0  0  0  0  0  0  0  0  0  0
  -14.9642  -10.5151    0.6847 C   0  0  0  0  0  0  0  0  0  0  0  0
  -13.8324  -10.9065   -0.0116 C   0  0  0  0  0  0  0  0  0  0  0  0
  -13.5796  -12.2173   -0.2449 N   0  0  0  0  0  0  0  0  0  0  0  0
  -12.9700   -9.9706   -0.4643 N   0  0  0  0  0  0  0  0  0  0  0  0
  -13.2030   -8.6579   -0.2461 C   0  0  0  0  0  0  0  0  0  0  0  0
  -14.3057   -8.2568    0.4323 N   0  0  0  0  0  0  0  0  0  0  0  0
  -21.8080  -16.5087    0.5631 O   0  5  0  0  0  0  0  0  0  0  0  0
  -23.7455  -12.4043    0.6334 O   0  0  0  0  0  0  0  0  0  0  0  0
  -19.4325  -10.2678   -0.1830 S   0  0  0  0  0  0  0  0  0  0  0  0
  -17.8721  -10.1365    0.5660 C   0  0  0  0  0  0  0  0  0  0  0  0
  -23.7995  -16.1636   -1.0228 O   0  0  0  0  0  0  0  0  0  0  0  0
  -25.5929  -13.8931    0.0653 O   0  5  0  0  0  0  0  0  0  0  0  0
  -17.2694  -11.3559    0.6342 N   0  0  0  0  0  0  0  0  0  0  0  0
  -23.6152  -14.8485    1.1935 O   0  0  0  0  0  0  0  0  0  0  0  0
  -25.1888  -13.4007    2.4790 O   0  0  0  0  0  0  0  0  0  0  0  0
  -17.9799  -12.3986    0.1229 C   0  0  1  0  0  0  0  0  0  0  0  0
  -19.2911  -11.9637   -0.4303 C   0  0  1  0  0  0  0  0  0  0  0  0
  -20.4447  -12.6678   -1.0940 C   0  0  0  0  0  0  0  0  0  0  0  0
  -21.0623  -13.6371   -0.0983 C   0  0  0  0  0  0  0  0  0  0  0  0
  -22.0634  -14.3889   -0.7733 O   0  0  0  0  0  0  0  0  0  0  0  0
  1 11  1  0  0  0  0
  3 13  1  1  0  0  0
  3 17  2  0  0  0  0
  3 20  1  0  0  0  0
  3 26  1  0  0  0  0
  4 14  1  6  0  0  0
  4 18  1  0  0  0  0
  4 21  2  0  0  0  0
  4 20  1  0  0  0  0
  5 19  1  0  0  0  0
  5  7  1  0  0  0  0
  6  7  2  0  0  0  0
  6 12  1  0  0  0  0
  7  8  1  0  0  0  0
  8  9  1  0  0  0  0
  8 10  2  0  0  0  0
 10 11  1  0  0  0  0
 11 12  2  0  0  0  0
 15 23  1  0  0  0  0
 15 16  1  0  0  0  0
 16 19  1  0  0  0  0
 19 22  1  0  0  0  0
 22  2  1  6  0  0  0
 22 23  1  0  0  0  0
 23 24  1  1  0  0  0
 24 25  1  0  0  0  0
 25 26  1  0  0  0  0
M  CHG  2  13  -1  18  -1
M  END
>  <CHROM.1>
166.11308417,-47.38908133,61.05147682,-63.28529243,-114.84428767,-174.37839658
175.54941303,-52.32966620,-19.51131313,-12.38941792,0.22076915,0.44321439
0.12895797,0.16924759

>  <Name>
ligand

>  <RI>
0

>  <Rbt.Current_Directory>
/home/itssahil/PROJECTS/Mol_Feturizer/New_Systems/rnas/2GDI

>  <Rbt.Executable>
rbdock ($Id: //depot/dev/client3/rdock/2013.1/src/exe/rbdock.cxx#4 $)

>  <Rbt.Library>
libRbt.so (2013.1, Build901 2013/11/27)

>  <Rbt.Parameter_File>
/export/apps/rDock/src/rDock_2013.1_src/data/scripts/dock_solv.prm

>  <Rbt.Receptor>
prm/pocket_docking_3.prm

>  <SCORE>
-16.7447

>  <SCORE.INTER>
-15.1597

>  <SCORE.INTER.CONST>
1

>  <SCORE.INTER.POLAR>
0

>  <SCORE.INTER.ROT>
8

>  <SCORE.INTER.SOLV>
15.3242

>  <SCORE.INTER.VDW>
-24.1478

>  <SCORE.INTER.norm>
-0.583064

>  <SCORE.INTRA>
-1.58505

>  <SCORE.INTRA.DIHEDRAL>
-3.12232

>  <SCORE.INTRA.DIHEDRAL.0>
8.13976

>  <SCORE.INTRA.POLAR>
0

>  <SCORE.INTRA.POLAR.0>
0

>  <SCORE.INTRA.REPUL>
0

>  <SCORE.INTRA.REPUL.0>
0

>  <SCORE.INTRA.SOLV>
0.297184

>  <SCORE.INTRA.SOLV.lig_0>
-82.9561

>  <SCORE.INTRA.VDW>
-0.172484

>  <SCORE.INTRA.VDW.0>
-3.29171

>  <SCORE.INTRA.norm>
-0.0609634

>  <SCORE.RESTR>
0

>  <SCORE.RESTR.CAVITY>
0

>  <SCORE.RESTR.norm>
0

>  <SCORE.SYSTEM>
0

>  <SCORE.SYSTEM.CONST>
0

>  <SCORE.SYSTEM.DIHEDRAL>
0

>  <SCORE.SYSTEM.SOLV>
0

>  <SCORE.SYSTEM.norm>
0

>  <SCORE.heavy>
26

>  <SCORE.norm>
-0.644028

>  <RMSD>
2.089

$$$$
ligand
 OpenBabel11021811433D
libRbt.so/2013.1/901 2013/11/27
 26 27  0  0  0  0  0  0  0  0999 V2000
  -12.5541   -8.1913   -0.3873 C   0  0  0  0  0  0  0  0  0  0  0  0
  -18.8139  -11.6408    1.5399 C   0  0  0  0  0  0  0  0  0  0  0  0
  -21.7330  -14.6608    1.9335 P   0  0  1  0  0  0  0  0  0  0  0  0
  -24.1253  -15.7348    0.6757 P   0  0  1  0  0  0  0  0  0  0  0  0
  -15.9866  -12.5086    1.2289 C   0  0  0  0  0  0  0  0  0  0  0  0
  -13.8647  -11.6206    0.1805 C   0  0  0  0  0  0  0  0  0  0  0  0
  -15.0758  -11.3664    0.8116 C   0  0  0  0  0  0  0  0  0  0  0  0
  -15.4428  -10.0504    1.0408 C   0  0  0  0  0  0  0  0  0  0  0  0
  -16.6140   -9.7531    1.6542 N   0  0  0  0  0  0  0  0  0  0  0  0
  -14.6234   -9.0508    0.6487 N   0  0  0  0  0  0  0  0  0  0  0  0
  -13.4495   -9.3233    0.0380 C   0  0  0  0  0  0  0  0  0  0  0  0
  -13.0739  -10.6050   -0.1933 N   0  0  0  0  0  0  0  0  0  0  0  0
  -21.4748  -13.6065    2.9777 O   0  5  0  0  0  0  0  0  0  0  0  0
  -23.4598  -15.6663   -0.6644 O   0  0  0  0  0  0  0  0  0  0  0  0
  -18.1078  -13.5801   -1.9554 S   0  0  0  0  0  0  0  0  0  0  0  0
  -16.6935  -13.4333   -0.9597 C   0  0  0  0  0  0  0  0  0  0  0  0
  -21.1631  -16.0282    2.1788 O   0  0  0  0  0  0  0  0  0  0  0  0
  -23.9082  -17.0878    1.2670 O   0  5  0  0  0  0  0  0  0  0  0  0
  -16.9880  -12.7768    0.1966 N   0  0  0  0  0  0  0  0  0  0  0  0
  -23.3290  -14.7195    1.6575 O   0  0  0  0  0  0  0  0  0  0  0  0
  -25.5659  -15.3034    0.7194 O   0  0  0  0  0  0  0  0  0  0  0  0
  -18.2819  -12.3788    0.3404 C   0  0  1  0  0  0  0  0  0  0  0  0
  -19.1208  -12.7740   -0.8235 C   0  0  1  0  0  0  0  0  0  0  0  0
  -20.5707  -12.5991   -1.1898 C   0  0  0  0  0  0  0  0  0  0  0  0
  -21.4195  -12.8473    0.0472 C   0  0  0  0  0  0  0  0  0  0  0  0
  -21.1116  -14.1441    0.5438 O   0  0  0  0  0  0  0  0  0  0  0  0
  1 11  1  0  0  0  0
  3 13  1  1  0  0  0
  3 17  2  0  0  0  0
  3 20  1  0  0  0  0
  3 26  1  0  0  0  0
  4 14  1  6  0  0  0
  4 18  1  0  0  0  0
  4 21  2  0  0  0  0
  4 20  1  0  0  0  0
  5 19  1  0  0  0  0
  5  7  1  0  0  0  0
  6  7  2  0  0  0  0
  6 12  1  0  0  0  0
  7  8  1  0  0  0  0
  8  9  1  0  0  0  0
  8 10  2  0  0  0  0
 10 11  1  0  0  0  0
 11 12  2  0  0  0  0
 15 23  1  0  0  0  0
 15 16  1  0  0  0  0
 16 19  1  0  0  0  0
 19 22  1  0  0  0  0
 22  2  1  1  0  0  0
 22 23  1  0  0  0  0
 23 24  1  6  0  0  0
 24 25  1  0  0  0  0
 25 26  1  0  0  0  0
M  CHG  2  13  -1  18  -1
M  END
>  <CHROM.1>
-176.81510748,75.91599390,-94.41391423,-51.99105694,139.58542917,-56.29963899
173.90848273,-50.82131328,-19.24383453,-13.09091924,0.51497041,0.12513956
0.51184232,1.16277404

>  <Name>
ligand

>  <RI>
0

>  <Rbt.Current_Directory>
/home/itssahil/PROJECTS/Mol_Feturizer/New_Systems/rnas/2GDI

>  <Rbt.Executable>
rbdock ($Id: //depot/dev/client3/rdock/2013.1/src/exe/rbdock.cxx#4 $)

>  <Rbt.Library>
libRbt.so (2013.1, Build901 2013/11/27)

>  <Rbt.Parameter_File>
/export/apps/rDock/src/rDock_2013.1_src/data/scripts/dock_solv.prm

>  <Rbt.Receptor>
prm/pocket_docking_2.prm

>  <SCORE>
-12.6268

>  <SCORE.INTER>
-12.3737

>  <SCORE.INTER.CONST>
1

>  <SCORE.INTER.POLAR>
0

>  <SCORE.INTER.ROT>
8

>  <SCORE.INTER.SOLV>
16.9503

>  <SCORE.INTER.VDW>
-22.8325

>  <SCORE.INTER.norm>
-0.47591

>  <SCORE.INTRA>
-0.268229

>  <SCORE.INTRA.DIHEDRAL>
-3.04284

>  <SCORE.INTRA.DIHEDRAL.0>
8.13976

>  <SCORE.INTRA.POLAR>
0

>  <SCORE.INTRA.POLAR.0>
0

>  <SCORE.INTRA.REPUL>
0

>  <SCORE.INTRA.REPUL.0>
0

>  <SCORE.INTRA.SOLV>
3.2159

>  <SCORE.INTRA.SOLV.lig_0>
-82.9561

>  <SCORE.INTRA.VDW>
-0.35476

>  <SCORE.INTRA.VDW.0>
-3.29171

>  <SCORE.INTRA.norm>
-0.0103165

>  <SCORE.RESTR>
0.0150819

>  <SCORE.RESTR.CAVITY>
0.0150819

>  <SCORE.RESTR.norm>
0.000580072

>  <SCORE.SYSTEM>
0

>  <SCORE.SYSTEM.CONST>
0

>  <SCORE.SYSTEM.DIHEDRAL>
0

>  <SCORE.SYSTEM.SOLV>
0

>  <SCORE.SYSTEM.norm>
0

>  <SCORE.heavy>
26

>  <SCORE.norm>
-0.485646

>  <RMSD>
2.103

$$$$
ligand
 OpenBabel11021811433D
libRbt.so/2013.1/901 2013/11/27
 26 27  0  0  0  0  0  0  0  0999 V2000
  -12.7278   -8.1494   -0.2309 C   0  0  0  0  0  0  0  0  0  0  0  0
  -17.4630  -12.6911   -1.1673 C   0  0  0  0  0  0  0  0  0  0  0  0
  -23.1554  -14.5505    0.2372 P   0  0  1  0  0  0  0  0  0  0  0  0
  -21.6696  -16.2818    2.0410 P   0  0  1  0  0  0  0  0  0  0  0  0
  -16.1380  -12.4464    1.4837 C   0  0  0  0  0  0  0  0  0  0  0  0
  -15.6186   -9.9881    1.2053 C   0  0  0  0  0  0  0  0  0  0  0  0
  -15.2399  -11.3118    1.0205 C   0  0  0  0  0  0  0  0  0  0  0  0
  -14.0211  -11.5768    0.4178 C   0  0  0  0  0  0  0  0  0  0  0  0
  -13.6094  -12.8519    0.2153 N   0  0  0  0  0  0  0  0  0  0  0  0
  -13.2329  -10.5520    0.0266 N   0  0  0  0  0  0  0  0  0  0  0  0
  -13.6238   -9.2727    0.2157 C   0  0  0  0  0  0  0  0  0  0  0  0
  -14.8136   -8.9950    0.8028 N   0  0  0  0  0  0  0  0  0  0  0  0
  -23.7667  -14.8525   -1.1058 O   0  5  0  0  0  0  0  0  0  0  0  0
  -20.3685  -17.0068    1.8831 O   0  0  0  0  0  0  0  0  0  0  0  0
  -19.9443  -11.3369    1.7458 S   0  0  0  0  0  0  0  0  0  0  0  0
  -18.3342  -11.6507    2.3135 C   0  0  0  0  0  0  0  0  0  0  0  0
  -24.0947  -14.3097    1.3838 O   0  0  0  0  0  0  0  0  0  0  0  0
  -21.4585  -15.0635    2.8766 O   0  5  0  0  0  0  0  0  0  0  0  0
  -17.5473  -12.1011    1.2972 N   0  0  0  0  0  0  0  0  0  0  0  0
  -22.0826  -15.7164    0.5786 O   0  0  0  0  0  0  0  0  0  0  0  0
  -22.8352  -17.1124    2.5047 O   0  0  0  0  0  0  0  0  0  0  0  0
  -18.1526  -12.2137    0.0830 C   0  0  1  0  0  0  0  0  0  0  0  0
  -19.5790  -11.7921    0.1283 C   0  0  1  0  0  0  0  0  0  0  0  0
  -20.6911  -11.7136   -0.8837 C   0  0  0  0  0  0  0  0  0  0  0  0
  -21.3473  -13.0809   -0.9941 C   0  0  0  0  0  0  0  0  0  0  0  0
  -22.2605  -13.2235    0.0870 O   0  0  0  0  0  0  0  0  0  0  0  0
  1 11  1  0  0  0  0
  3 13  1  6  0  0  0
  3 17  2  0  0  0  0
  3 20  1  0  0  0  0
  3 26  1  0  0  0  0
  4 14  1  6  0  0  0
  4 18  1  0  0  0  0
  4 21  2  0  0  0  0
  4 20  1  0  0  0  0
  5 19  1  0  0  0  0
  5  7  1  0  0  0  0
  6  7  2  0  0  0  0
  6 12  1  0  0  0  0
  7  8  1  0  0  0  0
  8  9  1  0  0  0  0
  8 10  2  0  0  0  0
 10 11  1  0  0  0  0
 11 12  2  0  0  0  0
 15 23  1  0  0  0  0
 15 16  1  0  0  0  0
 16 19  1  0  0  0  0
 19 22  1  0  0  0  0
 22  2  1  6  0  0  0
 22 23  1  0  0  0  0
 23 24  1  1  0  0  0
 24 25  1  0  0  0  0
 25 26  1  0  0  0  0
M  CHG  2  13  -1  18  -1
M  END
>  <CHROM.1>
-149.26788699,-99.57189790,35.94748690,-162.18420854,-94.54573217,80.92693406
178.21605177,-47.29169639,-19.15776401,-12.97881823,0.78607239,0.51695293
-0.19259760,-0.45131406

>  <Name>
ligand

>  <RI>
0

>  <Rbt.Current_Directory>
/home/itssahil/PROJECTS/Mol_Feturizer/New_Systems/rnas/2GDI

>  <Rbt.Executable>
rbdock ($Id: //depot/dev/client3/rdock/2013.1/src/exe/rbdock.cxx#4 $)

>  <Rbt.Library>
libRbt.so (2013.1, Build901 2013/11/27)

>  <Rbt.Parameter_File>
/export/apps/rDock/src/rDock_2013.1_src/data/scripts/dock_solv.prm

>  <Rbt.Receptor>
prm/pocket_docking_2.prm

>  <SCORE>
-15.3557

>  <SCORE.INTER>
-15.5484

>  <SCORE.INTER.CONST>
1

>  <SCORE.INTER.POLAR>
0

>  <SCORE.INTER.ROT>
8

>  <SCORE.INTER.SOLV>
14.5491

>  <SCORE.INTER.VDW>
-24.1487

>  <SCORE.INTER.norm>
-0.598017

>  <SCORE.INTRA>
0.158991

>  <SCORE.INTRA.DIHEDRAL>
0.117641

>  <SCORE.INTRA.DIHEDRAL.0>
8.13976

>  <SCORE.INTRA.POLAR>
0

>  <SCORE.INTRA.POLAR.0>
0

>  <SCORE.INTRA.REPUL>
0

>  <SCORE.INTRA.REPUL.0>
0

>  <SCORE.INTRA.SOLV>
2.11466

>  <SCORE.INTRA.SOLV.lig_0>
-82.9561

>  <SCORE.INTRA.VDW>
-0.957161

>  <SCORE.INTRA.VDW.0>
-3.29171

>  <SCORE.INTRA.norm>
0.00611504

>  <SCORE.RESTR>
0.0337043

>  <SCORE.RESTR.CAVITY>
0.0337043

>  <SCORE.RESTR.norm>
0.00129632

>  <SCORE.SYSTEM>
0

>  <SCORE.SYSTEM.CONST>
0

>  <SCORE.SYSTEM.DIHEDRAL>
0

>  <SCORE.SYSTEM.SOLV>
0

>  <SCORE.SYSTEM.norm>
0

>  <SCORE.heavy>
26

>  <SCORE.norm>
-0.590605

>  <RMSD>
2.109

$$$$
ligand
 OpenBabel11021811433D
libRbt.so/2013.1/901 2013/11/27
 26 27  0  0  0  0  0  0  0  0999 V2000
  -12.7450   -7.4198   -0.5925 C   0  0  0  0  0  0  0  0  0  0  0  0
  -17.2407  -12.3805   -1.2834 C   0  0  0  0  0  0  0  0  0  0  0  0
  -23.3891  -14.2121    0.5283 P   0  0  1  0  0  0  0  0  0  0  0  0
  -23.4592  -17.0739    1.0419 P   0  0  1  0  0  0  0  0  0  0  0  0
  -15.2938  -12.3305    0.9638 C   0  0  0  0  0  0  0  0  0  0  0  0
  -13.4102  -11.0449   -0.1269 C   0  0  0  0  0  0  0  0  0  0  0  0
  -14.6163  -11.0312    0.5622 C   0  0  0  0  0  0  0  0  0  0  0  0
  -15.1959   -9.8098    0.8641 C   0  0  0  0  0  0  0  0  0  0  0  0
  -16.3712   -9.7461    1.5358 N   0  0  0  0  0  0  0  0  0  0  0  0
  -14.5824   -8.6677    0.4849 N   0  0  0  0  0  0  0  0  0  0  0  0
  -13.4088   -8.7067   -0.1831 C   0  0  0  0  0  0  0  0  0  0  0  0
  -12.8268   -9.8928   -0.4859 N   0  0  0  0  0  0  0  0  0  0  0  0
  -24.4904  -14.2823   -0.4968 O   0  5  0  0  0  0  0  0  0  0  0  0
  -24.2150  -17.5252   -0.1700 O   0  0  0  0  0  0  0  0  0  0  0  0
  -18.9724  -11.6910    2.3225 S   0  0  0  0  0  0  0  0  0  0  0  0
  -17.2513  -11.8946    2.4207 C   0  0  0  0  0  0  0  0  0  0  0  0
  -23.7354  -13.6440    1.8744 O   0  0  0  0  0  0  0  0  0  0  0  0
  -22.3492  -18.0325    1.3177 O   0  5  0  0  0  0  0  0  0  0  0  0
  -16.7247  -12.1221    1.1856 N   0  0  0  0  0  0  0  0  0  0  0  0
  -22.7209  -15.6833    0.6547 O   0  0  0  0  0  0  0  0  0  0  0  0
  -24.2873  -16.7738    2.2615 O   0  0  0  0  0  0  0  0  0  0  0  0
  -17.6149  -12.1454    0.1558 C   0  0  1  0  0  0  0  0  0  0  0  0
  -19.0076  -11.8932    0.6151 C   0  0  1  0  0  0  0  0  0  0  0  0
  -20.3473  -11.8098   -0.0670 C   0  0  0  0  0  0  0  0  0  0  0  0
  -21.3762  -12.5312    0.7893 C   0  0  0  0  0  0  0  0  0  0  0  0
  -22.2124  -13.2953   -0.0710 O   0  0  0  0  0  0  0  0  0  0  0  0
  1 11  1  0  0  0  0
  3 13  1  6  0  0  0
  3 17  2  0  0  0  0
  3 20  1  0  0  0  0
  3 26  1  0  0  0  0
  4 14  1  6  0  0  0
  4 18  1  0  0  0  0
  4 21  2  0  0  0  0
  4 20  1  0  0  0  0
  5 19  1  0  0  0  0
  5  7  1  0  0  0  0
  6  7  2  0  0  0  0
  6 12  1  0  0  0  0
  7  8  1  0  0  0  0
  8  9  1  0  0  0  0
  8 10  2  0  0  0  0
 10 11  1  0  0  0  0
 11 12  2  0  0  0  0
 15 23  1  0  0  0  0
 15 16  1  0  0  0  0
 16 19  1  0  0  0  0
 19 22  1  0  0  0  0
 22  2  1  6  0  0  0
 22 23  1  0  0  0  0
 23 24  1  1  0  0  0
 24 25  1  0  0  0  0
 25 26  1  0  0  0  0
M  CHG  2  13  -1  18  -1
M  END
>  <CHROM.1>
-57.86203884,-95.69240562,-157.86615001,76.45944481,-40.65885671,-137.86095305
178.43886821,150.12707239,-19.38701597,-12.88461550,0.70366195,0.58794725
0.05337865,-0.00769263

>  <Name>
ligand

>  <RI>
0

>  <Rbt.Current_Directory>
/home/itssahil/PROJECTS/Mol_Feturizer/New_Systems/rnas/2GDI

>  <Rbt.Executable>
rbdock ($Id: //depot/dev/client3/rdock/2013.1/src/exe/rbdock.cxx#4 $)

>  <Rbt.Library>
libRbt.so (2013.1, Build901 2013/11/27)

>  <Rbt.Parameter_File>
/export/apps/rDock/src/rDock_2013.1_src/data/scripts/dock_solv.prm

>  <Rbt.Receptor>
prm/pocket_docking_2.prm

>  <SCORE>
-7.60723

>  <SCORE.INTER>
-15.6488

>  <SCORE.INTER.CONST>
1

>  <SCORE.INTER.POLAR>
0

>  <SCORE.INTER.ROT>
8

>  <SCORE.INTER.SOLV>
10.9765

>  <SCORE.INTER.VDW>
-23.0247

>  <SCORE.INTER.norm>
-0.601877

>  <SCORE.INTRA>
7.74467

>  <SCORE.INTRA.DIHEDRAL>
3.23974

>  <SCORE.INTRA.DIHEDRAL.0>
8.13976

>  <SCORE.INTRA.POLAR>
0

>  <SCORE.INTRA.POLAR.0>
0

>  <SCORE.INTRA.REPUL>
0

>  <SCORE.INTRA.REPUL.0>
0

>  <SCORE.INTRA.SOLV>
5.04185

>  <SCORE.INTRA.SOLV.lig_0>
-82.9561

>  <SCORE.INTRA.VDW>
3.60388

>  <SCORE.INTRA.VDW.0>
-3.29171

>  <SCORE.INTRA.norm>
0.297872

>  <SCORE.RESTR>
0.296903

>  <SCORE.RESTR.CAVITY>
0.296903

>  <SCORE.RESTR.norm>
0.0114194

>  <SCORE.SYSTEM>
0

>  <SCORE.SYSTEM.CONST>
0

>  <SCORE.SYSTEM.DIHEDRAL>
0

>  <SCORE.SYSTEM.SOLV>
0

>  <SCORE.SYSTEM.norm>
0

>  <SCORE.heavy>
26

>  <SCORE.norm>
-0.292586

>  <RMSD>
2.119

$$$$
ligand
 OpenBabel11021811433D
libRbt.so/2013.1/901 2013/11/27
 26 27  0  0  0  0  0  0  0  0999 V2000
  -12.5314   -7.8205   -0.5209 C   0  0  0  0  0  0  0  0  0  0  0  0
  -17.3326  -12.7752   -1.1052 C   0  0  0  0  0  0  0  0  0  0  0  0
  -23.8479  -13.8303   -0.5199 P   0  0  1  0  0  0  0  0  0  0  0  0
  -22.6516  -16.3421   -1.3677 P   0  0  1  0  0  0  0  0  0  0  0  0
  -15.7146  -12.2334    1.3303 C   0  0  0  0  0  0  0  0  0  0  0  0
  -15.2871   -9.7583    1.0447 C   0  0  0  0  0  0  0  0  0  0  0  0
  -14.8769  -11.0683    0.8312 C   0  0  0  0  0  0  0  0  0  0  0  0
  -13.6823  -11.2909    0.1661 C   0  0  0  0  0  0  0  0  0  0  0  0
  -13.2417  -12.5511   -0.0665 N   0  0  0  0  0  0  0  0  0  0  0  0
  -12.9473  -10.2393   -0.2565 N   0  0  0  0  0  0  0  0  0  0  0  0
  -13.3681   -8.9743   -0.0383 C   0  0  0  0  0  0  0  0  0  0  0  0
  -14.5349   -8.7378    0.6098 N   0  0  0  0  0  0  0  0  0  0  0  0
  -25.1132  -13.1033   -0.8922 O   0  5  0  0  0  0  0  0  0  0  0  0
  -21.2708  -15.7662   -1.2947 O   0  0  0  0  0  0  0  0  0  0  0  0
  -19.4787  -11.0981    1.9045 S   0  0  0  0  0  0  0  0  0  0  0  0
  -17.8103  -11.3471    2.3137 C   0  0  0  0  0  0  0  0  0  0  0  0
  -23.6798  -14.2297    0.9179 O   0  0  0  0  0  0  0  0  0  0  0  0
  -22.9953  -16.9698   -0.0581 O   0  5  0  0  0  0  0  0  0  0  0  0
  -17.1401  -11.9102    1.2704 N   0  0  0  0  0  0  0  0  0  0  0  0
  -23.6811  -15.0983   -1.5155 O   0  0  0  0  0  0  0  0  0  0  0  0
  -22.9280  -17.2458   -2.5382 O   0  0  0  0  0  0  0  0  0  0  0  0
  -17.8796  -12.1589    0.1547 C   0  0  1  0  0  0  0  0  0  0  0  0
  -19.2964  -11.7335    0.3170 C   0  0  1  0  0  0  0  0  0  0  0  0
  -20.5184  -11.7691   -0.5619 C   0  0  0  0  0  0  0  0  0  0  0  0
  -21.4114  -12.9135   -0.1093 C   0  0  0  0  0  0  0  0  0  0  0  0
  -22.6044  -12.8783   -0.8830 O   0  0  0  0  0  0  0  0  0  0  0  0
  1 11  1  0  0  0  0
  3 13  1  6  0  0  0
  3 17  2  0  0  0  0
  3 20  1  0  0  0  0
  3 26  1  0  0  0  0
  4 14  1  6  0  0  0
  4 18  1  0  0  0  0
  4 21  2  0  0  0  0
  4 20  1  0  0  0  0
  5 19  1  0  0  0  0
  5  7  1  0  0  0  0
  6  7  2  0  0  0  0
  6 12  1  0  0  0  0
  7  8  1  0  0  0  0
  8  9  1  0  0  0  0
  8 10  2  0  0  0  0
 10 11  1  0  0  0  0
 11 12  2  0  0  0  0
 15 23  1  0  0  0  0
 15 16  1  0  0  0  0
 16 19  1  0  0  0  0
 19 22  1  0  0  0  0
 22  2  1  6  0  0  0
 22 23  1  0  0  0  0
 23 24  1  1  0  0  0
 24 25  1  0  0  0  0
 25 26  1  0  0  0  0
M  CHG  2  13  -1  18  -1
M  END
>  <CHROM.1>
-167.76061594,-91.07099413,33.54729864,-56.72818805,-75.74366933,175.91489517
-171.56312945,148.02295269,-19.31041290,-12.73779744,-0.08009207,0.50412518
0.10241795,0.44046194

>  <Name>
ligand

>  <RI>
0

>  <Rbt.Current_Directory>
/home/itssahil/PROJECTS/Mol_Feturizer/New_Systems/rnas/2GDI

>  <Rbt.Executable>
rbdock ($Id: //depot/dev/client3/rdock/2013.1/src/exe/rbdock.cxx#4 $)

>  <Rbt.Library>
libRbt.so (2013.1, Build901 2013/11/27)

>  <Rbt.Parameter_File>
/export/apps/rDock/src/rDock_2013.1_src/data/scripts/dock_solv.prm

>  <Rbt.Receptor>
prm/pocket_docking_3.prm

>  <SCORE>
-16.3583

>  <SCORE.INTER>
-16.1859

>  <SCORE.INTER.CONST>
1

>  <SCORE.INTER.POLAR>
0

>  <SCORE.INTER.ROT>
8

>  <SCORE.INTER.SOLV>
15.4798

>  <SCORE.INTER.VDW>
-24.8839

>  <SCORE.INTER.norm>
-0.622535

>  <SCORE.INTRA>
-0.185614

>  <SCORE.INTRA.DIHEDRAL>
-0.690709

>  <SCORE.INTRA.DIHEDRAL.0>
8.13976

>  <SCORE.INTRA.POLAR>
0

>  <SCORE.INTRA.POLAR.0>
0

>  <SCORE.INTRA.REPUL>
0

>  <SCORE.INTRA.REPUL.0>
0

>  <SCORE.INTRA.SOLV>
0.558538

>  <SCORE.INTRA.SOLV.lig_0>
-82.9561

>  <SCORE.INTRA.VDW>
-0.119528

>  <SCORE.INTRA.VDW.0>
-3.29171

>  <SCORE.INTRA.norm>
-0.007139

>  <SCORE.RESTR>
0.013235

>  <SCORE.RESTR.CAVITY>
0.013235

>  <SCORE.RESTR.norm>
0.000509039

>  <SCORE.SYSTEM>
0

>  <SCORE.SYSTEM.CONST>
0

>  <SCORE.SYSTEM.DIHEDRAL>
0

>  <SCORE.SYSTEM.SOLV>
0

>  <SCORE.SYSTEM.norm>
0

>  <SCORE.heavy>
26

>  <SCORE.norm>
-0.629165

>  <RMSD>
2.120

$$$$
ligand
 OpenBabel11021811433D
libRbt.so/2013.1/901 2013/11/27
 26 27  0  0  0  0  0  0  0  0999 V2000
  -12.4203   -7.7820   -0.6116 C   0  0  0  0  0  0  0  0  0  0  0  0
  -18.4484  -10.6190    1.4333 C   0  0  0  0  0  0  0  0  0  0  0  0
  -22.1028  -13.8965    1.7597 P   0  0  1  0  0  0  0  0  0  0  0  0
  -22.1072  -16.8035    1.6681 P   0  0  1  0  0  0  0  0  0  0  0  0
  -15.8349  -12.0229    1.2292 C   0  0  0  0  0  0  0  0  0  0  0  0
  -15.2654   -9.5739    0.9677 C   0  0  0  0  0  0  0  0  0  0  0  0
  -14.9362  -10.9029    0.7328 C   0  0  0  0  0  0  0  0  0  0  0  0
  -13.7655  -11.1871    0.0490 C   0  0  0  0  0  0  0  0  0  0  0  0
  -13.4032  -12.4680   -0.2047 N   0  0  0  0  0  0  0  0  0  0  0  0
  -12.9751  -10.1754   -0.3707 N   0  0  0  0  0  0  0  0  0  0  0  0
  -13.3175   -8.8906   -0.1317 C   0  0  0  0  0  0  0  0  0  0  0  0
  -14.4598   -8.5940    0.5350 N   0  0  0  0  0  0  0  0  0  0  0  0
  -23.5674  -13.6634    1.4968 O   0  5  0  0  0  0  0  0  0  0  0  0
  -21.5212  -16.9480    3.0390 O   0  0  0  0  0  0  0  0  0  0  0  0
  -18.2658  -13.2221   -1.6759 S   0  0  0  0  0  0  0  0  0  0  0  0
  -16.8000  -13.1650   -0.7479 C   0  0  0  0  0  0  0  0  0  0  0  0
  -21.6274  -13.7638    3.1779 O   0  0  0  0  0  0  0  0  0  0  0  0
  -23.5960  -16.7733    1.7675 O   0  5  0  0  0  0  0  0  0  0  0  0
  -16.9176  -12.2784    0.2791 N   0  0  0  0  0  0  0  0  0  0  0  0
  -21.6970  -15.3317    1.1255 O   0  0  0  0  0  0  0  0  0  0  0  0
  -21.6112  -17.7761    0.6331 O   0  0  0  0  0  0  0  0  0  0  0  0
  -18.1136  -11.6348    0.3738 C   0  0  1  0  0  0  0  0  0  0  0  0
  -19.0652  -12.0651   -0.6862 C   0  0  1  0  0  0  0  0  0  0  0  0
  -20.4787  -11.6967   -1.0512 C   0  0  0  0  0  0  0  0  0  0  0  0
  -21.4149  -12.7718   -0.5222 C   0  0  0  0  0  0  0  0  0  0  0  0
  -21.2681  -12.8319    0.8913 O   0  0  0  0  0  0  0  0  0  0  0  0
  1 11  1  0  0  0  0
  3 13  1  6  0  0  0
  3 17  2  0  0  0  0
  3 20  1  0  0  0  0
  3 26  1  0  0  0  0
  4 14  1  1  0  0  0
  4 18  1  0  0  0  0
  4 21  2  0  0  0  0
  4 20  1  0  0  0  0
  5 19  1  0  0  0  0
  5  7  1  0  0  0  0
  6  7  2  0  0  0  0
  6 12  1  0  0  0  0
  7  8  1  0  0  0  0
  8  9  1  0  0  0  0
  8 10  2  0  0  0  0
 10 11  1  0  0  0  0
 11 12  2  0  0  0  0
 15 23  1  0  0  0  0
 15 16  1  0  0  0  0
 16 19  1  0  0  0  0
 19 22  1  0  0  0  0
 22  2  1  1  0  0  0
 22 23  1  0  0  0  0
 23 24  1  6  0  0  0
 24 25  1  0  0  0  0
 25 26  1  0  0  0  0
M  CHG  2  13  -1  18  -1
M  END
>  <CHROM.1>
-71.62474150,89.36528588,84.34955776,-62.10213430,80.59389519,60.13177063
-178.71924835,-57.61518099,-18.77382518,-12.94911412,0.63143468,0.59776322
0.18163843,-0.02479348

>  <Name>
ligand

>  <RI>
0

>  <Rbt.Current_Directory>
/home/itssahil/PROJECTS/Mol_Feturizer/New_Systems/rnas/2GDI

>  <Rbt.Executable>
rbdock ($Id: //depot/dev/client3/rdock/2013.1/src/exe/rbdock.cxx#4 $)

>  <Rbt.Library>
libRbt.so (2013.1, Build901 2013/11/27)

>  <Rbt.Parameter_File>
/export/apps/rDock/src/rDock_2013.1_src/data/scripts/dock_solv.prm

>  <Rbt.Receptor>
prm/pocket_docking_2.prm

>  <SCORE>
-16.2669

>  <SCORE.INTER>
-14.5208

>  <SCORE.INTER.CONST>
1

>  <SCORE.INTER.POLAR>
0

>  <SCORE.INTER.ROT>
8

>  <SCORE.INTER.SOLV>
16.9408

>  <SCORE.INTER.VDW>
-24.2608

>  <SCORE.INTER.norm>
-0.558493

>  <SCORE.INTRA>
-1.75282

>  <SCORE.INTRA.DIHEDRAL>
-2.87892

>  <SCORE.INTRA.DIHEDRAL.0>
8.13976

>  <SCORE.INTRA.POLAR>
0

>  <SCORE.INTRA.POLAR.0>
0

>  <SCORE.INTRA.REPUL>
0

>  <SCORE.INTRA.REPUL.0>
0

>  <SCORE.INTRA.SOLV>
0.939553

>  <SCORE.INTRA.SOLV.lig_0>
-82.9561

>  <SCORE.INTRA.VDW>
-0.783134

>  <SCORE.INTRA.VDW.0>
-3.29171

>  <SCORE.INTRA.norm>
-0.067416

>  <SCORE.RESTR>
0.00671232

>  <SCORE.RESTR.CAVITY>
0.00671232

>  <SCORE.RESTR.norm>
0.000258166

>  <SCORE.SYSTEM>
0

>  <SCORE.SYSTEM.CONST>
0

>  <SCORE.SYSTEM.DIHEDRAL>
0

>  <SCORE.SYSTEM.SOLV>
0

>  <SCORE.SYSTEM.norm>
0

>  <SCORE.heavy>
26

>  <SCORE.norm>
-0.625651

>  <RMSD>
2.122

$$$$
ligand
 OpenBabel11021811433D
libRbt.so/2013.1/901 2013/11/27
 26 27  0  0  0  0  0  0  0  0999 V2000
  -12.6323   -7.6591   -0.2915 C   0  0  0  0  0  0  0  0  0  0  0  0
  -17.6979  -12.8840   -1.4338 C   0  0  0  0  0  0  0  0  0  0  0  0
  -23.8410  -14.3074    0.2996 P   0  0  1  0  0  0  0  0  0  0  0  0
  -23.7160  -17.2108    0.4155 P   0  0  1  0  0  0  0  0  0  0  0  0
  -15.5717  -12.5146    0.6122 C   0  0  0  0  0  0  0  0  0  0  0  0
  -13.4072  -11.2301    0.3776 C   0  0  0  0  0  0  0  0  0  0  0  0
  -14.7963  -11.2282    0.3833 C   0  0  0  0  0  0  0  0  0  0  0  0
  -15.4606  -10.0328    0.1628 C   0  0  0  0  0  0  0  0  0  0  0  0
  -16.8148   -9.9813    0.1604 N   0  0  0  0  0  0  0  0  0  0  0  0
  -14.7504   -8.9041   -0.0521 N   0  0  0  0  0  0  0  0  0  0  0  0
  -13.3997   -8.9309   -0.0513 C   0  0  0  0  0  0  0  0  0  0  0  0
  -12.7332  -10.0914    0.1638 N   0  0  0  0  0  0  0  0  0  0  0  0
  -24.8978  -14.3768   -0.7713 O   0  5  0  0  0  0  0  0  0  0  0  0
  -24.8699  -17.1346    1.3675 O   0  0  0  0  0  0  0  0  0  0  0  0
  -19.1145  -11.5429    2.1259 S   0  0  0  0  0  0  0  0  0  0  0  0
  -17.3949  -11.7794    2.1222 C   0  0  0  0  0  0  0  0  0  0  0  0
  -24.2768  -13.8798    1.6715 O   0  0  0  0  0  0  0  0  0  0  0  0
  -24.2274  -17.4781   -0.9608 O   0  5  0  0  0  0  0  0  0  0  0  0
  -16.9758  -12.2282    0.9066 N   0  0  0  0  0  0  0  0  0  0  0  0
  -23.0631  -15.7289    0.3358 O   0  0  0  0  0  0  0  0  0  0  0  0
  -22.5950  -18.1330    0.8106 O   0  0  0  0  0  0  0  0  0  0  0  0
  -17.9481  -12.3979   -0.0310 C   0  0  1  0  0  0  0  0  0  0  0  0
  -19.2938  -12.0293    0.4863 C   0  0  1  0  0  0  0  0  0  0  0  0
  -20.6836  -12.0216   -0.0929 C   0  0  0  0  0  0  0  0  0  0  0  0
  -21.4447  -13.2211    0.4496 C   0  0  0  0  0  0  0  0  0  0  0  0
  -22.7209  -13.2575   -0.1773 O   0  0  0  0  0  0  0  0  0  0  0  0
  1 11  1  0  0  0  0
  3 13  1  6  0  0  0
  3 17  2  0  0  0  0
  3 20  1  0  0  0  0
  3 26  1  0  0  0  0
  4 14  1  1  0  0  0
  4 18  1  0  0  0  0
  4 21  2  0  0  0  0
  4 20  1  0  0  0  0
  5 19  1  0  0  0  0
  5  7  1  0  0  0  0
  6  7  2  0  0  0  0
  6 12  1  0  0  0  0
  7  8  1  0  0  0  0
  8  9  1  0  0  0  0
  8 10  2  0  0  0  0
 10 11  1  0  0  0  0
 11 12  2  0  0  0  0
 15 23  1  0  0  0  0
 15 16  1  0  0  0  0
 16 19  1  0  0  0  0
 19 22  1  0  0  0  0
 22  2  1  6  0  0  0
 22 23  1  0  0  0  0
 23 24  1  1  0  0  0
 24 25  1  0  0  0  0
 25 26  1  0  0  0  0
M  CHG  2  13  -1  18  -1
M  END
>  <CHROM.1>
-50.40891001,-76.88195797,165.89485287,-40.05226720,-75.32915984,-175.86976452
-172.84946365,-164.16661762,-19.64677204,-13.04003071,0.41198362,0.56504716
0.06060529,0.07854803

>  <Name>
ligand

>  <RI>
0

>  <Rbt.Current_Directory>
/home/itssahil/PROJECTS/Mol_Feturizer/New_Systems/rnas/2GDI

>  <Rbt.Executable>
rbdock ($Id: //depot/dev/client3/rdock/2013.1/src/exe/rbdock.cxx#4 $)

>  <Rbt.Library>
libRbt.so (2013.1, Build901 2013/11/27)

>  <Rbt.Parameter_File>
/export/apps/rDock/src/rDock_2013.1_src/data/scripts/dock_solv.prm

>  <Rbt.Receptor>
prm/pocket_docking_3.prm

>  <SCORE>
-12.9069

>  <SCORE.INTER>
-16.6092

>  <SCORE.INTER.CONST>
1

>  <SCORE.INTER.POLAR>
0

>  <SCORE.INTER.ROT>
8

>  <SCORE.INTER.SOLV>
12.0793

>  <SCORE.INTER.VDW>
-24.0325

>  <SCORE.INTER.norm>
-0.638814

>  <SCORE.INTRA>
3.70226

>  <SCORE.INTRA.DIHEDRAL>
-1.77432

>  <SCORE.INTRA.DIHEDRAL.0>
8.13976

>  <SCORE.INTRA.POLAR>
0

>  <SCORE.INTRA.POLAR.0>
0

>  <SCORE.INTRA.REPUL>
0

>  <SCORE.INTRA.REPUL.0>
0

>  <SCORE.INTRA.SOLV>
5.53656

>  <SCORE.INTRA.SOLV.lig_0>
-82.9561

>  <SCORE.INTRA.VDW>
1.82114

>  <SCORE.INTRA.VDW.0>
-3.29171

>  <SCORE.INTRA.norm>
0.142395

>  <SCORE.RESTR>
0

>  <SCORE.RESTR.CAVITY>
0

>  <SCORE.RESTR.norm>
0

>  <SCORE.SYSTEM>
0

>  <SCORE.SYSTEM.CONST>
0

>  <SCORE.SYSTEM.DIHEDRAL>
0

>  <SCORE.SYSTEM.SOLV>
0

>  <SCORE.SYSTEM.norm>
0

>  <SCORE.heavy>
26

>  <SCORE.norm>
-0.496419

>  <RMSD>
2.132

$$$$
ligand
 OpenBabel11021811433D
libRbt.so/2013.1/901 2013/11/27
 26 27  0  0  0  0  0  0  0  0999 V2000
  -12.6422   -7.6271   -0.4996 C   0  0  0  0  0  0  0  0  0  0  0  0
  -17.3382  -12.9914   -1.0935 C   0  0  0  0  0  0  0  0  0  0  0  0
  -23.1304  -13.8110   -0.5566 P   0  0  1  0  0  0  0  0  0  0  0  0
  -23.1817  -14.5804    2.2477 P   0  0  1  0  0  0  0  0  0  0  0  0
  -15.6572  -12.2043    1.2299 C   0  0  0  0  0  0  0  0  0  0  0  0
  -15.3097   -9.7081    1.0346 C   0  0  0  0  0  0  0  0  0  0  0  0
  -14.8641  -10.9955    0.7629 C   0  0  0  0  0  0  0  0  0  0  0  0
  -13.6755  -11.1553    0.0697 C   0  0  0  0  0  0  0  0  0  0  0  0
  -13.2013  -12.3914   -0.2196 N   0  0  0  0  0  0  0  0  0  0  0  0
  -12.9802  -10.0660   -0.3234 N   0  0  0  0  0  0  0  0  0  0  0  0
  -13.4350   -8.8239   -0.0488 C   0  0  0  0  0  0  0  0  0  0  0  0
  -14.5965   -8.6488    0.6275 N   0  0  0  0  0  0  0  0  0  0  0  0
  -23.9870  -14.9642   -1.0092 O   0  5  0  0  0  0  0  0  0  0  0  0
  -24.2133  -13.5217    2.4893 O   0  0  0  0  0  0  0  0  0  0  0  0
  -19.4333  -11.1312    1.8437 S   0  0  0  0  0  0  0  0  0  0  0  0
  -17.7453  -11.2986    2.2119 C   0  0  0  0  0  0  0  0  0  0  0  0
  -23.7769  -12.4574   -0.4874 O   0  0  0  0  0  0  0  0  0  0  0  0
  -23.8617  -15.8837    1.9903 O   0  5  0  0  0  0  0  0  0  0  0  0
  -17.0933  -11.9272    1.1949 N   0  0  0  0  0  0  0  0  0  0  0  0
  -22.4400  -14.2160    0.8527 O   0  0  0  0  0  0  0  0  0  0  0  0
  -22.0906  -14.6853    3.2781 O   0  0  0  0  0  0  0  0  0  0  0  0
  -17.8616  -12.2882    0.1305 C   0  0  1  0  0  0  0  0  0  0  0  0
  -19.2846  -11.8908    0.3081 C   0  0  1  0  0  0  0  0  0  0  0  0
  -20.5336  -12.0333   -0.5206 C   0  0  0  0  0  0  0  0  0  0  0  0
  -20.5780  -13.4395   -1.0977 C   0  0  0  0  0  0  0  0  0  0  0  0
  -21.8951  -13.6810   -1.5772 O   0  0  0  0  0  0  0  0  0  0  0  0
  1 11  1  0  0  0  0
  3 13  1  6  0  0  0
  3 17  2  0  0  0  0
  3 20  1  0  0  0  0
  3 26  1  0  0  0  0
  4 14  1  1  0  0  0
  4 18  1  0  0  0  0
  4 21  2  0  0  0  0
  4 20  1  0  0  0  0
  5 19  1  0  0  0  0
  5  7  1  0  0  0  0
  6  7  2  0  0  0  0
  6 12  1  0  0  0  0
  7  8  1  0  0  0  0
  8  9  1  0  0  0  0
  8 10  2  0  0  0  0
 10 11  1  0  0  0  0
 11 12  2  0  0  0  0
 15 23  1  0  0  0  0
 15 16  1  0  0  0  0
 16 19  1  0  0  0  0
 19 22  1  0  0  0  0
 22  2  1  6  0  0  0
 22 23  1  0  0  0  0
 23 24  1  1  0  0  0
 24 25  1  0  0  0  0
 25 26  1  0  0  0  0
M  CHG  2  13  -1  18  -1
M  END
>  <CHROM.1>
-61.09827882,-84.23855758,34.07109483,-47.73761573,-135.25906570,165.11937634
-68.19653188,-137.25883649,-19.26709127,-12.39130854,0.57922308,0.06421044
-0.42900924,-1.56800162

>  <Name>
ligand

>  <RI>
0

>  <Rbt.Current_Directory>
/home/itssahil/PROJECTS/Mol_Feturizer/New_Systems/rnas/2GDI

>  <Rbt.Executable>
rbdock ($Id: //depot/dev/client3/rdock/2013.1/src/exe/rbdock.cxx#4 $)

>  <Rbt.Library>
libRbt.so (2013.1, Build901 2013/11/27)

>  <Rbt.Parameter_File>
/export/apps/rDock/src/rDock_2013.1_src/data/scripts/dock_solv.prm

>  <Rbt.Receptor>
prm/pocket_docking_3.prm

>  <SCORE>
-14.2469

>  <SCORE.INTER>
-15.1969

>  <SCORE.INTER.CONST>
1

>  <SCORE.INTER.POLAR>
0

>  <SCORE.INTER.ROT>
8

>  <SCORE.INTER.SOLV>
18.0893

>  <SCORE.INTER.VDW>
-25.0944

>  <SCORE.INTER.norm>
-0.584496

>  <SCORE.INTRA>
0.949953

>  <SCORE.INTRA.DIHEDRAL>
-0.405467

>  <SCORE.INTRA.DIHEDRAL.0>
8.13976

>  <SCORE.INTRA.POLAR>
0

>  <SCORE.INTRA.POLAR.0>
0

>  <SCORE.INTRA.REPUL>
0

>  <SCORE.INTRA.REPUL.0>
0

>  <SCORE.INTRA.SOLV>
1.47603

>  <SCORE.INTRA.SOLV.lig_0>
-82.9561

>  <SCORE.INTRA.VDW>
0.414672

>  <SCORE.INTRA.VDW.0>
-3.29171

>  <SCORE.INTRA.norm>
0.0365367

>  <SCORE.RESTR>
0

>  <SCORE.RESTR.CAVITY>
0

>  <SCORE.RESTR.norm>
0

>  <SCORE.SYSTEM>
0

>  <SCORE.SYSTEM.CONST>
0

>  <SCORE.SYSTEM.DIHEDRAL>
0

>  <SCORE.SYSTEM.SOLV>
0

>  <SCORE.SYSTEM.norm>
0

>  <SCORE.heavy>
26

>  <SCORE.norm>
-0.54796

>  <RMSD>
2.168

$$$$
ligand
 OpenBabel11021811433D
libRbt.so/2013.1/901 2013/11/27
 26 27  0  0  0  0  0  0  0  0999 V2000
  -12.1549   -6.4790   -0.9047 C   0  0  0  0  0  0  0  0  0  0  0  0
  -17.1804  -12.0561    2.8138 C   0  0  0  0  0  0  0  0  0  0  0  0
  -22.4747  -14.6350    1.7320 P   0  0  1  0  0  0  0  0  0  0  0  0
  -25.0477  -15.6329    2.6501 P   0  0  1  0  0  0  0  0  0  0  0  0
  -15.1008  -11.0573    0.9375 C   0  0  0  0  0  0  0  0  0  0  0  0
  -14.7299   -8.5619    0.7779 C   0  0  0  0  0  0  0  0  0  0  0  0
  -14.3267   -9.8479    0.4411 C   0  0  0  0  0  0  0  0  0  0  0  0
  -13.1972  -10.0061   -0.3451 C   0  0  0  0  0  0  0  0  0  0  0  0
  -12.7660  -11.2408   -0.7004 N   0  0  0  0  0  0  0  0  0  0  0  0
  -12.5168   -8.9168   -0.7634 N   0  0  0  0  0  0  0  0  0  0  0  0
  -12.9297   -7.6760   -0.4241 C   0  0  0  0  0  0  0  0  0  0  0  0
  -14.0333   -7.5024    0.3436 N   0  0  0  0  0  0  0  0  0  0  0  0
  -21.5846  -15.5914    2.4813 O   0  5  0  0  0  0  0  0  0  0  0  0
  -25.3925  -16.0581    1.2559 O   0  0  0  0  0  0  0  0  0  0  0  0
  -18.7251  -10.3240   -0.5165 S   0  0  0  0  0  0  0  0  0  0  0  0
  -16.9895  -10.3235   -0.4905 C   0  0  0  0  0  0  0  0  0  0  0  0
  -22.6933  -14.8982    0.2699 O   0  0  0  0  0  0  0  0  0  0  0  0
  -24.4155  -16.7751    3.3732 O   0  5  0  0  0  0  0  0  0  0  0  0
  -16.5273  -10.9153    0.6456 N   0  0  0  0  0  0  0  0  0  0  0  0
  -23.8782  -14.5160    2.5340 O   0  0  0  0  0  0  0  0  0  0  0  0
  -26.1563  -14.9869    3.4356 O   0  0  0  0  0  0  0  0  0  0  0  0
  -17.4782  -11.3730    1.5057 C   0  0  1  0  0  0  0  0  0  0  0  0
  -18.8553  -11.1351    0.9943 C   0  0  1  0  0  0  0  0  0  0  0  0
  -20.2398  -11.4220    1.5120 C   0  0  0  0  0  0  0  0  0  0  0  0
  -20.5158  -12.9103    1.3669 C   0  0  0  0  0  0  0  0  0  0  0  0
  -21.8305  -13.1665    1.8455 O   0  0  0  0  0  0  0  0  0  0  0  0
  1 11  1  0  0  0  0
  3 13  1  1  0  0  0
  3 17  2  0  0  0  0
  3 20  1  0  0  0  0
  3 26  1  0  0  0  0
  4 14  1  6  0  0  0
  4 18  1  0  0  0  0
  4 21  2  0  0  0  0
  4 20  1  0  0  0  0
  5 19  1  0  0  0  0
  5  7  1  0  0  0  0
  6  7  2  0  0  0  0
  6 12  1  0  0  0  0
  7  8  1  0  0  0  0
  8  9  1  0  0  0  0
  8 10  2  0  0  0  0
 10 11  1  0  0  0  0
 11 12  2  0  0  0  0
 15 23  1  0  0  0  0
 15 16  1  0  0  0  0
 16 19  1  0  0  0  0
 19 22  1  0  0  0  0
 22  2  1  6  0  0  0
 22 23  1  0  0  0  0
 23 24  1  1  0  0  0
 24 25  1  0  0  0  0
 25 26  1  0  0  0  0
M  CHG  2  13  -1  18  -1
M  END
>  <CHROM.1>
-71.65424437,36.02605546,51.10299763,-52.43734805,106.84968546,-179.38775945
175.49833673,58.93055471,-19.21638676,-12.21149125,1.11753826,0.58428270
-0.01054632,-0.38714684

>  <Name>
ligand

>  <RI>
0

>  <Rbt.Current_Directory>
/home/itssahil/PROJECTS/Mol_Feturizer/New_Systems/rnas/2GDI

>  <Rbt.Executable>
rbdock ($Id: //depot/dev/client3/rdock/2013.1/src/exe/rbdock.cxx#4 $)

>  <Rbt.Library>
libRbt.so (2013.1, Build901 2013/11/27)

>  <Rbt.Parameter_File>
/export/apps/rDock/src/rDock_2013.1_src/data/scripts/dock_solv.prm

>  <Rbt.Receptor>
prm/pocket_docking_3.prm

>  <SCORE>
-17.0931

>  <SCORE.INTER>
-15.9555

>  <SCORE.INTER.CONST>
1

>  <SCORE.INTER.POLAR>
0

>  <SCORE.INTER.ROT>
8

>  <SCORE.INTER.SOLV>
23.2256

>  <SCORE.INTER.VDW>
-27.3122

>  <SCORE.INTER.norm>
-0.613674

>  <SCORE.INTRA>
-1.18154

>  <SCORE.INTRA.DIHEDRAL>
-3.17782

>  <SCORE.INTRA.DIHEDRAL.0>
8.13976

>  <SCORE.INTRA.POLAR>
0

>  <SCORE.INTRA.POLAR.0>
0

>  <SCORE.INTRA.REPUL>
0

>  <SCORE.INTRA.REPUL.0>
0

>  <SCORE.INTRA.SOLV>
0.373458

>  <SCORE.INTRA.SOLV.lig_0>
-82.9561

>  <SCORE.INTRA.VDW>
0.220634

>  <SCORE.INTRA.VDW.0>
-3.29171

>  <SCORE.INTRA.norm>
-0.045444

>  <SCORE.RESTR>
0.0439959

>  <SCORE.RESTR.CAVITY>
0.0439959

>  <SCORE.RESTR.norm>
0.00169215

>  <SCORE.SYSTEM>
0

>  <SCORE.SYSTEM.CONST>
0

>  <SCORE.SYSTEM.DIHEDRAL>
0

>  <SCORE.SYSTEM.SOLV>
0

>  <SCORE.SYSTEM.norm>
0

>  <SCORE.heavy>
26

>  <SCORE.norm>
-0.657426

>  <RMSD>
2.183

$$$$
ligand
 OpenBabel11021811433D
libRbt.so/2013.1/901 2013/11/27
 26 27  0  0  0  0  0  0  0  0999 V2000
  -12.5332   -6.7207   -0.5506 C   0  0  0  0  0  0  0  0  0  0  0  0
  -17.1889  -11.7906    2.8622 C   0  0  0  0  0  0  0  0  0  0  0  0
  -22.7999  -14.1665    2.9025 P   0  0  1  0  0  0  0  0  0  0  0  0
  -24.9352  -13.7491    0.9724 P   0  0  1  0  0  0  0  0  0  0  0  0
  -15.2969  -11.6331    0.5734 C   0  0  0  0  0  0  0  0  0  0  0  0
  -15.2618   -9.1397    0.1585 C   0  0  0  0  0  0  0  0  0  0  0  0
  -14.5658  -10.3371    0.2661 C   0  0  0  0  0  0  0  0  0  0  0  0
  -13.1905  -10.3240    0.1010 C   0  0  0  0  0  0  0  0  0  0  0  0
  -12.4690  -11.4671    0.1957 N   0  0  0  0  0  0  0  0  0  0  0  0
  -12.5603   -9.1577   -0.1580 N   0  0  0  0  0  0  0  0  0  0  0  0
  -13.2593   -8.0061   -0.2597 C   0  0  0  0  0  0  0  0  0  0  0  0
  -14.6056   -8.0005   -0.1021 N   0  0  0  0  0  0  0  0  0  0  0  0
  -23.7908  -13.9026    4.0056 O   0  5  0  0  0  0  0  0  0  0  0  0
  -25.5320  -14.6332   -0.0790 O   0  0  0  0  0  0  0  0  0  0  0  0
  -19.0258  -11.1016   -0.6913 S   0  0  0  0  0  0  0  0  0  0  0  0
  -17.3013  -11.2412   -0.8314 C   0  0  0  0  0  0  0  0  0  0  0  0
  -21.7262  -15.1820    3.1685 O   0  0  0  0  0  0  0  0  0  0  0  0
  -25.8702  -13.6595    2.1321 O   0  5  0  0  0  0  0  0  0  0  0  0
  -16.7389  -11.4715    0.3874 N   0  0  0  0  0  0  0  0  0  0  0  0
  -23.6265  -14.5110    1.5515 O   0  0  0  0  0  0  0  0  0  0  0  0
  -24.4537  -12.4023    0.5059 O   0  0  0  0  0  0  0  0  0  0  0  0
  -17.6039  -11.5438    1.4362 C   0  0  1  0  0  0  0  0  0  0  0  0
  -19.0179  -11.3669    1.0077 C   0  0  1  0  0  0  0  0  0  0  0  0
  -20.3446  -11.3518    1.7196 C   0  0  0  0  0  0  0  0  0  0  0  0
  -20.9228  -12.7581    1.7033 C   0  0  0  0  0  0  0  0  0  0  0  0
  -22.0537  -12.7830    2.5655 O   0  0  0  0  0  0  0  0  0  0  0  0
  1 11  1  0  0  0  0
  3 13  1  1  0  0  0
  3 17  2  0  0  0  0
  3 20  1  0  0  0  0
  3 26  1  0  0  0  0
  4 14  1  6  0  0  0
  4 18  1  0  0  0  0
  4 21  2  0  0  0  0
  4 20  1  0  0  0  0
  5 19  1  0  0  0  0
  5  7  1  0  0  0  0
  6  7  2  0  0  0  0
  6 12  1  0  0  0  0
  7  8  1  0  0  0  0
  8  9  1  0  0  0  0
  8 10  2  0  0  0  0
 10 11  1  0  0  0  0
 11 12  2  0  0  0  0
 15 23  1  0  0  0  0
 15 16  1  0  0  0  0
 16 19  1  0  0  0  0
 19 22  1  0  0  0  0
 22  2  1  6  0  0  0
 22 23  1  0  0  0  0
 23 24  1  1  0  0  0
 24 25  1  0  0  0  0
 25 26  1  0  0  0  0
M  CHG  2  13  -1  18  -1
M  END
>  <CHROM.1>
43.97088338,66.19446646,14.28826099,-165.68794407,88.79540090,170.27161730
-173.09926940,170.54778246,-19.40139846,-11.90484644,1.04564645,0.39480843
-0.21012947,-0.85418707

>  <Name>
ligand

>  <RI>
0

>  <Rbt.Current_Directory>
/home/itssahil/PROJECTS/Mol_Feturizer/New_Systems/rnas/2GDI

>  <Rbt.Executable>
rbdock ($Id: //depot/dev/client3/rdock/2013.1/src/exe/rbdock.cxx#4 $)

>  <Rbt.Library>
libRbt.so (2013.1, Build901 2013/11/27)

>  <Rbt.Parameter_File>
/export/apps/rDock/src/rDock_2013.1_src/data/scripts/dock_solv.prm

>  <Rbt.Receptor>
prm/pocket_docking_3.prm

>  <SCORE>
-18.1472

>  <SCORE.INTER>
-18.1159

>  <SCORE.INTER.CONST>
1

>  <SCORE.INTER.POLAR>
0

>  <SCORE.INTER.ROT>
8

>  <SCORE.INTER.SOLV>
24.4151

>  <SCORE.INTER.VDW>
-29.149

>  <SCORE.INTER.norm>
-0.696764

>  <SCORE.INTRA>
-0.0313419

>  <SCORE.INTRA.DIHEDRAL>
-1.89422

>  <SCORE.INTRA.DIHEDRAL.0>
8.13976

>  <SCORE.INTRA.POLAR>
0

>  <SCORE.INTRA.POLAR.0>
0

>  <SCORE.INTRA.REPUL>
0

>  <SCORE.INTRA.REPUL.0>
0

>  <SCORE.INTRA.SOLV>
1.8489

>  <SCORE.INTRA.SOLV.lig_0>
-82.9561

>  <SCORE.INTRA.VDW>
-0.00867967

>  <SCORE.INTRA.VDW.0>
-3.29171

>  <SCORE.INTRA.norm>
-0.00120546

>  <SCORE.RESTR>
0

>  <SCORE.RESTR.CAVITY>
0

>  <SCORE.RESTR.norm>
0

>  <SCORE.SYSTEM>
0

>  <SCORE.SYSTEM.CONST>
0

>  <SCORE.SYSTEM.DIHEDRAL>
0

>  <SCORE.SYSTEM.SOLV>
0

>  <SCORE.SYSTEM.norm>
0

>  <SCORE.heavy>
26

>  <SCORE.norm>
-0.69797

>  <RMSD>
2.187

$$$$
ligand
 OpenBabel11021811433D
libRbt.so/2013.1/901 2013/11/27
 26 27  0  0  0  0  0  0  0  0999 V2000
  -12.5890   -7.1443   -0.5783 C   0  0  0  0  0  0  0  0  0  0  0  0
  -17.7860  -11.1063    2.4506 C   0  0  0  0  0  0  0  0  0  0  0  0
  -23.1468  -13.9461    2.0525 P   0  0  1  0  0  0  0  0  0  0  0  0
  -22.8362  -16.8377    2.0831 P   0  0  1  0  0  0  0  0  0  0  0  0
  -15.2605  -11.9411    1.1210 C   0  0  0  0  0  0  0  0  0  0  0  0
  -15.0372   -9.4246    1.0365 C   0  0  0  0  0  0  0  0  0  0  0  0
  -14.5589  -10.6740    0.6623 C   0  0  0  0  0  0  0  0  0  0  0  0
  -13.4218  -10.7419   -0.1260 C   0  0  0  0  0  0  0  0  0  0  0  0
  -12.9186  -11.9379   -0.5169 N   0  0  0  0  0  0  0  0  0  0  0  0
  -12.8068   -9.6024   -0.5103 N   0  0  0  0  0  0  0  0  0  0  0  0
  -13.2921   -8.3987   -0.1350 C   0  0  0  0  0  0  0  0  0  0  0  0
  -14.4041   -8.3134    0.6352 N   0  0  0  0  0  0  0  0  0  0  0  0
  -24.5263  -14.0176    1.4523 O   0  5  0  0  0  0  0  0  0  0  0  0
  -23.5481  -16.7692    3.3992 O   0  0  0  0  0  0  0  0  0  0  0  0
  -18.3596  -12.6274   -1.2688 S   0  0  0  0  0  0  0  0  0  0  0  0
  -16.6906  -12.6022   -0.7928 C   0  0  0  0  0  0  0  0  0  0  0  0
  -23.0464  -13.6020    3.5107 O   0  0  0  0  0  0  0  0  0  0  0  0
  -23.8074  -17.2151    1.0147 O   0  5  0  0  0  0  0  0  0  0  0  0
  -16.5575  -12.0840    0.4596 N   0  0  0  0  0  0  0  0  0  0  0  0
  -22.3739  -15.3290    1.7105 O   0  0  0  0  0  0  0  0  0  0  0  0
  -21.5837  -17.6705    2.0536 O   0  0  0  0  0  0  0  0  0  0  0  0
  -17.7129  -11.7013    1.0695 C   0  0  1  0  0  0  0  0  0  0  0  0
  -18.9057  -11.9554    0.2169 C   0  0  1  0  0  0  0  0  0  0  0  0
  -20.3864  -11.7343    0.3770 C   0  0  0  0  0  0  0  0  0  0  0  0
  -20.9117  -12.6954    1.4318 C   0  0  0  0  0  0  0  0  0  0  0  0
  -22.3172  -12.8236    1.2550 O   0  0  0  0  0  0  0  0  0  0  0  0
  1 11  1  0  0  0  0
  3 13  1  6  0  0  0
  3 17  2  0  0  0  0
  3 20  1  0  0  0  0
  3 26  1  0  0  0  0
  4 14  1  1  0  0  0
  4 18  1  0  0  0  0
  4 21  2  0  0  0  0
  4 20  1  0  0  0  0
  5 19  1  0  0  0  0
  5  7  1  0  0  0  0
  6  7  2  0  0  0  0
  6 12  1  0  0  0  0
  7  8  1  0  0  0  0
  8  9  1  0  0  0  0
  8 10  2  0  0  0  0
 10 11  1  0  0  0  0
 11 12  2  0  0  0  0
 15 23  1  0  0  0  0
 15 16  1  0  0  0  0
 16 19  1  0  0  0  0
 19 22  1  0  0  0  0
 22  2  1  1  0  0  0
 22 23  1  0  0  0  0
 23 24  1  6  0  0  0
 24 25  1  0  0  0  0
 25 26  1  0  0  0  0
M  CHG  2  13  -1  18  -1
M  END
>  <CHROM.1>
-57.55732568,82.23812990,69.90691900,-33.61780136,111.94484625,-159.93300808
170.02774747,-168.55089166,-19.01388612,-12.80522865,0.98297921,0.53357045
0.28148970,0.09936435

>  <Name>
ligand

>  <RI>
0

>  <Rbt.Current_Directory>
/home/itssahil/PROJECTS/Mol_Feturizer/New_Systems/rnas/2GDI

>  <Rbt.Executable>
rbdock ($Id: //depot/dev/client3/rdock/2013.1/src/exe/rbdock.cxx#4 $)

>  <Rbt.Library>
libRbt.so (2013.1, Build901 2013/11/27)

>  <Rbt.Parameter_File>
/export/apps/rDock/src/rDock_2013.1_src/data/scripts/dock_solv.prm

>  <Rbt.Receptor>
prm/pocket_docking_2.prm

>  <SCORE>
-13.3108

>  <SCORE.INTER>
-13.1812

>  <SCORE.INTER.CONST>
1

>  <SCORE.INTER.POLAR>
0

>  <SCORE.INTER.ROT>
8

>  <SCORE.INTER.SOLV>
17.4074

>  <SCORE.INTER.VDW>
-23.5232

>  <SCORE.INTER.norm>
-0.506969

>  <SCORE.INTRA>
-0.592639

>  <SCORE.INTRA.DIHEDRAL>
-0.600834

>  <SCORE.INTRA.DIHEDRAL.0>
8.13976

>  <SCORE.INTRA.POLAR>
0

>  <SCORE.INTRA.POLAR.0>
0

>  <SCORE.INTRA.REPUL>
0

>  <SCORE.INTRA.REPUL.0>
0

>  <SCORE.INTRA.SOLV>
-0.0280685

>  <SCORE.INTRA.SOLV.lig_0>
-82.9561

>  <SCORE.INTRA.VDW>
-0.278188

>  <SCORE.INTRA.VDW.0>
-3.29171

>  <SCORE.INTRA.norm>
-0.0227938

>  <SCORE.RESTR>
0.46307

>  <SCORE.RESTR.CAVITY>
0.46307

>  <SCORE.RESTR.norm>
0.0178104

>  <SCORE.SYSTEM>
0

>  <SCORE.SYSTEM.CONST>
0

>  <SCORE.SYSTEM.DIHEDRAL>
0

>  <SCORE.SYSTEM.SOLV>
0

>  <SCORE.SYSTEM.norm>
0

>  <SCORE.heavy>
26

>  <SCORE.norm>
-0.511952

>  <RMSD>
2.202

$$$$
ligand
 OpenBabel11021811433D
libRbt.so/2013.1/901 2013/11/27
 26 27  0  0  0  0  0  0  0  0999 V2000
  -12.3365   -7.7457   -0.6529 C   0  0  0  0  0  0  0  0  0  0  0  0
  -17.6799  -14.1123    0.7198 C   0  0  0  0  0  0  0  0  0  0  0  0
  -21.9155  -14.6448    1.7239 P   0  0  1  0  0  0  0  0  0  0  0  0
  -20.6915  -17.1236    0.8205 P   0  0  1  0  0  0  0  0  0  0  0  0
  -15.9992  -11.7262    1.2897 C   0  0  0  0  0  0  0  0  0  0  0  0
  -15.2554   -9.3258    1.0154 C   0  0  0  0  0  0  0  0  0  0  0  0
  -15.0353  -10.6746    0.7666 C   0  0  0  0  0  0  0  0  0  0  0  0
  -13.9125  -11.0429    0.0437 C   0  0  0  0  0  0  0  0  0  0  0  0
  -13.6564  -12.3462   -0.2249 N   0  0  0  0  0  0  0  0  0  0  0  0
  -13.0621  -10.0915   -0.3995 N   0  0  0  0  0  0  0  0  0  0  0  0
  -13.2986   -8.7858   -0.1462 C   0  0  0  0  0  0  0  0  0  0  0  0
  -14.3928   -8.4073    0.5586 N   0  0  0  0  0  0  0  0  0  0  0  0
  -23.2867  -14.9967    1.2095 O   0  5  0  0  0  0  0  0  0  0  0  0
  -19.4531  -17.4294    0.0354 O   0  0  0  0  0  0  0  0  0  0  0  0
  -19.3769  -10.6299   -0.4926 S   0  0  0  0  0  0  0  0  0  0  0  0
  -17.8233  -10.4089    0.2494 C   0  0  0  0  0  0  0  0  0  0  0  0
  -21.6880  -14.7451    3.2047 O   0  0  0  0  0  0  0  0  0  0  0  0
  -20.4984  -17.5546    2.2362 O   0  5  0  0  0  0  0  0  0  0  0  0
  -17.3021  -11.6065    0.6352 N   0  0  0  0  0  0  0  0  0  0  0  0
  -20.8258  -15.5094    0.8921 O   0  0  0  0  0  0  0  0  0  0  0  0
  -21.9845  -17.6178    0.2314 O   0  0  0  0  0  0  0  0  0  0  0  0
  -18.0705  -12.6998    0.3750 C   0  0  1  0  0  0  0  0  0  0  0  0
  -19.3418  -12.3394   -0.3092 C   0  0  1  0  0  0  0  0  0  0  0  0
  -20.5280  -13.1170   -0.8144 C   0  0  0  0  0  0  0  0  0  0  0  0
  -21.7606  -12.6877   -0.0343 C   0  0  0  0  0  0  0  0  0  0  0  0
  -21.6076  -13.1218    1.3115 O   0  0  0  0  0  0  0  0  0  0  0  0
  1 11  1  0  0  0  0
  3 13  1  6  0  0  0
  3 17  2  0  0  0  0
  3 20  1  0  0  0  0
  3 26  1  0  0  0  0
  4 14  1  6  0  0  0
  4 18  1  0  0  0  0
  4 21  2  0  0  0  0
  4 20  1  0  0  0  0
  5 19  1  0  0  0  0
  5  7  1  0  0  0  0
  6  7  2  0  0  0  0
  6 12  1  0  0  0  0
  7  8  1  0  0  0  0
  8  9  1  0  0  0  0
  8 10  2  0  0  0  0
 10 11  1  0  0  0  0
 11 12  2  0  0  0  0
 15 23  1  0  0  0  0
 15 16  1  0  0  0  0
 16 19  1  0  0  0  0
 19 22  1  0  0  0  0
 22  2  1  6  0  0  0
 22 23  1  0  0  0  0
 23 24  1  1  0  0  0
 24 25  1  0  0  0  0
 25 26  1  0  0  0  0
M  CHG  2  13  -1  18  -1
M  END
>  <CHROM.1>
-61.22597336,-33.76407796,66.47571744,-174.49985386,-62.30940495,-67.47836885
-80.11639214,-51.65362771,-18.58065717,-13.04018706,0.59310822,-0.71832621
-0.06500228,3.04065721

>  <Name>
ligand

>  <RI>
0

>  <Rbt.Current_Directory>
/home/itssahil/PROJECTS/Mol_Feturizer/New_Systems/rnas/2GDI

>  <Rbt.Executable>
rbdock ($Id: //depot/dev/client3/rdock/2013.1/src/exe/rbdock.cxx#4 $)

>  <Rbt.Library>
libRbt.so (2013.1, Build901 2013/11/27)

>  <Rbt.Parameter_File>
/export/apps/rDock/src/rDock_2013.1_src/data/scripts/dock_solv.prm

>  <Rbt.Receptor>
prm/pocket_docking_4.prm

>  <SCORE>
-15.0482

>  <SCORE.INTER>
-16.1666

>  <SCORE.INTER.CONST>
1

>  <SCORE.INTER.POLAR>
0

>  <SCORE.INTER.ROT>
8

>  <SCORE.INTER.SOLV>
15.7114

>  <SCORE.INTER.VDW>
-24.9482

>  <SCORE.INTER.norm>
-0.621791

>  <SCORE.INTRA>
1.11833

>  <SCORE.INTRA.DIHEDRAL>
-0.83731

>  <SCORE.INTRA.DIHEDRAL.0>
8.13976

>  <SCORE.INTRA.POLAR>
0

>  <SCORE.INTRA.POLAR.0>
0

>  <SCORE.INTRA.REPUL>
0

>  <SCORE.INTRA.REPUL.0>
0

>  <SCORE.INTRA.SOLV>
3.45044

>  <SCORE.INTRA.SOLV.lig_0>
-82.9561

>  <SCORE.INTRA.VDW>
-0.188233

>  <SCORE.INTRA.VDW.0>
-3.29171

>  <SCORE.INTRA.norm>
0.0430129

>  <SCORE.RESTR>
0

>  <SCORE.RESTR.CAVITY>
0

>  <SCORE.RESTR.norm>
0

>  <SCORE.SYSTEM>
0

>  <SCORE.SYSTEM.CONST>
0

>  <SCORE.SYSTEM.DIHEDRAL>
0

>  <SCORE.SYSTEM.SOLV>
0

>  <SCORE.SYSTEM.norm>
0

>  <SCORE.heavy>
26

>  <SCORE.norm>
-0.578778

>  <RMSD>
2.208

$$$$
ligand
 OpenBabel11021811433D
libRbt.so/2013.1/901 2013/11/27
 26 27  0  0  0  0  0  0  0  0999 V2000
  -12.6165   -7.8995   -0.4598 C   0  0  0  0  0  0  0  0  0  0  0  0
  -17.5255  -13.3798   -0.8396 C   0  0  0  0  0  0  0  0  0  0  0  0
  -21.1716  -15.8098    1.1657 P   0  0  1  0  0  0  0  0  0  0  0  0
  -21.4989  -17.2455    3.6738 P   0  0  1  0  0  0  0  0  0  0  0  0
  -15.7880  -12.3423    1.3393 C   0  0  0  0  0  0  0  0  0  0  0  0
  -15.3533   -9.8629    1.1071 C   0  0  0  0  0  0  0  0  0  0  0  0
  -14.9536  -11.1690    0.8540 C   0  0  0  0  0  0  0  0  0  0  0  0
  -13.7722  -11.3806    0.1623 C   0  0  0  0  0  0  0  0  0  0  0  0
  -13.3420  -12.6367   -0.1091 N   0  0  0  0  0  0  0  0  0  0  0  0
  -13.0396  -10.3223   -0.2475 N   0  0  0  0  0  0  0  0  0  0  0  0
  -13.4502   -9.0611    0.0092 C   0  0  0  0  0  0  0  0  0  0  0  0
  -14.6040   -8.8354    0.6838 N   0  0  0  0  0  0  0  0  0  0  0  0
  -19.8056  -16.3947    0.9202 O   0  5  0  0  0  0  0  0  0  0  0  0
  -22.2911  -18.2834    2.9397 O   0  0  0  0  0  0  0  0  0  0  0  0
  -19.5182  -11.0672    1.8358 S   0  0  0  0  0  0  0  0  0  0  0  0
  -17.8316  -11.2406    2.2079 C   0  0  0  0  0  0  0  0  0  0  0  0
  -22.3076  -16.3407    0.3395 O   0  0  0  0  0  0  0  0  0  0  0  0
  -20.0708  -17.6727    3.7453 O   0  5  0  0  0  0  0  0  0  0  0  0
  -17.2145  -12.0236    1.2801 N   0  0  0  0  0  0  0  0  0  0  0  0
  -21.4881  -15.9117    2.7520 O   0  0  0  0  0  0  0  0  0  0  0  0
  -22.0477  -16.8187    5.0079 O   0  0  0  0  0  0  0  0  0  0  0  0
  -18.0088  -12.4994    0.2820 C   0  0  1  0  0  0  0  0  0  0  0  0
  -19.4155  -12.0331    0.4168 C   0  0  1  0  0  0  0  0  0  0  0  0
  -20.6797  -12.2441   -0.3733 C   0  0  0  0  0  0  0  0  0  0  0  0
  -20.9653  -13.7358   -0.4471 C   0  0  0  0  0  0  0  0  0  0  0  0
  -21.0924  -14.2297    0.8806 O   0  0  0  0  0  0  0  0  0  0  0  0
  1 11  1  0  0  0  0
  3 13  1  6  0  0  0
  3 17  2  0  0  0  0
  3 20  1  0  0  0  0
  3 26  1  0  0  0  0
  4 14  1  6  0  0  0
  4 18  1  0  0  0  0
  4 21  2  0  0  0  0
  4 20  1  0  0  0  0
  5 19  1  0  0  0  0
  5  7  1  0  0  0  0
  6  7  2  0  0  0  0
  6 12  1  0  0  0  0
  7  8  1  0  0  0  0
  8  9  1  0  0  0  0
  8 10  2  0  0  0  0
 10 11  1  0  0  0  0
 11 12  2  0  0  0  0
 15 23  1  0  0  0  0
 15 16  1  0  0  0  0
 16 19  1  0  0  0  0
 19 22  1  0  0  0  0
 22  2  1  6  0  0  0
 22 23  1  0  0  0  0
 23 24  1  1  0  0  0
 24 25  1  0  0  0  0
 25 26  1  0  0  0  0
M  CHG  2  13  -1  18  -1
M  END
>  <CHROM.1>
-56.92555699,-77.62901927,35.02642355,-47.42322544,-120.92871069,58.80131708
-170.51068409,71.75734329,-18.55707095,-13.45597459,1.30276550,-0.75873177
0.15341780,2.64279067

>  <Name>
ligand

>  <RI>
0

>  <Rbt.Current_Directory>
/home/itssahil/PROJECTS/Mol_Feturizer/New_Systems/rnas/2GDI

>  <Rbt.Executable>
rbdock ($Id: //depot/dev/client3/rdock/2013.1/src/exe/rbdock.cxx#4 $)

>  <Rbt.Library>
libRbt.so (2013.1, Build901 2013/11/27)

>  <Rbt.Parameter_File>
/export/apps/rDock/src/rDock_2013.1_src/data/scripts/dock_solv.prm

>  <Rbt.Receptor>
prm/pocket_docking_5.prm

>  <SCORE>
-17.8589

>  <SCORE.INTER>
-16.566

>  <SCORE.INTER.CONST>
1

>  <SCORE.INTER.POLAR>
0

>  <SCORE.INTER.ROT>
8

>  <SCORE.INTER.SOLV>
20.6563

>  <SCORE.INTER.VDW>
-26.8628

>  <SCORE.INTER.norm>
-0.637154

>  <SCORE.INTRA>
-1.29288

>  <SCORE.INTRA.DIHEDRAL>
-2.74852

>  <SCORE.INTRA.DIHEDRAL.0>
8.13976

>  <SCORE.INTRA.POLAR>
0

>  <SCORE.INTRA.POLAR.0>
0

>  <SCORE.INTRA.REPUL>
0

>  <SCORE.INTRA.REPUL.0>
0

>  <SCORE.INTRA.SOLV>
1.02438

>  <SCORE.INTRA.SOLV.lig_0>
-82.9561

>  <SCORE.INTRA.VDW>
-0.43081

>  <SCORE.INTRA.VDW.0>
-3.29171

>  <SCORE.INTRA.norm>
-0.0497262

>  <SCORE.RESTR>
0

>  <SCORE.RESTR.CAVITY>
0

>  <SCORE.RESTR.norm>
0

>  <SCORE.SYSTEM>
0

>  <SCORE.SYSTEM.CONST>
0

>  <SCORE.SYSTEM.DIHEDRAL>
0

>  <SCORE.SYSTEM.SOLV>
0

>  <SCORE.SYSTEM.norm>
0

>  <SCORE.heavy>
26

>  <SCORE.norm>
-0.68688

>  <RMSD>
2.210

$$$$
ligand
 OpenBabel11021811433D
libRbt.so/2013.1/901 2013/11/27
 26 27  0  0  0  0  0  0  0  0999 V2000
  -12.6019   -7.5422   -0.5530 C   0  0  0  0  0  0  0  0  0  0  0  0
  -18.1528  -11.5507    2.3405 C   0  0  0  0  0  0  0  0  0  0  0  0
  -23.4634  -14.8231    0.3817 P   0  0  1  0  0  0  0  0  0  0  0  0
  -22.8664  -17.4421    1.4965 P   0  0  1  0  0  0  0  0  0  0  0  0
  -15.4660  -12.1918    1.2391 C   0  0  0  0  0  0  0  0  0  0  0  0
  -15.1753   -9.6877    1.0516 C   0  0  0  0  0  0  0  0  0  0  0  0
  -14.7131  -10.9639    0.7557 C   0  0  0  0  0  0  0  0  0  0  0  0
  -13.5448  -11.0947    0.0229 C   0  0  0  0  0  0  0  0  0  0  0  0
  -13.0556  -12.3188   -0.2910 N   0  0  0  0  0  0  0  0  0  0  0  0
  -12.8848   -9.9887   -0.3844 N   0  0  0  0  0  0  0  0  0  0  0  0
  -13.3553   -8.7581   -0.0857 C   0  0  0  0  0  0  0  0  0  0  0  0
  -14.4973   -8.6113    0.6295 N   0  0  0  0  0  0  0  0  0  0  0  0
  -23.6353  -15.4136   -0.9932 O   0  5  0  0  0  0  0  0  0  0  0  0
  -24.3027  -17.5898    1.8950 O   0  0  0  0  0  0  0  0  0  0  0  0
  -18.2781  -13.0000   -1.4490 S   0  0  0  0  0  0  0  0  0  0  0  0
  -16.6658  -12.8858   -0.8160 C   0  0  0  0  0  0  0  0  0  0  0  0
  -24.7045  -14.3812    1.1023 O   0  0  0  0  0  0  0  0  0  0  0  0
  -22.6598  -18.0601    0.1539 O   0  5  0  0  0  0  0  0  0  0  0  0
  -16.6837  -12.3954    0.4544 N   0  0  0  0  0  0  0  0  0  0  0  0
  -22.5925  -15.8599    1.2724 O   0  0  0  0  0  0  0  0  0  0  0  0
  -21.8511  -17.8955    2.5099 O   0  0  0  0  0  0  0  0  0  0  0  0
  -17.9131  -12.1014    0.9600 C   0  0  1  0  0  0  0  0  0  0  0  0
  -19.0024  -12.4043   -0.0076 C   0  0  1  0  0  0  0  0  0  0  0  0
  -20.5026  -12.2790    0.0158 C   0  0  0  0  0  0  0  0  0  0  0  0
  -21.1039  -13.6589    0.2320 C   0  0  0  0  0  0  0  0  0  0  0  0
  -22.5201  -13.5280    0.2501 O   0  0  0  0  0  0  0  0  0  0  0  0
  1 11  1  0  0  0  0
  3 13  1  6  0  0  0
  3 17  2  0  0  0  0
  3 20  1  0  0  0  0
  3 26  1  0  0  0  0
  4 14  1  1  0  0  0
  4 18  1  0  0  0  0
  4 21  2  0  0  0  0
  4 20  1  0  0  0  0
  5 19  1  0  0  0  0
  5  7  1  0  0  0  0
  6  7  2  0  0  0  0
  6 12  1  0  0  0  0
  7  8  1  0  0  0  0
  8  9  1  0  0  0  0
  8 10  2  0  0  0  0
 10 11  1  0  0  0  0
 11 12  2  0  0  0  0
 15 23  1  0  0  0  0
 15 16  1  0  0  0  0
 16 19  1  0  0  0  0
 19 22  1  0  0  0  0
 22  2  1  1  0  0  0
 22 23  1  0  0  0  0
 23 24  1  6  0  0  0
 24 25  1  0  0  0  0
 25 26  1  0  0  0  0
M  CHG  2  13  -1  18  -1
M  END
>  <CHROM.1>
-51.77703475,75.02267547,74.45695854,-50.11646864,77.86490331,-179.90897780
176.66525191,-83.57035777,-19.14096302,-13.35049103,0.44662695,0.59792318
-0.06711318,-0.23492152

>  <Name>
ligand

>  <RI>
0

>  <Rbt.Current_Directory>
/home/itssahil/PROJECTS/Mol_Feturizer/New_Systems/rnas/2GDI

>  <Rbt.Executable>
rbdock ($Id: //depot/dev/client3/rdock/2013.1/src/exe/rbdock.cxx#4 $)

>  <Rbt.Library>
libRbt.so (2013.1, Build901 2013/11/27)

>  <Rbt.Parameter_File>
/export/apps/rDock/src/rDock_2013.1_src/data/scripts/dock_solv.prm

>  <Rbt.Receptor>
prm/pocket_docking_2.prm

>  <SCORE>
-12.8298

>  <SCORE.INTER>
-12.2959

>  <SCORE.INTER.CONST>
1

>  <SCORE.INTER.POLAR>
0

>  <SCORE.INTER.ROT>
8

>  <SCORE.INTER.SOLV>
15.3207

>  <SCORE.INTER.VDW>
-22.2375

>  <SCORE.INTER.norm>
-0.47292

>  <SCORE.INTRA>
-0.538317

>  <SCORE.INTRA.DIHEDRAL>
-1.51587

>  <SCORE.INTRA.DIHEDRAL.0>
8.13976

>  <SCORE.INTRA.POLAR>
0

>  <SCORE.INTRA.POLAR.0>
0

>  <SCORE.INTRA.REPUL>
0

>  <SCORE.INTRA.REPUL.0>
0

>  <SCORE.INTRA.SOLV>
0.530545

>  <SCORE.INTRA.SOLV.lig_0>
-82.9561

>  <SCORE.INTRA.VDW>
-0.0456538

>  <SCORE.INTRA.VDW.0>
-3.29171

>  <SCORE.INTRA.norm>
-0.0207045

>  <SCORE.RESTR>
0.00438754

>  <SCORE.RESTR.CAVITY>
0.00438754

>  <SCORE.RESTR.norm>
0.000168751

>  <SCORE.SYSTEM>
0

>  <SCORE.SYSTEM.CONST>
0

>  <SCORE.SYSTEM.DIHEDRAL>
0

>  <SCORE.SYSTEM.SOLV>
0

>  <SCORE.SYSTEM.norm>
0

>  <SCORE.heavy>
26

>  <SCORE.norm>
-0.493455

>  <RMSD>
2.227

$$$$
ligand
 OpenBabel11021811433D
libRbt.so/2013.1/901 2013/11/27
 26 27  0  0  0  0  0  0  0  0999 V2000
  -12.7878   -7.0961   -0.3825 C   0  0  0  0  0  0  0  0  0  0  0  0
  -17.5044  -11.2735    2.7234 C   0  0  0  0  0  0  0  0  0  0  0  0
  -22.3696  -13.9436    0.2944 P   0  0  1  0  0  0  0  0  0  0  0  0
  -23.6746  -15.7201    2.1918 P   0  0  1  0  0  0  0  0  0  0  0  0
  -15.3590  -12.0905    0.8331 C   0  0  0  0  0  0  0  0  0  0  0  0
  -15.2788   -9.5639    0.8442 C   0  0  0  0  0  0  0  0  0  0  0  0
  -14.6827  -10.7710    0.5017 C   0  0  0  0  0  0  0  0  0  0  0  0
  -13.4530  -10.7481   -0.1358 C   0  0  0  0  0  0  0  0  0  0  0  0
  -12.8333  -11.8999   -0.4904 N   0  0  0  0  0  0  0  0  0  0  0  0
  -12.8640   -9.5634   -0.4079 N   0  0  0  0  0  0  0  0  0  0  0  0
  -13.4645   -8.4024   -0.0663 C   0  0  0  0  0  0  0  0  0  0  0  0
  -14.6681   -8.4059    0.5570 N   0  0  0  0  0  0  0  0  0  0  0  0
  -21.8543  -14.0997   -1.1122 O   0  5  0  0  0  0  0  0  0  0  0  0
  -22.5761  -15.6085    3.2039 O   0  0  0  0  0  0  0  0  0  0  0  0
  -18.9034  -12.2745   -0.9533 S   0  0  0  0  0  0  0  0  0  0  0  0
  -17.1784  -12.4141   -0.8192 C   0  0  0  0  0  0  0  0  0  0  0  0
  -23.2840  -12.7847    0.5691 O   0  0  0  0  0  0  0  0  0  0  0  0
  -24.6896  -14.6556    2.4445 O   0  5  0  0  0  0  0  0  0  0  0  0
  -16.7656  -12.0673    0.4314 N   0  0  0  0  0  0  0  0  0  0  0  0
  -23.0347  -15.3501    0.7487 O   0  0  0  0  0  0  0  0  0  0  0  0
  -24.2877  -17.0845    2.0318 O   0  0  0  0  0  0  0  0  0  0  0  0
  -17.7466  -11.6930    1.2979 C   0  0  1  0  0  0  0  0  0  0  0  0
  -19.0972  -11.7623    0.6768 C   0  0  1  0  0  0  0  0  0  0  0  0
  -20.4958  -11.4709    1.1521 C   0  0  0  0  0  0  0  0  0  0  0  0
  -20.9473  -12.6026    2.0619 C   0  0  0  0  0  0  0  0  0  0  0  0
  -21.1031  -13.7737    1.2698 O   0  0  0  0  0  0  0  0  0  0  0  0
  1 11  1  0  0  0  0
  3 13  1  6  0  0  0
  3 17  2  0  0  0  0
  3 20  1  0  0  0  0
  3 26  1  0  0  0  0
  4 14  1  1  0  0  0
  4 18  1  0  0  0  0
  4 21  2  0  0  0  0
  4 20  1  0  0  0  0
  5 19  1  0  0  0  0
  5  7  1  0  0  0  0
  6  7  2  0  0  0  0
  6 12  1  0  0  0  0
  7  8  1  0  0  0  0
  8  9  1  0  0  0  0
  8 10  2  0  0  0  0
 10 11  1  0  0  0  0
 11 12  2  0  0  0  0
 15 23  1  0  0  0  0
 15 16  1  0  0  0  0
 16 19  1  0  0  0  0
 19 22  1  0  0  0  0
 22  2  1  1  0  0  0
 22 23  1  0  0  0  0
 23 24  1  6  0  0  0
 24 25  1  0  0  0  0
 25 26  1  0  0  0  0
M  CHG  2  13  -1  18  -1
M  END
>  <CHROM.1>
177.24004874,87.42553813,47.89754866,-61.97716745,105.95608941,-68.24993142
-75.10104476,120.13260125,-19.10267674,-12.53271404,0.75019245,-0.06918171
0.53203715,1.43093106

>  <Name>
ligand

>  <RI>
0

>  <Rbt.Current_Directory>
/home/itssahil/PROJECTS/Mol_Feturizer/New_Systems/rnas/2GDI

>  <Rbt.Executable>
rbdock ($Id: //depot/dev/client3/rdock/2013.1/src/exe/rbdock.cxx#4 $)

>  <Rbt.Library>
libRbt.so (2013.1, Build901 2013/11/27)

>  <Rbt.Parameter_File>
/export/apps/rDock/src/rDock_2013.1_src/data/scripts/dock_solv.prm

>  <Rbt.Receptor>
prm/pocket_docking_2.prm

>  <SCORE>
-13.2687

>  <SCORE.INTER>
-13.9467

>  <SCORE.INTER.CONST>
1

>  <SCORE.INTER.POLAR>
0

>  <SCORE.INTER.ROT>
8

>  <SCORE.INTER.SOLV>
18.5095

>  <SCORE.INTER.VDW>
-24.401

>  <SCORE.INTER.norm>
-0.536412

>  <SCORE.INTRA>
0.256605

>  <SCORE.INTRA.DIHEDRAL>
0.299142

>  <SCORE.INTRA.DIHEDRAL.0>
8.13976

>  <SCORE.INTRA.POLAR>
0

>  <SCORE.INTRA.POLAR.0>
0

>  <SCORE.INTRA.REPUL>
0

>  <SCORE.INTRA.REPUL.0>
0

>  <SCORE.INTRA.SOLV>
1.40981

>  <SCORE.INTRA.SOLV.lig_0>
-82.9561

>  <SCORE.INTRA.VDW>
-0.597869

>  <SCORE.INTRA.VDW.0>
-3.29171

>  <SCORE.INTRA.norm>
0.00986942

>  <SCORE.RESTR>
0.421419

>  <SCORE.RESTR.CAVITY>
0.421419

>  <SCORE.RESTR.norm>
0.0162084

>  <SCORE.SYSTEM>
0

>  <SCORE.SYSTEM.CONST>
0

>  <SCORE.SYSTEM.DIHEDRAL>
0

>  <SCORE.SYSTEM.SOLV>
0

>  <SCORE.SYSTEM.norm>
0

>  <SCORE.heavy>
26

>  <SCORE.norm>
-0.510334

>  <RMSD>
2.227

$$$$
ligand
 OpenBabel11021811433D
libRbt.so/2013.1/901 2013/11/27
 26 27  0  0  0  0  0  0  0  0999 V2000
  -12.4204   -7.6629   -0.6534 C   0  0  0  0  0  0  0  0  0  0  0  0
  -17.3297  -14.1298    0.1097 C   0  0  0  0  0  0  0  0  0  0  0  0
  -22.1495  -16.5651   -0.5507 P   0  0  1  0  0  0  0  0  0  0  0  0
  -23.6373  -18.7510   -1.7620 P   0  0  1  0  0  0  0  0  0  0  0  0
  -16.0394  -11.7037    1.2463 C   0  0  0  0  0  0  0  0  0  0  0  0
  -15.3224   -9.2925    0.9969 C   0  0  0  0  0  0  0  0  0  0  0  0
  -15.0871  -10.6362    0.7345 C   0  0  0  0  0  0  0  0  0  0  0  0
  -13.9598  -10.9845    0.0087 C   0  0  0  0  0  0  0  0  0  0  0  0
  -13.6890  -12.2821   -0.2730 N   0  0  0  0  0  0  0  0  0  0  0  0
  -13.1199  -10.0192   -0.4243 N   0  0  0  0  0  0  0  0  0  0  0  0
  -13.3711   -8.7188   -0.1579 C   0  0  0  0  0  0  0  0  0  0  0  0
  -14.4699   -8.3598    0.5500 N   0  0  0  0  0  0  0  0  0  0  0  0
  -23.3118  -16.1471    0.3111 O   0  5  0  0  0  0  0  0  0  0  0  0
  -24.9116  -18.3985   -1.0582 O   0  0  0  0  0  0  0  0  0  0  0  0
  -19.4781  -10.7394   -0.4949 S   0  0  0  0  0  0  0  0  0  0  0  0
  -18.0005  -10.4641    0.3734 C   0  0  0  0  0  0  0  0  0  0  0  0
  -21.0155  -17.2834    0.1222 O   0  0  0  0  0  0  0  0  0  0  0  0
  -23.9317  -19.0624   -3.1915 O   0  5  0  0  0  0  0  0  0  0  0  0
  -17.3223  -11.6323    0.5470 N   0  0  0  0  0  0  0  0  0  0  0  0
  -22.7290  -17.4087   -1.8074 O   0  0  0  0  0  0  0  0  0  0  0  0
  -22.7868  -19.8004   -1.0996 O   0  0  0  0  0  0  0  0  0  0  0  0
  -17.9119  -12.7439    0.0272 C   0  0  1  0  0  0  0  0  0  0  0  0
  -19.1981  -12.4288   -0.6517 C   0  0  1  0  0  0  0  0  0  0  0  0
  -20.2387  -13.2415   -1.3752 C   0  0  0  0  0  0  0  0  0  0  0  0
  -20.7047  -14.3630   -0.4601 C   0  0  0  0  0  0  0  0  0  0  0  0
  -21.5267  -15.2419   -1.2182 O   0  0  0  0  0  0  0  0  0  0  0  0
  1 11  1  0  0  0  0
  3 13  1  1  0  0  0
  3 17  2  0  0  0  0
  3 20  1  0  0  0  0
  3 26  1  0  0  0  0
  4 14  1  1  0  0  0
  4 18  1  0  0  0  0
  4 21  2  0  0  0  0
  4 20  1  0  0  0  0
  5 19  1  0  0  0  0
  5  7  1  0  0  0  0
  6  7  2  0  0  0  0
  6 12  1  0  0  0  0
  7  8  1  0  0  0  0
  8  9  1  0  0  0  0
  8 10  2  0  0  0  0
 10 11  1  0  0  0  0
 11 12  2  0  0  0  0
 15 23  1  0  0  0  0
 15 16  1  0  0  0  0
 16 19  1  0  0  0  0
 19 22  1  0  0  0  0
 22  2  1  6  0  0  0
 22 23  1  0  0  0  0
 23 24  1  1  0  0  0
 24 25  1  0  0  0  0
 25 26  1  0  0  0  0
M  CHG  2  13  -1  18  -1
M  END
>  <CHROM.1>
-57.12362038,-48.21515287,69.16404594,61.42437854,-124.15902691,-171.11651741
178.17602817,76.70516929,-19.19588694,-13.83612716,-0.50067514,-0.76756348
0.04490589,-3.01418163

>  <Name>
ligand

>  <RI>
0

>  <Rbt.Current_Directory>
/home/itssahil/PROJECTS/Mol_Feturizer/New_Systems/rnas/2GDI

>  <Rbt.Executable>
rbdock ($Id: //depot/dev/client3/rdock/2013.1/src/exe/rbdock.cxx#4 $)

>  <Rbt.Library>
libRbt.so (2013.1, Build901 2013/11/27)

>  <Rbt.Parameter_File>
/export/apps/rDock/src/rDock_2013.1_src/data/scripts/dock_solv.prm

>  <Rbt.Receptor>
prm/pocket_docking_5.prm

>  <SCORE>
-14.9871

>  <SCORE.INTER>
-14.4401

>  <SCORE.INTER.CONST>
1

>  <SCORE.INTER.POLAR>
0

>  <SCORE.INTER.ROT>
8

>  <SCORE.INTER.SOLV>
14.7288

>  <SCORE.INTER.VDW>
-23.4696

>  <SCORE.INTER.norm>
-0.555387

>  <SCORE.INTRA>
-0.546999

>  <SCORE.INTRA.DIHEDRAL>
-2.8206

>  <SCORE.INTRA.DIHEDRAL.0>
8.13976

>  <SCORE.INTRA.POLAR>
0

>  <SCORE.INTRA.POLAR.0>
0

>  <SCORE.INTRA.REPUL>
0

>  <SCORE.INTRA.REPUL.0>
0

>  <SCORE.INTRA.SOLV>
1.21548

>  <SCORE.INTRA.SOLV.lig_0>
-82.9561

>  <SCORE.INTRA.VDW>
0.255565

>  <SCORE.INTRA.VDW.0>
-3.29171

>  <SCORE.INTRA.norm>
-0.0210384

>  <SCORE.RESTR>
0

>  <SCORE.RESTR.CAVITY>
0

>  <SCORE.RESTR.norm>
0

>  <SCORE.SYSTEM>
0

>  <SCORE.SYSTEM.CONST>
0

>  <SCORE.SYSTEM.DIHEDRAL>
0

>  <SCORE.SYSTEM.SOLV>
0

>  <SCORE.SYSTEM.norm>
0

>  <SCORE.heavy>
26

>  <SCORE.norm>
-0.576425

>  <RMSD>
2.250

$$$$
ligand
 OpenBabel11021811433D
libRbt.so/2013.1/901 2013/11/27
 26 27  0  0  0  0  0  0  0  0999 V2000
  -12.3166   -7.1519   -0.7247 C   0  0  0  0  0  0  0  0  0  0  0  0
  -16.5533  -14.0949   -0.0093 C   0  0  0  0  0  0  0  0  0  0  0  0
  -22.5723  -13.1913   -0.7179 P   0  0  1  0  0  0  0  0  0  0  0  0
  -23.7787  -15.8001   -0.2736 P   0  0  1  0  0  0  0  0  0  0  0  0
  -15.5573  -11.5280    1.1141 C   0  0  0  0  0  0  0  0  0  0  0  0
  -15.0551   -9.0591    0.9072 C   0  0  0  0  0  0  0  0  0  0  0  0
  -14.7050  -10.3721    0.6184 C   0  0  0  0  0  0  0  0  0  0  0  0
  -13.5560  -10.6070   -0.1189 C   0  0  0  0  0  0  0  0  0  0  0  0
  -13.1746  -11.8705   -0.4263 N   0  0  0  0  0  0  0  0  0  0  0  0
  -12.8062   -9.5642   -0.5372 N   0  0  0  0  0  0  0  0  0  0  0  0
  -13.1684   -8.2959   -0.2452 C   0  0  0  0  0  0  0  0  0  0  0  0
  -14.2901   -8.0474    0.4743 N   0  0  0  0  0  0  0  0  0  0  0  0
  -22.2200  -12.3894   -1.9432 O   0  5  0  0  0  0  0  0  0  0  0  0
  -25.1009  -15.3208    0.2418 O   0  0  0  0  0  0  0  0  0  0  0  0
  -19.0103  -10.9537   -0.7659 S   0  0  0  0  0  0  0  0  0  0  0  0
  -17.6007  -10.5122    0.1459 C   0  0  0  0  0  0  0  0  0  0  0  0
  -23.4583  -12.5373    0.3028 O   0  0  0  0  0  0  0  0  0  0  0  0
  -23.9969  -16.9446   -1.2061 O   0  5  0  0  0  0  0  0  0  0  0  0
  -16.8145  -11.6015    0.3697 N   0  0  0  0  0  0  0  0  0  0  0  0
  -23.1702  -14.6180   -1.2016 O   0  0  0  0  0  0  0  0  0  0  0  0
  -22.7303  -16.0869    0.7666 O   0  0  0  0  0  0  0  0  0  0  0  0
  -17.2693  -12.7775   -0.1439 C   0  0  1  0  0  0  0  0  0  0  0  0
  -18.5552  -12.6085   -0.8736 C   0  0  1  0  0  0  0  0  0  0  0  0
  -19.4812  -13.5372   -1.6132 C   0  0  0  0  0  0  0  0  0  0  0  0
  -20.2282  -14.3900   -0.5999 C   0  0  0  0  0  0  0  0  0  0  0  0
  -21.2039  -13.5725    0.0348 O   0  0  0  0  0  0  0  0  0  0  0  0
  1 11  1  0  0  0  0
  3 13  1  6  0  0  0
  3 17  2  0  0  0  0
  3 20  1  0  0  0  0
  3 26  1  0  0  0  0
  4 14  1  1  0  0  0
  4 18  1  0  0  0  0
  4 21  2  0  0  0  0
  4 20  1  0  0  0  0
  5 19  1  0  0  0  0
  5  7  1  0  0  0  0
  6  7  2  0  0  0  0
  6 12  1  0  0  0  0
  7  8  1  0  0  0  0
  8  9  1  0  0  0  0
  8 10  2  0  0  0  0
 10 11  1  0  0  0  0
 11 12  2  0  0  0  0
 15 23  1  0  0  0  0
 15 16  1  0  0  0  0
 16 19  1  0  0  0  0
 19 22  1  0  0  0  0
 22  2  1  6  0  0  0
 22 23  1  0  0  0  0
 23 24  1  1  0  0  0
 24 25  1  0  0  0  0
 25 26  1  0  0  0  0
M  CHG  2  13  -1  18  -1
M  END
>  <CHROM.1>
-175.94271288,-47.73699268,72.34211655,71.65340859,-105.17693526,73.74673206
76.80219290,-62.70421592,-19.04118137,-12.46248902,-0.30600093,0.51483414
-0.08385747,-0.06946154

>  <Name>
ligand

>  <RI>
0

>  <Rbt.Current_Directory>
/home/itssahil/PROJECTS/Mol_Feturizer/New_Systems/rnas/2GDI

>  <Rbt.Executable>
rbdock ($Id: //depot/dev/client3/rdock/2013.1/src/exe/rbdock.cxx#4 $)

>  <Rbt.Library>
libRbt.so (2013.1, Build901 2013/11/27)

>  <Rbt.Parameter_File>
/export/apps/rDock/src/rDock_2013.1_src/data/scripts/dock_solv.prm

>  <Rbt.Receptor>
prm/pocket_docking_3.prm

>  <SCORE>
-15.0936

>  <SCORE.INTER>
-15.1175

>  <SCORE.INTER.CONST>
1

>  <SCORE.INTER.POLAR>
0

>  <SCORE.INTER.ROT>
8

>  <SCORE.INTER.SOLV>
20.5615

>  <SCORE.INTER.VDW>
-25.8655

>  <SCORE.INTER.norm>
-0.581442

>  <SCORE.INTRA>
0.0238745

>  <SCORE.INTRA.DIHEDRAL>
-1.15006

>  <SCORE.INTRA.DIHEDRAL.0>
8.13976

>  <SCORE.INTRA.POLAR>
0

>  <SCORE.INTRA.POLAR.0>
0

>  <SCORE.INTRA.REPUL>
0

>  <SCORE.INTRA.REPUL.0>
0

>  <SCORE.INTRA.SOLV>
2.67113

>  <SCORE.INTRA.SOLV.lig_0>
-82.9561

>  <SCORE.INTRA.VDW>
-0.736664

>  <SCORE.INTRA.VDW.0>
-3.29171

>  <SCORE.INTRA.norm>
0.000918249

>  <SCORE.RESTR>
0

>  <SCORE.RESTR.CAVITY>
0

>  <SCORE.RESTR.norm>
0

>  <SCORE.SYSTEM>
0

>  <SCORE.SYSTEM.CONST>
0

>  <SCORE.SYSTEM.DIHEDRAL>
0

>  <SCORE.SYSTEM.SOLV>
0

>  <SCORE.SYSTEM.norm>
0

>  <SCORE.heavy>
26

>  <SCORE.norm>
-0.580524

>  <RMSD>
2.256

$$$$
ligand
 OpenBabel11021811433D
libRbt.so/2013.1/901 2013/11/27
 26 27  0  0  0  0  0  0  0  0999 V2000
  -12.3236   -7.9298   -0.6046 C   0  0  0  0  0  0  0  0  0  0  0  0
  -17.6864  -14.0926    0.3397 C   0  0  0  0  0  0  0  0  0  0  0  0
  -22.5315  -14.0547    1.9097 P   0  0  1  0  0  0  0  0  0  0  0  0
  -21.5123  -16.7254    2.4459 P   0  0  1  0  0  0  0  0  0  0  0  0
  -16.2149  -11.6993    1.3143 C   0  0  0  0  0  0  0  0  0  0  0  0
  -15.3471   -9.3424    1.0273 C   0  0  0  0  0  0  0  0  0  0  0  0
  -15.1905  -10.7034    0.7974 C   0  0  0  0  0  0  0  0  0  0  0  0
  -14.0749  -11.1358    0.0993 C   0  0  0  0  0  0  0  0  0  0  0  0
  -13.8797  -12.4534   -0.1503 N   0  0  0  0  0  0  0  0  0  0  0  0
  -13.1702  -10.2334   -0.3388 N   0  0  0  0  0  0  0  0  0  0  0  0
  -13.3454   -8.9145   -0.1042 C   0  0  0  0  0  0  0  0  0  0  0  0
  -14.4316   -8.4736    0.5763 N   0  0  0  0  0  0  0  0  0  0  0  0
  -23.6297  -14.8355    1.2368 O   0  5  0  0  0  0  0  0  0  0  0  0
  -21.1514  -17.0642    1.0322 O   0  0  0  0  0  0  0  0  0  0  0  0
  -19.5248  -10.5939   -0.5858 S   0  0  0  0  0  0  0  0  0  0  0  0
  -18.0458  -10.3743    0.2960 C   0  0  0  0  0  0  0  0  0  0  0  0
  -22.9411  -12.9933    2.8898 O   0  0  0  0  0  0  0  0  0  0  0  0
  -20.4279  -17.1925    3.3586 O   0  5  0  0  0  0  0  0  0  0  0  0
  -17.4735  -11.5773    0.5786 N   0  0  0  0  0  0  0  0  0  0  0  0
  -21.4926  -15.1089    2.5702 O   0  0  0  0  0  0  0  0  0  0  0  0
  -22.8811  -17.1557    2.8982 O   0  0  0  0  0  0  0  0  0  0  0  0
  -18.1461  -12.6739    0.1331 C   0  0  1  0  0  0  0  0  0  0  0  0
  -19.3875  -12.3080   -0.6014 C   0  0  1  0  0  0  0  0  0  0  0  0
  -20.4799  -13.0864   -1.2852 C   0  0  0  0  0  0  0  0  0  0  0  0
  -21.0774  -14.0669   -0.2882 C   0  0  0  0  0  0  0  0  0  0  0  0
  -21.6734  -13.3204    0.7656 O   0  0  0  0  0  0  0  0  0  0  0  0
  1 11  1  0  0  0  0
  3 13  1  6  0  0  0
  3 17  2  0  0  0  0
  3 20  1  0  0  0  0
  3 26  1  0  0  0  0
  4 14  1  6  0  0  0
  4 18  1  0  0  0  0
  4 21  2  0  0  0  0
  4 20  1  0  0  0  0
  5 19  1  0  0  0  0
  5  7  1  0  0  0  0
  6  7  2  0  0  0  0
  6 12  1  0  0  0  0
  7  8  1  0  0  0  0
  8  9  1  0  0  0  0
  8 10  2  0  0  0  0
 10 11  1  0  0  0  0
 11 12  2  0  0  0  0
 15 23  1  0  0  0  0
 15 16  1  0  0  0  0
 16 19  1  0  0  0  0
 19 22  1  0  0  0  0
 22  2  1  6  0  0  0
 22 23  1  0  0  0  0
 23 24  1  1  0  0  0
 24 25  1  0  0  0  0
 25 26  1  0  0  0  0
M  CHG  2  13  -1  18  -1
M  END
>  <CHROM.1>
5.06637890,-44.92659157,69.92684018,69.70009052,-122.97643534,63.33452542
173.51616967,-56.18405338,-18.90763817,-12.90268385,0.89333633,-0.66769517
0.03352782,2.76541877

>  <Name>
ligand

>  <RI>
0

>  <Rbt.Current_Directory>
/home/itssahil/PROJECTS/Mol_Feturizer/New_Systems/rnas/2GDI

>  <Rbt.Executable>
rbdock ($Id: //depot/dev/client3/rdock/2013.1/src/exe/rbdock.cxx#4 $)

>  <Rbt.Library>
libRbt.so (2013.1, Build901 2013/11/27)

>  <Rbt.Parameter_File>
/export/apps/rDock/src/rDock_2013.1_src/data/scripts/dock_solv.prm

>  <Rbt.Receptor>
prm/pocket_docking_3.prm

>  <SCORE>
-16.3163

>  <SCORE.INTER>
-15.7297

>  <SCORE.INTER.CONST>
1

>  <SCORE.INTER.POLAR>
0

>  <SCORE.INTER.ROT>
8

>  <SCORE.INTER.SOLV>
13.9315

>  <SCORE.INTER.VDW>
-24.0637

>  <SCORE.INTER.norm>
-0.604989

>  <SCORE.INTRA>
-0.586619

>  <SCORE.INTRA.DIHEDRAL>
-0.999893

>  <SCORE.INTRA.DIHEDRAL.0>
8.13976

>  <SCORE.INTRA.POLAR>
0

>  <SCORE.INTRA.POLAR.0>
0

>  <SCORE.INTRA.REPUL>
0

>  <SCORE.INTRA.REPUL.0>
0

>  <SCORE.INTRA.SOLV>
0.948448

>  <SCORE.INTRA.SOLV.lig_0>
-82.9561

>  <SCORE.INTRA.VDW>
-0.560896

>  <SCORE.INTRA.VDW.0>
-3.29171

>  <SCORE.INTRA.norm>
-0.0225623

>  <SCORE.RESTR>
0

>  <SCORE.RESTR.CAVITY>
0

>  <SCORE.RESTR.norm>
0

>  <SCORE.SYSTEM>
0

>  <SCORE.SYSTEM.CONST>
0

>  <SCORE.SYSTEM.DIHEDRAL>
0

>  <SCORE.SYSTEM.SOLV>
0

>  <SCORE.SYSTEM.norm>
0

>  <SCORE.heavy>
26

>  <SCORE.norm>
-0.627552

>  <RMSD>
2.257

$$$$
ligand
 OpenBabel11021811433D
libRbt.so/2013.1/901 2013/11/27
 26 27  0  0  0  0  0  0  0  0999 V2000
  -12.6969   -6.8209   -0.1718 C   0  0  0  0  0  0  0  0  0  0  0  0
  -17.6165  -12.4543   -1.2962 C   0  0  0  0  0  0  0  0  0  0  0  0
  -22.1138  -14.6096    0.1484 P   0  0  1  0  0  0  0  0  0  0  0  0
  -22.3873  -17.3928    0.9469 P   0  0  1  0  0  0  0  0  0  0  0  0
  -15.1198  -12.0150    0.2582 C   0  0  0  0  0  0  0  0  0  0  0  0
  -13.0991  -10.4998    0.1513 C   0  0  0  0  0  0  0  0  0  0  0  0
  -14.4811  -10.6403    0.1548 C   0  0  0  0  0  0  0  0  0  0  0  0
  -15.2653   -9.5033    0.0486 C   0  0  0  0  0  0  0  0  0  0  0  0
  -16.6177   -9.5902    0.0488 N   0  0  0  0  0  0  0  0  0  0  0  0
  -14.6754   -8.2927   -0.0562 N   0  0  0  0  0  0  0  0  0  0  0  0
  -13.3290   -8.1815   -0.0557 C   0  0  0  0  0  0  0  0  0  0  0  0
  -12.5462   -9.2832    0.0486 N   0  0  0  0  0  0  0  0  0  0  0  0
  -21.6914  -13.9139   -1.1189 O   0  5  0  0  0  0  0  0  0  0  0  0
  -21.1221  -18.1106    1.3038 O   0  0  0  0  0  0  0  0  0  0  0  0
  -18.2917  -11.6188    2.6182 S   0  0  0  0  0  0  0  0  0  0  0  0
  -16.6052  -11.6441    2.2077 C   0  0  0  0  0  0  0  0  0  0  0  0
  -23.4482  -14.2371    0.7275 O   0  0  0  0  0  0  0  0  0  0  0  0
  -22.9129  -16.6880    2.1527 O   0  5  0  0  0  0  0  0  0  0  0  0
  -16.4381  -11.9282    0.8863 N   0  0  0  0  0  0  0  0  0  0  0  0
  -21.9899  -16.2084   -0.0866 O   0  0  0  0  0  0  0  0  0  0  0  0
  -23.4363  -18.2137    0.2475 O   0  0  0  0  0  0  0  0  0  0  0  0
  -17.5803  -12.1297    0.1734 C   0  0  1  0  0  0  0  0  0  0  0  0
  -18.7985  -11.9746    1.0139 C   0  0  1  0  0  0  0  0  0  0  0  0
  -20.2787  -12.0833    0.7607 C   0  0  0  0  0  0  0  0  0  0  0  0
  -20.8902  -12.9834    1.8229 C   0  0  0  0  0  0  0  0  0  0  0  0
  -21.0151  -14.2913    1.2780 O   0  0  0  0  0  0  0  0  0  0  0  0
  1 11  1  0  0  0  0
  3 13  1  6  0  0  0
  3 17  2  0  0  0  0
  3 20  1  0  0  0  0
  3 26  1  0  0  0  0
  4 14  1  1  0  0  0
  4 18  1  0  0  0  0
  4 21  2  0  0  0  0
  4 20  1  0  0  0  0
  5 19  1  0  0  0  0
  5  7  1  0  0  0  0
  6  7  2  0  0  0  0
  6 12  1  0  0  0  0
  7  8  1  0  0  0  0
  8  9  1  0  0  0  0
  8 10  2  0  0  0  0
 10 11  1  0  0  0  0
 11 12  2  0  0  0  0
 15 23  1  0  0  0  0
 15 16  1  0  0  0  0
 16 19  1  0  0  0  0
 19 22  1  0  0  0  0
 22  2  1  6  0  0  0
 22 23  1  0  0  0  0
 23 24  1  1  0  0  0
 24 25  1  0  0  0  0
 25 26  1  0  0  0  0
M  CHG  2  13  -1  18  -1
M  END
>  <CHROM.1>
-177.08609613,-70.54017109,152.10980863,-115.23723961,-48.33217425,-97.47374322
-71.55859486,69.63242758,-18.78094210,-12.91908425,0.63376459,0.70391438
0.10554917,0.04691249

>  <Name>
ligand

>  <RI>
0

>  <Rbt.Current_Directory>
/home/itssahil/PROJECTS/Mol_Feturizer/New_Systems/rnas/2GDI

>  <Rbt.Executable>
rbdock ($Id: //depot/dev/client3/rdock/2013.1/src/exe/rbdock.cxx#4 $)

>  <Rbt.Library>
libRbt.so (2013.1, Build901 2013/11/27)

>  <Rbt.Parameter_File>
/export/apps/rDock/src/rDock_2013.1_src/data/scripts/dock_solv.prm

>  <Rbt.Receptor>
prm/pocket_docking_2.prm

>  <SCORE>
-8.20286

>  <SCORE.INTER>
-15.5951

>  <SCORE.INTER.CONST>
1

>  <SCORE.INTER.POLAR>
0

>  <SCORE.INTER.ROT>
8

>  <SCORE.INTER.SOLV>
9.89858

>  <SCORE.INTER.VDW>
-22.6296

>  <SCORE.INTER.norm>
-0.599812

>  <SCORE.INTRA>
7.32203

>  <SCORE.INTRA.DIHEDRAL>
4.01994

>  <SCORE.INTRA.DIHEDRAL.0>
8.13976

>  <SCORE.INTRA.POLAR>
0

>  <SCORE.INTRA.POLAR.0>
0

>  <SCORE.INTRA.REPUL>
0

>  <SCORE.INTRA.REPUL.0>
0

>  <SCORE.INTRA.SOLV>
7.68388

>  <SCORE.INTRA.SOLV.lig_0>
-82.9561

>  <SCORE.INTRA.VDW>
1.47013

>  <SCORE.INTRA.VDW.0>
-3.29171

>  <SCORE.INTRA.norm>
0.281617

>  <SCORE.RESTR>
0.0702133

>  <SCORE.RESTR.CAVITY>
0.0702133

>  <SCORE.RESTR.norm>
0.00270051

>  <SCORE.SYSTEM>
0

>  <SCORE.SYSTEM.CONST>
0

>  <SCORE.SYSTEM.DIHEDRAL>
0

>  <SCORE.SYSTEM.SOLV>
0

>  <SCORE.SYSTEM.norm>
0

>  <SCORE.heavy>
26

>  <SCORE.norm>
-0.315495

>  <RMSD>
2.262

$$$$
ligand
 OpenBabel11021811433D
libRbt.so/2013.1/901 2013/11/27
 26 27  0  0  0  0  0  0  0  0999 V2000
  -12.7272   -8.0663   -0.3419 C   0  0  0  0  0  0  0  0  0  0  0  0
  -17.7020  -13.7928   -0.5029 C   0  0  0  0  0  0  0  0  0  0  0  0
  -22.1927  -14.9117    2.8029 P   0  0  1  0  0  0  0  0  0  0  0  0
  -20.3298  -17.1450    2.8277 P   0  0  1  0  0  0  0  0  0  0  0  0
  -15.8764  -12.5199    1.4695 C   0  0  0  0  0  0  0  0  0  0  0  0
  -15.4718  -10.0393    1.1991 C   0  0  0  0  0  0  0  0  0  0  0  0
  -15.0477  -11.3440    0.9809 C   0  0  0  0  0  0  0  0  0  0  0  0
  -13.8475  -11.5515    0.3210 C   0  0  0  0  0  0  0  0  0  0  0  0
  -13.3932  -12.8061    0.0842 N   0  0  0  0  0  0  0  0  0  0  0  0
  -13.1206  -10.4905   -0.0922 N   0  0  0  0  0  0  0  0  0  0  0  0
  -13.5550   -9.2308    0.1302 C   0  0  0  0  0  0  0  0  0  0  0  0
  -14.7274   -9.0092    0.7734 N   0  0  0  0  0  0  0  0  0  0  0  0
  -23.2447  -15.7465    2.1210 O   0  5  0  0  0  0  0  0  0  0  0  0
  -19.5454  -17.8165    3.9128 O   0  0  0  0  0  0  0  0  0  0  0  0
  -19.5810  -11.1698    1.9601 S   0  0  0  0  0  0  0  0  0  0  0  0
  -17.8813  -11.3102    2.2831 C   0  0  0  0  0  0  0  0  0  0  0  0
  -22.6649  -13.8464    3.7500 O   0  0  0  0  0  0  0  0  0  0  0  0
  -21.3936  -18.0716    2.3408 O   0  5  0  0  0  0  0  0  0  0  0  0
  -17.3035  -12.2004    1.4297 N   0  0  0  0  0  0  0  0  0  0  0  0
  -21.1324  -15.9127    3.5104 O   0  0  0  0  0  0  0  0  0  0  0  0
  -19.5249  -16.5417    1.7091 O   0  0  0  0  0  0  0  0  0  0  0  0
  -18.1381  -12.7841    0.5262 C   0  0  1  0  0  0  0  0  0  0  0  0
  -19.5372  -12.2955    0.6608 C   0  0  1  0  0  0  0  0  0  0  0  0
  -20.8325  -12.5886   -0.0487 C   0  0  0  0  0  0  0  0  0  0  0  0
  -21.8595  -13.0399    0.9779 C   0  0  0  0  0  0  0  0  0  0  0  0
  -21.3343  -14.1696    1.6642 O   0  0  0  0  0  0  0  0  0  0  0  0
  1 11  1  0  0  0  0
  3 13  1  6  0  0  0
  3 17  2  0  0  0  0
  3 20  1  0  0  0  0
  3 26  1  0  0  0  0
  4 14  1  1  0  0  0
  4 18  1  0  0  0  0
  4 21  2  0  0  0  0
  4 20  1  0  0  0  0
  5 19  1  0  0  0  0
  5  7  1  0  0  0  0
  6  7  2  0  0  0  0
  6 12  1  0  0  0  0
  7  8  1  0  0  0  0
  8  9  1  0  0  0  0
  8 10  2  0  0  0  0
 10 11  1  0  0  0  0
 11 12  2  0  0  0  0
 15 23  1  0  0  0  0
 15 16  1  0  0  0  0
 16 19  1  0  0  0  0
 19 22  1  0  0  0  0
 22  2  1  6  0  0  0
 22 23  1  0  0  0  0
 23 24  1  1  0  0  0
 24 25  1  0  0  0  0
 25 26  1  0  0  0  0
M  CHG  2  13  -1  18  -1
M  END
>  <CHROM.1>
52.69939092,-70.40048280,32.38630057,-176.28028619,-55.07726194,-56.97611021
-178.75297852,76.30261164,-18.62071388,-13.32984269,1.59313831,0.69055232
0.16373717,-0.18683556

>  <Name>
ligand

>  <RI>
0

>  <Rbt.Current_Directory>
/home/itssahil/PROJECTS/Mol_Feturizer/New_Systems/rnas/2GDI

>  <Rbt.Executable>
rbdock ($Id: //depot/dev/client3/rdock/2013.1/src/exe/rbdock.cxx#4 $)

>  <Rbt.Library>
libRbt.so (2013.1, Build901 2013/11/27)

>  <Rbt.Parameter_File>
/export/apps/rDock/src/rDock_2013.1_src/data/scripts/dock_solv.prm

>  <Rbt.Receptor>
prm/pocket_docking_5.prm

>  <SCORE>
-20.0962

>  <SCORE.INTER>
-19.8584

>  <SCORE.INTER.CONST>
1

>  <SCORE.INTER.POLAR>
0

>  <SCORE.INTER.ROT>
8

>  <SCORE.INTER.SOLV>
18.2876

>  <SCORE.INTER.VDW>
-28.2681

>  <SCORE.INTER.norm>
-0.763783

>  <SCORE.INTRA>
-0.237822

>  <SCORE.INTRA.DIHEDRAL>
-2.66381

>  <SCORE.INTRA.DIHEDRAL.0>
8.13976

>  <SCORE.INTRA.POLAR>
0

>  <SCORE.INTRA.POLAR.0>
0

>  <SCORE.INTRA.REPUL>
0

>  <SCORE.INTRA.REPUL.0>
0

>  <SCORE.INTRA.SOLV>
2.16092

>  <SCORE.INTRA.SOLV.lig_0>
-82.9561

>  <SCORE.INTRA.VDW>
0.013623

>  <SCORE.INTRA.VDW.0>
-3.29171

>  <SCORE.INTRA.norm>
-0.00914702

>  <SCORE.RESTR>
0

>  <SCORE.RESTR.CAVITY>
0

>  <SCORE.RESTR.norm>
0

>  <SCORE.SYSTEM>
0

>  <SCORE.SYSTEM.CONST>
0

>  <SCORE.SYSTEM.DIHEDRAL>
0

>  <SCORE.SYSTEM.SOLV>
0

>  <SCORE.SYSTEM.norm>
0

>  <SCORE.heavy>
26

>  <SCORE.norm>
-0.77293

>  <RMSD>
2.322

$$$$
ligand
 OpenBabel11021811433D
libRbt.so/2013.1/901 2013/11/27
 26 27  0  0  0  0  0  0  0  0999 V2000
  -13.0975   -8.1022    0.3434 C   0  0  0  0  0  0  0  0  0  0  0  0
  -19.2411  -13.5257   -1.1674 C   0  0  0  0  0  0  0  0  0  0  0  0
  -22.5580  -15.5985    1.4145 P   0  0  1  0  0  0  0  0  0  0  0  0
  -21.6780  -18.3006    0.7956 P   0  0  1  0  0  0  0  0  0  0  0  0
  -16.6555  -12.6008   -0.0262 C   0  0  0  0  0  0  0  0  0  0  0  0
  -14.3723  -11.5913    0.3715 C   0  0  0  0  0  0  0  0  0  0  0  0
  -15.7185  -11.4096    0.0813 C   0  0  0  0  0  0  0  0  0  0  0  0
  -16.1870  -10.1218   -0.1216 C   0  0  0  0  0  0  0  0  0  0  0  0
  -17.4924   -9.8947   -0.4060 N   0  0  0  0  0  0  0  0  0  0  0  0
  -15.3328   -9.0791   -0.0347 N   0  0  0  0  0  0  0  0  0  0  0  0
  -14.0278   -9.2812    0.2506 C   0  0  0  0  0  0  0  0  0  0  0  0
  -13.5523  -10.5342    0.4531 N   0  0  0  0  0  0  0  0  0  0  0  0
  -22.5655  -15.1798   -0.0322 O   0  5  0  0  0  0  0  0  0  0  0  0
  -20.4595  -19.0910    1.1617 O   0  0  0  0  0  0  0  0  0  0  0  0
  -19.6661  -11.4737    2.3090 S   0  0  0  0  0  0  0  0  0  0  0  0
  -18.0121  -11.6251    1.8048 C   0  0  0  0  0  0  0  0  0  0  0  0
  -23.8874  -15.8420    2.0687 O   0  0  0  0  0  0  0  0  0  0  0  0
  -22.8866  -18.9602    1.3713 O   0  5  0  0  0  0  0  0  0  0  0  0
  -17.9292  -12.3199    0.6365 N   0  0  0  0  0  0  0  0  0  0  0  0
  -21.5744  -16.8777    1.5660 O   0  0  0  0  0  0  0  0  0  0  0  0
  -21.8343  -17.9676   -0.6632 O   0  0  0  0  0  0  0  0  0  0  0  0
  -19.1121  -12.7441    0.1128 C   0  0  1  0  0  0  0  0  0  0  0  0
  -20.2730  -12.3297    0.9466 C   0  0  1  0  0  0  0  0  0  0  0  0
  -21.7637  -12.5187    0.8522 C   0  0  0  0  0  0  0  0  0  0  0  0
  -22.2671  -13.0900    2.1684 C   0  0  0  0  0  0  0  0  0  0  0  0
  -21.8318  -14.4409    2.2614 O   0  0  0  0  0  0  0  0  0  0  0  0
  1 11  1  0  0  0  0
  3 13  1  6  0  0  0
  3 17  2  0  0  0  0
  3 20  1  0  0  0  0
  3 26  1  0  0  0  0
  4 14  1  1  0  0  0
  4 18  1  0  0  0  0
  4 21  2  0  0  0  0
  4 20  1  0  0  0  0
  5 19  1  0  0  0  0
  5  7  1  0  0  0  0
  6  7  2  0  0  0  0
  6 12  1  0  0  0  0
  7  8  1  0  0  0  0
  8  9  1  0  0  0  0
  8 10  2  0  0  0  0
 10 11  1  0  0  0  0
 11 12  2  0  0  0  0
 15 23  1  0  0  0  0
 15 16  1  0  0  0  0
 16 19  1  0  0  0  0
 19 22  1  0  0  0  0
 22  2  1  6  0  0  0
 22 23  1  0  0  0  0
 23 24  1  1  0  0  0
 24 25  1  0  0  0  0
 25 26  1  0  0  0  0
M  CHG  2  13  -1  18  -1
M  END
>  <CHROM.1>
-57.64026891,-38.71836424,137.55109871,173.91041221,-50.89740698,-71.34004387
-76.14975581,53.54706116,-19.44519276,-13.64858117,0.82798257,-0.74908307
-0.28816642,-2.95705340

>  <Name>
ligand

>  <RI>
0

>  <Rbt.Current_Directory>
/home/itssahil/PROJECTS/Mol_Feturizer/New_Systems/rnas/2GDI

>  <Rbt.Executable>
rbdock ($Id: //depot/dev/client3/rdock/2013.1/src/exe/rbdock.cxx#4 $)

>  <Rbt.Library>
libRbt.so (2013.1, Build901 2013/11/27)

>  <Rbt.Parameter_File>
/export/apps/rDock/src/rDock_2013.1_src/data/scripts/dock_solv.prm

>  <Rbt.Receptor>
prm/pocket_docking_3.prm

>  <SCORE>
-8.95048

>  <SCORE.INTER>
-12.6874

>  <SCORE.INTER.CONST>
1

>  <SCORE.INTER.POLAR>
0

>  <SCORE.INTER.ROT>
8

>  <SCORE.INTER.SOLV>
8.84179

>  <SCORE.INTER.VDW>
-20.3388

>  <SCORE.INTER.norm>
-0.487976

>  <SCORE.INTRA>
3.70978

>  <SCORE.INTRA.DIHEDRAL>
-0.875532

>  <SCORE.INTRA.DIHEDRAL.0>
8.13976

>  <SCORE.INTRA.POLAR>
0

>  <SCORE.INTRA.POLAR.0>
0

>  <SCORE.INTRA.REPUL>
0

>  <SCORE.INTRA.REPUL.0>
0

>  <SCORE.INTRA.SOLV>
6.94935

>  <SCORE.INTRA.SOLV.lig_0>
-82.9561

>  <SCORE.INTRA.VDW>
0.672872

>  <SCORE.INTRA.VDW.0>
-3.29171

>  <SCORE.INTRA.norm>
0.142684

>  <SCORE.RESTR>
0.0271176

>  <SCORE.RESTR.CAVITY>
0.0271176

>  <SCORE.RESTR.norm>
0.00104298

>  <SCORE.SYSTEM>
0

>  <SCORE.SYSTEM.CONST>
0

>  <SCORE.SYSTEM.DIHEDRAL>
0

>  <SCORE.SYSTEM.SOLV>
0

>  <SCORE.SYSTEM.norm>
0

>  <SCORE.heavy>
26

>  <SCORE.norm>
-0.344249

>  <RMSD>
2.361

$$$$
ligand
 OpenBabel11021811433D
libRbt.so/2013.1/901 2013/11/27
 26 27  0  0  0  0  0  0  0  0999 V2000
  -12.2783   -7.7667   -0.7166 C   0  0  0  0  0  0  0  0  0  0  0  0
  -17.2968  -14.0521   -0.0809 C   0  0  0  0  0  0  0  0  0  0  0  0
  -22.1377  -14.3718    1.8047 P   0  0  1  0  0  0  0  0  0  0  0  0
  -20.6610  -16.8457    2.2023 P   0  0  1  0  0  0  0  0  0  0  0  0
  -15.9492  -11.7425    1.2202 C   0  0  0  0  0  0  0  0  0  0  0  0
  -15.2408   -9.3398    0.8800 C   0  0  0  0  0  0  0  0  0  0  0  0
  -14.9827  -10.6927    0.6984 C   0  0  0  0  0  0  0  0  0  0  0  0
  -13.8201  -11.0659    0.0442 C   0  0  0  0  0  0  0  0  0  0  0  0
  -13.5261  -12.3733   -0.1574 N   0  0  0  0  0  0  0  0  0  0  0  0
  -12.9687  -10.1154   -0.3988 N   0  0  0  0  0  0  0  0  0  0  0  0
  -13.2425   -8.8057   -0.2117 C   0  0  0  0  0  0  0  0  0  0  0  0
  -14.3759   -8.4224    0.4254 N   0  0  0  0  0  0  0  0  0  0  0  0
  -23.3371  -15.0270    1.1717 O   0  5  0  0  0  0  0  0  0  0  0  0
  -21.5478  -17.4448    1.1543 O   0  0  0  0  0  0  0  0  0  0  0  0
  -19.4482  -10.6163   -0.2884 S   0  0  0  0  0  0  0  0  0  0  0  0
  -17.9362  -10.4245    0.5422 C   0  0  0  0  0  0  0  0  0  0  0  0
  -22.3698  -13.0999    2.5683 O   0  0  0  0  0  0  0  0  0  0  0  0
  -19.3831  -16.4005    1.5731 O   0  5  0  0  0  0  0  0  0  0  0  0
  -17.2582  -11.6050    0.5816 N   0  0  0  0  0  0  0  0  0  0  0  0
  -21.3735  -15.4797    2.7076 O   0  0  0  0  0  0  0  0  0  0  0  0
  -20.4446  -17.6774    3.4370 O   0  0  0  0  0  0  0  0  0  0  0  0
  -17.8740  -12.6633   -0.0136 C   0  0  1  0  0  0  0  0  0  0  0  0
  -19.1840  -12.2849   -0.6094 C   0  0  1  0  0  0  0  0  0  0  0  0
  -20.2568  -13.0261   -1.3623 C   0  0  0  0  0  0  0  0  0  0  0  0
  -21.4647  -13.1915   -0.4535 C   0  0  0  0  0  0  0  0  0  0  0  0
  -21.0891  -14.0243    0.6367 O   0  0  0  0  0  0  0  0  0  0  0  0
  1 11  1  0  0  0  0
  3 13  1  6  0  0  0
  3 17  2  0  0  0  0
  3 20  1  0  0  0  0
  3 26  1  0  0  0  0
  4 14  1  6  0  0  0
  4 18  1  0  0  0  0
  4 21  2  0  0  0  0
  4 20  1  0  0  0  0
  5 19  1  0  0  0  0
  5  7  1  0  0  0  0
  6  7  2  0  0  0  0
  6 12  1  0  0  0  0
  7  8  1  0  0  0  0
  8  9  1  0  0  0  0
  8 10  2  0  0  0  0
 10 11  1  0  0  0  0
 11 12  2  0  0  0  0
 15 23  1  0  0  0  0
 15 16  1  0  0  0  0
 16 19  1  0  0  0  0
 19 22  1  0  0  0  0
 22  2  1  6  0  0  0
 22 23  1  0  0  0  0
 23 24  1  1  0  0  0
 24 25  1  0  0  0  0
 25 26  1  0  0  0  0
M  CHG  2  13  -1  18  -1
M  END
>  <CHROM.1>
63.34512026,-52.12769730,61.70200760,-40.59243531,-70.81915078,-64.79701957
178.65634631,57.84341857,-18.54879290,-12.94382781,0.78608511,0.70295600
-0.03114759,-0.33472923

>  <Name>
ligand

>  <RI>
0

>  <Rbt.Current_Directory>
/home/itssahil/PROJECTS/Mol_Feturizer/New_Systems/rnas/2GDI

>  <Rbt.Executable>
rbdock ($Id: //depot/dev/client3/rdock/2013.1/src/exe/rbdock.cxx#4 $)

>  <Rbt.Library>
libRbt.so (2013.1, Build901 2013/11/27)

>  <Rbt.Parameter_File>
/export/apps/rDock/src/rDock_2013.1_src/data/scripts/dock_solv.prm

>  <Rbt.Receptor>
prm/pocket_docking_3.prm

>  <SCORE>
-18.1488

>  <SCORE.INTER>
-16.8078

>  <SCORE.INTER.CONST>
1

>  <SCORE.INTER.POLAR>
0

>  <SCORE.INTER.ROT>
8

>  <SCORE.INTER.SOLV>
17.9676

>  <SCORE.INTER.VDW>
-26.1278

>  <SCORE.INTER.norm>
-0.646456

>  <SCORE.INTRA>
-1.34095

>  <SCORE.INTRA.DIHEDRAL>
-2.31621

>  <SCORE.INTRA.DIHEDRAL.0>
8.13976

>  <SCORE.INTRA.POLAR>
0

>  <SCORE.INTRA.POLAR.0>
0

>  <SCORE.INTRA.REPUL>
0

>  <SCORE.INTRA.REPUL.0>
0

>  <SCORE.INTRA.SOLV>
0.935853

>  <SCORE.INTRA.SOLV.lig_0>
-82.9561

>  <SCORE.INTRA.VDW>
-0.650775

>  <SCORE.INTRA.VDW.0>
-3.29171

>  <SCORE.INTRA.norm>
-0.0515752

>  <SCORE.RESTR>
0

>  <SCORE.RESTR.CAVITY>
0

>  <SCORE.RESTR.norm>
0

>  <SCORE.SYSTEM>
0

>  <SCORE.SYSTEM.CONST>
0

>  <SCORE.SYSTEM.DIHEDRAL>
0

>  <SCORE.SYSTEM.SOLV>
0

>  <SCORE.SYSTEM.norm>
0

>  <SCORE.heavy>
26

>  <SCORE.norm>
-0.698031

>  <RMSD>
2.388

$$$$
ligand
 OpenBabel11021811433D
libRbt.so/2013.1/901 2013/11/27
 26 27  0  0  0  0  0  0  0  0999 V2000
  -12.1574   -7.7540   -0.6932 C   0  0  0  0  0  0  0  0  0  0  0  0
  -17.8074  -13.7429    0.3328 C   0  0  0  0  0  0  0  0  0  0  0  0
  -21.8109  -14.7505    1.9130 P   0  0  1  0  0  0  0  0  0  0  0  0
  -23.0777  -13.6396    4.2837 P   0  0  1  0  0  0  0  0  0  0  0  0
  -16.0899  -11.4832    1.2201 C   0  0  0  0  0  0  0  0  0  0  0  0
  -15.2004   -9.1349    0.9294 C   0  0  0  0  0  0  0  0  0  0  0  0
  -15.0546  -10.4980    0.7046 C   0  0  0  0  0  0  0  0  0  0  0  0
  -13.9396  -10.9423    0.0130 C   0  0  0  0  0  0  0  0  0  0  0  0
  -13.7547  -12.2623   -0.2314 N   0  0  0  0  0  0  0  0  0  0  0  0
  -13.0251  -10.0492   -0.4238 N   0  0  0  0  0  0  0  0  0  0  0  0
  -13.1900   -8.7281   -0.1943 C   0  0  0  0  0  0  0  0  0  0  0  0
  -14.2754   -8.2756    0.4798 N   0  0  0  0  0  0  0  0  0  0  0  0
  -20.9445  -15.8664    2.4351 O   0  5  0  0  0  0  0  0  0  0  0  0
  -24.4303  -13.6708    3.6412 O   0  0  0  0  0  0  0  0  0  0  0  0
  -19.4357  -10.1012   -0.4178 S   0  0  0  0  0  0  0  0  0  0  0  0
  -17.8838  -10.0078    0.3541 C   0  0  0  0  0  0  0  0  0  0  0  0
  -23.1346  -15.1283    1.3132 O   0  0  0  0  0  0  0  0  0  0  0  0
  -22.8511  -14.9171    5.0212 O   0  5  0  0  0  0  0  0  0  0  0  0
  -17.3860  -11.2550    0.5811 N   0  0  0  0  0  0  0  0  0  0  0  0
  -21.9808  -13.6489    3.0897 O   0  0  0  0  0  0  0  0  0  0  0  0
  -22.7703  -12.4238    5.1147 O   0  0  0  0  0  0  0  0  0  0  0  0
  -18.1712  -12.2905    0.1755 C   0  0  1  0  0  0  0  0  0  0  0  0
  -19.4314  -11.8203   -0.4612 C   0  0  1  0  0  0  0  0  0  0  0  0
  -20.6272  -12.5031   -1.0700 C   0  0  0  0  0  0  0  0  0  0  0  0
  -21.5791  -12.9057    0.0453 C   0  0  0  0  0  0  0  0  0  0  0  0
  -20.9881  -13.9792    0.7674 O   0  0  0  0  0  0  0  0  0  0  0  0
  1 11  1  0  0  0  0
  3 13  1  1  0  0  0
  3 17  2  0  0  0  0
  3 20  1  0  0  0  0
  3 26  1  0  0  0  0
  4 14  1  6  0  0  0
  4 18  1  0  0  0  0
  4 21  2  0  0  0  0
  4 20  1  0  0  0  0
  5 19  1  0  0  0  0
  5  7  1  0  0  0  0
  6  7  2  0  0  0  0
  6 12  1  0  0  0  0
  7  8  1  0  0  0  0
  8  9  1  0  0  0  0
  8 10  2  0  0  0  0
 10 11  1  0  0  0  0
 11 12  2  0  0  0  0
 15 23  1  0  0  0  0
 15 16  1  0  0  0  0
 16 19  1  0  0  0  0
 19 22  1  0  0  0  0
 22  2  1  6  0  0  0
 22 23  1  0  0  0  0
 23 24  1  1  0  0  0
 24 25  1  0  0  0  0
 25 26  1  0  0  0  0
M  CHG  2  13  -1  18  -1
M  END
>  <CHROM.1>
-86.02565422,-41.19302899,63.72685136,-57.18135773,-96.59979673,-70.99394042
-173.09922374,177.22761948,-19.05400276,-12.20759143,1.29568059,-0.10004986
0.56986239,1.13428921

>  <Name>
ligand

>  <RI>
0

>  <Rbt.Current_Directory>
/home/itssahil/PROJECTS/Mol_Feturizer/New_Systems/rnas/2GDI

>  <Rbt.Executable>
rbdock ($Id: //depot/dev/client3/rdock/2013.1/src/exe/rbdock.cxx#4 $)

>  <Rbt.Library>
libRbt.so (2013.1, Build901 2013/11/27)

>  <Rbt.Parameter_File>
/export/apps/rDock/src/rDock_2013.1_src/data/scripts/dock_solv.prm

>  <Rbt.Receptor>
prm/pocket_docking_4.prm

>  <SCORE>
-17.2218

>  <SCORE.INTER>
-16.6504

>  <SCORE.INTER.CONST>
1

>  <SCORE.INTER.POLAR>
0

>  <SCORE.INTER.ROT>
8

>  <SCORE.INTER.SOLV>
19.3495

>  <SCORE.INTER.VDW>
-26.4834

>  <SCORE.INTER.norm>
-0.640399

>  <SCORE.INTRA>
-0.571421

>  <SCORE.INTRA.DIHEDRAL>
-2.02127

>  <SCORE.INTRA.DIHEDRAL.0>
8.13976

>  <SCORE.INTRA.POLAR>
0

>  <SCORE.INTRA.POLAR.0>
0

>  <SCORE.INTRA.REPUL>
0

>  <SCORE.INTRA.REPUL.0>
0

>  <SCORE.INTRA.SOLV>
1.12316

>  <SCORE.INTRA.SOLV.lig_0>
-82.9561

>  <SCORE.INTRA.VDW>
-0.122368

>  <SCORE.INTRA.VDW.0>
-3.29171

>  <SCORE.INTRA.norm>
-0.0219777

>  <SCORE.RESTR>
0

>  <SCORE.RESTR.CAVITY>
0

>  <SCORE.RESTR.norm>
0

>  <SCORE.SYSTEM>
0

>  <SCORE.SYSTEM.CONST>
0

>  <SCORE.SYSTEM.DIHEDRAL>
0

>  <SCORE.SYSTEM.SOLV>
0

>  <SCORE.SYSTEM.norm>
0

>  <SCORE.heavy>
26

>  <SCORE.norm>
-0.662376

>  <RMSD>
2.428

$$$$
ligand
 OpenBabel11021811433D
libRbt.so/2013.1/901 2013/11/27
 26 27  0  0  0  0  0  0  0  0999 V2000
  -12.6449   -8.1270   -0.3948 C   0  0  0  0  0  0  0  0  0  0  0  0
  -17.8659  -14.0111   -0.1894 C   0  0  0  0  0  0  0  0  0  0  0  0
  -21.9896  -15.4996   -0.8145 P   0  0  1  0  0  0  0  0  0  0  0  0
  -20.6331  -17.4700    0.8397 P   0  0  1  0  0  0  0  0  0  0  0  0
  -15.9124  -12.4808    1.4493 C   0  0  0  0  0  0  0  0  0  0  0  0
  -15.4417  -10.0141    1.1598 C   0  0  0  0  0  0  0  0  0  0  0  0
  -15.0524  -11.3313    0.9521 C   0  0  0  0  0  0  0  0  0  0  0  0
  -13.8579  -11.5757    0.2945 C   0  0  0  0  0  0  0  0  0  0  0  0
  -13.4372  -12.8438    0.0677 N   0  0  0  0  0  0  0  0  0  0  0  0
  -13.1029  -10.5378   -0.1265 N   0  0  0  0  0  0  0  0  0  0  0  0
  -13.5037   -9.2652    0.0859 C   0  0  0  0  0  0  0  0  0  0  0  0
  -14.6700   -9.0075    0.7266 N   0  0  0  0  0  0  0  0  0  0  0  0
  -22.7580  -15.5604   -2.1085 O   0  5  0  0  0  0  0  0  0  0  0  0
  -19.3702  -16.6666    0.8951 O   0  0  0  0  0  0  0  0  0  0  0  0
  -19.5488  -10.9304    1.8487 S   0  0  0  0  0  0  0  0  0  0  0  0
  -17.8404  -11.0745    2.1200 C   0  0  0  0  0  0  0  0  0  0  0  0
  -22.6777  -14.8798    0.3675 O   0  0  0  0  0  0  0  0  0  0  0  0
  -21.5082  -17.0955    1.9892 O   0  5  0  0  0  0  0  0  0  0  0  0
  -17.3299  -12.1210    1.4135 N   0  0  0  0  0  0  0  0  0  0  0  0
  -21.4482  -16.9895   -0.4770 O   0  0  0  0  0  0  0  0  0  0  0  0
  -20.4623  -18.9579    0.6971 O   0  0  0  0  0  0  0  0  0  0  0  0
  -18.2231  -12.8226    0.6629 C   0  0  1  0  0  0  0  0  0  0  0  0
  -19.5996  -12.2668    0.7677 C   0  0  1  0  0  0  0  0  0  0  0  0
  -20.9351  -12.6317    0.1759 C   0  0  0  0  0  0  0  0  0  0  0  0
  -20.7100  -13.2289   -1.2043 C   0  0  0  0  0  0  0  0  0  0  0  0
  -20.6532  -14.6439   -1.0718 O   0  0  0  0  0  0  0  0  0  0  0  0
  1 11  1  0  0  0  0
  3 13  1  6  0  0  0
  3 17  2  0  0  0  0
  3 20  1  0  0  0  0
  3 26  1  0  0  0  0
  4 14  1  1  0  0  0
  4 18  1  0  0  0  0
  4 21  2  0  0  0  0
  4 20  1  0  0  0  0
  5 19  1  0  0  0  0
  5  7  1  0  0  0  0
  6  7  2  0  0  0  0
  6 12  1  0  0  0  0
  7  8  1  0  0  0  0
  8  9  1  0  0  0  0
  8 10  2  0  0  0  0
 10 11  1  0  0  0  0
 11 12  2  0  0  0  0
 15 23  1  0  0  0  0
 15 16  1  0  0  0  0
 16 19  1  0  0  0  0
 19 22  1  0  0  0  0
 22  2  1  6  0  0  0
 22 23  1  0  0  0  0
 23 24  1  1  0  0  0
 24 25  1  0  0  0  0
 25 26  1  0  0  0  0
M  CHG  2  13  -1  18  -1
M  END
>  <CHROM.1>
-176.64092289,-60.25796712,32.05553218,-59.58597941,149.42235829,94.39299858
74.45903650,74.55091261,-18.59711986,-13.49268574,0.39106663,0.72271357,-0.05571241
0.01603400

>  <Name>
ligand

>  <RI>
0

>  <Rbt.Current_Directory>
/home/itssahil/PROJECTS/Mol_Feturizer/New_Systems/rnas/2GDI

>  <Rbt.Executable>
rbdock ($Id: //depot/dev/client3/rdock/2013.1/src/exe/rbdock.cxx#4 $)

>  <Rbt.Library>
libRbt.so (2013.1, Build901 2013/11/27)

>  <Rbt.Parameter_File>
/export/apps/rDock/src/rDock_2013.1_src/data/scripts/dock_solv.prm

>  <Rbt.Receptor>
prm/pocket_docking_3.prm

>  <SCORE>
-12.1273

>  <SCORE.INTER>
-14.7657

>  <SCORE.INTER.CONST>
1

>  <SCORE.INTER.POLAR>
0

>  <SCORE.INTER.ROT>
8

>  <SCORE.INTER.SOLV>
14.9552

>  <SCORE.INTER.VDW>
-23.7622

>  <SCORE.INTER.norm>
-0.567913

>  <SCORE.INTRA>
2.63844

>  <SCORE.INTRA.DIHEDRAL>
1.33115

>  <SCORE.INTRA.DIHEDRAL.0>
8.13976

>  <SCORE.INTRA.POLAR>
0

>  <SCORE.INTRA.POLAR.0>
0

>  <SCORE.INTRA.REPUL>
0

>  <SCORE.INTRA.REPUL.0>
0

>  <SCORE.INTRA.SOLV>
1.10039

>  <SCORE.INTRA.SOLV.lig_0>
-82.9561

>  <SCORE.INTRA.VDW>
1.42267

>  <SCORE.INTRA.VDW.0>
-3.29171

>  <SCORE.INTRA.norm>
0.101479

>  <SCORE.RESTR>
0

>  <SCORE.RESTR.CAVITY>
0

>  <SCORE.RESTR.norm>
0

>  <SCORE.SYSTEM>
0

>  <SCORE.SYSTEM.CONST>
0

>  <SCORE.SYSTEM.DIHEDRAL>
0

>  <SCORE.SYSTEM.SOLV>
0

>  <SCORE.SYSTEM.norm>
0

>  <SCORE.heavy>
26

>  <SCORE.norm>
-0.466434

>  <RMSD>
2.435

$$$$
ligand
 OpenBabel11021811433D
libRbt.so/2013.1/901 2013/11/27
 26 27  0  0  0  0  0  0  0  0999 V2000
  -12.7870   -8.0693   -0.3571 C   0  0  0  0  0  0  0  0  0  0  0  0
  -17.5813  -13.9414   -0.6347 C   0  0  0  0  0  0  0  0  0  0  0  0
  -21.6915  -16.0647    2.2468 P   0  0  1  0  0  0  0  0  0  0  0  0
  -20.8192  -18.7587    2.9103 P   0  0  1  0  0  0  0  0  0  0  0  0
  -15.6421  -12.7759    1.2951 C   0  0  0  0  0  0  0  0  0  0  0  0
  -15.4385  -10.2702    1.0307 C   0  0  0  0  0  0  0  0  0  0  0  0
  -14.8903  -11.5335    0.8484 C   0  0  0  0  0  0  0  0  0  0  0  0
  -13.6389  -11.6372    0.2635 C   0  0  0  0  0  0  0  0  0  0  0  0
  -13.0640  -12.8480    0.0641 N   0  0  0  0  0  0  0  0  0  0  0  0
  -12.9831  -10.5180   -0.1132 N   0  0  0  0  0  0  0  0  0  0  0  0
  -13.5378   -9.3003    0.0731 C   0  0  0  0  0  0  0  0  0  0  0  0
  -14.7619   -9.1801    0.6428 N   0  0  0  0  0  0  0  0  0  0  0  0
  -23.0634  -16.3135    1.6772 O   0  5  0  0  0  0  0  0  0  0  0  0
  -20.1873  -19.8348    2.0819 O   0  0  0  0  0  0  0  0  0  0  0  0
  -19.3337  -11.6085    2.1872 S   0  0  0  0  0  0  0  0  0  0  0  0
  -17.6102  -11.7139    2.3644 C   0  0  0  0  0  0  0  0  0  0  0  0
  -21.6119  -15.5761    3.6645 O   0  0  0  0  0  0  0  0  0  0  0  0
  -19.9464  -18.4615    4.0839 O   0  5  0  0  0  0  0  0  0  0  0  0
  -17.0766  -12.5064    1.3938 N   0  0  0  0  0  0  0  0  0  0  0  0
  -20.8013  -17.4008    2.0246 O   0  0  0  0  0  0  0  0  0  0  0  0
  -22.2569  -18.9804    3.2937 O   0  0  0  0  0  0  0  0  0  0  0  0
  -17.9632  -13.0408    0.5096 C   0  0  1  0  0  0  0  0  0  0  0  0
  -19.3609  -12.6168    0.7944 C   0  0  1  0  0  0  0  0  0  0  0  0
  -20.6996  -12.8952    0.1641 C   0  0  0  0  0  0  0  0  0  0  0  0
  -21.5536  -13.6699    1.1553 C   0  0  0  0  0  0  0  0  0  0  0  0
  -20.9702  -14.9547    1.3347 O   0  0  0  0  0  0  0  0  0  0  0  0
  1 11  1  0  0  0  0
  3 13  1  6  0  0  0
  3 17  2  0  0  0  0
  3 20  1  0  0  0  0
  3 26  1  0  0  0  0
  4 14  1  6  0  0  0
  4 18  1  0  0  0  0
  4 21  2  0  0  0  0
  4 20  1  0  0  0  0
  5 19  1  0  0  0  0
  5  7  1  0  0  0  0
  6  7  2  0  0  0  0
  6 12  1  0  0  0  0
  7  8  1  0  0  0  0
  8  9  1  0  0  0  0
  8 10  2  0  0  0  0
 10 11  1  0  0  0  0
 11 12  2  0  0  0  0
 15 23  1  0  0  0  0
 15 16  1  0  0  0  0
 16 19  1  0  0  0  0
 19 22  1  0  0  0  0
 22  2  1  6  0  0  0
 22 23  1  0  0  0  0
 23 24  1  1  0  0  0
 24 25  1  0  0  0  0
 25 26  1  0  0  0  0
M  CHG  2  13  -1  18  -1
M  END
>  <CHROM.1>
-79.90484049,-70.43899484,22.34889229,161.89142671,-63.99771779,-67.07600182
-175.60996767,58.30079921,-18.52410498,-14.03704054,1.53180622,0.81261108
0.13266614,-0.17745219

>  <Name>
ligand

>  <RI>
0

>  <Rbt.Current_Directory>
/home/itssahil/PROJECTS/Mol_Feturizer/New_Systems/rnas/2GDI

>  <Rbt.Executable>
rbdock ($Id: //depot/dev/client3/rdock/2013.1/src/exe/rbdock.cxx#4 $)

>  <Rbt.Library>
libRbt.so (2013.1, Build901 2013/11/27)

>  <Rbt.Parameter_File>
/export/apps/rDock/src/rDock_2013.1_src/data/scripts/dock_solv.prm

>  <Rbt.Receptor>
prm/pocket_docking_4.prm

>  <SCORE>
-18.6142

>  <SCORE.INTER>
-18.8719

>  <SCORE.INTER.CONST>
1

>  <SCORE.INTER.POLAR>
0

>  <SCORE.INTER.ROT>
8

>  <SCORE.INTER.SOLV>
22.3944

>  <SCORE.INTER.VDW>
-28.9794

>  <SCORE.INTER.norm>
-0.725841

>  <SCORE.INTRA>
0.257672

>  <SCORE.INTRA.DIHEDRAL>
-1.67576

>  <SCORE.INTRA.DIHEDRAL.0>
8.13976

>  <SCORE.INTRA.POLAR>
0

>  <SCORE.INTRA.POLAR.0>
0

>  <SCORE.INTRA.REPUL>
0

>  <SCORE.INTRA.REPUL.0>
0

>  <SCORE.INTRA.SOLV>
1.81918

>  <SCORE.INTRA.SOLV.lig_0>
-82.9561

>  <SCORE.INTRA.VDW>
0.185958

>  <SCORE.INTRA.VDW.0>
-3.29171

>  <SCORE.INTRA.norm>
0.00991048

>  <SCORE.RESTR>
0

>  <SCORE.RESTR.CAVITY>
0

>  <SCORE.RESTR.norm>
0

>  <SCORE.SYSTEM>
0

>  <SCORE.SYSTEM.CONST>
0

>  <SCORE.SYSTEM.DIHEDRAL>
0

>  <SCORE.SYSTEM.SOLV>
0

>  <SCORE.SYSTEM.norm>
0

>  <SCORE.heavy>
26

>  <SCORE.norm>
-0.71593

>  <RMSD>
2.442

$$$$
ligand
 OpenBabel11021811433D
libRbt.so/2013.1/901 2013/11/27
 26 27  0  0  0  0  0  0  0  0999 V2000
  -12.6255   -8.0908   -0.4491 C   0  0  0  0  0  0  0  0  0  0  0  0
  -17.1562  -13.7734   -0.9788 C   0  0  0  0  0  0  0  0  0  0  0  0
  -21.5942  -15.9101    0.5385 P   0  0  1  0  0  0  0  0  0  0  0  0
  -21.9469  -16.6945    3.3168 P   0  0  1  0  0  0  0  0  0  0  0  0
  -16.0415  -12.3378    1.3749 C   0  0  0  0  0  0  0  0  0  0  0  0
  -14.0596  -11.4795    0.0612 C   0  0  0  0  0  0  0  0  0  0  0  0
  -15.1334  -11.2153    0.9020 C   0  0  0  0  0  0  0  0  0  0  0  0
  -15.3679   -9.9062    1.2898 C   0  0  0  0  0  0  0  0  0  0  0  0
  -16.4024   -9.5998    2.1098 N   0  0  0  0  0  0  0  0  0  0  0  0
  -14.5556   -8.9226    0.8457 N   0  0  0  0  0  0  0  0  0  0  0  0
  -13.5164   -9.2048    0.0299 C   0  0  0  0  0  0  0  0  0  0  0  0
  -13.2715  -10.4800   -0.3588 N   0  0  0  0  0  0  0  0  0  0  0  0
  -20.3518  -16.7611    0.5668 O   0  5  0  0  0  0  0  0  0  0  0  0
  -20.4865  -16.8410    3.6158 O   0  0  0  0  0  0  0  0  0  0  0  0
  -19.8078  -11.2349    0.7538 S   0  0  0  0  0  0  0  0  0  0  0  0
  -18.2632  -11.2518    1.5457 C   0  0  0  0  0  0  0  0  0  0  0  0
  -22.7255  -16.3706   -0.3350 O   0  0  0  0  0  0  0  0  0  0  0  0
  -22.6168  -15.9979    4.4540 O   0  5  0  0  0  0  0  0  0  0  0  0
  -17.4157  -12.1178    0.9241 N   0  0  0  0  0  0  0  0  0  0  0  0
  -22.0786  -15.6706    2.0665 O   0  0  0  0  0  0  0  0  0  0  0  0
  -22.6633  -17.9492    2.8978 O   0  0  0  0  0  0  0  0  0  0  0  0
  -17.9247  -12.7758   -0.1536 C   0  0  1  0  0  0  0  0  0  0  0  0
  -19.3316  -12.3816   -0.4359 C   0  0  1  0  0  0  0  0  0  0  0  0
  -20.3538  -12.7774   -1.4681 C   0  0  0  0  0  0  0  0  0  0  0  0
  -20.6765  -14.2531   -1.2939 C   0  0  0  0  0  0  0  0  0  0  0  0
  -21.1795  -14.4451    0.0227 O   0  0  0  0  0  0  0  0  0  0  0  0
  1 11  1  0  0  0  0
  3 13  1  6  0  0  0
  3 17  2  0  0  0  0
  3 20  1  0  0  0  0
  3 26  1  0  0  0  0
  4 14  1  1  0  0  0
  4 18  1  0  0  0  0
  4 21  2  0  0  0  0
  4 20  1  0  0  0  0
  5 19  1  0  0  0  0
  5  7  1  0  0  0  0
  6  7  2  0  0  0  0
  6 12  1  0  0  0  0
  7  8  1  0  0  0  0
  8  9  1  0  0  0  0
  8 10  2  0  0  0  0
 10 11  1  0  0  0  0
 11 12  2  0  0  0  0
 15 23  1  0  0  0  0
 15 16  1  0  0  0  0
 16 19  1  0  0  0  0
 19 22  1  0  0  0  0
 22  2  1  6  0  0  0
 22 23  1  0  0  0  0
 23 24  1  1  0  0  0
 24 25  1  0  0  0  0
 25 26  1  0  0  0  0
M  CHG  2  13  -1  18  -1
M  END
>  <CHROM.1>
-33.42613462,-79.23777086,-118.79744704,66.88606976,-115.45232821,59.33211631
-178.93103932,64.22561692,-18.87204753,-13.36719126,0.96469787,-0.35296594
0.66543760,1.85910284

>  <Name>
ligand

>  <RI>
0

>  <Rbt.Current_Directory>
/home/itssahil/PROJECTS/Mol_Feturizer/New_Systems/rnas/2GDI

>  <Rbt.Executable>
rbdock ($Id: //depot/dev/client3/rdock/2013.1/src/exe/rbdock.cxx#4 $)

>  <Rbt.Library>
libRbt.so (2013.1, Build901 2013/11/27)

>  <Rbt.Parameter_File>
/export/apps/rDock/src/rDock_2013.1_src/data/scripts/dock_solv.prm

>  <Rbt.Receptor>
prm/pocket_docking_3.prm

>  <SCORE>
-12.8999

>  <SCORE.INTER>
-13.2317

>  <SCORE.INTER.CONST>
1

>  <SCORE.INTER.POLAR>
0

>  <SCORE.INTER.ROT>
8

>  <SCORE.INTER.SOLV>
14.3458

>  <SCORE.INTER.VDW>
-22.5364

>  <SCORE.INTER.norm>
-0.50891

>  <SCORE.INTRA>
0.325671

>  <SCORE.INTRA.DIHEDRAL>
-2.21808

>  <SCORE.INTRA.DIHEDRAL.0>
8.13976

>  <SCORE.INTRA.POLAR>
0

>  <SCORE.INTRA.POLAR.0>
0

>  <SCORE.INTRA.REPUL>
0

>  <SCORE.INTRA.REPUL.0>
0

>  <SCORE.INTRA.SOLV>
2.44052

>  <SCORE.INTRA.SOLV.lig_0>
-82.9561

>  <SCORE.INTRA.VDW>
0.21445

>  <SCORE.INTRA.VDW.0>
-3.29171

>  <SCORE.INTRA.norm>
0.0125258

>  <SCORE.RESTR>
0.00607893

>  <SCORE.RESTR.CAVITY>
0.00607893

>  <SCORE.RESTR.norm>
0.000233805

>  <SCORE.SYSTEM>
0

>  <SCORE.SYSTEM.CONST>
0

>  <SCORE.SYSTEM.DIHEDRAL>
0

>  <SCORE.SYSTEM.SOLV>
0

>  <SCORE.SYSTEM.norm>
0

>  <SCORE.heavy>
26

>  <SCORE.norm>
-0.49615

>  <RMSD>
2.453

$$$$
ligand
 OpenBabel11021811433D
libRbt.so/2013.1/901 2013/11/27
 26 27  0  0  0  0  0  0  0  0999 V2000
  -12.3154   -7.4489   -0.7286 C   0  0  0  0  0  0  0  0  0  0  0  0
  -17.0003  -14.1623    0.5031 C   0  0  0  0  0  0  0  0  0  0  0  0
  -23.6072  -14.3713    0.3259 P   0  0  1  0  0  0  0  0  0  0  0  0
  -22.0663  -14.9407    2.7259 P   0  0  1  0  0  0  0  0  0  0  0  0
  -15.6294  -11.6616    1.3461 C   0  0  0  0  0  0  0  0  0  0  0  0
  -15.1168   -9.2179    0.9517 C   0  0  0  0  0  0  0  0  0  0  0  0
  -14.7573  -10.5497    0.7880 C   0  0  0  0  0  0  0  0  0  0  0  0
  -13.5812  -10.8434    0.1176 C   0  0  0  0  0  0  0  0  0  0  0  0
  -13.1898  -12.1275   -0.0676 N   0  0  0  0  0  0  0  0  0  0  0  0
  -12.8147   -9.8379   -0.3579 N   0  0  0  0  0  0  0  0  0  0  0  0
  -13.1864   -8.5503   -0.1876 C   0  0  0  0  0  0  0  0  0  0  0  0
  -14.3344   -8.2445    0.4649 N   0  0  0  0  0  0  0  0  0  0  0  0
  -24.4956  -15.2201   -0.5452 O   0  5  0  0  0  0  0  0  0  0  0  0
  -20.8022  -15.4306    2.0890 O   0  0  0  0  0  0  0  0  0  0  0  0
  -19.1761  -10.8155   -0.2326 S   0  0  0  0  0  0  0  0  0  0  0  0
  -17.6422  -10.4820    0.5083 C   0  0  0  0  0  0  0  0  0  0  0  0
  -24.0779  -12.9812    0.6434 O   0  0  0  0  0  0  0  0  0  0  0  0
  -22.0056  -13.4563    2.8674 O   0  5  0  0  0  0  0  0  0  0  0  0
  -16.9567  -11.6374    0.7314 N   0  0  0  0  0  0  0  0  0  0  0  0
  -23.2682  -15.2091    1.6714 O   0  0  0  0  0  0  0  0  0  0  0  0
  -22.4741  -15.6318    3.9985 O   0  0  0  0  0  0  0  0  0  0  0  0
  -17.5831  -12.7831    0.3461 C   0  0  1  0  0  0  0  0  0  0  0  0
  -18.9117  -12.5143   -0.2680 C   0  0  1  0  0  0  0  0  0  0  0  0
  -20.0012  -13.3752   -0.8501 C   0  0  0  0  0  0  0  0  0  0  0  0
  -21.2363  -13.2595    0.0292 C   0  0  0  0  0  0  0  0  0  0  0  0
  -22.1872  -14.2206   -0.4125 O   0  0  0  0  0  0  0  0  0  0  0  0
  1 11  1  0  0  0  0
  3 13  1  6  0  0  0
  3 17  2  0  0  0  0
  3 20  1  0  0  0  0
  3 26  1  0  0  0  0
  4 14  1  6  0  0  0
  4 18  1  0  0  0  0
  4 21  2  0  0  0  0
  4 20  1  0  0  0  0
  5 19  1  0  0  0  0
  5  7  1  0  0  0  0
  6  7  2  0  0  0  0
  6 12  1  0  0  0  0
  7  8  1  0  0  0  0
  8  9  1  0  0  0  0
  8 10  2  0  0  0  0
 10 11  1  0  0  0  0
 11 12  2  0  0  0  0
 15 23  1  0  0  0  0
 15 16  1  0  0  0  0
 16 19  1  0  0  0  0
 19 22  1  0  0  0  0
 22  2  1  6  0  0  0
 22 23  1  0  0  0  0
 23 24  1  1  0  0  0
 24 25  1  0  0  0  0
 25 26  1  0  0  0  0
M  CHG  2  13  -1  18  -1
M  END
>  <CHROM.1>
162.02434294,-42.18651224,61.67039494,-75.69663445,-64.63571704,-171.54970360
179.22458554,167.16852896,-19.00708833,-12.52181791,0.70275155,0.45325161
-0.25373083,-0.71919481

>  <Name>
ligand

>  <RI>
0

>  <Rbt.Current_Directory>
/home/itssahil/PROJECTS/Mol_Feturizer/New_Systems/rnas/2GDI

>  <Rbt.Executable>
rbdock ($Id: //depot/dev/client3/rdock/2013.1/src/exe/rbdock.cxx#4 $)

>  <Rbt.Library>
libRbt.so (2013.1, Build901 2013/11/27)

>  <Rbt.Parameter_File>
/export/apps/rDock/src/rDock_2013.1_src/data/scripts/dock_solv.prm

>  <Rbt.Receptor>
prm/pocket_docking_2.prm

>  <SCORE>
-12.2574

>  <SCORE.INTER>
-13.9889

>  <SCORE.INTER.CONST>
1

>  <SCORE.INTER.POLAR>
0

>  <SCORE.INTER.ROT>
8

>  <SCORE.INTER.SOLV>
19.2582

>  <SCORE.INTER.VDW>
-24.6787

>  <SCORE.INTER.norm>
-0.538036

>  <SCORE.INTRA>
0.558936

>  <SCORE.INTRA.DIHEDRAL>
-1.49205

>  <SCORE.INTRA.DIHEDRAL.0>
8.13976

>  <SCORE.INTRA.POLAR>
0

>  <SCORE.INTRA.POLAR.0>
0

>  <SCORE.INTRA.REPUL>
0

>  <SCORE.INTRA.REPUL.0>
0

>  <SCORE.INTRA.SOLV>
1.56769

>  <SCORE.INTRA.SOLV.lig_0>
-82.9561

>  <SCORE.INTRA.VDW>
0.521115

>  <SCORE.INTRA.VDW.0>
-3.29171

>  <SCORE.INTRA.norm>
0.0214976

>  <SCORE.RESTR>
1.17265

>  <SCORE.RESTR.CAVITY>
1.17265

>  <SCORE.RESTR.norm>
0.0451021

>  <SCORE.SYSTEM>
0

>  <SCORE.SYSTEM.CONST>
0

>  <SCORE.SYSTEM.DIHEDRAL>
0

>  <SCORE.SYSTEM.SOLV>
0

>  <SCORE.SYSTEM.norm>
0

>  <SCORE.heavy>
26

>  <SCORE.norm>
-0.471437

>  <RMSD>
2.454

$$$$
ligand
 OpenBabel11021811433D
libRbt.so/2013.1/901 2013/11/27
 26 27  0  0  0  0  0  0  0  0999 V2000
  -12.5970   -7.9558   -0.2251 C   0  0  0  0  0  0  0  0  0  0  0  0
  -18.2840  -14.3075    0.4954 C   0  0  0  0  0  0  0  0  0  0  0  0
  -24.5112  -13.6880    0.6599 P   0  0  1  0  0  0  0  0  0  0  0  0
  -24.8179  -16.4908    1.3736 P   0  0  1  0  0  0  0  0  0  0  0  0
  -16.3469  -12.1205    1.0502 C   0  0  0  0  0  0  0  0  0  0  0  0
  -14.2984  -11.2573   -0.1534 C   0  0  0  0  0  0  0  0  0  0  0  0
  -15.3507  -11.0213    0.7222 C   0  0  0  0  0  0  0  0  0  0  0  0
  -15.4815   -9.7600    1.2799 C   0  0  0  0  0  0  0  0  0  0  0  0
  -16.4912   -9.4826    2.1401 N   0  0  0  0  0  0  0  0  0  0  0  0
  -14.5918   -8.7943    0.9629 N   0  0  0  0  0  0  0  0  0  0  0  0
  -13.5756   -9.0486    0.1099 C   0  0  0  0  0  0  0  0  0  0  0  0
  -13.4316  -10.2773   -0.4442 N   0  0  0  0  0  0  0  0  0  0  0  0
  -25.7256  -13.9724   -0.1843 O   0  5  0  0  0  0  0  0  0  0  0  0
  -24.8290  -16.7935   -0.0933 O   0  0  0  0  0  0  0  0  0  0  0  0
  -19.6087  -10.6560   -0.6827 S   0  0  0  0  0  0  0  0  0  0  0  0
  -18.0307  -10.6083    0.0389 C   0  0  0  0  0  0  0  0  0  0  0  0
  -24.5316  -12.4435    1.5000 O   0  0  0  0  0  0  0  0  0  0  0  0
  -23.8489  -17.3962    2.0579 O   0  5  0  0  0  0  0  0  0  0  0  0
  -17.6376  -11.8571    0.4138 N   0  0  0  0  0  0  0  0  0  0  0  0
  -24.1943  -15.0046    1.5504 O   0  0  0  0  0  0  0  0  0  0  0  0
  -26.1613  -16.4558    2.0498 O   0  0  0  0  0  0  0  0  0  0  0  0
  -18.5234  -12.8594    0.1605 C   0  0  1  0  0  0  0  0  0  0  0  0
  -19.7570  -12.3600   -0.5053 C   0  0  1  0  0  0  0  0  0  0  0  0
  -21.0271  -13.0020   -0.9969 C   0  0  0  0  0  0  0  0  0  0  0  0
  -21.9681  -13.1876    0.1831 C   0  0  0  0  0  0  0  0  0  0  0  0
  -23.2442  -13.5619   -0.3214 O   0  0  0  0  0  0  0  0  0  0  0  0
  1 11  1  0  0  0  0
  3 13  1  6  0  0  0
  3 17  2  0  0  0  0
  3 20  1  0  0  0  0
  3 26  1  0  0  0  0
  4 14  1  6  0  0  0
  4 18  1  0  0  0  0
  4 21  2  0  0  0  0
  4 20  1  0  0  0  0
  5 19  1  0  0  0  0
  5  7  1  0  0  0  0
  6  7  2  0  0  0  0
  6 12  1  0  0  0  0
  7  8  1  0  0  0  0
  8  9  1  0  0  0  0
  8 10  2  0  0  0  0
 10 11  1  0  0  0  0
 11 12  2  0  0  0  0
 15 23  1  0  0  0  0
 15 16  1  0  0  0  0
 16 19  1  0  0  0  0
 19 22  1  0  0  0  0
 22  2  1  6  0  0  0
 22 23  1  0  0  0  0
 23 24  1  1  0  0  0
 24 25  1  0  0  0  0
 25 26  1  0  0  0  0
M  CHG  2  13  -1  18  -1
M  END
>  <CHROM.1>
12.73185080,-23.00001578,-107.66027919,42.88486923,-97.27403540,169.48602285
-173.62147080,174.90725582,-20.24047283,-12.73933087,0.51716849,0.50423344
-0.07385323,-0.25228361

>  <Name>
ligand

>  <RI>
0

>  <Rbt.Current_Directory>
/home/itssahil/PROJECTS/Mol_Feturizer/New_Systems/rnas/2GDI

>  <Rbt.Executable>
rbdock ($Id: //depot/dev/client3/rdock/2013.1/src/exe/rbdock.cxx#4 $)

>  <Rbt.Library>
libRbt.so (2013.1, Build901 2013/11/27)

>  <Rbt.Parameter_File>
/export/apps/rDock/src/rDock_2013.1_src/data/scripts/dock_solv.prm

>  <Rbt.Receptor>
prm/pocket_docking_3.prm

>  <SCORE>
-12.8029

>  <SCORE.INTER>
-13.7739

>  <SCORE.INTER.CONST>
1

>  <SCORE.INTER.POLAR>
0

>  <SCORE.INTER.ROT>
8

>  <SCORE.INTER.SOLV>
19.5024

>  <SCORE.INTER.VDW>
-24.6167

>  <SCORE.INTER.norm>
-0.529763

>  <SCORE.INTRA>
0.970913

>  <SCORE.INTRA.DIHEDRAL>
-0.243472

>  <SCORE.INTRA.DIHEDRAL.0>
8.13976

>  <SCORE.INTRA.POLAR>
0

>  <SCORE.INTRA.POLAR.0>
0

>  <SCORE.INTRA.REPUL>
0

>  <SCORE.INTRA.REPUL.0>
0

>  <SCORE.INTRA.SOLV>
1.22997

>  <SCORE.INTRA.SOLV.lig_0>
-82.9561

>  <SCORE.INTRA.VDW>
0.477664

>  <SCORE.INTRA.VDW.0>
-3.29171

>  <SCORE.INTRA.norm>
0.0373428

>  <SCORE.RESTR>
0

>  <SCORE.RESTR.CAVITY>
0

>  <SCORE.RESTR.norm>
0

>  <SCORE.SYSTEM>
0

>  <SCORE.SYSTEM.CONST>
0

>  <SCORE.SYSTEM.DIHEDRAL>
0

>  <SCORE.SYSTEM.SOLV>
0

>  <SCORE.SYSTEM.norm>
0

>  <SCORE.heavy>
26

>  <SCORE.norm>
-0.492421

>  <RMSD>
2.477

$$$$
ligand
 OpenBabel11021811433D
libRbt.so/2013.1/901 2013/11/27
 26 27  0  0  0  0  0  0  0  0999 V2000
  -12.5056   -6.7891   -0.2068 C   0  0  0  0  0  0  0  0  0  0  0  0
  -17.1257  -13.7020    1.5239 C   0  0  0  0  0  0  0  0  0  0  0  0
  -21.7996  -16.4199    0.1135 P   0  0  1  0  0  0  0  0  0  0  0  0
  -23.3480  -17.8656    2.1063 P   0  0  1  0  0  0  0  0  0  0  0  0
  -15.1253  -11.8807    0.2894 C   0  0  0  0  0  0  0  0  0  0  0  0
  -13.2645  -10.4065   -0.5792 C   0  0  0  0  0  0  0  0  0  0  0  0
  -14.4285  -10.5360    0.1678 C   0  0  0  0  0  0  0  0  0  0  0  0
  -14.9488   -9.4122    0.7885 C   0  0  0  0  0  0  0  0  0  0  0  0
  -16.0814   -9.4895    1.5285 N   0  0  0  0  0  0  0  0  0  0  0  0
  -14.3198   -8.2243    0.6550 N   0  0  0  0  0  0  0  0  0  0  0  0
  -13.1878   -8.1238   -0.0755 C   0  0  0  0  0  0  0  0  0  0  0  0
  -12.6640   -9.2132   -0.6888 N   0  0  0  0  0  0  0  0  0  0  0  0
  -20.4962  -17.1518   -0.0705 O   0  5  0  0  0  0  0  0  0  0  0  0
  -24.3357  -18.0800    1.0009 O   0  0  0  0  0  0  0  0  0  0  0  0
  -18.7841  -10.9292   -0.9332 S   0  0  0  0  0  0  0  0  0  0  0  0
  -17.0565  -10.7988   -0.8263 C   0  0  0  0  0  0  0  0  0  0  0  0
  -22.8752  -16.6604   -0.9064 O   0  0  0  0  0  0  0  0  0  0  0  0
  -22.4964  -19.0825    2.2513 O   0  5  0  0  0  0  0  0  0  0  0  0
  -16.5551  -11.7509    0.0086 N   0  0  0  0  0  0  0  0  0  0  0  0
  -22.3300  -16.7016    1.6189 O   0  0  0  0  0  0  0  0  0  0  0  0
  -23.9168  -17.3921    3.4161 O   0  0  0  0  0  0  0  0  0  0  0  0
  -17.4698  -12.5854    0.5746 C   0  0  1  0  0  0  0  0  0  0  0  0
  -18.8567  -12.2773    0.1319 C   0  0  1  0  0  0  0  0  0  0  0  0
  -20.2147  -12.8557    0.4293 C   0  0  0  0  0  0  0  0  0  0  0  0
  -20.1574  -14.3621    0.2300 C   0  0  0  0  0  0  0  0  0  0  0  0
  -21.4891  -14.8427    0.0939 O   0  0  0  0  0  0  0  0  0  0  0  0
  1 11  1  0  0  0  0
  3 13  1  6  0  0  0
  3 17  2  0  0  0  0
  3 20  1  0  0  0  0
  3 26  1  0  0  0  0
  4 14  1  6  0  0  0
  4 18  1  0  0  0  0
  4 21  2  0  0  0  0
  4 20  1  0  0  0  0
  5 19  1  0  0  0  0
  5  7  1  0  0  0  0
  6  7  2  0  0  0  0
  6 12  1  0  0  0  0
  7  8  1  0  0  0  0
  8  9  1  0  0  0  0
  8 10  2  0  0  0  0
 10 11  1  0  0  0  0
 11 12  2  0  0  0  0
 15 23  1  0  0  0  0
 15 16  1  0  0  0  0
 16 19  1  0  0  0  0
 19 22  1  0  0  0  0
 22  2  1  6  0  0  0
 22 23  1  0  0  0  0
 23 24  1  1  0  0  0
 24 25  1  0  0  0  0
 25 26  1  0  0  0  0
M  CHG  2  13  -1  18  -1
M  END
>  <CHROM.1>
-93.11621110,28.78148298,-130.91333857,-34.46955462,130.51237728,-161.88526604
-169.76232174,-14.41354482,-18.88394979,-13.43577941,0.51080580,0.66071946
-0.42412185,-0.64633813

>  <Name>
ligand

>  <RI>
0

>  <Rbt.Current_Directory>
/home/itssahil/PROJECTS/Mol_Feturizer/New_Systems/rnas/2GDI

>  <Rbt.Executable>
rbdock ($Id: //depot/dev/client3/rdock/2013.1/src/exe/rbdock.cxx#4 $)

>  <Rbt.Library>
libRbt.so (2013.1, Build901 2013/11/27)

>  <Rbt.Parameter_File>
/export/apps/rDock/src/rDock_2013.1_src/data/scripts/dock_solv.prm

>  <Rbt.Receptor>
prm/pocket_docking_3.prm

>  <SCORE>
-9.67741

>  <SCORE.INTER>
-12.8187

>  <SCORE.INTER.CONST>
1

>  <SCORE.INTER.POLAR>
0

>  <SCORE.INTER.ROT>
8

>  <SCORE.INTER.SOLV>
12.1916

>  <SCORE.INTER.VDW>
-21.543

>  <SCORE.INTER.norm>
-0.493026

>  <SCORE.INTRA>
3.14128

>  <SCORE.INTRA.DIHEDRAL>
1.80024

>  <SCORE.INTRA.DIHEDRAL.0>
8.13976

>  <SCORE.INTRA.POLAR>
0

>  <SCORE.INTRA.POLAR.0>
0

>  <SCORE.INTRA.REPUL>
0

>  <SCORE.INTRA.REPUL.0>
0

>  <SCORE.INTRA.SOLV>
2.69315

>  <SCORE.INTRA.SOLV.lig_0>
-82.9561

>  <SCORE.INTRA.VDW>
0.89458

>  <SCORE.INTRA.VDW.0>
-3.29171

>  <SCORE.INTRA.norm>
0.120818

>  <SCORE.RESTR>
0

>  <SCORE.RESTR.CAVITY>
0

>  <SCORE.RESTR.norm>
0

>  <SCORE.SYSTEM>
0

>  <SCORE.SYSTEM.CONST>
0

>  <SCORE.SYSTEM.DIHEDRAL>
0

>  <SCORE.SYSTEM.SOLV>
0

>  <SCORE.SYSTEM.norm>
0

>  <SCORE.heavy>
26

>  <SCORE.norm>
-0.372208

>  <RMSD>
2.482

$$$$
ligand
 OpenBabel11021811433D
libRbt.so/2013.1/901 2013/11/27
 26 27  0  0  0  0  0  0  0  0999 V2000
  -12.4869   -7.8004   -0.5412 C   0  0  0  0  0  0  0  0  0  0  0  0
  -18.7944  -10.9068    1.6118 C   0  0  0  0  0  0  0  0  0  0  0  0
  -21.7894  -14.8620    1.4779 P   0  0  1  0  0  0  0  0  0  0  0  0
  -20.9609  -17.4193    2.5882 P   0  0  1  0  0  0  0  0  0  0  0  0
  -16.0073  -11.9176    1.3795 C   0  0  0  0  0  0  0  0  0  0  0  0
  -15.3390   -9.4921    1.1335 C   0  0  0  0  0  0  0  0  0  0  0  0
  -15.0812  -10.8299    0.8622 C   0  0  0  0  0  0  0  0  0  0  0  0
  -13.9557  -11.1535    0.1223 C   0  0  0  0  0  0  0  0  0  0  0  0
  -13.6635  -12.4445   -0.1684 N   0  0  0  0  0  0  0  0  0  0  0  0
  -13.1391  -10.1706   -0.3154 N   0  0  0  0  0  0  0  0  0  0  0  0
  -13.4119   -8.8764   -0.0402 C   0  0  0  0  0  0  0  0  0  0  0  0
  -14.5093   -8.5414    0.6815 N   0  0  0  0  0  0  0  0  0  0  0  0
  -23.2168  -15.1515    1.0941 O   0  5  0  0  0  0  0  0  0  0  0  0
  -19.9923  -16.9968    3.6497 O   0  0  0  0  0  0  0  0  0  0  0  0
  -18.1957  -13.2170   -1.6717 S   0  0  0  0  0  0  0  0  0  0  0  0
  -16.7688  -13.0288   -0.7014 C   0  0  0  0  0  0  0  0  0  0  0  0
  -21.5586  -14.1030    2.7528 O   0  0  0  0  0  0  0  0  0  0  0  0
  -22.3436  -17.4129    3.1498 O   0  5  0  0  0  0  0  0  0  0  0  0
  -17.0270  -12.2472    0.3836 N   0  0  0  0  0  0  0  0  0  0  0  0
  -20.9665  -16.2582    1.4565 O   0  0  0  0  0  0  0  0  0  0  0  0
  -20.6308  -18.6965    1.8650 O   0  0  0  0  0  0  0  0  0  0  0  0
  -18.3025  -11.7836    0.4912 C   0  0  1  0  0  0  0  0  0  0  0  0
  -19.1660  -12.2594   -0.6235 C   0  0  1  0  0  0  0  0  0  0  0  0
  -20.6104  -12.0627   -1.0001 C   0  0  0  0  0  0  0  0  0  0  0  0
  -21.4847  -12.6326    0.1059 C   0  0  0  0  0  0  0  0  0  0  0  0
  -21.1253  -13.9954    0.2980 O   0  0  0  0  0  0  0  0  0  0  0  0
  1 11  1  0  0  0  0
  3 13  1  6  0  0  0
  3 17  2  0  0  0  0
  3 20  1  0  0  0  0
  3 26  1  0  0  0  0
  4 14  1  1  0  0  0
  4 18  1  0  0  0  0
  4 21  2  0  0  0  0
  4 20  1  0  0  0  0
  5 19  1  0  0  0  0
  5  7  1  0  0  0  0
  6  7  2  0  0  0  0
  6 12  1  0  0  0  0
  7  8  1  0  0  0  0
  8  9  1  0  0  0  0
  8 10  2  0  0  0  0
 10 11  1  0  0  0  0
 11 12  2  0  0  0  0
 15 23  1  0  0  0  0
 15 16  1  0  0  0  0
 16 19  1  0  0  0  0
 19 22  1  0  0  0  0
 22  2  1  1  0  0  0
 22 23  1  0  0  0  0
 23 24  1  6  0  0  0
 24 25  1  0  0  0  0
 25 26  1  0  0  0  0
M  CHG  2  13  -1  18  -1
M  END
>  <CHROM.1>
-78.76150104,77.74393414,92.84238164,-82.13050763,119.28567729,-56.13970870
175.37086461,72.39838821,-18.53576941,-13.28866469,0.82864003,-0.73338917
0.15543142,2.66618530

>  <Name>
ligand

>  <RI>
0

>  <Rbt.Current_Directory>
/home/itssahil/PROJECTS/Mol_Feturizer/New_Systems/rnas/2GDI

>  <Rbt.Executable>
rbdock ($Id: //depot/dev/client3/rdock/2013.1/src/exe/rbdock.cxx#4 $)

>  <Rbt.Library>
libRbt.so (2013.1, Build901 2013/11/27)

>  <Rbt.Parameter_File>
/export/apps/rDock/src/rDock_2013.1_src/data/scripts/dock_solv.prm

>  <Rbt.Receptor>
prm/pocket_docking_4.prm

>  <SCORE>
-17.0222

>  <SCORE.INTER>
-16.3346

>  <SCORE.INTER.CONST>
1

>  <SCORE.INTER.POLAR>
0

>  <SCORE.INTER.ROT>
8

>  <SCORE.INTER.SOLV>
16.6097

>  <SCORE.INTER.VDW>
-25.3596

>  <SCORE.INTER.norm>
-0.628253

>  <SCORE.INTRA>
-0.687628

>  <SCORE.INTRA.DIHEDRAL>
-2.06526

>  <SCORE.INTRA.DIHEDRAL.0>
8.13976

>  <SCORE.INTRA.POLAR>
0

>  <SCORE.INTRA.POLAR.0>
0

>  <SCORE.INTRA.REPUL>
0

>  <SCORE.INTRA.REPUL.0>
0

>  <SCORE.INTRA.SOLV>
2.18915

>  <SCORE.INTRA.SOLV.lig_0>
-82.9561

>  <SCORE.INTRA.VDW>
-0.749574

>  <SCORE.INTRA.VDW.0>
-3.29171

>  <SCORE.INTRA.norm>
-0.0264472

>  <SCORE.RESTR>
0

>  <SCORE.RESTR.CAVITY>
0

>  <SCORE.RESTR.norm>
0

>  <SCORE.SYSTEM>
0

>  <SCORE.SYSTEM.CONST>
0

>  <SCORE.SYSTEM.DIHEDRAL>
0

>  <SCORE.SYSTEM.SOLV>
0

>  <SCORE.SYSTEM.norm>
0

>  <SCORE.heavy>
26

>  <SCORE.norm>
-0.654701

>  <RMSD>
2.496

$$$$
ligand
 OpenBabel11021811433D
libRbt.so/2013.1/901 2013/11/27
 26 27  0  0  0  0  0  0  0  0999 V2000
  -13.9645   -8.7951    0.4507 C   0  0  0  0  0  0  0  0  0  0  0  0
  -21.3878  -12.6243   -1.3559 C   0  0  0  0  0  0  0  0  0  0  0  0
  -22.9006  -16.2696    1.8151 P   0  0  1  0  0  0  0  0  0  0  0  0
  -25.0728  -17.6607    3.1587 P   0  0  1  0  0  0  0  0  0  0  0  0
  -18.5097  -12.0557   -0.8695 C   0  0  0  0  0  0  0  0  0  0  0  0
  -17.3558   -9.8153   -0.6712 C   0  0  0  0  0  0  0  0  0  0  0  0
  -17.3038  -11.1963   -0.5297 C   0  0  0  0  0  0  0  0  0  0  0  0
  -16.1352  -11.7730   -0.0599 C   0  0  0  0  0  0  0  0  0  0  0  0
  -16.0366  -13.1159    0.0935 N   0  0  0  0  0  0  0  0  0  0  0  0
  -15.0803  -10.9878    0.2489 N   0  0  0  0  0  0  0  0  0  0  0  0
  -15.1546   -9.6470    0.1012 C   0  0  0  0  0  0  0  0  0  0  0  0
  -16.2897   -9.0658   -0.3582 N   0  0  0  0  0  0  0  0  0  0  0  0
  -22.0389  -16.4649    3.0349 O   0  5  0  0  0  0  0  0  0  0  0  0
  -24.8097  -18.9483    2.4403 O   0  0  0  0  0  0  0  0  0  0  0  0
  -20.5533  -11.7874    2.5274 S   0  0  0  0  0  0  0  0  0  0  0  0
  -19.1527  -11.7377    1.5033 C   0  0  0  0  0  0  0  0  0  0  0  0
  -22.5606  -17.0755    0.5946 O   0  0  0  0  0  0  0  0  0  0  0  0
  -24.2835  -17.6308    4.4250 O   0  5  0  0  0  0  0  0  0  0  0  0
  -19.4904  -12.0251    0.2156 N   0  0  0  0  0  0  0  0  0  0  0  0
  -24.4485  -16.4707    2.2516 O   0  0  0  0  0  0  0  0  0  0  0  0
  -26.5198  -17.3044    3.3648 O   0  0  0  0  0  0  0  0  0  0  0  0
  -20.8077  -12.2857   -0.0086 C   0  0  1  0  0  0  0  0  0  0  0  0
  -21.6178  -12.1803    1.2352 C   0  0  1  0  0  0  0  0  0  0  0  0
  -23.0757  -12.3600    1.5660 C   0  0  0  0  0  0  0  0  0  0  0  0
  -23.2554  -13.6976    2.2666 C   0  0  0  0  0  0  0  0  0  0  0  0
  -22.8099  -14.7227    1.3871 O   0  0  0  0  0  0  0  0  0  0  0  0
  1 11  1  0  0  0  0
  3 13  1  1  0  0  0
  3 17  2  0  0  0  0
  3 20  1  0  0  0  0
  3 26  1  0  0  0  0
  4 14  1  6  0  0  0
  4 18  1  0  0  0  0
  4 21  2  0  0  0  0
  4 20  1  0  0  0  0
  5 19  1  0  0  0  0
  5  7  1  0  0  0  0
  6  7  2  0  0  0  0
  6 12  1  0  0  0  0
  7  8  1  0  0  0  0
  8  9  1  0  0  0  0
  8 10  2  0  0  0  0
 10 11  1  0  0  0  0
 11 12  2  0  0  0  0
 15 23  1  0  0  0  0
 15 16  1  0  0  0  0
 16 19  1  0  0  0  0
 19 22  1  0  0  0  0
 22  2  1  6  0  0  0
 22 23  1  0  0  0  0
 23 24  1  1  0  0  0
 24 25  1  0  0  0  0
 25 26  1  0  0  0  0
M  CHG  2  13  -1  18  -1
M  END
>  <CHROM.1>
-46.51837752,-24.08424007,-79.17574156,-60.75912235,-74.81340013,-59.76606017
-178.45952621,-61.85695621,-20.88203761,-13.77342047,1.35004186,-0.69976579
-0.22840799,3.01585790

>  <Name>
ligand

>  <RI>
0

>  <Rbt.Current_Directory>
/home/itssahil/PROJECTS/Mol_Feturizer/New_Systems/rnas/2GDI

>  <Rbt.Executable>
rbdock ($Id: //depot/dev/client3/rdock/2013.1/src/exe/rbdock.cxx#4 $)

>  <Rbt.Library>
libRbt.so (2013.1, Build901 2013/11/27)

>  <Rbt.Parameter_File>
/export/apps/rDock/src/rDock_2013.1_src/data/scripts/dock_solv.prm

>  <Rbt.Receptor>
prm/pocket_docking_5.prm

>  <SCORE>
-11.598

>  <SCORE.INTER>
-10.5927

>  <SCORE.INTER.CONST>
1

>  <SCORE.INTER.POLAR>
0

>  <SCORE.INTER.ROT>
8

>  <SCORE.INTER.SOLV>
15.9831

>  <SCORE.INTER.VDW>
-21.3229

>  <SCORE.INTER.norm>
-0.407412

>  <SCORE.INTRA>
-1.00531

>  <SCORE.INTRA.DIHEDRAL>
-2.48651

>  <SCORE.INTRA.DIHEDRAL.0>
8.13976

>  <SCORE.INTRA.POLAR>
0

>  <SCORE.INTRA.POLAR.0>
0

>  <SCORE.INTRA.REPUL>
0

>  <SCORE.INTRA.REPUL.0>
0

>  <SCORE.INTRA.SOLV>
0.766608

>  <SCORE.INTRA.SOLV.lig_0>
-82.9561

>  <SCORE.INTRA.VDW>
-0.145361

>  <SCORE.INTRA.VDW.0>
-3.29171

>  <SCORE.INTRA.norm>
-0.0386659

>  <SCORE.RESTR>
0

>  <SCORE.RESTR.CAVITY>
0

>  <SCORE.RESTR.norm>
0

>  <SCORE.SYSTEM>
0

>  <SCORE.SYSTEM.CONST>
0

>  <SCORE.SYSTEM.DIHEDRAL>
0

>  <SCORE.SYSTEM.SOLV>
0

>  <SCORE.SYSTEM.norm>
0

>  <SCORE.heavy>
26

>  <SCORE.norm>
-0.446078

>  <RMSD>
2.521

$$$$
ligand
 OpenBabel11021811433D
libRbt.so/2013.1/901 2013/11/27
 26 27  0  0  0  0  0  0  0  0999 V2000
  -12.7755   -6.8748   -0.1506 C   0  0  0  0  0  0  0  0  0  0  0  0
  -17.6591  -12.3854   -1.4685 C   0  0  0  0  0  0  0  0  0  0  0  0
  -23.0908  -14.8555    0.1548 P   0  0  1  0  0  0  0  0  0  0  0  0
  -23.5795  -14.5149   -2.6919 P   0  0  1  0  0  0  0  0  0  0  0  0
  -15.2750  -12.0329    0.2735 C   0  0  0  0  0  0  0  0  0  0  0  0
  -13.2340  -10.5423    0.2228 C   0  0  0  0  0  0  0  0  0  0  0  0
  -14.6165  -10.6675    0.1716 C   0  0  0  0  0  0  0  0  0  0  0  0
  -15.3822   -9.5241    0.0120 C   0  0  0  0  0  0  0  0  0  0  0  0
  -16.7344   -9.5962   -0.0423 N   0  0  0  0  0  0  0  0  0  0  0  0
  -14.7743   -8.3223   -0.0903 N   0  0  0  0  0  0  0  0  0  0  0  0
  -13.4278   -8.2259   -0.0359 C   0  0  0  0  0  0  0  0  0  0  0  0
  -12.6630   -9.3339    0.1209 N   0  0  0  0  0  0  0  0  0  0  0  0
  -24.5379  -14.5924    0.4789 O   0  5  0  0  0  0  0  0  0  0  0  0
  -25.0365  -14.2757   -2.4398 O   0  0  0  0  0  0  0  0  0  0  0  0
  -18.6030  -11.5702    2.3943 S   0  0  0  0  0  0  0  0  0  0  0  0
  -16.8918  -11.6394    2.1109 C   0  0  0  0  0  0  0  0  0  0  0  0
  -22.3452  -15.8034    1.0495 O   0  0  0  0  0  0  0  0  0  0  0  0
  -22.8588  -13.2081   -2.7040 O   0  5  0  0  0  0  0  0  0  0  0  0
  -16.6339  -11.9149    0.8023 N   0  0  0  0  0  0  0  0  0  0  0  0
  -22.9934  -15.3008   -1.4006 O   0  0  0  0  0  0  0  0  0  0  0  0
  -23.2486  -15.3746   -3.8813 O   0  0  0  0  0  0  0  0  0  0  0  0
  -17.7245  -12.0766    0.0036 C   0  0  1  0  0  0  0  0  0  0  0  0
  -18.9975  -11.8953    0.7525 C   0  0  1  0  0  0  0  0  0  0  0  0
  -20.4570  -11.9593    0.3880 C   0  0  0  0  0  0  0  0  0  0  0  0
  -20.8962  -13.4151    0.3881 C   0  0  0  0  0  0  0  0  0  0  0  0
  -22.3072  -13.4530    0.2127 O   0  0  0  0  0  0  0  0  0  0  0  0
  1 11  1  0  0  0  0
  3 13  1  1  0  0  0
  3 17  2  0  0  0  0
  3 20  1  0  0  0  0
  3 26  1  0  0  0  0
  4 14  1  1  0  0  0
  4 18  1  0  0  0  0
  4 21  2  0  0  0  0
  4 20  1  0  0  0  0
  5 19  1  0  0  0  0
  5  7  1  0  0  0  0
  6  7  2  0  0  0  0
  6 12  1  0  0  0  0
  7  8  1  0  0  0  0
  8  9  1  0  0  0  0
  8 10  2  0  0  0  0
 10 11  1  0  0  0  0
 11 12  2  0  0  0  0
 15 23  1  0  0  0  0
 15 16  1  0  0  0  0
 16 19  1  0  0  0  0
 19 22  1  0  0  0  0
 22  2  1  6  0  0  0
 22 23  1  0  0  0  0
 23 24  1  1  0  0  0
 24 25  1  0  0  0  0
 25 26  1  0  0  0  0
M  CHG  2  13  -1  18  -1
M  END
>  <CHROM.1>
53.22729738,-73.28894902,154.03026684,-54.16008350,-96.78566860,172.64842361
179.47309265,159.21911120,-19.32591958,-12.36387543,-0.24012667,-0.07869741
-0.53473919,-1.41937705

>  <Name>
ligand

>  <RI>
0

>  <Rbt.Current_Directory>
/home/itssahil/PROJECTS/Mol_Feturizer/New_Systems/rnas/2GDI

>  <Rbt.Executable>
rbdock ($Id: //depot/dev/client3/rdock/2013.1/src/exe/rbdock.cxx#4 $)

>  <Rbt.Library>
libRbt.so (2013.1, Build901 2013/11/27)

>  <Rbt.Parameter_File>
/export/apps/rDock/src/rDock_2013.1_src/data/scripts/dock_solv.prm

>  <Rbt.Receptor>
prm/pocket_docking_4.prm

>  <SCORE>
-14.049

>  <SCORE.INTER>
-16.3463

>  <SCORE.INTER.CONST>
1

>  <SCORE.INTER.POLAR>
0

>  <SCORE.INTER.ROT>
8

>  <SCORE.INTER.SOLV>
12.5053

>  <SCORE.INTER.VDW>
-23.9993

>  <SCORE.INTER.norm>
-0.628703

>  <SCORE.INTRA>
2.29725

>  <SCORE.INTRA.DIHEDRAL>
-2.34242

>  <SCORE.INTRA.DIHEDRAL.0>
8.13976

>  <SCORE.INTRA.POLAR>
0

>  <SCORE.INTRA.POLAR.0>
0

>  <SCORE.INTRA.REPUL>
0

>  <SCORE.INTRA.REPUL.0>
0

>  <SCORE.INTRA.SOLV>
5.79634

>  <SCORE.INTRA.SOLV.lig_0>
-82.9561

>  <SCORE.INTRA.VDW>
0.570289

>  <SCORE.INTRA.VDW.0>
-3.29171

>  <SCORE.INTRA.norm>
0.0883559

>  <SCORE.RESTR>
0

>  <SCORE.RESTR.CAVITY>
0

>  <SCORE.RESTR.norm>
0

>  <SCORE.SYSTEM>
0

>  <SCORE.SYSTEM.CONST>
0

>  <SCORE.SYSTEM.DIHEDRAL>
0

>  <SCORE.SYSTEM.SOLV>
0

>  <SCORE.SYSTEM.norm>
0

>  <SCORE.heavy>
26

>  <SCORE.norm>
-0.540347

>  <RMSD>
2.536

$$$$
ligand
 OpenBabel11021811433D
libRbt.so/2013.1/901 2013/11/27
 26 27  0  0  0  0  0  0  0  0999 V2000
  -12.6834   -6.8536   -0.2235 C   0  0  0  0  0  0  0  0  0  0  0  0
  -17.5602  -12.2662   -1.4525 C   0  0  0  0  0  0  0  0  0  0  0  0
  -23.0826  -14.6606    0.2862 P   0  0  1  0  0  0  0  0  0  0  0  0
  -21.7929  -16.0432    2.4962 P   0  0  1  0  0  0  0  0  0  0  0  0
  -15.1674  -12.0106    0.2945 C   0  0  0  0  0  0  0  0  0  0  0  0
  -13.1289  -10.5218    0.1579 C   0  0  0  0  0  0  0  0  0  0  0  0
  -14.5125  -10.6455    0.1678 C   0  0  0  0  0  0  0  0  0  0  0  0
  -15.2833   -9.5009    0.0463 C   0  0  0  0  0  0  0  0  0  0  0  0
  -16.6366   -9.5714    0.0520 N   0  0  0  0  0  0  0  0  0  0  0  0
  -14.6791   -8.2993   -0.0790 N   0  0  0  0  0  0  0  0  0  0  0  0
  -13.3315   -8.2044   -0.0843 C   0  0  0  0  0  0  0  0  0  0  0  0
  -12.5617   -9.3137    0.0346 N   0  0  0  0  0  0  0  0  0  0  0  0
  -23.3940  -15.0886   -1.1239 O   0  5  0  0  0  0  0  0  0  0  0  0
  -21.5040  -14.7326    3.1611 O   0  0  0  0  0  0  0  0  0  0  0  0
  -18.4833  -11.5626    2.4371 S   0  0  0  0  0  0  0  0  0  0  0  0
  -16.7741  -11.6509    2.1475 C   0  0  0  0  0  0  0  0  0  0  0  0
  -24.2452  -14.3978    1.1996 O   0  0  0  0  0  0  0  0  0  0  0  0
  -23.0918  -16.5779    3.0005 O   0  5  0  0  0  0  0  0  0  0  0  0
  -16.5232  -11.8875    0.8300 N   0  0  0  0  0  0  0  0  0  0  0  0
  -22.0519  -15.7357    0.9254 O   0  0  0  0  0  0  0  0  0  0  0  0
  -20.6868  -17.0621    2.5386 O   0  0  0  0  0  0  0  0  0  0  0  0
  -17.6177  -12.0048    0.0290 C   0  0  1  0  0  0  0  0  0  0  0  0
  -18.8862  -11.8271    0.7864 C   0  0  1  0  0  0  0  0  0  0  0  0
  -20.3472  -11.8549    0.4235 C   0  0  0  0  0  0  0  0  0  0  0  0
  -20.8410  -13.2912    0.4983 C   0  0  0  0  0  0  0  0  0  0  0  0
  -22.2346  -13.2968    0.2141 O   0  0  0  0  0  0  0  0  0  0  0  0
  1 11  1  0  0  0  0
  3 13  1  6  0  0  0
  3 17  2  0  0  0  0
  3 20  1  0  0  0  0
  3 26  1  0  0  0  0
  4 14  1  1  0  0  0
  4 18  1  0  0  0  0
  4 21  2  0  0  0  0
  4 20  1  0  0  0  0
  5 19  1  0  0  0  0
  5  7  1  0  0  0  0
  6  7  2  0  0  0  0
  6 12  1  0  0  0  0
  7  8  1  0  0  0  0
  8  9  1  0  0  0  0
  8 10  2  0  0  0  0
 10 11  1  0  0  0  0
 11 12  2  0  0  0  0
 15 23  1  0  0  0  0
 15 16  1  0  0  0  0
 16 19  1  0  0  0  0
 19 22  1  0  0  0  0
 22  2  1  6  0  0  0
 22 23  1  0  0  0  0
 23 24  1  1  0  0  0
 24 25  1  0  0  0  0
 25 26  1  0  0  0  0
M  CHG  2  13  -1  18  -1
M  END
>  <CHROM.1>
-157.49306009,-76.24345416,156.46570994,-52.38047083,-91.78459515,177.35724096
-176.82652601,-106.57606808,-18.89893637,-12.62601666,0.87408489,0.52268812
-0.37867779,-0.78484553

>  <Name>
ligand

>  <RI>
0

>  <Rbt.Current_Directory>
/home/itssahil/PROJECTS/Mol_Feturizer/New_Systems/rnas/2GDI

>  <Rbt.Executable>
rbdock ($Id: //depot/dev/client3/rdock/2013.1/src/exe/rbdock.cxx#4 $)

>  <Rbt.Library>
libRbt.so (2013.1, Build901 2013/11/27)

>  <Rbt.Parameter_File>
/export/apps/rDock/src/rDock_2013.1_src/data/scripts/dock_solv.prm

>  <Rbt.Receptor>
prm/pocket_docking_2.prm

>  <SCORE>
-13.1666

>  <SCORE.INTER>
-17.1087

>  <SCORE.INTER.CONST>
1

>  <SCORE.INTER.POLAR>
0

>  <SCORE.INTER.ROT>
8

>  <SCORE.INTER.SOLV>
11.3786

>  <SCORE.INTER.VDW>
-24.132

>  <SCORE.INTER.norm>
-0.658027

>  <SCORE.INTRA>
3.90094

>  <SCORE.INTRA.DIHEDRAL>
0.0205008

>  <SCORE.INTRA.DIHEDRAL.0>
8.13976

>  <SCORE.INTRA.POLAR>
0

>  <SCORE.INTRA.POLAR.0>
0

>  <SCORE.INTRA.REPUL>
0

>  <SCORE.INTRA.REPUL.0>
0

>  <SCORE.INTRA.SOLV>
5.50795

>  <SCORE.INTRA.SOLV.lig_0>
-82.9561

>  <SCORE.INTRA.VDW>
1.13671

>  <SCORE.INTRA.VDW.0>
-3.29171

>  <SCORE.INTRA.norm>
0.150036

>  <SCORE.RESTR>
0.0411422

>  <SCORE.RESTR.CAVITY>
0.0411422

>  <SCORE.RESTR.norm>
0.00158239

>  <SCORE.SYSTEM>
0

>  <SCORE.SYSTEM.CONST>
0

>  <SCORE.SYSTEM.DIHEDRAL>
0

>  <SCORE.SYSTEM.SOLV>
0

>  <SCORE.SYSTEM.norm>
0

>  <SCORE.heavy>
26

>  <SCORE.norm>
-0.506408

>  <RMSD>
2.552

$$$$
ligand
 OpenBabel11021811433D
libRbt.so/2013.1/901 2013/11/27
 26 27  0  0  0  0  0  0  0  0999 V2000
  -12.4716   -7.7000   -0.5965 C   0  0  0  0  0  0  0  0  0  0  0  0
  -18.4850  -10.8036    1.5330 C   0  0  0  0  0  0  0  0  0  0  0  0
  -22.0701  -14.7984    1.1251 P   0  0  1  0  0  0  0  0  0  0  0  0
  -20.2071  -17.0282    0.9981 P   0  0  1  0  0  0  0  0  0  0  0  0
  -15.7846  -12.0172    1.2526 C   0  0  0  0  0  0  0  0  0  0  0  0
  -15.2824   -9.5558    0.9706 C   0  0  0  0  0  0  0  0  0  0  0  0
  -14.9127  -10.8772    0.7540 C   0  0  0  0  0  0  0  0  0  0  0  0
  -13.7266  -11.1350    0.0864 C   0  0  0  0  0  0  0  0  0  0  0  0
  -13.3250  -12.4076   -0.1492 N   0  0  0  0  0  0  0  0  0  0  0  0
  -12.9606  -10.1056   -0.3356 N   0  0  0  0  0  0  0  0  0  0  0  0
  -13.3423   -8.8286   -0.1145 C   0  0  0  0  0  0  0  0  0  0  0  0
  -14.5002   -8.5579    0.5361 N   0  0  0  0  0  0  0  0  0  0  0  0
  -23.5210  -14.6158    0.7644 O   0  5  0  0  0  0  0  0  0  0  0  0
  -19.9454  -16.9956    2.4726 O   0  0  0  0  0  0  0  0  0  0  0  0
  -18.1558  -13.2549   -1.6856 S   0  0  0  0  0  0  0  0  0  0  0  0
  -16.6886  -13.1377   -0.7654 C   0  0  0  0  0  0  0  0  0  0  0  0
  -21.6559  -14.4347    2.5218 O   0  0  0  0  0  0  0  0  0  0  0  0
  -20.4008  -18.4421    0.5615 O   0  5  0  0  0  0  0  0  0  0  0  0
  -16.8564  -12.3052    0.2994 N   0  0  0  0  0  0  0  0  0  0  0  0
  -21.6430  -16.3166    0.7515 O   0  0  0  0  0  0  0  0  0  0  0  0
  -19.2250  -16.2812    0.1375 O   0  0  0  0  0  0  0  0  0  0  0  0
  -18.0921  -11.7488    0.4290 C   0  0  1  0  0  0  0  0  0  0  0  0
  -19.0222  -12.1975   -0.6424 C   0  0  1  0  0  0  0  0  0  0  0  0
  -20.4607  -11.9108   -0.9824 C   0  0  0  0  0  0  0  0  0  0  0  0
  -21.3438  -12.4727    0.1207 C   0  0  0  0  0  0  0  0  0  0  0  0
  -21.1943  -13.8871    0.1316 O   0  0  0  0  0  0  0  0  0  0  0  0
  1 11  1  0  0  0  0
  3 13  1  6  0  0  0
  3 17  2  0  0  0  0
  3 20  1  0  0  0  0
  3 26  1  0  0  0  0
  4 14  1  1  0  0  0
  4 18  1  0  0  0  0
  4 21  2  0  0  0  0
  4 20  1  0  0  0  0
  5 19  1  0  0  0  0
  5  7  1  0  0  0  0
  6  7  2  0  0  0  0
  6 12  1  0  0  0  0
  7  8  1  0  0  0  0
  8  9  1  0  0  0  0
  8 10  2  0  0  0  0
 10 11  1  0  0  0  0
 11 12  2  0  0  0  0
 15 23  1  0  0  0  0
 15 16  1  0  0  0  0
 16 19  1  0  0  0  0
 19 22  1  0  0  0  0
 22  2  1  1  0  0  0
 22 23  1  0  0  0  0
 23 24  1  6  0  0  0
 24 25  1  0  0  0  0
 25 26  1  0  0  0  0
M  CHG  2  13  -1  18  -1
M  END
>  <CHROM.1>
-177.39984159,85.64668215,83.81102057,59.81126534,115.17604688,-64.20668807
-176.04517614,62.21871644,-18.33193489,-13.18140416,0.38796782,0.69358022
0.06254566,-0.07962870

>  <Name>
ligand

>  <RI>
0

>  <Rbt.Current_Directory>
/home/itssahil/PROJECTS/Mol_Feturizer/New_Systems/rnas/2GDI

>  <Rbt.Executable>
rbdock ($Id: //depot/dev/client3/rdock/2013.1/src/exe/rbdock.cxx#4 $)

>  <Rbt.Library>
libRbt.so (2013.1, Build901 2013/11/27)

>  <Rbt.Parameter_File>
/export/apps/rDock/src/rDock_2013.1_src/data/scripts/dock_solv.prm

>  <Rbt.Receptor>
prm/pocket_docking_3.prm

>  <SCORE>
-17.5099

>  <SCORE.INTER>
-14.9133

>  <SCORE.INTER.CONST>
1

>  <SCORE.INTER.POLAR>
0

>  <SCORE.INTER.ROT>
8

>  <SCORE.INTER.SOLV>
19.0545

>  <SCORE.INTER.VDW>
-25.227

>  <SCORE.INTER.norm>
-0.573589

>  <SCORE.INTRA>
-2.59661

>  <SCORE.INTRA.DIHEDRAL>
-3.20934

>  <SCORE.INTRA.DIHEDRAL.0>
8.13976

>  <SCORE.INTRA.POLAR>
0

>  <SCORE.INTRA.POLAR.0>
0

>  <SCORE.INTRA.REPUL>
0

>  <SCORE.INTRA.REPUL.0>
0

>  <SCORE.INTRA.SOLV>
0.626816

>  <SCORE.INTRA.SOLV.lig_0>
-82.9561

>  <SCORE.INTRA.VDW>
-1.30534

>  <SCORE.INTRA.VDW.0>
-3.29171

>  <SCORE.INTRA.norm>
-0.0998695

>  <SCORE.RESTR>
0

>  <SCORE.RESTR.CAVITY>
0

>  <SCORE.RESTR.norm>
0

>  <SCORE.SYSTEM>
0

>  <SCORE.SYSTEM.CONST>
0

>  <SCORE.SYSTEM.DIHEDRAL>
0

>  <SCORE.SYSTEM.SOLV>
0

>  <SCORE.SYSTEM.norm>
0

>  <SCORE.heavy>
26

>  <SCORE.norm>
-0.673458

>  <RMSD>
2.558

$$$$
ligand
 OpenBabel11021811433D
libRbt.so/2013.1/901 2013/11/27
 26 27  0  0  0  0  0  0  0  0999 V2000
  -12.7220   -6.5956   -0.3565 C   0  0  0  0  0  0  0  0  0  0  0  0
  -17.6929  -12.6648   -0.8985 C   0  0  0  0  0  0  0  0  0  0  0  0
  -22.6136  -13.5468   -0.8118 P   0  0  1  0  0  0  0  0  0  0  0  0
  -22.9457  -16.1948    0.3442 P   0  0  1  0  0  0  0  0  0  0  0  0
  -14.9736  -11.8712    0.0062 C   0  0  0  0  0  0  0  0  0  0  0  0
  -13.0083  -10.2967   -0.2145 C   0  0  0  0  0  0  0  0  0  0  0  0
  -14.3792  -10.4756   -0.0792 C   0  0  0  0  0  0  0  0  0  0  0  0
  -15.1948   -9.3567   -0.0373 C   0  0  0  0  0  0  0  0  0  0  0  0
  -16.5378   -9.4811    0.0949 N   0  0  0  0  0  0  0  0  0  0  0  0
  -14.6454   -8.1261   -0.1289 N   0  0  0  0  0  0  0  0  0  0  0  0
  -13.3089   -7.9776   -0.2583 C   0  0  0  0  0  0  0  0  0  0  0  0
  -12.4956   -9.0612   -0.3000 N   0  0  0  0  0  0  0  0  0  0  0  0
  -21.9733  -13.0190   -2.0688 O   0  5  0  0  0  0  0  0  0  0  0  0
  -24.4414  -16.1630    0.2699 O   0  0  0  0  0  0  0  0  0  0  0  0
  -17.5332  -11.6965    3.0402 S   0  0  0  0  0  0  0  0  0  0  0  0
  -15.9979  -11.5595    2.2419 C   0  0  0  0  0  0  0  0  0  0  0  0
  -24.0485  -13.1809   -0.5630 O   0  0  0  0  0  0  0  0  0  0  0  0
  -22.4566  -17.5304   -0.1076 O   0  5  0  0  0  0  0  0  0  0  0  0
  -16.1103  -11.8951    0.9268 N   0  0  0  0  0  0  0  0  0  0  0  0
  -22.3895  -15.1513   -0.7651 O   0  0  0  0  0  0  0  0  0  0  0  0
  -22.3413  -15.7643    1.6529 O   0  0  0  0  0  0  0  0  0  0  0  0
  -17.3547  -12.2587    0.5112 C   0  0  1  0  0  0  0  0  0  0  0  0
  -18.3533  -12.1923    1.6124 C   0  0  1  0  0  0  0  0  0  0  0  0
  -19.8280  -12.4759    1.7210 C   0  0  0  0  0  0  0  0  0  0  0  0
  -20.3758  -12.7490    0.3290 C   0  0  0  0  0  0  0  0  0  0  0  0
  -21.7722  -12.9950    0.4420 O   0  0  0  0  0  0  0  0  0  0  0  0
  1 11  1  0  0  0  0
  3 13  1  6  0  0  0
  3 17  2  0  0  0  0
  3 20  1  0  0  0  0
  3 26  1  0  0  0  0
  4 14  1  1  0  0  0
  4 18  1  0  0  0  0
  4 21  2  0  0  0  0
  4 20  1  0  0  0  0
  5 19  1  0  0  0  0
  5  7  1  0  0  0  0
  6  7  2  0  0  0  0
  6 12  1  0  0  0  0
  7  8  1  0  0  0  0
  8  9  1  0  0  0  0
  8 10  2  0  0  0  0
 10 11  1  0  0  0  0
 11 12  2  0  0  0  0
 15 23  1  0  0  0  0
 15 16  1  0  0  0  0
 16 19  1  0  0  0  0
 19 22  1  0  0  0  0
 22  2  1  6  0  0  0
 22 23  1  0  0  0  0
 23 24  1  1  0  0  0
 24 25  1  0  0  0  0
 25 26  1  0  0  0  0
M  CHG  2  13  -1  18  -1
M  END
>  <CHROM.1>
-176.87692259,-59.84579122,143.84682984,63.31218890,173.99735236,-179.11844782
-170.19509690,-30.88220400,-18.85198244,-12.42605373,0.30694987,0.37052138
-0.47243701,-0.82372152

>  <Name>
ligand

>  <RI>
0

>  <Rbt.Current_Directory>
/home/itssahil/PROJECTS/Mol_Feturizer/New_Systems/rnas/2GDI

>  <Rbt.Executable>
rbdock ($Id: //depot/dev/client3/rdock/2013.1/src/exe/rbdock.cxx#4 $)

>  <Rbt.Library>
libRbt.so (2013.1, Build901 2013/11/27)

>  <Rbt.Parameter_File>
/export/apps/rDock/src/rDock_2013.1_src/data/scripts/dock_solv.prm

>  <Rbt.Receptor>
prm/pocket_docking_2.prm

>  <SCORE>
-8.49688

>  <SCORE.INTER>
-13.9609

>  <SCORE.INTER.CONST>
1

>  <SCORE.INTER.POLAR>
0

>  <SCORE.INTER.ROT>
8

>  <SCORE.INTER.SOLV>
12.6664

>  <SCORE.INTER.VDW>
-22.4627

>  <SCORE.INTER.norm>
-0.536957

>  <SCORE.INTRA>
3.5275

>  <SCORE.INTRA.DIHEDRAL>
-1.53394

>  <SCORE.INTRA.DIHEDRAL.0>
8.13976

>  <SCORE.INTRA.POLAR>
0

>  <SCORE.INTRA.POLAR.0>
0

>  <SCORE.INTRA.REPUL>
0

>  <SCORE.INTRA.REPUL.0>
0

>  <SCORE.INTRA.SOLV>
4.75009

>  <SCORE.INTRA.SOLV.lig_0>
-82.9561

>  <SCORE.INTRA.VDW>
1.91942

>  <SCORE.INTRA.VDW.0>
-3.29171

>  <SCORE.INTRA.norm>
0.135673

>  <SCORE.RESTR>
1.93651

>  <SCORE.RESTR.CAVITY>
1.93651

>  <SCORE.RESTR.norm>
0.0744811

>  <SCORE.SYSTEM>
0

>  <SCORE.SYSTEM.CONST>
0

>  <SCORE.SYSTEM.DIHEDRAL>
0

>  <SCORE.SYSTEM.SOLV>
0

>  <SCORE.SYSTEM.norm>
0

>  <SCORE.heavy>
26

>  <SCORE.norm>
-0.326803

>  <RMSD>
2.559

$$$$
ligand
 OpenBabel11021811433D
libRbt.so/2013.1/901 2013/11/27
 26 27  0  0  0  0  0  0  0  0999 V2000
  -12.5989   -8.3308   -0.2458 C   0  0  0  0  0  0  0  0  0  0  0  0
  -19.5356  -11.3150    1.6650 C   0  0  0  0  0  0  0  0  0  0  0  0
  -22.3739  -14.9343    1.6164 P   0  0  1  0  0  0  0  0  0  0  0  0
  -20.4512  -17.0673    2.0770 P   0  0  1  0  0  0  0  0  0  0  0  0
  -16.6394  -11.9850    1.5856 C   0  0  0  0  0  0  0  0  0  0  0  0
  -15.6984   -9.6543    1.3168 C   0  0  0  0  0  0  0  0  0  0  0  0
  -15.5753  -11.0195    1.0918 C   0  0  0  0  0  0  0  0  0  0  0  0
  -14.4566  -11.4845    0.4201 C   0  0  0  0  0  0  0  0  0  0  0  0
  -14.2932  -12.8075    0.1763 N   0  0  0  0  0  0  0  0  0  0  0  0
  -13.5167  -10.6089    0.0024 N   0  0  0  0  0  0  0  0  0  0  0  0
  -13.6597   -9.2853    0.2316 C   0  0  0  0  0  0  0  0  0  0  0  0
  -14.7483   -8.8125    0.8863 N   0  0  0  0  0  0  0  0  0  0  0  0
  -23.8414  -14.9103    1.2785 O   0  5  0  0  0  0  0  0  0  0  0  0
  -20.4715  -16.9996    3.5732 O   0  0  0  0  0  0  0  0  0  0  0  0
  -18.4457  -13.3196   -1.6921 S   0  0  0  0  0  0  0  0  0  0  0  0
  -17.1205  -13.0353   -0.6076 C   0  0  0  0  0  0  0  0  0  0  0  0
  -21.9488  -14.2634    2.8908 O   0  0  0  0  0  0  0  0  0  0  0  0
  -20.4547  -18.4963    1.6467 O   0  5  0  0  0  0  0  0  0  0  0  0
  -17.5426  -12.3616    0.4982 N   0  0  0  0  0  0  0  0  0  0  0  0
  -21.8649  -16.4717    1.5522 O   0  0  0  0  0  0  0  0  0  0  0  0
  -19.3844  -16.2552    1.3946 O   0  0  0  0  0  0  0  0  0  0  0  0
  -18.8683  -12.0541    0.5359 C   0  0  1  0  0  0  0  0  0  0  0  0
  -19.5915  -12.5501   -0.6664 C   0  0  1  0  0  0  0  0  0  0  0  0
  -21.0200  -12.4943   -1.1389 C   0  0  0  0  0  0  0  0  0  0  0  0
  -21.9303  -12.8905    0.0128 C   0  0  0  0  0  0  0  0  0  0  0  0
  -21.5790  -14.2061    0.4238 O   0  0  0  0  0  0  0  0  0  0  0  0
  1 11  1  0  0  0  0
  3 13  1  6  0  0  0
  3 17  2  0  0  0  0
  3 20  1  0  0  0  0
  3 26  1  0  0  0  0
  4 14  1  1  0  0  0
  4 18  1  0  0  0  0
  4 21  2  0  0  0  0
  4 20  1  0  0  0  0
  5 19  1  0  0  0  0
  5  7  1  0  0  0  0
  6  7  2  0  0  0  0
  6 12  1  0  0  0  0
  7  8  1  0  0  0  0
  8  9  1  0  0  0  0
  8 10  2  0  0  0  0
 10 11  1  0  0  0  0
 11 12  2  0  0  0  0
 15 23  1  0  0  0  0
 15 16  1  0  0  0  0
 16 19  1  0  0  0  0
 19 22  1  0  0  0  0
 22  2  1  1  0  0  0
 22 23  1  0  0  0  0
 23 24  1  6  0  0  0
 24 25  1  0  0  0  0
 25 26  1  0  0  0  0
M  CHG  2  13  -1  18  -1
M  END
>  <CHROM.1>
-168.39421623,62.96396441,99.87975634,69.40258316,134.22253419,-59.30361548
-179.03664989,54.24294854,-18.77353023,-13.38363166,0.81737593,-0.68610298
0.10645085,2.76907318

>  <Name>
ligand

>  <RI>
0

>  <Rbt.Current_Directory>
/home/itssahil/PROJECTS/Mol_Feturizer/New_Systems/rnas/2GDI

>  <Rbt.Executable>
rbdock ($Id: //depot/dev/client3/rdock/2013.1/src/exe/rbdock.cxx#4 $)

>  <Rbt.Library>
libRbt.so (2013.1, Build901 2013/11/27)

>  <Rbt.Parameter_File>
/export/apps/rDock/src/rDock_2013.1_src/data/scripts/dock_solv.prm

>  <Rbt.Receptor>
prm/pocket_docking_3.prm

>  <SCORE>
-15.1262

>  <SCORE.INTER>
-13.8639

>  <SCORE.INTER.CONST>
1

>  <SCORE.INTER.POLAR>
0

>  <SCORE.INTER.ROT>
8

>  <SCORE.INTER.SOLV>
14.9844

>  <SCORE.INTER.VDW>
-23.1707

>  <SCORE.INTER.norm>
-0.533226

>  <SCORE.INTRA>
-1.26236

>  <SCORE.INTRA.DIHEDRAL>
-2.81502

>  <SCORE.INTRA.DIHEDRAL.0>
8.13976

>  <SCORE.INTRA.POLAR>
0

>  <SCORE.INTRA.POLAR.0>
0

>  <SCORE.INTRA.REPUL>
0

>  <SCORE.INTRA.REPUL.0>
0

>  <SCORE.INTRA.SOLV>
1.76537

>  <SCORE.INTRA.SOLV.lig_0>
-82.9561

>  <SCORE.INTRA.VDW>
-0.737537

>  <SCORE.INTRA.VDW.0>
-3.29171

>  <SCORE.INTRA.norm>
-0.0485524

>  <SCORE.RESTR>
0

>  <SCORE.RESTR.CAVITY>
0

>  <SCORE.RESTR.norm>
0

>  <SCORE.SYSTEM>
0

>  <SCORE.SYSTEM.CONST>
0

>  <SCORE.SYSTEM.DIHEDRAL>
0

>  <SCORE.SYSTEM.SOLV>
0

>  <SCORE.SYSTEM.norm>
0

>  <SCORE.heavy>
26

>  <SCORE.norm>
-0.581778

>  <RMSD>
2.561

$$$$
ligand
 OpenBabel11021811433D
libRbt.so/2013.1/901 2013/11/27
 26 27  0  0  0  0  0  0  0  0999 V2000
  -12.4703   -7.9475   -0.5493 C   0  0  0  0  0  0  0  0  0  0  0  0
  -18.5993  -10.6509    1.4575 C   0  0  0  0  0  0  0  0  0  0  0  0
  -22.3986  -15.1931   -0.7380 P   0  0  1  0  0  0  0  0  0  0  0  0
  -21.7040  -15.1418    2.0857 P   0  0  1  0  0  0  0  0  0  0  0  0
  -15.9980  -12.0848    1.3137 C   0  0  0  0  0  0  0  0  0  0  0  0
  -15.3905   -9.6526    0.9885 C   0  0  0  0  0  0  0  0  0  0  0  0
  -15.0691  -10.9925    0.8114 C   0  0  0  0  0  0  0  0  0  0  0  0
  -13.8785  -11.3128    0.1799 C   0  0  0  0  0  0  0  0  0  0  0  0
  -13.5228  -12.6056   -0.0165 N   0  0  0  0  0  0  0  0  0  0  0  0
  -13.0618  -10.3249   -0.2460 N   0  0  0  0  0  0  0  0  0  0  0  0
  -13.3970   -9.0289   -0.0637 C   0  0  0  0  0  0  0  0  0  0  0  0
  -14.5585   -8.6971    0.5512 N   0  0  0  0  0  0  0  0  0  0  0  0
  -21.6875  -16.4950   -0.9987 O   0  5  0  0  0  0  0  0  0  0  0  0
  -21.1817  -13.7483    2.2561 O   0  0  0  0  0  0  0  0  0  0  0  0
  -18.3932  -13.2927   -1.6174 S   0  0  0  0  0  0  0  0  0  0  0  0
  -16.9424  -13.2401   -0.6657 C   0  0  0  0  0  0  0  0  0  0  0  0
  -23.5994  -14.8819   -1.5842 O   0  0  0  0  0  0  0  0  0  0  0  0
  -22.5332  -15.5073    3.2715 O   0  5  0  0  0  0  0  0  0  0  0  0
  -17.0675  -12.3401    0.3487 N   0  0  0  0  0  0  0  0  0  0  0  0
  -22.7452  -15.1136    0.8432 O   0  0  0  0  0  0  0  0  0  0  0  0
  -20.6826  -16.1915    1.7422 O   0  0  0  0  0  0  0  0  0  0  0  0
  -18.2579  -11.6828    0.4158 C   0  0  1  0  0  0  0  0  0  0  0  0
  -19.1963  -12.1155   -0.6549 C   0  0  1  0  0  0  0  0  0  0  0  0
  -20.5995  -11.7365   -1.0478 C   0  0  0  0  0  0  0  0  0  0  0  0
  -21.5679  -12.7148   -0.4015 C   0  0  0  0  0  0  0  0  0  0  0  0
  -21.3475  -13.9993   -0.9713 O   0  0  0  0  0  0  0  0  0  0  0  0
  1 11  1  0  0  0  0
  3 13  1  6  0  0  0
  3 17  2  0  0  0  0
  3 20  1  0  0  0  0
  3 26  1  0  0  0  0
  4 14  1  1  0  0  0
  4 18  1  0  0  0  0
  4 21  2  0  0  0  0
  4 20  1  0  0  0  0
  5 19  1  0  0  0  0
  5  7  1  0  0  0  0
  6  7  2  0  0  0  0
  6 12  1  0  0  0  0
  7  8  1  0  0  0  0
  8  9  1  0  0  0  0
  8 10  2  0  0  0  0
 10 11  1  0  0  0  0
 11 12  2  0  0  0  0
 15 23  1  0  0  0  0
 15 16  1  0  0  0  0
 16 19  1  0  0  0  0
 19 22  1  0  0  0  0
 22  2  1  1  0  0  0
 22 23  1  0  0  0  0
 23 24  1  6  0  0  0
 24 25  1  0  0  0  0
 25 26  1  0  0  0  0
M  CHG  2  13  -1  18  -1
M  END
>  <CHROM.1>
60.06528004,88.65357780,83.04532226,82.58276135,86.37963020,-65.91253398
-167.19241581,-159.44304645,-18.79516673,-12.92456500,0.22870612,0.12067795
-0.54881495,-1.41104968

>  <Name>
ligand

>  <RI>
0

>  <Rbt.Current_Directory>
/home/itssahil/PROJECTS/Mol_Feturizer/New_Systems/rnas/2GDI

>  <Rbt.Executable>
rbdock ($Id: //depot/dev/client3/rdock/2013.1/src/exe/rbdock.cxx#4 $)

>  <Rbt.Library>
libRbt.so (2013.1, Build901 2013/11/27)

>  <Rbt.Parameter_File>
/export/apps/rDock/src/rDock_2013.1_src/data/scripts/dock_solv.prm

>  <Rbt.Receptor>
prm/pocket_docking_3.prm

>  <SCORE>
-15.0451

>  <SCORE.INTER>
-13.8461

>  <SCORE.INTER.CONST>
1

>  <SCORE.INTER.POLAR>
0

>  <SCORE.INTER.ROT>
8

>  <SCORE.INTER.SOLV>
15.9516

>  <SCORE.INTER.VDW>
-23.4812

>  <SCORE.INTER.norm>
-0.532541

>  <SCORE.INTRA>
-1.19907

>  <SCORE.INTRA.DIHEDRAL>
-1.10942

>  <SCORE.INTRA.DIHEDRAL.0>
8.13976

>  <SCORE.INTRA.POLAR>
0

>  <SCORE.INTRA.POLAR.0>
0

>  <SCORE.INTRA.REPUL>
0

>  <SCORE.INTRA.REPUL.0>
0

>  <SCORE.INTRA.SOLV>
0.820678

>  <SCORE.INTRA.SOLV.lig_0>
-82.9561

>  <SCORE.INTRA.VDW>
-1.0547

>  <SCORE.INTRA.VDW.0>
-3.29171

>  <SCORE.INTRA.norm>
-0.0461182

>  <SCORE.RESTR>
0

>  <SCORE.RESTR.CAVITY>
0

>  <SCORE.RESTR.norm>
0

>  <SCORE.SYSTEM>
0

>  <SCORE.SYSTEM.CONST>
0

>  <SCORE.SYSTEM.DIHEDRAL>
0

>  <SCORE.SYSTEM.SOLV>
0

>  <SCORE.SYSTEM.norm>
0

>  <SCORE.heavy>
26

>  <SCORE.norm>
-0.578659

>  <RMSD>
2.566

$$$$
ligand
 OpenBabel11021811433D
libRbt.so/2013.1/901 2013/11/27
 26 27  0  0  0  0  0  0  0  0999 V2000
  -12.6293   -7.4283   -0.4412 C   0  0  0  0  0  0  0  0  0  0  0  0
  -17.3338  -11.3486    2.9016 C   0  0  0  0  0  0  0  0  0  0  0  0
  -22.3284  -13.8648    1.2140 P   0  0  1  0  0  0  0  0  0  0  0  0
  -23.0727  -12.9782   -1.4540 P   0  0  1  0  0  0  0  0  0  0  0  0
  -15.4276  -12.2873    0.8212 C   0  0  0  0  0  0  0  0  0  0  0  0
  -15.2592   -9.7660    0.7501 C   0  0  0  0  0  0  0  0  0  0  0  0
  -14.6907  -11.0038    0.4774 C   0  0  0  0  0  0  0  0  0  0  0  0
  -13.4330  -11.0449   -0.1019 C   0  0  0  0  0  0  0  0  0  0  0  0
  -12.8385  -12.2287   -0.3874 N   0  0  0  0  0  0  0  0  0  0  0  0
  -12.7909   -9.8910   -0.3861 N   0  0  0  0  0  0  0  0  0  0  0  0
  -13.3652   -8.6991   -0.1129 C   0  0  0  0  0  0  0  0  0  0  0  0
  -14.5957   -8.6401    0.4527 N   0  0  0  0  0  0  0  0  0  0  0  0
  -23.5032  -13.2623    1.9388 O   0  5  0  0  0  0  0  0  0  0  0  0
  -22.5445  -11.9069   -2.3579 O   0  0  0  0  0  0  0  0  0  0  0  0
  -19.1173  -12.1790   -0.6490 S   0  0  0  0  0  0  0  0  0  0  0  0
  -17.4024  -12.4472   -0.6685 C   0  0  0  0  0  0  0  0  0  0  0  0
  -22.3570  -15.3455    0.9657 O   0  0  0  0  0  0  0  0  0  0  0  0
  -22.9079  -14.3069   -2.1132 O   0  5  0  0  0  0  0  0  0  0  0  0
  -16.8579  -12.1538    0.5449 N   0  0  0  0  0  0  0  0  0  0  0  0
  -22.0997  -13.0333   -0.1583 O   0  0  0  0  0  0  0  0  0  0  0  0
  -24.4611  -12.7619   -0.9165 O   0  0  0  0  0  0  0  0  0  0  0  0
  -17.7295  -11.7238    1.4983 C   0  0  1  0  0  0  0  0  0  0  0  0
  -19.1302  -11.6829    0.9975 C   0  0  1  0  0  0  0  0  0  0  0  0
  -20.4566  -11.2980    1.5970 C   0  0  0  0  0  0  0  0  0  0  0  0
  -20.8068  -12.2974    2.6882 C   0  0  0  0  0  0  0  0  0  0  0  0
  -21.0068  -13.5673    2.0796 O   0  0  0  0  0  0  0  0  0  0  0  0
  1 11  1  0  0  0  0
  3 13  1  1  0  0  0
  3 17  2  0  0  0  0
  3 20  1  0  0  0  0
  3 26  1  0  0  0  0
  4 14  1  6  0  0  0
  4 18  1  0  0  0  0
  4 21  2  0  0  0  0
  4 20  1  0  0  0  0
  5 19  1  0  0  0  0
  5  7  1  0  0  0  0
  6  7  2  0  0  0  0
  6 12  1  0  0  0  0
  7  8  1  0  0  0  0
  8  9  1  0  0  0  0
  8 10  2  0  0  0  0
 10 11  1  0  0  0  0
 11 12  2  0  0  0  0
 15 23  1  0  0  0  0
 15 16  1  0  0  0  0
 16 19  1  0  0  0  0
 19 22  1  0  0  0  0
 22  2  1  1  0  0  0
 22 23  1  0  0  0  0
 23 24  1  6  0  0  0
 24 25  1  0  0  0  0
 25 26  1  0  0  0  0
M  CHG  2  13  -1  18  -1
M  END
>  <CHROM.1>
-67.56412100,88.76795664,39.01977318,170.81575571,114.70991026,-65.38905551
-73.27402870,-41.65369653,-18.98285525,-12.03263361,0.25973442,0.07486143
-0.35829245,-1.29869549

>  <Name>
ligand

>  <RI>
0

>  <Rbt.Current_Directory>
/home/itssahil/PROJECTS/Mol_Feturizer/New_Systems/rnas/2GDI

>  <Rbt.Executable>
rbdock ($Id: //depot/dev/client3/rdock/2013.1/src/exe/rbdock.cxx#4 $)

>  <Rbt.Library>
libRbt.so (2013.1, Build901 2013/11/27)

>  <Rbt.Parameter_File>
/export/apps/rDock/src/rDock_2013.1_src/data/scripts/dock_solv.prm

>  <Rbt.Receptor>
prm/pocket_docking_5.prm

>  <SCORE>
-19.3146

>  <SCORE.INTER>
-18.4444

>  <SCORE.INTER.CONST>
1

>  <SCORE.INTER.POLAR>
0

>  <SCORE.INTER.ROT>
8

>  <SCORE.INTER.SOLV>
18.9546

>  <SCORE.INTER.VDW>
-27.5478

>  <SCORE.INTER.norm>
-0.7094

>  <SCORE.INTRA>
-0.870217

>  <SCORE.INTRA.DIHEDRAL>
-2.02481

>  <SCORE.INTRA.DIHEDRAL.0>
8.13976

>  <SCORE.INTRA.POLAR>
0

>  <SCORE.INTRA.POLAR.0>
0

>  <SCORE.INTRA.REPUL>
0

>  <SCORE.INTRA.REPUL.0>
0

>  <SCORE.INTRA.SOLV>
2.53326

>  <SCORE.INTRA.SOLV.lig_0>
-82.9561

>  <SCORE.INTRA.VDW>
-1.12444

>  <SCORE.INTRA.VDW.0>
-3.29171

>  <SCORE.INTRA.norm>
-0.0334699

>  <SCORE.RESTR>
0

>  <SCORE.RESTR.CAVITY>
0

>  <SCORE.RESTR.norm>
0

>  <SCORE.SYSTEM>
0

>  <SCORE.SYSTEM.CONST>
0

>  <SCORE.SYSTEM.DIHEDRAL>
0

>  <SCORE.SYSTEM.SOLV>
0

>  <SCORE.SYSTEM.norm>
0

>  <SCORE.heavy>
26

>  <SCORE.norm>
-0.74287

>  <RMSD>
2.571

$$$$
ligand
 OpenBabel11021811433D
libRbt.so/2013.1/901 2013/11/27
 26 27  0  0  0  0  0  0  0  0999 V2000
  -12.6153   -7.6820   -0.3601 C   0  0  0  0  0  0  0  0  0  0  0  0
  -17.2747  -14.8154    0.3223 C   0  0  0  0  0  0  0  0  0  0  0  0
  -23.9696  -14.2319   -0.2603 P   0  0  1  0  0  0  0  0  0  0  0  0
  -25.0176  -15.2006    2.2739 P   0  0  1  0  0  0  0  0  0  0  0  0
  -15.7096  -12.3560    0.9096 C   0  0  0  0  0  0  0  0  0  0  0  0
  -13.7456  -11.2172   -0.2021 C   0  0  0  0  0  0  0  0  0  0  0  0
  -14.8872  -11.1208    0.5835 C   0  0  0  0  0  0  0  0  0  0  0  0
  -15.2684   -9.8743    1.0525 C   0  0  0  0  0  0  0  0  0  0  0  0
  -16.3737   -9.7308    1.8232 N   0  0  0  0  0  0  0  0  0  0  0  0
  -14.5294   -8.7881    0.7384 N   0  0  0  0  0  0  0  0  0  0  0  0
  -13.4219   -8.9075   -0.0261 C   0  0  0  0  0  0  0  0  0  0  0  0
  -13.0335  -10.1194   -0.4927 N   0  0  0  0  0  0  0  0  0  0  0  0
  -24.9377  -14.9381   -1.1727 O   0  5  0  0  0  0  0  0  0  0  0  0
  -26.1171  -16.0466    1.7093 O   0  0  0  0  0  0  0  0  0  0  0  0
  -19.1416  -11.4084   -0.8541 S   0  0  0  0  0  0  0  0  0  0  0  0
  -17.5983  -11.1192   -0.1141 C   0  0  0  0  0  0  0  0  0  0  0  0
  -24.1985  -12.7688   -0.0118 O   0  0  0  0  0  0  0  0  0  0  0  0
  -24.3512  -15.9354    3.3889 O   0  5  0  0  0  0  0  0  0  0  0  0
  -17.0187  -12.2936    0.2595 N   0  0  0  0  0  0  0  0  0  0  0  0
  -23.8802  -15.0664    1.1262 O   0  0  0  0  0  0  0  0  0  0  0  0
  -25.3940  -13.7924    2.6460 O   0  0  0  0  0  0  0  0  0  0  0  0
  -17.7341  -13.4204   -0.0087 C   0  0  1  0  0  0  0  0  0  0  0  0
  -19.0234  -13.1157   -0.6864 C   0  0  1  0  0  0  0  0  0  0  0  0
  -20.1722  -13.9452   -1.1957 C   0  0  0  0  0  0  0  0  0  0  0  0
  -21.4030  -13.6412   -0.3561 C   0  0  0  0  0  0  0  0  0  0  0  0
  -22.4997  -14.3676   -0.8971 O   0  0  0  0  0  0  0  0  0  0  0  0
  1 11  1  0  0  0  0
  3 13  1  6  0  0  0
  3 17  2  0  0  0  0
  3 20  1  0  0  0  0
  3 26  1  0  0  0  0
  4 14  1  6  0  0  0
  4 18  1  0  0  0  0
  4 21  2  0  0  0  0
  4 20  1  0  0  0  0
  5 19  1  0  0  0  0
  5  7  1  0  0  0  0
  6  7  2  0  0  0  0
  6 12  1  0  0  0  0
  7  8  1  0  0  0  0
  8  9  1  0  0  0  0
  8 10  2  0  0  0  0
 10 11  1  0  0  0  0
 11 12  2  0  0  0  0
 15 23  1  0  0  0  0
 15 16  1  0  0  0  0
 16 19  1  0  0  0  0
 19 22  1  0  0  0  0
 22  2  1  6  0  0  0
 22 23  1  0  0  0  0
 23 24  1  1  0  0  0
 24 25  1  0  0  0  0
 25 26  1  0  0  0  0
M  CHG  2  13  -1  18  -1
M  END
>  <CHROM.1>
-70.52064646,-23.73936779,-112.38523095,70.58638818,-65.51449072,176.48960351
-178.21901559,171.17956542,-19.89453720,-12.77198562,0.41559877,-0.08222013
0.44443664,1.56027849

>  <Name>
ligand

>  <RI>
0

>  <Rbt.Current_Directory>
/home/itssahil/PROJECTS/Mol_Feturizer/New_Systems/rnas/2GDI

>  <Rbt.Executable>
rbdock ($Id: //depot/dev/client3/rdock/2013.1/src/exe/rbdock.cxx#4 $)

>  <Rbt.Library>
libRbt.so (2013.1, Build901 2013/11/27)

>  <Rbt.Parameter_File>
/export/apps/rDock/src/rDock_2013.1_src/data/scripts/dock_solv.prm

>  <Rbt.Receptor>
prm/pocket_docking_3.prm

>  <SCORE>
-13.7008

>  <SCORE.INTER>
-14.7314

>  <SCORE.INTER.CONST>
1

>  <SCORE.INTER.POLAR>
0

>  <SCORE.INTER.ROT>
8

>  <SCORE.INTER.SOLV>
13.6951

>  <SCORE.INTER.VDW>
-23.3193

>  <SCORE.INTER.norm>
-0.566594

>  <SCORE.INTRA>
1.03064

>  <SCORE.INTRA.DIHEDRAL>
-2.51335

>  <SCORE.INTRA.DIHEDRAL.0>
8.13976

>  <SCORE.INTRA.POLAR>
0

>  <SCORE.INTRA.POLAR.0>
0

>  <SCORE.INTRA.REPUL>
0

>  <SCORE.INTRA.REPUL.0>
0

>  <SCORE.INTRA.SOLV>
1.98412

>  <SCORE.INTRA.SOLV.lig_0>
-82.9561

>  <SCORE.INTRA.VDW>
1.29526

>  <SCORE.INTRA.VDW.0>
-3.29171

>  <SCORE.INTRA.norm>
0.0396401

>  <SCORE.RESTR>
0

>  <SCORE.RESTR.CAVITY>
0

>  <SCORE.RESTR.norm>
0

>  <SCORE.SYSTEM>
0

>  <SCORE.SYSTEM.CONST>
0

>  <SCORE.SYSTEM.DIHEDRAL>
0

>  <SCORE.SYSTEM.SOLV>
0

>  <SCORE.SYSTEM.norm>
0

>  <SCORE.heavy>
26

>  <SCORE.norm>
-0.526954

>  <RMSD>
2.578

$$$$
ligand
 OpenBabel11021811433D
libRbt.so/2013.1/901 2013/11/27
 26 27  0  0  0  0  0  0  0  0999 V2000
  -12.7073   -8.0947   -0.4010 C   0  0  0  0  0  0  0  0  0  0  0  0
  -17.2837  -12.5762   -1.0478 C   0  0  0  0  0  0  0  0  0  0  0  0
  -21.6714  -15.4297   -0.0699 P   0  0  1  0  0  0  0  0  0  0  0  0
  -20.8015  -18.1996   -0.2415 P   0  0  1  0  0  0  0  0  0  0  0  0
  -15.9189  -12.4255    1.5899 C   0  0  0  0  0  0  0  0  0  0  0  0
  -13.9132  -11.5296    0.3389 C   0  0  0  0  0  0  0  0  0  0  0  0
  -15.0656  -11.2795    1.0732 C   0  0  0  0  0  0  0  0  0  0  0  0
  -15.4286   -9.9644    1.3134 C   0  0  0  0  0  0  0  0  0  0  0  0
  -16.5436   -9.6710    2.0256 N   0  0  0  0  0  0  0  0  0  0  0  0
  -14.6621   -8.9616    0.8323 N   0  0  0  0  0  0  0  0  0  0  0  0
  -13.5447   -9.2302    0.1222 C   0  0  0  0  0  0  0  0  0  0  0  0
  -13.1737  -10.5110   -0.1215 N   0  0  0  0  0  0  0  0  0  0  0  0
  -22.8053  -15.5924   -1.0478 O   0  5  0  0  0  0  0  0  0  0  0  0
  -21.2760  -18.4820    1.1508 O   0  0  0  0  0  0  0  0  0  0  0  0
  -19.7538  -11.4594    1.9734 S   0  0  0  0  0  0  0  0  0  0  0  0
  -18.1242  -11.7481    2.4969 C   0  0  0  0  0  0  0  0  0  0  0  0
  -22.0242  -15.3480    1.3873 O   0  0  0  0  0  0  0  0  0  0  0  0
  -21.8953  -18.5080   -1.2088 O   0  5  0  0  0  0  0  0  0  0  0  0
  -17.3419  -12.1184    1.4454 N   0  0  0  0  0  0  0  0  0  0  0  0
  -20.5843  -16.5970   -0.3568 O   0  0  0  0  0  0  0  0  0  0  0  0
  -19.4875  -18.8214   -0.6291 O   0  0  0  0  0  0  0  0  0  0  0  0
  -17.9654  -12.1879    0.2371 C   0  0  1  0  0  0  0  0  0  0  0  0
  -19.4037  -11.8173    0.3283 C   0  0  1  0  0  0  0  0  0  0  0  0
  -20.5362  -11.7236   -0.6595 C   0  0  0  0  0  0  0  0  0  0  0  0
  -21.5506  -12.8112   -0.3428 C   0  0  0  0  0  0  0  0  0  0  0  0
  -20.8947  -14.0701   -0.4339 O   0  0  0  0  0  0  0  0  0  0  0  0
  1 11  1  0  0  0  0
  3 13  1  6  0  0  0
  3 17  2  0  0  0  0
  3 20  1  0  0  0  0
  3 26  1  0  0  0  0
  4 14  1  1  0  0  0
  4 18  1  0  0  0  0
  4 21  2  0  0  0  0
  4 20  1  0  0  0  0
  5 19  1  0  0  0  0
  5  7  1  0  0  0  0
  6  7  2  0  0  0  0
  6 12  1  0  0  0  0
  7  8  1  0  0  0  0
  8  9  1  0  0  0  0
  8 10  2  0  0  0  0
 10 11  1  0  0  0  0
 11 12  2  0  0  0  0
 15 23  1  0  0  0  0
 15 16  1  0  0  0  0
 16 19  1  0  0  0  0
 19 22  1  0  0  0  0
 22  2  1  6  0  0  0
 22 23  1  0  0  0  0
 23 24  1  1  0  0  0
 24 25  1  0  0  0  0
 25 26  1  0  0  0  0
M  CHG  2  13  -1  18  -1
M  END
>  <CHROM.1>
-62.15887040,-103.88689000,-139.51441550,-56.23870203,-66.56163764,-59.26382820
176.34365188,63.29270387,-18.70594040,-13.45765265,0.36203080,-0.81925193
-0.11193097,-2.91435832

>  <Name>
ligand

>  <RI>
0

>  <Rbt.Current_Directory>
/home/itssahil/PROJECTS/Mol_Feturizer/New_Systems/rnas/2GDI

>  <Rbt.Executable>
rbdock ($Id: //depot/dev/client3/rdock/2013.1/src/exe/rbdock.cxx#4 $)

>  <Rbt.Library>
libRbt.so (2013.1, Build901 2013/11/27)

>  <Rbt.Parameter_File>
/export/apps/rDock/src/rDock_2013.1_src/data/scripts/dock_solv.prm

>  <Rbt.Receptor>
prm/pocket_docking_4.prm

>  <SCORE>
-15.4372

>  <SCORE.INTER>
-15.8051

>  <SCORE.INTER.CONST>
1

>  <SCORE.INTER.POLAR>
0

>  <SCORE.INTER.ROT>
8

>  <SCORE.INTER.SOLV>
15.7044

>  <SCORE.INTER.VDW>
-24.7049

>  <SCORE.INTER.norm>
-0.607888

>  <SCORE.INTRA>
0.36786

>  <SCORE.INTRA.DIHEDRAL>
-2.86353

>  <SCORE.INTRA.DIHEDRAL.0>
8.13976

>  <SCORE.INTRA.POLAR>
0

>  <SCORE.INTRA.POLAR.0>
0

>  <SCORE.INTRA.REPUL>
0

>  <SCORE.INTRA.REPUL.0>
0

>  <SCORE.INTRA.SOLV>
3.74319

>  <SCORE.INTRA.SOLV.lig_0>
-82.9561

>  <SCORE.INTRA.VDW>
-0.0719691

>  <SCORE.INTRA.VDW.0>
-3.29171

>  <SCORE.INTRA.norm>
0.0141485

>  <SCORE.RESTR>
0

>  <SCORE.RESTR.CAVITY>
0

>  <SCORE.RESTR.norm>
0

>  <SCORE.SYSTEM>
0

>  <SCORE.SYSTEM.CONST>
0

>  <SCORE.SYSTEM.DIHEDRAL>
0

>  <SCORE.SYSTEM.SOLV>
0

>  <SCORE.SYSTEM.norm>
0

>  <SCORE.heavy>
26

>  <SCORE.norm>
-0.593739

>  <RMSD>
2.604

$$$$
ligand
 OpenBabel11021811433D
libRbt.so/2013.1/901 2013/11/27
 26 27  0  0  0  0  0  0  0  0999 V2000
  -12.9815   -7.9322   -0.1232 C   0  0  0  0  0  0  0  0  0  0  0  0
  -16.4856  -15.7997    0.9774 C   0  0  0  0  0  0  0  0  0  0  0  0
  -21.9257  -13.8342    1.3778 P   0  0  1  0  0  0  0  0  0  0  0  0
  -24.1107  -13.6423   -0.5321 P   0  0  1  0  0  0  0  0  0  0  0  0
  -14.9652  -13.2527    0.7654 C   0  0  0  0  0  0  0  0  0  0  0  0
  -13.2650  -11.6358   -0.1754 C   0  0  0  0  0  0  0  0  0  0  0  0
  -14.4369  -11.8461    0.5403 C   0  0  0  0  0  0  0  0  0  0  0  0
  -15.1213  -10.7472    1.0331 C   0  0  0  0  0  0  0  0  0  0  0  0
  -16.2682  -10.9026    1.7382 N   0  0  0  0  0  0  0  0  0  0  0  0
  -14.6400   -9.5052    0.8089 N   0  0  0  0  0  0  0  0  0  0  0  0
  -13.4971   -9.3262    0.1112 C   0  0  0  0  0  0  0  0  0  0  0  0
  -12.8138  -10.3900   -0.3775 N   0  0  0  0  0  0  0  0  0  0  0  0
  -21.2435  -12.8589    2.3007 O   0  5  0  0  0  0  0  0  0  0  0  0
  -24.8481  -14.7792    0.1059 O   0  0  0  0  0  0  0  0  0  0  0  0
  -18.2735  -13.0610   -1.4268 S   0  0  0  0  0  0  0  0  0  0  0  0
  -16.7830  -12.4953   -0.7402 C   0  0  0  0  0  0  0  0  0  0  0  0
  -22.4309  -15.1142    1.9788 O   0  0  0  0  0  0  0  0  0  0  0  0
  -25.0655  -12.5310   -0.8159 O   0  5  0  0  0  0  0  0  0  0  0  0
  -16.2283  -13.4520    0.0548 N   0  0  0  0  0  0  0  0  0  0  0  0
  -23.0966  -13.0444    0.5828 O   0  0  0  0  0  0  0  0  0  0  0  0
  -23.2556  -13.9941   -1.7188 O   0  0  0  0  0  0  0  0  0  0  0  0
  -16.9233  -14.6185    0.1528 C   0  0  1  0  0  0  0  0  0  0  0  0
  -18.1651  -14.5999   -0.6670 C   0  0  1  0  0  0  0  0  0  0  0  0
  -19.2767  -15.5821   -0.9249 C   0  0  0  0  0  0  0  0  0  0  0  0
  -20.2572  -15.5247    0.2359 C   0  0  0  0  0  0  0  0  0  0  0  0
  -20.8782  -14.2451    0.2295 O   0  0  0  0  0  0  0  0  0  0  0  0
  1 11  1  0  0  0  0
  3 13  1  1  0  0  0
  3 17  2  0  0  0  0
  3 20  1  0  0  0  0
  3 26  1  0  0  0  0
  4 14  1  1  0  0  0
  4 18  1  0  0  0  0
  4 21  2  0  0  0  0
  4 20  1  0  0  0  0
  5 19  1  0  0  0  0
  5  7  1  0  0  0  0
  6  7  2  0  0  0  0
  6 12  1  0  0  0  0
  7  8  1  0  0  0  0
  8  9  1  0  0  0  0
  8 10  2  0  0  0  0
 10 11  1  0  0  0  0
 11 12  2  0  0  0  0
 15 23  1  0  0  0  0
 15 16  1  0  0  0  0
 16 19  1  0  0  0  0
 19 22  1  0  0  0  0
 22  2  1  6  0  0  0
 22 23  1  0  0  0  0
 23 24  1  1  0  0  0
 24 25  1  0  0  0  0
 25 26  1  0  0  0  0
M  CHG  2  13  -1  18  -1
M  END
>  <CHROM.1>
179.48772108,2.84347802,-113.28504323,57.87509993,-97.85965977,66.15250879
-177.12694795,105.93977597,-18.96311949,-13.00105909,0.17021765,0.33231952
-0.01594144,-0.00846516

>  <Name>
ligand

>  <RI>
0

>  <Rbt.Current_Directory>
/home/itssahil/PROJECTS/Mol_Feturizer/New_Systems/rnas/2GDI

>  <Rbt.Executable>
rbdock ($Id: //depot/dev/client3/rdock/2013.1/src/exe/rbdock.cxx#4 $)

>  <Rbt.Library>
libRbt.so (2013.1, Build901 2013/11/27)

>  <Rbt.Parameter_File>
/export/apps/rDock/src/rDock_2013.1_src/data/scripts/dock_solv.prm

>  <Rbt.Receptor>
prm/pocket_docking_4.prm

>  <SCORE>
-14.8617

>  <SCORE.INTER>
-15.1625

>  <SCORE.INTER.CONST>
1

>  <SCORE.INTER.POLAR>
0

>  <SCORE.INTER.ROT>
8

>  <SCORE.INTER.SOLV>
12.1812

>  <SCORE.INTER.VDW>
-23.1021

>  <SCORE.INTER.norm>
-0.583173

>  <SCORE.INTRA>
0.300803

>  <SCORE.INTRA.DIHEDRAL>
-1.29203

>  <SCORE.INTRA.DIHEDRAL.0>
8.13976

>  <SCORE.INTRA.POLAR>
0

>  <SCORE.INTRA.POLAR.0>
0

>  <SCORE.INTRA.REPUL>
0

>  <SCORE.INTRA.REPUL.0>
0

>  <SCORE.INTRA.SOLV>
1.70961

>  <SCORE.INTRA.SOLV.lig_0>
-82.9561

>  <SCORE.INTRA.VDW>
0.0920143

>  <SCORE.INTRA.VDW.0>
-3.29171

>  <SCORE.INTRA.norm>
0.0115694

>  <SCORE.RESTR>
0

>  <SCORE.RESTR.CAVITY>
0

>  <SCORE.RESTR.norm>
0

>  <SCORE.SYSTEM>
0

>  <SCORE.SYSTEM.CONST>
0

>  <SCORE.SYSTEM.DIHEDRAL>
0

>  <SCORE.SYSTEM.SOLV>
0

>  <SCORE.SYSTEM.norm>
0

>  <SCORE.heavy>
26

>  <SCORE.norm>
-0.571604

>  <RMSD>
2.616

$$$$
ligand
 OpenBabel11021811433D
libRbt.so/2013.1/901 2013/11/27
 26 27  0  0  0  0  0  0  0  0999 V2000
  -12.5346   -8.1570   -0.3592 C   0  0  0  0  0  0  0  0  0  0  0  0
  -18.8273  -11.6353    1.5967 C   0  0  0  0  0  0  0  0  0  0  0  0
  -23.9709  -13.7039    0.4777 P   0  0  1  0  0  0  0  0  0  0  0  0
  -24.2642  -16.1792    1.9762 P   0  0  1  0  0  0  0  0  0  0  0  0
  -15.9942  -12.4620    1.2317 C   0  0  0  0  0  0  0  0  0  0  0  0
  -13.9248  -11.5733    0.0836 C   0  0  0  0  0  0  0  0  0  0  0  0
  -15.0755  -11.3238    0.8208 C   0  0  0  0  0  0  0  0  0  0  0  0
  -15.3757  -10.0154    1.1624 C   0  0  0  0  0  0  0  0  0  0  0  0
  -16.4864   -9.7230    1.8816 N   0  0  0  0  0  0  0  0  0  0  0  0
  -14.5514   -9.0181    0.7743 N   0  0  0  0  0  0  0  0  0  0  0  0
  -13.4371   -9.2861    0.0591 C   0  0  0  0  0  0  0  0  0  0  0  0
  -13.1272  -10.5605   -0.2830 N   0  0  0  0  0  0  0  0  0  0  0  0
  -25.2442  -13.7791   -0.3233 O   0  5  0  0  0  0  0  0  0  0  0  0
  -23.4874  -17.4594    2.0099 O   0  0  0  0  0  0  0  0  0  0  0  0
  -18.1368  -13.4636   -1.9610 S   0  0  0  0  0  0  0  0  0  0  0  0
  -16.7139  -13.3302   -0.9759 C   0  0  0  0  0  0  0  0  0  0  0  0
  -23.9540  -12.7785    1.6602 O   0  0  0  0  0  0  0  0  0  0  0  0
  -24.1102  -15.4730    3.2819 O   0  5  0  0  0  0  0  0  0  0  0  0
  -17.0033  -12.7111    0.2022 N   0  0  0  0  0  0  0  0  0  0  0  0
  -23.5443  -15.2114    0.8928 O   0  0  0  0  0  0  0  0  0  0  0  0
  -25.6993  -16.2900    1.5386 O   0  0  0  0  0  0  0  0  0  0  0  0
  -18.3000  -12.3320    0.3707 C   0  0  1  0  0  0  0  0  0  0  0  0
  -19.1466  -12.7023   -0.7958 C   0  0  1  0  0  0  0  0  0  0  0  0
  -20.6021  -12.5330   -1.1421 C   0  0  0  0  0  0  0  0  0  0  0  0
  -21.4403  -13.2153   -0.0725 C   0  0  0  0  0  0  0  0  0  0  0  0
  -22.7952  -13.2184   -0.5053 O   0  0  0  0  0  0  0  0  0  0  0  0
  1 11  1  0  0  0  0
  3 13  1  6  0  0  0
  3 17  2  0  0  0  0
  3 20  1  0  0  0  0
  3 26  1  0  0  0  0
  4 14  1  1  0  0  0
  4 18  1  0  0  0  0
  4 21  2  0  0  0  0
  4 20  1  0  0  0  0
  5 19  1  0  0  0  0
  5  7  1  0  0  0  0
  6  7  2  0  0  0  0
  6 12  1  0  0  0  0
  7  8  1  0  0  0  0
  8  9  1  0  0  0  0
  8 10  2  0  0  0  0
 10 11  1  0  0  0  0
 11 12  2  0  0  0  0
 15 23  1  0  0  0  0
 15 16  1  0  0  0  0
 16 19  1  0  0  0  0
 19 22  1  0  0  0  0
 22  2  1  1  0  0  0
 22 23  1  0  0  0  0
 23 24  1  6  0  0  0
 24 25  1  0  0  0  0
 25 26  1  0  0  0  0
M  CHG  2  13  -1  18  -1
M  END
>  <CHROM.1>
-71.41230456,74.29945041,-89.04795416,-179.36882633,122.67846468,-171.71659723
-172.35266676,-172.01646234,-19.75825042,-12.94461614,0.51076898,0.08631053
0.46179484,1.15193484

>  <Name>
ligand

>  <RI>
0

>  <Rbt.Current_Directory>
/home/itssahil/PROJECTS/Mol_Feturizer/New_Systems/rnas/2GDI

>  <Rbt.Executable>
rbdock ($Id: //depot/dev/client3/rdock/2013.1/src/exe/rbdock.cxx#4 $)

>  <Rbt.Library>
libRbt.so (2013.1, Build901 2013/11/27)

>  <Rbt.Parameter_File>
/export/apps/rDock/src/rDock_2013.1_src/data/scripts/dock_solv.prm

>  <Rbt.Receptor>
prm/pocket_docking_3.prm

>  <SCORE>
-11.8726

>  <SCORE.INTER>
-12.4125

>  <SCORE.INTER.CONST>
1

>  <SCORE.INTER.POLAR>
0

>  <SCORE.INTER.ROT>
8

>  <SCORE.INTER.SOLV>
14.7509

>  <SCORE.INTER.VDW>
-22.1253

>  <SCORE.INTER.norm>
-0.477402

>  <SCORE.INTRA>
0.532022

>  <SCORE.INTRA.DIHEDRAL>
-2.93093

>  <SCORE.INTRA.DIHEDRAL.0>
8.13976

>  <SCORE.INTRA.POLAR>
0

>  <SCORE.INTRA.POLAR.0>
0

>  <SCORE.INTRA.REPUL>
0

>  <SCORE.INTRA.REPUL.0>
0

>  <SCORE.INTRA.SOLV>
4.43247

>  <SCORE.INTRA.SOLV.lig_0>
-82.9561

>  <SCORE.INTRA.VDW>
-0.218749

>  <SCORE.INTRA.VDW.0>
-3.29171

>  <SCORE.INTRA.norm>
0.0204624

>  <SCORE.RESTR>
0.00785533

>  <SCORE.RESTR.CAVITY>
0.00785533

>  <SCORE.RESTR.norm>
0.000302128

>  <SCORE.SYSTEM>
0

>  <SCORE.SYSTEM.CONST>
0

>  <SCORE.SYSTEM.DIHEDRAL>
0

>  <SCORE.SYSTEM.SOLV>
0

>  <SCORE.SYSTEM.norm>
0

>  <SCORE.heavy>
26

>  <SCORE.norm>
-0.456638

>  <RMSD>
2.618

$$$$
ligand
 OpenBabel11021811433D
libRbt.so/2013.1/901 2013/11/27
 26 27  0  0  0  0  0  0  0  0999 V2000
  -12.7558   -6.8019   -0.3520 C   0  0  0  0  0  0  0  0  0  0  0  0
  -16.3174  -14.6535    0.4410 C   0  0  0  0  0  0  0  0  0  0  0  0
  -21.6157  -16.6044    1.0807 P   0  0  1  0  0  0  0  0  0  0  0  0
  -22.8845  -15.7578    3.5570 P   0  0  1  0  0  0  0  0  0  0  0  0
  -14.9242  -12.0331    0.6308 C   0  0  0  0  0  0  0  0  0  0  0  0
  -13.2239  -10.4865   -0.4214 C   0  0  0  0  0  0  0  0  0  0  0  0
  -14.3463  -10.6505    0.3804 C   0  0  0  0  0  0  0  0  0  0  0  0
  -14.9363   -9.5271    0.9362 C   0  0  0  0  0  0  0  0  0  0  0  0
  -16.0320   -9.6372    1.7260 N   0  0  0  0  0  0  0  0  0  0  0  0
  -14.4133   -8.3066    0.6886 N   0  0  0  0  0  0  0  0  0  0  0  0
  -13.3197   -8.1728   -0.0933 C   0  0  0  0  0  0  0  0  0  0  0  0
  -12.7289   -9.2611   -0.6445 N   0  0  0  0  0  0  0  0  0  0  0  0
  -20.5740  -17.4518    1.7628 O   0  5  0  0  0  0  0  0  0  0  0  0
  -21.9207  -16.4982    4.4325 O   0  0  0  0  0  0  0  0  0  0  0  0
  -18.4946  -11.5690   -1.0497 S   0  0  0  0  0  0  0  0  0  0  0  0
  -16.9472  -11.0770   -0.4360 C   0  0  0  0  0  0  0  0  0  0  0  0
  -22.7575  -17.3179    0.4158 O   0  0  0  0  0  0  0  0  0  0  0  0
  -23.1208  -14.3969    4.1222 O   0  5  0  0  0  0  0  0  0  0  0  0
  -16.2618  -12.1489    0.0497 N   0  0  0  0  0  0  0  0  0  0  0  0
  -22.1400  -15.4960    2.1407 O   0  0  0  0  0  0  0  0  0  0  0  0
  -24.1609  -16.4804    3.2229 O   0  0  0  0  0  0  0  0  0  0  0  0
  -16.8984  -13.3492   -0.0364 C   0  0  1  0  0  0  0  0  0  0  0  0
  -18.2364  -13.2276   -0.6763 C   0  0  1  0  0  0  0  0  0  0  0  0
  -19.3384  -14.1959   -1.0151 C   0  0  0  0  0  0  0  0  0  0  0  0
  -19.8388  -14.8345    0.2710 C   0  0  0  0  0  0  0  0  0  0  0  0
  -20.8827  -15.7419   -0.0608 O   0  0  0  0  0  0  0  0  0  0  0  0
  1 11  1  0  0  0  0
  3 13  1  1  0  0  0
  3 17  2  0  0  0  0
  3 20  1  0  0  0  0
  3 26  1  0  0  0  0
  4 14  1  1  0  0  0
  4 18  1  0  0  0  0
  4 21  2  0  0  0  0
  4 20  1  0  0  0  0
  5 19  1  0  0  0  0
  5  7  1  0  0  0  0
  6  7  2  0  0  0  0
  6 12  1  0  0  0  0
  7  8  1  0  0  0  0
  8  9  1  0  0  0  0
  8 10  2  0  0  0  0
 10 11  1  0  0  0  0
 11 12  2  0  0  0  0
 15 23  1  0  0  0  0
 15 16  1  0  0  0  0
 16 19  1  0  0  0  0
 19 22  1  0  0  0  0
 22  2  1  6  0  0  0
 22 23  1  0  0  0  0
 23 24  1  1  0  0  0
 24 25  1  0  0  0  0
 25 26  1  0  0  0  0
M  CHG  2  13  -1  18  -1
M  END
>  <CHROM.1>
-61.51843410,-10.24039300,-114.85835272,63.02283858,-117.75027034,179.74143400
179.03338161,-59.75311364,-18.61215235,-13.28336965,0.92679466,0.25073865
0.68685700,0.84860347

>  <Name>
ligand

>  <RI>
0

>  <Rbt.Current_Directory>
/home/itssahil/PROJECTS/Mol_Feturizer/New_Systems/rnas/2GDI

>  <Rbt.Executable>
rbdock ($Id: //depot/dev/client3/rdock/2013.1/src/exe/rbdock.cxx#4 $)

>  <Rbt.Library>
libRbt.so (2013.1, Build901 2013/11/27)

>  <Rbt.Parameter_File>
/export/apps/rDock/src/rDock_2013.1_src/data/scripts/dock_solv.prm

>  <Rbt.Receptor>
prm/pocket_docking_3.prm

>  <SCORE>
-15.5017

>  <SCORE.INTER>
-15.4547

>  <SCORE.INTER.CONST>
1

>  <SCORE.INTER.POLAR>
0

>  <SCORE.INTER.ROT>
8

>  <SCORE.INTER.SOLV>
12.3726

>  <SCORE.INTER.VDW>
-23.3607

>  <SCORE.INTER.norm>
-0.594412

>  <SCORE.INTRA>
-0.0470345

>  <SCORE.INTRA.DIHEDRAL>
-3.48976

>  <SCORE.INTRA.DIHEDRAL.0>
8.13976

>  <SCORE.INTRA.POLAR>
0

>  <SCORE.INTRA.POLAR.0>
0

>  <SCORE.INTRA.REPUL>
0

>  <SCORE.INTRA.REPUL.0>
0

>  <SCORE.INTRA.SOLV>
1.82241

>  <SCORE.INTRA.SOLV.lig_0>
-82.9561

>  <SCORE.INTRA.VDW>
0.786641

>  <SCORE.INTRA.VDW.0>
-3.29171

>  <SCORE.INTRA.norm>
-0.00180902

>  <SCORE.RESTR>
0

>  <SCORE.RESTR.CAVITY>
0

>  <SCORE.RESTR.norm>
0

>  <SCORE.SYSTEM>
0

>  <SCORE.SYSTEM.CONST>
0

>  <SCORE.SYSTEM.DIHEDRAL>
0

>  <SCORE.SYSTEM.SOLV>
0

>  <SCORE.SYSTEM.norm>
0

>  <SCORE.heavy>
26

>  <SCORE.norm>
-0.596221

>  <RMSD>
2.635

$$$$
ligand
 OpenBabel11021811433D
libRbt.so/2013.1/901 2013/11/27
 26 27  0  0  0  0  0  0  0  0999 V2000
  -12.8348   -7.3454   -0.2540 C   0  0  0  0  0  0  0  0  0  0  0  0
  -17.5741  -13.1368   -1.2942 C   0  0  0  0  0  0  0  0  0  0  0  0
  -21.4211  -15.5708    2.2442 P   0  0  1  0  0  0  0  0  0  0  0  0
  -22.7146  -13.7352    4.0925 P   0  0  1  0  0  0  0  0  0  0  0  0
  -15.4293  -12.3974    0.6285 C   0  0  0  0  0  0  0  0  0  0  0  0
  -13.3609  -10.9558    0.4448 C   0  0  0  0  0  0  0  0  0  0  0  0
  -14.7456  -11.0591    0.4051 C   0  0  0  0  0  0  0  0  0  0  0  0
  -15.4902   -9.9204    0.1444 C   0  0  0  0  0  0  0  0  0  0  0  0
  -16.8435   -9.9716    0.0969 N   0  0  0  0  0  0  0  0  0  0  0  0
  -14.8601   -8.7440   -0.0647 N   0  0  0  0  0  0  0  0  0  0  0  0
  -13.5120   -8.6684   -0.0193 C   0  0  0  0  0  0  0  0  0  0  0  0
  -12.7677   -9.7723    0.2355 N   0  0  0  0  0  0  0  0  0  0  0  0
  -20.4355  -16.6991    2.3995 O   0  5  0  0  0  0  0  0  0  0  0  0
  -22.0697  -12.4274    3.7498 O   0  0  0  0  0  0  0  0  0  0  0  0
  -18.9983  -11.6061    2.1851 S   0  0  0  0  0  0  0  0  0  0  0  0
  -17.2652  -11.6904    2.1365 C   0  0  0  0  0  0  0  0  0  0  0  0
  -22.7195  -15.8795    1.5559 O   0  0  0  0  0  0  0  0  0  0  0  0
  -23.8854  -13.9593    3.1947 O   0  5  0  0  0  0  0  0  0  0  0  0
  -16.8440  -12.2096    0.9500 N   0  0  0  0  0  0  0  0  0  0  0  0
  -21.6615  -14.9045    3.7020 O   0  0  0  0  0  0  0  0  0  0  0  0
  -23.0442  -13.9473    5.5449 O   0  0  0  0  0  0  0  0  0  0  0  0
  -17.8248  -12.5486    0.0688 C   0  0  1  0  0  0  0  0  0  0  0  0
  -19.1822  -12.2539    0.6028 C   0  0  1  0  0  0  0  0  0  0  0  0
  -20.5838  -12.4208    0.0788 C   0  0  0  0  0  0  0  0  0  0  0  0
  -21.3982  -13.1954    1.1031 C   0  0  0  0  0  0  0  0  0  0  0  0
  -20.7117  -14.4073    1.3914 O   0  0  0  0  0  0  0  0  0  0  0  0
  1 11  1  0  0  0  0
  3 13  1  1  0  0  0
  3 17  2  0  0  0  0
  3 20  1  0  0  0  0
  3 26  1  0  0  0  0
  4 14  1  6  0  0  0
  4 18  1  0  0  0  0
  4 21  2  0  0  0  0
  4 20  1  0  0  0  0
  5 19  1  0  0  0  0
  5  7  1  0  0  0  0
  6  7  2  0  0  0  0
  6 12  1  0  0  0  0
  7  8  1  0  0  0  0
  8  9  1  0  0  0  0
  8 10  2  0  0  0  0
 10 11  1  0  0  0  0
 11 12  2  0  0  0  0
 15 23  1  0  0  0  0
 15 16  1  0  0  0  0
 16 19  1  0  0  0  0
 19 22  1  0  0  0  0
 22  2  1  6  0  0  0
 22 23  1  0  0  0  0
 23 24  1  1  0  0  0
 24 25  1  0  0  0  0
 25 26  1  0  0  0  0
M  CHG  2  13  -1  18  -1
M  END
>  <CHROM.1>
-174.84413755,-70.73183925,162.56405423,-83.14592325,-51.88837658,-54.27226807
-169.47759061,-178.89866129,-18.90605849,-12.55817614,1.61513910,0.27181899
0.56623786,0.52678233

>  <Name>
ligand

>  <RI>
0

>  <Rbt.Current_Directory>
/home/itssahil/PROJECTS/Mol_Feturizer/New_Systems/rnas/2GDI

>  <Rbt.Executable>
rbdock ($Id: //depot/dev/client3/rdock/2013.1/src/exe/rbdock.cxx#4 $)

>  <Rbt.Library>
libRbt.so (2013.1, Build901 2013/11/27)

>  <Rbt.Parameter_File>
/export/apps/rDock/src/rDock_2013.1_src/data/scripts/dock_solv.prm

>  <Rbt.Receptor>
prm/pocket_docking_5.prm

>  <SCORE>
-15.2231

>  <SCORE.INTER>
-19.4367

>  <SCORE.INTER.CONST>
1

>  <SCORE.INTER.POLAR>
0

>  <SCORE.INTER.ROT>
8

>  <SCORE.INTER.SOLV>
14.111

>  <SCORE.INTER.VDW>
-26.5948

>  <SCORE.INTER.norm>
-0.747566

>  <SCORE.INTRA>
4.21362

>  <SCORE.INTRA.DIHEDRAL>
-1.16999

>  <SCORE.INTRA.DIHEDRAL.0>
8.13976

>  <SCORE.INTRA.POLAR>
0

>  <SCORE.INTRA.POLAR.0>
0

>  <SCORE.INTRA.REPUL>
0

>  <SCORE.INTRA.REPUL.0>
0

>  <SCORE.INTRA.SOLV>
6.3592

>  <SCORE.INTRA.SOLV.lig_0>
-82.9561

>  <SCORE.INTRA.VDW>
1.61902

>  <SCORE.INTRA.VDW.0>
-3.29171

>  <SCORE.INTRA.norm>
0.162062

>  <SCORE.RESTR>
0

>  <SCORE.RESTR.CAVITY>
0

>  <SCORE.RESTR.norm>
0

>  <SCORE.SYSTEM>
0

>  <SCORE.SYSTEM.CONST>
0

>  <SCORE.SYSTEM.DIHEDRAL>
0

>  <SCORE.SYSTEM.SOLV>
0

>  <SCORE.SYSTEM.norm>
0

>  <SCORE.heavy>
26

>  <SCORE.norm>
-0.585503

>  <RMSD>
2.637

$$$$
ligand
 OpenBabel11021811433D
libRbt.so/2013.1/901 2013/11/27
 26 27  0  0  0  0  0  0  0  0999 V2000
  -12.4681   -7.5405   -0.6347 C   0  0  0  0  0  0  0  0  0  0  0  0
  -18.4720  -10.6749    1.5357 C   0  0  0  0  0  0  0  0  0  0  0  0
  -21.6698  -15.1460    0.7575 P   0  0  1  0  0  0  0  0  0  0  0  0
  -20.3663  -17.0864   -0.9730 P   0  0  1  0  0  0  0  0  0  0  0  0
  -15.7502  -11.8477    1.2912 C   0  0  0  0  0  0  0  0  0  0  0  0
  -15.2320   -9.3881    1.0228 C   0  0  0  0  0  0  0  0  0  0  0  0
  -14.8868  -10.7102    0.7725 C   0  0  0  0  0  0  0  0  0  0  0  0
  -13.7327  -10.9711    0.0522 C   0  0  0  0  0  0  0  0  0  0  0  0
  -13.3558  -12.2445   -0.2177 N   0  0  0  0  0  0  0  0  0  0  0  0
  -12.9732   -9.9441   -0.3871 N   0  0  0  0  0  0  0  0  0  0  0  0
  -13.3307   -8.6664   -0.1324 C   0  0  0  0  0  0  0  0  0  0  0  0
  -14.4573   -8.3925    0.5698 N   0  0  0  0  0  0  0  0  0  0  0  0
  -23.0583  -15.3200    0.2006 O   0  5  0  0  0  0  0  0  0  0  0  0
  -19.4646  -16.0632   -1.5923 O   0  0  0  0  0  0  0  0  0  0  0  0
  -18.0831  -13.1746   -1.6387 S   0  0  0  0  0  0  0  0  0  0  0  0
  -16.6236  -13.0172   -0.7124 C   0  0  0  0  0  0  0  0  0  0  0  0
  -21.5508  -14.7202    2.1925 O   0  0  0  0  0  0  0  0  0  0  0  0
  -19.5769  -18.3114   -0.6515 O   0  5  0  0  0  0  0  0  0  0  0  0
  -16.8114  -12.1697    0.3370 N   0  0  0  0  0  0  0  0  0  0  0  0
  -20.8337  -16.5035    0.4659 O   0  0  0  0  0  0  0  0  0  0  0  0
  -21.6336  -17.3897   -1.7248 O   0  0  0  0  0  0  0  0  0  0  0  0
  -18.0569  -11.6320    0.4502 C   0  0  1  0  0  0  0  0  0  0  0  0
  -18.9732  -12.1143   -0.6186 C   0  0  1  0  0  0  0  0  0  0  0  0
  -20.4142  -11.8575   -0.9714 C   0  0  0  0  0  0  0  0  0  0  0  0
  -21.2975  -12.6577   -0.0271 C   0  0  0  0  0  0  0  0  0  0  0  0
  -20.9210  -14.0262   -0.1200 O   0  0  0  0  0  0  0  0  0  0  0  0
  1 11  1  0  0  0  0
  3 13  1  6  0  0  0
  3 17  2  0  0  0  0
  3 20  1  0  0  0  0
  3 26  1  0  0  0  0
  4 14  1  6  0  0  0
  4 18  1  0  0  0  0
  4 21  2  0  0  0  0
  4 20  1  0  0  0  0
  5 19  1  0  0  0  0
  5  7  1  0  0  0  0
  6  7  2  0  0  0  0
  6 12  1  0  0  0  0
  7  8  1  0  0  0  0
  8  9  1  0  0  0  0
  8 10  2  0  0  0  0
 10 11  1  0  0  0  0
 11 12  2  0  0  0  0
 15 23  1  0  0  0  0
 15 16  1  0  0  0  0
 16 19  1  0  0  0  0
 19 22  1  0  0  0  0
 22  2  1  1  0  0  0
 22 23  1  0  0  0  0
 23 24  1  6  0  0  0
 24 25  1  0  0  0  0
 25 26  1  0  0  0  0
M  CHG  2  13  -1  18  -1
M  END
>  <CHROM.1>
67.00665285,85.14017078,87.58702630,61.02638776,103.52794110,-56.07634193
-179.90872271,70.99846005,-18.27462014,-13.19660545,-0.11232389,-0.69675573
-0.25624612,-2.79041905

>  <Name>
ligand

>  <RI>
0

>  <Rbt.Current_Directory>
/home/itssahil/PROJECTS/Mol_Feturizer/New_Systems/rnas/2GDI

>  <Rbt.Executable>
rbdock ($Id: //depot/dev/client3/rdock/2013.1/src/exe/rbdock.cxx#4 $)

>  <Rbt.Library>
libRbt.so (2013.1, Build901 2013/11/27)

>  <Rbt.Parameter_File>
/export/apps/rDock/src/rDock_2013.1_src/data/scripts/dock_solv.prm

>  <Rbt.Receptor>
prm/pocket_docking_5.prm

>  <SCORE>
-16.5741

>  <SCORE.INTER>
-13.6847

>  <SCORE.INTER.CONST>
1

>  <SCORE.INTER.POLAR>
0

>  <SCORE.INTER.ROT>
8

>  <SCORE.INTER.SOLV>
17.7805

>  <SCORE.INTER.VDW>
-23.9833

>  <SCORE.INTER.norm>
-0.526336

>  <SCORE.INTRA>
-2.8894

>  <SCORE.INTRA.DIHEDRAL>
-2.96061

>  <SCORE.INTRA.DIHEDRAL.0>
8.13976

>  <SCORE.INTRA.POLAR>
0

>  <SCORE.INTRA.POLAR.0>
0

>  <SCORE.INTRA.REPUL>
0

>  <SCORE.INTRA.REPUL.0>
0

>  <SCORE.INTRA.SOLV>
0.248742

>  <SCORE.INTRA.SOLV.lig_0>
-82.9561

>  <SCORE.INTRA.VDW>
-1.53347

>  <SCORE.INTRA.VDW.0>
-3.29171

>  <SCORE.INTRA.norm>
-0.111131

>  <SCORE.RESTR>
0

>  <SCORE.RESTR.CAVITY>
0

>  <SCORE.RESTR.norm>
0

>  <SCORE.SYSTEM>
0

>  <SCORE.SYSTEM.CONST>
0

>  <SCORE.SYSTEM.DIHEDRAL>
0

>  <SCORE.SYSTEM.SOLV>
0

>  <SCORE.SYSTEM.norm>
0

>  <SCORE.heavy>
26

>  <SCORE.norm>
-0.637467

>  <RMSD>
2.648

$$$$
ligand
 OpenBabel11021811433D
libRbt.so/2013.1/901 2013/11/27
 26 27  0  0  0  0  0  0  0  0999 V2000
  -12.4734   -7.8458   -0.5416 C   0  0  0  0  0  0  0  0  0  0  0  0
  -18.7600  -10.9847    1.6103 C   0  0  0  0  0  0  0  0  0  0  0  0
  -23.6216  -14.5085   -1.6305 P   0  0  1  0  0  0  0  0  0  0  0  0
  -24.8294  -14.1267    0.9875 P   0  0  1  0  0  0  0  0  0  0  0  0
  -15.9796  -12.0000    1.3247 C   0  0  0  0  0  0  0  0  0  0  0  0
  -15.3422   -9.5667    1.0736 C   0  0  0  0  0  0  0  0  0  0  0  0
  -15.0569  -10.9027    0.8217 C   0  0  0  0  0  0  0  0  0  0  0  0
  -13.9076  -11.2153    0.1145 C   0  0  0  0  0  0  0  0  0  0  0  0
  -13.5881  -12.5041   -0.1565 N   0  0  0  0  0  0  0  0  0  0  0  0
  -13.0949  -10.2237   -0.3109 N   0  0  0  0  0  0  0  0  0  0  0  0
  -13.3946   -8.9315   -0.0550 C   0  0  0  0  0  0  0  0  0  0  0  0
  -14.5156   -8.6073    0.6347 N   0  0  0  0  0  0  0  0  0  0  0  0
  -22.8593  -15.6312   -2.2839 O   0  5  0  0  0  0  0  0  0  0  0  0
  -24.8285  -14.9349    2.2485 O   0  0  0  0  0  0  0  0  0  0  0  0
  -18.2071  -13.2253   -1.7289 S   0  0  0  0  0  0  0  0  0  0  0  0
  -16.7686  -13.0632   -0.7710 C   0  0  0  0  0  0  0  0  0  0  0  0
  -24.8493  -14.0072   -2.3349 O   0  0  0  0  0  0  0  0  0  0  0  0
  -24.0837  -12.8542    1.2153 O   0  5  0  0  0  0  0  0  0  0  0  0
  -17.0116  -12.3044    0.3335 N   0  0  0  0  0  0  0  0  0  0  0  0
  -23.9437  -14.9383   -0.1013 O   0  0  0  0  0  0  0  0  0  0  0  0
  -26.1722  -13.9090    0.3449 O   0  0  0  0  0  0  0  0  0  0  0  0
  -18.2841  -11.8388    0.4655 C   0  0  1  0  0  0  0  0  0  0  0  0
  -19.1619  -12.2873   -0.6493 C   0  0  1  0  0  0  0  0  0  0  0  0
  -20.6097  -12.0775   -1.0051 C   0  0  0  0  0  0  0  0  0  0  0  0
  -21.3301  -13.4143   -0.9254 C   0  0  0  0  0  0  0  0  0  0  0  0
  -22.6275  -13.2534   -1.4858 O   0  0  0  0  0  0  0  0  0  0  0  0
  1 11  1  0  0  0  0
  3 13  1  6  0  0  0
  3 17  2  0  0  0  0
  3 20  1  0  0  0  0
  3 26  1  0  0  0  0
  4 14  1  1  0  0  0
  4 18  1  0  0  0  0
  4 21  2  0  0  0  0
  4 20  1  0  0  0  0
  5 19  1  0  0  0  0
  5  7  1  0  0  0  0
  6  7  2  0  0  0  0
  6 12  1  0  0  0  0
  7  8  1  0  0  0  0
  8  9  1  0  0  0  0
  8 10  2  0  0  0  0
 10 11  1  0  0  0  0
 11 12  2  0  0  0  0
 15 23  1  0  0  0  0
 15 16  1  0  0  0  0
 16 19  1  0  0  0  0
 19 22  1  0  0  0  0
 22  2  1  1  0  0  0
 22 23  1  0  0  0  0
 23 24  1  6  0  0  0
 24 25  1  0  0  0  0
 25 26  1  0  0  0  0
M  CHG  2  13  -1  18  -1
M  END
>  <CHROM.1>
-175.30949272,77.85563388,89.81971902,-179.99675794,66.75930952,-169.89869469
176.51799355,-49.36298478,-19.69060243,-12.57146993,-0.20825276,0.22979341
0.30755094,1.00534376

>  <Name>
ligand

>  <RI>
0

>  <Rbt.Current_Directory>
/home/itssahil/PROJECTS/Mol_Feturizer/New_Systems/rnas/2GDI

>  <Rbt.Executable>
rbdock ($Id: //depot/dev/client3/rdock/2013.1/src/exe/rbdock.cxx#4 $)

>  <Rbt.Library>
libRbt.so (2013.1, Build901 2013/11/27)

>  <Rbt.Parameter_File>
/export/apps/rDock/src/rDock_2013.1_src/data/scripts/dock_solv.prm

>  <Rbt.Receptor>
prm/pocket_docking_3.prm

>  <SCORE>
-14.4483

>  <SCORE.INTER>
-14.3306

>  <SCORE.INTER.CONST>
1

>  <SCORE.INTER.POLAR>
0

>  <SCORE.INTER.ROT>
8

>  <SCORE.INTER.SOLV>
17.7011

>  <SCORE.INTER.VDW>
-24.3874

>  <SCORE.INTER.norm>
-0.551175

>  <SCORE.INTRA>
-0.117702

>  <SCORE.INTRA.DIHEDRAL>
-2.21928

>  <SCORE.INTRA.DIHEDRAL.0>
8.13976

>  <SCORE.INTRA.POLAR>
0

>  <SCORE.INTRA.POLAR.0>
0

>  <SCORE.INTRA.REPUL>
0

>  <SCORE.INTRA.REPUL.0>
0

>  <SCORE.INTRA.SOLV>
2.92228

>  <SCORE.INTRA.SOLV.lig_0>
-82.9561

>  <SCORE.INTRA.VDW>
-0.469202

>  <SCORE.INTRA.VDW.0>
-3.29171

>  <SCORE.INTRA.norm>
-0.00452699

>  <SCORE.RESTR>
0

>  <SCORE.RESTR.CAVITY>
0

>  <SCORE.RESTR.norm>
0

>  <SCORE.SYSTEM>
0

>  <SCORE.SYSTEM.CONST>
0

>  <SCORE.SYSTEM.DIHEDRAL>
0

>  <SCORE.SYSTEM.SOLV>
0

>  <SCORE.SYSTEM.norm>
0

>  <SCORE.heavy>
26

>  <SCORE.norm>
-0.555702

>  <RMSD>
2.654

$$$$
ligand
 OpenBabel11021811433D
libRbt.so/2013.1/901 2013/11/27
 26 27  0  0  0  0  0  0  0  0999 V2000
  -13.0426   -8.0311    0.2846 C   0  0  0  0  0  0  0  0  0  0  0  0
  -18.7979  -13.4894   -1.2655 C   0  0  0  0  0  0  0  0  0  0  0  0
  -22.4834  -15.3091    3.0159 P   0  0  1  0  0  0  0  0  0  0  0  0
  -20.3768  -17.2161    2.3958 P   0  0  1  0  0  0  0  0  0  0  0  0
  -16.3478  -12.7329    0.2404 C   0  0  0  0  0  0  0  0  0  0  0  0
  -14.1099  -11.5836    0.4874 C   0  0  0  0  0  0  0  0  0  0  0  0
  -15.4773  -11.4879    0.2620 C   0  0  0  0  0  0  0  0  0  0  0  0
  -16.0292  -10.2362    0.0437 C   0  0  0  0  0  0  0  0  0  0  0  0
  -17.3581  -10.0928   -0.1794 N   0  0  0  0  0  0  0  0  0  0  0  0
  -15.2336   -9.1447    0.0537 N   0  0  0  0  0  0  0  0  0  0  0  0
  -13.9064   -9.2631    0.2769 C   0  0  0  0  0  0  0  0  0  0  0  0
  -13.3495  -10.4798    0.4934 N   0  0  0  0  0  0  0  0  0  0  0  0
  -23.9617  -15.2471    2.7342 O   0  5  0  0  0  0  0  0  0  0  0  0
  -20.0940  -17.4608    3.8462 O   0  0  0  0  0  0  0  0  0  0  0  0
  -19.5901  -11.6205    2.2497 S   0  0  0  0  0  0  0  0  0  0  0  0
  -17.8915  -11.8087    1.9455 C   0  0  0  0  0  0  0  0  0  0  0  0
  -22.0506  -15.2177    4.4508 O   0  0  0  0  0  0  0  0  0  0  0  0
  -20.4227  -18.5214    1.6739 O   0  5  0  0  0  0  0  0  0  0  0  0
  -17.6849  -12.4395    0.7564 N   0  0  0  0  0  0  0  0  0  0  0  0
  -21.8859  -16.6319    2.2948 O   0  0  0  0  0  0  0  0  0  0  0  0
  -19.4976  -16.2032    1.7144 O   0  0  0  0  0  0  0  0  0  0  0  0
  -18.8057  -12.7866    0.0659 C   0  0  1  0  0  0  0  0  0  0  0  0
  -20.0482  -12.3741    0.7734 C   0  0  1  0  0  0  0  0  0  0  0  0
  -21.5206  -12.4984    0.4842 C   0  0  0  0  0  0  0  0  0  0  0  0
  -21.9712  -13.9051    0.8452 C   0  0  0  0  0  0  0  0  0  0  0  0
  -21.7802  -14.0876    2.2428 O   0  0  0  0  0  0  0  0  0  0  0  0
  1 11  1  0  0  0  0
  3 13  1  6  0  0  0
  3 17  2  0  0  0  0
  3 20  1  0  0  0  0
  3 26  1  0  0  0  0
  4 14  1  1  0  0  0
  4 18  1  0  0  0  0
  4 21  2  0  0  0  0
  4 20  1  0  0  0  0
  5 19  1  0  0  0  0
  5  7  1  0  0  0  0
  6  7  2  0  0  0  0
  6 12  1  0  0  0  0
  7  8  1  0  0  0  0
  8  9  1  0  0  0  0
  8 10  2  0  0  0  0
 10 11  1  0  0  0  0
 11 12  2  0  0  0  0
 15 23  1  0  0  0  0
 15 16  1  0  0  0  0
 16 19  1  0  0  0  0
 19 22  1  0  0  0  0
 22  2  1  6  0  0  0
 22 23  1  0  0  0  0
 23 24  1  1  0  0  0
 24 25  1  0  0  0  0
 25 26  1  0  0  0  0
M  CHG  2  13  -1  18  -1
M  END
>  <CHROM.1>
-174.51636665,-50.93103727,147.12310834,57.45211673,-99.07664801,62.92879025
164.59876214,-54.18836259,-19.02264884,-13.41802519,1.46409839,-0.75211434
-0.18512616,2.96070449

>  <Name>
ligand

>  <RI>
0

>  <Rbt.Current_Directory>
/home/itssahil/PROJECTS/Mol_Feturizer/New_Systems/rnas/2GDI

>  <Rbt.Executable>
rbdock ($Id: //depot/dev/client3/rdock/2013.1/src/exe/rbdock.cxx#4 $)

>  <Rbt.Library>
libRbt.so (2013.1, Build901 2013/11/27)

>  <Rbt.Parameter_File>
/export/apps/rDock/src/rDock_2013.1_src/data/scripts/dock_solv.prm

>  <Rbt.Receptor>
prm/pocket_docking_4.prm

>  <SCORE>
-14.6948

>  <SCORE.INTER>
-15.3388

>  <SCORE.INTER.CONST>
1

>  <SCORE.INTER.POLAR>
0

>  <SCORE.INTER.ROT>
8

>  <SCORE.INTER.SOLV>
15.106

>  <SCORE.INTER.VDW>
-24.1945

>  <SCORE.INTER.norm>
-0.589955

>  <SCORE.INTRA>
0.644081

>  <SCORE.INTRA.DIHEDRAL>
-2.08928

>  <SCORE.INTRA.DIHEDRAL.0>
8.13976

>  <SCORE.INTRA.POLAR>
0

>  <SCORE.INTRA.POLAR.0>
0

>  <SCORE.INTRA.REPUL>
0

>  <SCORE.INTRA.REPUL.0>
0

>  <SCORE.INTRA.SOLV>
4.90801

>  <SCORE.INTRA.SOLV.lig_0>
-82.9561

>  <SCORE.INTRA.VDW>
-0.765286

>  <SCORE.INTRA.VDW.0>
-3.29171

>  <SCORE.INTRA.norm>
0.0247723

>  <SCORE.RESTR>
0

>  <SCORE.RESTR.CAVITY>
0

>  <SCORE.RESTR.norm>
0

>  <SCORE.SYSTEM>
0

>  <SCORE.SYSTEM.CONST>
0

>  <SCORE.SYSTEM.DIHEDRAL>
0

>  <SCORE.SYSTEM.SOLV>
0

>  <SCORE.SYSTEM.norm>
0

>  <SCORE.heavy>
26

>  <SCORE.norm>
-0.565183

>  <RMSD>
2.661

$$$$
ligand
 OpenBabel11021811433D
libRbt.so/2013.1/901 2013/11/27
 26 27  0  0  0  0  0  0  0  0999 V2000
  -12.8546   -8.0802   -0.3181 C   0  0  0  0  0  0  0  0  0  0  0  0
  -17.7608  -14.1979   -0.0359 C   0  0  0  0  0  0  0  0  0  0  0  0
  -21.5515  -15.9727    2.7450 P   0  0  1  0  0  0  0  0  0  0  0  0
  -20.3093  -18.3426    3.8850 P   0  0  1  0  0  0  0  0  0  0  0  0
  -15.8986  -12.5600    1.6050 C   0  0  0  0  0  0  0  0  0  0  0  0
  -15.5067  -10.0757    1.3506 C   0  0  0  0  0  0  0  0  0  0  0  0
  -15.0982  -11.3770    1.0871 C   0  0  0  0  0  0  0  0  0  0  0  0
  -13.9394  -11.5747    0.3543 C   0  0  0  0  0  0  0  0  0  0  0  0
  -13.5020  -12.8257    0.0712 N   0  0  0  0  0  0  0  0  0  0  0  0
  -13.2365  -10.5078   -0.0842 N   0  0  0  0  0  0  0  0  0  0  0  0
  -13.6550   -9.2515    0.1835 C   0  0  0  0  0  0  0  0  0  0  0  0
  -14.7871   -9.0394    0.8981 N   0  0  0  0  0  0  0  0  0  0  0  0
  -22.4679  -16.8260    1.9079 O   0  5  0  0  0  0  0  0  0  0  0  0
  -18.9602  -18.5658    4.4962 O   0  0  0  0  0  0  0  0  0  0  0  0
  -19.6132  -11.2001    1.9786 S   0  0  0  0  0  0  0  0  0  0  0  0
  -17.9010  -11.2534    2.2592 C   0  0  0  0  0  0  0  0  0  0  0  0
  -22.1570  -15.2550    3.9167 O   0  0  0  0  0  0  0  0  0  0  0  0
  -21.3307  -18.2336    4.9677 O   0  5  0  0  0  0  0  0  0  0  0  0
  -17.3328  -12.2750    1.5604 N   0  0  0  0  0  0  0  0  0  0  0  0
  -20.2828  -16.8782    3.1896 O   0  0  0  0  0  0  0  0  0  0  0  0
  -20.7092  -19.3054    2.8004 O   0  0  0  0  0  0  0  0  0  0  0  0
  -18.1842  -13.0258    0.8087 C   0  0  1  0  0  0  0  0  0  0  0  0
  -19.5883  -12.5423    0.9040 C   0  0  1  0  0  0  0  0  0  0  0  0
  -20.8998  -12.9793    0.3073 C   0  0  0  0  0  0  0  0  0  0  0  0
  -21.6909  -13.7311    1.3662 C   0  0  0  0  0  0  0  0  0  0  0  0
  -20.9158  -14.8455    1.7912 O   0  0  0  0  0  0  0  0  0  0  0  0
  1 11  1  0  0  0  0
  3 13  1  6  0  0  0
  3 17  2  0  0  0  0
  3 20  1  0  0  0  0
  3 26  1  0  0  0  0
  4 14  1  1  0  0  0
  4 18  1  0  0  0  0
  4 21  2  0  0  0  0
  4 20  1  0  0  0  0
  5 19  1  0  0  0  0
  5  7  1  0  0  0  0
  6  7  2  0  0  0  0
  6 12  1  0  0  0  0
  7  8  1  0  0  0  0
  8  9  1  0  0  0  0
  8 10  2  0  0  0  0
 10 11  1  0  0  0  0
 11 12  2  0  0  0  0
 15 23  1  0  0  0  0
 15 16  1  0  0  0  0
 16 19  1  0  0  0  0
 19 22  1  0  0  0  0
 22  2  1  6  0  0  0
 22 23  1  0  0  0  0
 23 24  1  1  0  0  0
 24 25  1  0  0  0  0
 25 26  1  0  0  0  0
M  CHG  2  13  -1  18  -1
M  END
>  <CHROM.1>
-51.04582401,-61.09962772,36.62199616,-161.99529787,-75.89471379,-58.83096271
-170.78711274,75.02405448,-18.52289630,-13.87106331,1.90375788,-0.86130685
-0.07145030,2.81899826

>  <Name>
ligand

>  <RI>
0

>  <Rbt.Current_Directory>
/home/itssahil/PROJECTS/Mol_Feturizer/New_Systems/rnas/2GDI

>  <Rbt.Executable>
rbdock ($Id: //depot/dev/client3/rdock/2013.1/src/exe/rbdock.cxx#4 $)

>  <Rbt.Library>
libRbt.so (2013.1, Build901 2013/11/27)

>  <Rbt.Parameter_File>
/export/apps/rDock/src/rDock_2013.1_src/data/scripts/dock_solv.prm

>  <Rbt.Receptor>
prm/pocket_docking_5.prm

>  <SCORE>
-21.499

>  <SCORE.INTER>
-21.8929

>  <SCORE.INTER.CONST>
1

>  <SCORE.INTER.POLAR>
0

>  <SCORE.INTER.ROT>
8

>  <SCORE.INTER.SOLV>
21.6968

>  <SCORE.INTER.VDW>
-30.7609

>  <SCORE.INTER.norm>
-0.842036

>  <SCORE.INTRA>
0.388291

>  <SCORE.INTRA.DIHEDRAL>
-1.83415

>  <SCORE.INTRA.DIHEDRAL.0>
8.13976

>  <SCORE.INTRA.POLAR>
0

>  <SCORE.INTRA.POLAR.0>
0

>  <SCORE.INTRA.REPUL>
0

>  <SCORE.INTRA.REPUL.0>
0

>  <SCORE.INTRA.SOLV>
2.15416

>  <SCORE.INTRA.SOLV.lig_0>
-82.9561

>  <SCORE.INTRA.VDW>
0.228287

>  <SCORE.INTRA.VDW.0>
-3.29171

>  <SCORE.INTRA.norm>
0.0149343

>  <SCORE.RESTR>
0.00565198

>  <SCORE.RESTR.CAVITY>
0.00565198

>  <SCORE.RESTR.norm>
0.000217384

>  <SCORE.SYSTEM>
0

>  <SCORE.SYSTEM.CONST>
0

>  <SCORE.SYSTEM.DIHEDRAL>
0

>  <SCORE.SYSTEM.SOLV>
0

>  <SCORE.SYSTEM.norm>
0

>  <SCORE.heavy>
26

>  <SCORE.norm>
-0.826885

>  <RMSD>
2.695

$$$$
ligand
 OpenBabel11021811433D
libRbt.so/2013.1/901 2013/11/27
 26 27  0  0  0  0  0  0  0  0999 V2000
  -12.1686   -7.7460   -0.6905 C   0  0  0  0  0  0  0  0  0  0  0  0
  -17.8277  -13.8023    0.4912 C   0  0  0  0  0  0  0  0  0  0  0  0
  -22.5594  -12.1234    2.6666 P   0  0  1  0  0  0  0  0  0  0  0  0
  -25.1414  -11.8559    1.3551 P   0  0  1  0  0  0  0  0  0  0  0  0
  -15.9971  -11.5783    1.2302 C   0  0  0  0  0  0  0  0  0  0  0  0
  -15.1682   -9.2076    0.9424 C   0  0  0  0  0  0  0  0  0  0  0  0
  -14.9893  -10.5659    0.7128 C   0  0  0  0  0  0  0  0  0  0  0  0
  -13.8669  -10.9801    0.0145 C   0  0  0  0  0  0  0  0  0  0  0  0
  -13.6501  -12.2944   -0.2347 N   0  0  0  0  0  0  0  0  0  0  0  0
  -12.9772  -10.0631   -0.4239 N   0  0  0  0  0  0  0  0  0  0  0  0
  -13.1740   -8.7473   -0.1897 C   0  0  0  0  0  0  0  0  0  0  0  0
  -14.2671   -8.3240    0.4909 N   0  0  0  0  0  0  0  0  0  0  0  0
  -22.7016  -10.7780    3.3286 O   0  5  0  0  0  0  0  0  0  0  0  0
  -24.6570  -11.8722   -0.0622 O   0  0  0  0  0  0  0  0  0  0  0  0
  -19.3981  -10.1285   -0.2254 S   0  0  0  0  0  0  0  0  0  0  0  0
  -17.7995  -10.0668    0.4484 C   0  0  0  0  0  0  0  0  0  0  0  0
  -21.7944  -13.1802    3.4100 O   0  0  0  0  0  0  0  0  0  0  0  0
  -26.3787  -12.6832    1.4642 O   0  5  0  0  0  0  0  0  0  0  0  0
  -17.3233  -11.3237    0.6675 N   0  0  0  0  0  0  0  0  0  0  0  0
  -24.0373  -12.6396    2.2469 O   0  0  0  0  0  0  0  0  0  0  0  0
  -25.2902  -10.4980    1.9854 O   0  0  0  0  0  0  0  0  0  0  0  0
  -18.1603  -12.3429    0.3297 C   0  0  1  0  0  0  0  0  0  0  0  0
  -19.4438  -11.8475   -0.2373 C   0  0  1  0  0  0  0  0  0  0  0  0
  -20.6932  -12.5058   -0.7593 C   0  0  0  0  0  0  0  0  0  0  0  0
  -21.5061  -13.0141    0.4210 C   0  0  0  0  0  0  0  0  0  0  0  0
  -21.8044  -11.9078    1.2637 O   0  0  0  0  0  0  0  0  0  0  0  0
  1 11  1  0  0  0  0
  3 13  1  1  0  0  0
  3 17  2  0  0  0  0
  3 20  1  0  0  0  0
  3 26  1  0  0  0  0
  4 14  1  6  0  0  0
  4 18  1  0  0  0  0
  4 21  2  0  0  0  0
  4 20  1  0  0  0  0
  5 19  1  0  0  0  0
  5  7  1  0  0  0  0
  6  7  2  0  0  0  0
  6 12  1  0  0  0  0
  7  8  1  0  0  0  0
  8  9  1  0  0  0  0
  8 10  2  0  0  0  0
 10 11  1  0  0  0  0
 11 12  2  0  0  0  0
 15 23  1  0  0  0  0
 15 16  1  0  0  0  0
 16 19  1  0  0  0  0
 19 22  1  0  0  0  0
 22  2  1  6  0  0  0
 22 23  1  0  0  0  0
 23 24  1  1  0  0  0
 24 25  1  0  0  0  0
 25 26  1  0  0  0  0
M  CHG  2  13  -1  18  -1
M  END
>  <CHROM.1>
53.82133448,-36.97837861,59.85461424,72.62751061,-103.41540811,58.40053350
-175.21421281,178.86069868,-19.60779501,-11.29198052,0.89969254,0.21184093
0.15274905,-0.05939506

>  <Name>
ligand

>  <RI>
0

>  <Rbt.Current_Directory>
/home/itssahil/PROJECTS/Mol_Feturizer/New_Systems/rnas/2GDI

>  <Rbt.Executable>
rbdock ($Id: //depot/dev/client3/rdock/2013.1/src/exe/rbdock.cxx#4 $)

>  <Rbt.Library>
libRbt.so (2013.1, Build901 2013/11/27)

>  <Rbt.Parameter_File>
/export/apps/rDock/src/rDock_2013.1_src/data/scripts/dock_solv.prm

>  <Rbt.Receptor>
prm/pocket_docking_6.prm

>  <SCORE>
-22.4231

>  <SCORE.INTER>
-20.6207

>  <SCORE.INTER.CONST>
1

>  <SCORE.INTER.POLAR>
0

>  <SCORE.INTER.ROT>
8

>  <SCORE.INTER.SOLV>
28.0443

>  <SCORE.INTER.VDW>
-32.0286

>  <SCORE.INTER.norm>
-0.793104

>  <SCORE.INTRA>
-1.80242

>  <SCORE.INTRA.DIHEDRAL>
-3.15789

>  <SCORE.INTRA.DIHEDRAL.0>
8.13976

>  <SCORE.INTRA.POLAR>
0

>  <SCORE.INTRA.POLAR.0>
0

>  <SCORE.INTRA.REPUL>
0

>  <SCORE.INTRA.REPUL.0>
0

>  <SCORE.INTRA.SOLV>
-0.0333858

>  <SCORE.INTRA.SOLV.lig_0>
-82.9561

>  <SCORE.INTRA.VDW>
-0.206784

>  <SCORE.INTRA.VDW.0>
-3.29171

>  <SCORE.INTRA.norm>
-0.069324

>  <SCORE.RESTR>
0

>  <SCORE.RESTR.CAVITY>
0

>  <SCORE.RESTR.norm>
0

>  <SCORE.SYSTEM>
0

>  <SCORE.SYSTEM.CONST>
0

>  <SCORE.SYSTEM.DIHEDRAL>
0

>  <SCORE.SYSTEM.SOLV>
0

>  <SCORE.SYSTEM.norm>
0

>  <SCORE.heavy>
26

>  <SCORE.norm>
-0.862428

>  <RMSD>
2.695

$$$$
ligand
 OpenBabel11021811433D
libRbt.so/2013.1/901 2013/11/27
 26 27  0  0  0  0  0  0  0  0999 V2000
  -12.8803   -6.8968   -0.2364 C   0  0  0  0  0  0  0  0  0  0  0  0
  -17.4136  -12.8915   -1.3172 C   0  0  0  0  0  0  0  0  0  0  0  0
  -22.3458  -13.3610   -1.9770 P   0  0  1  0  0  0  0  0  0  0  0  0
  -24.1662  -14.2231    0.1210 P   0  0  1  0  0  0  0  0  0  0  0  0
  -15.1698  -12.1202    0.4755 C   0  0  0  0  0  0  0  0  0  0  0  0
  -13.1909  -10.5527    0.3447 C   0  0  0  0  0  0  0  0  0  0  0  0
  -14.5670  -10.7370    0.2974 C   0  0  0  0  0  0  0  0  0  0  0  0
  -15.3778   -9.6369    0.0710 C   0  0  0  0  0  0  0  0  0  0  0  0
  -16.7256   -9.7671    0.0177 N   0  0  0  0  0  0  0  0  0  0  0  0
  -14.8187   -8.4190   -0.0983 N   0  0  0  0  0  0  0  0  0  0  0  0
  -13.4776   -8.2647   -0.0463 C   0  0  0  0  0  0  0  0  0  0  0  0
  -12.6691   -9.3298    0.1753 N   0  0  0  0  0  0  0  0  0  0  0  0
  -21.1278  -13.9971   -2.5937 O   0  5  0  0  0  0  0  0  0  0  0  0
  -25.1814  -14.7605   -0.8403 O   0  0  0  0  0  0  0  0  0  0  0  0
  -18.6461  -11.5997    2.3281 S   0  0  0  0  0  0  0  0  0  0  0  0
  -16.9197  -11.5847    2.1477 C   0  0  0  0  0  0  0  0  0  0  0  0
  -23.5349  -13.1422   -2.8675 O   0  0  0  0  0  0  0  0  0  0  0  0
  -23.9831  -15.1932    1.2402 O   0  5  0  0  0  0  0  0  0  0  0  0
  -16.5638  -12.0262    0.9094 N   0  0  0  0  0  0  0  0  0  0  0  0
  -22.7402  -14.2043   -0.6502 O   0  0  0  0  0  0  0  0  0  0  0  0
  -24.3927  -12.8152    0.6005 O   0  0  0  0  0  0  0  0  0  0  0  0
  -17.5900  -12.3798    0.0876 C   0  0  1  0  0  0  0  0  0  0  0  0
  -18.9161  -12.1854    0.7340 C   0  0  1  0  0  0  0  0  0  0  0  0
  -20.3430  -12.4067    0.3074 C   0  0  0  0  0  0  0  0  0  0  0  0
  -20.5823  -11.6648   -0.9982 C   0  0  0  0  0  0  0  0  0  0  0  0
  -21.9190  -11.9172   -1.4135 O   0  0  0  0  0  0  0  0  0  0  0  0
  1 11  1  0  0  0  0
  3 13  1  6  0  0  0
  3 17  2  0  0  0  0
  3 20  1  0  0  0  0
  3 26  1  0  0  0  0
  4 14  1  6  0  0  0
  4 18  1  0  0  0  0
  4 21  2  0  0  0  0
  4 20  1  0  0  0  0
  5 19  1  0  0  0  0
  5  7  1  0  0  0  0
  6  7  2  0  0  0  0
  6 12  1  0  0  0  0
  7  8  1  0  0  0  0
  8  9  1  0  0  0  0
  8 10  2  0  0  0  0
 10 11  1  0  0  0  0
 11 12  2  0  0  0  0
 15 23  1  0  0  0  0
 15 16  1  0  0  0  0
 16 19  1  0  0  0  0
 19 22  1  0  0  0  0
 22  2  1  6  0  0  0
 22 23  1  0  0  0  0
 23 24  1  1  0  0  0
 24 25  1  0  0  0  0
 25 26  1  0  0  0  0
M  CHG  2  13  -1  18  -1
M  END
>  <CHROM.1>
-160.70253857,-69.48343572,157.75426056,62.17849023,127.06432515,178.10899437
-71.80002241,-27.83525298,-19.26971275,-12.01804962,-0.13359455,-0.00083395
-0.44840503,-1.34681752

>  <Name>
ligand

>  <RI>
0

>  <Rbt.Current_Directory>
/home/itssahil/PROJECTS/Mol_Feturizer/New_Systems/rnas/2GDI

>  <Rbt.Executable>
rbdock ($Id: //depot/dev/client3/rdock/2013.1/src/exe/rbdock.cxx#4 $)

>  <Rbt.Library>
libRbt.so (2013.1, Build901 2013/11/27)

>  <Rbt.Parameter_File>
/export/apps/rDock/src/rDock_2013.1_src/data/scripts/dock_solv.prm

>  <Rbt.Receptor>
prm/pocket_docking_5.prm

>  <SCORE>
-16.6388

>  <SCORE.INTER>
-20.6279

>  <SCORE.INTER.CONST>
1

>  <SCORE.INTER.POLAR>
0

>  <SCORE.INTER.ROT>
8

>  <SCORE.INTER.SOLV>
14.7964

>  <SCORE.INTER.VDW>
-27.6174

>  <SCORE.INTER.norm>
-0.79338

>  <SCORE.INTRA>
3.98913

>  <SCORE.INTRA.DIHEDRAL>
-0.968395

>  <SCORE.INTRA.DIHEDRAL.0>
8.13976

>  <SCORE.INTRA.POLAR>
0

>  <SCORE.INTRA.POLAR.0>
0

>  <SCORE.INTRA.REPUL>
0

>  <SCORE.INTRA.REPUL.0>
0

>  <SCORE.INTRA.SOLV>
7.10328

>  <SCORE.INTRA.SOLV.lig_0>
-82.9561

>  <SCORE.INTRA.VDW>
0.921688

>  <SCORE.INTRA.VDW.0>
-3.29171

>  <SCORE.INTRA.norm>
0.153428

>  <SCORE.RESTR>
0

>  <SCORE.RESTR.CAVITY>
0

>  <SCORE.RESTR.norm>
0

>  <SCORE.SYSTEM>
0

>  <SCORE.SYSTEM.CONST>
0

>  <SCORE.SYSTEM.DIHEDRAL>
0

>  <SCORE.SYSTEM.SOLV>
0

>  <SCORE.SYSTEM.norm>
0

>  <SCORE.heavy>
26

>  <SCORE.norm>
-0.639952

>  <RMSD>
2.730

$$$$
ligand
 OpenBabel11021811433D
libRbt.so/2013.1/901 2013/11/27
 26 27  0  0  0  0  0  0  0  0999 V2000
  -12.8068   -7.1998   -0.3734 C   0  0  0  0  0  0  0  0  0  0  0  0
  -17.7346  -11.2194    2.4687 C   0  0  0  0  0  0  0  0  0  0  0  0
  -23.4276  -13.1115    0.9826 P   0  0  1  0  0  0  0  0  0  0  0  0
  -23.0345  -12.9756   -1.8959 P   0  0  1  0  0  0  0  0  0  0  0  0
  -15.3340  -12.1765    0.9976 C   0  0  0  0  0  0  0  0  0  0  0  0
  -15.2618   -9.6499    0.9571 C   0  0  0  0  0  0  0  0  0  0  0  0
  -14.6695  -10.8619    0.6253 C   0  0  0  0  0  0  0  0  0  0  0  0
  -13.4544  -10.8481   -0.0398 C   0  0  0  0  0  0  0  0  0  0  0  0
  -12.8389  -12.0049   -0.3853 N   0  0  0  0  0  0  0  0  0  0  0  0
  -12.8755   -9.6673   -0.3483 N   0  0  0  0  0  0  0  0  0  0  0  0
  -13.4720   -8.5015   -0.0164 C   0  0  0  0  0  0  0  0  0  0  0  0
  -14.6615   -8.4961    0.6335 N   0  0  0  0  0  0  0  0  0  0  0  0
  -24.7923  -12.8680    1.5716 O   0  5  0  0  0  0  0  0  0  0  0  0
  -21.5590  -13.2238   -1.9651 O   0  0  0  0  0  0  0  0  0  0  0  0
  -18.5990  -12.7326   -1.1972 S   0  0  0  0  0  0  0  0  0  0  0  0
  -16.9050  -12.7815   -0.8219 C   0  0  0  0  0  0  0  0  0  0  0  0
  -22.9728  -14.5375    0.8627 O   0  0  0  0  0  0  0  0  0  0  0  0
  -23.7564  -14.2818   -1.9020 O   0  5  0  0  0  0  0  0  0  0  0  0
  -16.6735  -12.2632    0.4160 N   0  0  0  0  0  0  0  0  0  0  0  0
  -23.3441  -12.3364   -0.4384 O   0  0  0  0  0  0  0  0  0  0  0  0
  -23.5867  -11.9993   -2.8985 O   0  0  0  0  0  0  0  0  0  0  0  0
  -17.7716  -11.8245    1.0907 C   0  0  1  0  0  0  0  0  0  0  0  0
  -19.0238  -12.0282    0.3129 C   0  0  1  0  0  0  0  0  0  0  0  0
  -20.4806  -11.7385    0.5593 C   0  0  0  0  0  0  0  0  0  0  0  0
  -20.9553  -12.5863    1.7290 C   0  0  0  0  0  0  0  0  0  0  0  0
  -22.3481  -12.3587    1.9058 O   0  0  0  0  0  0  0  0  0  0  0  0
  1 11  1  0  0  0  0
  3 13  1  1  0  0  0
  3 17  2  0  0  0  0
  3 20  1  0  0  0  0
  3 26  1  0  0  0  0
  4 14  1  6  0  0  0
  4 18  1  0  0  0  0
  4 21  2  0  0  0  0
  4 20  1  0  0  0  0
  5 19  1  0  0  0  0
  5  7  1  0  0  0  0
  6  7  2  0  0  0  0
  6 12  1  0  0  0  0
  7  8  1  0  0  0  0
  8  9  1  0  0  0  0
  8 10  2  0  0  0  0
 10 11  1  0  0  0  0
 11 12  2  0  0  0  0
 15 23  1  0  0  0  0
 15 16  1  0  0  0  0
 16 19  1  0  0  0  0
 19 22  1  0  0  0  0
 22  2  1  1  0  0  0
 22 23  1  0  0  0  0
 23 24  1  6  0  0  0
 24 25  1  0  0  0  0
 25 26  1  0  0  0  0
M  CHG  2  13  -1  18  -1
M  END
>  <CHROM.1>
-121.89719548,89.25108474,58.15619162,-77.20884581,116.60039502,-176.88962232
80.79520472,169.60727732,-19.16411444,-11.91587867,-0.01233062,-0.09338127
-0.31858651,-1.70220754

>  <Name>
ligand

>  <RI>
0

>  <Rbt.Current_Directory>
/home/itssahil/PROJECTS/Mol_Feturizer/New_Systems/rnas/2GDI

>  <Rbt.Executable>
rbdock ($Id: //depot/dev/client3/rdock/2013.1/src/exe/rbdock.cxx#4 $)

>  <Rbt.Library>
libRbt.so (2013.1, Build901 2013/11/27)

>  <Rbt.Parameter_File>
/export/apps/rDock/src/rDock_2013.1_src/data/scripts/dock_solv.prm

>  <Rbt.Receptor>
prm/pocket_docking_5.prm

>  <SCORE>
-16.6457

>  <SCORE.INTER>
-17.3021

>  <SCORE.INTER.CONST>
1

>  <SCORE.INTER.POLAR>
0

>  <SCORE.INTER.ROT>
8

>  <SCORE.INTER.SOLV>
22.1517

>  <SCORE.INTER.VDW>
-27.852

>  <SCORE.INTER.norm>
-0.665467

>  <SCORE.INTRA>
0.656482

>  <SCORE.INTRA.DIHEDRAL>
1.69384

>  <SCORE.INTRA.DIHEDRAL.0>
8.13976

>  <SCORE.INTRA.POLAR>
0

>  <SCORE.INTRA.POLAR.0>
0

>  <SCORE.INTRA.REPUL>
0

>  <SCORE.INTRA.REPUL.0>
0

>  <SCORE.INTRA.SOLV>
1.3815

>  <SCORE.INTRA.SOLV.lig_0>
-82.9561

>  <SCORE.INTRA.VDW>
-0.881189

>  <SCORE.INTRA.VDW.0>
-3.29171

>  <SCORE.INTRA.norm>
0.0252493

>  <SCORE.RESTR>
0

>  <SCORE.RESTR.CAVITY>
0

>  <SCORE.RESTR.norm>
0

>  <SCORE.SYSTEM>
0

>  <SCORE.SYSTEM.CONST>
0

>  <SCORE.SYSTEM.DIHEDRAL>
0

>  <SCORE.SYSTEM.SOLV>
0

>  <SCORE.SYSTEM.norm>
0

>  <SCORE.heavy>
26

>  <SCORE.norm>
-0.640218

>  <RMSD>
2.733

$$$$
ligand
 OpenBabel11021811433D
libRbt.so/2013.1/901 2013/11/27
 26 27  0  0  0  0  0  0  0  0999 V2000
  -12.5440   -7.3011   -0.6141 C   0  0  0  0  0  0  0  0  0  0  0  0
  -15.0478  -14.7253    0.6034 C   0  0  0  0  0  0  0  0  0  0  0  0
  -20.1518  -16.7893   -0.1687 P   0  0  1  0  0  0  0  0  0  0  0  0
  -23.0120  -16.3401    0.1075 P   0  0  1  0  0  0  0  0  0  0  0  0
  -15.5201  -11.8577    1.2335 C   0  0  0  0  0  0  0  0  0  0  0  0
  -15.1783   -9.3639    1.0000 C   0  0  0  0  0  0  0  0  0  0  0  0
  -14.7375  -10.6545    0.7355 C   0  0  0  0  0  0  0  0  0  0  0  0
  -13.5631  -10.8224    0.0203 C   0  0  0  0  0  0  0  0  0  0  0  0
  -13.0940  -12.0618   -0.2630 N   0  0  0  0  0  0  0  0  0  0  0  0
  -12.8766   -9.7379   -0.4005 N   0  0  0  0  0  0  0  0  0  0  0  0
  -13.3266   -8.4926   -0.1323 C   0  0  0  0  0  0  0  0  0  0  0  0
  -14.4743   -8.3095    0.5652 N   0  0  0  0  0  0  0  0  0  0  0  0
  -19.8185  -16.4711    1.2653 O   0  5  0  0  0  0  0  0  0  0  0  0
  -24.0167  -15.6357   -0.7515 O   0  0  0  0  0  0  0  0  0  0  0  0
  -17.7268  -12.9583   -1.8820 S   0  0  0  0  0  0  0  0  0  0  0  0
  -17.1005  -11.8782   -0.6760 C   0  0  0  0  0  0  0  0  0  0  0  0
  -20.1603  -18.2363   -0.5697 O   0  0  0  0  0  0  0  0  0  0  0  0
  -23.2060  -17.8149   -0.0129 O   0  5  0  0  0  0  0  0  0  0  0  0
  -16.2090  -12.5222    0.1272 N   0  0  0  0  0  0  0  0  0  0  0  0
  -21.5510  -16.0590   -0.5371 O   0  0  0  0  0  0  0  0  0  0  0  0
  -22.9266  -15.8777    1.5365 O   0  0  0  0  0  0  0  0  0  0  0  0
  -15.9918  -13.8351   -0.1601 C   0  0  1  0  0  0  0  0  0  0  0  0
  -16.7863  -14.2893   -1.3335 C   0  0  1  0  0  0  0  0  0  0  0  0
  -16.9363  -15.5955   -2.0672 C   0  0  0  0  0  0  0  0  0  0  0  0
  -17.7378  -16.5530   -1.1994 C   0  0  0  0  0  0  0  0  0  0  0  0
  -19.0676  -16.0574   -1.1032 O   0  0  0  0  0  0  0  0  0  0  0  0
  1 11  1  0  0  0  0
  3 13  1  1  0  0  0
  3 17  2  0  0  0  0
  3 20  1  0  0  0  0
  3 26  1  0  0  0  0
  4 14  1  6  0  0  0
  4 18  1  0  0  0  0
  4 21  2  0  0  0  0
  4 20  1  0  0  0  0
  5 19  1  0  0  0  0
  5  7  1  0  0  0  0
  6  7  2  0  0  0  0
  6 12  1  0  0  0  0
  7  8  1  0  0  0  0
  8  9  1  0  0  0  0
  8 10  2  0  0  0  0
 10 11  1  0  0  0  0
 11 12  2  0  0  0  0
 15 23  1  0  0  0  0
 15 16  1  0  0  0  0
 16 19  1  0  0  0  0
 19 22  1  0  0  0  0
 22  2  1  6  0  0  0
 22 23  1  0  0  0  0
 23 24  1  1  0  0  0
 24 25  1  0  0  0  0
 25 26  1  0  0  0  0
M  CHG  2  13  -1  18  -1
M  END
>  <CHROM.1>
-63.77757803,-57.60627293,107.04849593,-168.22282087,-106.10615311,67.65717653
-175.81943276,73.92906446,-17.95772732,-13.86327706,-0.23867367,0.69104333
0.15293160,0.19075719

>  <Name>
ligand

>  <RI>
0

>  <Rbt.Current_Directory>
/home/itssahil/PROJECTS/Mol_Feturizer/New_Systems/rnas/2GDI

>  <Rbt.Executable>
rbdock ($Id: //depot/dev/client3/rdock/2013.1/src/exe/rbdock.cxx#4 $)

>  <Rbt.Library>
libRbt.so (2013.1, Build901 2013/11/27)

>  <Rbt.Parameter_File>
/export/apps/rDock/src/rDock_2013.1_src/data/scripts/dock_solv.prm

>  <Rbt.Receptor>
prm/pocket_docking_5.prm

>  <SCORE>
-14.8082

>  <SCORE.INTER>
-14.8004

>  <SCORE.INTER.CONST>
1

>  <SCORE.INTER.POLAR>
0

>  <SCORE.INTER.ROT>
8

>  <SCORE.INTER.SOLV>
16.4351

>  <SCORE.INTER.VDW>
-24.2786

>  <SCORE.INTER.norm>
-0.569246

>  <SCORE.INTRA>
-0.00779849

>  <SCORE.INTRA.DIHEDRAL>
-2.88853

>  <SCORE.INTRA.DIHEDRAL.0>
8.13976

>  <SCORE.INTRA.POLAR>
0

>  <SCORE.INTRA.POLAR.0>
0

>  <SCORE.INTRA.REPUL>
0

>  <SCORE.INTRA.REPUL.0>
0

>  <SCORE.INTRA.SOLV>
4.56046

>  <SCORE.INTRA.SOLV.lig_0>
-82.9561

>  <SCORE.INTRA.VDW>
-0.843765

>  <SCORE.INTRA.VDW.0>
-3.29171

>  <SCORE.INTRA.norm>
-0.000299942

>  <SCORE.RESTR>
0

>  <SCORE.RESTR.CAVITY>
0

>  <SCORE.RESTR.norm>
0

>  <SCORE.SYSTEM>
0

>  <SCORE.SYSTEM.CONST>
0

>  <SCORE.SYSTEM.DIHEDRAL>
0

>  <SCORE.SYSTEM.SOLV>
0

>  <SCORE.SYSTEM.norm>
0

>  <SCORE.heavy>
26

>  <SCORE.norm>
-0.569545

>  <RMSD>
2.735

$$$$
ligand
 OpenBabel11021811433D
libRbt.so/2013.1/901 2013/11/27
 26 27  0  0  0  0  0  0  0  0999 V2000
  -12.4180   -6.7755   -0.7091 C   0  0  0  0  0  0  0  0  0  0  0  0
  -17.3488  -11.5891    2.9114 C   0  0  0  0  0  0  0  0  0  0  0  0
  -21.9475  -13.8991    0.5559 P   0  0  1  0  0  0  0  0  0  0  0  0
  -20.4058  -16.2331    1.3527 P   0  0  1  0  0  0  0  0  0  0  0  0
  -15.2834  -11.5323    0.7727 C   0  0  0  0  0  0  0  0  0  0  0  0
  -15.0417   -9.0183    0.6643 C   0  0  0  0  0  0  0  0  0  0  0  0
  -14.5295  -10.2759    0.3711 C   0  0  0  0  0  0  0  0  0  0  0  0
  -13.3112  -10.3617   -0.2827 C   0  0  0  0  0  0  0  0  0  0  0  0
  -12.7721  -11.5662   -0.5909 N   0  0  0  0  0  0  0  0  0  0  0  0
  -12.6521   -9.2313   -0.6178 N   0  0  0  0  0  0  0  0  0  0  0  0
  -13.1716   -8.0194   -0.3232 C   0  0  0  0  0  0  0  0  0  0  0  0
  -14.3629   -7.9166    0.3151 N   0  0  0  0  0  0  0  0  0  0  0  0
  -21.8123  -12.8843   -0.5488 O   0  5  0  0  0  0  0  0  0  0  0  0
  -18.9329  -16.3504    1.5981 O   0  0  0  0  0  0  0  0  0  0  0  0
  -18.9060  -11.1276   -0.8087 S   0  0  0  0  0  0  0  0  0  0  0  0
  -17.1744  -11.2494   -0.8050 C   0  0  0  0  0  0  0  0  0  0  0  0
  -23.2209  -14.6931    0.6107 O   0  0  0  0  0  0  0  0  0  0  0  0
  -21.1080  -16.0191    2.6521 O   0  5  0  0  0  0  0  0  0  0  0  0
  -16.7078  -11.4027    0.4653 N   0  0  0  0  0  0  0  0  0  0  0  0
  -20.6442  -14.8621    0.5207 O   0  0  0  0  0  0  0  0  0  0  0  0
  -21.0261  -17.3276    0.5278 O   0  0  0  0  0  0  0  0  0  0  0  0
  -17.6522  -11.4288    1.4455 C   0  0  1  0  0  0  0  0  0  0  0  0
  -19.0297  -11.2971    0.8981 C   0  0  1  0  0  0  0  0  0  0  0  0
  -20.4086  -11.2616    1.5018 C   0  0  0  0  0  0  0  0  0  0  0  0
  -20.6030  -12.5104    2.3473 C   0  0  0  0  0  0  0  0  0  0  0  0
  -21.8262  -13.1235    1.9587 O   0  0  0  0  0  0  0  0  0  0  0  0
  1 11  1  0  0  0  0
  3 13  1  6  0  0  0
  3 17  2  0  0  0  0
  3 20  1  0  0  0  0
  3 26  1  0  0  0  0
  4 14  1  1  0  0  0
  4 18  1  0  0  0  0
  4 21  2  0  0  0  0
  4 20  1  0  0  0  0
  5 19  1  0  0  0  0
  5  7  1  0  0  0  0
  6  7  2  0  0  0  0
  6 12  1  0  0  0  0
  7  8  1  0  0  0  0
  8  9  1  0  0  0  0
  8 10  2  0  0  0  0
 10 11  1  0  0  0  0
 11 12  2  0  0  0  0
 15 23  1  0  0  0  0
 15 16  1  0  0  0  0
 16 19  1  0  0  0  0
 19 22  1  0  0  0  0
 22  2  1  6  0  0  0
 22 23  1  0  0  0  0
 23 24  1  1  0  0  0
 24 25  1  0  0  0  0
 25 26  1  0  0  0  0
M  CHG  2  13  -1  18  -1
M  END
>  <CHROM.1>
-170.41608161,62.72406817,44.32099143,-149.68391877,126.00843093,-129.12273013
72.99539215,-66.59728601,-18.27496487,-12.35597856,0.63566961,0.67309743
0.02780691,-0.17358949

>  <Name>
ligand

>  <RI>
0

>  <Rbt.Current_Directory>
/home/itssahil/PROJECTS/Mol_Feturizer/New_Systems/rnas/2GDI

>  <Rbt.Executable>
rbdock ($Id: //depot/dev/client3/rdock/2013.1/src/exe/rbdock.cxx#4 $)

>  <Rbt.Library>
libRbt.so (2013.1, Build901 2013/11/27)

>  <Rbt.Parameter_File>
/export/apps/rDock/src/rDock_2013.1_src/data/scripts/dock_solv.prm

>  <Rbt.Receptor>
prm/pocket_docking_3.prm

>  <SCORE>
-14.4853

>  <SCORE.INTER>
-17.3297

>  <SCORE.INTER.CONST>
1

>  <SCORE.INTER.POLAR>
0

>  <SCORE.INTER.ROT>
8

>  <SCORE.INTER.SOLV>
21.5424

>  <SCORE.INTER.VDW>
-27.6672

>  <SCORE.INTER.norm>
-0.666526

>  <SCORE.INTRA>
2.8444

>  <SCORE.INTRA.DIHEDRAL>
4.0143

>  <SCORE.INTRA.DIHEDRAL.0>
8.13976

>  <SCORE.INTRA.POLAR>
0

>  <SCORE.INTRA.POLAR.0>
0

>  <SCORE.INTRA.REPUL>
0

>  <SCORE.INTRA.REPUL.0>
0

>  <SCORE.INTRA.SOLV>
3.05106

>  <SCORE.INTRA.SOLV.lig_0>
-82.9561

>  <SCORE.INTRA.VDW>
-0.688277

>  <SCORE.INTRA.VDW.0>
-3.29171

>  <SCORE.INTRA.norm>
0.1094

>  <SCORE.RESTR>
0

>  <SCORE.RESTR.CAVITY>
0

>  <SCORE.RESTR.norm>
0

>  <SCORE.SYSTEM>
0

>  <SCORE.SYSTEM.CONST>
0

>  <SCORE.SYSTEM.DIHEDRAL>
0

>  <SCORE.SYSTEM.SOLV>
0

>  <SCORE.SYSTEM.norm>
0

>  <SCORE.heavy>
26

>  <SCORE.norm>
-0.557126

>  <RMSD>
2.739

$$$$
ligand
 OpenBabel11021811433D
libRbt.so/2013.1/901 2013/11/27
 26 27  0  0  0  0  0  0  0  0999 V2000
  -12.6449   -7.3361   -0.0803 C   0  0  0  0  0  0  0  0  0  0  0  0
  -17.2573  -12.1653    2.4701 C   0  0  0  0  0  0  0  0  0  0  0  0
  -22.4811  -14.6445    0.4415 P   0  0  1  0  0  0  0  0  0  0  0  0
  -21.8717  -16.5032    2.5939 P   0  0  1  0  0  0  0  0  0  0  0  0
  -15.5770  -12.2784    0.0192 C   0  0  0  0  0  0  0  0  0  0  0  0
  -13.4360  -10.9617   -0.2509 C   0  0  0  0  0  0  0  0  0  0  0  0
  -14.8017  -10.9719    0.0035 C   0  0  0  0  0  0  0  0  0  0  0  0
  -15.4450   -9.7660    0.2290 C   0  0  0  0  0  0  0  0  0  0  0  0
  -16.7756   -9.7257    0.4824 N   0  0  0  0  0  0  0  0  0  0  0  0
  -14.7378   -8.6156    0.1964 N   0  0  0  0  0  0  0  0  0  0  0  0
  -13.4098   -8.6316   -0.0514 C   0  0  0  0  0  0  0  0  0  0  0  0
  -12.7638   -9.8024   -0.2732 N   0  0  0  0  0  0  0  0  0  0  0  0
  -22.7214  -14.8330   -1.0333 O   0  5  0  0  0  0  0  0  0  0  0  0
  -21.2324  -15.3971    3.3759 O   0  0  0  0  0  0  0  0  0  0  0  0
  -19.3643  -11.5641   -0.9469 S   0  0  0  0  0  0  0  0  0  0  0  0
  -17.6724  -11.8322   -1.2277 C   0  0  0  0  0  0  0  0  0  0  0  0
  -23.6216  -14.1176    1.2640 O   0  0  0  0  0  0  0  0  0  0  0  0
  -23.3063  -16.6219    2.9876 O   0  5  0  0  0  0  0  0  0  0  0  0
  -17.0166  -12.0277   -0.0502 N   0  0  0  0  0  0  0  0  0  0  0  0
  -21.9039  -16.0349    1.0420 O   0  0  0  0  0  0  0  0  0  0  0  0
  -21.1512  -17.8237    2.6098 O   0  0  0  0  0  0  0  0  0  0  0  0
  -17.7846  -11.9761    1.0727 C   0  0  1  0  0  0  0  0  0  0  0  0
  -19.2177  -11.7268    0.7587 C   0  0  1  0  0  0  0  0  0  0  0  0
  -20.4697  -11.5761    1.5814 C   0  0  0  0  0  0  0  0  0  0  0  0
  -21.0378  -12.9583    1.8624 C   0  0  0  0  0  0  0  0  0  0  0  0
  -21.2669  -13.6056    0.6167 O   0  0  0  0  0  0  0  0  0  0  0  0
  1 11  1  0  0  0  0
  3 13  1  6  0  0  0
  3 17  2  0  0  0  0
  3 20  1  0  0  0  0
  3 26  1  0  0  0  0
  4 14  1  1  0  0  0
  4 18  1  0  0  0  0
  4 21  2  0  0  0  0
  4 20  1  0  0  0  0
  5 19  1  0  0  0  0
  5  7  1  0  0  0  0
  6  7  2  0  0  0  0
  6 12  1  0  0  0  0
  7  8  1  0  0  0  0
  8  9  1  0  0  0  0
  8 10  2  0  0  0  0
 10 11  1  0  0  0  0
 11 12  2  0  0  0  0
 15 23  1  0  0  0  0
 15 16  1  0  0  0  0
 16 19  1  0  0  0  0
 19 22  1  0  0  0  0
 22  2  1  6  0  0  0
 22 23  1  0  0  0  0
 23 24  1  1  0  0  0
 24 25  1  0  0  0  0
 25 26  1  0  0  0  0
M  CHG  2  13  -1  18  -1
M  END
>  <CHROM.1>
-161.44262065,84.32607341,-164.93744125,-51.86720212,96.10855908,-56.99556176
-147.67049405,163.18877494,-18.95726365,-12.80038651,0.79701282,-0.61512854
0.29419658,2.47004657

>  <Name>
ligand

>  <RI>
0

>  <Rbt.Current_Directory>
/home/itssahil/PROJECTS/Mol_Feturizer/New_Systems/rnas/2GDI

>  <Rbt.Executable>
rbdock ($Id: //depot/dev/client3/rdock/2013.1/src/exe/rbdock.cxx#4 $)

>  <Rbt.Library>
libRbt.so (2013.1, Build901 2013/11/27)

>  <Rbt.Parameter_File>
/export/apps/rDock/src/rDock_2013.1_src/data/scripts/dock_solv.prm

>  <Rbt.Receptor>
prm/pocket_docking_2.prm

>  <SCORE>
-9.90454

>  <SCORE.INTER>
-16.3823

>  <SCORE.INTER.CONST>
1

>  <SCORE.INTER.POLAR>
0

>  <SCORE.INTER.ROT>
8

>  <SCORE.INTER.SOLV>
9.41164

>  <SCORE.INTER.VDW>
-22.9921

>  <SCORE.INTER.norm>
-0.630089

>  <SCORE.INTRA>
6.11958

>  <SCORE.INTRA.DIHEDRAL>
2.32795

>  <SCORE.INTRA.DIHEDRAL.0>
8.13976

>  <SCORE.INTRA.POLAR>
0

>  <SCORE.INTRA.POLAR.0>
0

>  <SCORE.INTRA.REPUL>
0

>  <SCORE.INTRA.REPUL.0>
0

>  <SCORE.INTRA.SOLV>
6.03614

>  <SCORE.INTRA.SOLV.lig_0>
-82.9561

>  <SCORE.INTRA.VDW>
1.93753

>  <SCORE.INTRA.VDW.0>
-3.29171

>  <SCORE.INTRA.norm>
0.235368

>  <SCORE.RESTR>
0.358207

>  <SCORE.RESTR.CAVITY>
0.358207

>  <SCORE.RESTR.norm>
0.0137772

>  <SCORE.SYSTEM>
0

>  <SCORE.SYSTEM.CONST>
0

>  <SCORE.SYSTEM.DIHEDRAL>
0

>  <SCORE.SYSTEM.SOLV>
0

>  <SCORE.SYSTEM.norm>
0

>  <SCORE.heavy>
26

>  <SCORE.norm>
-0.380944

>  <RMSD>
2.746

$$$$
ligand
 OpenBabel11021811433D
libRbt.so/2013.1/901 2013/11/27
 26 27  0  0  0  0  0  0  0  0999 V2000
  -12.4538   -7.7373   -0.5883 C   0  0  0  0  0  0  0  0  0  0  0  0
  -18.4496  -10.7032    1.4810 C   0  0  0  0  0  0  0  0  0  0  0  0
  -22.0719  -15.1060    0.3737 P   0  0  1  0  0  0  0  0  0  0  0  0
  -19.9177  -17.0571    0.4816 P   0  0  1  0  0  0  0  0  0  0  0  0
  -15.7974  -12.0302    1.2623 C   0  0  0  0  0  0  0  0  0  0  0  0
  -15.2707   -9.5727    0.9918 C   0  0  0  0  0  0  0  0  0  0  0  0
  -14.9175  -10.8966    0.7634 C   0  0  0  0  0  0  0  0  0  0  0  0
  -13.7402  -11.1629    0.0836 C   0  0  0  0  0  0  0  0  0  0  0  0
  -13.3547  -12.4382   -0.1638 N   0  0  0  0  0  0  0  0  0  0  0  0
  -12.9668  -10.1391   -0.3386 N   0  0  0  0  0  0  0  0  0  0  0  0
  -13.3325   -8.8595   -0.1058 C   0  0  0  0  0  0  0  0  0  0  0  0
  -14.4815   -8.5805    0.5568 N   0  0  0  0  0  0  0  0  0  0  0  0
  -23.4291  -15.0699   -0.2782 O   0  5  0  0  0  0  0  0  0  0  0  0
  -18.9463  -15.9256    0.3414 O   0  0  0  0  0  0  0  0  0  0  0  0
  -18.1967  -13.2733   -1.6507 S   0  0  0  0  0  0  0  0  0  0  0  0
  -16.7319  -13.1823   -0.7236 C   0  0  0  0  0  0  0  0  0  0  0  0
  -22.0092  -14.8418    1.8506 O   0  0  0  0  0  0  0  0  0  0  0  0
  -20.1026  -17.3737    1.9282 O   0  5  0  0  0  0  0  0  0  0  0  0
  -16.8735  -12.3083    0.3112 N   0  0  0  0  0  0  0  0  0  0  0  0
  -21.3622  -16.5111   -0.0124 O   0  0  0  0  0  0  0  0  0  0  0  0
  -19.6330  -18.2774   -0.3509 O   0  0  0  0  0  0  0  0  0  0  0  0
  -18.0872  -11.6999    0.4125 C   0  0  1  0  0  0  0  0  0  0  0  0
  -19.0275  -12.1480   -0.6503 C   0  0  1  0  0  0  0  0  0  0  0  0
  -20.4514  -11.8170   -1.0107 C   0  0  0  0  0  0  0  0  0  0  0  0
  -21.3806  -12.6081   -0.1035 C   0  0  0  0  0  0  0  0  0  0  0  0
  -21.1526  -13.9930   -0.3338 O   0  0  0  0  0  0  0  0  0  0  0  0
  1 11  1  0  0  0  0
  3 13  1  6  0  0  0
  3 17  2  0  0  0  0
  3 20  1  0  0  0  0
  3 26  1  0  0  0  0
  4 14  1  6  0  0  0
  4 18  1  0  0  0  0
  4 21  2  0  0  0  0
  4 20  1  0  0  0  0
  5 19  1  0  0  0  0
  5  7  1  0  0  0  0
  6  7  2  0  0  0  0
  6 12  1  0  0  0  0
  7  8  1  0  0  0  0
  8  9  1  0  0  0  0
  8 10  2  0  0  0  0
 10 11  1  0  0  0  0
 11 12  2  0  0  0  0
 15 23  1  0  0  0  0
 15 16  1  0  0  0  0
 16 19  1  0  0  0  0
 19 22  1  0  0  0  0
 22  2  1  1  0  0  0
 22 23  1  0  0  0  0
 23 24  1  6  0  0  0
 24 25  1  0  0  0  0
 25 26  1  0  0  0  0
M  CHG  2  13  -1  18  -1
M  END
>  <CHROM.1>
-177.60493232,88.39493758,84.31687752,-45.77587339,100.55175661,-61.67701029
-174.41533172,71.81411344,-18.27916898,-13.25047525,0.12857973,0.70488886
-0.00571774,-0.05052371

>  <Name>
ligand

>  <RI>
0

>  <Rbt.Current_Directory>
/home/itssahil/PROJECTS/Mol_Feturizer/New_Systems/rnas/2GDI

>  <Rbt.Executable>
rbdock ($Id: //depot/dev/client3/rdock/2013.1/src/exe/rbdock.cxx#4 $)

>  <Rbt.Library>
libRbt.so (2013.1, Build901 2013/11/27)

>  <Rbt.Parameter_File>
/export/apps/rDock/src/rDock_2013.1_src/data/scripts/dock_solv.prm

>  <Rbt.Receptor>
prm/pocket_docking_4.prm

>  <SCORE>
-17.1988

>  <SCORE.INTER>
-14.3301

>  <SCORE.INTER.CONST>
1

>  <SCORE.INTER.POLAR>
0

>  <SCORE.INTER.ROT>
8

>  <SCORE.INTER.SOLV>
19.0883

>  <SCORE.INTER.VDW>
-24.8495

>  <SCORE.INTER.norm>
-0.551158

>  <SCORE.INTRA>
-2.86872

>  <SCORE.INTRA.DIHEDRAL>
-2.72922

>  <SCORE.INTRA.DIHEDRAL.0>
8.13976

>  <SCORE.INTRA.POLAR>
0

>  <SCORE.INTRA.POLAR.0>
0

>  <SCORE.INTRA.REPUL>
0

>  <SCORE.INTRA.REPUL.0>
0

>  <SCORE.INTRA.SOLV>
0.10139

>  <SCORE.INTRA.SOLV.lig_0>
-82.9561

>  <SCORE.INTRA.VDW>
-1.5548

>  <SCORE.INTRA.VDW.0>
-3.29171

>  <SCORE.INTRA.norm>
-0.110335

>  <SCORE.RESTR>
0

>  <SCORE.RESTR.CAVITY>
0

>  <SCORE.RESTR.norm>
0

>  <SCORE.SYSTEM>
0

>  <SCORE.SYSTEM.CONST>
0

>  <SCORE.SYSTEM.DIHEDRAL>
0

>  <SCORE.SYSTEM.SOLV>
0

>  <SCORE.SYSTEM.norm>
0

>  <SCORE.heavy>
26

>  <SCORE.norm>
-0.661493

>  <RMSD>
2.749

$$$$
ligand
 OpenBabel11021811433D
libRbt.so/2013.1/901 2013/11/27
 26 27  0  0  0  0  0  0  0  0999 V2000
  -13.4710  -10.4448    0.1614 C   0  0  0  0  0  0  0  0  0  0  0  0
  -21.2162  -13.1559    2.5124 C   0  0  0  0  0  0  0  0  0  0  0  0
  -22.7188  -16.8398    0.8128 P   0  0  1  0  0  0  0  0  0  0  0  0
  -25.1087  -15.7479    2.0596 P   0  0  1  0  0  0  0  0  0  0  0  0
  -18.7837  -11.4999    2.0837 C   0  0  0  0  0  0  0  0  0  0  0  0
  -16.9409   -9.9192    1.3795 C   0  0  0  0  0  0  0  0  0  0  0  0
  -17.3825  -11.2231    1.5657 C   0  0  0  0  0  0  0  0  0  0  0  0
  -16.5154  -12.2656    1.2826 C   0  0  0  0  0  0  0  0  0  0  0  0
  -16.9016  -13.5541    1.4474 N   0  0  0  0  0  0  0  0  0  0  0  0
  -15.2695  -11.9953    0.8362 N   0  0  0  0  0  0  0  0  0  0  0  0
  -14.8635  -10.7187    0.6615 C   0  0  0  0  0  0  0  0  0  0  0  0
  -15.6990   -9.6863    0.9325 N   0  0  0  0  0  0  0  0  0  0  0  0
  -22.2592  -16.9204    2.2449 O   0  5  0  0  0  0  0  0  0  0  0  0
  -24.1487  -15.0876    3.0009 O   0  0  0  0  0  0  0  0  0  0  0  0
  -20.7336  -11.9853   -1.3442 S   0  0  0  0  0  0  0  0  0  0  0  0
  -19.4751  -11.4116   -0.2952 C   0  0  0  0  0  0  0  0  0  0  0  0
  -22.5651  -18.0724   -0.0310 O   0  0  0  0  0  0  0  0  0  0  0  0
  -26.0200  -14.7180    1.4799 O   0  5  0  0  0  0  0  0  0  0  0  0
  -19.6871  -11.8332    0.9823 N   0  0  0  0  0  0  0  0  0  0  0  0
  -24.2450  -16.2944    0.8011 O   0  0  0  0  0  0  0  0  0  0  0  0
  -25.8470  -16.9418    2.6009 O   0  0  0  0  0  0  0  0  0  0  0  0
  -20.8004  -12.5914    1.1802 C   0  0  1  0  0  0  0  0  0  0  0  0
  -21.5561  -12.8148   -0.0822 C   0  0  1  0  0  0  0  0  0  0  0  0
  -22.8195  -13.5503   -0.4422 C   0  0  0  0  0  0  0  0  0  0  0  0
  -22.4482  -14.9245   -0.9770 C   0  0  0  0  0  0  0  0  0  0  0  0
  -21.8792  -15.6763    0.0879 O   0  0  0  0  0  0  0  0  0  0  0  0
  1 11  1  0  0  0  0
  3 13  1  1  0  0  0
  3 17  2  0  0  0  0
  3 20  1  0  0  0  0
  3 26  1  0  0  0  0
  4 14  1  1  0  0  0
  4 18  1  0  0  0  0
  4 21  2  0  0  0  0
  4 20  1  0  0  0  0
  5 19  1  0  0  0  0
  5  7  1  0  0  0  0
  6  7  2  0  0  0  0
  6 12  1  0  0  0  0
  7  8  1  0  0  0  0
  8  9  1  0  0  0  0
  8 10  2  0  0  0  0
 10 11  1  0  0  0  0
 11 12  2  0  0  0  0
 15 23  1  0  0  0  0
 15 16  1  0  0  0  0
 16 19  1  0  0  0  0
 19 22  1  0  0  0  0
 22  2  1  6  0  0  0
 22 23  1  0  0  0  0
 23 24  1  1  0  0  0
 24 25  1  0  0  0  0
 25 26  1  0  0  0  0
M  CHG  2  13  -1  18  -1
M  END
>  <CHROM.1>
6.87802989,-25.44668602,99.20020307,32.41760199,84.05960965,66.65446891,104.78828864
-149.52903045,-20.83758140,-13.77138307,0.92172266,-0.56733584,0.07191542
2.90103573

>  <Name>
ligand

>  <RI>
0

>  <Rbt.Current_Directory>
/home/itssahil/PROJECTS/Mol_Feturizer/New_Systems/rnas/2GDI

>  <Rbt.Executable>
rbdock ($Id: //depot/dev/client3/rdock/2013.1/src/exe/rbdock.cxx#4 $)

>  <Rbt.Library>
libRbt.so (2013.1, Build901 2013/11/27)

>  <Rbt.Parameter_File>
/export/apps/rDock/src/rDock_2013.1_src/data/scripts/dock_solv.prm

>  <Rbt.Receptor>
prm/pocket_docking_2.prm

>  <SCORE>
-2.8573

>  <SCORE.INTER>
-7.08708

>  <SCORE.INTER.CONST>
1

>  <SCORE.INTER.POLAR>
0

>  <SCORE.INTER.ROT>
8

>  <SCORE.INTER.SOLV>
13.5036

>  <SCORE.INTER.VDW>
-18.1592

>  <SCORE.INTER.norm>
-0.27258

>  <SCORE.INTRA>
3.95217

>  <SCORE.INTRA.DIHEDRAL>
7.53365

>  <SCORE.INTRA.DIHEDRAL.0>
8.13976

>  <SCORE.INTRA.POLAR>
0

>  <SCORE.INTRA.POLAR.0>
0

>  <SCORE.INTRA.REPUL>
0

>  <SCORE.INTRA.REPUL.0>
0

>  <SCORE.INTRA.SOLV>
2.29821

>  <SCORE.INTRA.SOLV.lig_0>
-82.9561

>  <SCORE.INTRA.VDW>
-0.963763

>  <SCORE.INTRA.VDW.0>
-3.29171

>  <SCORE.INTRA.norm>
0.152006

>  <SCORE.RESTR>
0.277615

>  <SCORE.RESTR.CAVITY>
0.277615

>  <SCORE.RESTR.norm>
0.0106775

>  <SCORE.SYSTEM>
0

>  <SCORE.SYSTEM.CONST>
0

>  <SCORE.SYSTEM.DIHEDRAL>
0

>  <SCORE.SYSTEM.SOLV>
0

>  <SCORE.SYSTEM.norm>
0

>  <SCORE.heavy>
26

>  <SCORE.norm>
-0.109896

>  <RMSD>
2.757

$$$$
ligand
 OpenBabel11021811433D
libRbt.so/2013.1/901 2013/11/27
 26 27  0  0  0  0  0  0  0  0999 V2000
  -12.8900   -8.9297   -0.1633 C   0  0  0  0  0  0  0  0  0  0  0  0
  -19.7112  -11.8478    2.2209 C   0  0  0  0  0  0  0  0  0  0  0  0
  -23.8032  -15.0210    0.4913 P   0  0  1  0  0  0  0  0  0  0  0  0
  -21.8869  -17.1795    0.8486 P   0  0  1  0  0  0  0  0  0  0  0  0
  -16.8617  -12.5889    1.8038 C   0  0  0  0  0  0  0  0  0  0  0  0
  -14.6255  -12.0887    0.7363 C   0  0  0  0  0  0  0  0  0  0  0  0
  -15.8085  -11.6200    1.2937 C   0  0  0  0  0  0  0  0  0  0  0  0
  -16.0147  -10.2519    1.3629 C   0  0  0  0  0  0  0  0  0  0  0  0
  -17.1524   -9.7475    1.8991 N   0  0  0  0  0  0  0  0  0  0  0  0
  -15.0702   -9.4096    0.8904 N   0  0  0  0  0  0  0  0  0  0  0  0
  -13.9269   -9.8896    0.3542 C   0  0  0  0  0  0  0  0  0  0  0  0
  -13.7079  -11.2252    0.2794 N   0  0  0  0  0  0  0  0  0  0  0  0
  -24.4649  -15.4395   -0.7954 O   0  5  0  0  0  0  0  0  0  0  0  0
  -22.3306  -17.4689    2.2496 O   0  0  0  0  0  0  0  0  0  0  0  0
  -19.0141  -13.5664   -1.3898 S   0  0  0  0  0  0  0  0  0  0  0  0
  -17.5838  -13.4199   -0.4172 C   0  0  0  0  0  0  0  0  0  0  0  0
  -24.5435  -15.2960    1.7685 O   0  0  0  0  0  0  0  0  0  0  0  0
  -22.6825  -18.0090   -0.1033 O   0  5  0  0  0  0  0  0  0  0  0  0
  -17.8758  -12.8388    0.7794 N   0  0  0  0  0  0  0  0  0  0  0  0
  -22.3093  -15.6491    0.5197 O   0  0  0  0  0  0  0  0  0  0  0  0
  -20.4060  -17.2604    0.5959 O   0  0  0  0  0  0  0  0  0  0  0  0
  -19.1800  -12.4988    0.9717 C   0  0  1  0  0  0  0  0  0  0  0  0
  -20.0300  -12.8620   -0.1944 C   0  0  1  0  0  0  0  0  0  0  0  0
  -21.4934  -12.7230   -0.5203 C   0  0  0  0  0  0  0  0  0  0  0  0
  -22.2953  -12.8767    0.7625 C   0  0  0  0  0  0  0  0  0  0  0  0
  -23.5616  -13.4329    0.4303 O   0  0  0  0  0  0  0  0  0  0  0  0
  1 11  1  0  0  0  0
  3 13  1  6  0  0  0
  3 17  2  0  0  0  0
  3 20  1  0  0  0  0
  3 26  1  0  0  0  0
  4 14  1  1  0  0  0
  4 18  1  0  0  0  0
  4 21  2  0  0  0  0
  4 20  1  0  0  0  0
  5 19  1  0  0  0  0
  5  7  1  0  0  0  0
  6  7  2  0  0  0  0
  6 12  1  0  0  0  0
  7  8  1  0  0  0  0
  8  9  1  0  0  0  0
  8 10  2  0  0  0  0
 10 11  1  0  0  0  0
 11 12  2  0  0  0  0
 15 23  1  0  0  0  0
 15 16  1  0  0  0  0
 16 19  1  0  0  0  0
 19 22  1  0  0  0  0
 22  2  1  1  0  0  0
 22 23  1  0  0  0  0
 23 24  1  6  0  0  0
 24 25  1  0  0  0  0
 25 26  1  0  0  0  0
M  CHG  2  13  -1  18  -1
M  END
>  <CHROM.1>
-77.36228041,62.57468101,-95.06521759,-61.49350079,147.48922177,-150.03990415
93.61948574,-131.49527205,-19.68022810,-13.57789739,0.56054682,-0.59501977
-0.02806854,-3.08959698

>  <Name>
ligand

>  <RI>
0

>  <Rbt.Current_Directory>
/home/itssahil/PROJECTS/Mol_Feturizer/New_Systems/rnas/2GDI

>  <Rbt.Executable>
rbdock ($Id: //depot/dev/client3/rdock/2013.1/src/exe/rbdock.cxx#4 $)

>  <Rbt.Library>
libRbt.so (2013.1, Build901 2013/11/27)

>  <Rbt.Parameter_File>
/export/apps/rDock/src/rDock_2013.1_src/data/scripts/dock_solv.prm

>  <Rbt.Receptor>
prm/pocket_docking_2.prm

>  <SCORE>
-3.63634

>  <SCORE.INTER>
-8.52457

>  <SCORE.INTER.CONST>
1

>  <SCORE.INTER.POLAR>
0

>  <SCORE.INTER.ROT>
8

>  <SCORE.INTER.SOLV>
12.1433

>  <SCORE.INTER.VDW>
-18.6642

>  <SCORE.INTER.norm>
-0.327868

>  <SCORE.INTRA>
4.72451

>  <SCORE.INTRA.DIHEDRAL>
5.91641

>  <SCORE.INTRA.DIHEDRAL.0>
8.13976

>  <SCORE.INTRA.POLAR>
0

>  <SCORE.INTRA.POLAR.0>
0

>  <SCORE.INTRA.REPUL>
0

>  <SCORE.INTRA.REPUL.0>
0

>  <SCORE.INTRA.SOLV>
3.18842

>  <SCORE.INTRA.SOLV.lig_0>
-82.9561

>  <SCORE.INTRA.VDW>
0.172097

>  <SCORE.INTRA.VDW.0>
-3.29171

>  <SCORE.INTRA.norm>
0.181712

>  <SCORE.RESTR>
0.163717

>  <SCORE.RESTR.CAVITY>
0.163717

>  <SCORE.RESTR.norm>
0.00629679

>  <SCORE.SYSTEM>
0

>  <SCORE.SYSTEM.CONST>
0

>  <SCORE.SYSTEM.DIHEDRAL>
0

>  <SCORE.SYSTEM.SOLV>
0

>  <SCORE.SYSTEM.norm>
0

>  <SCORE.heavy>
26

>  <SCORE.norm>
-0.139859

>  <RMSD>
2.775

$$$$
ligand
 OpenBabel11021811433D
libRbt.so/2013.1/901 2013/11/27
 26 27  0  0  0  0  0  0  0  0999 V2000
  -12.5289   -7.4513   -0.6158 C   0  0  0  0  0  0  0  0  0  0  0  0
  -18.1510  -10.6678    1.5598 C   0  0  0  0  0  0  0  0  0  0  0  0
  -23.6814  -13.4037    0.3194 P   0  0  1  0  0  0  0  0  0  0  0  0
  -22.0645  -13.9177    2.6817 P   0  0  1  0  0  0  0  0  0  0  0  0
  -15.5330  -12.0193    1.1567 C   0  0  0  0  0  0  0  0  0  0  0  0
  -15.3060   -9.5455    0.6888 C   0  0  0  0  0  0  0  0  0  0  0  0
  -14.7408  -10.8144    0.6781 C   0  0  0  0  0  0  0  0  0  0  0  0
  -13.4361  -10.9574    0.2352 C   0  0  0  0  0  0  0  0  0  0  0  0
  -12.8426  -12.1754    0.2055 N   0  0  0  0  0  0  0  0  0  0  0  0
  -12.7464   -9.8700   -0.1726 N   0  0  0  0  0  0  0  0  0  0  0  0
  -13.3185   -8.6462   -0.1545 C   0  0  0  0  0  0  0  0  0  0  0  0
  -14.5944   -8.4879    0.2747 N   0  0  0  0  0  0  0  0  0  0  0  0
  -23.4433  -14.7825   -0.2381 O   0  5  0  0  0  0  0  0  0  0  0  0
  -22.4558  -14.3068    4.0742 O   0  0  0  0  0  0  0  0  0  0  0  0
  -18.1278  -13.2044   -1.6090 S   0  0  0  0  0  0  0  0  0  0  0  0
  -16.6057  -13.1391   -0.7772 C   0  0  0  0  0  0  0  0  0  0  0  0
  -24.9916  -12.7457   -0.0049 O   0  0  0  0  0  0  0  0  0  0  0  0
  -21.6046  -15.1287    1.9407 O   0  5  0  0  0  0  0  0  0  0  0  0
  -16.6710  -12.2755    0.2738 N   0  0  0  0  0  0  0  0  0  0  0  0
  -23.4164  -13.4514    1.9177 O   0  0  0  0  0  0  0  0  0  0  0  0
  -21.1071  -12.7632    2.5641 O   0  0  0  0  0  0  0  0  0  0  0  0
  -17.8689  -11.6559    0.4595 C   0  0  1  0  0  0  0  0  0  0  0  0
  -18.8803  -12.0822   -0.5453 C   0  0  1  0  0  0  0  0  0  0  0  0
  -20.3207  -11.7325   -0.8098 C   0  0  0  0  0  0  0  0  0  0  0  0
  -21.1924  -12.9052   -0.3890 C   0  0  0  0  0  0  0  0  0  0  0  0
  -22.5272  -12.4361   -0.2424 O   0  0  0  0  0  0  0  0  0  0  0  0
  1 11  1  0  0  0  0
  3 13  1  6  0  0  0
  3 17  2  0  0  0  0
  3 20  1  0  0  0  0
  3 26  1  0  0  0  0
  4 14  1  1  0  0  0
  4 18  1  0  0  0  0
  4 21  2  0  0  0  0
  4 20  1  0  0  0  0
  5 19  1  0  0  0  0
  5  7  1  0  0  0  0
  6  7  2  0  0  0  0
  6 12  1  0  0  0  0
  7  8  1  0  0  0  0
  8  9  1  0  0  0  0
  8 10  2  0  0  0  0
 10 11  1  0  0  0  0
 11 12  2  0  0  0  0
 15 23  1  0  0  0  0
 15 16  1  0  0  0  0
 16 19  1  0  0  0  0
 19 22  1  0  0  0  0
 22  2  1  1  0  0  0
 22 23  1  0  0  0  0
 23 24  1  6  0  0  0
 24 25  1  0  0  0  0
 25 26  1  0  0  0  0
M  CHG  2  13  -1  18  -1
M  END
>  <CHROM.1>
56.93426308,93.17379439,65.58137222,-157.90586349,74.16696488,162.06354956
-174.68297797,-37.80541881,-18.96351292,-12.21377132,0.55065782,0.21037432
-0.34457625,-1.32045411

>  <Name>
ligand

>  <RI>
0

>  <Rbt.Current_Directory>
/home/itssahil/PROJECTS/Mol_Feturizer/New_Systems/rnas/2GDI

>  <Rbt.Executable>
rbdock ($Id: //depot/dev/client3/rdock/2013.1/src/exe/rbdock.cxx#4 $)

>  <Rbt.Library>
libRbt.so (2013.1, Build901 2013/11/27)

>  <Rbt.Parameter_File>
/export/apps/rDock/src/rDock_2013.1_src/data/scripts/dock_solv.prm

>  <Rbt.Receptor>
prm/pocket_docking_6.prm

>  <SCORE>
-14.6973

>  <SCORE.INTER>
-16.0214

>  <SCORE.INTER.CONST>
1

>  <SCORE.INTER.POLAR>
0

>  <SCORE.INTER.ROT>
8

>  <SCORE.INTER.SOLV>
21.067

>  <SCORE.INTER.VDW>
-26.6366

>  <SCORE.INTER.norm>
-0.616208

>  <SCORE.INTRA>
1.32406

>  <SCORE.INTRA.DIHEDRAL>
-0.614411

>  <SCORE.INTRA.DIHEDRAL.0>
8.13976

>  <SCORE.INTRA.POLAR>
0

>  <SCORE.INTRA.POLAR.0>
0

>  <SCORE.INTRA.REPUL>
0

>  <SCORE.INTRA.REPUL.0>
0

>  <SCORE.INTRA.SOLV>
4.15426

>  <SCORE.INTRA.SOLV.lig_0>
-82.9561

>  <SCORE.INTRA.VDW>
-0.445858

>  <SCORE.INTRA.VDW.0>
-3.29171

>  <SCORE.INTRA.norm>
0.0509255

>  <SCORE.RESTR>
0

>  <SCORE.RESTR.CAVITY>
0

>  <SCORE.RESTR.norm>
0

>  <SCORE.SYSTEM>
0

>  <SCORE.SYSTEM.CONST>
0

>  <SCORE.SYSTEM.DIHEDRAL>
0

>  <SCORE.SYSTEM.SOLV>
0

>  <SCORE.SYSTEM.norm>
0

>  <SCORE.heavy>
26

>  <SCORE.norm>
-0.565283

>  <RMSD>
2.781

$$$$
ligand
 OpenBabel11021811433D
libRbt.so/2013.1/901 2013/11/27
 26 27  0  0  0  0  0  0  0  0999 V2000
  -12.9314   -6.8539   -0.1685 C   0  0  0  0  0  0  0  0  0  0  0  0
  -17.4538  -13.1211   -1.2123 C   0  0  0  0  0  0  0  0  0  0  0  0
  -21.1435  -15.6607    1.9073 P   0  0  1  0  0  0  0  0  0  0  0  0
  -20.9275  -18.0202    3.5940 P   0  0  1  0  0  0  0  0  0  0  0  0
  -15.1317  -12.1369    0.3632 C   0  0  0  0  0  0  0  0  0  0  0  0
  -13.1811  -10.5299    0.3062 C   0  0  0  0  0  0  0  0  0  0  0  0
  -14.5526  -10.7383    0.2327 C   0  0  0  0  0  0  0  0  0  0  0  0
  -15.3807   -9.6475    0.0244 C   0  0  0  0  0  0  0  0  0  0  0  0
  -16.7249   -9.8012   -0.0532 N   0  0  0  0  0  0  0  0  0  0  0  0
  -14.8424   -8.4151   -0.1025 N   0  0  0  0  0  0  0  0  0  0  0  0
  -13.5054   -8.2375   -0.0256 C   0  0  0  0  0  0  0  0  0  0  0  0
  -12.6802   -9.2932    0.1788 N   0  0  0  0  0  0  0  0  0  0  0  0
  -22.1020  -16.4354    1.0415 O   0  5  0  0  0  0  0  0  0  0  0  0
  -22.1166  -17.5700    4.3858 O   0  0  0  0  0  0  0  0  0  0  0  0
  -18.4889  -11.6810    2.4388 S   0  0  0  0  0  0  0  0  0  0  0  0
  -16.7832  -11.5916    2.1295 C   0  0  0  0  0  0  0  0  0  0  0  0
  -21.7065  -14.5281    2.7166 O   0  0  0  0  0  0  0  0  0  0  0  0
  -21.3780  -18.9273    2.4980 O   0  5  0  0  0  0  0  0  0  0  0  0
  -16.4939  -12.0865    0.8941 N   0  0  0  0  0  0  0  0  0  0  0  0
  -20.3355  -16.7148    2.8363 O   0  0  0  0  0  0  0  0  0  0  0  0
  -19.7832  -18.5885    4.3883 O   0  0  0  0  0  0  0  0  0  0  0  0
  -17.5560  -12.5375    0.1717 C   0  0  1  0  0  0  0  0  0  0  0  0
  -18.8409  -12.3713    0.9037 C   0  0  1  0  0  0  0  0  0  0  0  0
  -20.2808  -12.6872    0.5975 C   0  0  0  0  0  0  0  0  0  0  0  0
  -20.3530  -14.0672   -0.0372 C   0  0  0  0  0  0  0  0  0  0  0  0
  -20.0137  -15.0297    0.9535 O   0  0  0  0  0  0  0  0  0  0  0  0
  1 11  1  0  0  0  0
  3 13  1  6  0  0  0
  3 17  2  0  0  0  0
  3 20  1  0  0  0  0
  3 26  1  0  0  0  0
  4 14  1  1  0  0  0
  4 18  1  0  0  0  0
  4 21  2  0  0  0  0
  4 20  1  0  0  0  0
  5 19  1  0  0  0  0
  5  7  1  0  0  0  0
  6  7  2  0  0  0  0
  6 12  1  0  0  0  0
  7  8  1  0  0  0  0
  8  9  1  0  0  0  0
  8 10  2  0  0  0  0
 10 11  1  0  0  0  0
 11 12  2  0  0  0  0
 15 23  1  0  0  0  0
 15 16  1  0  0  0  0
 16 19  1  0  0  0  0
 19 22  1  0  0  0  0
 22  2  1  6  0  0  0
 22 23  1  0  0  0  0
 23 24  1  1  0  0  0
 24 25  1  0  0  0  0
 25 26  1  0  0  0  0
M  CHG  2  13  -1  18  -1
M  END
>  <CHROM.1>
-41.03466787,-62.23149089,152.61025528,-51.84482636,-135.43451121,68.63330821
88.76368367,63.74775580,-18.32217100,-13.41633966,1.43378795,-0.86070582
0.24578256,2.59654309

>  <Name>
ligand

>  <RI>
0

>  <Rbt.Current_Directory>
/home/itssahil/PROJECTS/Mol_Feturizer/New_Systems/rnas/2GDI

>  <Rbt.Executable>
rbdock ($Id: //depot/dev/client3/rdock/2013.1/src/exe/rbdock.cxx#4 $)

>  <Rbt.Library>
libRbt.so (2013.1, Build901 2013/11/27)

>  <Rbt.Parameter_File>
/export/apps/rDock/src/rDock_2013.1_src/data/scripts/dock_solv.prm

>  <Rbt.Receptor>
prm/pocket_docking_5.prm

>  <SCORE>
-15.723

>  <SCORE.INTER>
-19.7119

>  <SCORE.INTER.CONST>
1

>  <SCORE.INTER.POLAR>
0

>  <SCORE.INTER.ROT>
8

>  <SCORE.INTER.SOLV>
17.2276

>  <SCORE.INTER.VDW>
-27.8171

>  <SCORE.INTER.norm>
-0.758149

>  <SCORE.INTRA>
3.98885

>  <SCORE.INTRA.DIHEDRAL>
1.10771

>  <SCORE.INTRA.DIHEDRAL.0>
8.13976

>  <SCORE.INTRA.POLAR>
0

>  <SCORE.INTRA.POLAR.0>
0

>  <SCORE.INTRA.REPUL>
0

>  <SCORE.INTRA.REPUL.0>
0

>  <SCORE.INTRA.SOLV>
5.98764

>  <SCORE.INTRA.SOLV.lig_0>
-82.9561

>  <SCORE.INTRA.VDW>
0.441173

>  <SCORE.INTRA.VDW.0>
-3.29171

>  <SCORE.INTRA.norm>
0.153417

>  <SCORE.RESTR>
0

>  <SCORE.RESTR.CAVITY>
0

>  <SCORE.RESTR.norm>
0

>  <SCORE.SYSTEM>
0

>  <SCORE.SYSTEM.CONST>
0

>  <SCORE.SYSTEM.DIHEDRAL>
0

>  <SCORE.SYSTEM.SOLV>
0

>  <SCORE.SYSTEM.norm>
0

>  <SCORE.heavy>
26

>  <SCORE.norm>
-0.604731

>  <RMSD>
2.790

$$$$
ligand
 OpenBabel11021811433D
libRbt.so/2013.1/901 2013/11/27
 26 27  0  0  0  0  0  0  0  0999 V2000
  -12.5603   -7.4063   -0.5064 C   0  0  0  0  0  0  0  0  0  0  0  0
  -16.2639  -14.6732   -0.4895 C   0  0  0  0  0  0  0  0  0  0  0  0
  -20.8219  -16.2490    1.0061 P   0  0  1  0  0  0  0  0  0  0  0  0
  -21.7554  -13.7314    2.1238 P   0  0  1  0  0  0  0  0  0  0  0  0
  -15.3838  -12.2056    0.9175 C   0  0  0  0  0  0  0  0  0  0  0  0
  -13.5224  -10.9874   -0.2832 C   0  0  0  0  0  0  0  0  0  0  0  0
  -14.6325  -10.9370    0.5504 C   0  0  0  0  0  0  0  0  0  0  0  0
  -15.0490   -9.7058    1.0294 C   0  0  0  0  0  0  0  0  0  0  0  0
  -16.1257   -9.6068    1.8464 N   0  0  0  0  0  0  0  0  0  0  0  0
  -14.3738   -8.5897    0.6786 N   0  0  0  0  0  0  0  0  0  0  0  0
  -13.2959   -8.6645   -0.1323 C   0  0  0  0  0  0  0  0  0  0  0  0
  -12.8736   -9.8609   -0.6094 N   0  0  0  0  0  0  0  0  0  0  0  0
  -20.0357  -17.4121    1.5516 O   0  5  0  0  0  0  0  0  0  0  0  0
  -20.7059  -12.8106    1.5815 O   0  0  0  0  0  0  0  0  0  0  0  0
  -18.9453  -11.6369   -0.7498 S   0  0  0  0  0  0  0  0  0  0  0  0
  -17.5279  -11.2182    0.1605 C   0  0  0  0  0  0  0  0  0  0  0  0
  -22.0828  -16.5618    0.2530 O   0  0  0  0  0  0  0  0  0  0  0  0
  -22.8560  -13.8692    1.1253 O   0  5  0  0  0  0  0  0  0  0  0  0
  -16.6654  -12.2708    0.2149 N   0  0  0  0  0  0  0  0  0  0  0  0
  -21.0930  -15.2083    2.2187 O   0  0  0  0  0  0  0  0  0  0  0  0
  -22.2581  -13.4169    3.5064 O   0  0  0  0  0  0  0  0  0  0  0  0
  -17.0670  -13.4012   -0.4287 C   0  0  1  0  0  0  0  0  0  0  0  0
  -18.3917  -13.2302   -1.0846 C   0  0  1  0  0  0  0  0  0  0  0  0
  -19.2887  -14.1197   -1.9039 C   0  0  0  0  0  0  0  0  0  0  0  0
  -20.4245  -14.6127   -1.0211 C   0  0  0  0  0  0  0  0  0  0  0  0
  -19.8700  -15.4377   -0.0038 O   0  0  0  0  0  0  0  0  0  0  0  0
  1 11  1  0  0  0  0
  3 13  1  1  0  0  0
  3 17  2  0  0  0  0
  3 20  1  0  0  0  0
  3 26  1  0  0  0  0
  4 14  1  6  0  0  0
  4 18  1  0  0  0  0
  4 21  2  0  0  0  0
  4 20  1  0  0  0  0
  5 19  1  0  0  0  0
  5  7  1  0  0  0  0
  6  7  2  0  0  0  0
  6 12  1  0  0  0  0
  7  8  1  0  0  0  0
  8  9  1  0  0  0  0
  8 10  2  0  0  0  0
 10 11  1  0  0  0  0
 11 12  2  0  0  0  0
 15 23  1  0  0  0  0
 15 16  1  0  0  0  0
 16 19  1  0  0  0  0
 19 22  1  0  0  0  0
 22  2  1  6  0  0  0
 22 23  1  0  0  0  0
 23 24  1  1  0  0  0
 24 25  1  0  0  0  0
 25 26  1  0  0  0  0
M  CHG  2  13  -1  18  -1
M  END
>  <CHROM.1>
172.98854282,-47.39867463,-106.57969760,-76.80068431,-76.15108356,-65.10706866
-173.36742794,157.05774265,-18.33965950,-12.87902121,0.52855200,0.52037649
0.43834521,0.43597243

>  <Name>
ligand

>  <RI>
0

>  <Rbt.Current_Directory>
/home/itssahil/PROJECTS/Mol_Feturizer/New_Systems/rnas/2GDI

>  <Rbt.Executable>
rbdock ($Id: //depot/dev/client3/rdock/2013.1/src/exe/rbdock.cxx#4 $)

>  <Rbt.Library>
libRbt.so (2013.1, Build901 2013/11/27)

>  <Rbt.Parameter_File>
/export/apps/rDock/src/rDock_2013.1_src/data/scripts/dock_solv.prm

>  <Rbt.Receptor>
prm/pocket_docking_3.prm

>  <SCORE>
-14.6903

>  <SCORE.INTER>
-14.2971

>  <SCORE.INTER.CONST>
1

>  <SCORE.INTER.POLAR>
0

>  <SCORE.INTER.ROT>
8

>  <SCORE.INTER.SOLV>
15.0883

>  <SCORE.INTER.VDW>
-23.4942

>  <SCORE.INTER.norm>
-0.54989

>  <SCORE.INTRA>
-0.393205

>  <SCORE.INTRA.DIHEDRAL>
-1.21881

>  <SCORE.INTRA.DIHEDRAL.0>
8.13976

>  <SCORE.INTRA.POLAR>
0

>  <SCORE.INTRA.POLAR.0>
0

>  <SCORE.INTRA.REPUL>
0

>  <SCORE.INTRA.REPUL.0>
0

>  <SCORE.INTRA.SOLV>
2.30008

>  <SCORE.INTRA.SOLV.lig_0>
-82.9561

>  <SCORE.INTRA.VDW>
-0.933841

>  <SCORE.INTRA.VDW.0>
-3.29171

>  <SCORE.INTRA.norm>
-0.0151233

>  <SCORE.RESTR>
0

>  <SCORE.RESTR.CAVITY>
0

>  <SCORE.RESTR.norm>
0

>  <SCORE.SYSTEM>
0

>  <SCORE.SYSTEM.CONST>
0

>  <SCORE.SYSTEM.DIHEDRAL>
0

>  <SCORE.SYSTEM.SOLV>
0

>  <SCORE.SYSTEM.norm>
0

>  <SCORE.heavy>
26

>  <SCORE.norm>
-0.565013

>  <RMSD>
2.804

$$$$
ligand
 OpenBabel11021811433D
libRbt.so/2013.1/901 2013/11/27
 26 27  0  0  0  0  0  0  0  0999 V2000
  -12.9197   -8.3711    0.0151 C   0  0  0  0  0  0  0  0  0  0  0  0
  -19.3940  -12.2391    1.2653 C   0  0  0  0  0  0  0  0  0  0  0  0
  -22.8354  -14.3019    1.3966 P   0  0  1  0  0  0  0  0  0  0  0  0
  -21.1027  -16.5983    1.8243 P   0  0  1  0  0  0  0  0  0  0  0  0
  -16.4689  -12.7548    1.1198 C   0  0  0  0  0  0  0  0  0  0  0  0
  -14.3976  -11.7792    0.0483 C   0  0  0  0  0  0  0  0  0  0  0  0
  -15.5263  -11.5971    0.8373 C   0  0  0  0  0  0  0  0  0  0  0  0
  -15.7827  -10.3361    1.3502 C   0  0  0  0  0  0  0  0  0  0  0  0
  -16.8706  -10.1103    2.1260 N   0  0  0  0  0  0  0  0  0  0  0  0
  -14.9381   -9.3187    1.0745 N   0  0  0  0  0  0  0  0  0  0  0  0
  -13.8457   -9.5211    0.3058 C   0  0  0  0  0  0  0  0  0  0  0  0
  -13.5786  -10.7485   -0.2035 N   0  0  0  0  0  0  0  0  0  0  0  0
  -24.1272  -14.8432    0.8429 O   0  5  0  0  0  0  0  0  0  0  0  0
  -20.1962  -16.8805    2.9828 O   0  0  0  0  0  0  0  0  0  0  0  0
  -18.1922  -13.6456   -2.3477 S   0  0  0  0  0  0  0  0  0  0  0  0
  -16.8879  -13.4725   -1.2156 C   0  0  0  0  0  0  0  0  0  0  0  0
  -22.8932  -12.9892    2.1234 O   0  0  0  0  0  0  0  0  0  0  0  0
  -21.9446  -17.7999    1.5512 O   0  5  0  0  0  0  0  0  0  0  0  0
  -17.3474  -12.9990   -0.0242 N   0  0  0  0  0  0  0  0  0  0  0  0
  -22.1500  -15.4572    2.3035 O   0  0  0  0  0  0  0  0  0  0  0  0
  -20.4416  -16.0557    0.5866 O   0  0  0  0  0  0  0  0  0  0  0  0
  -18.6864  -12.7623    0.0438 C   0  0  1  0  0  0  0  0  0  0  0  0
  -19.3787  -13.0982   -1.2298 C   0  0  1  0  0  0  0  0  0  0  0  0
  -20.8057  -13.0354   -1.7061 C   0  0  0  0  0  0  0  0  0  0  0  0
  -21.7147  -12.8559   -0.5004 C   0  0  0  0  0  0  0  0  0  0  0  0
  -21.8143  -14.1062    0.1704 O   0  0  0  0  0  0  0  0  0  0  0  0
  1 11  1  0  0  0  0
  3 13  1  6  0  0  0
  3 17  2  0  0  0  0
  3 20  1  0  0  0  0
  3 26  1  0  0  0  0
  4 14  1  1  0  0  0
  4 18  1  0  0  0  0
  4 21  2  0  0  0  0
  4 20  1  0  0  0  0
  5 19  1  0  0  0  0
  5  7  1  0  0  0  0
  6  7  2  0  0  0  0
  6 12  1  0  0  0  0
  7  8  1  0  0  0  0
  8  9  1  0  0  0  0
  8 10  2  0  0  0  0
 10 11  1  0  0  0  0
 11 12  2  0  0  0  0
 15 23  1  0  0  0  0
 15 16  1  0  0  0  0
 16 19  1  0  0  0  0
 19 22  1  0  0  0  0
 22  2  1  1  0  0  0
 22 23  1  0  0  0  0
 23 24  1  6  0  0  0
 24 25  1  0  0  0  0
 25 26  1  0  0  0  0
M  CHG  2  13  -1  18  -1
M  END
>  <CHROM.1>
90.16166839,67.74115913,-78.61697553,148.11481754,166.63192151,-75.88138362
-173.06884776,93.16056667,-19.05156486,-13.32443373,0.57570790,-0.04805294
0.60844131,1.44227117

>  <Name>
ligand

>  <RI>
0

>  <Rbt.Current_Directory>
/home/itssahil/PROJECTS/Mol_Feturizer/New_Systems/rnas/2GDI

>  <Rbt.Executable>
rbdock ($Id: //depot/dev/client3/rdock/2013.1/src/exe/rbdock.cxx#4 $)

>  <Rbt.Library>
libRbt.so (2013.1, Build901 2013/11/27)

>  <Rbt.Parameter_File>
/export/apps/rDock/src/rDock_2013.1_src/data/scripts/dock_solv.prm

>  <Rbt.Receptor>
prm/pocket_docking_2.prm

>  <SCORE>
-5.61278

>  <SCORE.INTER>
-11.5638

>  <SCORE.INTER.CONST>
1

>  <SCORE.INTER.POLAR>
0

>  <SCORE.INTER.ROT>
8

>  <SCORE.INTER.SOLV>
10.5126

>  <SCORE.INTER.VDW>
-20.1467

>  <SCORE.INTER.norm>
-0.444762

>  <SCORE.INTRA>
5.28106

>  <SCORE.INTRA.DIHEDRAL>
2.17068

>  <SCORE.INTRA.DIHEDRAL.0>
8.13976

>  <SCORE.INTRA.POLAR>
0

>  <SCORE.INTRA.POLAR.0>
0

>  <SCORE.INTRA.REPUL>
0

>  <SCORE.INTRA.REPUL.0>
0

>  <SCORE.INTRA.SOLV>
5.24276

>  <SCORE.INTRA.SOLV.lig_0>
-82.9561

>  <SCORE.INTRA.VDW>
1.57434

>  <SCORE.INTRA.VDW.0>
-3.29171

>  <SCORE.INTRA.norm>
0.203118

>  <SCORE.RESTR>
0.669968

>  <SCORE.RESTR.CAVITY>
0.669968

>  <SCORE.RESTR.norm>
0.025768

>  <SCORE.SYSTEM>
0

>  <SCORE.SYSTEM.CONST>
0

>  <SCORE.SYSTEM.DIHEDRAL>
0

>  <SCORE.SYSTEM.SOLV>
0

>  <SCORE.SYSTEM.norm>
0

>  <SCORE.heavy>
26

>  <SCORE.norm>
-0.215876

>  <RMSD>
2.833

$$$$
ligand
 OpenBabel11021811433D
libRbt.so/2013.1/901 2013/11/27
 26 27  0  0  0  0  0  0  0  0999 V2000
  -12.3900   -7.9520   -0.5671 C   0  0  0  0  0  0  0  0  0  0  0  0
  -17.6266  -14.1881   -0.0411 C   0  0  0  0  0  0  0  0  0  0  0  0
  -23.2768  -12.9584    1.2780 P   0  0  1  0  0  0  0  0  0  0  0  0
  -25.2946  -11.2428    2.4798 P   0  0  1  0  0  0  0  0  0  0  0  0
  -16.2049  -11.8795    1.1805 C   0  0  0  0  0  0  0  0  0  0  0  0
  -15.4268   -9.4883    0.9223 C   0  0  0  0  0  0  0  0  0  0  0  0
  -15.2002  -10.8421    0.7087 C   0  0  0  0  0  0  0  0  0  0  0  0
  -14.0337  -11.2283    0.0691 C   0  0  0  0  0  0  0  0  0  0  0  0
  -13.7696  -12.5371   -0.1625 N   0  0  0  0  0  0  0  0  0  0  0  0
  -13.1484  -10.2891   -0.3293 N   0  0  0  0  0  0  0  0  0  0  0  0
  -13.3919   -8.9782   -0.1117 C   0  0  0  0  0  0  0  0  0  0  0  0
  -14.5285   -8.5822    0.5116 N   0  0  0  0  0  0  0  0  0  0  0  0
  -22.5199  -13.2740    2.5414 O   0  5  0  0  0  0  0  0  0  0  0  0
  -26.3466  -12.2706    2.1963 O   0  0  0  0  0  0  0  0  0  0  0  0
  -19.5928  -10.6673   -0.5049 S   0  0  0  0  0  0  0  0  0  0  0  0
  -18.0999  -10.5047    0.3657 C   0  0  0  0  0  0  0  0  0  0  0  0
  -24.1965  -14.0176    0.7425 O   0  0  0  0  0  0  0  0  0  0  0  0
  -24.7525  -11.4562    3.8538 O   0  5  0  0  0  0  0  0  0  0  0  0
  -17.4844  -11.7131    0.4910 N   0  0  0  0  0  0  0  0  0  0  0  0
  -24.0481  -11.5486    1.4891 O   0  0  0  0  0  0  0  0  0  0  0  0
  -25.6835   -9.8126    2.2216 O   0  0  0  0  0  0  0  0  0  0  0  0
  -18.1342  -12.7710   -0.0677 C   0  0  1  0  0  0  0  0  0  0  0  0
  -19.4038  -12.3620   -0.7273 C   0  0  1  0  0  0  0  0  0  0  0  0
  -20.4886  -13.0898   -1.4760 C   0  0  0  0  0  0  0  0  0  0  0  0
  -21.4493  -13.7024   -0.4690 C   0  0  0  0  0  0  0  0  0  0  0  0
  -22.2036  -12.6508    0.1213 O   0  0  0  0  0  0  0  0  0  0  0  0
  1 11  1  0  0  0  0
  3 13  1  1  0  0  0
  3 17  2  0  0  0  0
  3 20  1  0  0  0  0
  3 26  1  0  0  0  0
  4 14  1  6  0  0  0
  4 18  1  0  0  0  0
  4 21  2  0  0  0  0
  4 20  1  0  0  0  0
  5 19  1  0  0  0  0
  5  7  1  0  0  0  0
  6  7  2  0  0  0  0
  6 12  1  0  0  0  0
  7  8  1  0  0  0  0
  8  9  1  0  0  0  0
  8 10  2  0  0  0  0
 10 11  1  0  0  0  0
 11 12  2  0  0  0  0
 15 23  1  0  0  0  0
 15 16  1  0  0  0  0
 16 19  1  0  0  0  0
 19 22  1  0  0  0  0
 22  2  1  6  0  0  0
 22 23  1  0  0  0  0
 23 24  1  1  0  0  0
 24 25  1  0  0  0  0
 25 26  1  0  0  0  0
M  CHG  2  13  -1  18  -1
M  END
>  <CHROM.1>
-68.42603920,-48.00386603,63.28266056,-51.94412405,-96.41792234,71.75435400
-177.59289204,73.60447377,-19.85936440,-11.58680661,0.74610912,0.09029953
0.23287576,0.37503316

>  <Name>
ligand

>  <RI>
0

>  <Rbt.Current_Directory>
/home/itssahil/PROJECTS/Mol_Feturizer/New_Systems/rnas/2GDI

>  <Rbt.Executable>
rbdock ($Id: //depot/dev/client3/rdock/2013.1/src/exe/rbdock.cxx#4 $)

>  <Rbt.Library>
libRbt.so (2013.1, Build901 2013/11/27)

>  <Rbt.Parameter_File>
/export/apps/rDock/src/rDock_2013.1_src/data/scripts/dock_solv.prm

>  <Rbt.Receptor>
prm/pocket_docking_8.prm

>  <SCORE>
-21.0864

>  <SCORE.INTER>
-20.0825

>  <SCORE.INTER.CONST>
1

>  <SCORE.INTER.POLAR>
0

>  <SCORE.INTER.ROT>
8

>  <SCORE.INTER.SOLV>
21.2143

>  <SCORE.INTER.VDW>
-29.3931

>  <SCORE.INTER.norm>
-0.772406

>  <SCORE.INTRA>
-1.00384

>  <SCORE.INTRA.DIHEDRAL>
-2.65293

>  <SCORE.INTRA.DIHEDRAL.0>
8.13976

>  <SCORE.INTRA.POLAR>
0

>  <SCORE.INTRA.POLAR.0>
0

>  <SCORE.INTRA.REPUL>
0

>  <SCORE.INTRA.REPUL.0>
0

>  <SCORE.INTRA.SOLV>
1.06656

>  <SCORE.INTRA.SOLV.lig_0>
-82.9561

>  <SCORE.INTRA.VDW>
-0.210656

>  <SCORE.INTRA.VDW.0>
-3.29171

>  <SCORE.INTRA.norm>
-0.0386092

>  <SCORE.RESTR>
0

>  <SCORE.RESTR.CAVITY>
0

>  <SCORE.RESTR.norm>
0

>  <SCORE.SYSTEM>
0

>  <SCORE.SYSTEM.CONST>
0

>  <SCORE.SYSTEM.DIHEDRAL>
0

>  <SCORE.SYSTEM.SOLV>
0

>  <SCORE.SYSTEM.norm>
0

>  <SCORE.heavy>
26

>  <SCORE.norm>
-0.811015

>  <RMSD>
2.841

$$$$
ligand
 OpenBabel11021811433D
libRbt.so/2013.1/901 2013/11/27
 26 27  0  0  0  0  0  0  0  0999 V2000
  -12.9988   -9.0694   -0.0432 C   0  0  0  0  0  0  0  0  0  0  0  0
  -19.8800  -11.8855    2.1436 C   0  0  0  0  0  0  0  0  0  0  0  0
  -23.4608  -15.2292    0.5908 P   0  0  1  0  0  0  0  0  0  0  0  0
  -21.3298  -17.0866    1.2746 P   0  0  1  0  0  0  0  0  0  0  0  0
  -17.0651  -12.7369    1.7027 C   0  0  0  0  0  0  0  0  0  0  0  0
  -14.7684  -12.2315    0.7752 C   0  0  0  0  0  0  0  0  0  0  0  0
  -15.9875  -11.7656    1.2512 C   0  0  0  0  0  0  0  0  0  0  0  0
  -16.2062  -10.3984    1.2935 C   0  0  0  0  0  0  0  0  0  0  0  0
  -17.3790   -9.8968    1.7510 N   0  0  0  0  0  0  0  0  0  0  0  0
  -15.2388   -9.5542    0.8740 N   0  0  0  0  0  0  0  0  0  0  0  0
  -14.0606  -10.0314    0.4166 C   0  0  0  0  0  0  0  0  0  0  0  0
  -13.8289  -11.3661    0.3692 N   0  0  0  0  0  0  0  0  0  0  0  0
  -24.0110  -14.8282   -0.7527 O   0  5  0  0  0  0  0  0  0  0  0  0
  -21.3954  -16.3766    2.5919 O   0  0  0  0  0  0  0  0  0  0  0  0
  -19.2458  -13.4825   -1.5339 S   0  0  0  0  0  0  0  0  0  0  0  0
  -17.8145  -13.4414   -0.5527 C   0  0  0  0  0  0  0  0  0  0  0  0
  -24.4345  -15.3444    1.7281 O   0  0  0  0  0  0  0  0  0  0  0  0
  -21.5582  -18.5460    1.4876 O   0  5  0  0  0  0  0  0  0  0  0  0
  -18.0850  -12.8979    0.6664 N   0  0  0  0  0  0  0  0  0  0  0  0
  -22.6015  -16.5902    0.4000 O   0  0  0  0  0  0  0  0  0  0  0  0
  -20.1159  -16.8030    0.4325 O   0  0  0  0  0  0  0  0  0  0  0  0
  -19.3734  -12.5075    0.8696 C   0  0  1  0  0  0  0  0  0  0  0  0
  -20.2340  -12.7832   -0.3126 C   0  0  1  0  0  0  0  0  0  0  0  0
  -21.6882  -12.5646   -0.6359 C   0  0  0  0  0  0  0  0  0  0  0  0
  -22.5056  -12.7733    0.6293 C   0  0  0  0  0  0  0  0  0  0  0  0
  -22.3694  -14.1322    1.0266 O   0  0  0  0  0  0  0  0  0  0  0  0
  1 11  1  0  0  0  0
  3 13  1  6  0  0  0
  3 17  2  0  0  0  0
  3 20  1  0  0  0  0
  3 26  1  0  0  0  0
  4 14  1  1  0  0  0
  4 18  1  0  0  0  0
  4 21  2  0  0  0  0
  4 20  1  0  0  0  0
  5 19  1  0  0  0  0
  5  7  1  0  0  0  0
  6  7  2  0  0  0  0
  6 12  1  0  0  0  0
  7  8  1  0  0  0  0
  8  9  1  0  0  0  0
  8 10  2  0  0  0  0
 10 11  1  0  0  0  0
 11 12  2  0  0  0  0
 15 23  1  0  0  0  0
 15 16  1  0  0  0  0
 16 19  1  0  0  0  0
 19 22  1  0  0  0  0
 22  2  1  1  0  0  0
 22 23  1  0  0  0  0
 23 24  1  6  0  0  0
 24 25  1  0  0  0  0
 25 26  1  0  0  0  0
M  CHG  2  13  -1  18  -1
M  END
>  <CHROM.1>
151.03464925,64.18430336,-100.85557614,21.56939319,145.92093966,-64.23453172
-95.16556527,31.64695363,-19.57683264,-13.61676087,0.64744103,-0.61233715
0.08747907,2.97677976

>  <Name>
ligand

>  <RI>
0

>  <Rbt.Current_Directory>
/home/itssahil/PROJECTS/Mol_Feturizer/New_Systems/rnas/2GDI

>  <Rbt.Executable>
rbdock ($Id: //depot/dev/client3/rdock/2013.1/src/exe/rbdock.cxx#4 $)

>  <Rbt.Library>
libRbt.so (2013.1, Build901 2013/11/27)

>  <Rbt.Parameter_File>
/export/apps/rDock/src/rDock_2013.1_src/data/scripts/dock_solv.prm

>  <Rbt.Receptor>
prm/pocket_docking_2.prm

>  <SCORE>
-5.52208

>  <SCORE.INTER>
-8.90838

>  <SCORE.INTER.CONST>
1

>  <SCORE.INTER.POLAR>
0

>  <SCORE.INTER.ROT>
8

>  <SCORE.INTER.SOLV>
11.1011

>  <SCORE.INTER.VDW>
-18.5726

>  <SCORE.INTER.norm>
-0.34263

>  <SCORE.INTRA>
3.0504

>  <SCORE.INTRA.DIHEDRAL>
5.21398

>  <SCORE.INTRA.DIHEDRAL.0>
8.13976

>  <SCORE.INTRA.POLAR>
0

>  <SCORE.INTRA.POLAR.0>
0

>  <SCORE.INTRA.REPUL>
0

>  <SCORE.INTRA.REPUL.0>
0

>  <SCORE.INTRA.SOLV>
2.28723

>  <SCORE.INTRA.SOLV.lig_0>
-82.9561

>  <SCORE.INTRA.VDW>
-0.700207

>  <SCORE.INTRA.VDW.0>
-3.29171

>  <SCORE.INTRA.norm>
0.117323

>  <SCORE.RESTR>
0.335904

>  <SCORE.RESTR.CAVITY>
0.335904

>  <SCORE.RESTR.norm>
0.0129194

>  <SCORE.SYSTEM>
0

>  <SCORE.SYSTEM.CONST>
0

>  <SCORE.SYSTEM.DIHEDRAL>
0

>  <SCORE.SYSTEM.SOLV>
0

>  <SCORE.SYSTEM.norm>
0

>  <SCORE.heavy>
26

>  <SCORE.norm>
-0.212388

>  <RMSD>
2.858

$$$$
ligand
 OpenBabel11021811433D
libRbt.so/2013.1/901 2013/11/27
 26 27  0  0  0  0  0  0  0  0999 V2000
  -12.5833   -8.1632   -0.3697 C   0  0  0  0  0  0  0  0  0  0  0  0
  -18.6811  -11.8506    2.0365 C   0  0  0  0  0  0  0  0  0  0  0  0
  -22.1045  -16.0801    0.1961 P   0  0  1  0  0  0  0  0  0  0  0  0
  -21.4538  -17.8737    2.3912 P   0  0  1  0  0  0  0  0  0  0  0  0
  -15.9058  -12.5667    1.2439 C   0  0  0  0  0  0  0  0  0  0  0  0
  -13.8142  -11.6245    0.1819 C   0  0  0  0  0  0  0  0  0  0  0  0
  -15.0240  -11.4017    0.8272 C   0  0  0  0  0  0  0  0  0  0  0  0
  -15.4169  -10.0959    1.0712 C   0  0  0  0  0  0  0  0  0  0  0  0
  -16.5879   -9.8290    1.6987 N   0  0  0  0  0  0  0  0  0  0  0  0
  -14.6231   -9.0756    0.6794 N   0  0  0  0  0  0  0  0  0  0  0  0
  -13.4499   -9.3177    0.0548 C   0  0  0  0  0  0  0  0  0  0  0  0
  -13.0493  -10.5891   -0.1911 N   0  0  0  0  0  0  0  0  0  0  0  0
  -21.9386  -17.1812   -0.8181 O   0  5  0  0  0  0  0  0  0  0  0  0
  -21.0667  -19.0027    1.4862 O   0  0  0  0  0  0  0  0  0  0  0  0
  -18.4107  -13.2534   -1.7630 S   0  0  0  0  0  0  0  0  0  0  0  0
  -16.8801  -13.1986   -0.9462 C   0  0  0  0  0  0  0  0  0  0  0  0
  -23.5043  -15.6340    0.5067 O   0  0  0  0  0  0  0  0  0  0  0  0
  -20.4508  -17.7546    3.4899 O   0  5  0  0  0  0  0  0  0  0  0  0
  -17.0301  -12.7219    0.3207 N   0  0  0  0  0  0  0  0  0  0  0  0
  -21.3007  -16.5033    1.5384 O   0  0  0  0  0  0  0  0  0  0  0  0
  -22.8714  -17.8884    2.8945 O   0  0  0  0  0  0  0  0  0  0  0  0
  -18.3001  -12.3936    0.6850 C   0  0  1  0  0  0  0  0  0  0  0  0
  -19.2786  -12.6503   -0.4064 C   0  0  1  0  0  0  0  0  0  0  0  0
  -20.7668  -12.4764   -0.5548 C   0  0  0  0  0  0  0  0  0  0  0  0
  -21.4673  -13.5249    0.2951 C   0  0  0  0  0  0  0  0  0  0  0  0
  -21.3168  -14.7869   -0.3435 O   0  0  0  0  0  0  0  0  0  0  0  0
  1 11  1  0  0  0  0
  3 13  1  6  0  0  0
  3 17  2  0  0  0  0
  3 20  1  0  0  0  0
  3 26  1  0  0  0  0
  4 14  1  6  0  0  0
  4 18  1  0  0  0  0
  4 21  2  0  0  0  0
  4 20  1  0  0  0  0
  5 19  1  0  0  0  0
  5  7  1  0  0  0  0
  6  7  2  0  0  0  0
  6 12  1  0  0  0  0
  7  8  1  0  0  0  0
  8  9  1  0  0  0  0
  8 10  2  0  0  0  0
 10 11  1  0  0  0  0
 11 12  2  0  0  0  0
 15 23  1  0  0  0  0
 15 16  1  0  0  0  0
 16 19  1  0  0  0  0
 19 22  1  0  0  0  0
 22  2  1  1  0  0  0
 22 23  1  0  0  0  0
 23 24  1  6  0  0  0
 24 25  1  0  0  0  0
 25 26  1  0  0  0  0
M  CHG  2  13  -1  18  -1
M  END
>  <CHROM.1>
-53.91531674,72.11583201,-102.81546282,62.03879492,109.72500222,-73.01751509
-171.96022297,169.95253346,-18.81561214,-13.81637650,0.61037996,-0.61183707
0.48343648,2.39909021

>  <Name>
ligand

>  <RI>
0

>  <Rbt.Current_Directory>
/home/itssahil/PROJECTS/Mol_Feturizer/New_Systems/rnas/2GDI

>  <Rbt.Executable>
rbdock ($Id: //depot/dev/client3/rdock/2013.1/src/exe/rbdock.cxx#4 $)

>  <Rbt.Library>
libRbt.so (2013.1, Build901 2013/11/27)

>  <Rbt.Parameter_File>
/export/apps/rDock/src/rDock_2013.1_src/data/scripts/dock_solv.prm

>  <Rbt.Receptor>
prm/pocket_docking_3.prm

>  <SCORE>
-13.2079

>  <SCORE.INTER>
-13.5472

>  <SCORE.INTER.CONST>
1

>  <SCORE.INTER.POLAR>
0

>  <SCORE.INTER.ROT>
8

>  <SCORE.INTER.SOLV>
11.2106

>  <SCORE.INTER.VDW>
-21.7016

>  <SCORE.INTER.norm>
-0.521045

>  <SCORE.INTRA>
0.339253

>  <SCORE.INTRA.DIHEDRAL>
-2.02637

>  <SCORE.INTRA.DIHEDRAL.0>
8.13976

>  <SCORE.INTRA.POLAR>
0

>  <SCORE.INTRA.POLAR.0>
0

>  <SCORE.INTRA.REPUL>
0

>  <SCORE.INTRA.REPUL.0>
0

>  <SCORE.INTRA.SOLV>
3.18922

>  <SCORE.INTRA.SOLV.lig_0>
-82.9561

>  <SCORE.INTRA.VDW>
-0.242171

>  <SCORE.INTRA.VDW.0>
-3.29171

>  <SCORE.INTRA.norm>
0.0130482

>  <SCORE.RESTR>
0

>  <SCORE.RESTR.CAVITY>
0

>  <SCORE.RESTR.norm>
0

>  <SCORE.SYSTEM>
0

>  <SCORE.SYSTEM.CONST>
0

>  <SCORE.SYSTEM.DIHEDRAL>
0

>  <SCORE.SYSTEM.SOLV>
0

>  <SCORE.SYSTEM.norm>
0

>  <SCORE.heavy>
26

>  <SCORE.norm>
-0.507996

>  <RMSD>
2.869

$$$$
ligand
 OpenBabel11021811433D
libRbt.so/2013.1/901 2013/11/27
 26 27  0  0  0  0  0  0  0  0999 V2000
  -12.7443   -6.7734   -0.2718 C   0  0  0  0  0  0  0  0  0  0  0  0
  -16.1872  -14.6760    0.1681 C   0  0  0  0  0  0  0  0  0  0  0  0
  -23.0784  -14.3774   -0.9345 P   0  0  1  0  0  0  0  0  0  0  0  0
  -24.3552  -13.9404    1.6418 P   0  0  1  0  0  0  0  0  0  0  0  0
  -14.9059  -12.0272    0.5989 C   0  0  0  0  0  0  0  0  0  0  0  0
  -13.1856  -10.4601   -0.3885 C   0  0  0  0  0  0  0  0  0  0  0  0
  -14.3301  -10.6386    0.3783 C   0  0  0  0  0  0  0  0  0  0  0  0
  -14.9436   -9.5243    0.9267 C   0  0  0  0  0  0  0  0  0  0  0  0
  -16.0613   -9.6487    1.6827 N   0  0  0  0  0  0  0  0  0  0  0  0
  -14.4216   -8.2982    0.7057 N   0  0  0  0  0  0  0  0  0  0  0  0
  -13.3065   -8.1502   -0.0424 C   0  0  0  0  0  0  0  0  0  0  0  0
  -12.6924   -9.2295   -0.5858 N   0  0  0  0  0  0  0  0  0  0  0  0
  -23.8848  -15.5049   -1.5235 O   0  5  0  0  0  0  0  0  0  0  0  0
  -24.5618  -12.4929    1.3167 O   0  0  0  0  0  0  0  0  0  0  0  0
  -18.4468  -11.5700   -1.1447 S   0  0  0  0  0  0  0  0  0  0  0  0
  -16.9370  -11.0687   -0.4502 C   0  0  0  0  0  0  0  0  0  0  0  0
  -23.3810  -12.9880   -1.4169 O   0  0  0  0  0  0  0  0  0  0  0  0
  -25.5624  -14.7163    1.2321 O   0  5  0  0  0  0  0  0  0  0  0  0
  -16.2220  -12.1483   -0.0283 N   0  0  0  0  0  0  0  0  0  0  0  0
  -23.1671  -14.4816    0.6805 O   0  0  0  0  0  0  0  0  0  0  0  0
  -23.9163  -14.2440    3.0484 O   0  0  0  0  0  0  0  0  0  0  0  0
  -16.8074  -13.3616   -0.2247 C   0  0  1  0  0  0  0  0  0  0  0  0
  -18.1319  -13.2416   -0.8923 C   0  0  1  0  0  0  0  0  0  0  0  0
  -19.1849  -14.2219   -1.3364 C   0  0  0  0  0  0  0  0  0  0  0  0
  -20.5099  -13.8372   -0.6970 C   0  0  0  0  0  0  0  0  0  0  0  0
  -21.5289  -14.6528   -1.2624 O   0  0  0  0  0  0  0  0  0  0  0  0
  1 11  1  0  0  0  0
  3 13  1  6  0  0  0
  3 17  2  0  0  0  0
  3 20  1  0  0  0  0
  3 26  1  0  0  0  0
  4 14  1  6  0  0  0
  4 18  1  0  0  0  0
  4 21  2  0  0  0  0
  4 20  1  0  0  0  0
  5 19  1  0  0  0  0
  5  7  1  0  0  0  0
  6  7  2  0  0  0  0
  6 12  1  0  0  0  0
  7  8  1  0  0  0  0
  8  9  1  0  0  0  0
  8 10  2  0  0  0  0
 10 11  1  0  0  0  0
 11 12  2  0  0  0  0
 15 23  1  0  0  0  0
 15 16  1  0  0  0  0
 16 19  1  0  0  0  0
 19 22  1  0  0  0  0
 22  2  1  6  0  0  0
 22 23  1  0  0  0  0
 23 24  1  1  0  0  0
 24 25  1  0  0  0  0
 25 26  1  0  0  0  0
M  CHG  2  13  -1  18  -1
M  END
>  <CHROM.1>
-82.30051470,-14.66337494,-114.57159253,-53.49623662,-54.18478332,172.17774099
-172.43349888,-172.56043004,-19.22800082,-12.40156024,0.03169672,0.34527463
0.28915543,0.59601918

>  <Name>
ligand

>  <RI>
0

>  <Rbt.Current_Directory>
/home/itssahil/PROJECTS/Mol_Feturizer/New_Systems/rnas/2GDI

>  <Rbt.Executable>
rbdock ($Id: //depot/dev/client3/rdock/2013.1/src/exe/rbdock.cxx#4 $)

>  <Rbt.Library>
libRbt.so (2013.1, Build901 2013/11/27)

>  <Rbt.Parameter_File>
/export/apps/rDock/src/rDock_2013.1_src/data/scripts/dock_solv.prm

>  <Rbt.Receptor>
prm/pocket_docking_3.prm

>  <SCORE>
-13.1165

>  <SCORE.INTER>
-14.6918

>  <SCORE.INTER.CONST>
1

>  <SCORE.INTER.POLAR>
0

>  <SCORE.INTER.ROT>
8

>  <SCORE.INTER.SOLV>
12.684

>  <SCORE.INTER.VDW>
-22.9558

>  <SCORE.INTER.norm>
-0.565067

>  <SCORE.INTRA>
1.56514

>  <SCORE.INTRA.DIHEDRAL>
-1.94712

>  <SCORE.INTRA.DIHEDRAL.0>
8.13976

>  <SCORE.INTRA.POLAR>
0

>  <SCORE.INTRA.POLAR.0>
0

>  <SCORE.INTRA.REPUL>
0

>  <SCORE.INTRA.REPUL.0>
0

>  <SCORE.INTRA.SOLV>
2.00782

>  <SCORE.INTRA.SOLV.lig_0>
-82.9561

>  <SCORE.INTRA.VDW>
1.53478

>  <SCORE.INTRA.VDW.0>
-3.29171

>  <SCORE.INTRA.norm>
0.0601976

>  <SCORE.RESTR>
0.010113

>  <SCORE.RESTR.CAVITY>
0.010113

>  <SCORE.RESTR.norm>
0.000388961

>  <SCORE.SYSTEM>
0

>  <SCORE.SYSTEM.CONST>
0

>  <SCORE.SYSTEM.DIHEDRAL>
0

>  <SCORE.SYSTEM.SOLV>
0

>  <SCORE.SYSTEM.norm>
0

>  <SCORE.heavy>
26

>  <SCORE.norm>
-0.504481

>  <RMSD>
2.876

$$$$
ligand
 OpenBabel11021811433D
libRbt.so/2013.1/901 2013/11/27
 26 27  0  0  0  0  0  0  0  0999 V2000
  -12.4430   -7.4240   -0.7212 C   0  0  0  0  0  0  0  0  0  0  0  0
  -17.0553  -11.7288    3.2711 C   0  0  0  0  0  0  0  0  0  0  0  0
  -22.1135  -14.7060    1.9495 P   0  0  1  0  0  0  0  0  0  0  0  0
  -20.3021  -16.4947    0.5431 P   0  0  1  0  0  0  0  0  0  0  0  0
  -15.3503  -12.1208    0.8664 C   0  0  0  0  0  0  0  0  0  0  0  0
  -13.4432  -10.9813   -0.3397 C   0  0  0  0  0  0  0  0  0  0  0  0
  -14.5772  -10.8789    0.4562 C   0  0  0  0  0  0  0  0  0  0  0  0
  -14.9968   -9.6211    0.8573 C   0  0  0  0  0  0  0  0  0  0  0  0
  -16.0964   -9.4713    1.6350 N   0  0  0  0  0  0  0  0  0  0  0  0
  -14.3015   -8.5300    0.4690 N   0  0  0  0  0  0  0  0  0  0  0  0
  -13.2006   -8.6553   -0.3040 C   0  0  0  0  0  0  0  0  0  0  0  0
  -12.7750   -9.8782   -0.7047 N   0  0  0  0  0  0  0  0  0  0  0  0
  -22.8807  -14.4981    0.6701 O   0  5  0  0  0  0  0  0  0  0  0  0
  -18.9748  -15.8242    0.7228 O   0  0  0  0  0  0  0  0  0  0  0  0
  -19.1343  -11.5664   -0.2114 S   0  0  0  0  0  0  0  0  0  0  0  0
  -17.4375  -11.8496   -0.4432 C   0  0  0  0  0  0  0  0  0  0  0  0
  -22.8954  -14.6966    3.2315 O   0  0  0  0  0  0  0  0  0  0  0  0
  -20.1340  -17.9706    0.6874 O   0  5  0  0  0  0  0  0  0  0  0  0
  -16.7914  -11.8947    0.7548 N   0  0  0  0  0  0  0  0  0  0  0  0
  -21.2322  -16.0577    1.7971 O   0  0  0  0  0  0  0  0  0  0  0  0
  -21.0716  -16.1132   -0.6920 O   0  0  0  0  0  0  0  0  0  0  0  0
  -17.5707  -11.7153    1.8567 C   0  0  1  0  0  0  0  0  0  0  0  0
  -19.0028  -11.5201    1.5025 C   0  0  1  0  0  0  0  0  0  0  0  0
  -20.2640  -11.2834    2.2902 C   0  0  0  0  0  0  0  0  0  0  0  0
  -21.3565  -12.1899    1.7453 C   0  0  0  0  0  0  0  0  0  0  0  0
  -21.0197  -13.5338    2.0672 O   0  0  0  0  0  0  0  0  0  0  0  0
  1 11  1  0  0  0  0
  3 13  1  6  0  0  0
  3 17  2  0  0  0  0
  3 20  1  0  0  0  0
  3 26  1  0  0  0  0
  4 14  1  1  0  0  0
  4 18  1  0  0  0  0
  4 21  2  0  0  0  0
  4 20  1  0  0  0  0
  5 19  1  0  0  0  0
  5  7  1  0  0  0  0
  6  7  2  0  0  0  0
  6 12  1  0  0  0  0
  7  8  1  0  0  0  0
  8  9  1  0  0  0  0
  8 10  2  0  0  0  0
 10 11  1  0  0  0  0
 11 12  2  0  0  0  0
 15 23  1  0  0  0  0
 15 16  1  0  0  0  0
 16 19  1  0  0  0  0
 19 22  1  0  0  0  0
 22  2  1  1  0  0  0
 22 23  1  0  0  0  0
 23 24  1  6  0  0  0
 24 25  1  0  0  0  0
 25 26  1  0  0  0  0
M  CHG  2  13  -1  18  -1
M  END
>  <CHROM.1>
46.56221835,74.20233516,-137.28798659,83.74951767,46.71166111,68.58987062
165.42861638,42.70621157,-18.42154992,-12.72923482,0.92408931,-0.59635167
-0.37590090,-2.83555400

>  <Name>
ligand

>  <RI>
0

>  <Rbt.Current_Directory>
/home/itssahil/PROJECTS/Mol_Feturizer/New_Systems/rnas/2GDI

>  <Rbt.Executable>
rbdock ($Id: //depot/dev/client3/rdock/2013.1/src/exe/rbdock.cxx#4 $)

>  <Rbt.Library>
libRbt.so (2013.1, Build901 2013/11/27)

>  <Rbt.Parameter_File>
/export/apps/rDock/src/rDock_2013.1_src/data/scripts/dock_solv.prm

>  <Rbt.Receptor>
prm/pocket_docking_3.prm

>  <SCORE>
-14.2009

>  <SCORE.INTER>
-17.1839

>  <SCORE.INTER.CONST>
1

>  <SCORE.INTER.POLAR>
0

>  <SCORE.INTER.ROT>
8

>  <SCORE.INTER.SOLV>
14.9408

>  <SCORE.INTER.VDW>
-25.3696

>  <SCORE.INTER.norm>
-0.66092

>  <SCORE.INTRA>
2.98182

>  <SCORE.INTRA.DIHEDRAL>
-0.332159

>  <SCORE.INTRA.DIHEDRAL.0>
8.13976

>  <SCORE.INTRA.POLAR>
0

>  <SCORE.INTRA.POLAR.0>
0

>  <SCORE.INTRA.REPUL>
0

>  <SCORE.INTRA.REPUL.0>
0

>  <SCORE.INTRA.SOLV>
5.03598

>  <SCORE.INTRA.SOLV.lig_0>
-82.9561

>  <SCORE.INTRA.VDW>
0.629908

>  <SCORE.INTRA.VDW.0>
-3.29171

>  <SCORE.INTRA.norm>
0.114685

>  <SCORE.RESTR>
0.00122702

>  <SCORE.RESTR.CAVITY>
0.00122702

>  <SCORE.RESTR.norm>
4.71932e-05

>  <SCORE.SYSTEM>
0

>  <SCORE.SYSTEM.CONST>
0

>  <SCORE.SYSTEM.DIHEDRAL>
0

>  <SCORE.SYSTEM.SOLV>
0

>  <SCORE.SYSTEM.norm>
0

>  <SCORE.heavy>
26

>  <SCORE.norm>
-0.546188

>  <RMSD>
2.882

$$$$
ligand
 OpenBabel11021811433D
libRbt.so/2013.1/901 2013/11/27
 26 27  0  0  0  0  0  0  0  0999 V2000
  -13.0610  -12.5238   -0.0385 C   0  0  0  0  0  0  0  0  0  0  0  0
  -19.1943  -14.8273    0.8428 C   0  0  0  0  0  0  0  0  0  0  0  0
  -22.4914  -16.9979    1.1010 P   0  0  1  0  0  0  0  0  0  0  0  0
  -25.1523  -15.8500    1.3483 P   0  0  1  0  0  0  0  0  0  0  0  0
  -18.4768  -12.1202    1.8429 C   0  0  0  0  0  0  0  0  0  0  0  0
  -16.3356  -13.4123    1.4741 C   0  0  0  0  0  0  0  0  0  0  0  0
  -17.0418  -12.2220    1.3543 C   0  0  0  0  0  0  0  0  0  0  0  0
  -16.4162  -11.1338    0.7683 C   0  0  0  0  0  0  0  0  0  0  0  0
  -17.0643   -9.9517    0.6307 N   0  0  0  0  0  0  0  0  0  0  0  0
  -15.1445  -11.2517    0.3287 N   0  0  0  0  0  0  0  0  0  0  0  0
  -14.4777  -12.4195    0.4579 C   0  0  0  0  0  0  0  0  0  0  0  0
  -15.0738  -13.4942    1.0297 N   0  0  0  0  0  0  0  0  0  0  0  0
  -21.5264  -17.4100    2.1814 O   0  5  0  0  0  0  0  0  0  0  0  0
  -25.4912  -14.3938    1.4378 O   0  0  0  0  0  0  0  0  0  0  0  0
  -21.0629  -11.8315   -1.1598 S   0  0  0  0  0  0  0  0  0  0  0  0
  -20.0145  -11.2591    0.0997 C   0  0  0  0  0  0  0  0  0  0  0  0
  -23.1408  -18.0916    0.3028 O   0  0  0  0  0  0  0  0  0  0  0  0
  -25.2198  -16.2867   -0.0771 O   0  5  0  0  0  0  0  0  0  0  0  0
  -19.4156  -12.3037    0.7360 N   0  0  0  0  0  0  0  0  0  0  0  0
  -23.5906  -16.0035    1.7565 O   0  0  0  0  0  0  0  0  0  0  0  0
  -25.9105  -16.7616    2.2743 O   0  0  0  0  0  0  0  0  0  0  0  0
  -19.7432  -13.5436    0.2793 C   0  0  1  0  0  0  0  0  0  0  0  0
  -20.6991  -13.4852   -0.8597 C   0  0  1  0  0  0  0  0  0  0  0  0
  -21.3796  -14.5142   -1.7229 C   0  0  0  0  0  0  0  0  0  0  0  0
  -22.4005  -15.2607   -0.8787 C   0  0  0  0  0  0  0  0  0  0  0  0
  -21.6971  -16.0717    0.0543 O   0  0  0  0  0  0  0  0  0  0  0  0
  1 11  1  0  0  0  0
  3 13  1  1  0  0  0
  3 17  2  0  0  0  0
  3 20  1  0  0  0  0
  3 26  1  0  0  0  0
  4 14  1  1  0  0  0
  4 18  1  0  0  0  0
  4 21  2  0  0  0  0
  4 20  1  0  0  0  0
  5 19  1  0  0  0  0
  5  7  1  0  0  0  0
  6  7  2  0  0  0  0
  6 12  1  0  0  0  0
  7  8  1  0  0  0  0
  8  9  1  0  0  0  0
  8 10  2  0  0  0  0
 10 11  1  0  0  0  0
 11 12  2  0  0  0  0
 15 23  1  0  0  0  0
 15 16  1  0  0  0  0
 16 19  1  0  0  0  0
 19 22  1  0  0  0  0
 22  2  1  6  0  0  0
 22 23  1  0  0  0  0
 23 24  1  1  0  0  0
 24 25  1  0  0  0  0
 25 26  1  0  0  0  0
M  CHG  2  13  -1  18  -1
M  END
>  <CHROM.1>
-147.22784673,-99.15985789,-97.37954919,-141.68685449,-109.38848645,-69.85473506
-179.86863673,-163.98895128,-20.57744306,-14.21340150,0.59317871,-0.47403800
0.10210043,2.83226191

>  <Name>
ligand

>  <RI>
0

>  <Rbt.Current_Directory>
/home/itssahil/PROJECTS/Mol_Feturizer/New_Systems/rnas/2GDI

>  <Rbt.Executable>
rbdock ($Id: //depot/dev/client3/rdock/2013.1/src/exe/rbdock.cxx#4 $)

>  <Rbt.Library>
libRbt.so (2013.1, Build901 2013/11/27)

>  <Rbt.Parameter_File>
/export/apps/rDock/src/rDock_2013.1_src/data/scripts/dock_solv.prm

>  <Rbt.Receptor>
prm/pocket_docking_2.prm

>  <SCORE>
-1.61357

>  <SCORE.INTER>
-4.71712

>  <SCORE.INTER.CONST>
1

>  <SCORE.INTER.POLAR>
0

>  <SCORE.INTER.ROT>
8

>  <SCORE.INTER.SOLV>
14.6175

>  <SCORE.INTER.VDW>
-16.9506

>  <SCORE.INTER.norm>
-0.181428

>  <SCORE.INTRA>
1.48823

>  <SCORE.INTRA.DIHEDRAL>
0.222491

>  <SCORE.INTRA.DIHEDRAL.0>
8.13976

>  <SCORE.INTRA.POLAR>
0

>  <SCORE.INTRA.POLAR.0>
0

>  <SCORE.INTRA.REPUL>
0

>  <SCORE.INTRA.REPUL.0>
0

>  <SCORE.INTRA.SOLV>
4.08039

>  <SCORE.INTRA.SOLV.lig_0>
-82.9561

>  <SCORE.INTRA.VDW>
-0.663212

>  <SCORE.INTRA.VDW.0>
-3.29171

>  <SCORE.INTRA.norm>
0.0572395

>  <SCORE.RESTR>
1.61532

>  <SCORE.RESTR.CAVITY>
1.61532

>  <SCORE.RESTR.norm>
0.0621275

>  <SCORE.SYSTEM>
0

>  <SCORE.SYSTEM.CONST>
0

>  <SCORE.SYSTEM.DIHEDRAL>
0

>  <SCORE.SYSTEM.SOLV>
0

>  <SCORE.SYSTEM.norm>
0

>  <SCORE.heavy>
26

>  <SCORE.norm>
-0.0620605

>  <RMSD>
2.896

$$$$
ligand
 OpenBabel11021811433D
libRbt.so/2013.1/901 2013/11/27
 26 27  0  0  0  0  0  0  0  0999 V2000
  -12.5348   -7.1447   -0.5867 C   0  0  0  0  0  0  0  0  0  0  0  0
  -16.8417  -14.4175    0.9599 C   0  0  0  0  0  0  0  0  0  0  0  0
  -20.8275  -16.9276   -0.1869 P   0  0  1  0  0  0  0  0  0  0  0  0
  -20.7561  -18.2697    2.3924 P   0  0  1  0  0  0  0  0  0  0  0  0
  -15.3734  -11.8372    1.1325 C   0  0  0  0  0  0  0  0  0  0  0  0
  -15.0724   -9.3298    1.0215 C   0  0  0  0  0  0  0  0  0  0  0  0
  -14.6276  -10.5976    0.6686 C   0  0  0  0  0  0  0  0  0  0  0  0
  -13.4828  -10.7096   -0.1034 C   0  0  0  0  0  0  0  0  0  0  0  0
  -13.0112  -11.9249   -0.4735 N   0  0  0  0  0  0  0  0  0  0  0  0
  -12.8283   -9.5940   -0.4928 N   0  0  0  0  0  0  0  0  0  0  0  0
  -13.2815   -8.3717   -0.1383 C   0  0  0  0  0  0  0  0  0  0  0  0
  -14.4005   -8.2433    0.6158 N   0  0  0  0  0  0  0  0  0  0  0  0
  -21.2215  -17.4381   -1.5480 O   0  5  0  0  0  0  0  0  0  0  0  0
  -20.2529  -19.6088    2.8363 O   0  0  0  0  0  0  0  0  0  0  0  0
  -18.8191  -11.3287   -0.7796 S   0  0  0  0  0  0  0  0  0  0  0  0
  -17.2951  -10.8615   -0.0921 C   0  0  0  0  0  0  0  0  0  0  0  0
  -21.7263  -15.9099    0.4545 O   0  0  0  0  0  0  0  0  0  0  0  0
  -19.8533  -17.2035    2.9171 O   0  5  0  0  0  0  0  0  0  0  0  0
  -16.6771  -11.9340    0.4757 N   0  0  0  0  0  0  0  0  0  0  0  0
  -20.5841  -18.2043    0.7815 O   0  0  0  0  0  0  0  0  0  0  0  0
  -22.2092  -17.9887    2.6623 O   0  0  0  0  0  0  0  0  0  0  0  0
  -17.3481  -13.1160    0.3975 C   0  0  1  0  0  0  0  0  0  0  0  0
  -18.6405  -12.9781   -0.3271 C   0  0  1  0  0  0  0  0  0  0  0  0
  -19.7528  -13.9239   -0.6947 C   0  0  0  0  0  0  0  0  0  0  0  0
  -19.1430  -15.2017   -1.2494 C   0  0  0  0  0  0  0  0  0  0  0  0
  -19.3765  -16.2473   -0.3139 O   0  0  0  0  0  0  0  0  0  0  0  0
  1 11  1  0  0  0  0
  3 13  1  6  0  0  0
  3 17  2  0  0  0  0
  3 20  1  0  0  0  0
  3 26  1  0  0  0  0
  4 14  1  1  0  0  0
  4 18  1  0  0  0  0
  4 21  2  0  0  0  0
  4 20  1  0  0  0  0
  5 19  1  0  0  0  0
  5  7  1  0  0  0  0
  6  7  2  0  0  0  0
  6 12  1  0  0  0  0
  7  8  1  0  0  0  0
  8  9  1  0  0  0  0
  8 10  2  0  0  0  0
 10 11  1  0  0  0  0
 11 12  2  0  0  0  0
 15 23  1  0  0  0  0
 15 16  1  0  0  0  0
 16 19  1  0  0  0  0
 19 22  1  0  0  0  0
 22  2  1  6  0  0  0
 22 23  1  0  0  0  0
 23 24  1  1  0  0  0
 24 25  1  0  0  0  0
 25 26  1  0  0  0  0
M  CHG  2  13  -1  18  -1
M  END
>  <CHROM.1>
-152.18580473,-20.33939244,68.74985200,-173.07685681,135.92364400,110.99568859
76.20356720,55.78258555,-18.01077892,-13.89129474,0.43291966,0.76759412,-0.50592953
-0.61612193

>  <Name>
ligand

>  <RI>
0

>  <Rbt.Current_Directory>
/home/itssahil/PROJECTS/Mol_Feturizer/New_Systems/rnas/2GDI

>  <Rbt.Executable>
rbdock ($Id: //depot/dev/client3/rdock/2013.1/src/exe/rbdock.cxx#4 $)

>  <Rbt.Library>
libRbt.so (2013.1, Build901 2013/11/27)

>  <Rbt.Parameter_File>
/export/apps/rDock/src/rDock_2013.1_src/data/scripts/dock_solv.prm

>  <Rbt.Receptor>
prm/pocket_docking_4.prm

>  <SCORE>
-12.9267

>  <SCORE.INTER>
-17.2678

>  <SCORE.INTER.CONST>
1

>  <SCORE.INTER.POLAR>
0

>  <SCORE.INTER.ROT>
8

>  <SCORE.INTER.SOLV>
17.9234

>  <SCORE.INTER.VDW>
-26.4197

>  <SCORE.INTER.norm>
-0.664146

>  <SCORE.INTRA>
4.34113

>  <SCORE.INTRA.DIHEDRAL>
4.46143

>  <SCORE.INTRA.DIHEDRAL.0>
8.13976

>  <SCORE.INTRA.POLAR>
0

>  <SCORE.INTRA.POLAR.0>
0

>  <SCORE.INTRA.REPUL>
0

>  <SCORE.INTRA.REPUL.0>
0

>  <SCORE.INTRA.SOLV>
2.77599

>  <SCORE.INTRA.SOLV.lig_0>
-82.9561

>  <SCORE.INTRA.VDW>
0.722419

>  <SCORE.INTRA.VDW.0>
-3.29171

>  <SCORE.INTRA.norm>
0.166967

>  <SCORE.RESTR>
0

>  <SCORE.RESTR.CAVITY>
0

>  <SCORE.RESTR.norm>
0

>  <SCORE.SYSTEM>
0

>  <SCORE.SYSTEM.CONST>
0

>  <SCORE.SYSTEM.DIHEDRAL>
0

>  <SCORE.SYSTEM.SOLV>
0

>  <SCORE.SYSTEM.norm>
0

>  <SCORE.heavy>
26

>  <SCORE.norm>
-0.49718

>  <RMSD>
2.898

$$$$
ligand
 OpenBabel11021811433D
libRbt.so/2013.1/901 2013/11/27
 26 27  0  0  0  0  0  0  0  0999 V2000
  -12.9679   -7.8224   -0.2226 C   0  0  0  0  0  0  0  0  0  0  0  0
  -17.5874  -14.7988    0.6953 C   0  0  0  0  0  0  0  0  0  0  0  0
  -23.1451  -12.5443   -1.8655 P   0  0  1  0  0  0  0  0  0  0  0  0
  -24.5950  -12.8062    0.6421 P   0  0  1  0  0  0  0  0  0  0  0  0
  -16.0671  -12.3604    1.4609 C   0  0  0  0  0  0  0  0  0  0  0  0
  -15.6005   -9.8766    1.4052 C   0  0  0  0  0  0  0  0  0  0  0  0
  -15.2527  -11.1610    1.0065 C   0  0  0  0  0  0  0  0  0  0  0  0
  -14.1406  -11.3279    0.1975 C   0  0  0  0  0  0  0  0  0  0  0  0
  -13.7630  -12.5613   -0.2178 N   0  0  0  0  0  0  0  0  0  0  0  0
  -13.4235  -10.2482   -0.1828 N   0  0  0  0  0  0  0  0  0  0  0  0
  -13.7828   -9.0086    0.2166 C   0  0  0  0  0  0  0  0  0  0  0  0
  -14.8686   -8.8266    1.0074 N   0  0  0  0  0  0  0  0  0  0  0  0
  -23.6983  -13.8387   -2.4011 O   0  5  0  0  0  0  0  0  0  0  0  0
  -24.8001  -14.2856    0.7549 O   0  0  0  0  0  0  0  0  0  0  0  0
  -19.6919  -11.3675    0.1716 S   0  0  0  0  0  0  0  0  0  0  0  0
  -18.0947  -11.0988    0.7959 C   0  0  0  0  0  0  0  0  0  0  0  0
  -23.6980  -11.2699   -2.4356 O   0  0  0  0  0  0  0  0  0  0  0  0
  -24.2590  -12.2498    1.9856 O   0  5  0  0  0  0  0  0  0  0  0  0
  -17.4360  -12.2807    0.9510 N   0  0  0  0  0  0  0  0  0  0  0  0
  -23.2604  -12.5750   -0.2491 O   0  0  0  0  0  0  0  0  0  0  0  0
  -25.6890  -12.0396   -0.0497 O   0  0  0  0  0  0  0  0  0  0  0  0
  -18.1308  -13.3979    0.6010 C   0  0  1  0  0  0  0  0  0  0  0  0
  -19.4921  -13.0738    0.0947 C   0  0  1  0  0  0  0  0  0  0  0  0
  -20.6532  -13.8873   -0.4122 C   0  0  0  0  0  0  0  0  0  0  0  0
  -20.7704  -13.6861   -1.9149 C   0  0  0  0  0  0  0  0  0  0  0  0
  -21.5625  -12.5277   -2.1471 O   0  0  0  0  0  0  0  0  0  0  0  0
  1 11  1  0  0  0  0
  3 13  1  6  0  0  0
  3 17  2  0  0  0  0
  3 20  1  0  0  0  0
  3 26  1  0  0  0  0
  4 14  1  1  0  0  0
  4 18  1  0  0  0  0
  4 21  2  0  0  0  0
  4 20  1  0  0  0  0
  5 19  1  0  0  0  0
  5  7  1  0  0  0  0
  6  7  2  0  0  0  0
  6 12  1  0  0  0  0
  7  8  1  0  0  0  0
  8  9  1  0  0  0  0
  8 10  2  0  0  0  0
 10 11  1  0  0  0  0
 11 12  2  0  0  0  0
 15 23  1  0  0  0  0
 15 16  1  0  0  0  0
 16 19  1  0  0  0  0
 19 22  1  0  0  0  0
 22  2  1  6  0  0  0
 22 23  1  0  0  0  0
 23 24  1  1  0  0  0
 24 25  1  0  0  0  0
 25 26  1  0  0  0  0
M  CHG  2  13  -1  18  -1
M  END
>  <CHROM.1>
-56.14021749,-34.22117812,62.99262822,84.22783233,73.11565590,-86.45282482
-71.56855466,-43.32363614,-19.73826260,-12.03507349,-0.08710327,0.23239664
-0.13156107,-0.13190548

>  <Name>
ligand

>  <RI>
0

>  <Rbt.Current_Directory>
/home/itssahil/PROJECTS/Mol_Feturizer/New_Systems/rnas/2GDI

>  <Rbt.Executable>
rbdock ($Id: //depot/dev/client3/rdock/2013.1/src/exe/rbdock.cxx#4 $)

>  <Rbt.Library>
libRbt.so (2013.1, Build901 2013/11/27)

>  <Rbt.Parameter_File>
/export/apps/rDock/src/rDock_2013.1_src/data/scripts/dock_solv.prm

>  <Rbt.Receptor>
prm/pocket_docking_6.prm

>  <SCORE>
-15.4434

>  <SCORE.INTER>
-17.1113

>  <SCORE.INTER.CONST>
1

>  <SCORE.INTER.POLAR>
0

>  <SCORE.INTER.ROT>
8

>  <SCORE.INTER.SOLV>
21.4665

>  <SCORE.INTER.VDW>
-27.4964

>  <SCORE.INTER.norm>
-0.658128

>  <SCORE.INTRA>
1.66797

>  <SCORE.INTRA.DIHEDRAL>
1.0054

>  <SCORE.INTRA.DIHEDRAL.0>
8.13976

>  <SCORE.INTRA.POLAR>
0

>  <SCORE.INTRA.POLAR.0>
0

>  <SCORE.INTRA.REPUL>
0

>  <SCORE.INTRA.REPUL.0>
0

>  <SCORE.INTRA.SOLV>
1.75936

>  <SCORE.INTRA.SOLV.lig_0>
-82.9561

>  <SCORE.INTRA.VDW>
0.285594

>  <SCORE.INTRA.VDW.0>
-3.29171

>  <SCORE.INTRA.norm>
0.0641527

>  <SCORE.RESTR>
0

>  <SCORE.RESTR.CAVITY>
0

>  <SCORE.RESTR.norm>
0

>  <SCORE.SYSTEM>
0

>  <SCORE.SYSTEM.CONST>
0

>  <SCORE.SYSTEM.DIHEDRAL>
0

>  <SCORE.SYSTEM.SOLV>
0

>  <SCORE.SYSTEM.norm>
0

>  <SCORE.heavy>
26

>  <SCORE.norm>
-0.593976

>  <RMSD>
2.900

$$$$
ligand
 OpenBabel11021811433D
libRbt.so/2013.1/901 2013/11/27
 26 27  0  0  0  0  0  0  0  0999 V2000
  -13.4259   -7.8658    0.1234 C   0  0  0  0  0  0  0  0  0  0  0  0
  -16.2345  -16.0118    1.0077 C   0  0  0  0  0  0  0  0  0  0  0  0
  -20.8604  -17.8598    2.1930 P   0  0  1  0  0  0  0  0  0  0  0  0
  -23.5667  -18.9220    2.2734 P   0  0  1  0  0  0  0  0  0  0  0  0
  -14.8314  -13.4124    0.6647 C   0  0  0  0  0  0  0  0  0  0  0  0
  -13.3062  -11.5686   -0.1505 C   0  0  0  0  0  0  0  0  0  0  0  0
  -14.4561  -11.9462    0.5314 C   0  0  0  0  0  0  0  0  0  0  0  0
  -15.2608  -10.9588    1.0759 C   0  0  0  0  0  0  0  0  0  0  0  0
  -16.3916  -11.2785    1.7507 N   0  0  0  0  0  0  0  0  0  0  0  0
  -14.9144   -9.6610    0.9330 N   0  0  0  0  0  0  0  0  0  0  0  0
  -13.7901   -9.3187    0.2668 C   0  0  0  0  0  0  0  0  0  0  0  0
  -12.9904  -10.2717   -0.2715 N   0  0  0  0  0  0  0  0  0  0  0  0
  -20.6534  -16.7756    3.2178 O   0  5  0  0  0  0  0  0  0  0  0  0
  -23.2857  -19.2400    3.7098 O   0  0  0  0  0  0  0  0  0  0  0  0
  -18.2479  -13.4044   -1.3638 S   0  0  0  0  0  0  0  0  0  0  0  0
  -16.7500  -12.7638   -0.7648 C   0  0  0  0  0  0  0  0  0  0  0  0
  -20.3629  -19.2349    2.5341 O   0  0  0  0  0  0  0  0  0  0  0  0
  -24.8491  -18.1649    2.1763 O   0  5  0  0  0  0  0  0  0  0  0  0
  -16.1186  -13.6785    0.0223 N   0  0  0  0  0  0  0  0  0  0  0  0
  -22.4285  -17.8764    1.7836 O   0  0  0  0  0  0  0  0  0  0  0  0
  -23.4995  -20.0807    1.3162 O   0  0  0  0  0  0  0  0  0  0  0  0
  -16.7598  -14.8690    0.1804 C   0  0  1  0  0  0  0  0  0  0  0  0
  -18.0399  -14.9191   -0.5768 C   0  0  1  0  0  0  0  0  0  0  0  0
  -19.1218  -15.9505   -0.7575 C   0  0  0  0  0  0  0  0  0  0  0  0
  -19.9282  -16.0417    0.5284 C   0  0  0  0  0  0  0  0  0  0  0  0
  -20.1059  -17.4172    0.8443 O   0  0  0  0  0  0  0  0  0  0  0  0
  1 11  1  0  0  0  0
  3 13  1  1  0  0  0
  3 17  2  0  0  0  0
  3 20  1  0  0  0  0
  3 26  1  0  0  0  0
  4 14  1  1  0  0  0
  4 18  1  0  0  0  0
  4 21  2  0  0  0  0
  4 20  1  0  0  0  0
  5 19  1  0  0  0  0
  5  7  1  0  0  0  0
  6  7  2  0  0  0  0
  6 12  1  0  0  0  0
  7  8  1  0  0  0  0
  8  9  1  0  0  0  0
  8 10  2  0  0  0  0
 10 11  1  0  0  0  0
 11 12  2  0  0  0  0
 15 23  1  0  0  0  0
 15 16  1  0  0  0  0
 16 19  1  0  0  0  0
 19 22  1  0  0  0  0
 22  2  1  6  0  0  0
 22 23  1  0  0  0  0
 23 24  1  1  0  0  0
 24 25  1  0  0  0  0
 25 26  1  0  0  0  0
M  CHG  2  13  -1  18  -1
M  END
>  <CHROM.1>
-102.64593028,9.96520567,-118.31009392,37.45326415,-105.72226296,-134.02959516
176.97920005,-28.33864589,-18.63319280,-15.04170958,0.97523915,0.29505084
0.73850378,0.89409606

>  <Name>
ligand

>  <RI>
0

>  <Rbt.Current_Directory>
/home/itssahil/PROJECTS/Mol_Feturizer/New_Systems/rnas/2GDI

>  <Rbt.Executable>
rbdock ($Id: //depot/dev/client3/rdock/2013.1/src/exe/rbdock.cxx#4 $)

>  <Rbt.Library>
libRbt.so (2013.1, Build901 2013/11/27)

>  <Rbt.Parameter_File>
/export/apps/rDock/src/rDock_2013.1_src/data/scripts/dock_solv.prm

>  <Rbt.Receptor>
prm/pocket_docking_5.prm

>  <SCORE>
-13.3128

>  <SCORE.INTER>
-16.8869

>  <SCORE.INTER.CONST>
1

>  <SCORE.INTER.POLAR>
0

>  <SCORE.INTER.ROT>
8

>  <SCORE.INTER.SOLV>
19.2546

>  <SCORE.INTER.VDW>
-26.6094

>  <SCORE.INTER.norm>
-0.649494

>  <SCORE.INTRA>
3.57405

>  <SCORE.INTRA.DIHEDRAL>
4.90221

>  <SCORE.INTRA.DIHEDRAL.0>
8.13976

>  <SCORE.INTRA.POLAR>
0

>  <SCORE.INTRA.POLAR.0>
0

>  <SCORE.INTRA.REPUL>
0

>  <SCORE.INTRA.REPUL.0>
0

>  <SCORE.INTRA.SOLV>
1.21075

>  <SCORE.INTRA.SOLV.lig_0>
-82.9561

>  <SCORE.INTRA.VDW>
0.517575

>  <SCORE.INTRA.VDW.0>
-3.29171

>  <SCORE.INTRA.norm>
0.137464

>  <SCORE.RESTR>
0

>  <SCORE.RESTR.CAVITY>
0

>  <SCORE.RESTR.norm>
0

>  <SCORE.SYSTEM>
0

>  <SCORE.SYSTEM.CONST>
0

>  <SCORE.SYSTEM.DIHEDRAL>
0

>  <SCORE.SYSTEM.SOLV>
0

>  <SCORE.SYSTEM.norm>
0

>  <SCORE.heavy>
26

>  <SCORE.norm>
-0.512031

>  <RMSD>
2.924

$$$$
ligand
 OpenBabel11021811433D
libRbt.so/2013.1/901 2013/11/27
 26 27  0  0  0  0  0  0  0  0999 V2000
  -12.6604   -7.7870   -0.6388 C   0  0  0  0  0  0  0  0  0  0  0  0
  -18.2774  -11.8475    1.0899 C   0  0  0  0  0  0  0  0  0  0  0  0
  -23.0054  -14.3340    0.2147 P   0  0  1  0  0  0  0  0  0  0  0  0
  -22.7923  -15.0195    3.0331 P   0  0  1  0  0  0  0  0  0  0  0  0
  -15.3771  -12.4813    1.2628 C   0  0  0  0  0  0  0  0  0  0  0  0
  -13.4933  -11.3477    0.0153 C   0  0  0  0  0  0  0  0  0  0  0  0
  -14.6547  -11.2391    0.7697 C   0  0  0  0  0  0  0  0  0  0  0  0
  -15.1485   -9.9760    1.0520 C   0  0  0  0  0  0  0  0  0  0  0  0
  -16.2774   -9.8198    1.7851 N   0  0  0  0  0  0  0  0  0  0  0  0
  -14.4969   -8.8861    0.5913 N   0  0  0  0  0  0  0  0  0  0  0  0
  -13.3681   -9.0174   -0.1391 C   0  0  0  0  0  0  0  0  0  0  0  0
  -12.8700  -10.2454   -0.4239 N   0  0  0  0  0  0  0  0  0  0  0  0
  -23.9321  -15.3504   -0.3991 O   0  5  0  0  0  0  0  0  0  0  0  0
  -21.6665  -15.5429    3.8710 O   0  0  0  0  0  0  0  0  0  0  0  0
  -17.0078  -14.3567   -1.8374 S   0  0  0  0  0  0  0  0  0  0  0  0
  -15.7408  -13.8812   -0.7504 C   0  0  0  0  0  0  0  0  0  0  0  0
  -23.5842  -12.9915    0.5572 O   0  0  0  0  0  0  0  0  0  0  0  0
  -23.0263  -13.5826    3.3613 O   0  5  0  0  0  0  0  0  0  0  0  0
  -16.2221  -13.0424    0.2086 N   0  0  0  0  0  0  0  0  0  0  0  0
  -22.2817  -15.0166    1.4942 O   0  0  0  0  0  0  0  0  0  0  0  0
  -24.0571  -15.8340    3.0449 O   0  0  0  0  0  0  0  0  0  0  0  0
  -17.5497  -12.7513    0.1307 C   0  0  1  0  0  0  0  0  0  0  0  0
  -18.2084  -13.4463   -1.0084 C   0  0  1  0  0  0  0  0  0  0  0  0
  -19.6114  -13.4880   -1.5530 C   0  0  0  0  0  0  0  0  0  0  0  0
  -20.5876  -13.4754   -0.3872 C   0  0  0  0  0  0  0  0  0  0  0  0
  -21.8052  -14.0686   -0.8214 O   0  0  0  0  0  0  0  0  0  0  0  0
  1 11  1  0  0  0  0
  3 13  1  6  0  0  0
  3 17  2  0  0  0  0
  3 20  1  0  0  0  0
  3 26  1  0  0  0  0
  4 14  1  1  0  0  0
  4 18  1  0  0  0  0
  4 21  2  0  0  0  0
  4 20  1  0  0  0  0
  5 19  1  0  0  0  0
  5  7  1  0  0  0  0
  6  7  2  0  0  0  0
  6 12  1  0  0  0  0
  7  8  1  0  0  0  0
  8  9  1  0  0  0  0
  8 10  2  0  0  0  0
 10 11  1  0  0  0  0
 11 12  2  0  0  0  0
 15 23  1  0  0  0  0
 15 16  1  0  0  0  0
 16 19  1  0  0  0  0
 19 22  1  0  0  0  0
 22  2  1  1  0  0  0
 22 23  1  0  0  0  0
 23 24  1  6  0  0  0
 24 25  1  0  0  0  0
 25 26  1  0  0  0  0
M  CHG  2  13  -1  18  -1
M  END
>  <CHROM.1>
-90.11563810,83.86167903,-81.48340049,-169.42340907,143.34722983,-155.62210051
174.30964704,-161.42607868,-18.91598030,-12.97067137,0.59247757,0.06130156
0.48559476,1.08902458

>  <Name>
ligand

>  <RI>
0

>  <Rbt.Current_Directory>
/home/itssahil/PROJECTS/Mol_Feturizer/New_Systems/rnas/2GDI

>  <Rbt.Executable>
rbdock ($Id: //depot/dev/client3/rdock/2013.1/src/exe/rbdock.cxx#4 $)

>  <Rbt.Library>
libRbt.so (2013.1, Build901 2013/11/27)

>  <Rbt.Parameter_File>
/export/apps/rDock/src/rDock_2013.1_src/data/scripts/dock_solv.prm

>  <Rbt.Receptor>
prm/pocket_docking_2.prm

>  <SCORE>
-8.54881

>  <SCORE.INTER>
-11.87

>  <SCORE.INTER.CONST>
1

>  <SCORE.INTER.POLAR>
0

>  <SCORE.INTER.ROT>
8

>  <SCORE.INTER.SOLV>
11.627

>  <SCORE.INTER.VDW>
-20.7223

>  <SCORE.INTER.norm>
-0.45654

>  <SCORE.INTRA>
2.79236

>  <SCORE.INTRA.DIHEDRAL>
-0.0286463

>  <SCORE.INTRA.DIHEDRAL.0>
8.13976

>  <SCORE.INTRA.POLAR>
0

>  <SCORE.INTRA.POLAR.0>
0

>  <SCORE.INTRA.REPUL>
0

>  <SCORE.INTRA.REPUL.0>
0

>  <SCORE.INTRA.SOLV>
4.44887

>  <SCORE.INTRA.SOLV.lig_0>
-82.9561

>  <SCORE.INTRA.VDW>
0.582244

>  <SCORE.INTRA.VDW.0>
-3.29171

>  <SCORE.INTRA.norm>
0.107398

>  <SCORE.RESTR>
0.528868

>  <SCORE.RESTR.CAVITY>
0.528868

>  <SCORE.RESTR.norm>
0.0203411

>  <SCORE.SYSTEM>
0

>  <SCORE.SYSTEM.CONST>
0

>  <SCORE.SYSTEM.DIHEDRAL>
0

>  <SCORE.SYSTEM.SOLV>
0

>  <SCORE.SYSTEM.norm>
0

>  <SCORE.heavy>
26

>  <SCORE.norm>
-0.3288

>  <RMSD>
2.927

$$$$
ligand
 OpenBabel11021811433D
libRbt.so/2013.1/901 2013/11/27
 26 27  0  0  0  0  0  0  0  0999 V2000
  -14.0551   -9.0685    0.4074 C   0  0  0  0  0  0  0  0  0  0  0  0
  -21.6523  -12.6470   -1.2720 C   0  0  0  0  0  0  0  0  0  0  0  0
  -23.3213  -16.2166    0.8912 P   0  0  1  0  0  0  0  0  0  0  0  0
  -20.9659  -16.8787    2.4635 P   0  0  1  0  0  0  0  0  0  0  0  0
  -18.7531  -12.1250   -0.8658 C   0  0  0  0  0  0  0  0  0  0  0  0
  -17.5095   -9.9347   -0.6496 C   0  0  0  0  0  0  0  0  0  0  0  0
  -17.5071  -11.3195   -0.5386 C   0  0  0  0  0  0  0  0  0  0  0  0
  -16.3503  -11.9502   -0.1109 C   0  0  0  0  0  0  0  0  0  0  0  0
  -16.2996  -13.2989    0.0116 N   0  0  0  0  0  0  0  0  0  0  0  0
  -15.2589  -11.2125    0.1877 N   0  0  0  0  0  0  0  0  0  0  0  0
  -15.2852   -9.8669    0.0702 C   0  0  0  0  0  0  0  0  0  0  0  0
  -16.4081   -9.2331   -0.3479 N   0  0  0  0  0  0  0  0  0  0  0  0
  -22.7598  -16.2453   -0.5061 O   0  5  0  0  0  0  0  0  0  0  0  0
  -21.1639  -15.8215    3.5059 O   0  0  0  0  0  0  0  0  0  0  0  0
  -20.6924  -11.8540    2.5914 S   0  0  0  0  0  0  0  0  0  0  0  0
  -19.3217  -11.8167    1.5272 C   0  0  0  0  0  0  0  0  0  0  0  0
  -24.7874  -16.4993    1.0510 O   0  0  0  0  0  0  0  0  0  0  0  0
  -20.5562  -18.1531    3.1233 O   0  5  0  0  0  0  0  0  0  0  0  0
  -19.7011  -12.0886    0.2478 N   0  0  0  0  0  0  0  0  0  0  0  0
  -22.4200  -17.1932    1.8190 O   0  0  0  0  0  0  0  0  0  0  0  0
  -20.0761  -16.5075    1.3086 O   0  0  0  0  0  0  0  0  0  0  0  0
  -21.0281  -12.3279    0.0603 C   0  0  1  0  0  0  0  0  0  0  0  0
  -21.7999  -12.2206    1.3281 C   0  0  1  0  0  0  0  0  0  0  0  0
  -23.2500  -12.3815    1.7000 C   0  0  0  0  0  0  0  0  0  0  0  0
  -23.7933  -13.6268    1.0172 C   0  0  0  0  0  0  0  0  0  0  0  0
  -23.0651  -14.7501    1.4980 O   0  0  0  0  0  0  0  0  0  0  0  0
  1 11  1  0  0  0  0
  3 13  1  6  0  0  0
  3 17  2  0  0  0  0
  3 20  1  0  0  0  0
  3 26  1  0  0  0  0
  4 14  1  1  0  0  0
  4 18  1  0  0  0  0
  4 21  2  0  0  0  0
  4 20  1  0  0  0  0
  5 19  1  0  0  0  0
  5  7  1  0  0  0  0
  6  7  2  0  0  0  0
  6 12  1  0  0  0  0
  7  8  1  0  0  0  0
  8  9  1  0  0  0  0
  8 10  2  0  0  0  0
 10 11  1  0  0  0  0
 11 12  2  0  0  0  0
 15 23  1  0  0  0  0
 15 16  1  0  0  0  0
 16 19  1  0  0  0  0
 19 22  1  0  0  0  0
 22  2  1  6  0  0  0
 22 23  1  0  0  0  0
 23 24  1  1  0  0  0
 24 25  1  0  0  0  0
 25 26  1  0  0  0  0
M  CHG  2  13  -1  18  -1
M  END
>  <CHROM.1>
78.34272974,-22.42402975,-79.55796109,68.29201916,-134.27791216,61.80185825
-175.46588637,71.07326851,-20.24332887,-13.64050963,0.98120785,-0.75430535
0.05121229,2.81809033

>  <Name>
ligand

>  <RI>
0

>  <Rbt.Current_Directory>
/home/itssahil/PROJECTS/Mol_Feturizer/New_Systems/rnas/2GDI

>  <Rbt.Executable>
rbdock ($Id: //depot/dev/client3/rdock/2013.1/src/exe/rbdock.cxx#4 $)

>  <Rbt.Library>
libRbt.so (2013.1, Build901 2013/11/27)

>  <Rbt.Parameter_File>
/export/apps/rDock/src/rDock_2013.1_src/data/scripts/dock_solv.prm

>  <Rbt.Receptor>
prm/pocket_docking_3.prm

>  <SCORE>
-12.7368

>  <SCORE.INTER>
-11.1558

>  <SCORE.INTER.CONST>
1

>  <SCORE.INTER.POLAR>
0

>  <SCORE.INTER.ROT>
8

>  <SCORE.INTER.SOLV>
10.4602

>  <SCORE.INTER.VDW>
-19.8573

>  <SCORE.INTER.norm>
-0.429068

>  <SCORE.INTRA>
-1.58101

>  <SCORE.INTRA.DIHEDRAL>
-2.39019

>  <SCORE.INTRA.DIHEDRAL.0>
8.13976

>  <SCORE.INTRA.POLAR>
0

>  <SCORE.INTRA.POLAR.0>
0

>  <SCORE.INTRA.REPUL>
0

>  <SCORE.INTRA.REPUL.0>
0

>  <SCORE.INTRA.SOLV>
0.628437

>  <SCORE.INTRA.SOLV.lig_0>
-82.9561

>  <SCORE.INTRA.VDW>
-0.700129

>  <SCORE.INTRA.VDW.0>
-3.29171

>  <SCORE.INTRA.norm>
-0.060808

>  <SCORE.RESTR>
0

>  <SCORE.RESTR.CAVITY>
0

>  <SCORE.RESTR.norm>
0

>  <SCORE.SYSTEM>
0

>  <SCORE.SYSTEM.CONST>
0

>  <SCORE.SYSTEM.DIHEDRAL>
0

>  <SCORE.SYSTEM.SOLV>
0

>  <SCORE.SYSTEM.norm>
0

>  <SCORE.heavy>
26

>  <SCORE.norm>
-0.489876

>  <RMSD>
3.028

$$$$
ligand
 OpenBabel11021811433D
libRbt.so/2013.1/901 2013/11/27
 26 27  0  0  0  0  0  0  0  0999 V2000
  -12.2206   -7.9161   -0.6987 C   0  0  0  0  0  0  0  0  0  0  0  0
  -17.8916  -13.8752    0.2276 C   0  0  0  0  0  0  0  0  0  0  0  0
  -24.3863  -13.2967    0.0150 P   0  0  1  0  0  0  0  0  0  0  0  0
  -24.6763  -11.3341    2.1418 P   0  0  1  0  0  0  0  0  0  0  0  0
  -16.1787  -11.6374    1.1772 C   0  0  0  0  0  0  0  0  0  0  0  0
  -15.2702   -9.2930    0.9150 C   0  0  0  0  0  0  0  0  0  0  0  0
  -15.1366  -10.6541    0.6716 C   0  0  0  0  0  0  0  0  0  0  0  0
  -14.0276  -11.0985   -0.0294 C   0  0  0  0  0  0  0  0  0  0  0  0
  -13.8546  -12.4167   -0.2920 N   0  0  0  0  0  0  0  0  0  0  0  0
  -13.1069  -10.2074   -0.4572 N   0  0  0  0  0  0  0  0  0  0  0  0
  -13.2599   -8.8882   -0.2096 C   0  0  0  0  0  0  0  0  0  0  0  0
  -14.3393   -8.4355    0.4739 N   0  0  0  0  0  0  0  0  0  0  0  0
  -24.0799  -14.2041    1.1773 O   0  5  0  0  0  0  0  0  0  0  0  0
  -23.2279  -11.1302    2.4646 O   0  0  0  0  0  0  0  0  0  0  0  0
  -19.5210  -10.2169   -0.4349 S   0  0  0  0  0  0  0  0  0  0  0  0
  -17.9713  -10.1419    0.3437 C   0  0  0  0  0  0  0  0  0  0  0  0
  -25.4076  -13.7701   -0.9788 O   0  0  0  0  0  0  0  0  0  0  0  0
  -25.3763  -10.0162    2.1556 O   0  5  0  0  0  0  0  0  0  0  0  0
  -17.4731  -11.3940    0.5403 N   0  0  0  0  0  0  0  0  0  0  0  0
  -24.7572  -11.8317    0.6008 O   0  0  0  0  0  0  0  0  0  0  0  0
  -25.3907  -12.3826    2.9502 O   0  0  0  0  0  0  0  0  0  0  0  0
  -18.2562  -12.4196    0.1062 C   0  0  1  0  0  0  0  0  0  0  0  0
  -19.5149  -11.9343   -0.5220 C   0  0  1  0  0  0  0  0  0  0  0  0
  -20.7084  -12.6025   -1.1515 C   0  0  0  0  0  0  0  0  0  0  0  0
  -21.8378  -12.6425   -0.1341 C   0  0  0  0  0  0  0  0  0  0  0  0
  -23.0221  -13.0603   -0.8019 O   0  0  0  0  0  0  0  0  0  0  0  0
  1 11  1  0  0  0  0
  3 13  1  1  0  0  0
  3 17  2  0  0  0  0
  3 20  1  0  0  0  0
  3 26  1  0  0  0  0
  4 14  1  1  0  0  0
  4 18  1  0  0  0  0
  4 21  2  0  0  0  0
  4 20  1  0  0  0  0
  5 19  1  0  0  0  0
  5  7  1  0  0  0  0
  6  7  2  0  0  0  0
  6 12  1  0  0  0  0
  7  8  1  0  0  0  0
  8  9  1  0  0  0  0
  8 10  2  0  0  0  0
 10 11  1  0  0  0  0
 11 12  2  0  0  0  0
 15 23  1  0  0  0  0
 15 16  1  0  0  0  0
 16 19  1  0  0  0  0
 19 22  1  0  0  0  0
 22  2  1  6  0  0  0
 22 23  1  0  0  0  0
 23 24  1  1  0  0  0
 24 25  1  0  0  0  0
 25 26  1  0  0  0  0
M  CHG  2  13  -1  18  -1
M  END
>  <CHROM.1>
6.00311592,-42.19589887,64.01297091,74.68827056,-79.14922592,170.12534148
176.09383812,-51.20735600,-19.95844686,-11.49129619,0.44080652,0.15284562
0.19202467,0.48161386

>  <Name>
ligand

>  <RI>
0

>  <Rbt.Current_Directory>
/home/itssahil/PROJECTS/Mol_Feturizer/New_Systems/rnas/2GDI

>  <Rbt.Executable>
rbdock ($Id: //depot/dev/client3/rdock/2013.1/src/exe/rbdock.cxx#4 $)

>  <Rbt.Library>
libRbt.so (2013.1, Build901 2013/11/27)

>  <Rbt.Parameter_File>
/export/apps/rDock/src/rDock_2013.1_src/data/scripts/dock_solv.prm

>  <Rbt.Receptor>
prm/pocket_docking_7.prm

>  <SCORE>
-20.0093

>  <SCORE.INTER>
-20.5181

>  <SCORE.INTER.CONST>
1

>  <SCORE.INTER.POLAR>
0

>  <SCORE.INTER.ROT>
8

>  <SCORE.INTER.SOLV>
22.3197

>  <SCORE.INTER.VDW>
-30.052

>  <SCORE.INTER.norm>
-0.789158

>  <SCORE.INTRA>
0.508799

>  <SCORE.INTRA.DIHEDRAL>
-0.289436

>  <SCORE.INTRA.DIHEDRAL.0>
8.13976

>  <SCORE.INTRA.POLAR>
0

>  <SCORE.INTRA.POLAR.0>
0

>  <SCORE.INTRA.REPUL>
0

>  <SCORE.INTRA.REPUL.0>
0

>  <SCORE.INTRA.SOLV>
0.94982

>  <SCORE.INTRA.SOLV.lig_0>
-82.9561

>  <SCORE.INTRA.VDW>
0.178607

>  <SCORE.INTRA.VDW.0>
-3.29171

>  <SCORE.INTRA.norm>
0.0195692

>  <SCORE.RESTR>
0

>  <SCORE.RESTR.CAVITY>
0

>  <SCORE.RESTR.norm>
0

>  <SCORE.SYSTEM>
0

>  <SCORE.SYSTEM.CONST>
0

>  <SCORE.SYSTEM.DIHEDRAL>
0

>  <SCORE.SYSTEM.SOLV>
0

>  <SCORE.SYSTEM.norm>
0

>  <SCORE.heavy>
26

>  <SCORE.norm>
-0.769589

>  <RMSD>
3.043

$$$$
ligand
 OpenBabel11021811433D
libRbt.so/2013.1/901 2013/11/27
 26 27  0  0  0  0  0  0  0  0999 V2000
  -13.0262   -9.8224   -0.2154 C   0  0  0  0  0  0  0  0  0  0  0  0
  -20.5411  -11.9199    2.0587 C   0  0  0  0  0  0  0  0  0  0  0  0
  -24.4128  -15.5823    0.5976 P   0  0  1  0  0  0  0  0  0  0  0  0
  -21.8969  -16.6880    1.5498 P   0  0  1  0  0  0  0  0  0  0  0  0
  -17.6627  -12.5973    1.7432 C   0  0  0  0  0  0  0  0  0  0  0  0
  -15.5463  -12.4893    0.3650 C   0  0  0  0  0  0  0  0  0  0  0  0
  -16.4321  -11.8657    1.2346 C   0  0  0  0  0  0  0  0  0  0  0  0
  -16.1784  -10.5590    1.6181 C   0  0  0  0  0  0  0  0  0  0  0  0
  -17.0132   -9.9096    2.4654 N   0  0  0  0  0  0  0  0  0  0  0  0
  -15.0854   -9.9237    1.1423 N   0  0  0  0  0  0  0  0  0  0  0  0
  -14.2376  -10.5520    0.2988 C   0  0  0  0  0  0  0  0  0  0  0  0
  -14.4697  -11.8308   -0.0862 N   0  0  0  0  0  0  0  0  0  0  0  0
  -24.7327  -16.7879   -0.2466 O   0  5  0  0  0  0  0  0  0  0  0  0
  -21.0161  -15.6239    0.9707 O   0  0  0  0  0  0  0  0  0  0  0  0
  -19.6451  -13.4481   -1.5935 S   0  0  0  0  0  0  0  0  0  0  0  0
  -18.2650  -13.3285   -0.5475 C   0  0  0  0  0  0  0  0  0  0  0  0
  -25.5695  -14.8148    1.1700 O   0  0  0  0  0  0  0  0  0  0  0  0
  -21.4329  -17.0171    2.9295 O   0  5  0  0  0  0  0  0  0  0  0  0
  -18.6230  -12.8114    0.6605 N   0  0  0  0  0  0  0  0  0  0  0  0
  -23.3672  -16.0348    1.7504 O   0  0  0  0  0  0  0  0  0  0  0  0
  -22.1029  -17.9099    0.6966 O   0  0  0  0  0  0  0  0  0  0  0  0
  -19.9404  -12.5007    0.8063 C   0  0  1  0  0  0  0  0  0  0  0  0
  -20.7282  -12.8186   -0.4154 C   0  0  1  0  0  0  0  0  0  0  0  0
  -22.1767  -12.6854   -0.8040 C   0  0  0  0  0  0  0  0  0  0  0  0
  -23.0302  -13.3650    0.2554 C   0  0  0  0  0  0  0  0  0  0  0  0
  -23.5773  -14.5505   -0.3088 O   0  0  0  0  0  0  0  0  0  0  0  0
  1 11  1  0  0  0  0
  3 13  1  6  0  0  0
  3 17  2  0  0  0  0
  3 20  1  0  0  0  0
  3 26  1  0  0  0  0
  4 14  1  6  0  0  0
  4 18  1  0  0  0  0
  4 21  2  0  0  0  0
  4 20  1  0  0  0  0
  5 19  1  0  0  0  0
  5  7  1  0  0  0  0
  6  7  2  0  0  0  0
  6 12  1  0  0  0  0
  7  8  1  0  0  0  0
  8  9  1  0  0  0  0
  8 10  2  0  0  0  0
 10 11  1  0  0  0  0
 11 12  2  0  0  0  0
 15 23  1  0  0  0  0
 15 16  1  0  0  0  0
 16 19  1  0  0  0  0
 19 22  1  0  0  0  0
 22  2  1  1  0  0  0
 22 23  1  0  0  0  0
 23 24  1  6  0  0  0
 24 25  1  0  0  0  0
 25 26  1  0  0  0  0
M  CHG  2  13  -1  18  -1
M  END
>  <CHROM.1>
58.86304510,48.84349828,-68.78216161,68.81610994,128.15674175,-109.38022071
173.82856495,-174.36720547,-20.10681928,-13.71568545,0.64604425,-0.51042827
0.20971695,2.75186031

>  <Name>
ligand

>  <RI>
0

>  <Rbt.Current_Directory>
/home/itssahil/PROJECTS/Mol_Feturizer/New_Systems/rnas/2GDI

>  <Rbt.Executable>
rbdock ($Id: //depot/dev/client3/rdock/2013.1/src/exe/rbdock.cxx#4 $)

>  <Rbt.Library>
libRbt.so (2013.1, Build901 2013/11/27)

>  <Rbt.Parameter_File>
/export/apps/rDock/src/rDock_2013.1_src/data/scripts/dock_solv.prm

>  <Rbt.Receptor>
prm/pocket_docking_2.prm

>  <SCORE>
-4.82725

>  <SCORE.INTER>
-4.67104

>  <SCORE.INTER.CONST>
1

>  <SCORE.INTER.POLAR>
0

>  <SCORE.INTER.ROT>
8

>  <SCORE.INTER.SOLV>
17.3115

>  <SCORE.INTER.VDW>
-17.8179

>  <SCORE.INTER.norm>
-0.179655

>  <SCORE.INTRA>
-0.157544

>  <SCORE.INTRA.DIHEDRAL>
1.83746

>  <SCORE.INTRA.DIHEDRAL.0>
8.13976

>  <SCORE.INTRA.POLAR>
0

>  <SCORE.INTRA.POLAR.0>
0

>  <SCORE.INTRA.REPUL>
0

>  <SCORE.INTRA.REPUL.0>
0

>  <SCORE.INTRA.SOLV>
0.352035

>  <SCORE.INTRA.SOLV.lig_0>
-82.9561

>  <SCORE.INTRA.VDW>
-1.25229

>  <SCORE.INTRA.VDW.0>
-3.29171

>  <SCORE.INTRA.norm>
-0.00605938

>  <SCORE.RESTR>
0.0013284

>  <SCORE.RESTR.CAVITY>
0.0013284

>  <SCORE.RESTR.norm>
5.10922e-05

>  <SCORE.SYSTEM>
0

>  <SCORE.SYSTEM.CONST>
0

>  <SCORE.SYSTEM.DIHEDRAL>
0

>  <SCORE.SYSTEM.SOLV>
0

>  <SCORE.SYSTEM.norm>
0

>  <SCORE.heavy>
26

>  <SCORE.norm>
-0.185664

>  <RMSD>
3.066

$$$$
ligand
 OpenBabel11021811433D
libRbt.so/2013.1/901 2013/11/27
 26 27  0  0  0  0  0  0  0  0999 V2000
  -12.6015   -7.9378   -0.4781 C   0  0  0  0  0  0  0  0  0  0  0  0
  -18.6042  -11.8817    2.0747 C   0  0  0  0  0  0  0  0  0  0  0  0
  -21.0522  -16.5757   -0.0612 P   0  0  1  0  0  0  0  0  0  0  0  0
  -20.7771  -18.0268    2.4443 P   0  0  1  0  0  0  0  0  0  0  0  0
  -15.7696  -12.3806    1.3268 C   0  0  0  0  0  0  0  0  0  0  0  0
  -13.6353  -11.3975    0.3949 C   0  0  0  0  0  0  0  0  0  0  0  0
  -14.9300  -11.2037    0.8597 C   0  0  0  0  0  0  0  0  0  0  0  0
  -15.4451   -9.9179    0.8762 C   0  0  0  0  0  0  0  0  0  0  0  0
  -16.7024   -9.6794    1.3219 N   0  0  0  0  0  0  0  0  0  0  0  0
  -14.6851   -8.8886    0.4431 N   0  0  0  0  0  0  0  0  0  0  0  0
  -13.4279   -9.1021   -0.0029 C   0  0  0  0  0  0  0  0  0  0  0  0
  -12.9073  -10.3534   -0.0250 N   0  0  0  0  0  0  0  0  0  0  0  0
  -20.2733  -17.5558   -0.8985 O   0  5  0  0  0  0  0  0  0  0  0  0
  -20.3468  -19.2318    1.6655 O   0  0  0  0  0  0  0  0  0  0  0  0
  -18.1700  -13.3094   -1.7002 S   0  0  0  0  0  0  0  0  0  0  0  0
  -16.6599  -13.1194   -0.8655 C   0  0  0  0  0  0  0  0  0  0  0  0
  -22.5485  -16.5990   -0.1857 O   0  0  0  0  0  0  0  0  0  0  0  0
  -19.8309  -17.8065    3.5771 O   0  5  0  0  0  0  0  0  0  0  0  0
  -16.8650  -12.6393    0.3923 N   0  0  0  0  0  0  0  0  0  0  0  0
  -20.5785  -16.7384    1.4803 O   0  0  0  0  0  0  0  0  0  0  0  0
  -22.2185  -17.9999    2.8745 O   0  0  0  0  0  0  0  0  0  0  0  0
  -18.1623  -12.4103    0.7361 C   0  0  1  0  0  0  0  0  0  0  0  0
  -19.1020  -12.7604   -0.3633 C   0  0  1  0  0  0  0  0  0  0  0  0
  -20.5972  -12.7101   -0.5325 C   0  0  0  0  0  0  0  0  0  0  0  0
  -21.2023  -13.9500    0.1069 C   0  0  0  0  0  0  0  0  0  0  0  0
  -20.5784  -15.0934   -0.4644 O   0  0  0  0  0  0  0  0  0  0  0  0
  1 11  1  0  0  0  0
  3 13  1  6  0  0  0
  3 17  2  0  0  0  0
  3 20  1  0  0  0  0
  3 26  1  0  0  0  0
  4 14  1  6  0  0  0
  4 18  1  0  0  0  0
  4 21  2  0  0  0  0
  4 20  1  0  0  0  0
  5 19  1  0  0  0  0
  5  7  1  0  0  0  0
  6  7  2  0  0  0  0
  6 12  1  0  0  0  0
  7  8  1  0  0  0  0
  8  9  1  0  0  0  0
  8 10  2  0  0  0  0
 10 11  1  0  0  0  0
 11 12  2  0  0  0  0
 15 23  1  0  0  0  0
 15 16  1  0  0  0  0
 16 19  1  0  0  0  0
 19 22  1  0  0  0  0
 22  2  1  1  0  0  0
 22 23  1  0  0  0  0
 23 24  1  6  0  0  0
 24 25  1  0  0  0  0
 25 26  1  0  0  0  0
M  CHG  2  13  -1  18  -1
M  END
>  <CHROM.1>
-65.40517900,68.75735129,-110.27925415,47.73578888,99.19477592,-54.90451725
-176.56462423,176.12329629,-18.38811471,-13.92047470,0.56003152,-0.65189260
0.59562584,2.36492157

>  <Name>
ligand

>  <RI>
0

>  <Rbt.Current_Directory>
/home/itssahil/PROJECTS/Mol_Feturizer/New_Systems/rnas/2GDI

>  <Rbt.Executable>
rbdock ($Id: //depot/dev/client3/rdock/2013.1/src/exe/rbdock.cxx#4 $)

>  <Rbt.Library>
libRbt.so (2013.1, Build901 2013/11/27)

>  <Rbt.Parameter_File>
/export/apps/rDock/src/rDock_2013.1_src/data/scripts/dock_solv.prm

>  <Rbt.Receptor>
prm/pocket_docking_4.prm

>  <SCORE>
-15.4718

>  <SCORE.INTER>
-15.0321

>  <SCORE.INTER.CONST>
1

>  <SCORE.INTER.POLAR>
0

>  <SCORE.INTER.ROT>
8

>  <SCORE.INTER.SOLV>
12.7918

>  <SCORE.INTER.VDW>
-23.2186

>  <SCORE.INTER.norm>
-0.578156

>  <SCORE.INTRA>
-0.439698

>  <SCORE.INTRA.DIHEDRAL>
-2.70638

>  <SCORE.INTRA.DIHEDRAL.0>
8.13976

>  <SCORE.INTRA.POLAR>
0

>  <SCORE.INTRA.POLAR.0>
0

>  <SCORE.INTRA.REPUL>
0

>  <SCORE.INTRA.REPUL.0>
0

>  <SCORE.INTRA.SOLV>
3.02353

>  <SCORE.INTRA.SOLV.lig_0>
-82.9561

>  <SCORE.INTRA.VDW>
-0.59827

>  <SCORE.INTRA.VDW.0>
-3.29171

>  <SCORE.INTRA.norm>
-0.0169115

>  <SCORE.RESTR>
0

>  <SCORE.RESTR.CAVITY>
0

>  <SCORE.RESTR.norm>
0

>  <SCORE.SYSTEM>
0

>  <SCORE.SYSTEM.CONST>
0

>  <SCORE.SYSTEM.DIHEDRAL>
0

>  <SCORE.SYSTEM.SOLV>
0

>  <SCORE.SYSTEM.norm>
0

>  <SCORE.heavy>
26

>  <SCORE.norm>
-0.595068

>  <RMSD>
3.081

$$$$
ligand
 OpenBabel11021811433D
libRbt.so/2013.1/901 2013/11/27
 26 27  0  0  0  0  0  0  0  0999 V2000
  -12.3538   -7.6351   -0.6468 C   0  0  0  0  0  0  0  0  0  0  0  0
  -18.2512  -10.2642    1.3437 C   0  0  0  0  0  0  0  0  0  0  0  0
  -23.8193  -13.2334   -1.2120 P   0  0  1  0  0  0  0  0  0  0  0  0
  -22.5354  -15.2332   -2.8886 P   0  0  1  0  0  0  0  0  0  0  0  0
  -15.7428  -11.8600    1.2763 C   0  0  0  0  0  0  0  0  0  0  0  0
  -15.1763   -9.4134    0.9877 C   0  0  0  0  0  0  0  0  0  0  0  0
  -14.8511  -10.7443    0.7583 C   0  0  0  0  0  0  0  0  0  0  0  0
  -13.6906  -11.0343    0.0596 C   0  0  0  0  0  0  0  0  0  0  0  0
  -13.3325  -12.3173   -0.1895 N   0  0  0  0  0  0  0  0  0  0  0  0
  -12.9060  -10.0263   -0.3794 N   0  0  0  0  0  0  0  0  0  0  0  0
  -13.2444   -8.7395   -0.1453 C   0  0  0  0  0  0  0  0  0  0  0  0
  -14.3768   -8.4373    0.5357 N   0  0  0  0  0  0  0  0  0  0  0  0
  -24.8324  -12.8849   -2.2706 O   0  5  0  0  0  0  0  0  0  0  0  0
  -21.3391  -14.3618   -3.1185 O   0  0  0  0  0  0  0  0  0  0  0  0
  -18.2530  -13.1326   -1.5285 S   0  0  0  0  0  0  0  0  0  0  0  0
  -16.7865  -13.0983   -0.6005 C   0  0  0  0  0  0  0  0  0  0  0  0
  -24.2452  -13.0970    0.2214 O   0  0  0  0  0  0  0  0  0  0  0  0
  -22.0837  -16.6220   -2.5814 O   0  5  0  0  0  0  0  0  0  0  0  0
  -16.8412  -12.1202    0.3456 N   0  0  0  0  0  0  0  0  0  0  0  0
  -23.2483  -14.7172   -1.5269 O   0  0  0  0  0  0  0  0  0  0  0  0
  -23.5987  -15.1874   -3.9520 O   0  0  0  0  0  0  0  0  0  0  0  0
  -17.9889  -11.3887    0.3776 C   0  0  1  0  0  0  0  0  0  0  0  0
  -18.9688  -11.8413   -0.6468 C   0  0  1  0  0  0  0  0  0  0  0  0
  -20.3531  -11.4077   -1.0502 C   0  0  0  0  0  0  0  0  0  0  0  0
  -21.3306  -12.5232   -0.7149 C   0  0  0  0  0  0  0  0  0  0  0  0
  -22.5463  -12.2716   -1.4089 O   0  0  0  0  0  0  0  0  0  0  0  0
  1 11  1  0  0  0  0
  3 13  1  6  0  0  0
  3 17  2  0  0  0  0
  3 20  1  0  0  0  0
  3 26  1  0  0  0  0
  4 14  1  6  0  0  0
  4 18  1  0  0  0  0
  4 21  2  0  0  0  0
  4 20  1  0  0  0  0
  5 19  1  0  0  0  0
  5  7  1  0  0  0  0
  6  7  2  0  0  0  0
  6 12  1  0  0  0  0
  7  8  1  0  0  0  0
  8  9  1  0  0  0  0
  8 10  2  0  0  0  0
 10 11  1  0  0  0  0
 11 12  2  0  0  0  0
 15 23  1  0  0  0  0
 15 16  1  0  0  0  0
 16 19  1  0  0  0  0
 19 22  1  0  0  0  0
 22  2  1  1  0  0  0
 22 23  1  0  0  0  0
 23 24  1  6  0  0  0
 24 25  1  0  0  0  0
 25 26  1  0  0  0  0
M  CHG  2  13  -1  18  -1
M  END
>  <CHROM.1>
56.91236642,95.52251574,84.22059011,58.02091402,67.74409826,-164.57274733
-176.99024721,-168.54083888,-19.15402204,-12.37747669,-0.93891734,0.48417330
0.02923617,0.54732650

>  <Name>
ligand

>  <RI>
0

>  <Rbt.Current_Directory>
/home/itssahil/PROJECTS/Mol_Feturizer/New_Systems/rnas/2GDI

>  <Rbt.Executable>
rbdock ($Id: //depot/dev/client3/rdock/2013.1/src/exe/rbdock.cxx#4 $)

>  <Rbt.Library>
libRbt.so (2013.1, Build901 2013/11/27)

>  <Rbt.Parameter_File>
/export/apps/rDock/src/rDock_2013.1_src/data/scripts/dock_solv.prm

>  <Rbt.Receptor>
prm/pocket_docking_4.prm

>  <SCORE>
-18.3156

>  <SCORE.INTER>
-16.9646

>  <SCORE.INTER.CONST>
1

>  <SCORE.INTER.POLAR>
0

>  <SCORE.INTER.ROT>
8

>  <SCORE.INTER.SOLV>
17.4025

>  <SCORE.INTER.VDW>
-26.0439

>  <SCORE.INTER.norm>
-0.652483

>  <SCORE.INTRA>
-1.35103

>  <SCORE.INTRA.DIHEDRAL>
-1.86845

>  <SCORE.INTRA.DIHEDRAL.0>
8.13976

>  <SCORE.INTRA.POLAR>
0

>  <SCORE.INTRA.POLAR.0>
0

>  <SCORE.INTRA.REPUL>
0

>  <SCORE.INTRA.REPUL.0>
0

>  <SCORE.INTRA.SOLV>
0.223986

>  <SCORE.INTRA.SOLV.lig_0>
-82.9561

>  <SCORE.INTRA.VDW>
-0.528797

>  <SCORE.INTRA.VDW.0>
-3.29171

>  <SCORE.INTRA.norm>
-0.0519626

>  <SCORE.RESTR>
0

>  <SCORE.RESTR.CAVITY>
0

>  <SCORE.RESTR.norm>
0

>  <SCORE.SYSTEM>
0

>  <SCORE.SYSTEM.CONST>
0

>  <SCORE.SYSTEM.DIHEDRAL>
0

>  <SCORE.SYSTEM.SOLV>
0

>  <SCORE.SYSTEM.norm>
0

>  <SCORE.heavy>
26

>  <SCORE.norm>
-0.704446

>  <RMSD>
3.082

$$$$
ligand
 OpenBabel11021811433D
libRbt.so/2013.1/901 2013/11/27
 26 27  0  0  0  0  0  0  0  0999 V2000
  -12.5877   -8.1276   -0.3803 C   0  0  0  0  0  0  0  0  0  0  0  0
  -17.4028  -12.4266   -1.2349 C   0  0  0  0  0  0  0  0  0  0  0  0
  -23.6076  -13.6730   -2.0110 P   0  0  1  0  0  0  0  0  0  0  0  0
  -21.6179  -15.4479   -3.1727 P   0  0  1  0  0  0  0  0  0  0  0  0
  -16.0572  -12.3430    1.4157 C   0  0  0  0  0  0  0  0  0  0  0  0
  -15.4918   -9.8977    1.1140 C   0  0  0  0  0  0  0  0  0  0  0  0
  -15.1436  -11.2301    0.9311 C   0  0  0  0  0  0  0  0  0  0  0  0
  -13.9406  -11.5237    0.3102 C   0  0  0  0  0  0  0  0  0  0  0  0
  -13.5588  -12.8082    0.1087 N   0  0  0  0  0  0  0  0  0  0  0  0
  -13.1379  -10.5177   -0.1000 N   0  0  0  0  0  0  0  0  0  0  0  0
  -13.4992   -9.2295    0.0877 C   0  0  0  0  0  0  0  0  0  0  0  0
  -14.6732   -8.9238    0.6924 N   0  0  0  0  0  0  0  0  0  0  0  0
  -24.3461  -13.4075   -3.2965 O   0  5  0  0  0  0  0  0  0  0  0  0
  -21.7964  -14.5980   -4.3930 O   0  0  0  0  0  0  0  0  0  0  0  0
  -19.8435  -11.1895    1.7633 S   0  0  0  0  0  0  0  0  0  0  0  0
  -18.2351  -11.5580    2.3021 C   0  0  0  0  0  0  0  0  0  0  0  0
  -24.3973  -13.6052   -0.7356 O   0  0  0  0  0  0  0  0  0  0  0  0
  -20.3789  -15.0280   -2.4546 O   0  5  0  0  0  0  0  0  0  0  0  0
  -17.4620  -11.9663    1.2578 N   0  0  0  0  0  0  0  0  0  0  0  0
  -22.8293  -15.0871   -2.1572 O   0  0  0  0  0  0  0  0  0  0  0  0
  -21.6916  -16.9350   -3.3883 O   0  0  0  0  0  0  0  0  0  0  0  0
  -18.0767  -12.0051    0.0437 C   0  0  1  0  0  0  0  0  0  0  0  0
  -19.4958  -11.5642    0.1214 C   0  0  1  0  0  0  0  0  0  0  0  0
  -20.6129  -11.4149   -0.8770 C   0  0  0  0  0  0  0  0  0  0  0  0
  -21.4865  -12.6583   -0.8207 C   0  0  0  0  0  0  0  0  0  0  0  0
  -22.4296  -12.5865   -1.8830 O   0  0  0  0  0  0  0  0  0  0  0  0
  1 11  1  0  0  0  0
  3 13  1  6  0  0  0
  3 17  2  0  0  0  0
  3 20  1  0  0  0  0
  3 26  1  0  0  0  0
  4 14  1  6  0  0  0
  4 18  1  0  0  0  0
  4 21  2  0  0  0  0
  4 20  1  0  0  0  0
  5 19  1  0  0  0  0
  5  7  1  0  0  0  0
  6  7  2  0  0  0  0
  6 12  1  0  0  0  0
  7  8  1  0  0  0  0
  8  9  1  0  0  0  0
  8 10  2  0  0  0  0
 10 11  1  0  0  0  0
 11 12  2  0  0  0  0
 15 23  1  0  0  0  0
 15 16  1  0  0  0  0
 16 19  1  0  0  0  0
 19 22  1  0  0  0  0
 22  2  1  6  0  0  0
 22 23  1  0  0  0  0
 23 24  1  1  0  0  0
 24 25  1  0  0  0  0
 25 26  1  0  0  0  0
M  CHG  2  13  -1  18  -1
M  END
>  <CHROM.1>
64.92020282,-102.85071981,35.59704289,-29.61772177,-81.69937162,-172.47183920
-173.38288564,-174.56659814,-19.17803182,-12.53945940,-0.80997246,-0.54410159
-0.08967519,-2.34426877

>  <Name>
ligand

>  <RI>
0

>  <Rbt.Current_Directory>
/home/itssahil/PROJECTS/Mol_Feturizer/New_Systems/rnas/2GDI

>  <Rbt.Executable>
rbdock ($Id: //depot/dev/client3/rdock/2013.1/src/exe/rbdock.cxx#4 $)

>  <Rbt.Library>
libRbt.so (2013.1, Build901 2013/11/27)

>  <Rbt.Parameter_File>
/export/apps/rDock/src/rDock_2013.1_src/data/scripts/dock_solv.prm

>  <Rbt.Receptor>
prm/pocket_docking_5.prm

>  <SCORE>
-19.4857

>  <SCORE.INTER>
-18.5581

>  <SCORE.INTER.CONST>
1

>  <SCORE.INTER.POLAR>
0

>  <SCORE.INTER.ROT>
8

>  <SCORE.INTER.SOLV>
14.208

>  <SCORE.INTER.VDW>
-26.0414

>  <SCORE.INTER.norm>
-0.713774

>  <SCORE.INTRA>
-0.927536

>  <SCORE.INTRA.DIHEDRAL>
-1.56251

>  <SCORE.INTRA.DIHEDRAL.0>
8.13976

>  <SCORE.INTRA.POLAR>
0

>  <SCORE.INTRA.POLAR.0>
0

>  <SCORE.INTRA.REPUL>
0

>  <SCORE.INTRA.REPUL.0>
0

>  <SCORE.INTRA.SOLV>
1.31393

>  <SCORE.INTRA.SOLV.lig_0>
-82.9561

>  <SCORE.INTRA.VDW>
-0.803244

>  <SCORE.INTRA.VDW.0>
-3.29171

>  <SCORE.INTRA.norm>
-0.0356745

>  <SCORE.RESTR>
0

>  <SCORE.RESTR.CAVITY>
0

>  <SCORE.RESTR.norm>
0

>  <SCORE.SYSTEM>
0

>  <SCORE.SYSTEM.CONST>
0

>  <SCORE.SYSTEM.DIHEDRAL>
0

>  <SCORE.SYSTEM.SOLV>
0

>  <SCORE.SYSTEM.norm>
0

>  <SCORE.heavy>
26

>  <SCORE.norm>
-0.749448

>  <RMSD>
3.095

$$$$
ligand
 OpenBabel11021811433D
libRbt.so/2013.1/901 2013/11/27
 26 27  0  0  0  0  0  0  0  0999 V2000
  -13.9730   -8.9494    0.3998 C   0  0  0  0  0  0  0  0  0  0  0  0
  -21.5126  -12.6031   -1.2079 C   0  0  0  0  0  0  0  0  0  0  0  0
  -23.0843  -16.0889    2.5545 P   0  0  1  0  0  0  0  0  0  0  0  0
  -20.4150  -17.2284    2.7427 P   0  0  1  0  0  0  0  0  0  0  0  0
  -18.6075  -12.1398   -0.7735 C   0  0  0  0  0  0  0  0  0  0  0  0
  -17.4048   -9.9204   -0.6396 C   0  0  0  0  0  0  0  0  0  0  0  0
  -17.3782  -11.2992   -0.4726 C   0  0  0  0  0  0  0  0  0  0  0  0
  -16.2129  -11.8910   -0.0135 C   0  0  0  0  0  0  0  0  0  0  0  0
  -16.1387  -13.2324    0.1639 N   0  0  0  0  0  0  0  0  0  0  0  0
  -15.1367  -11.1221    0.2607 N   0  0  0  0  0  0  0  0  0  0  0  0
  -15.1865   -9.7830    0.0887 C   0  0  0  0  0  0  0  0  0  0  0  0
  -16.3180   -9.1872   -0.3607 N   0  0  0  0  0  0  0  0  0  0  0  0
  -23.1154  -16.7343    1.1941 O   0  5  0  0  0  0  0  0  0  0  0  0
  -19.5102  -17.5378    3.8956 O   0  0  0  0  0  0  0  0  0  0  0  0
  -20.5814  -11.7772    2.6557 S   0  0  0  0  0  0  0  0  0  0  0  0
  -19.1975  -11.7853    1.6079 C   0  0  0  0  0  0  0  0  0  0  0  0
  -24.3379  -16.1561    3.3784 O   0  0  0  0  0  0  0  0  0  0  0  0
  -20.7845  -18.4974    2.0498 O   0  5  0  0  0  0  0  0  0  0  0  0
  -19.5677  -12.0667    0.3278 N   0  0  0  0  0  0  0  0  0  0  0  0
  -21.8064  -16.6729    3.3626 O   0  0  0  0  0  0  0  0  0  0  0  0
  -19.9340  -16.1645    1.7941 O   0  0  0  0  0  0  0  0  0  0  0  0
  -20.8974  -12.2792    0.1275 C   0  0  1  0  0  0  0  0  0  0  0  0
  -21.6817  -12.1369    1.3841 C   0  0  1  0  0  0  0  0  0  0  0  0
  -23.1393  -12.2603    1.7405 C   0  0  0  0  0  0  0  0  0  0  0  0
  -23.5695  -13.7051    1.5409 C   0  0  0  0  0  0  0  0  0  0  0  0
  -22.7455  -14.5300    2.3556 O   0  0  0  0  0  0  0  0  0  0  0  0
  1 11  1  0  0  0  0
  3 13  1  6  0  0  0
  3 17  2  0  0  0  0
  3 20  1  0  0  0  0
  3 26  1  0  0  0  0
  4 14  1  1  0  0  0
  4 18  1  0  0  0  0
  4 21  2  0  0  0  0
  4 20  1  0  0  0  0
  5 19  1  0  0  0  0
  5  7  1  0  0  0  0
  6  7  2  0  0  0  0
  6 12  1  0  0  0  0
  7  8  1  0  0  0  0
  8  9  1  0  0  0  0
  8 10  2  0  0  0  0
 10 11  1  0  0  0  0
 11 12  2  0  0  0  0
 15 23  1  0  0  0  0
 15 16  1  0  0  0  0
 16 19  1  0  0  0  0
 19 22  1  0  0  0  0
 22  2  1  6  0  0  0
 22 23  1  0  0  0  0
 23 24  1  1  0  0  0
 24 25  1  0  0  0  0
 25 26  1  0  0  0  0
M  CHG  2  13  -1  18  -1
M  END
>  <CHROM.1>
28.05256259,-25.34877432,-79.08322767,175.01427400,-113.03403077,57.93320956
170.43256926,57.58088630,-20.01197075,-13.66990136,1.41353374,-0.82333304
-0.08676818,2.81331706

>  <Name>
ligand

>  <RI>
0

>  <Rbt.Current_Directory>
/home/itssahil/PROJECTS/Mol_Feturizer/New_Systems/rnas/2GDI

>  <Rbt.Executable>
rbdock ($Id: //depot/dev/client3/rdock/2013.1/src/exe/rbdock.cxx#4 $)

>  <Rbt.Library>
libRbt.so (2013.1, Build901 2013/11/27)

>  <Rbt.Parameter_File>
/export/apps/rDock/src/rDock_2013.1_src/data/scripts/dock_solv.prm

>  <Rbt.Receptor>
prm/pocket_docking_5.prm

>  <SCORE>
-13.674

>  <SCORE.INTER>
-13.2429

>  <SCORE.INTER.CONST>
1

>  <SCORE.INTER.POLAR>
0

>  <SCORE.INTER.ROT>
8

>  <SCORE.INTER.SOLV>
9.95338

>  <SCORE.INTER.VDW>
-21.0797

>  <SCORE.INTER.norm>
-0.509342

>  <SCORE.INTRA>
-0.431078

>  <SCORE.INTRA.DIHEDRAL>
-1.97134

>  <SCORE.INTRA.DIHEDRAL.0>
8.13976

>  <SCORE.INTRA.POLAR>
0

>  <SCORE.INTRA.POLAR.0>
0

>  <SCORE.INTRA.REPUL>
0

>  <SCORE.INTRA.REPUL.0>
0

>  <SCORE.INTRA.SOLV>
2.11086

>  <SCORE.INTRA.SOLV.lig_0>
-82.9561

>  <SCORE.INTRA.VDW>
-0.500839

>  <SCORE.INTRA.VDW.0>
-3.29171

>  <SCORE.INTRA.norm>
-0.0165799

>  <SCORE.RESTR>
0

>  <SCORE.RESTR.CAVITY>
0

>  <SCORE.RESTR.norm>
0

>  <SCORE.SYSTEM>
0

>  <SCORE.SYSTEM.CONST>
0

>  <SCORE.SYSTEM.DIHEDRAL>
0

>  <SCORE.SYSTEM.SOLV>
0

>  <SCORE.SYSTEM.norm>
0

>  <SCORE.heavy>
26

>  <SCORE.norm>
-0.525922

>  <RMSD>
3.103

$$$$
ligand
 OpenBabel11021811433D
libRbt.so/2013.1/901 2013/11/27
 26 27  0  0  0  0  0  0  0  0999 V2000
  -12.6280   -7.9724   -0.2465 C   0  0  0  0  0  0  0  0  0  0  0  0
  -17.2156  -11.6137    2.7737 C   0  0  0  0  0  0  0  0  0  0  0  0
  -23.1753  -12.1776    4.3686 P   0  0  1  0  0  0  0  0  0  0  0  0
  -24.9417  -11.5461    2.1460 P   0  0  1  0  0  0  0  0  0  0  0  0
  -15.7936  -12.7244    0.4099 C   0  0  0  0  0  0  0  0  0  0  0  0
  -15.5388  -10.2111    0.3148 C   0  0  0  0  0  0  0  0  0  0  0  0
  -14.9571  -11.4695    0.2259 C   0  0  0  0  0  0  0  0  0  0  0  0
  -13.5967  -11.5572   -0.0203 C   0  0  0  0  0  0  0  0  0  0  0  0
  -12.9849  -12.7626   -0.1166 N   0  0  0  0  0  0  0  0  0  0  0  0
  -12.8705  -10.4277   -0.1668 N   0  0  0  0  0  0  0  0  0  0  0  0
  -13.4594   -9.2151   -0.0777 C   0  0  0  0  0  0  0  0  0  0  0  0
  -14.7894   -9.1105    0.1617 N   0  0  0  0  0  0  0  0  0  0  0  0
  -23.3577  -11.8624    5.8300 O   0  5  0  0  0  0  0  0  0  0  0  0
  -23.9495  -12.1461    1.1978 O   0  0  0  0  0  0  0  0  0  0  0  0
  -19.6243  -12.1191   -0.4542 S   0  0  0  0  0  0  0  0  0  0  0  0
  -17.9817  -12.5973   -0.7480 C   0  0  0  0  0  0  0  0  0  0  0  0
  -23.3268  -13.6112    3.9483 O   0  0  0  0  0  0  0  0  0  0  0  0
  -25.9413  -12.5829    2.5370 O   0  5  0  0  0  0  0  0  0  0  0  0
  -17.2210  -12.4070    0.3655 N   0  0  0  0  0  0  0  0  0  0  0  0
  -24.1454  -11.1991    3.5150 O   0  0  0  0  0  0  0  0  0  0  0  0
  -25.5801  -10.2575    1.7041 O   0  0  0  0  0  0  0  0  0  0  0  0
  -17.8706  -11.8985    1.4484 C   0  0  1  0  0  0  0  0  0  0  0  0
  -19.3159  -11.6705    1.1769 C   0  0  1  0  0  0  0  0  0  0  0  0
  -20.4723  -11.1406    1.9825 C   0  0  0  0  0  0  0  0  0  0  0  0
  -21.0624  -12.2811    2.7969 C   0  0  0  0  0  0  0  0  0  0  0  0
  -21.6911  -11.7270    3.9461 O   0  0  0  0  0  0  0  0  0  0  0  0
  1 11  1  0  0  0  0
  3 13  1  1  0  0  0
  3 17  2  0  0  0  0
  3 20  1  0  0  0  0
  3 26  1  0  0  0  0
  4 14  1  6  0  0  0
  4 18  1  0  0  0  0
  4 21  2  0  0  0  0
  4 20  1  0  0  0  0
  5 19  1  0  0  0  0
  5  7  1  0  0  0  0
  6  7  2  0  0  0  0
  6 12  1  0  0  0  0
  7  8  1  0  0  0  0
  8  9  1  0  0  0  0
  8 10  2  0  0  0  0
 10 11  1  0  0  0  0
 11 12  2  0  0  0  0
 15 23  1  0  0  0  0
 15 16  1  0  0  0  0
 16 19  1  0  0  0  0
 19 22  1  0  0  0  0
 22  2  1  1  0  0  0
 22 23  1  0  0  0  0
 23 24  1  6  0  0  0
 24 25  1  0  0  0  0
 25 26  1  0  0  0  0
M  CHG  2  13  -1  18  -1
M  END
>  <CHROM.1>
-144.65518767,99.70737532,12.99623946,-50.22733002,96.47678541,154.00018818
132.31469845,158.64931811,-19.66377739,-11.54664656,1.65479216,-0.30958458
0.09430112,1.65452043

>  <Name>
ligand

>  <RI>
0

>  <Rbt.Current_Directory>
/home/itssahil/PROJECTS/Mol_Feturizer/New_Systems/rnas/2GDI

>  <Rbt.Executable>
rbdock ($Id: //depot/dev/client3/rdock/2013.1/src/exe/rbdock.cxx#4 $)

>  <Rbt.Library>
libRbt.so (2013.1, Build901 2013/11/27)

>  <Rbt.Parameter_File>
/export/apps/rDock/src/rDock_2013.1_src/data/scripts/dock_solv.prm

>  <Rbt.Receptor>
prm/blind_docking_100.prm

>  <SCORE>
-16.3851

>  <SCORE.INTER>
-20.1975

>  <SCORE.INTER.CONST>
1

>  <SCORE.INTER.POLAR>
0

>  <SCORE.INTER.ROT>
8

>  <SCORE.INTER.SOLV>
27.042

>  <SCORE.INTER.VDW>
-31.4123

>  <SCORE.INTER.norm>
-0.776826

>  <SCORE.INTRA>
3.81237

>  <SCORE.INTRA.DIHEDRAL>
8.15962

>  <SCORE.INTRA.DIHEDRAL.0>
8.13976

>  <SCORE.INTRA.POLAR>
0

>  <SCORE.INTRA.POLAR.0>
0

>  <SCORE.INTRA.REPUL>
0

>  <SCORE.INTRA.REPUL.0>
0

>  <SCORE.INTRA.SOLV>
0.0230273

>  <SCORE.INTRA.SOLV.lig_0>
-82.9561

>  <SCORE.INTRA.VDW>
-0.278948

>  <SCORE.INTRA.VDW.0>
-3.29171

>  <SCORE.INTRA.norm>
0.14663

>  <SCORE.RESTR>
0

>  <SCORE.RESTR.CAVITY>
0

>  <SCORE.RESTR.norm>
0

>  <SCORE.SYSTEM>
0

>  <SCORE.SYSTEM.CONST>
0

>  <SCORE.SYSTEM.DIHEDRAL>
0

>  <SCORE.SYSTEM.SOLV>
0

>  <SCORE.SYSTEM.norm>
0

>  <SCORE.heavy>
26

>  <SCORE.norm>
-0.630196

>  <RMSD>
3.150

$$$$
ligand
 OpenBabel11021811433D
libRbt.so/2013.1/901 2013/11/27
 26 27  0  0  0  0  0  0  0  0999 V2000
  -12.9445   -8.2745   -0.0553 C   0  0  0  0  0  0  0  0  0  0  0  0
  -16.4277  -15.7678    1.0178 C   0  0  0  0  0  0  0  0  0  0  0  0
  -21.3137  -17.1814   -0.3739 P   0  0  1  0  0  0  0  0  0  0  0  0
  -22.8838  -18.8843   -2.1328 P   0  0  1  0  0  0  0  0  0  0  0  0
  -16.1970  -12.8162    1.2967 C   0  0  0  0  0  0  0  0  0  0  0  0
  -15.7431  -10.3296    1.2657 C   0  0  0  0  0  0  0  0  0  0  0  0
  -15.3409  -11.6160    0.9294 C   0  0  0  0  0  0  0  0  0  0  0  0
  -14.1372  -11.7839    0.2645 C   0  0  0  0  0  0  0  0  0  0  0  0
  -13.7038  -13.0193   -0.0853 N   0  0  0  0  0  0  0  0  0  0  0  0
  -13.3860  -10.7033   -0.0395 N   0  0  0  0  0  0  0  0  0  0  0  0
  -13.7994   -9.4618    0.2967 C   0  0  0  0  0  0  0  0  0  0  0  0
  -14.9748   -9.2788    0.9464 N   0  0  0  0  0  0  0  0  0  0  0  0
  -21.9432  -16.1381    0.5115 O   0  5  0  0  0  0  0  0  0  0  0  0
  -23.8956  -19.3412   -1.1273 O   0  0  0  0  0  0  0  0  0  0  0  0
  -17.8417  -13.7384   -2.2007 S   0  0  0  0  0  0  0  0  0  0  0  0
  -17.2310  -12.6975   -0.9531 C   0  0  0  0  0  0  0  0  0  0  0  0
  -20.8736  -18.4620    0.2752 O   0  0  0  0  0  0  0  0  0  0  0  0
  -23.5706  -18.5813   -3.4227 O   0  5  0  0  0  0  0  0  0  0  0  0
  -16.7708  -13.4297    0.0989 N   0  0  0  0  0  0  0  0  0  0  0  0
  -22.3120  -17.4561   -1.6208 O   0  0  0  0  0  0  0  0  0  0  0  0
  -21.6804  -19.7703   -2.3068 O   0  0  0  0  0  0  0  0  0  0  0  0
  -16.8758  -14.7812   -0.0273 C   0  0  1  0  0  0  0  0  0  0  0  0
  -17.4725  -15.1759   -1.3321 C   0  0  1  0  0  0  0  0  0  0  0  0
  -17.8138  -16.4892   -1.9846 C   0  0  0  0  0  0  0  0  0  0  0  0
  -18.7763  -17.2460   -1.0830 C   0  0  0  0  0  0  0  0  0  0  0  0
  -20.0072  -16.5339   -1.0507 O   0  0  0  0  0  0  0  0  0  0  0  0
  1 11  1  0  0  0  0
  3 13  1  1  0  0  0
  3 17  2  0  0  0  0
  3 20  1  0  0  0  0
  3 26  1  0  0  0  0
  4 14  1  1  0  0  0
  4 18  1  0  0  0  0
  4 21  2  0  0  0  0
  4 20  1  0  0  0  0
  5 19  1  0  0  0  0
  5  7  1  0  0  0  0
  6  7  2  0  0  0  0
  6 12  1  0  0  0  0
  7  8  1  0  0  0  0
  8  9  1  0  0  0  0
  8 10  2  0  0  0  0
 10 11  1  0  0  0  0
 11 12  2  0  0  0  0
 15 23  1  0  0  0  0
 15 16  1  0  0  0  0
 16 19  1  0  0  0  0
 19 22  1  0  0  0  0
 22  2  1  6  0  0  0
 22 23  1  0  0  0  0
 23 24  1  1  0  0  0
 24 25  1  0  0  0  0
 25 26  1  0  0  0  0
M  CHG  2  13  -1  18  -1
M  END
>  <CHROM.1>
-127.46218856,-38.95875095,111.30734205,72.44744830,-120.91058710,67.08383018
170.36777112,133.64036335,-18.51481574,-15.00006918,-0.66993711,-0.41097328
-0.69128420,-1.93186419

>  <Name>
ligand

>  <RI>
0

>  <Rbt.Current_Directory>
/home/itssahil/PROJECTS/Mol_Feturizer/New_Systems/rnas/2GDI

>  <Rbt.Executable>
rbdock ($Id: //depot/dev/client3/rdock/2013.1/src/exe/rbdock.cxx#4 $)

>  <Rbt.Library>
libRbt.so (2013.1, Build901 2013/11/27)

>  <Rbt.Parameter_File>
/export/apps/rDock/src/rDock_2013.1_src/data/scripts/dock_solv.prm

>  <Rbt.Receptor>
prm/pocket_docking_7.prm

>  <SCORE>
-9.93222

>  <SCORE.INTER>
-12.0777

>  <SCORE.INTER.CONST>
1

>  <SCORE.INTER.POLAR>
0

>  <SCORE.INTER.ROT>
8

>  <SCORE.INTER.SOLV>
13.8067

>  <SCORE.INTER.VDW>
-21.5874

>  <SCORE.INTER.norm>
-0.464526

>  <SCORE.INTRA>
2.14546

>  <SCORE.INTRA.DIHEDRAL>
1.83369

>  <SCORE.INTRA.DIHEDRAL.0>
8.13976

>  <SCORE.INTRA.POLAR>
0

>  <SCORE.INTRA.POLAR.0>
0

>  <SCORE.INTRA.REPUL>
0

>  <SCORE.INTRA.REPUL.0>
0

>  <SCORE.INTRA.SOLV>
2.48202

>  <SCORE.INTRA.SOLV.lig_0>
-82.9561

>  <SCORE.INTRA.VDW>
-0.0123971

>  <SCORE.INTRA.VDW.0>
-3.29171

>  <SCORE.INTRA.norm>
0.0825176

>  <SCORE.RESTR>
0

>  <SCORE.RESTR.CAVITY>
0

>  <SCORE.RESTR.norm>
0

>  <SCORE.SYSTEM>
0

>  <SCORE.SYSTEM.CONST>
0

>  <SCORE.SYSTEM.DIHEDRAL>
0

>  <SCORE.SYSTEM.SOLV>
0

>  <SCORE.SYSTEM.norm>
0

>  <SCORE.heavy>
26

>  <SCORE.norm>
-0.382008

>  <RMSD>
3.187

$$$$
ligand
 OpenBabel11021811433D
libRbt.so/2013.1/901 2013/11/27
 26 27  0  0  0  0  0  0  0  0999 V2000
  -13.8437  -12.8630    0.1806 C   0  0  0  0  0  0  0  0  0  0  0  0
  -20.7015  -11.8260    2.5100 C   0  0  0  0  0  0  0  0  0  0  0  0
  -21.5727  -16.2091    2.1466 P   0  0  1  0  0  0  0  0  0  0  0  0
  -24.0200  -17.7709    1.9727 P   0  0  1  0  0  0  0  0  0  0  0  0
  -18.9505  -10.2729    0.6756 C   0  0  0  0  0  0  0  0  0  0  0  0
  -17.3273  -11.7880   -0.5328 C   0  0  0  0  0  0  0  0  0  0  0  0
  -17.6036  -10.9649    0.5517 C   0  0  0  0  0  0  0  0  0  0  0  0
  -16.6220  -10.7769    1.5109 C   0  0  0  0  0  0  0  0  0  0  0  0
  -16.8456   -9.9841    2.5869 N   0  0  0  0  0  0  0  0  0  0  0  0
  -15.4271  -11.3914    1.3728 N   0  0  0  0  0  0  0  0  0  0  0  0
  -15.1826  -12.1887    0.3099 C   0  0  0  0  0  0  0  0  0  0  0  0
  -16.1318  -12.3848   -0.6377 N   0  0  0  0  0  0  0  0  0  0  0  0
  -22.3909  -15.3331    3.0585 O   0  5  0  0  0  0  0  0  0  0  0  0
  -24.6470  -17.0596    0.8132 O   0  0  0  0  0  0  0  0  0  0  0  0
  -21.6147  -12.3568   -1.4093 S   0  0  0  0  0  0  0  0  0  0  0  0
  -20.2842  -11.2700   -1.1607 C   0  0  0  0  0  0  0  0  0  0  0  0
  -20.1643  -16.5166    2.5670 O   0  0  0  0  0  0  0  0  0  0  0  0
  -24.2258  -19.2412    1.8207 O   0  5  0  0  0  0  0  0  0  0  0  0
  -20.0222  -11.1299    0.1684 N   0  0  0  0  0  0  0  0  0  0  0  0
  -22.4168  -17.5610    1.8522 O   0  0  0  0  0  0  0  0  0  0  0  0
  -24.3989  -17.2669    3.3386 O   0  0  0  0  0  0  0  0  0  0  0  0
  -20.8231  -11.8403    1.0095 C   0  0  1  0  0  0  0  0  0  0  0  0
  -21.8287  -12.6517    0.2713 C   0  0  1  0  0  0  0  0  0  0  0  0
  -22.9317  -13.5929    0.6768 C   0  0  0  0  0  0  0  0  0  0  0  0
  -22.6443  -14.9642    0.0858 C   0  0  0  0  0  0  0  0  0  0  0  0
  -21.4793  -15.4835    0.7152 O   0  0  0  0  0  0  0  0  0  0  0  0
  1 11  1  0  0  0  0
  3 13  1  1  0  0  0
  3 17  2  0  0  0  0
  3 20  1  0  0  0  0
  3 26  1  0  0  0  0
  4 14  1  6  0  0  0
  4 18  1  0  0  0  0
  4 21  2  0  0  0  0
  4 20  1  0  0  0  0
  5 19  1  0  0  0  0
  5  7  1  0  0  0  0
  6  7  2  0  0  0  0
  6 12  1  0  0  0  0
  7  8  1  0  0  0  0
  8  9  1  0  0  0  0
  8 10  2  0  0  0  0
 10 11  1  0  0  0  0
 11 12  2  0  0  0  0
 15 23  1  0  0  0  0
 15 16  1  0  0  0  0
 16 19  1  0  0  0  0
 19 22  1  0  0  0  0
 22  2  1  6  0  0  0
 22 23  1  0  0  0  0
 23 24  1  1  0  0  0
 24 25  1  0  0  0  0
 25 26  1  0  0  0  0
M  CHG  2  13  -1  18  -1
M  END
>  <CHROM.1>
22.23796907,-79.23508782,35.77814124,73.34070309,61.82968301,66.92535106
82.29347334,-48.01598117,-20.56395176,-14.02788018,1.05701122,-0.71481309
0.19770567,2.68955165

>  <Name>
ligand

>  <RI>
0

>  <Rbt.Current_Directory>
/home/itssahil/PROJECTS/Mol_Feturizer/New_Systems/rnas/2GDI

>  <Rbt.Executable>
rbdock ($Id: //depot/dev/client3/rdock/2013.1/src/exe/rbdock.cxx#4 $)

>  <Rbt.Library>
libRbt.so (2013.1, Build901 2013/11/27)

>  <Rbt.Parameter_File>
/export/apps/rDock/src/rDock_2013.1_src/data/scripts/dock_solv.prm

>  <Rbt.Receptor>
prm/pocket_docking_4.prm

>  <SCORE>
-5.60225

>  <SCORE.INTER>
-7.02324

>  <SCORE.INTER.CONST>
1

>  <SCORE.INTER.POLAR>
0

>  <SCORE.INTER.ROT>
8

>  <SCORE.INTER.SOLV>
19.7275

>  <SCORE.INTER.VDW>
-20.1913

>  <SCORE.INTER.norm>
-0.270124

>  <SCORE.INTRA>
1.42098

>  <SCORE.INTRA.DIHEDRAL>
1.01369

>  <SCORE.INTRA.DIHEDRAL.0>
8.13976

>  <SCORE.INTRA.POLAR>
0

>  <SCORE.INTRA.POLAR.0>
0

>  <SCORE.INTRA.REPUL>
0

>  <SCORE.INTRA.REPUL.0>
0

>  <SCORE.INTRA.SOLV>
2.57088

>  <SCORE.INTRA.SOLV.lig_0>
-82.9561

>  <SCORE.INTRA.VDW>
-0.371302

>  <SCORE.INTRA.VDW.0>
-3.29171

>  <SCORE.INTRA.norm>
0.0546532

>  <SCORE.RESTR>
0

>  <SCORE.RESTR.CAVITY>
0

>  <SCORE.RESTR.norm>
0

>  <SCORE.SYSTEM>
0

>  <SCORE.SYSTEM.CONST>
0

>  <SCORE.SYSTEM.DIHEDRAL>
0

>  <SCORE.SYSTEM.SOLV>
0

>  <SCORE.SYSTEM.norm>
0

>  <SCORE.heavy>
26

>  <SCORE.norm>
-0.215471

>  <RMSD>
3.188

$$$$
ligand
 OpenBabel11021811433D
libRbt.so/2013.1/901 2013/11/27
 26 27  0  0  0  0  0  0  0  0999 V2000
  -13.1876  -11.5145    0.1372 C   0  0  0  0  0  0  0  0  0  0  0  0
  -20.7303  -11.6467    2.5985 C   0  0  0  0  0  0  0  0  0  0  0  0
  -23.8719  -16.3639    0.5157 P   0  0  1  0  0  0  0  0  0  0  0  0
  -24.2341  -18.4834    2.4741 P   0  0  1  0  0  0  0  0  0  0  0  0
  -18.6690  -10.0936    1.1213 C   0  0  0  0  0  0  0  0  0  0  0  0
  -16.3953   -9.6408    0.1137 C   0  0  0  0  0  0  0  0  0  0  0  0
  -17.2231  -10.4758    0.8535 C   0  0  0  0  0  0  0  0  0  0  0  0
  -16.7005  -11.6572    1.3536 C   0  0  0  0  0  0  0  0  0  0  0  0
  -17.4698  -12.5041    2.0798 N   0  0  0  0  0  0  0  0  0  0  0  0
  -15.4083  -11.9697    1.1145 N   0  0  0  0  0  0  0  0  0  0  0  0
  -14.6233  -11.1421    0.3907 C   0  0  0  0  0  0  0  0  0  0  0  0
  -15.1182   -9.9826   -0.1073 N   0  0  0  0  0  0  0  0  0  0  0  0
  -22.8317  -17.1388   -0.2497 O   0  5  0  0  0  0  0  0  0  0  0  0
  -25.4188  -19.2926    2.9044 O   0  0  0  0  0  0  0  0  0  0  0  0
  -20.7633  -12.3381   -1.4012 S   0  0  0  0  0  0  0  0  0  0  0  0
  -19.5481  -11.1972   -0.9168 C   0  0  0  0  0  0  0  0  0  0  0  0
  -24.7376  -15.4162   -0.2635 O   0  0  0  0  0  0  0  0  0  0  0  0
  -23.2793  -19.3597    1.7341 O   0  5  0  0  0  0  0  0  0  0  0  0
  -19.5823  -11.0043    0.4309 N   0  0  0  0  0  0  0  0  0  0  0  0
  -24.7587  -17.4163    1.3719 O   0  0  0  0  0  0  0  0  0  0  0  0
  -23.5661  -17.6696    3.5487 O   0  0  0  0  0  0  0  0  0  0  0  0
  -20.5256  -11.7146    1.1085 C   0  0  1  0  0  0  0  0  0  0  0  0
  -21.3259  -12.5850    0.2049 C   0  0  1  0  0  0  0  0  0  0  0  0
  -22.4639  -13.5510    0.4019 C   0  0  0  0  0  0  0  0  0  0  0  0
  -21.9879  -14.6910    1.2884 C   0  0  0  0  0  0  0  0  0  0  0  0
  -23.1155  -15.4874    1.6310 O   0  0  0  0  0  0  0  0  0  0  0  0
  1 11  1  0  0  0  0
  3 13  1  6  0  0  0
  3 17  2  0  0  0  0
  3 20  1  0  0  0  0
  3 26  1  0  0  0  0
  4 14  1  1  0  0  0
  4 18  1  0  0  0  0
  4 21  2  0  0  0  0
  4 20  1  0  0  0  0
  5 19  1  0  0  0  0
  5  7  1  0  0  0  0
  6  7  2  0  0  0  0
  6 12  1  0  0  0  0
  7  8  1  0  0  0  0
  8  9  1  0  0  0  0
  8 10  2  0  0  0  0
 10 11  1  0  0  0  0
 11 12  2  0  0  0  0
 15 23  1  0  0  0  0
 15 16  1  0  0  0  0
 16 19  1  0  0  0  0
 19 22  1  0  0  0  0
 22  2  1  1  0  0  0
 22 23  1  0  0  0  0
 23 24  1  6  0  0  0
 24 25  1  0  0  0  0
 25 26  1  0  0  0  0
M  CHG  2  13  -1  18  -1
M  END
>  <CHROM.1>
57.30097957,-57.31383930,112.99266146,-175.81166840,118.56414317,171.43945146
68.25092457,48.72808524,-20.79654502,-14.07712452,0.92212452,-0.68551475
0.27664240,2.63631423

>  <Name>
ligand

>  <RI>
0

>  <Rbt.Current_Directory>
/home/itssahil/PROJECTS/Mol_Feturizer/New_Systems/rnas/2GDI

>  <Rbt.Executable>
rbdock ($Id: //depot/dev/client3/rdock/2013.1/src/exe/rbdock.cxx#4 $)

>  <Rbt.Library>
libRbt.so (2013.1, Build901 2013/11/27)

>  <Rbt.Parameter_File>
/export/apps/rDock/src/rDock_2013.1_src/data/scripts/dock_solv.prm

>  <Rbt.Receptor>
prm/pocket_docking_5.prm

>  <SCORE>
-12.3034

>  <SCORE.INTER>
-13.6816

>  <SCORE.INTER.CONST>
1

>  <SCORE.INTER.POLAR>
0

>  <SCORE.INTER.ROT>
8

>  <SCORE.INTER.SOLV>
16.0555

>  <SCORE.INTER.VDW>
-23.4062

>  <SCORE.INTER.norm>
-0.526215

>  <SCORE.INTRA>
1.37819

>  <SCORE.INTRA.DIHEDRAL>
-2.53057

>  <SCORE.INTRA.DIHEDRAL.0>
8.13976

>  <SCORE.INTRA.POLAR>
0

>  <SCORE.INTRA.POLAR.0>
0

>  <SCORE.INTRA.REPUL>
0

>  <SCORE.INTRA.REPUL.0>
0

>  <SCORE.INTRA.SOLV>
5.6687

>  <SCORE.INTRA.SOLV.lig_0>
-82.9561

>  <SCORE.INTRA.VDW>
-0.190874

>  <SCORE.INTRA.VDW.0>
-3.29171

>  <SCORE.INTRA.norm>
0.0530073

>  <SCORE.RESTR>
0

>  <SCORE.RESTR.CAVITY>
0

>  <SCORE.RESTR.norm>
0

>  <SCORE.SYSTEM>
0

>  <SCORE.SYSTEM.CONST>
0

>  <SCORE.SYSTEM.DIHEDRAL>
0

>  <SCORE.SYSTEM.SOLV>
0

>  <SCORE.SYSTEM.norm>
0

>  <SCORE.heavy>
26

>  <SCORE.norm>
-0.473208

>  <RMSD>
3.193

$$$$
ligand
 OpenBabel11021811433D
libRbt.so/2013.1/901 2013/11/27
 26 27  0  0  0  0  0  0  0  0999 V2000
  -12.7655  -13.2898    0.2960 C   0  0  0  0  0  0  0  0  0  0  0  0
  -18.5197  -10.6135   -1.0032 C   0  0  0  0  0  0  0  0  0  0  0  0
  -25.1262  -13.4498   -1.0237 P   0  0  1  0  0  0  0  0  0  0  0  0
  -24.7574  -15.4573    1.0482 P   0  0  1  0  0  0  0  0  0  0  0  0
  -17.4547  -10.3046    1.7561 C   0  0  0  0  0  0  0  0  0  0  0  0
  -16.1207  -12.4493    1.6508 C   0  0  0  0  0  0  0  0  0  0  0  0
  -16.2101  -11.0900    1.3786 C   0  0  0  0  0  0  0  0  0  0  0  0
  -15.1476  -10.4676    0.7441 C   0  0  0  0  0  0  0  0  0  0  0  0
  -15.1885   -9.1434    0.4589 N   0  0  0  0  0  0  0  0  0  0  0  0
  -14.0569  -11.1889    0.4054 N   0  0  0  0  0  0  0  0  0  0  0  0
  -13.9927  -12.5096    0.6823 C   0  0  0  0  0  0  0  0  0  0  0  0
  -15.0225  -13.1347    1.3036 N   0  0  0  0  0  0  0  0  0  0  0  0
  -25.8696  -13.4372   -2.3336 O   0  5  0  0  0  0  0  0  0  0  0  0
  -25.2880  -16.8493    1.2046 O   0  0  0  0  0  0  0  0  0  0  0  0
  -20.7381  -12.5419    1.7962 S   0  0  0  0  0  0  0  0  0  0  0  0
  -19.3681  -11.7121    2.4653 C   0  0  0  0  0  0  0  0  0  0  0  0
  -25.5517  -12.4576    0.0200 O   0  0  0  0  0  0  0  0  0  0  0  0
  -23.2655  -15.4916    1.0697 O   0  5  0  0  0  0  0  0  0  0  0  0
  -18.6622  -11.0845    1.4842 N   0  0  0  0  0  0  0  0  0  0  0  0
  -25.1402  -14.9650   -0.4484 O   0  0  0  0  0  0  0  0  0  0  0  0
  -25.3307  -14.4246    1.9798 O   0  0  0  0  0  0  0  0  0  0  0  0
  -19.1485  -11.2251    0.2204 C   0  0  1  0  0  0  0  0  0  0  0  0
  -20.3908  -12.0437    0.1874 C   0  0  1  0  0  0  0  0  0  0  0  0
  -21.3226  -12.5079   -0.9003 C   0  0  0  0  0  0  0  0  0  0  0  0
  -22.6781  -12.8148   -0.2831 C   0  0  0  0  0  0  0  0  0  0  0  0
  -23.5753  -13.1597   -1.3315 O   0  0  0  0  0  0  0  0  0  0  0  0
  1 11  1  0  0  0  0
  3 13  1  6  0  0  0
  3 17  2  0  0  0  0
  3 20  1  0  0  0  0
  3 26  1  0  0  0  0
  4 14  1  1  0  0  0
  4 18  1  0  0  0  0
  4 21  2  0  0  0  0
  4 20  1  0  0  0  0
  5 19  1  0  0  0  0
  5  7  1  0  0  0  0
  6  7  2  0  0  0  0
  6 12  1  0  0  0  0
  7  8  1  0  0  0  0
  8  9  1  0  0  0  0
  8 10  2  0  0  0  0
 10 11  1  0  0  0  0
 11 12  2  0  0  0  0
 15 23  1  0  0  0  0
 15 16  1  0  0  0  0
 16 19  1  0  0  0  0
 19 22  1  0  0  0  0
 22  2  1  1  0  0  0
 22 23  1  0  0  0  0
 23 24  1  6  0  0  0
 24 25  1  0  0  0  0
 25 26  1  0  0  0  0
M  CHG  2  13  -1  18  -1
M  END
>  <CHROM.1>
-166.23820823,102.78317497,-40.38307153,164.25713539,24.23591220,175.90024727
-176.01954377,165.83970471,-20.69035661,-12.84367950,0.47218712,-0.21100269
0.22588043,2.60746150

>  <Name>
ligand

>  <RI>
0

>  <Rbt.Current_Directory>
/home/itssahil/PROJECTS/Mol_Feturizer/New_Systems/rnas/2GDI

>  <Rbt.Executable>
rbdock ($Id: //depot/dev/client3/rdock/2013.1/src/exe/rbdock.cxx#4 $)

>  <Rbt.Library>
libRbt.so (2013.1, Build901 2013/11/27)

>  <Rbt.Parameter_File>
/export/apps/rDock/src/rDock_2013.1_src/data/scripts/dock_solv.prm

>  <Rbt.Receptor>
prm/pocket_docking_4.prm

>  <SCORE>
-10.4704

>  <SCORE.INTER>
-13.3245

>  <SCORE.INTER.CONST>
1

>  <SCORE.INTER.POLAR>
0

>  <SCORE.INTER.ROT>
8

>  <SCORE.INTER.SOLV>
20.1161

>  <SCORE.INTER.VDW>
-24.5217

>  <SCORE.INTER.norm>
-0.512479

>  <SCORE.INTRA>
2.85403

>  <SCORE.INTRA.DIHEDRAL>
-1.67436

>  <SCORE.INTRA.DIHEDRAL.0>
8.13976

>  <SCORE.INTRA.POLAR>
0

>  <SCORE.INTRA.POLAR.0>
0

>  <SCORE.INTRA.REPUL>
0

>  <SCORE.INTRA.REPUL.0>
0

>  <SCORE.INTRA.SOLV>
3.82179

>  <SCORE.INTRA.SOLV.lig_0>
-82.9561

>  <SCORE.INTRA.VDW>
1.78031

>  <SCORE.INTRA.VDW.0>
-3.29171

>  <SCORE.INTRA.norm>
0.10977

>  <SCORE.RESTR>
0

>  <SCORE.RESTR.CAVITY>
0

>  <SCORE.RESTR.norm>
0

>  <SCORE.SYSTEM>
0

>  <SCORE.SYSTEM.CONST>
0

>  <SCORE.SYSTEM.DIHEDRAL>
0

>  <SCORE.SYSTEM.SOLV>
0

>  <SCORE.SYSTEM.norm>
0

>  <SCORE.heavy>
26

>  <SCORE.norm>
-0.402709

>  <RMSD>
3.207

$$$$
ligand
 OpenBabel11021811433D
libRbt.so/2013.1/901 2013/11/27
 26 27  0  0  0  0  0  0  0  0999 V2000
  -13.8173   -9.8681    0.3414 C   0  0  0  0  0  0  0  0  0  0  0  0
  -21.6757  -12.8142   -1.1106 C   0  0  0  0  0  0  0  0  0  0  0  0
  -21.1427  -16.9048    2.6779 P   0  0  1  0  0  0  0  0  0  0  0  0
  -20.7985  -18.8591    0.5517 P   0  0  1  0  0  0  0  0  0  0  0  0
  -19.3012  -11.0338   -0.9238 C   0  0  0  0  0  0  0  0  0  0  0  0
  -17.3871   -9.4182   -0.5828 C   0  0  0  0  0  0  0  0  0  0  0  0
  -17.8488  -10.7283   -0.5992 C   0  0  0  0  0  0  0  0  0  0  0  0
  -16.9619  -11.7496   -0.3005 C   0  0  0  0  0  0  0  0  0  0  0  0
  -17.3657  -13.0432   -0.3049 N   0  0  0  0  0  0  0  0  0  0  0  0
  -15.6784  -11.4532   -0.0013 N   0  0  0  0  0  0  0  0  0  0  0  0
  -15.2526  -10.1711    0.0065 C   0  0  0  0  0  0  0  0  0  0  0  0
  -16.1064   -9.1592   -0.2843 N   0  0  0  0  0  0  0  0  0  0  0  0
  -22.3779  -17.6366    3.1329 O   0  5  0  0  0  0  0  0  0  0  0  0
  -20.2614  -19.7565    1.6239 O   0  0  0  0  0  0  0  0  0  0  0  0
  -20.7035  -11.8342    2.7066 S   0  0  0  0  0  0  0  0  0  0  0  0
  -19.6432  -11.1245    1.5297 C   0  0  0  0  0  0  0  0  0  0  0  0
  -19.9250  -16.9982    3.5516 O   0  0  0  0  0  0  0  0  0  0  0  0
  -22.2315  -19.1917    0.3004 O   0  5  0  0  0  0  0  0  0  0  0  0
  -20.0154  -11.4856    0.2703 N   0  0  0  0  0  0  0  0  0  0  0  0
  -20.8206  -17.3541    1.1544 O   0  0  0  0  0  0  0  0  0  0  0  0
  -19.9868  -18.7836   -0.7127 O   0  0  0  0  0  0  0  0  0  0  0  0
  -21.1023  -12.3008    0.1833 C   0  0  1  0  0  0  0  0  0  0  0  0
  -21.6736  -12.6152    1.5209 C   0  0  1  0  0  0  0  0  0  0  0  0
  -22.8346  -13.4414    2.0071 C   0  0  0  0  0  0  0  0  0  0  0  0
  -22.5537  -14.9044    1.7020 C   0  0  0  0  0  0  0  0  0  0  0  0
  -21.5073  -15.3436    2.5594 O   0  0  0  0  0  0  0  0  0  0  0  0
  1 11  1  0  0  0  0
  3 13  1  1  0  0  0
  3 17  2  0  0  0  0
  3 20  1  0  0  0  0
  3 26  1  0  0  0  0
  4 14  1  1  0  0  0
  4 18  1  0  0  0  0
  4 21  2  0  0  0  0
  4 20  1  0  0  0  0
  5 19  1  0  0  0  0
  5  7  1  0  0  0  0
  6  7  2  0  0  0  0
  6 12  1  0  0  0  0
  7  8  1  0  0  0  0
  8  9  1  0  0  0  0
  8 10  2  0  0  0  0
 10 11  1  0  0  0  0
 11 12  2  0  0  0  0
 15 23  1  0  0  0  0
 15 16  1  0  0  0  0
 16 19  1  0  0  0  0
 19 22  1  0  0  0  0
 22  2  1  6  0  0  0
 22 23  1  0  0  0  0
 23 24  1  1  0  0  0
 24 25  1  0  0  0  0
 25 26  1  0  0  0  0
M  CHG  2  13  -1  18  -1
M  END
>  <CHROM.1>
-46.56220885,26.71772910,-109.09765634,-35.67910413,-112.61377591,70.31041247
169.13693347,-58.37751134,-19.81121261,-14.23032468,0.99626315,-1.02112665
-0.39579515,-3.10649803

>  <Name>
ligand

>  <RI>
0

>  <Rbt.Current_Directory>
/home/itssahil/PROJECTS/Mol_Feturizer/New_Systems/rnas/2GDI

>  <Rbt.Executable>
rbdock ($Id: //depot/dev/client3/rdock/2013.1/src/exe/rbdock.cxx#4 $)

>  <Rbt.Library>
libRbt.so (2013.1, Build901 2013/11/27)

>  <Rbt.Parameter_File>
/export/apps/rDock/src/rDock_2013.1_src/data/scripts/dock_solv.prm

>  <Rbt.Receptor>
prm/pocket_docking_4.prm

>  <SCORE>
-15.6331

>  <SCORE.INTER>
-15.2896

>  <SCORE.INTER.CONST>
1

>  <SCORE.INTER.POLAR>
0

>  <SCORE.INTER.ROT>
8

>  <SCORE.INTER.SOLV>
15.3098

>  <SCORE.INTER.VDW>
-24.2297

>  <SCORE.INTER.norm>
-0.588063

>  <SCORE.INTRA>
-0.3435

>  <SCORE.INTRA.DIHEDRAL>
-1.37658

>  <SCORE.INTRA.DIHEDRAL.0>
8.13976

>  <SCORE.INTRA.POLAR>
0

>  <SCORE.INTRA.POLAR.0>
0

>  <SCORE.INTRA.REPUL>
0

>  <SCORE.INTRA.REPUL.0>
0

>  <SCORE.INTRA.SOLV>
1.49732

>  <SCORE.INTRA.SOLV.lig_0>
-82.9561

>  <SCORE.INTRA.VDW>
-0.40387

>  <SCORE.INTRA.VDW.0>
-3.29171

>  <SCORE.INTRA.norm>
-0.0132116

>  <SCORE.RESTR>
0

>  <SCORE.RESTR.CAVITY>
0

>  <SCORE.RESTR.norm>
0

>  <SCORE.SYSTEM>
0

>  <SCORE.SYSTEM.CONST>
0

>  <SCORE.SYSTEM.DIHEDRAL>
0

>  <SCORE.SYSTEM.SOLV>
0

>  <SCORE.SYSTEM.norm>
0

>  <SCORE.heavy>
26

>  <SCORE.norm>
-0.601275

>  <RMSD>
3.213

$$$$
ligand
 OpenBabel11021811433D
libRbt.so/2013.1/901 2013/11/27
 26 27  0  0  0  0  0  0  0  0999 V2000
  -12.9006   -7.7760   -0.1199 C   0  0  0  0  0  0  0  0  0  0  0  0
  -17.0173  -15.3026    1.1515 C   0  0  0  0  0  0  0  0  0  0  0  0
  -22.5685  -13.2741   -0.1218 P   0  0  1  0  0  0  0  0  0  0  0  0
  -24.1322  -12.6668   -2.4977 P   0  0  1  0  0  0  0  0  0  0  0  0
  -15.2374  -12.9523    0.7625 C   0  0  0  0  0  0  0  0  0  0  0  0
  -13.4402  -11.4508   -0.1893 C   0  0  0  0  0  0  0  0  0  0  0  0
  -14.6156  -11.5842    0.5390 C   0  0  0  0  0  0  0  0  0  0  0  0
  -15.2168  -10.4437    1.0458 C   0  0  0  0  0  0  0  0  0  0  0  0
  -16.3636  -10.5239    1.7634 N   0  0  0  0  0  0  0  0  0  0  0  0
  -14.6533   -9.2366    0.8228 N   0  0  0  0  0  0  0  0  0  0  0  0
  -13.5087   -9.1326    0.1127 C   0  0  0  0  0  0  0  0  0  0  0  0
  -12.9062  -10.2379   -0.3898 N   0  0  0  0  0  0  0  0  0  0  0  0
  -21.4283  -12.2903   -0.0992 O   0  5  0  0  0  0  0  0  0  0  0  0
  -25.4305  -12.8158   -1.7659 O   0  0  0  0  0  0  0  0  0  0  0  0
  -18.5850  -12.4979   -1.3290 S   0  0  0  0  0  0  0  0  0  0  0  0
  -17.0170  -12.0693   -0.7202 C   0  0  0  0  0  0  0  0  0  0  0  0
  -23.7484  -12.9824    0.7600 O   0  0  0  0  0  0  0  0  0  0  0  0
  -23.6852  -11.2446   -2.4270 O   0  5  0  0  0  0  0  0  0  0  0  0
  -16.5405  -13.0434    0.1038 N   0  0  0  0  0  0  0  0  0  0  0  0
  -23.0155  -13.4954   -1.6640 O   0  0  0  0  0  0  0  0  0  0  0  0
  -24.0961  -13.2208   -3.8959 O   0  0  0  0  0  0  0  0  0  0  0  0
  -17.3543  -14.1200    0.2829 C   0  0  1  0  0  0  0  0  0  0  0  0
  -18.6165  -14.0022   -0.4964 C   0  0  1  0  0  0  0  0  0  0  0  0
  -19.8375  -14.8663   -0.6686 C   0  0  0  0  0  0  0  0  0  0  0  0
  -20.6170  -14.8745    0.6370 C   0  0  0  0  0  0  0  0  0  0  0  0
  -21.9960  -14.7062    0.3316 O   0  0  0  0  0  0  0  0  0  0  0  0
  1 11  1  0  0  0  0
  3 13  1  1  0  0  0
  3 17  2  0  0  0  0
  3 20  1  0  0  0  0
  3 26  1  0  0  0  0
  4 14  1  1  0  0  0
  4 18  1  0  0  0  0
  4 21  2  0  0  0  0
  4 20  1  0  0  0  0
  5 19  1  0  0  0  0
  5  7  1  0  0  0  0
  6  7  2  0  0  0  0
  6 12  1  0  0  0  0
  7  8  1  0  0  0  0
  8  9  1  0  0  0  0
  8 10  2  0  0  0  0
 10 11  1  0  0  0  0
 11 12  2  0  0  0  0
 15 23  1  0  0  0  0
 15 16  1  0  0  0  0
 16 19  1  0  0  0  0
 19 22  1  0  0  0  0
 22  2  1  6  0  0  0
 22 23  1  0  0  0  0
 23 24  1  1  0  0  0
 24 25  1  0  0  0  0
 25 26  1  0  0  0  0
M  CHG  2  13  -1  18  -1
M  END
>  <CHROM.1>
-90.37895370,7.24433518,-115.23237435,-58.83848511,-109.59873277,135.58019808
-74.08096963,-1.50736603,-19.25361957,-12.43124721,-0.47585011,0.16347174
-0.28053807,-0.40095842

>  <Name>
ligand

>  <RI>
0

>  <Rbt.Current_Directory>
/home/itssahil/PROJECTS/Mol_Feturizer/New_Systems/rnas/2GDI

>  <Rbt.Executable>
rbdock ($Id: //depot/dev/client3/rdock/2013.1/src/exe/rbdock.cxx#4 $)

>  <Rbt.Library>
libRbt.so (2013.1, Build901 2013/11/27)

>  <Rbt.Parameter_File>
/export/apps/rDock/src/rDock_2013.1_src/data/scripts/dock_solv.prm

>  <Rbt.Receptor>
prm/pocket_docking_5.prm

>  <SCORE>
-12.365

>  <SCORE.INTER>
-17.026

>  <SCORE.INTER.CONST>
1

>  <SCORE.INTER.POLAR>
0

>  <SCORE.INTER.ROT>
8

>  <SCORE.INTER.SOLV>
18.2369

>  <SCORE.INTER.VDW>
-26.3629

>  <SCORE.INTER.norm>
-0.654845

>  <SCORE.INTRA>
4.62366

>  <SCORE.INTRA.DIHEDRAL>
5.25488

>  <SCORE.INTRA.DIHEDRAL.0>
8.13976

>  <SCORE.INTRA.POLAR>
0

>  <SCORE.INTRA.POLAR.0>
0

>  <SCORE.INTRA.REPUL>
0

>  <SCORE.INTRA.REPUL.0>
0

>  <SCORE.INTRA.SOLV>
3.31394

>  <SCORE.INTRA.SOLV.lig_0>
-82.9561

>  <SCORE.INTRA.VDW>
0.339249

>  <SCORE.INTRA.VDW.0>
-3.29171

>  <SCORE.INTRA.norm>
0.177833

>  <SCORE.RESTR>
0.037313

>  <SCORE.RESTR.CAVITY>
0.037313

>  <SCORE.RESTR.norm>
0.00143512

>  <SCORE.SYSTEM>
0

>  <SCORE.SYSTEM.CONST>
0

>  <SCORE.SYSTEM.DIHEDRAL>
0

>  <SCORE.SYSTEM.SOLV>
0

>  <SCORE.SYSTEM.norm>
0

>  <SCORE.heavy>
26

>  <SCORE.norm>
-0.475577

>  <RMSD>
3.216

$$$$
ligand
 OpenBabel11021811433D
libRbt.so/2013.1/901 2013/11/27
 26 27  0  0  0  0  0  0  0  0999 V2000
  -13.5792  -10.2147    0.3443 C   0  0  0  0  0  0  0  0  0  0  0  0
  -21.3789  -12.6245   -1.1836 C   0  0  0  0  0  0  0  0  0  0  0  0
  -20.2244  -16.4884    1.9055 P   0  0  1  0  0  0  0  0  0  0  0  0
  -20.9859  -19.0557    0.7709 P   0  0  1  0  0  0  0  0  0  0  0  0
  -19.1837  -10.6457   -0.8547 C   0  0  0  0  0  0  0  0  0  0  0  0
  -17.0854   -9.2910   -0.4642 C   0  0  0  0  0  0  0  0  0  0  0  0
  -17.6999  -10.5341   -0.5478 C   0  0  0  0  0  0  0  0  0  0  0  0
  -16.9358  -11.6693   -0.3325 C   0  0  0  0  0  0  0  0  0  0  0  0
  -17.4906  -12.9036   -0.4046 N   0  0  0  0  0  0  0  0  0  0  0  0
  -15.6213  -11.5452   -0.0474 N   0  0  0  0  0  0  0  0  0  0  0  0
  -15.0459  -10.3252    0.0269 C   0  0  0  0  0  0  0  0  0  0  0  0
  -15.7781   -9.2037   -0.1820 N   0  0  0  0  0  0  0  0  0  0  0  0
  -20.1538  -16.7494    3.3872 O   0  5  0  0  0  0  0  0  0  0  0  0
  -19.8019  -19.0077   -0.1452 O   0  0  0  0  0  0  0  0  0  0  0  0
  -20.6852  -11.6292    2.6900 S   0  0  0  0  0  0  0  0  0  0  0  0
  -19.6358  -10.8087    1.5771 C   0  0  0  0  0  0  0  0  0  0  0  0
  -18.9285  -16.4642    1.1473 O   0  0  0  0  0  0  0  0  0  0  0  0
  -20.6182  -19.7917    2.0159 O   0  5  0  0  0  0  0  0  0  0  0  0
  -19.9124  -11.1792    0.2961 N   0  0  0  0  0  0  0  0  0  0  0  0
  -21.2767  -17.5364    1.2566 O   0  0  0  0  0  0  0  0  0  0  0  0
  -22.2714  -19.5456    0.1618 O   0  0  0  0  0  0  0  0  0  0  0  0
  -20.9172  -12.0852    0.1440 C   0  0  1  0  0  0  0  0  0  0  0  0
  -21.5231  -12.4718    1.4470 C   0  0  1  0  0  0  0  0  0  0  0  0
  -22.6286  -13.4053    1.8636 C   0  0  0  0  0  0  0  0  0  0  0  0
  -22.0101  -14.6422    2.4957 C   0  0  0  0  0  0  0  0  0  0  0  0
  -20.9136  -15.0525    1.6879 O   0  0  0  0  0  0  0  0  0  0  0  0
  1 11  1  0  0  0  0
  3 13  1  1  0  0  0
  3 17  2  0  0  0  0
  3 20  1  0  0  0  0
  3 26  1  0  0  0  0
  4 14  1  6  0  0  0
  4 18  1  0  0  0  0
  4 21  2  0  0  0  0
  4 20  1  0  0  0  0
  5 19  1  0  0  0  0
  5  7  1  0  0  0  0
  6  7  2  0  0  0  0
  6 12  1  0  0  0  0
  7  8  1  0  0  0  0
  8  9  1  0  0  0  0
  8 10  2  0  0  0  0
 10 11  1  0  0  0  0
 11 12  2  0  0  0  0
 15 23  1  0  0  0  0
 15 16  1  0  0  0  0
 16 19  1  0  0  0  0
 19 22  1  0  0  0  0
 22  2  1  6  0  0  0
 22 23  1  0  0  0  0
 23 24  1  1  0  0  0
 24 25  1  0  0  0  0
 25 26  1  0  0  0  0
M  CHG  2  13  -1  18  -1
M  END
>  <CHROM.1>
-84.94333920,40.40512622,-113.33674124,-51.76413911,-72.82587795,-44.27013225
-167.69168817,-39.58080879,-19.54536611,-14.10904389,0.89741367,-1.07638035
-0.30209728,-3.13418538

>  <Name>
ligand

>  <RI>
0

>  <Rbt.Current_Directory>
/home/itssahil/PROJECTS/Mol_Feturizer/New_Systems/rnas/2GDI

>  <Rbt.Executable>
rbdock ($Id: //depot/dev/client3/rdock/2013.1/src/exe/rbdock.cxx#4 $)

>  <Rbt.Library>
libRbt.so (2013.1, Build901 2013/11/27)

>  <Rbt.Parameter_File>
/export/apps/rDock/src/rDock_2013.1_src/data/scripts/dock_solv.prm

>  <Rbt.Receptor>
prm/pocket_docking_4.prm

>  <SCORE>
-14.0493

>  <SCORE.INTER>
-14.9319

>  <SCORE.INTER.CONST>
1

>  <SCORE.INTER.POLAR>
0

>  <SCORE.INTER.ROT>
8

>  <SCORE.INTER.SOLV>
19.6809

>  <SCORE.INTER.VDW>
-25.4482

>  <SCORE.INTER.norm>
-0.574303

>  <SCORE.INTRA>
0.88255

>  <SCORE.INTRA.DIHEDRAL>
-0.420901

>  <SCORE.INTRA.DIHEDRAL.0>
8.13976

>  <SCORE.INTRA.POLAR>
0

>  <SCORE.INTRA.POLAR.0>
0

>  <SCORE.INTRA.REPUL>
0.0026969

>  <SCORE.INTRA.REPUL.0>
0

>  <SCORE.INTRA.SOLV>
2.65202

>  <SCORE.INTRA.SOLV.lig_0>
-82.9561

>  <SCORE.INTRA.VDW>
-0.246492

>  <SCORE.INTRA.VDW.0>
-3.29171

>  <SCORE.INTRA.norm>
0.0339442

>  <SCORE.RESTR>
0

>  <SCORE.RESTR.CAVITY>
0

>  <SCORE.RESTR.norm>
0

>  <SCORE.SYSTEM>
0

>  <SCORE.SYSTEM.CONST>
0

>  <SCORE.SYSTEM.DIHEDRAL>
0

>  <SCORE.SYSTEM.SOLV>
0

>  <SCORE.SYSTEM.norm>
0

>  <SCORE.heavy>
26

>  <SCORE.norm>
-0.540358

>  <RMSD>
3.220

$$$$
ligand
 OpenBabel11021811433D
libRbt.so/2013.1/901 2013/11/27
 26 27  0  0  0  0  0  0  0  0999 V2000
  -13.6622  -10.0076    0.3552 C   0  0  0  0  0  0  0  0  0  0  0  0
  -21.4438  -12.7202   -1.1813 C   0  0  0  0  0  0  0  0  0  0  0  0
  -20.4064  -16.7356    2.2933 P   0  0  1  0  0  0  0  0  0  0  0  0
  -21.4647  -19.3663    1.6465 P   0  0  1  0  0  0  0  0  0  0  0  0
  -19.2265  -10.7632   -0.8695 C   0  0  0  0  0  0  0  0  0  0  0  0
  -17.2040   -9.2910   -0.5062 C   0  0  0  0  0  0  0  0  0  0  0  0
  -17.7531  -10.5660   -0.5557 C   0  0  0  0  0  0  0  0  0  0  0  0
  -16.9337  -11.6533   -0.3001 C   0  0  0  0  0  0  0  0  0  0  0  0
  -17.4238  -12.9161   -0.3380 N   0  0  0  0  0  0  0  0  0  0  0  0
  -15.6298  -11.4530   -0.0097 N   0  0  0  0  0  0  0  0  0  0  0  0
  -15.1185  -10.2032    0.0310 C   0  0  0  0  0  0  0  0  0  0  0  0
  -15.9054   -9.1278   -0.2176 N   0  0  0  0  0  0  0  0  0  0  0  0
  -19.6634  -17.0122    3.5739 O   0  5  0  0  0  0  0  0  0  0  0  0
  -20.6246  -19.3559    0.4065 O   0  0  0  0  0  0  0  0  0  0  0  0
  -20.6595  -11.7903    2.6912 S   0  0  0  0  0  0  0  0  0  0  0  0
  -19.6278  -10.9605    1.5687 C   0  0  0  0  0  0  0  0  0  0  0  0
  -19.5950  -16.6309    1.0342 O   0  0  0  0  0  0  0  0  0  0  0  0
  -20.7263  -20.0665    2.7381 O   0  5  0  0  0  0  0  0  0  0  0  0
  -19.9347  -11.3091    0.2884 N   0  0  0  0  0  0  0  0  0  0  0  0
  -21.5929  -17.8304    2.1501 O   0  0  0  0  0  0  0  0  0  0  0  0
  -22.8749  -19.8643    1.4834 O   0  0  0  0  0  0  0  0  0  0  0  0
  -20.9495  -12.2050    0.1441 C   0  0  1  0  0  0  0  0  0  0  0  0
  -21.5304  -12.6072    1.4538 C   0  0  1  0  0  0  0  0  0  0  0  0
  -22.6340  -13.5387    1.8797 C   0  0  0  0  0  0  0  0  0  0  0  0
  -22.2172  -14.9661    1.5618 C   0  0  0  0  0  0  0  0  0  0  0  0
  -21.1799  -15.3364    2.4618 O   0  0  0  0  0  0  0  0  0  0  0  0
  1 11  1  0  0  0  0
  3 13  1  1  0  0  0
  3 17  2  0  0  0  0
  3 20  1  0  0  0  0
  3 26  1  0  0  0  0
  4 14  1  6  0  0  0
  4 18  1  0  0  0  0
  4 21  2  0  0  0  0
  4 20  1  0  0  0  0
  5 19  1  0  0  0  0
  5  7  1  0  0  0  0
  6  7  2  0  0  0  0
  6 12  1  0  0  0  0
  7  8  1  0  0  0  0
  8  9  1  0  0  0  0
  8 10  2  0  0  0  0
 10 11  1  0  0  0  0
 11 12  2  0  0  0  0
 15 23  1  0  0  0  0
 15 16  1  0  0  0  0
 16 19  1  0  0  0  0
 19 22  1  0  0  0  0
 22  2  1  6  0  0  0
 22 23  1  0  0  0  0
 23 24  1  1  0  0  0
 24 25  1  0  0  0  0
 25 26  1  0  0  0  0
M  CHG  2  13  -1  18  -1
M  END
>  <CHROM.1>
-79.35280778,35.98545774,-113.81912327,-46.46229742,-111.61769268,70.89345647
-173.48877124,-164.54138676,-19.70483878,-14.26030120,1.12776654,-1.07982970
-0.19087051,3.01370580

>  <Name>
ligand

>  <RI>
0

>  <Rbt.Current_Directory>
/home/itssahil/PROJECTS/Mol_Feturizer/New_Systems/rnas/2GDI

>  <Rbt.Executable>
rbdock ($Id: //depot/dev/client3/rdock/2013.1/src/exe/rbdock.cxx#4 $)

>  <Rbt.Library>
libRbt.so (2013.1, Build901 2013/11/27)

>  <Rbt.Parameter_File>
/export/apps/rDock/src/rDock_2013.1_src/data/scripts/dock_solv.prm

>  <Rbt.Receptor>
prm/pocket_docking_4.prm

>  <SCORE>
-15.7288

>  <SCORE.INTER>
-15.0266

>  <SCORE.INTER.CONST>
1

>  <SCORE.INTER.POLAR>
0

>  <SCORE.INTER.ROT>
8

>  <SCORE.INTER.SOLV>
20.3811

>  <SCORE.INTER.VDW>
-25.7448

>  <SCORE.INTER.norm>
-0.577948

>  <SCORE.INTRA>
-0.702147

>  <SCORE.INTRA.DIHEDRAL>
-2.20067

>  <SCORE.INTRA.DIHEDRAL.0>
8.13976

>  <SCORE.INTRA.POLAR>
0

>  <SCORE.INTRA.POLAR.0>
0

>  <SCORE.INTRA.REPUL>
0

>  <SCORE.INTRA.REPUL.0>
0

>  <SCORE.INTRA.SOLV>
2.16439

>  <SCORE.INTRA.SOLV.lig_0>
-82.9561

>  <SCORE.INTRA.VDW>
-0.684009

>  <SCORE.INTRA.VDW.0>
-3.29171

>  <SCORE.INTRA.norm>
-0.0270057

>  <SCORE.RESTR>
0

>  <SCORE.RESTR.CAVITY>
0

>  <SCORE.RESTR.norm>
0

>  <SCORE.SYSTEM>
0

>  <SCORE.SYSTEM.CONST>
0

>  <SCORE.SYSTEM.DIHEDRAL>
0

>  <SCORE.SYSTEM.SOLV>
0

>  <SCORE.SYSTEM.norm>
0

>  <SCORE.heavy>
26

>  <SCORE.norm>
-0.604953

>  <RMSD>
3.225

$$$$
ligand
 OpenBabel11021811433D
libRbt.so/2013.1/901 2013/11/27
 26 27  0  0  0  0  0  0  0  0999 V2000
  -13.4353  -10.6108    0.2662 C   0  0  0  0  0  0  0  0  0  0  0  0
  -21.2079  -12.5743   -1.2811 C   0  0  0  0  0  0  0  0  0  0  0  0
  -20.2098  -16.7793    1.3642 P   0  0  1  0  0  0  0  0  0  0  0  0
  -21.3938  -19.3702    1.9508 P   0  0  1  0  0  0  0  0  0  0  0  0
  -19.0868  -10.5516   -0.7783 C   0  0  0  0  0  0  0  0  0  0  0  0
  -16.8835   -9.3824   -0.3673 C   0  0  0  0  0  0  0  0  0  0  0  0
  -17.5910  -10.5691   -0.5124 C   0  0  0  0  0  0  0  0  0  0  0  0
  -16.9082  -11.7688   -0.3965 C   0  0  0  0  0  0  0  0  0  0  0  0
  -17.5553  -12.9517   -0.5315 N   0  0  0  0  0  0  0  0  0  0  0  0
  -15.5808  -11.7600   -0.1461 N   0  0  0  0  0  0  0  0  0  0  0  0
  -14.9143  -10.5928   -0.0106 C   0  0  0  0  0  0  0  0  0  0  0  0
  -15.5661   -9.4096   -0.1221 N   0  0  0  0  0  0  0  0  0  0  0  0
  -19.5806  -16.8040    2.7324 O   0  5  0  0  0  0  0  0  0  0  0  0
  -20.1227  -20.0192    1.4962 O   0  0  0  0  0  0  0  0  0  0  0  0
  -20.6126  -11.8226    2.6632 S   0  0  0  0  0  0  0  0  0  0  0  0
  -19.5734  -10.8944    1.6281 C   0  0  0  0  0  0  0  0  0  0  0  0
  -19.2964  -16.9346    0.1824 O   0  0  0  0  0  0  0  0  0  0  0  0
  -21.3501  -19.1800    3.4304 O   0  5  0  0  0  0  0  0  0  0  0  0
  -19.8160  -11.1858    0.3200 N   0  0  0  0  0  0  0  0  0  0  0  0
  -21.4095  -17.8687    1.3391 O   0  0  0  0  0  0  0  0  0  0  0  0
  -22.6687  -20.0178    1.4833 O   0  0  0  0  0  0  0  0  0  0  0  0
  -20.7868  -12.1117    0.0883 C   0  0  1  0  0  0  0  0  0  0  0  0
  -21.4007  -12.6057    1.3506 C   0  0  1  0  0  0  0  0  0  0  0  0
  -22.4807  -13.6009    1.6824 C   0  0  0  0  0  0  0  0  0  0  0  0
  -21.8287  -14.8742    2.1979 C   0  0  0  0  0  0  0  0  0  0  0  0
  -20.9567  -15.3668    1.1879 O   0  0  0  0  0  0  0  0  0  0  0  0
  1 11  1  0  0  0  0
  3 13  1  1  0  0  0
  3 17  2  0  0  0  0
  3 20  1  0  0  0  0
  3 26  1  0  0  0  0
  4 14  1  6  0  0  0
  4 18  1  0  0  0  0
  4 21  2  0  0  0  0
  4 20  1  0  0  0  0
  5 19  1  0  0  0  0
  5  7  1  0  0  0  0
  6  7  2  0  0  0  0
  6 12  1  0  0  0  0
  7  8  1  0  0  0  0
  8  9  1  0  0  0  0
  8 10  2  0  0  0  0
 10 11  1  0  0  0  0
 11 12  2  0  0  0  0
 15 23  1  0  0  0  0
 15 16  1  0  0  0  0
 16 19  1  0  0  0  0
 19 22  1  0  0  0  0
 22  2  1  6  0  0  0
 22 23  1  0  0  0  0
 23 24  1  1  0  0  0
 24 25  1  0  0  0  0
 25 26  1  0  0  0  0
M  CHG  2  13  -1  18  -1
M  END
>  <CHROM.1>
-42.84040938,47.47397314,-116.98781924,-47.48274095,-74.68130058,-58.71073438
-174.42578086,-48.58339999,-19.56558185,-14.30764472,1.00558723,-1.07042005
-0.22182993,3.03195288

>  <Name>
ligand

>  <RI>
0

>  <Rbt.Current_Directory>
/home/itssahil/PROJECTS/Mol_Feturizer/New_Systems/rnas/2GDI

>  <Rbt.Executable>
rbdock ($Id: //depot/dev/client3/rdock/2013.1/src/exe/rbdock.cxx#4 $)

>  <Rbt.Library>
libRbt.so (2013.1, Build901 2013/11/27)

>  <Rbt.Parameter_File>
/export/apps/rDock/src/rDock_2013.1_src/data/scripts/dock_solv.prm

>  <Rbt.Receptor>
prm/pocket_docking_4.prm

>  <SCORE>
-16.3906

>  <SCORE.INTER>
-16.0803

>  <SCORE.INTER.CONST>
1

>  <SCORE.INTER.POLAR>
0

>  <SCORE.INTER.ROT>
8

>  <SCORE.INTER.SOLV>
18.5912

>  <SCORE.INTER.VDW>
-25.8506

>  <SCORE.INTER.norm>
-0.618473

>  <SCORE.INTRA>
-0.310346

>  <SCORE.INTRA.DIHEDRAL>
-1.9542

>  <SCORE.INTRA.DIHEDRAL.0>
8.13976

>  <SCORE.INTRA.POLAR>
0

>  <SCORE.INTRA.POLAR.0>
0

>  <SCORE.INTRA.REPUL>
0

>  <SCORE.INTRA.REPUL.0>
0

>  <SCORE.INTRA.SOLV>
2.79291

>  <SCORE.INTRA.SOLV.lig_0>
-82.9561

>  <SCORE.INTRA.VDW>
-0.729703

>  <SCORE.INTRA.VDW.0>
-3.29171

>  <SCORE.INTRA.norm>
-0.0119364

>  <SCORE.RESTR>
0

>  <SCORE.RESTR.CAVITY>
0

>  <SCORE.RESTR.norm>
0

>  <SCORE.SYSTEM>
0

>  <SCORE.SYSTEM.CONST>
0

>  <SCORE.SYSTEM.DIHEDRAL>
0

>  <SCORE.SYSTEM.SOLV>
0

>  <SCORE.SYSTEM.norm>
0

>  <SCORE.heavy>
26

>  <SCORE.norm>
-0.63041

>  <RMSD>
3.227

$$$$
ligand
 OpenBabel11021811433D
libRbt.so/2013.1/901 2013/11/27
 26 27  0  0  0  0  0  0  0  0999 V2000
  -12.5964   -8.1846   -0.3550 C   0  0  0  0  0  0  0  0  0  0  0  0
  -17.2984  -12.2739   -1.1983 C   0  0  0  0  0  0  0  0  0  0  0  0
  -23.3355  -13.5970   -2.4141 P   0  0  1  0  0  0  0  0  0  0  0  0
  -22.8050  -16.3401   -3.2217 P   0  0  1  0  0  0  0  0  0  0  0  0
  -16.0374  -12.4015    1.4918 C   0  0  0  0  0  0  0  0  0  0  0  0
  -13.9586  -11.5752    0.3143 C   0  0  0  0  0  0  0  0  0  0  0  0
  -15.1237  -11.2859    1.0133 C   0  0  0  0  0  0  0  0  0  0  0  0
  -15.4429   -9.9595    1.2536 C   0  0  0  0  0  0  0  0  0  0  0  0
  -16.5682   -9.6282    1.9322 N   0  0  0  0  0  0  0  0  0  0  0  0
  -14.6226   -8.9838    0.8067 N   0  0  0  0  0  0  0  0  0  0  0  0
  -13.4940   -9.2904    0.1305 C   0  0  0  0  0  0  0  0  0  0  0  0
  -13.1655  -10.5828   -0.1127 N   0  0  0  0  0  0  0  0  0  0  0  0
  -24.0852  -13.1608   -3.6454 O   0  5  0  0  0  0  0  0  0  0  0  0
  -23.7464  -16.8228   -2.1614 O   0  0  0  0  0  0  0  0  0  0  0  0
  -19.8497  -11.3295    1.8142 S   0  0  0  0  0  0  0  0  0  0  0  0
  -18.2534  -11.7228    2.3711 C   0  0  0  0  0  0  0  0  0  0  0  0
  -24.1452  -13.9101   -1.1888 O   0  0  0  0  0  0  0  0  0  0  0  0
  -23.5440  -16.1953   -4.5102 O   0  5  0  0  0  0  0  0  0  0  0  0
  -17.4421  -12.0302    1.3214 N   0  0  0  0  0  0  0  0  0  0  0  0
  -22.3673  -14.8311   -2.8217 O   0  0  0  0  0  0  0  0  0  0  0  0
  -21.5236  -17.1147   -3.3680 O   0  0  0  0  0  0  0  0  0  0  0  0
  -18.0181  -11.9723    0.0891 C   0  0  1  0  0  0  0  0  0  0  0  0
  -19.4455  -11.5574    0.1584 C   0  0  1  0  0  0  0  0  0  0  0  0
  -20.5331  -11.3369   -0.8592 C   0  0  0  0  0  0  0  0  0  0  0  0
  -21.3089  -12.6332   -1.0323 C   0  0  0  0  0  0  0  0  0  0  0  0
  -22.3210  -12.4179   -2.0082 O   0  0  0  0  0  0  0  0  0  0  0  0
  1 11  1  0  0  0  0
  3 13  1  6  0  0  0
  3 17  2  0  0  0  0
  3 20  1  0  0  0  0
  3 26  1  0  0  0  0
  4 14  1  1  0  0  0
  4 18  1  0  0  0  0
  4 21  2  0  0  0  0
  4 20  1  0  0  0  0
  5 19  1  0  0  0  0
  5  7  1  0  0  0  0
  6  7  2  0  0  0  0
  6 12  1  0  0  0  0
  7  8  1  0  0  0  0
  8  9  1  0  0  0  0
  8 10  2  0  0  0  0
 10 11  1  0  0  0  0
 11 12  2  0  0  0  0
 15 23  1  0  0  0  0
 15 16  1  0  0  0  0
 16 19  1  0  0  0  0
 19 22  1  0  0  0  0
 22  2  1  6  0  0  0
 22 23  1  0  0  0  0
 23 24  1  1  0  0  0
 24 25  1  0  0  0  0
 25 26  1  0  0  0  0
M  CHG  2  13  -1  18  -1
M  END
>  <CHROM.1>
-70.06068400,-108.05591218,-140.29803012,-49.90320731,-86.91011837,-179.22608707
-179.29527552,-168.57419365,-19.47645213,-12.63834086,-0.81600211,-0.63144900
-0.10895219,-2.35988591

>  <Name>
ligand

>  <RI>
0

>  <Rbt.Current_Directory>
/home/itssahil/PROJECTS/Mol_Feturizer/New_Systems/rnas/2GDI

>  <Rbt.Executable>
rbdock ($Id: //depot/dev/client3/rdock/2013.1/src/exe/rbdock.cxx#4 $)

>  <Rbt.Library>
libRbt.so (2013.1, Build901 2013/11/27)

>  <Rbt.Parameter_File>
/export/apps/rDock/src/rDock_2013.1_src/data/scripts/dock_solv.prm

>  <Rbt.Receptor>
prm/pocket_docking_8.prm

>  <SCORE>
-17.2392

>  <SCORE.INTER>
-17.4554

>  <SCORE.INTER.CONST>
1

>  <SCORE.INTER.POLAR>
0

>  <SCORE.INTER.ROT>
8

>  <SCORE.INTER.SOLV>
14.8118

>  <SCORE.INTER.VDW>
-25.5075

>  <SCORE.INTER.norm>
-0.671361

>  <SCORE.INTRA>
0.216183

>  <SCORE.INTRA.DIHEDRAL>
-3.01509

>  <SCORE.INTRA.DIHEDRAL.0>
8.13976

>  <SCORE.INTRA.POLAR>
0

>  <SCORE.INTRA.POLAR.0>
0

>  <SCORE.INTRA.REPUL>
0

>  <SCORE.INTRA.REPUL.0>
0

>  <SCORE.INTRA.SOLV>
3.60035

>  <SCORE.INTRA.SOLV.lig_0>
-82.9561

>  <SCORE.INTRA.VDW>
-0.0764471

>  <SCORE.INTRA.VDW.0>
-3.29171

>  <SCORE.INTRA.norm>
0.00831475

>  <SCORE.RESTR>
0

>  <SCORE.RESTR.CAVITY>
0

>  <SCORE.RESTR.norm>
0

>  <SCORE.SYSTEM>
0

>  <SCORE.SYSTEM.CONST>
0

>  <SCORE.SYSTEM.DIHEDRAL>
0

>  <SCORE.SYSTEM.SOLV>
0

>  <SCORE.SYSTEM.norm>
0

>  <SCORE.heavy>
26

>  <SCORE.norm>
-0.663047

>  <RMSD>
3.227

$$$$
ligand
 OpenBabel11021811433D
libRbt.so/2013.1/901 2013/11/27
 26 27  0  0  0  0  0  0  0  0999 V2000
  -13.6116  -10.6914    0.2547 C   0  0  0  0  0  0  0  0  0  0  0  0
  -21.4310  -12.5649   -1.3275 C   0  0  0  0  0  0  0  0  0  0  0  0
  -25.1700  -14.9133    3.0420 P   0  0  1  0  0  0  0  0  0  0  0  0
  -24.1587  -17.6359    3.1966 P   0  0  1  0  0  0  0  0  0  0  0  0
  -19.2646  -10.6029   -0.7795 C   0  0  0  0  0  0  0  0  0  0  0  0
  -17.0581   -9.4454   -0.3532 C   0  0  0  0  0  0  0  0  0  0  0  0
  -17.7684  -10.6280   -0.5164 C   0  0  0  0  0  0  0  0  0  0  0  0
  -17.0880  -11.8309   -0.4210 C   0  0  0  0  0  0  0  0  0  0  0  0
  -17.7380  -13.0101   -0.5741 N   0  0  0  0  0  0  0  0  0  0  0  0
  -15.7603  -11.8291   -0.1727 N   0  0  0  0  0  0  0  0  0  0  0  0
  -15.0909  -10.6656   -0.0194 C   0  0  0  0  0  0  0  0  0  0  0  0
  -15.7404   -9.4794   -0.1106 N   0  0  0  0  0  0  0  0  0  0  0  0
  -26.5835  -15.4327    3.0700 O   0  5  0  0  0  0  0  0  0  0  0  0
  -23.0423  -18.3584    2.5074 O   0  0  0  0  0  0  0  0  0  0  0  0
  -20.7730  -11.9684    2.6333 S   0  0  0  0  0  0  0  0  0  0  0  0
  -19.7284  -11.0234    1.6190 C   0  0  0  0  0  0  0  0  0  0  0  0
  -24.6663  -14.2184    4.2742 O   0  0  0  0  0  0  0  0  0  0  0  0
  -23.8221  -17.4682    4.6408 O   0  5  0  0  0  0  0  0  0  0  0  0
  -19.9927  -11.2624    0.3046 N   0  0  0  0  0  0  0  0  0  0  0  0
  -24.1930  -16.1286    2.6000 O   0  0  0  0  0  0  0  0  0  0  0  0
  -25.5386  -18.1949    2.9803 O   0  0  0  0  0  0  0  0  0  0  0  0
  -20.9842  -12.1605    0.0521 C   0  0  1  0  0  0  0  0  0  0  0  0
  -21.5924  -12.6880    1.3037 C   0  0  1  0  0  0  0  0  0  0  0  0
  -22.6876  -13.6737    1.6132 C   0  0  0  0  0  0  0  0  0  0  0  0
  -23.9913  -12.9126    1.7958 C   0  0  0  0  0  0  0  0  0  0  0  0
  -25.0545  -13.8566    1.8361 O   0  0  0  0  0  0  0  0  0  0  0  0
  1 11  1  0  0  0  0
  3 13  1  1  0  0  0
  3 17  2  0  0  0  0
  3 20  1  0  0  0  0
  3 26  1  0  0  0  0
  4 14  1  6  0  0  0
  4 18  1  0  0  0  0
  4 21  2  0  0  0  0
  4 20  1  0  0  0  0
  5 19  1  0  0  0  0
  5  7  1  0  0  0  0
  6  7  2  0  0  0  0
  6 12  1  0  0  0  0
  7  8  1  0  0  0  0
  8  9  1  0  0  0  0
  8 10  2  0  0  0  0
 10 11  1  0  0  0  0
 11 12  2  0  0  0  0
 15 23  1  0  0  0  0
 15 16  1  0  0  0  0
 16 19  1  0  0  0  0
 19 22  1  0  0  0  0
 22  2  1  6  0  0  0
 22 23  1  0  0  0  0
 23 24  1  1  0  0  0
 24 25  1  0  0  0  0
 25 26  1  0  0  0  0
M  CHG  2  13  -1  18  -1
M  END
>  <CHROM.1>
-48.62086329,46.04544125,-117.42711503,-177.40699972,87.14620436,169.20555349
65.63746409,161.06090821,-21.36216149,-13.53771505,1.58083944,-0.64922319
-0.19050910,2.85561746

>  <Name>
ligand

>  <RI>
0

>  <Rbt.Current_Directory>
/home/itssahil/PROJECTS/Mol_Feturizer/New_Systems/rnas/2GDI

>  <Rbt.Executable>
rbdock ($Id: //depot/dev/client3/rdock/2013.1/src/exe/rbdock.cxx#4 $)

>  <Rbt.Library>
libRbt.so (2013.1, Build901 2013/11/27)

>  <Rbt.Parameter_File>
/export/apps/rDock/src/rDock_2013.1_src/data/scripts/dock_solv.prm

>  <Rbt.Receptor>
prm/pocket_docking_4.prm

>  <SCORE>
-10.0209

>  <SCORE.INTER>
-12.0586

>  <SCORE.INTER.CONST>
1

>  <SCORE.INTER.POLAR>
0

>  <SCORE.INTER.ROT>
8

>  <SCORE.INTER.SOLV>
16.4088

>  <SCORE.INTER.VDW>
-22.442

>  <SCORE.INTER.norm>
-0.463792

>  <SCORE.INTRA>
2.0377

>  <SCORE.INTRA.DIHEDRAL>
-1.34966

>  <SCORE.INTRA.DIHEDRAL.0>
8.13976

>  <SCORE.INTRA.POLAR>
0

>  <SCORE.INTRA.POLAR.0>
0

>  <SCORE.INTRA.REPUL>
0

>  <SCORE.INTRA.REPUL.0>
0

>  <SCORE.INTRA.SOLV>
5.31398

>  <SCORE.INTRA.SOLV.lig_0>
-82.9561

>  <SCORE.INTRA.VDW>
0.055545

>  <SCORE.INTRA.VDW.0>
-3.29171

>  <SCORE.INTRA.norm>
0.0783733

>  <SCORE.RESTR>
0

>  <SCORE.RESTR.CAVITY>
0

>  <SCORE.RESTR.norm>
0

>  <SCORE.SYSTEM>
0

>  <SCORE.SYSTEM.CONST>
0

>  <SCORE.SYSTEM.DIHEDRAL>
0

>  <SCORE.SYSTEM.SOLV>
0

>  <SCORE.SYSTEM.norm>
0

>  <SCORE.heavy>
26

>  <SCORE.norm>
-0.385419

>  <RMSD>
3.286

$$$$
ligand
 OpenBabel11021811433D
libRbt.so/2013.1/901 2013/11/27
 26 27  0  0  0  0  0  0  0  0999 V2000
  -12.8736   -8.5389   -0.1903 C   0  0  0  0  0  0  0  0  0  0  0  0
  -19.5606  -12.7260    0.9830 C   0  0  0  0  0  0  0  0  0  0  0  0
  -20.1847  -17.7434   -1.6900 P   0  0  1  0  0  0  0  0  0  0  0  0
  -22.8477  -18.2386   -0.6308 P   0  0  1  0  0  0  0  0  0  0  0  0
  -16.5894  -12.7277    1.1059 C   0  0  0  0  0  0  0  0  0  0  0  0
  -14.2743  -11.9082    0.5069 C   0  0  0  0  0  0  0  0  0  0  0  0
  -15.6064  -11.6180    0.7735 C   0  0  0  0  0  0  0  0  0  0  0  0
  -16.0235  -10.2983    0.7170 C   0  0  0  0  0  0  0  0  0  0  0  0
  -17.3127   -9.9662    0.9704 N   0  0  0  0  0  0  0  0  0  0  0  0
  -15.1348   -9.3298    0.4058 N   0  0  0  0  0  0  0  0  0  0  0  0
  -13.8439   -9.6368    0.1522 C   0  0  0  0  0  0  0  0  0  0  0  0
  -13.4179  -10.9226    0.2040 N   0  0  0  0  0  0  0  0  0  0  0  0
  -19.5472  -18.3294   -0.4576 O   0  5  0  0  0  0  0  0  0  0  0  0
  -23.1703  -16.7950   -0.3951 O   0  0  0  0  0  0  0  0  0  0  0  0
  -17.8154  -14.0264   -2.4434 S   0  0  0  0  0  0  0  0  0  0  0  0
  -16.6673  -13.5887   -1.2173 C   0  0  0  0  0  0  0  0  0  0  0  0
  -19.4553  -17.9148   -2.9913 O   0  0  0  0  0  0  0  0  0  0  0  0
  -24.0319  -18.9178   -1.2338 O   0  5  0  0  0  0  0  0  0  0  0  0
  -17.3065  -13.1614   -0.0932 N   0  0  0  0  0  0  0  0  0  0  0  0
  -21.7071  -18.2920   -1.7818 O   0  0  0  0  0  0  0  0  0  0  0  0
  -22.2812  -18.9879    0.5443 O   0  0  0  0  0  0  0  0  0  0  0  0
  -18.6668  -13.1600   -0.1481 C   0  0  1  0  0  0  0  0  0  0  0  0
  -19.1739  -13.6559   -1.4563 C   0  0  1  0  0  0  0  0  0  0  0  0
  -20.5418  -13.8600   -2.0515 C   0  0  0  0  0  0  0  0  0  0  0  0
  -20.6499  -15.2943   -2.5447 C   0  0  0  0  0  0  0  0  0  0  0  0
  -20.3495  -16.1613   -1.4579 O   0  0  0  0  0  0  0  0  0  0  0  0
  1 11  1  0  0  0  0
  3 13  1  1  0  0  0
  3 17  2  0  0  0  0
  3 20  1  0  0  0  0
  3 26  1  0  0  0  0
  4 14  1  1  0  0  0
  4 18  1  0  0  0  0
  4 21  2  0  0  0  0
  4 20  1  0  0  0  0
  5 19  1  0  0  0  0
  5  7  1  0  0  0  0
  6  7  2  0  0  0  0
  6 12  1  0  0  0  0
  7  8  1  0  0  0  0
  8  9  1  0  0  0  0
  8 10  2  0  0  0  0
 10 11  1  0  0  0  0
 11 12  2  0  0  0  0
 15 23  1  0  0  0  0
 15 16  1  0  0  0  0
 16 19  1  0  0  0  0
 19 22  1  0  0  0  0
 22  2  1  1  0  0  0
 22 23  1  0  0  0  0
 23 24  1  6  0  0  0
 24 25  1  0  0  0  0
 25 26  1  0  0  0  0
M  CHG  2  13  -1  18  -1
M  END
>  <CHROM.1>
52.29688727,55.47300938,-94.99978890,65.63576379,55.05733598,55.37090326
-171.88928117,166.25609785,-18.81120117,-14.56663460,-0.71455971,-0.73487983
-0.43014888,-2.53095701

>  <Name>
ligand

>  <RI>
0

>  <Rbt.Current_Directory>
/home/itssahil/PROJECTS/Mol_Feturizer/New_Systems/rnas/2GDI

>  <Rbt.Executable>
rbdock ($Id: //depot/dev/client3/rdock/2013.1/src/exe/rbdock.cxx#4 $)

>  <Rbt.Library>
libRbt.so (2013.1, Build901 2013/11/27)

>  <Rbt.Parameter_File>
/export/apps/rDock/src/rDock_2013.1_src/data/scripts/dock_solv.prm

>  <Rbt.Receptor>
prm/pocket_docking_6.prm

>  <SCORE>
-11.0447

>  <SCORE.INTER>
-10.4022

>  <SCORE.INTER.CONST>
1

>  <SCORE.INTER.POLAR>
0

>  <SCORE.INTER.ROT>
8

>  <SCORE.INTER.SOLV>
10.5839

>  <SCORE.INTER.VDW>
-19.3961

>  <SCORE.INTER.norm>
-0.400087

>  <SCORE.INTRA>
-0.642425

>  <SCORE.INTRA.DIHEDRAL>
-2.08781

>  <SCORE.INTRA.DIHEDRAL.0>
8.13976

>  <SCORE.INTRA.POLAR>
0

>  <SCORE.INTRA.POLAR.0>
0

>  <SCORE.INTRA.REPUL>
0

>  <SCORE.INTRA.REPUL.0>
0

>  <SCORE.INTRA.SOLV>
1.59768

>  <SCORE.INTRA.SOLV.lig_0>
-82.9561

>  <SCORE.INTRA.VDW>
-0.397357

>  <SCORE.INTRA.VDW.0>
-3.29171

>  <SCORE.INTRA.norm>
-0.0247086

>  <SCORE.RESTR>
0

>  <SCORE.RESTR.CAVITY>
0

>  <SCORE.RESTR.norm>
0

>  <SCORE.SYSTEM>
0

>  <SCORE.SYSTEM.CONST>
0

>  <SCORE.SYSTEM.DIHEDRAL>
0

>  <SCORE.SYSTEM.SOLV>
0

>  <SCORE.SYSTEM.norm>
0

>  <SCORE.heavy>
26

>  <SCORE.norm>
-0.424795

>  <RMSD>
3.302

$$$$
ligand
 OpenBabel11021811433D
libRbt.so/2013.1/901 2013/11/27
 26 27  0  0  0  0  0  0  0  0999 V2000
  -12.8971  -13.3918    0.2590 C   0  0  0  0  0  0  0  0  0  0  0  0
  -18.2249  -10.4532   -1.1278 C   0  0  0  0  0  0  0  0  0  0  0  0
  -21.9974  -15.0471   -0.2271 P   0  0  1  0  0  0  0  0  0  0  0  0
  -20.2708  -16.8222    1.2982 P   0  0  1  0  0  0  0  0  0  0  0  0
  -17.3741  -10.0873    1.6980 C   0  0  0  0  0  0  0  0  0  0  0  0
  -16.2205  -12.3308    1.5357 C   0  0  0  0  0  0  0  0  0  0  0  0
  -16.1856  -10.9579    1.3265 C   0  0  0  0  0  0  0  0  0  0  0  0
  -15.0512  -10.4002    0.7599 C   0  0  0  0  0  0  0  0  0  0  0  0
  -14.9705   -9.0658    0.5377 N   0  0  0  0  0  0  0  0  0  0  0  0
  -14.0122  -11.1957    0.4248 N   0  0  0  0  0  0  0  0  0  0  0  0
  -14.0691  -12.5282    0.6397 C   0  0  0  0  0  0  0  0  0  0  0  0
  -15.1707  -13.0908    1.1941 N   0  0  0  0  0  0  0  0  0  0  0  0
  -22.3641  -16.0515   -1.2878 O   0  5  0  0  0  0  0  0  0  0  0  0
  -20.2371  -17.7520    0.1244 O   0  0  0  0  0  0  0  0  0  0  0  0
  -20.8723  -11.9657    1.5518 S   0  0  0  0  0  0  0  0  0  0  0  0
  -19.4829  -11.2428    2.3001 C   0  0  0  0  0  0  0  0  0  0  0  0
  -23.0005  -13.9732    0.0818 O   0  0  0  0  0  0  0  0  0  0  0  0
  -19.0940  -15.9063    1.2373 O   0  5  0  0  0  0  0  0  0  0  0  0
  -18.6312  -10.7532    1.3569 N   0  0  0  0  0  0  0  0  0  0  0  0
  -21.5592  -15.8568    1.1068 O   0  0  0  0  0  0  0  0  0  0  0  0
  -20.4380  -17.4683    2.6465 O   0  0  0  0  0  0  0  0  0  0  0  0
  -19.0194  -10.9201    0.0627 C   0  0  1  0  0  0  0  0  0  0  0  0
  -20.3358  -11.6060   -0.0419 C   0  0  1  0  0  0  0  0  0  0  0  0
  -21.2156  -12.0372   -1.1852 C   0  0  0  0  0  0  0  0  0  0  0  0
  -20.6794  -13.3446   -1.7469 C   0  0  0  0  0  0  0  0  0  0  0  0
  -20.6521  -14.3015   -0.6949 O   0  0  0  0  0  0  0  0  0  0  0  0
  1 11  1  0  0  0  0
  3 13  1  6  0  0  0
  3 17  2  0  0  0  0
  3 20  1  0  0  0  0
  3 26  1  0  0  0  0
  4 14  1  6  0  0  0
  4 18  1  0  0  0  0
  4 21  2  0  0  0  0
  4 20  1  0  0  0  0
  5 19  1  0  0  0  0
  5  7  1  0  0  0  0
  6  7  2  0  0  0  0
  6 12  1  0  0  0  0
  7  8  1  0  0  0  0
  8  9  1  0  0  0  0
  8 10  2  0  0  0  0
 10 11  1  0  0  0  0
 11 12  2  0  0  0  0
 15 23  1  0  0  0  0
 15 16  1  0  0  0  0
 16 19  1  0  0  0  0
 19 22  1  0  0  0  0
 22  2  1  1  0  0  0
 22 23  1  0  0  0  0
 23 24  1  6  0  0  0
 24 25  1  0  0  0  0
 25 26  1  0  0  0  0
M  CHG  2  13  -1  18  -1
M  END
>  <CHROM.1>
65.63377959,109.38855442,-39.92631621,-47.83324202,-98.51762984,57.75266213
78.46079338,73.34577964,-19.03178774,-13.35574635,0.55528113,-0.64170675
0.15473167,3.02420723

>  <Name>
ligand

>  <RI>
0

>  <Rbt.Current_Directory>
/home/itssahil/PROJECTS/Mol_Feturizer/New_Systems/rnas/2GDI

>  <Rbt.Executable>
rbdock ($Id: //depot/dev/client3/rdock/2013.1/src/exe/rbdock.cxx#4 $)

>  <Rbt.Library>
libRbt.so (2013.1, Build901 2013/11/27)

>  <Rbt.Parameter_File>
/export/apps/rDock/src/rDock_2013.1_src/data/scripts/dock_solv.prm

>  <Rbt.Receptor>
prm/pocket_docking_5.prm

>  <SCORE>
-13.2838

>  <SCORE.INTER>
-12.464

>  <SCORE.INTER.CONST>
1

>  <SCORE.INTER.POLAR>
0

>  <SCORE.INTER.ROT>
8

>  <SCORE.INTER.SOLV>
17.3481

>  <SCORE.INTER.VDW>
-23.0254

>  <SCORE.INTER.norm>
-0.479384

>  <SCORE.INTRA>
-0.82265

>  <SCORE.INTRA.DIHEDRAL>
-1.36115

>  <SCORE.INTRA.DIHEDRAL.0>
8.13976

>  <SCORE.INTRA.POLAR>
0

>  <SCORE.INTRA.POLAR.0>
0

>  <SCORE.INTRA.REPUL>
0

>  <SCORE.INTRA.REPUL.0>
0

>  <SCORE.INTRA.SOLV>
2.2485

>  <SCORE.INTRA.SOLV.lig_0>
-82.9561

>  <SCORE.INTRA.VDW>
-1.26633

>  <SCORE.INTRA.VDW.0>
-3.29171

>  <SCORE.INTRA.norm>
-0.0316404

>  <SCORE.RESTR>
0.00286051

>  <SCORE.RESTR.CAVITY>
0.00286051

>  <SCORE.RESTR.norm>
0.000110019

>  <SCORE.SYSTEM>
0

>  <SCORE.SYSTEM.CONST>
0

>  <SCORE.SYSTEM.DIHEDRAL>
0

>  <SCORE.SYSTEM.SOLV>
0

>  <SCORE.SYSTEM.norm>
0

>  <SCORE.heavy>
26

>  <SCORE.norm>
-0.510914

>  <RMSD>
3.304

$$$$
ligand
 OpenBabel11021811433D
libRbt.so/2013.1/901 2013/11/27
 26 27  0  0  0  0  0  0  0  0999 V2000
  -12.6221   -8.0447   -0.5180 C   0  0  0  0  0  0  0  0  0  0  0  0
  -18.1537  -12.1856    0.2983 C   0  0  0  0  0  0  0  0  0  0  0  0
  -22.2741  -14.1420   -2.2040 P   0  0  1  0  0  0  0  0  0  0  0  0
  -24.1639  -14.2300    0.0051 P   0  0  1  0  0  0  0  0  0  0  0  0
  -15.3620  -12.8337    1.0918 C   0  0  0  0  0  0  0  0  0  0  0  0
  -13.4643  -11.6351   -0.0710 C   0  0  0  0  0  0  0  0  0  0  0  0
  -14.6336  -11.5669    0.6759 C   0  0  0  0  0  0  0  0  0  0  0  0
  -15.1295  -10.3208    1.0225 C   0  0  0  0  0  0  0  0  0  0  0  0
  -16.2660  -10.2041    1.7512 N   0  0  0  0  0  0  0  0  0  0  0  0
  -14.4724   -9.2079    0.6299 N   0  0  0  0  0  0  0  0  0  0  0  0
  -13.3359   -9.2999   -0.0947 C   0  0  0  0  0  0  0  0  0  0  0  0
  -12.8357  -10.5109   -0.4419 N   0  0  0  0  0  0  0  0  0  0  0  0
  -23.3425  -14.2664   -3.2583 O   0  5  0  0  0  0  0  0  0  0  0  0
  -25.3417  -14.3599   -0.9111 O   0  0  0  0  0  0  0  0  0  0  0  0
  -16.3986  -14.9361   -2.1164 S   0  0  0  0  0  0  0  0  0  0  0  0
  -15.3585  -14.3877   -0.8395 C   0  0  0  0  0  0  0  0  0  0  0  0
  -21.6543  -12.7886   -2.0070 O   0  0  0  0  0  0  0  0  0  0  0  0
  -24.3061  -15.1965    1.1332 O   0  5  0  0  0  0  0  0  0  0  0  0
  -15.9971  -13.4693   -0.0627 N   0  0  0  0  0  0  0  0  0  0  0  0
  -22.8612  -14.7379   -0.8158 O   0  0  0  0  0  0  0  0  0  0  0  0
  -23.8397  -12.8359    0.4686 O   0  0  0  0  0  0  0  0  0  0  0  0
  -17.2753  -13.1715   -0.4249 C   0  0  1  0  0  0  0  0  0  0  0  0
  -17.7146  -13.9493   -1.6150 C   0  0  1  0  0  0  0  0  0  0  0  0
  -18.9835  -14.0202   -2.4224 C   0  0  0  0  0  0  0  0  0  0  0  0
  -19.8560  -15.1327   -1.8628 C   0  0  0  0  0  0  0  0  0  0  0  0
  -21.0789  -15.1456   -2.5892 O   0  0  0  0  0  0  0  0  0  0  0  0
  1 11  1  0  0  0  0
  3 13  1  6  0  0  0
  3 17  2  0  0  0  0
  3 20  1  0  0  0  0
  3 26  1  0  0  0  0
  4 14  1  6  0  0  0
  4 18  1  0  0  0  0
  4 21  2  0  0  0  0
  4 20  1  0  0  0  0
  5 19  1  0  0  0  0
  5  7  1  0  0  0  0
  6  7  2  0  0  0  0
  6 12  1  0  0  0  0
  7  8  1  0  0  0  0
  8  9  1  0  0  0  0
  8 10  2  0  0  0  0
 10 11  1  0  0  0  0
 11 12  2  0  0  0  0
 15 23  1  0  0  0  0
 15 16  1  0  0  0  0
 16 19  1  0  0  0  0
 19 22  1  0  0  0  0
 22  2  1  1  0  0  0
 22 23  1  0  0  0  0
 23 24  1  6  0  0  0
 24 25  1  0  0  0  0
 25 26  1  0  0  0  0
M  CHG  2  13  -1  18  -1
M  END
>  <CHROM.1>
-59.70680375,89.28306333,-71.07391969,59.28671791,88.53961984,177.09878707
-82.86046207,172.44799028,-18.89818138,-13.05573689,-0.72113546,0.35182453
0.14152516,0.65797702

>  <Name>
ligand

>  <RI>
0

>  <Rbt.Current_Directory>
/home/itssahil/PROJECTS/Mol_Feturizer/New_Systems/rnas/2GDI

>  <Rbt.Executable>
rbdock ($Id: //depot/dev/client3/rdock/2013.1/src/exe/rbdock.cxx#4 $)

>  <Rbt.Library>
libRbt.so (2013.1, Build901 2013/11/27)

>  <Rbt.Parameter_File>
/export/apps/rDock/src/rDock_2013.1_src/data/scripts/dock_solv.prm

>  <Rbt.Receptor>
prm/pocket_docking_4.prm

>  <SCORE>
-12.2204

>  <SCORE.INTER>
-13.4775

>  <SCORE.INTER.CONST>
1

>  <SCORE.INTER.POLAR>
0

>  <SCORE.INTER.ROT>
8

>  <SCORE.INTER.SOLV>
13.2459

>  <SCORE.INTER.VDW>
-22.3337

>  <SCORE.INTER.norm>
-0.518366

>  <SCORE.INTRA>
1.25712

>  <SCORE.INTRA.DIHEDRAL>
-0.548374

>  <SCORE.INTRA.DIHEDRAL.0>
8.13976

>  <SCORE.INTRA.POLAR>
0

>  <SCORE.INTRA.POLAR.0>
0

>  <SCORE.INTRA.REPUL>
0

>  <SCORE.INTRA.REPUL.0>
0

>  <SCORE.INTRA.SOLV>
3.32491

>  <SCORE.INTRA.SOLV.lig_0>
-82.9561

>  <SCORE.INTRA.VDW>
-0.13115

>  <SCORE.INTRA.VDW.0>
-3.29171

>  <SCORE.INTRA.norm>
0.0483507

>  <SCORE.RESTR>
0

>  <SCORE.RESTR.CAVITY>
0

>  <SCORE.RESTR.norm>
0

>  <SCORE.SYSTEM>
0

>  <SCORE.SYSTEM.CONST>
0

>  <SCORE.SYSTEM.DIHEDRAL>
0

>  <SCORE.SYSTEM.SOLV>
0

>  <SCORE.SYSTEM.norm>
0

>  <SCORE.heavy>
26

>  <SCORE.norm>
-0.470016

>  <RMSD>
3.311

$$$$
ligand
 OpenBabel11021811433D
libRbt.so/2013.1/901 2013/11/27
 26 27  0  0  0  0  0  0  0  0999 V2000
  -14.2346   -9.8971    0.3597 C   0  0  0  0  0  0  0  0  0  0  0  0
  -21.7327  -13.6547   -0.6343 C   0  0  0  0  0  0  0  0  0  0  0  0
  -25.3576  -15.6816    2.9348 P   0  0  1  0  0  0  0  0  0  0  0  0
  -24.1844  -18.1813    2.0217 P   0  0  1  0  0  0  0  0  0  0  0  0
  -19.6076  -11.5806   -0.7935 C   0  0  0  0  0  0  0  0  0  0  0  0
  -17.8289   -9.7979   -0.5739 C   0  0  0  0  0  0  0  0  0  0  0  0
  -18.1843  -11.1387   -0.4983 C   0  0  0  0  0  0  0  0  0  0  0  0
  -17.2186  -12.0631   -0.1351 C   0  0  0  0  0  0  0  0  0  0  0  0
  -17.5177  -13.3820   -0.0490 N   0  0  0  0  0  0  0  0  0  0  0  0
  -15.9630  -11.6454    0.1362 N   0  0  0  0  0  0  0  0  0  0  0  0
  -15.6411  -10.3359    0.0540 C   0  0  0  0  0  0  0  0  0  0  0  0
  -16.5729   -9.4177   -0.3008 N   0  0  0  0  0  0  0  0  0  0  0  0
  -26.8002  -16.0431    3.1730 O   0  5  0  0  0  0  0  0  0  0  0  0
  -25.2528  -18.9741    2.7098 O   0  0  0  0  0  0  0  0  0  0  0  0
  -21.1419  -11.6930    2.8700 S   0  0  0  0  0  0  0  0  0  0  0  0
  -20.0988  -11.1424    1.5964 C   0  0  0  0  0  0  0  0  0  0  0  0
  -24.4585  -15.6059    4.1351 O   0  0  0  0  0  0  0  0  0  0  0  0
  -23.9831  -18.7154    0.6427 O   0  5  0  0  0  0  0  0  0  0  0  0
  -20.3401  -11.8328    0.4475 N   0  0  0  0  0  0  0  0  0  0  0  0
  -24.7647  -16.6827    1.8065 O   0  0  0  0  0  0  0  0  0  0  0  0
  -22.8942  -18.0177    2.7780 O   0  0  0  0  0  0  0  0  0  0  0  0
  -21.3127  -12.7828    0.5189 C   0  0  1  0  0  0  0  0  0  0  0  0
  -21.9298  -12.8503    1.8714 C   0  0  1  0  0  0  0  0  0  0  0  0
  -23.0126  -13.6872    2.4990 C   0  0  0  0  0  0  0  0  0  0  0  0
  -24.1688  -13.8040    1.5182 C   0  0  0  0  0  0  0  0  0  0  0  0
  -25.3186  -14.2341    2.2366 O   0  0  0  0  0  0  0  0  0  0  0  0
  1 11  1  0  0  0  0
  3 13  1  1  0  0  0
  3 17  2  0  0  0  0
  3 20  1  0  0  0  0
  3 26  1  0  0  0  0
  4 14  1  1  0  0  0
  4 18  1  0  0  0  0
  4 21  2  0  0  0  0
  4 20  1  0  0  0  0
  5 19  1  0  0  0  0
  5  7  1  0  0  0  0
  6  7  2  0  0  0  0
  6 12  1  0  0  0  0
  7  8  1  0  0  0  0
  8  9  1  0  0  0  0
  8 10  2  0  0  0  0
 10 11  1  0  0  0  0
 11 12  2  0  0  0  0
 15 23  1  0  0  0  0
 15 16  1  0  0  0  0
 16 19  1  0  0  0  0
 19 22  1  0  0  0  0
 22  2  1  6  0  0  0
 22 23  1  0  0  0  0
 23 24  1  1  0  0  0
 24 25  1  0  0  0  0
 25 26  1  0  0  0  0
M  CHG  2  13  -1  18  -1
M  END
>  <CHROM.1>
-83.10949974,31.89225966,-101.47653443,55.08950437,138.22032181,-162.85659261
-64.46136835,-160.18242061,-21.61200138,-13.93547034,1.44319979,-0.58479549
-0.41345035,-2.96881444

>  <Name>
ligand

>  <RI>
0

>  <Rbt.Current_Directory>
/home/itssahil/PROJECTS/Mol_Feturizer/New_Systems/rnas/2GDI

>  <Rbt.Executable>
rbdock ($Id: //depot/dev/client3/rdock/2013.1/src/exe/rbdock.cxx#4 $)

>  <Rbt.Library>
libRbt.so (2013.1, Build901 2013/11/27)

>  <Rbt.Parameter_File>
/export/apps/rDock/src/rDock_2013.1_src/data/scripts/dock_solv.prm

>  <Rbt.Receptor>
prm/pocket_docking_6.prm

>  <SCORE>
-11.0673

>  <SCORE.INTER>
-12.5658

>  <SCORE.INTER.CONST>
1

>  <SCORE.INTER.POLAR>
0

>  <SCORE.INTER.ROT>
8

>  <SCORE.INTER.SOLV>
12.4093

>  <SCORE.INTER.VDW>
-21.4469

>  <SCORE.INTER.norm>
-0.483298

>  <SCORE.INTRA>
1.49845

>  <SCORE.INTRA.DIHEDRAL>
-1.39977

>  <SCORE.INTRA.DIHEDRAL.0>
8.13976

>  <SCORE.INTRA.POLAR>
0

>  <SCORE.INTRA.POLAR.0>
0

>  <SCORE.INTRA.REPUL>
0

>  <SCORE.INTRA.REPUL.0>
0

>  <SCORE.INTRA.SOLV>
2.63461

>  <SCORE.INTRA.SOLV.lig_0>
-82.9561

>  <SCORE.INTRA.VDW>
0.88103

>  <SCORE.INTRA.VDW.0>
-3.29171

>  <SCORE.INTRA.norm>
0.0576328

>  <SCORE.RESTR>
0

>  <SCORE.RESTR.CAVITY>
0

>  <SCORE.RESTR.norm>
0

>  <SCORE.SYSTEM>
0

>  <SCORE.SYSTEM.CONST>
0

>  <SCORE.SYSTEM.DIHEDRAL>
0

>  <SCORE.SYSTEM.SOLV>
0

>  <SCORE.SYSTEM.norm>
0

>  <SCORE.heavy>
26

>  <SCORE.norm>
-0.425665

>  <RMSD>
3.331

$$$$
ligand
 OpenBabel11021811433D
libRbt.so/2013.1/901 2013/11/27
 26 27  0  0  0  0  0  0  0  0999 V2000
  -13.1112  -13.2415    0.2758 C   0  0  0  0  0  0  0  0  0  0  0  0
  -20.2915  -12.7819   -1.3158 C   0  0  0  0  0  0  0  0  0  0  0  0
  -22.7013  -16.8979    2.9536 P   0  0  1  0  0  0  0  0  0  0  0  0
  -21.3789  -19.2661    1.9039 P   0  0  1  0  0  0  0  0  0  0  0  0
  -18.2158  -10.7632   -0.6378 C   0  0  0  0  0  0  0  0  0  0  0  0
  -16.7105  -12.7909   -0.5260 C   0  0  0  0  0  0  0  0  0  0  0  0
  -16.8681  -11.4179   -0.3858 C   0  0  0  0  0  0  0  0  0  0  0  0
  -15.7691  -10.6558   -0.0251 C   0  0  0  0  0  0  0  0  0  0  0  0
  -15.8744   -9.3131    0.1249 N   0  0  0  0  0  0  0  0  0  0  0  0
  -14.5774  -11.2578    0.1803 N   0  0  0  0  0  0  0  0  0  0  0  0
  -14.4494  -12.5953    0.0394 C   0  0  0  0  0  0  0  0  0  0  0  0
  -15.5144  -13.3567   -0.3120 N   0  0  0  0  0  0  0  0  0  0  0  0
  -24.0467  -17.5748    2.9468 O   0  5  0  0  0  0  0  0  0  0  0  0
  -21.0326  -19.6534    3.3088 O   0  0  0  0  0  0  0  0  0  0  0  0
  -20.5216  -11.4725    2.5194 S   0  0  0  0  0  0  0  0  0  0  0  0
  -19.2308  -10.7345    1.6236 C   0  0  0  0  0  0  0  0  0  0  0  0
  -22.0379  -16.6959    4.2855 O   0  0  0  0  0  0  0  0  0  0  0  0
  -22.6490  -19.9399    1.5041 O   0  5  0  0  0  0  0  0  0  0  0  0
  -19.2010  -11.2092    0.3475 N   0  0  0  0  0  0  0  0  0  0  0  0
  -21.7340  -17.6842    1.9177 O   0  0  0  0  0  0  0  0  0  0  0  0
  -20.2844  -19.4327    0.8853 O   0  0  0  0  0  0  0  0  0  0  0  0
  -20.1507  -12.1335    0.0356 C   0  0  1  0  0  0  0  0  0  0  0  0
  -21.0509  -12.4197    1.1854 C   0  0  1  0  0  0  0  0  0  0  0  0
  -22.2330  -13.3266    1.4026 C   0  0  0  0  0  0  0  0  0  0  0  0
  -21.7443  -14.6232    2.0289 C   0  0  0  0  0  0  0  0  0  0  0  0
  -22.8768  -15.4401    2.2993 O   0  0  0  0  0  0  0  0  0  0  0  0
  1 11  1  0  0  0  0
  3 13  1  1  0  0  0
  3 17  2  0  0  0  0
  3 20  1  0  0  0  0
  3 26  1  0  0  0  0
  4 14  1  1  0  0  0
  4 18  1  0  0  0  0
  4 21  2  0  0  0  0
  4 20  1  0  0  0  0
  5 19  1  0  0  0  0
  5  7  1  0  0  0  0
  6  7  2  0  0  0  0
  6 12  1  0  0  0  0
  7  8  1  0  0  0  0
  8  9  1  0  0  0  0
  8 10  2  0  0  0  0
 10 11  1  0  0  0  0
 11 12  2  0  0  0  0
 15 23  1  0  0  0  0
 15 16  1  0  0  0  0
 16 19  1  0  0  0  0
 19 22  1  0  0  0  0
 22  2  1  6  0  0  0
 22 23  1  0  0  0  0
 23 24  1  1  0  0  0
 24 25  1  0  0  0  0
 25 26  1  0  0  0  0
M  CHG  2  13  -1  18  -1
M  END
>  <CHROM.1>
-54.89667715,77.01118463,65.18640951,-47.08297546,-83.38808978,176.72904448
179.33473319,-172.70818323,-19.78978767,-14.51497414,1.33240876,-0.85521873
-0.30559179,3.06656767

>  <Name>
ligand

>  <RI>
0

>  <Rbt.Current_Directory>
/home/itssahil/PROJECTS/Mol_Feturizer/New_Systems/rnas/2GDI

>  <Rbt.Executable>
rbdock ($Id: //depot/dev/client3/rdock/2013.1/src/exe/rbdock.cxx#4 $)

>  <Rbt.Library>
libRbt.so (2013.1, Build901 2013/11/27)

>  <Rbt.Parameter_File>
/export/apps/rDock/src/rDock_2013.1_src/data/scripts/dock_solv.prm

>  <Rbt.Receptor>
prm/pocket_docking_5.prm

>  <SCORE>
-11.9168

>  <SCORE.INTER>
-10.3453

>  <SCORE.INTER.CONST>
1

>  <SCORE.INTER.POLAR>
0

>  <SCORE.INTER.ROT>
8

>  <SCORE.INTER.SOLV>
19.9815

>  <SCORE.INTER.VDW>
-22.4907

>  <SCORE.INTER.norm>
-0.397896

>  <SCORE.INTRA>
-1.57154

>  <SCORE.INTRA.DIHEDRAL>
-2.79912

>  <SCORE.INTRA.DIHEDRAL.0>
8.13976

>  <SCORE.INTRA.POLAR>
0

>  <SCORE.INTRA.POLAR.0>
0

>  <SCORE.INTRA.REPUL>
0

>  <SCORE.INTRA.REPUL.0>
0

>  <SCORE.INTRA.SOLV>
0.0878965

>  <SCORE.INTRA.SOLV.lig_0>
-82.9561

>  <SCORE.INTRA.VDW>
-0.215926

>  <SCORE.INTRA.VDW.0>
-3.29171

>  <SCORE.INTRA.norm>
-0.0604437

>  <SCORE.RESTR>
0

>  <SCORE.RESTR.CAVITY>
0

>  <SCORE.RESTR.norm>
0

>  <SCORE.SYSTEM>
0

>  <SCORE.SYSTEM.CONST>
0

>  <SCORE.SYSTEM.DIHEDRAL>
0

>  <SCORE.SYSTEM.SOLV>
0

>  <SCORE.SYSTEM.norm>
0

>  <SCORE.heavy>
26

>  <SCORE.norm>
-0.45834

>  <RMSD>
3.332

$$$$
ligand
 OpenBabel11021811433D
libRbt.so/2013.1/901 2013/11/27
 26 27  0  0  0  0  0  0  0  0999 V2000
  -13.9969   -9.1567    0.4026 C   0  0  0  0  0  0  0  0  0  0  0  0
  -21.6960  -12.6919   -1.1432 C   0  0  0  0  0  0  0  0  0  0  0  0
  -22.9927  -15.4131    4.3764 P   0  0  1  0  0  0  0  0  0  0  0  0
  -21.3403  -17.7791    4.0154 P   0  0  1  0  0  0  0  0  0  0  0  0
  -18.8103  -12.0438   -0.8341 C   0  0  0  0  0  0  0  0  0  0  0  0
  -17.4933   -9.8977   -0.6105 C   0  0  0  0  0  0  0  0  0  0  0  0
  -17.5340  -11.2831   -0.5167 C   0  0  0  0  0  0  0  0  0  0  0  0
  -16.3918  -11.9561   -0.1150 C   0  0  0  0  0  0  0  0  0  0  0  0
  -16.3830  -13.3072   -0.0099 N   0  0  0  0  0  0  0  0  0  0  0  0
  -15.2726  -11.2578    0.1754 N   0  0  0  0  0  0  0  0  0  0  0  0
  -15.2572   -9.9107    0.0750 C   0  0  0  0  0  0  0  0  0  0  0  0
  -16.3652   -9.2358   -0.3176 N   0  0  0  0  0  0  0  0  0  0  0  0
  -24.1824  -16.1633    3.8376 O   0  5  0  0  0  0  0  0  0  0  0  0
  -21.9237  -18.2573    5.3094 O   0  0  0  0  0  0  0  0  0  0  0  0
  -20.6628  -11.7564    2.6691 S   0  0  0  0  0  0  0  0  0  0  0  0
  -19.3246  -11.6934    1.5654 C   0  0  0  0  0  0  0  0  0  0  0  0
  -22.9752  -15.1134    5.8477 O   0  0  0  0  0  0  0  0  0  0  0  0
  -22.0891  -18.3917    2.8791 O   0  5  0  0  0  0  0  0  0  0  0  0
  -19.7278  -12.0150    0.3049 N   0  0  0  0  0  0  0  0  0  0  0  0
  -21.6499  -16.1911    3.9092 O   0  0  0  0  0  0  0  0  0  0  0  0
  -19.8490  -17.9175    3.8734 O   0  0  0  0  0  0  0  0  0  0  0  0
  -21.0487  -12.3120    0.1619 C   0  0  1  0  0  0  0  0  0  0  0  0
  -21.7889  -12.2011    1.4481 C   0  0  1  0  0  0  0  0  0  0  0  0
  -23.2205  -12.4095    1.8656 C   0  0  0  0  0  0  0  0  0  0  0  0
  -23.3994  -13.8596    2.2868 C   0  0  0  0  0  0  0  0  0  0  0  0
  -22.9132  -13.9989    3.6162 O   0  0  0  0  0  0  0  0  0  0  0  0
  1 11  1  0  0  0  0
  3 13  1  6  0  0  0
  3 17  2  0  0  0  0
  3 20  1  0  0  0  0
  3 26  1  0  0  0  0
  4 14  1  1  0  0  0
  4 18  1  0  0  0  0
  4 21  2  0  0  0  0
  4 20  1  0  0  0  0
  5 19  1  0  0  0  0
  5  7  1  0  0  0  0
  6  7  2  0  0  0  0
  6 12  1  0  0  0  0
  7  8  1  0  0  0  0
  8  9  1  0  0  0  0
  8 10  2  0  0  0  0
 10 11  1  0  0  0  0
 11 12  2  0  0  0  0
 15 23  1  0  0  0  0
 15 16  1  0  0  0  0
 16 19  1  0  0  0  0
 19 22  1  0  0  0  0
 22  2  1  6  0  0  0
 22 23  1  0  0  0  0
 23 24  1  1  0  0  0
 24 25  1  0  0  0  0
 25 26  1  0  0  0  0
M  CHG  2  13  -1  18  -1
M  END
>  <CHROM.1>
-48.00637607,-17.35282396,-80.74542369,-37.84443813,-88.56916768,80.25337484
178.43198237,-29.29034692,-20.26425117,-13.67822284,2.09325249,-0.88868880
-0.17570035,2.66324134

>  <Name>
ligand

>  <RI>
0

>  <Rbt.Current_Directory>
/home/itssahil/PROJECTS/Mol_Feturizer/New_Systems/rnas/2GDI

>  <Rbt.Executable>
rbdock ($Id: //depot/dev/client3/rdock/2013.1/src/exe/rbdock.cxx#4 $)

>  <Rbt.Library>
libRbt.so (2013.1, Build901 2013/11/27)

>  <Rbt.Parameter_File>
/export/apps/rDock/src/rDock_2013.1_src/data/scripts/dock_solv.prm

>  <Rbt.Receptor>
prm/pocket_docking_5.prm

>  <SCORE>
-14.0371

>  <SCORE.INTER>
-14.2957

>  <SCORE.INTER.CONST>
1

>  <SCORE.INTER.POLAR>
0

>  <SCORE.INTER.ROT>
8

>  <SCORE.INTER.SOLV>
14.5096

>  <SCORE.INTER.VDW>
-23.3004

>  <SCORE.INTER.norm>
-0.549836

>  <SCORE.INTRA>
0.258639

>  <SCORE.INTRA.DIHEDRAL>
0.107578

>  <SCORE.INTRA.DIHEDRAL.0>
8.13976

>  <SCORE.INTRA.POLAR>
0

>  <SCORE.INTRA.POLAR.0>
0

>  <SCORE.INTRA.REPUL>
0

>  <SCORE.INTRA.REPUL.0>
0

>  <SCORE.INTRA.SOLV>
0.341099

>  <SCORE.INTRA.SOLV.lig_0>
-82.9561

>  <SCORE.INTRA.VDW>
0.0343006

>  <SCORE.INTRA.VDW.0>
-3.29171

>  <SCORE.INTRA.norm>
0.00994766

>  <SCORE.RESTR>
0

>  <SCORE.RESTR.CAVITY>
0

>  <SCORE.RESTR.norm>
0

>  <SCORE.SYSTEM>
0

>  <SCORE.SYSTEM.CONST>
0

>  <SCORE.SYSTEM.DIHEDRAL>
0

>  <SCORE.SYSTEM.SOLV>
0

>  <SCORE.SYSTEM.norm>
0

>  <SCORE.heavy>
26

>  <SCORE.norm>
-0.539889

>  <RMSD>
3.360

$$$$
ligand
 OpenBabel11021811433D
libRbt.so/2013.1/901 2013/11/27
 26 27  0  0  0  0  0  0  0  0999 V2000
  -12.7271   -8.0535   -0.3872 C   0  0  0  0  0  0  0  0  0  0  0  0
  -18.5383  -12.2240    0.6153 C   0  0  0  0  0  0  0  0  0  0  0  0
  -19.9969  -17.8672   -1.2214 P   0  0  1  0  0  0  0  0  0  0  0  0
  -20.8387  -18.8477    1.3841 P   0  0  1  0  0  0  0  0  0  0  0  0
  -15.6844  -12.6777    1.3170 C   0  0  0  0  0  0  0  0  0  0  0  0
  -15.4398  -10.1825    0.9946 C   0  0  0  0  0  0  0  0  0  0  0  0
  -14.9054  -11.4573    0.8565 C   0  0  0  0  0  0  0  0  0  0  0  0
  -13.6428  -11.5927    0.3030 C   0  0  0  0  0  0  0  0  0  0  0  0
  -13.0807  -12.8158    0.1471 N   0  0  0  0  0  0  0  0  0  0  0  0
  -12.9630  -10.4923   -0.0866 N   0  0  0  0  0  0  0  0  0  0  0  0
  -13.5046   -9.2630    0.0565 C   0  0  0  0  0  0  0  0  0  0  0  0
  -14.7393   -9.1119    0.5950 N   0  0  0  0  0  0  0  0  0  0  0  0
  -18.9798  -18.9322   -1.5377 O   0  5  0  0  0  0  0  0  0  0  0  0
  -19.9990  -20.0875    1.3483 O   0  0  0  0  0  0  0  0  0  0  0  0
  -16.6734  -14.8383   -1.8676 S   0  0  0  0  0  0  0  0  0  0  0  0
  -15.6340  -14.2222   -0.6213 C   0  0  0  0  0  0  0  0  0  0  0  0
  -21.3350  -17.9700   -1.8949 O   0  0  0  0  0  0  0  0  0  0  0  0
  -20.7498  -18.2293    2.7394 O   0  5  0  0  0  0  0  0  0  0  0  0
  -16.3101  -13.3528    0.1798 N   0  0  0  0  0  0  0  0  0  0  0  0
  -20.1448  -17.7714    0.3898 O   0  0  0  0  0  0  0  0  0  0  0  0
  -22.2562  -18.9974    0.9030 O   0  0  0  0  0  0  0  0  0  0  0  0
  -17.6167  -13.1440   -0.1402 C   0  0  1  0  0  0  0  0  0  0  0  0
  -18.0384  -13.9472   -1.3198 C   0  0  1  0  0  0  0  0  0  0  0  0
  -19.3243  -14.1043   -2.0872 C   0  0  0  0  0  0  0  0  0  0  0  0
  -20.1201  -15.2471   -1.4765 C   0  0  0  0  0  0  0  0  0  0  0  0
  -19.3747  -16.4467   -1.6449 O   0  0  0  0  0  0  0  0  0  0  0  0
  1 11  1  0  0  0  0
  3 13  1  6  0  0  0
  3 17  2  0  0  0  0
  3 20  1  0  0  0  0
  3 26  1  0  0  0  0
  4 14  1  6  0  0  0
  4 18  1  0  0  0  0
  4 21  2  0  0  0  0
  4 20  1  0  0  0  0
  5 19  1  0  0  0  0
  5  7  1  0  0  0  0
  6  7  2  0  0  0  0
  6 12  1  0  0  0  0
  7  8  1  0  0  0  0
  8  9  1  0  0  0  0
  8 10  2  0  0  0  0
 10 11  1  0  0  0  0
 11 12  2  0  0  0  0
 15 23  1  0  0  0  0
 15 16  1  0  0  0  0
 16 19  1  0  0  0  0
 19 22  1  0  0  0  0
 22  2  1  1  0  0  0
 22 23  1  0  0  0  0
 23 24  1  6  0  0  0
 24 25  1  0  0  0  0
 25 26  1  0  0  0  0
M  CHG  2  13  -1  18  -1
M  END
>  <CHROM.1>
-71.26543088,81.87777692,101.15145398,66.37255234,90.40203515,-63.65724207
-174.61128830,179.27712018,-17.77458163,-14.84723034,-0.15497050,0.05321188
-0.88918251,-1.50415700

>  <Name>
ligand

>  <RI>
0

>  <Rbt.Current_Directory>
/home/itssahil/PROJECTS/Mol_Feturizer/New_Systems/rnas/2GDI

>  <Rbt.Executable>
rbdock ($Id: //depot/dev/client3/rdock/2013.1/src/exe/rbdock.cxx#4 $)

>  <Rbt.Library>
libRbt.so (2013.1, Build901 2013/11/27)

>  <Rbt.Parameter_File>
/export/apps/rDock/src/rDock_2013.1_src/data/scripts/dock_solv.prm

>  <Rbt.Receptor>
prm/pocket_docking_6.prm

>  <SCORE>
-17.339

>  <SCORE.INTER>
-15.8715

>  <SCORE.INTER.CONST>
1

>  <SCORE.INTER.POLAR>
0

>  <SCORE.INTER.ROT>
8

>  <SCORE.INTER.SOLV>
19.0365

>  <SCORE.INTER.VDW>
-25.8599

>  <SCORE.INTER.norm>
-0.610443

>  <SCORE.INTRA>
-1.46748

>  <SCORE.INTRA.DIHEDRAL>
-2.82668

>  <SCORE.INTRA.DIHEDRAL.0>
8.13976

>  <SCORE.INTRA.POLAR>
0

>  <SCORE.INTRA.POLAR.0>
0

>  <SCORE.INTRA.REPUL>
0

>  <SCORE.INTRA.REPUL.0>
0

>  <SCORE.INTRA.SOLV>
1.41727

>  <SCORE.INTRA.SOLV.lig_0>
-82.9561

>  <SCORE.INTRA.VDW>
-0.762771

>  <SCORE.INTRA.VDW.0>
-3.29171

>  <SCORE.INTRA.norm>
-0.0564415

>  <SCORE.RESTR>
0

>  <SCORE.RESTR.CAVITY>
0

>  <SCORE.RESTR.norm>
0

>  <SCORE.SYSTEM>
0

>  <SCORE.SYSTEM.CONST>
0

>  <SCORE.SYSTEM.DIHEDRAL>
0

>  <SCORE.SYSTEM.SOLV>
0

>  <SCORE.SYSTEM.norm>
0

>  <SCORE.heavy>
26

>  <SCORE.norm>
-0.666884

>  <RMSD>
3.366

$$$$
ligand
 OpenBabel11021811433D
libRbt.so/2013.1/901 2013/11/27
 26 27  0  0  0  0  0  0  0  0999 V2000
  -13.0785  -13.2415    0.2203 C   0  0  0  0  0  0  0  0  0  0  0  0
  -20.3474  -12.4631   -1.3533 C   0  0  0  0  0  0  0  0  0  0  0  0
  -23.6043  -16.3111   -0.7349 P   0  0  1  0  0  0  0  0  0  0  0  0
  -24.2781  -14.1247   -2.5307 P   0  0  1  0  0  0  0  0  0  0  0  0
  -18.1610  -10.6494   -0.4738 C   0  0  0  0  0  0  0  0  0  0  0  0
  -16.6981  -12.7103   -0.4252 C   0  0  0  0  0  0  0  0  0  0  0  0
  -16.8187  -11.3341   -0.2799 C   0  0  0  0  0  0  0  0  0  0  0  0
  -15.6882  -10.5968    0.0321 C   0  0  0  0  0  0  0  0  0  0  0  0
  -15.7568   -9.2520    0.1850 N   0  0  0  0  0  0  0  0  0  0  0  0
  -14.5026  -11.2254    0.1863 N   0  0  0  0  0  0  0  0  0  0  0  0
  -14.4108  -12.5654    0.0414 C   0  0  0  0  0  0  0  0  0  0  0  0
  -15.5068  -13.3028   -0.2626 N   0  0  0  0  0  0  0  0  0  0  0  0
  -24.9771  -16.8808   -0.4911 O   0  5  0  0  0  0  0  0  0  0  0  0
  -23.4960  -13.0807   -1.7944 O   0  0  0  0  0  0  0  0  0  0  0  0
  -20.4436  -11.6467    2.6217 S   0  0  0  0  0  0  0  0  0  0  0  0
  -19.1333  -10.8624    1.7964 C   0  0  0  0  0  0  0  0  0  0  0  0
  -22.4370  -17.2472   -0.6091 O   0  0  0  0  0  0  0  0  0  0  0  0
  -24.0625  -13.9605   -3.9983 O   0  5  0  0  0  0  0  0  0  0  0  0
  -19.1499  -11.1705    0.4699 N   0  0  0  0  0  0  0  0  0  0  0  0
  -23.6158  -15.5603   -2.1713 O   0  0  0  0  0  0  0  0  0  0  0  0
  -25.7326  -14.2397   -2.1640 O   0  0  0  0  0  0  0  0  0  0  0  0
  -20.1503  -12.0008    0.0658 C   0  0  1  0  0  0  0  0  0  0  0  0
  -21.0434  -12.3888    1.1911 C   0  0  1  0  0  0  0  0  0  0  0  0
  -22.2657  -13.2586    1.3194 C   0  0  0  0  0  0  0  0  0  0  0  0
  -22.1120  -14.4551    0.3937 C   0  0  0  0  0  0  0  0  0  0  0  0
  -23.3636  -15.1276    0.3260 O   0  0  0  0  0  0  0  0  0  0  0  0
  1 11  1  0  0  0  0
  3 13  1  1  0  0  0
  3 17  2  0  0  0  0
  3 20  1  0  0  0  0
  3 26  1  0  0  0  0
  4 14  1  1  0  0  0
  4 18  1  0  0  0  0
  4 21  2  0  0  0  0
  4 20  1  0  0  0  0
  5 19  1  0  0  0  0
  5  7  1  0  0  0  0
  6  7  2  0  0  0  0
  6 12  1  0  0  0  0
  7  8  1  0  0  0  0
  8  9  1  0  0  0  0
  8 10  2  0  0  0  0
 10 11  1  0  0  0  0
 11 12  2  0  0  0  0
 15 23  1  0  0  0  0
 15 16  1  0  0  0  0
 16 19  1  0  0  0  0
 19 22  1  0  0  0  0
 22  2  1  6  0  0  0
 22 23  1  0  0  0  0
 23 24  1  1  0  0  0
 24 25  1  0  0  0  0
 25 26  1  0  0  0  0
M  CHG  2  13  -1  18  -1
M  END
>  <CHROM.1>
75.25189700,73.44183271,59.57776342,66.97919148,-142.07220172,-168.97886820
170.97615768,175.93950827,-20.55932946,-13.28892573,-0.36816448,-0.45475858
-0.06415082,-2.55657314

>  <Name>
ligand

>  <RI>
0

>  <Rbt.Current_Directory>
/home/itssahil/PROJECTS/Mol_Feturizer/New_Systems/rnas/2GDI

>  <Rbt.Executable>
rbdock ($Id: //depot/dev/client3/rdock/2013.1/src/exe/rbdock.cxx#4 $)

>  <Rbt.Library>
libRbt.so (2013.1, Build901 2013/11/27)

>  <Rbt.Parameter_File>
/export/apps/rDock/src/rDock_2013.1_src/data/scripts/dock_solv.prm

>  <Rbt.Receptor>
prm/pocket_docking_4.prm

>  <SCORE>
-7.79448

>  <SCORE.INTER>
-6.60268

>  <SCORE.INTER.CONST>
1

>  <SCORE.INTER.POLAR>
0

>  <SCORE.INTER.ROT>
8

>  <SCORE.INTER.SOLV>
19.2277

>  <SCORE.INTER.VDW>
-19.7444

>  <SCORE.INTER.norm>
-0.253949

>  <SCORE.INTRA>
-1.1918

>  <SCORE.INTRA.DIHEDRAL>
-1.69056

>  <SCORE.INTRA.DIHEDRAL.0>
8.13976

>  <SCORE.INTRA.POLAR>
0

>  <SCORE.INTRA.POLAR.0>
0

>  <SCORE.INTRA.REPUL>
0

>  <SCORE.INTRA.REPUL.0>
0

>  <SCORE.INTRA.SOLV>
-0.157102

>  <SCORE.INTRA.SOLV.lig_0>
-82.9561

>  <SCORE.INTRA.VDW>
-0.267968

>  <SCORE.INTRA.VDW.0>
-3.29171

>  <SCORE.INTRA.norm>
-0.0458384

>  <SCORE.RESTR>
0

>  <SCORE.RESTR.CAVITY>
0

>  <SCORE.RESTR.norm>
0

>  <SCORE.SYSTEM>
0

>  <SCORE.SYSTEM.CONST>
0

>  <SCORE.SYSTEM.DIHEDRAL>
0

>  <SCORE.SYSTEM.SOLV>
0

>  <SCORE.SYSTEM.norm>
0

>  <SCORE.heavy>
26

>  <SCORE.norm>
-0.299788

>  <RMSD>
3.367

$$$$
ligand
 OpenBabel11021811433D
libRbt.so/2013.1/901 2013/11/27
 26 27  0  0  0  0  0  0  0  0999 V2000
  -13.2490  -10.3995    0.0903 C   0  0  0  0  0  0  0  0  0  0  0  0
  -21.2041  -12.5230    2.7231 C   0  0  0  0  0  0  0  0  0  0  0  0
  -21.4479  -16.9797    0.6052 P   0  0  1  0  0  0  0  0  0  0  0  0
  -20.9312  -18.5573    2.9933 P   0  0  1  0  0  0  0  0  0  0  0  0
  -18.5460  -11.3369    2.1142 C   0  0  0  0  0  0  0  0  0  0  0  0
  -16.6152   -9.8075    1.5456 C   0  0  0  0  0  0  0  0  0  0  0  0
  -17.1495  -11.0896    1.5693 C   0  0  0  0  0  0  0  0  0  0  0  0
  -16.3785  -12.1400    1.0988 C   0  0  0  0  0  0  0  0  0  0  0  0
  -16.8572  -13.4077    1.1008 N   0  0  0  0  0  0  0  0  0  0  0  0
  -15.1344  -11.8982    0.6318 N   0  0  0  0  0  0  0  0  0  0  0  0
  -14.6373  -10.6420    0.6174 C   0  0  0  0  0  0  0  0  0  0  0  0
  -15.3780   -9.6022    1.0729 N   0  0  0  0  0  0  0  0  0  0  0  0
  -20.3721  -17.1539   -0.4344 O   0  5  0  0  0  0  0  0  0  0  0  0
  -20.6440  -19.7427    2.1239 O   0  0  0  0  0  0  0  0  0  0  0  0
  -20.4116  -12.3217   -1.2528 S   0  0  0  0  0  0  0  0  0  0  0  0
  -19.1256  -11.6960   -0.2690 C   0  0  0  0  0  0  0  0  0  0  0  0
  -22.7151  -17.7649    0.4244 O   0  0  0  0  0  0  0  0  0  0  0  0
  -19.8537  -18.4223    4.0170 O   0  5  0  0  0  0  0  0  0  0  0  0
  -19.4445  -11.7885    1.0518 N   0  0  0  0  0  0  0  0  0  0  0  0
  -20.7889  -17.2367    2.0635 O   0  0  0  0  0  0  0  0  0  0  0  0
  -22.3117  -18.4946    3.5877 O   0  0  0  0  0  0  0  0  0  0  0  0
  -20.6612  -12.3313    1.3321 C   0  0  1  0  0  0  0  0  0  0  0  0
  -21.3918  -12.7321    0.0992 C   0  0  1  0  0  0  0  0  0  0  0  0
  -22.7323  -13.3587   -0.1790 C   0  0  0  0  0  0  0  0  0  0  0  0
  -22.5273  -14.8349   -0.4811 C   0  0  0  0  0  0  0  0  0  0  0  0
  -21.8660  -15.4276    0.6300 O   0  0  0  0  0  0  0  0  0  0  0  0
  1 11  1  0  0  0  0
  3 13  1  6  0  0  0
  3 17  2  0  0  0  0
  3 20  1  0  0  0  0
  3 26  1  0  0  0  0
  4 14  1  6  0  0  0
  4 18  1  0  0  0  0
  4 21  2  0  0  0  0
  4 20  1  0  0  0  0
  5 19  1  0  0  0  0
  5  7  1  0  0  0  0
  6  7  2  0  0  0  0
  6 12  1  0  0  0  0
  7  8  1  0  0  0  0
  8  9  1  0  0  0  0
  8 10  2  0  0  0  0
 10 11  1  0  0  0  0
 11 12  2  0  0  0  0
 15 23  1  0  0  0  0
 15 16  1  0  0  0  0
 16 19  1  0  0  0  0
 19 22  1  0  0  0  0
 22  2  1  1  0  0  0
 22 23  1  0  0  0  0
 23 24  1  6  0  0  0
 24 25  1  0  0  0  0
 25 26  1  0  0  0  0
M  CHG  2  13  -1  18  -1
M  END
>  <CHROM.1>
-103.35643460,-13.58732706,114.06859407,48.84883035,79.76330985,57.39700383
-177.61329457,67.23415091,-19.61831243,-14.35217260,1.09643373,-0.89718521
0.34292942,2.71444304

>  <Name>
ligand

>  <RI>
0

>  <Rbt.Current_Directory>
/home/itssahil/PROJECTS/Mol_Feturizer/New_Systems/rnas/2GDI

>  <Rbt.Executable>
rbdock ($Id: //depot/dev/client3/rdock/2013.1/src/exe/rbdock.cxx#4 $)

>  <Rbt.Library>
libRbt.so (2013.1, Build901 2013/11/27)

>  <Rbt.Parameter_File>
/export/apps/rDock/src/rDock_2013.1_src/data/scripts/dock_solv.prm

>  <Rbt.Receptor>
prm/pocket_docking_5.prm

>  <SCORE>
-13.4333

>  <SCORE.INTER>
-13.5297

>  <SCORE.INTER.CONST>
1

>  <SCORE.INTER.POLAR>
0

>  <SCORE.INTER.ROT>
8

>  <SCORE.INTER.SOLV>
11.4307

>  <SCORE.INTER.VDW>
-21.7634

>  <SCORE.INTER.norm>
-0.520375

>  <SCORE.INTRA>
0.0964394

>  <SCORE.INTRA.DIHEDRAL>
-0.980407

>  <SCORE.INTRA.DIHEDRAL.0>
8.13976

>  <SCORE.INTRA.POLAR>
0

>  <SCORE.INTRA.POLAR.0>
0

>  <SCORE.INTRA.REPUL>
0

>  <SCORE.INTRA.REPUL.0>
0

>  <SCORE.INTRA.SOLV>
1.36886

>  <SCORE.INTRA.SOLV.lig_0>
-82.9561

>  <SCORE.INTRA.VDW>
-0.0977859

>  <SCORE.INTRA.VDW.0>
-3.29171

>  <SCORE.INTRA.norm>
0.00370921

>  <SCORE.RESTR>
0

>  <SCORE.RESTR.CAVITY>
0

>  <SCORE.RESTR.norm>
0

>  <SCORE.SYSTEM>
0

>  <SCORE.SYSTEM.CONST>
0

>  <SCORE.SYSTEM.DIHEDRAL>
0

>  <SCORE.SYSTEM.SOLV>
0

>  <SCORE.SYSTEM.norm>
0

>  <SCORE.heavy>
26

>  <SCORE.norm>
-0.516666

>  <RMSD>
3.369

$$$$
ligand
 OpenBabel11021811433D
libRbt.so/2013.1/901 2013/11/27
 26 27  0  0  0  0  0  0  0  0999 V2000
  -12.4150   -7.5030   -0.6823 C   0  0  0  0  0  0  0  0  0  0  0  0
  -18.0521  -10.4138    1.5426 C   0  0  0  0  0  0  0  0  0  0  0  0
  -22.0931  -13.4215    2.1377 P   0  0  1  0  0  0  0  0  0  0  0  0
  -22.4816  -11.4369    4.2280 P   0  0  1  0  0  0  0  0  0  0  0  0
  -15.5369  -11.9572    1.1744 C   0  0  0  0  0  0  0  0  0  0  0  0
  -15.1008   -9.4766    0.9584 C   0  0  0  0  0  0  0  0  0  0  0  0
  -14.7160  -10.7807    0.6740 C   0  0  0  0  0  0  0  0  0  0  0  0
  -13.5616  -10.9876   -0.0633 C   0  0  0  0  0  0  0  0  0  0  0  0
  -13.1470  -12.2417   -0.3665 N   0  0  0  0  0  0  0  0  0  0  0  0
  -12.8401   -9.9268   -0.4859 N   0  0  0  0  0  0  0  0  0  0  0  0
  -13.2358   -8.6675   -0.1980 C   0  0  0  0  0  0  0  0  0  0  0  0
  -14.3631   -8.4464    0.5213 N   0  0  0  0  0  0  0  0  0  0  0  0
  -21.4392  -14.7771    2.0796 O   0  5  0  0  0  0  0  0  0  0  0  0
  -21.7489  -10.3437    3.5129 O   0  0  0  0  0  0  0  0  0  0  0  0
  -18.2467  -13.0936   -1.5001 S   0  0  0  0  0  0  0  0  0  0  0  0
  -16.7113  -13.0921   -0.6904 C   0  0  0  0  0  0  0  0  0  0  0  0
  -23.5121  -13.3194    1.6575 O   0  0  0  0  0  0  0  0  0  0  0  0
  -23.9226  -11.4014    3.8416 O   0  5  0  0  0  0  0  0  0  0  0  0
  -16.7027  -12.1772    0.3184 N   0  0  0  0  0  0  0  0  0  0  0  0
  -21.9290  -12.8447    3.6435 O   0  0  0  0  0  0  0  0  0  0  0  0
  -22.2784  -11.5023    5.7172 O   0  0  0  0  0  0  0  0  0  0  0  0
  -17.8535  -11.4699    0.4881 C   0  0  1  0  0  0  0  0  0  0  0  0
  -18.9062  -11.8738   -0.4830 C   0  0  1  0  0  0  0  0  0  0  0  0
  -20.3237  -11.4403   -0.7471 C   0  0  0  0  0  0  0  0  0  0  0  0
  -21.2678  -12.4920   -0.1861 C   0  0  0  0  0  0  0  0  0  0  0  0
  -21.2260  -12.4141    1.2335 O   0  0  0  0  0  0  0  0  0  0  0  0
  1 11  1  0  0  0  0
  3 13  1  6  0  0  0
  3 17  2  0  0  0  0
  3 20  1  0  0  0  0
  3 26  1  0  0  0  0
  4 14  1  6  0  0  0
  4 18  1  0  0  0  0
  4 21  2  0  0  0  0
  4 20  1  0  0  0  0
  5 19  1  0  0  0  0
  5  7  1  0  0  0  0
  6  7  2  0  0  0  0
  6 12  1  0  0  0  0
  7  8  1  0  0  0  0
  8  9  1  0  0  0  0
  8 10  2  0  0  0  0
 10 11  1  0  0  0  0
 11 12  2  0  0  0  0
 15 23  1  0  0  0  0
 15 16  1  0  0  0  0
 16 19  1  0  0  0  0
 19 22  1  0  0  0  0
 22  2  1  1  0  0  0
 22 23  1  0  0  0  0
 23 24  1  6  0  0  0
 24 25  1  0  0  0  0
 25 26  1  0  0  0  0
M  CHG  2  13  -1  18  -1
M  END
>  <CHROM.1>
-178.84392752,96.44758161,79.95179799,-65.50690312,77.46867328,71.40312663
-178.62601099,73.47114312,-18.75209689,-11.63044424,1.24426947,-0.09704155
0.42880584,0.83688190

>  <Name>
ligand

>  <RI>
0

>  <Rbt.Current_Directory>
/home/itssahil/PROJECTS/Mol_Feturizer/New_Systems/rnas/2GDI

>  <Rbt.Executable>
rbdock ($Id: //depot/dev/client3/rdock/2013.1/src/exe/rbdock.cxx#4 $)

>  <Rbt.Library>
libRbt.so (2013.1, Build901 2013/11/27)

>  <Rbt.Parameter_File>
/export/apps/rDock/src/rDock_2013.1_src/data/scripts/dock_solv.prm

>  <Rbt.Receptor>
prm/pocket_docking_6.prm

>  <SCORE>
-21.1291

>  <SCORE.INTER>
-19.463

>  <SCORE.INTER.CONST>
1

>  <SCORE.INTER.POLAR>
0

>  <SCORE.INTER.ROT>
8

>  <SCORE.INTER.SOLV>
24.4564

>  <SCORE.INTER.VDW>
-30.0608

>  <SCORE.INTER.norm>
-0.748575

>  <SCORE.INTRA>
-1.66615

>  <SCORE.INTRA.DIHEDRAL>
-2.15777

>  <SCORE.INTRA.DIHEDRAL.0>
8.13976

>  <SCORE.INTRA.POLAR>
0

>  <SCORE.INTRA.POLAR.0>
0

>  <SCORE.INTRA.REPUL>
0

>  <SCORE.INTRA.REPUL.0>
0

>  <SCORE.INTRA.SOLV>
0.229542

>  <SCORE.INTRA.SOLV.lig_0>
-82.9561

>  <SCORE.INTRA.VDW>
-0.702038

>  <SCORE.INTRA.VDW.0>
-3.29171

>  <SCORE.INTRA.norm>
-0.0640828

>  <SCORE.RESTR>
0

>  <SCORE.RESTR.CAVITY>
0

>  <SCORE.RESTR.norm>
0

>  <SCORE.SYSTEM>
0

>  <SCORE.SYSTEM.CONST>
0

>  <SCORE.SYSTEM.DIHEDRAL>
0

>  <SCORE.SYSTEM.SOLV>
0

>  <SCORE.SYSTEM.norm>
0

>  <SCORE.heavy>
26

>  <SCORE.norm>
-0.812658

>  <RMSD>
3.373

$$$$
ligand
 OpenBabel11021811433D
libRbt.so/2013.1/901 2013/11/27
 26 27  0  0  0  0  0  0  0  0999 V2000
  -13.1740  -12.9736    0.1643 C   0  0  0  0  0  0  0  0  0  0  0  0
  -20.9074  -11.9573    2.6096 C   0  0  0  0  0  0  0  0  0  0  0  0
  -24.1335  -16.0250    0.3269 P   0  0  1  0  0  0  0  0  0  0  0  0
  -21.6878  -16.9277    1.6164 P   0  0  1  0  0  0  0  0  0  0  0  0
  -18.3600  -10.8910    1.5064 C   0  0  0  0  0  0  0  0  0  0  0  0
  -16.5940  -12.6978    1.5883 C   0  0  0  0  0  0  0  0  0  0  0  0
  -16.9848  -11.4357    1.1593 C   0  0  0  0  0  0  0  0  0  0  0  0
  -16.1010  -10.6892    0.3974 C   0  0  0  0  0  0  0  0  0  0  0  0
  -16.4372   -9.4524   -0.0429 N   0  0  0  0  0  0  0  0  0  0  0  0
  -14.8889  -11.1995    0.0894 N   0  0  0  0  0  0  0  0  0  0  0  0
  -14.5309  -12.4291    0.5198 C   0  0  0  0  0  0  0  0  0  0  0  0
  -15.3826  -13.1730    1.2671 N   0  0  0  0  0  0  0  0  0  0  0  0
  -24.4857  -15.5922   -1.0721 O   0  5  0  0  0  0  0  0  0  0  0  0
  -22.4741  -16.5766    2.8419 O   0  0  0  0  0  0  0  0  0  0  0  0
  -20.6334  -12.3156   -1.4244 S   0  0  0  0  0  0  0  0  0  0  0  0
  -19.2374  -11.5713   -0.7099 C   0  0  0  0  0  0  0  0  0  0  0  0
  -25.0269  -17.0398    0.9801 O   0  0  0  0  0  0  0  0  0  0  0  0
  -21.5622  -18.4115    1.5178 O   0  5  0  0  0  0  0  0  0  0  0  0
  -19.3834  -11.4773    0.6408 N   0  0  0  0  0  0  0  0  0  0  0  0
  -22.5839  -16.5002    0.3346 O   0  0  0  0  0  0  0  0  0  0  0  0
  -20.3712  -16.2186    1.4521 O   0  0  0  0  0  0  0  0  0  0  0  0
  -20.5492  -11.9649    1.1473 C   0  0  1  0  0  0  0  0  0  0  0  0
  -21.4283  -12.5260    0.0858 C   0  0  1  0  0  0  0  0  0  0  0  0
  -22.7878  -13.1730    0.0713 C   0  0  0  0  0  0  0  0  0  0  0  0
  -22.9964  -13.8989    1.3911 C   0  0  0  0  0  0  0  0  0  0  0  0
  -24.1502  -14.7215    1.2676 O   0  0  0  0  0  0  0  0  0  0  0  0
  1 11  1  0  0  0  0
  3 13  1  6  0  0  0
  3 17  2  0  0  0  0
  3 20  1  0  0  0  0
  3 26  1  0  0  0  0
  4 14  1  1  0  0  0
  4 18  1  0  0  0  0
  4 21  2  0  0  0  0
  4 20  1  0  0  0  0
  5 19  1  0  0  0  0
  5  7  1  0  0  0  0
  6  7  2  0  0  0  0
  6 12  1  0  0  0  0
  7  8  1  0  0  0  0
  8  9  1  0  0  0  0
  8 10  2  0  0  0  0
 10 11  1  0  0  0  0
 11 12  2  0  0  0  0
 15 23  1  0  0  0  0
 15 16  1  0  0  0  0
 16 19  1  0  0  0  0
 19 22  1  0  0  0  0
 22  2  1  1  0  0  0
 22 23  1  0  0  0  0
 23 24  1  6  0  0  0
 24 25  1  0  0  0  0
 25 26  1  0  0  0  0
M  CHG  2  13  -1  18  -1
M  END
>  <CHROM.1>
173.98265624,-46.74137669,-78.14955310,-9.81290321,151.16296010,-168.45993465
69.81501356,-86.25698511,-20.31168372,-13.86458393,0.69979854,-0.54559214
0.13627102,2.83911384

>  <Name>
ligand

>  <RI>
0

>  <Rbt.Current_Directory>
/home/itssahil/PROJECTS/Mol_Feturizer/New_Systems/rnas/2GDI

>  <Rbt.Executable>
rbdock ($Id: //depot/dev/client3/rdock/2013.1/src/exe/rbdock.cxx#4 $)

>  <Rbt.Library>
libRbt.so (2013.1, Build901 2013/11/27)

>  <Rbt.Parameter_File>
/export/apps/rDock/src/rDock_2013.1_src/data/scripts/dock_solv.prm

>  <Rbt.Receptor>
prm/pocket_docking_2.prm

>  <SCORE>
-4.92437

>  <SCORE.INTER>
-7.16011

>  <SCORE.INTER.CONST>
1

>  <SCORE.INTER.POLAR>
0

>  <SCORE.INTER.ROT>
8

>  <SCORE.INTER.SOLV>
16.9454

>  <SCORE.INTER.VDW>
-19.3552

>  <SCORE.INTER.norm>
-0.275389

>  <SCORE.INTRA>
2.16701

>  <SCORE.INTRA.DIHEDRAL>
0.985427

>  <SCORE.INTRA.DIHEDRAL.0>
8.13976

>  <SCORE.INTRA.POLAR>
0

>  <SCORE.INTRA.POLAR.0>
0

>  <SCORE.INTRA.REPUL>
0

>  <SCORE.INTRA.REPUL.0>
0

>  <SCORE.INTRA.SOLV>
1.94274

>  <SCORE.INTRA.SOLV.lig_0>
-82.9561

>  <SCORE.INTRA.VDW>
0.702932

>  <SCORE.INTRA.VDW.0>
-3.29171

>  <SCORE.INTRA.norm>
0.0833467

>  <SCORE.RESTR>
0.0687225

>  <SCORE.RESTR.CAVITY>
0.0687225

>  <SCORE.RESTR.norm>
0.00264317

>  <SCORE.SYSTEM>
0

>  <SCORE.SYSTEM.CONST>
0

>  <SCORE.SYSTEM.DIHEDRAL>
0

>  <SCORE.SYSTEM.SOLV>
0

>  <SCORE.SYSTEM.norm>
0

>  <SCORE.heavy>
26

>  <SCORE.norm>
-0.189399

>  <RMSD>
3.379

$$$$
ligand
 OpenBabel11021811433D
libRbt.so/2013.1/901 2013/11/27
 26 27  0  0  0  0  0  0  0  0999 V2000
  -13.2282  -13.0452    0.2989 C   0  0  0  0  0  0  0  0  0  0  0  0
  -20.9789  -12.7076   -1.3472 C   0  0  0  0  0  0  0  0  0  0  0  0
  -22.7712  -15.9590    0.0587 P   0  0  1  0  0  0  0  0  0  0  0  0
  -20.7423  -17.9816   -0.4424 P   0  0  1  0  0  0  0  0  0  0  0  0
  -18.5182  -11.1137   -0.8496 C   0  0  0  0  0  0  0  0  0  0  0  0
  -16.8093  -12.9694   -0.6860 C   0  0  0  0  0  0  0  0  0  0  0  0
  -17.1220  -11.6242   -0.5356 C   0  0  0  0  0  0  0  0  0  0  0  0
  -16.1321  -10.7553   -0.1068 C   0  0  0  0  0  0  0  0  0  0  0  0
  -16.3900   -9.4349    0.0557 N   0  0  0  0  0  0  0  0  0  0  0  0
  -14.8942  -11.2294    0.1531 N   0  0  0  0  0  0  0  0  0  0  0  0
  -14.6148  -12.5424    0.0009 C   0  0  0  0  0  0  0  0  0  0  0  0
  -15.5714  -13.4071   -0.4167 N   0  0  0  0  0  0  0  0  0  0  0  0
  -23.3956  -14.8696   -0.7731 O   0  5  0  0  0  0  0  0  0  0  0  0
  -19.8069  -17.3927    0.5684 O   0  0  0  0  0  0  0  0  0  0  0  0
  -20.5354  -11.6145    2.5368 S   0  0  0  0  0  0  0  0  0  0  0  0
  -19.2467  -11.0519    1.5190 C   0  0  0  0  0  0  0  0  0  0  0  0
  -23.6980  -16.8581    0.8251 O   0  0  0  0  0  0  0  0  0  0  0  0
  -21.6024  -19.0068    0.2182 O   0  5  0  0  0  0  0  0  0  0  0  0
  -19.4468  -11.4461    0.2309 N   0  0  0  0  0  0  0  0  0  0  0  0
  -21.7655  -16.8059   -0.8890 O   0  0  0  0  0  0  0  0  0  0  0  0
  -20.1106  -18.4812   -1.7131 O   0  0  0  0  0  0  0  0  0  0  0  0
  -20.5729  -12.1760    0.0016 C   0  0  1  0  0  0  0  0  0  0  0  0
  -21.3716  -12.3756    1.2412 C   0  0  1  0  0  0  0  0  0  0  0  0
  -22.6614  -13.0814    1.5658 C   0  0  0  0  0  0  0  0  0  0  0  0
  -22.3360  -14.4394    2.1675 C   0  0  0  0  0  0  0  0  0  0  0  0
  -21.8037  -15.2647    1.1385 O   0  0  0  0  0  0  0  0  0  0  0  0
  1 11  1  0  0  0  0
  3 13  1  6  0  0  0
  3 17  2  0  0  0  0
  3 20  1  0  0  0  0
  3 26  1  0  0  0  0
  4 14  1  1  0  0  0
  4 18  1  0  0  0  0
  4 21  2  0  0  0  0
  4 20  1  0  0  0  0
  5 19  1  0  0  0  0
  5  7  1  0  0  0  0
  6  7  2  0  0  0  0
  6 12  1  0  0  0  0
  7  8  1  0  0  0  0
  8  9  1  0  0  0  0
  8 10  2  0  0  0  0
 10 11  1  0  0  0  0
 11 12  2  0  0  0  0
 15 23  1  0  0  0  0
 15 16  1  0  0  0  0
 16 19  1  0  0  0  0
 19 22  1  0  0  0  0
 22  2  1  6  0  0  0
 22 23  1  0  0  0  0
 23 24  1  1  0  0  0
 24 25  1  0  0  0  0
 25 26  1  0  0  0  0
M  CHG  2  13  -1  18  -1
M  END
>  <CHROM.1>
173.23604665,57.38523154,77.22781287,-58.81600343,-79.38051263,-70.20813583
-78.10025006,65.98344447,-19.81243999,-14.08689435,0.24310801,-0.72358640
-0.21226654,-2.88939016

>  <Name>
ligand

>  <RI>
0

>  <Rbt.Current_Directory>
/home/itssahil/PROJECTS/Mol_Feturizer/New_Systems/rnas/2GDI

>  <Rbt.Executable>
rbdock ($Id: //depot/dev/client3/rdock/2013.1/src/exe/rbdock.cxx#4 $)

>  <Rbt.Library>
libRbt.so (2013.1, Build901 2013/11/27)

>  <Rbt.Parameter_File>
/export/apps/rDock/src/rDock_2013.1_src/data/scripts/dock_solv.prm

>  <Rbt.Receptor>
prm/pocket_docking_7.prm

>  <SCORE>
-8.49292

>  <SCORE.INTER>
-8.14984

>  <SCORE.INTER.CONST>
1

>  <SCORE.INTER.POLAR>
0

>  <SCORE.INTER.ROT>
8

>  <SCORE.INTER.SOLV>
12.9969

>  <SCORE.INTER.VDW>
-18.6989

>  <SCORE.INTER.norm>
-0.313455

>  <SCORE.INTRA>
-0.343078

>  <SCORE.INTRA.DIHEDRAL>
-1.21695

>  <SCORE.INTRA.DIHEDRAL.0>
8.13976

>  <SCORE.INTRA.POLAR>
0

>  <SCORE.INTRA.POLAR.0>
0

>  <SCORE.INTRA.REPUL>
0

>  <SCORE.INTRA.REPUL.0>
0

>  <SCORE.INTRA.SOLV>
2.3843

>  <SCORE.INTRA.SOLV.lig_0>
-82.9561

>  <SCORE.INTRA.VDW>
-0.926752

>  <SCORE.INTRA.VDW.0>
-3.29171

>  <SCORE.INTRA.norm>
-0.0131953

>  <SCORE.RESTR>
0

>  <SCORE.RESTR.CAVITY>
0

>  <SCORE.RESTR.norm>
0

>  <SCORE.SYSTEM>
0

>  <SCORE.SYSTEM.CONST>
0

>  <SCORE.SYSTEM.DIHEDRAL>
0

>  <SCORE.SYSTEM.SOLV>
0

>  <SCORE.SYSTEM.norm>
0

>  <SCORE.heavy>
26

>  <SCORE.norm>
-0.326651

>  <RMSD>
3.399

$$$$
ligand
 OpenBabel11021811433D
libRbt.so/2013.1/901 2013/11/27
 26 27  0  0  0  0  0  0  0  0999 V2000
  -13.5113  -15.9262    0.5146 C   0  0  0  0  0  0  0  0  0  0  0  0
  -17.1009  -11.4537    2.9492 C   0  0  0  0  0  0  0  0  0  0  0  0
  -23.8042  -12.8954    1.2862 P   0  0  1  0  0  0  0  0  0  0  0  0
  -24.1044  -15.7496    0.8146 P   0  0  1  0  0  0  0  0  0  0  0  0
  -15.5179  -10.5411    0.6031 C   0  0  0  0  0  0  0  0  0  0  0  0
  -15.8429  -13.0437    0.7499 C   0  0  0  0  0  0  0  0  0  0  0  0
  -14.9842  -11.9635    0.5897 C   0  0  0  0  0  0  0  0  0  0  0  0
  -13.6336  -12.2095    0.4040 C   0  0  0  0  0  0  0  0  0  0  0  0
  -12.7574  -11.1881    0.2445 N   0  0  0  0  0  0  0  0  0  0  0  0
  -13.1838  -13.4830    0.3818 N   0  0  0  0  0  0  0  0  0  0  0  0
  -14.0384  -14.5171    0.5415 C   0  0  0  0  0  0  0  0  0  0  0  0
  -15.3628  -14.2949    0.7254 N   0  0  0  0  0  0  0  0  0  0  0  0
  -23.8117  -12.5724   -0.1849 O   0  5  0  0  0  0  0  0  0  0  0  0
  -25.5794  -15.5769    1.0098 O   0  0  0  0  0  0  0  0  0  0  0  0
  -19.4046  -10.2444   -0.1664 S   0  0  0  0  0  0  0  0  0  0  0  0
  -17.7034  -10.1181   -0.4874 C   0  0  0  0  0  0  0  0  0  0  0  0
  -25.0419  -12.5672    2.0704 O   0  0  0  0  0  0  0  0  0  0  0  0
  -23.7868  -15.6795   -0.6419 O   0  5  0  0  0  0  0  0  0  0  0  0
  -16.9807  -10.5361    0.5886 N   0  0  0  0  0  0  0  0  0  0  0  0
  -23.3812  -14.4503    1.4607 O   0  0  0  0  0  0  0  0  0  0  0  0
  -23.4851  -16.9429    1.4899 O   0  0  0  0  0  0  0  0  0  0  0  0
  -17.7041  -10.9541    1.6635 C   0  0  1  0  0  0  0  0  0  0  0  0
  -19.1693  -10.8768    1.4153 C   0  0  1  0  0  0  0  0  0  0  0  0
  -20.3974  -11.1972    2.2254 C   0  0  0  0  0  0  0  0  0  0  0  0
  -21.2862  -12.1284    1.4161 C   0  0  0  0  0  0  0  0  0  0  0  0
  -22.5970  -12.0802    1.9662 O   0  0  0  0  0  0  0  0  0  0  0  0
  1 11  1  0  0  0  0
  3 13  1  6  0  0  0
  3 17  2  0  0  0  0
  3 20  1  0  0  0  0
  3 26  1  0  0  0  0
  4 14  1  1  0  0  0
  4 18  1  0  0  0  0
  4 21  2  0  0  0  0
  4 20  1  0  0  0  0
  5 19  1  0  0  0  0
  5  7  1  0  0  0  0
  6  7  2  0  0  0  0
  6 12  1  0  0  0  0
  7  8  1  0  0  0  0
  8  9  1  0  0  0  0
  8 10  2  0  0  0  0
 10 11  1  0  0  0  0
 11 12  2  0  0  0  0
 15 23  1  0  0  0  0
 15 16  1  0  0  0  0
 16 19  1  0  0  0  0
 19 22  1  0  0  0  0
 22  2  1  6  0  0  0
 22 23  1  0  0  0  0
 23 24  1  1  0  0  0
 24 25  1  0  0  0  0
 25 26  1  0  0  0  0
M  CHG  2  13  -1  18  -1
M  END
>  <CHROM.1>
-57.03160931,-110.49093377,-8.80544629,-45.25158584,54.12888821,-161.31316512
176.63192283,-50.19652127,-19.66731766,-12.90762578,0.88898174,-0.20323340
-0.05544007,-3.09647415

>  <Name>
ligand

>  <RI>
0

>  <Rbt.Current_Directory>
/home/itssahil/PROJECTS/Mol_Feturizer/New_Systems/rnas/2GDI

>  <Rbt.Executable>
rbdock ($Id: //depot/dev/client3/rdock/2013.1/src/exe/rbdock.cxx#4 $)

>  <Rbt.Library>
libRbt.so (2013.1, Build901 2013/11/27)

>  <Rbt.Parameter_File>
/export/apps/rDock/src/rDock_2013.1_src/data/scripts/dock_solv.prm

>  <Rbt.Receptor>
prm/pocket_docking_4.prm

>  <SCORE>
-12.9124

>  <SCORE.INTER>
-13.8038

>  <SCORE.INTER.CONST>
1

>  <SCORE.INTER.POLAR>
0

>  <SCORE.INTER.ROT>
8

>  <SCORE.INTER.SOLV>
20.8159

>  <SCORE.INTER.VDW>
-25.0745

>  <SCORE.INTER.norm>
-0.530915

>  <SCORE.INTRA>
0.891395

>  <SCORE.INTRA.DIHEDRAL>
-1.29083

>  <SCORE.INTRA.DIHEDRAL.0>
8.13976

>  <SCORE.INTRA.POLAR>
0

>  <SCORE.INTRA.POLAR.0>
0

>  <SCORE.INTRA.REPUL>
0

>  <SCORE.INTRA.REPUL.0>
0

>  <SCORE.INTRA.SOLV>
-0.097304

>  <SCORE.INTRA.SOLV.lig_0>
-82.9561

>  <SCORE.INTRA.VDW>
1.58546

>  <SCORE.INTRA.VDW.0>
-3.29171

>  <SCORE.INTRA.norm>
0.0342844

>  <SCORE.RESTR>
0

>  <SCORE.RESTR.CAVITY>
0

>  <SCORE.RESTR.norm>
0

>  <SCORE.SYSTEM>
0

>  <SCORE.SYSTEM.CONST>
0

>  <SCORE.SYSTEM.DIHEDRAL>
0

>  <SCORE.SYSTEM.SOLV>
0

>  <SCORE.SYSTEM.norm>
0

>  <SCORE.heavy>
26

>  <SCORE.norm>
-0.49663

>  <RMSD>
3.412

$$$$
ligand
 OpenBabel11021811433D
libRbt.so/2013.1/901 2013/11/27
 26 27  0  0  0  0  0  0  0  0999 V2000
  -13.5897  -11.7557    0.1830 C   0  0  0  0  0  0  0  0  0  0  0  0
  -21.2730  -12.1934    2.8056 C   0  0  0  0  0  0  0  0  0  0  0  0
  -21.0295  -16.5362    2.2419 P   0  0  1  0  0  0  0  0  0  0  0  0
  -21.5589  -19.1828    1.1585 P   0  0  1  0  0  0  0  0  0  0  0  0
  -19.0359  -10.6256    1.6304 C   0  0  0  0  0  0  0  0  0  0  0  0
  -16.8363  -11.8191    1.9874 C   0  0  0  0  0  0  0  0  0  0  0  0
  -17.5932  -10.9154    1.2524 C   0  0  0  0  0  0  0  0  0  0  0  0
  -17.0107  -10.2939    0.1600 C   0  0  0  0  0  0  0  0  0  0  0  0
  -17.7090   -9.4042   -0.5865 N   0  0  0  0  0  0  0  0  0  0  0  0
  -15.7308  -10.5774   -0.1655 N   0  0  0  0  0  0  0  0  0  0  0  0
  -15.0143  -11.4588    0.5659 C   0  0  0  0  0  0  0  0  0  0  0  0
  -15.5678  -12.0754    1.6386 N   0  0  0  0  0  0  0  0  0  0  0  0
  -21.3230  -16.0321    3.6305 O   0  5  0  0  0  0  0  0  0  0  0  0
  -22.7972  -20.0190    1.0542 O   0  0  0  0  0  0  0  0  0  0  0  0
  -21.0957  -12.4403   -1.2422 S   0  0  0  0  0  0  0  0  0  0  0  0
  -19.8486  -11.4406   -0.5651 C   0  0  0  0  0  0  0  0  0  0  0  0
  -19.5927  -16.7989    1.8932 O   0  0  0  0  0  0  0  0  0  0  0  0
  -21.1662  -18.7092   -0.2012 O   0  5  0  0  0  0  0  0  0  0  0  0
  -19.9559  -11.3942    0.7918 N   0  0  0  0  0  0  0  0  0  0  0  0
  -21.9579  -17.8363    1.9686 O   0  0  0  0  0  0  0  0  0  0  0  0
  -20.4124  -19.7942    1.9169 O   0  0  0  0  0  0  0  0  0  0  0  0
  -20.9796  -12.1114    1.3312 C   0  0  1  0  0  0  0  0  0  0  0  0
  -21.7712  -12.8240    0.2920 C   0  0  1  0  0  0  0  0  0  0  0  0
  -22.9739  -13.7296    0.3149 C   0  0  0  0  0  0  0  0  0  0  0  0
  -22.7908  -14.7553    1.4225 C   0  0  0  0  0  0  0  0  0  0  0  0
  -21.5662  -15.4416    1.1939 O   0  0  0  0  0  0  0  0  0  0  0  0
  1 11  1  0  0  0  0
  3 13  1  1  0  0  0
  3 17  2  0  0  0  0
  3 20  1  0  0  0  0
  3 26  1  0  0  0  0
  4 14  1  6  0  0  0
  4 18  1  0  0  0  0
  4 21  2  0  0  0  0
  4 20  1  0  0  0  0
  5 19  1  0  0  0  0
  5  7  1  0  0  0  0
  6  7  2  0  0  0  0
  6 12  1  0  0  0  0
  7  8  1  0  0  0  0
  8  9  1  0  0  0  0
  8 10  2  0  0  0  0
 10 11  1  0  0  0  0
 11 12  2  0  0  0  0
 15 23  1  0  0  0  0
 15 16  1  0  0  0  0
 16 19  1  0  0  0  0
 19 22  1  0  0  0  0
 22  2  1  1  0  0  0
 22 23  1  0  0  0  0
 23 24  1  6  0  0  0
 24 25  1  0  0  0  0
 25 26  1  0  0  0  0
M  CHG  2  13  -1  18  -1
M  END
>  <CHROM.1>
-142.34134021,-48.63335176,-98.83459880,-173.97419565,136.05735101,-56.24855772
176.19988688,-39.04637053,-19.90529230,-14.31594168,1.01566784,-1.01236659
0.07472006,2.95603812

>  <Name>
ligand

>  <RI>
0

>  <Rbt.Current_Directory>
/home/itssahil/PROJECTS/Mol_Feturizer/New_Systems/rnas/2GDI

>  <Rbt.Executable>
rbdock ($Id: //depot/dev/client3/rdock/2013.1/src/exe/rbdock.cxx#4 $)

>  <Rbt.Library>
libRbt.so (2013.1, Build901 2013/11/27)

>  <Rbt.Parameter_File>
/export/apps/rDock/src/rDock_2013.1_src/data/scripts/dock_solv.prm

>  <Rbt.Receptor>
prm/pocket_docking_4.prm

>  <SCORE>
-10.3734

>  <SCORE.INTER>
-11.3576

>  <SCORE.INTER.CONST>
1

>  <SCORE.INTER.POLAR>
0

>  <SCORE.INTER.ROT>
8

>  <SCORE.INTER.SOLV>
21.4795

>  <SCORE.INTER.VDW>
-23.6649

>  <SCORE.INTER.norm>
-0.436829

>  <SCORE.INTRA>
0.98416

>  <SCORE.INTRA.DIHEDRAL>
-1.02965

>  <SCORE.INTRA.DIHEDRAL.0>
8.13976

>  <SCORE.INTRA.POLAR>
0

>  <SCORE.INTRA.POLAR.0>
0

>  <SCORE.INTRA.REPUL>
0

>  <SCORE.INTRA.REPUL.0>
0

>  <SCORE.INTRA.SOLV>
3.39865

>  <SCORE.INTRA.SOLV.lig_0>
-82.9561

>  <SCORE.INTRA.VDW>
-0.200339

>  <SCORE.INTRA.VDW.0>
-3.29171

>  <SCORE.INTRA.norm>
0.0378523

>  <SCORE.RESTR>
0

>  <SCORE.RESTR.CAVITY>
0

>  <SCORE.RESTR.norm>
0

>  <SCORE.SYSTEM>
0

>  <SCORE.SYSTEM.CONST>
0

>  <SCORE.SYSTEM.DIHEDRAL>
0

>  <SCORE.SYSTEM.SOLV>
0

>  <SCORE.SYSTEM.norm>
0

>  <SCORE.heavy>
26

>  <SCORE.norm>
-0.398977

>  <RMSD>
3.459

$$$$
ligand
 OpenBabel11021811433D
libRbt.so/2013.1/901 2013/11/27
 26 27  0  0  0  0  0  0  0  0999 V2000
  -13.6049  -11.5898    0.1985 C   0  0  0  0  0  0  0  0  0  0  0  0
  -21.1242  -12.1186    2.6718 C   0  0  0  0  0  0  0  0  0  0  0  0
  -23.0650  -17.4493    1.7131 P   0  0  1  0  0  0  0  0  0  0  0  0
  -23.9121  -20.1290    0.9644 P   0  0  1  0  0  0  0  0  0  0  0  0
  -19.0954  -10.3692    1.3808 C   0  0  0  0  0  0  0  0  0  0  0  0
  -16.9574  -11.6519    1.7977 C   0  0  0  0  0  0  0  0  0  0  0  0
  -17.6410  -10.6833    1.0736 C   0  0  0  0  0  0  0  0  0  0  0  0
  -16.9744  -10.0190    0.0571 C   0  0  0  0  0  0  0  0  0  0  0  0
  -17.5992   -9.0656   -0.6757 N   0  0  0  0  0  0  0  0  0  0  0  0
  -15.6855  -10.3247   -0.2072 N   0  0  0  0  0  0  0  0  0  0  0  0
  -15.0414  -11.2695    0.5121 C   0  0  0  0  0  0  0  0  0  0  0  0
  -15.6777  -11.9287    1.5110 N   0  0  0  0  0  0  0  0  0  0  0  0
  -23.7177  -17.3392    3.0660 O   0  5  0  0  0  0  0  0  0  0  0  0
  -24.6564  -20.4658    2.2199 O   0  0  0  0  0  0  0  0  0  0  0  0
  -21.1352  -12.3712   -1.3794 S   0  0  0  0  0  0  0  0  0  0  0  0
  -19.9464  -11.2634   -0.7689 C   0  0  0  0  0  0  0  0  0  0  0  0
  -21.5935  -17.7464    1.6797 O   0  0  0  0  0  0  0  0  0  0  0  0
  -24.6890  -20.6107   -0.2152 O   0  5  0  0  0  0  0  0  0  0  0  0
  -19.9872  -11.2191    0.5917 N   0  0  0  0  0  0  0  0  0  0  0  0
  -23.9095  -18.5134    0.8289 O   0  0  0  0  0  0  0  0  0  0  0  0
  -22.4677  -20.5474    0.9219 O   0  0  0  0  0  0  0  0  0  0  0  0
  -20.9155  -12.0195    1.1842 C   0  0  1  0  0  0  0  0  0  0  0  0
  -21.6948  -12.8037    0.1881 C   0  0  1  0  0  0  0  0  0  0  0  0
  -22.8114  -13.8100    0.2742 C   0  0  0  0  0  0  0  0  0  0  0  0
  -22.3451  -14.9846    1.1199 C   0  0  0  0  0  0  0  0  0  0  0  0
  -23.2711  -16.0504    0.9483 O   0  0  0  0  0  0  0  0  0  0  0  0
  1 11  1  0  0  0  0
  3 13  1  1  0  0  0
  3 17  2  0  0  0  0
  3 20  1  0  0  0  0
  3 26  1  0  0  0  0
  4 14  1  1  0  0  0
  4 18  1  0  0  0  0
  4 21  2  0  0  0  0
  4 20  1  0  0  0  0
  5 19  1  0  0  0  0
  5  7  1  0  0  0  0
  6  7  2  0  0  0  0
  6 12  1  0  0  0  0
  7  8  1  0  0  0  0
  8  9  1  0  0  0  0
  8 10  2  0  0  0  0
 10 11  1  0  0  0  0
 11 12  2  0  0  0  0
 15 23  1  0  0  0  0
 15 16  1  0  0  0  0
 16 19  1  0  0  0  0
 19 22  1  0  0  0  0
 22  2  1  1  0  0  0
 22 23  1  0  0  0  0
 23 24  1  6  0  0  0
 24 25  1  0  0  0  0
 25 26  1  0  0  0  0
M  CHG  2  13  -1  18  -1
M  END
>  <CHROM.1>
-75.13675025,-57.02336502,-89.66808667,72.28950950,122.65856330,-166.97497877
-179.98179277,87.29691665,-20.80553047,-14.63186139,0.80722643,-0.90356986
0.09401152,2.96408997

>  <Name>
ligand

>  <RI>
0

>  <Rbt.Current_Directory>
/home/itssahil/PROJECTS/Mol_Feturizer/New_Systems/rnas/2GDI

>  <Rbt.Executable>
rbdock ($Id: //depot/dev/client3/rdock/2013.1/src/exe/rbdock.cxx#4 $)

>  <Rbt.Library>
libRbt.so (2013.1, Build901 2013/11/27)

>  <Rbt.Parameter_File>
/export/apps/rDock/src/rDock_2013.1_src/data/scripts/dock_solv.prm

>  <Rbt.Receptor>
prm/pocket_docking_4.prm

>  <SCORE>
-12.0492

>  <SCORE.INTER>
-11.9237

>  <SCORE.INTER.CONST>
1

>  <SCORE.INTER.POLAR>
0

>  <SCORE.INTER.ROT>
8

>  <SCORE.INTER.SOLV>
20.7737

>  <SCORE.INTER.VDW>
-23.8071

>  <SCORE.INTER.norm>
-0.458605

>  <SCORE.INTRA>
-0.125456

>  <SCORE.INTRA.DIHEDRAL>
-1.87162

>  <SCORE.INTRA.DIHEDRAL.0>
8.13976

>  <SCORE.INTRA.POLAR>
0

>  <SCORE.INTRA.POLAR.0>
0

>  <SCORE.INTRA.REPUL>
0

>  <SCORE.INTRA.REPUL.0>
0

>  <SCORE.INTRA.SOLV>
1.52465

>  <SCORE.INTRA.SOLV.lig_0>
-82.9561

>  <SCORE.INTRA.VDW>
0.0480267

>  <SCORE.INTRA.VDW.0>
-3.29171

>  <SCORE.INTRA.norm>
-0.00482524

>  <SCORE.RESTR>
0

>  <SCORE.RESTR.CAVITY>
0

>  <SCORE.RESTR.norm>
0

>  <SCORE.SYSTEM>
0

>  <SCORE.SYSTEM.CONST>
0

>  <SCORE.SYSTEM.DIHEDRAL>
0

>  <SCORE.SYSTEM.SOLV>
0

>  <SCORE.SYSTEM.norm>
0

>  <SCORE.heavy>
26

>  <SCORE.norm>
-0.46343

>  <RMSD>
3.465

$$$$
ligand
 OpenBabel11021811433D
libRbt.so/2013.1/901 2013/11/27
 26 27  0  0  0  0  0  0  0  0999 V2000
  -13.1979  -13.0981    0.2777 C   0  0  0  0  0  0  0  0  0  0  0  0
  -21.3403  -12.3954   -1.2756 C   0  0  0  0  0  0  0  0  0  0  0  0
  -23.0150  -16.1616    0.3618 P   0  0  1  0  0  0  0  0  0  0  0  0
  -20.8272  -18.0503    0.6863 P   0  0  1  0  0  0  0  0  0  0  0  0
  -18.5500  -11.4140   -0.9678 C   0  0  0  0  0  0  0  0  0  0  0  0
  -16.7510  -13.1822   -0.8032 C   0  0  0  0  0  0  0  0  0  0  0  0
  -17.1377  -11.8595   -0.6283 C   0  0  0  0  0  0  0  0  0  0  0  0
  -16.2063  -10.9519   -0.1512 C   0  0  0  0  0  0  0  0  0  0  0  0
  -16.5373   -9.6513    0.0367 N   0  0  0  0  0  0  0  0  0  0  0  0
  -14.9525  -11.3679    0.1309 N   0  0  0  0  0  0  0  0  0  0  0  0
  -14.6006  -12.6602   -0.0458 C   0  0  0  0  0  0  0  0  0  0  0  0
  -15.4994  -13.5621   -0.5108 N   0  0  0  0  0  0  0  0  0  0  0  0
  -23.4284  -16.4285   -1.0617 O   0  5  0  0  0  0  0  0  0  0  0  0
  -21.7377  -18.9964   -0.0344 O   0  0  0  0  0  0  0  0  0  0  0  0
  -20.3379  -11.5963    2.5758 S   0  0  0  0  0  0  0  0  0  0  0  0
  -19.0450  -11.2926    1.4581 C   0  0  0  0  0  0  0  0  0  0  0  0
  -23.8549  -16.7681    1.4489 O   0  0  0  0  0  0  0  0  0  0  0  0
  -19.5136  -17.9940   -0.0196 O   0  5  0  0  0  0  0  0  0  0  0  0
  -19.4361  -11.5766    0.1848 N   0  0  0  0  0  0  0  0  0  0  0  0
  -21.4529  -16.5638    0.5192 O   0  0  0  0  0  0  0  0  0  0  0  0
  -20.6846  -18.2720    2.1674 O   0  0  0  0  0  0  0  0  0  0  0  0
  -20.7132  -12.0261    0.0424 C   0  0  1  0  0  0  0  0  0  0  0  0
  -21.4299  -12.0952    1.3447 C   0  0  1  0  0  0  0  0  0  0  0  0
  -22.8141  -12.5084    1.7693 C   0  0  0  0  0  0  0  0  0  0  0  0
  -22.8540  -14.0234    1.8940 C   0  0  0  0  0  0  0  0  0  0  0  0
  -23.0375  -14.5710    0.5942 O   0  0  0  0  0  0  0  0  0  0  0  0
  1 11  1  0  0  0  0
  3 13  1  6  0  0  0
  3 17  2  0  0  0  0
  3 20  1  0  0  0  0
  3 26  1  0  0  0  0
  4 14  1  6  0  0  0
  4 18  1  0  0  0  0
  4 21  2  0  0  0  0
  4 20  1  0  0  0  0
  5 19  1  0  0  0  0
  5  7  1  0  0  0  0
  6  7  2  0  0  0  0
  6 12  1  0  0  0  0
  7  8  1  0  0  0  0
  8  9  1  0  0  0  0
  8 10  2  0  0  0  0
 10 11  1  0  0  0  0
 11 12  2  0  0  0  0
 15 23  1  0  0  0  0
 15 16  1  0  0  0  0
 16 19  1  0  0  0  0
 19 22  1  0  0  0  0
 22  2  1  6  0  0  0
 22 23  1  0  0  0  0
 23 24  1  1  0  0  0
 24 25  1  0  0  0  0
 25 26  1  0  0  0  0
M  CHG  2  13  -1  18  -1
M  END
>  <CHROM.1>
-78.55350397,39.69042584,88.66315844,30.07570135,-96.76798031,-81.46814260
175.47341216,172.07635969,-19.92003179,-14.14606153,0.49744976,-0.69882693
-0.16765064,-3.05408255

>  <Name>
ligand

>  <RI>
0

>  <Rbt.Current_Directory>
/home/itssahil/PROJECTS/Mol_Feturizer/New_Systems/rnas/2GDI

>  <Rbt.Executable>
rbdock ($Id: //depot/dev/client3/rdock/2013.1/src/exe/rbdock.cxx#4 $)

>  <Rbt.Library>
libRbt.so (2013.1, Build901 2013/11/27)

>  <Rbt.Parameter_File>
/export/apps/rDock/src/rDock_2013.1_src/data/scripts/dock_solv.prm

>  <Rbt.Receptor>
prm/pocket_docking_3.prm

>  <SCORE>
-6.9464

>  <SCORE.INTER>
-6.91722

>  <SCORE.INTER.CONST>
1

>  <SCORE.INTER.POLAR>
0

>  <SCORE.INTER.ROT>
8

>  <SCORE.INTER.SOLV>
14.824

>  <SCORE.INTER.VDW>
-18.4861

>  <SCORE.INTER.norm>
-0.266047

>  <SCORE.INTRA>
-0.0291758

>  <SCORE.INTRA.DIHEDRAL>
0.148865

>  <SCORE.INTRA.DIHEDRAL.0>
8.13976

>  <SCORE.INTRA.POLAR>
0

>  <SCORE.INTRA.POLAR.0>
0

>  <SCORE.INTRA.REPUL>
0

>  <SCORE.INTRA.REPUL.0>
0

>  <SCORE.INTRA.SOLV>
0.806433

>  <SCORE.INTRA.SOLV.lig_0>
-82.9561

>  <SCORE.INTRA.VDW>
-0.506825

>  <SCORE.INTRA.VDW.0>
-3.29171

>  <SCORE.INTRA.norm>
-0.00112215

>  <SCORE.RESTR>
0

>  <SCORE.RESTR.CAVITY>
0

>  <SCORE.RESTR.norm>
0

>  <SCORE.SYSTEM>
0

>  <SCORE.SYSTEM.CONST>
0

>  <SCORE.SYSTEM.DIHEDRAL>
0

>  <SCORE.SYSTEM.SOLV>
0

>  <SCORE.SYSTEM.norm>
0

>  <SCORE.heavy>
26

>  <SCORE.norm>
-0.267169

>  <RMSD>
3.475

$$$$
ligand
 OpenBabel11021811433D
libRbt.so/2013.1/901 2013/11/27
 26 27  0  0  0  0  0  0  0  0999 V2000
  -13.7247  -12.5267    0.0636 C   0  0  0  0  0  0  0  0  0  0  0  0
  -20.6973  -11.7856    2.5194 C   0  0  0  0  0  0  0  0  0  0  0  0
  -24.7682  -14.9699    2.6049 P   0  0  1  0  0  0  0  0  0  0  0  0
  -23.5286  -17.5525    2.1026 P   0  0  1  0  0  0  0  0  0  0  0  0
  -18.9213  -10.1728    0.7623 C   0  0  0  0  0  0  0  0  0  0  0  0
  -17.3213  -11.7325   -0.4200 C   0  0  0  0  0  0  0  0  0  0  0  0
  -17.5495  -10.8016    0.5856 C   0  0  0  0  0  0  0  0  0  0  0  0
  -16.4982  -10.4480    1.4154 C   0  0  0  0  0  0  0  0  0  0  0  0
  -16.6728   -9.5453    2.4109 N   0  0  0  0  0  0  0  0  0  0  0  0
  -15.2838  -11.0099    1.2308 N   0  0  0  0  0  0  0  0  0  0  0  0
  -15.0869  -11.9143    0.2468 C   0  0  0  0  0  0  0  0  0  0  0  0
  -16.1044  -12.2729   -0.5738 N   0  0  0  0  0  0  0  0  0  0  0  0
  -26.1217  -15.5430    2.9338 O   0  5  0  0  0  0  0  0  0  0  0  0
  -22.7336  -18.1053    0.9599 O   0  0  0  0  0  0  0  0  0  0  0  0
  -21.4892  -12.2643   -1.4329 S   0  0  0  0  0  0  0  0  0  0  0  0
  -20.1849  -11.1601   -1.1280 C   0  0  0  0  0  0  0  0  0  0  0  0
  -23.9282  -14.4843    3.7509 O   0  0  0  0  0  0  0  0  0  0  0  0
  -22.6378  -17.3813    3.2876 O   0  5  0  0  0  0  0  0  0  0  0  0
  -19.9634  -11.0385    0.2103 N   0  0  0  0  0  0  0  0  0  0  0  0
  -23.9704  -16.0470    1.6938 O   0  0  0  0  0  0  0  0  0  0  0  0
  -24.8037  -18.2799    2.4316 O   0  0  0  0  0  0  0  0  0  0  0  0
  -20.7758  -11.7762    1.0159 C   0  0  1  0  0  0  0  0  0  0  0  0
  -21.7460  -12.5913    0.2357 C   0  0  1  0  0  0  0  0  0  0  0  0
  -22.8440  -13.5574    0.5935 C   0  0  0  0  0  0  0  0  0  0  0  0
  -23.9234  -12.8073    1.3580 C   0  0  0  0  0  0  0  0  0  0  0  0
  -24.9870  -13.7125    1.6274 O   0  0  0  0  0  0  0  0  0  0  0  0
  1 11  1  0  0  0  0
  3 13  1  1  0  0  0
  3 17  2  0  0  0  0
  3 20  1  0  0  0  0
  3 26  1  0  0  0  0
  4 14  1  6  0  0  0
  4 18  1  0  0  0  0
  4 21  2  0  0  0  0
  4 20  1  0  0  0  0
  5 19  1  0  0  0  0
  5  7  1  0  0  0  0
  6  7  2  0  0  0  0
  6 12  1  0  0  0  0
  7  8  1  0  0  0  0
  8  9  1  0  0  0  0
  8 10  2  0  0  0  0
 10 11  1  0  0  0  0
 11 12  2  0  0  0  0
 15 23  1  0  0  0  0
 15 16  1  0  0  0  0
 16 19  1  0  0  0  0
 19 22  1  0  0  0  0
 22  2  1  6  0  0  0
 22 23  1  0  0  0  0
 23 24  1  1  0  0  0
 24 25  1  0  0  0  0
 25 26  1  0  0  0  0
M  CHG  2  13  -1  18  -1
M  END
>  <CHROM.1>
-61.98240526,-75.61917082,24.27637972,-175.97763125,-114.76908074,176.91183771
65.68162691,167.39438163,-21.12289936,-13.57002491,1.22670366,-0.60884720
-0.07259915,2.89545051

>  <Name>
ligand

>  <RI>
0

>  <Rbt.Current_Directory>
/home/itssahil/PROJECTS/Mol_Feturizer/New_Systems/rnas/2GDI

>  <Rbt.Executable>
rbdock ($Id: //depot/dev/client3/rdock/2013.1/src/exe/rbdock.cxx#4 $)

>  <Rbt.Library>
libRbt.so (2013.1, Build901 2013/11/27)

>  <Rbt.Parameter_File>
/export/apps/rDock/src/rDock_2013.1_src/data/scripts/dock_solv.prm

>  <Rbt.Receptor>
prm/pocket_docking_3.prm

>  <SCORE>
-6.7795

>  <SCORE.INTER>
-7.35031

>  <SCORE.INTER.CONST>
1

>  <SCORE.INTER.POLAR>
0

>  <SCORE.INTER.ROT>
8

>  <SCORE.INTER.SOLV>
18.3473

>  <SCORE.INTER.VDW>
-19.9493

>  <SCORE.INTER.norm>
-0.282704

>  <SCORE.INTRA>
0.565722

>  <SCORE.INTRA.DIHEDRAL>
-2.92677

>  <SCORE.INTRA.DIHEDRAL.0>
8.13976

>  <SCORE.INTRA.POLAR>
0

>  <SCORE.INTRA.POLAR.0>
0

>  <SCORE.INTRA.REPUL>
0

>  <SCORE.INTRA.REPUL.0>
0

>  <SCORE.INTRA.SOLV>
3.10303

>  <SCORE.INTRA.SOLV.lig_0>
-82.9561

>  <SCORE.INTRA.VDW>
0.477589

>  <SCORE.INTRA.VDW.0>
-3.29171

>  <SCORE.INTRA.norm>
0.0217585

>  <SCORE.RESTR>
0.00509149

>  <SCORE.RESTR.CAVITY>
0.00509149

>  <SCORE.RESTR.norm>
0.000195826

>  <SCORE.SYSTEM>
0

>  <SCORE.SYSTEM.CONST>
0

>  <SCORE.SYSTEM.DIHEDRAL>
0

>  <SCORE.SYSTEM.SOLV>
0

>  <SCORE.SYSTEM.norm>
0

>  <SCORE.heavy>
26

>  <SCORE.norm>
-0.26075

>  <RMSD>
3.477

$$$$
ligand
 OpenBabel11021811433D
libRbt.so/2013.1/901 2013/11/27
 26 27  0  0  0  0  0  0  0  0999 V2000
  -13.4293  -12.0394    0.1634 C   0  0  0  0  0  0  0  0  0  0  0  0
  -20.8924  -12.0589    2.6892 C   0  0  0  0  0  0  0  0  0  0  0  0
  -20.4991  -16.6942    1.4179 P   0  0  1  0  0  0  0  0  0  0  0  0
  -21.5657  -19.3736    1.7948 P   0  0  1  0  0  0  0  0  0  0  0  0
  -18.8125  -10.4106    1.3473 C   0  0  0  0  0  0  0  0  0  0  0  0
  -16.7908  -11.8773    1.7366 C   0  0  0  0  0  0  0  0  0  0  0  0
  -17.3858  -10.8331    1.0400 C   0  0  0  0  0  0  0  0  0  0  0  0
  -16.6574  -10.1935    0.0504 C   0  0  0  0  0  0  0  0  0  0  0  0
  -17.1950   -9.1690   -0.6550 N   0  0  0  0  0  0  0  0  0  0  0  0
  -15.3953  -10.5953   -0.2149 N   0  0  0  0  0  0  0  0  0  0  0  0
  -14.8376  -11.6125    0.4775 C   0  0  0  0  0  0  0  0  0  0  0  0
  -15.5353  -12.2489    1.4498 N   0  0  0  0  0  0  0  0  0  0  0  0
  -19.9049  -16.7702    2.7998 O   0  5  0  0  0  0  0  0  0  0  0  0
  -20.2609  -19.9267    1.3100 O   0  0  0  0  0  0  0  0  0  0  0  0
  -21.0239  -12.2984   -1.3607 S   0  0  0  0  0  0  0  0  0  0  0  0
  -19.7646  -11.2542   -0.7803 C   0  0  0  0  0  0  0  0  0  0  0  0
  -19.5494  -16.7401    0.2556 O   0  0  0  0  0  0  0  0  0  0  0  0
  -21.5458  -19.2938    3.2850 O   0  5  0  0  0  0  0  0  0  0  0  0
  -19.7669  -11.2119    0.5809 N   0  0  0  0  0  0  0  0  0  0  0  0
  -21.6464  -17.8326    1.2971 O   0  0  0  0  0  0  0  0  0  0  0  0
  -22.8038  -20.0426    1.2630 O   0  0  0  0  0  0  0  0  0  0  0  0
  -20.7186  -11.9660    1.1966 C   0  0  1  0  0  0  0  0  0  0  0  0
  -21.5628  -12.7067    0.2204 C   0  0  1  0  0  0  0  0  0  0  0  0
  -22.7264  -13.6554    0.3347 C   0  0  0  0  0  0  0  0  0  0  0  0
  -22.2065  -15.0801    0.2243 C   0  0  0  0  0  0  0  0  0  0  0  0
  -21.3054  -15.3084    1.3009 O   0  0  0  0  0  0  0  0  0  0  0  0
  1 11  1  0  0  0  0
  3 13  1  1  0  0  0
  3 17  2  0  0  0  0
  3 20  1  0  0  0  0
  3 26  1  0  0  0  0
  4 14  1  6  0  0  0
  4 18  1  0  0  0  0
  4 21  2  0  0  0  0
  4 20  1  0  0  0  0
  5 19  1  0  0  0  0
  5  7  1  0  0  0  0
  6  7  2  0  0  0  0
  6 12  1  0  0  0  0
  7  8  1  0  0  0  0
  8  9  1  0  0  0  0
  8 10  2  0  0  0  0
 10 11  1  0  0  0  0
 11 12  2  0  0  0  0
 15 23  1  0  0  0  0
 15 16  1  0  0  0  0
 16 19  1  0  0  0  0
 19 22  1  0  0  0  0
 22  2  1  1  0  0  0
 22 23  1  0  0  0  0
 23 24  1  6  0  0  0
 24 25  1  0  0  0  0
 25 26  1  0  0  0  0
M  CHG  2  13  -1  18  -1
M  END
>  <CHROM.1>
-44.25270002,-59.16839220,-86.41905382,-47.38020744,83.20259510,61.38113054
-175.81094300,-166.47785397,-19.66312877,-14.36691313,0.89247733,-1.04504968
0.12583447,2.89183373

>  <Name>
ligand

>  <RI>
0

>  <Rbt.Current_Directory>
/home/itssahil/PROJECTS/Mol_Feturizer/New_Systems/rnas/2GDI

>  <Rbt.Executable>
rbdock ($Id: //depot/dev/client3/rdock/2013.1/src/exe/rbdock.cxx#4 $)

>  <Rbt.Library>
libRbt.so (2013.1, Build901 2013/11/27)

>  <Rbt.Parameter_File>
/export/apps/rDock/src/rDock_2013.1_src/data/scripts/dock_solv.prm

>  <Rbt.Receptor>
prm/pocket_docking_4.prm

>  <SCORE>
-13.4469

>  <SCORE.INTER>
-12.1237

>  <SCORE.INTER.CONST>
1

>  <SCORE.INTER.POLAR>
0

>  <SCORE.INTER.ROT>
8

>  <SCORE.INTER.SOLV>
23.0513

>  <SCORE.INTER.VDW>
-24.6996

>  <SCORE.INTER.norm>
-0.466298

>  <SCORE.INTRA>
-1.32313

>  <SCORE.INTRA.DIHEDRAL>
-2.04817

>  <SCORE.INTRA.DIHEDRAL.0>
8.13976

>  <SCORE.INTRA.POLAR>
0

>  <SCORE.INTRA.POLAR.0>
0

>  <SCORE.INTRA.REPUL>
0

>  <SCORE.INTRA.REPUL.0>
0

>  <SCORE.INTRA.SOLV>
0.84262

>  <SCORE.INTRA.SOLV.lig_0>
-82.9561

>  <SCORE.INTRA.VDW>
-0.720358

>  <SCORE.INTRA.VDW.0>
-3.29171

>  <SCORE.INTRA.norm>
-0.0508897

>  <SCORE.RESTR>
0

>  <SCORE.RESTR.CAVITY>
0

>  <SCORE.RESTR.norm>
0

>  <SCORE.SYSTEM>
0

>  <SCORE.SYSTEM.CONST>
0

>  <SCORE.SYSTEM.DIHEDRAL>
0

>  <SCORE.SYSTEM.SOLV>
0

>  <SCORE.SYSTEM.norm>
0

>  <SCORE.heavy>
26

>  <SCORE.norm>
-0.517187

>  <RMSD>
3.481

$$$$
ligand
 OpenBabel11021811433D
libRbt.so/2013.1/901 2013/11/27
 26 27  0  0  0  0  0  0  0  0999 V2000
  -13.1933  -11.5368    0.0679 C   0  0  0  0  0  0  0  0  0  0  0  0
  -20.7769  -11.5402    2.5806 C   0  0  0  0  0  0  0  0  0  0  0  0
  -21.5972  -16.4892    0.5647 P   0  0  1  0  0  0  0  0  0  0  0  0
  -20.7358  -18.1387    2.7998 P   0  0  1  0  0  0  0  0  0  0  0  0
  -18.6605  -10.0834    1.0834 C   0  0  0  0  0  0  0  0  0  0  0  0
  -16.3799   -9.6274    0.0929 C   0  0  0  0  0  0  0  0  0  0  0  0
  -17.2184  -10.4739    0.8071 C   0  0  0  0  0  0  0  0  0  0  0  0
  -16.7100  -11.6749    1.2740 C   0  0  0  0  0  0  0  0  0  0  0  0
  -17.4900  -12.5336    1.9744 N   0  0  0  0  0  0  0  0  0  0  0  0
  -15.4209  -11.9948    1.0282 N   0  0  0  0  0  0  0  0  0  0  0  0
  -14.6253  -11.1557    0.3296 C   0  0  0  0  0  0  0  0  0  0  0  0
  -15.1063   -9.9770   -0.1358 N   0  0  0  0  0  0  0  0  0  0  0  0
  -21.0042  -16.1988   -0.7890 O   0  5  0  0  0  0  0  0  0  0  0  0
  -19.9741  -17.0910    3.5519 O   0  0  0  0  0  0  0  0  0  0  0  0
  -20.7658  -12.3686   -1.3931 S   0  0  0  0  0  0  0  0  0  0  0  0
  -19.5332  -11.2378   -0.9292 C   0  0  0  0  0  0  0  0  0  0  0  0
  -23.0748  -16.7489    0.6288 O   0  0  0  0  0  0  0  0  0  0  0  0
  -22.1676  -18.1057    3.2194 O   0  5  0  0  0  0  0  0  0  0  0  0
  -19.5832  -10.9977    0.4105 N   0  0  0  0  0  0  0  0  0  0  0  0
  -20.7491  -17.6936    1.2408 O   0  0  0  0  0  0  0  0  0  0  0  0
  -20.1519  -19.5249    2.8264 O   0  0  0  0  0  0  0  0  0  0  0  0
  -20.5517  -11.6639    1.0972 C   0  0  1  0  0  0  0  0  0  0  0  0
  -21.3573  -12.5477    0.2117 C   0  0  1  0  0  0  0  0  0  0  0  0
  -22.5190  -13.4818    0.4239 C   0  0  0  0  0  0  0  0  0  0  0  0
  -22.3078  -14.2340    1.7284 C   0  0  0  0  0  0  0  0  0  0  0  0
  -21.3092  -15.2238    1.5134 O   0  0  0  0  0  0  0  0  0  0  0  0
  1 11  1  0  0  0  0
  3 13  1  6  0  0  0
  3 17  2  0  0  0  0
  3 20  1  0  0  0  0
  3 26  1  0  0  0  0
  4 14  1  1  0  0  0
  4 18  1  0  0  0  0
  4 21  2  0  0  0  0
  4 20  1  0  0  0  0
  5 19  1  0  0  0  0
  5  7  1  0  0  0  0
  6  7  2  0  0  0  0
  6 12  1  0  0  0  0
  7  8  1  0  0  0  0
  8  9  1  0  0  0  0
  8 10  2  0  0  0  0
 10 11  1  0  0  0  0
 11 12  2  0  0  0  0
 15 23  1  0  0  0  0
 15 16  1  0  0  0  0
 16 19  1  0  0  0  0
 19 22  1  0  0  0  0
 22  2  1  1  0  0  0
 22 23  1  0  0  0  0
 23 24  1  6  0  0  0
 24 25  1  0  0  0  0
 25 26  1  0  0  0  0
M  CHG  2  13  -1  18  -1
M  END
>  <CHROM.1>
163.89431234,-55.12287199,115.34555791,-72.80651924,141.36188569,-75.10348691
-68.34533164,98.48125327,-19.64769361,-13.99704851,1.00501898,-0.92869084
0.20970467,2.75672330

>  <Name>
ligand

>  <RI>
0

>  <Rbt.Current_Directory>
/home/itssahil/PROJECTS/Mol_Feturizer/New_Systems/rnas/2GDI

>  <Rbt.Executable>
rbdock ($Id: //depot/dev/client3/rdock/2013.1/src/exe/rbdock.cxx#4 $)

>  <Rbt.Library>
libRbt.so (2013.1, Build901 2013/11/27)

>  <Rbt.Parameter_File>
/export/apps/rDock/src/rDock_2013.1_src/data/scripts/dock_solv.prm

>  <Rbt.Receptor>
prm/pocket_docking_4.prm

>  <SCORE>
-11.5515

>  <SCORE.INTER>
-13.4441

>  <SCORE.INTER.CONST>
1

>  <SCORE.INTER.POLAR>
0

>  <SCORE.INTER.ROT>
8

>  <SCORE.INTER.SOLV>
13.6847

>  <SCORE.INTER.VDW>
-22.4577

>  <SCORE.INTER.norm>
-0.517082

>  <SCORE.INTRA>
1.89261

>  <SCORE.INTRA.DIHEDRAL>
-0.247084

>  <SCORE.INTRA.DIHEDRAL.0>
8.13976

>  <SCORE.INTRA.POLAR>
0

>  <SCORE.INTRA.POLAR.0>
0

>  <SCORE.INTRA.REPUL>
0

>  <SCORE.INTRA.REPUL.0>
0

>  <SCORE.INTRA.SOLV>
4.40755

>  <SCORE.INTRA.SOLV.lig_0>
-82.9561

>  <SCORE.INTRA.VDW>
-0.18763

>  <SCORE.INTRA.VDW.0>
-3.29171

>  <SCORE.INTRA.norm>
0.0727925

>  <SCORE.RESTR>
0

>  <SCORE.RESTR.CAVITY>
0

>  <SCORE.RESTR.norm>
0

>  <SCORE.SYSTEM>
0

>  <SCORE.SYSTEM.CONST>
0

>  <SCORE.SYSTEM.DIHEDRAL>
0

>  <SCORE.SYSTEM.SOLV>
0

>  <SCORE.SYSTEM.norm>
0

>  <SCORE.heavy>
26

>  <SCORE.norm>
-0.444289

>  <RMSD>
3.485

$$$$
ligand
 OpenBabel11021811433D
libRbt.so/2013.1/901 2013/11/27
 26 27  0  0  0  0  0  0  0  0999 V2000
  -13.8470  -10.0255    0.3540 C   0  0  0  0  0  0  0  0  0  0  0  0
  -21.7038  -12.8522   -1.1384 C   0  0  0  0  0  0  0  0  0  0  0  0
  -23.2179  -16.8561    3.9199 P   0  0  1  0  0  0  0  0  0  0  0  0
  -20.8565  -18.1092    2.7745 P   0  0  1  0  0  0  0  0  0  0  0  0
  -19.3568  -11.0379   -0.9306 C   0  0  0  0  0  0  0  0  0  0  0  0
  -17.4154   -9.4723   -0.5181 C   0  0  0  0  0  0  0  0  0  0  0  0
  -17.8976  -10.7725   -0.6010 C   0  0  0  0  0  0  0  0  0  0  0  0
  -17.0248  -11.8218   -0.3639 C   0  0  0  0  0  0  0  0  0  0  0  0
  -17.4488  -13.1069   -0.4345 N   0  0  0  0  0  0  0  0  0  0  0  0
  -15.7349  -11.5614   -0.0589 N   0  0  0  0  0  0  0  0  0  0  0  0
  -15.2891  -10.2882    0.0142 C   0  0  0  0  0  0  0  0  0  0  0  0
  -16.1288   -9.2493   -0.2158 N   0  0  0  0  0  0  0  0  0  0  0  0
  -24.5681  -17.4448    4.2344 O   0  5  0  0  0  0  0  0  0  0  0  0
  -20.2002  -16.7634    2.7339 O   0  0  0  0  0  0  0  0  0  0  0  0
  -20.8018  -11.8298    2.6849 S   0  0  0  0  0  0  0  0  0  0  0  0
  -19.7340  -11.1146    1.5182 C   0  0  0  0  0  0  0  0  0  0  0  0
  -22.3450  -16.4744    5.0806 O   0  0  0  0  0  0  0  0  0  0  0  0
  -20.4766  -18.8066    4.0380 O   0  5  0  0  0  0  0  0  0  0  0  0
  -20.0824  -11.4904    0.2564 N   0  0  0  0  0  0  0  0  0  0  0  0
  -22.4533  -17.8589    2.9018 O   0  0  0  0  0  0  0  0  0  0  0  0
  -20.6713  -18.9701    1.5547 O   0  0  0  0  0  0  0  0  0  0  0  0
  -21.1567  -12.3211    0.1597 C   0  0  1  0  0  0  0  0  0  0  0  0
  -21.7435  -12.6331    1.4911 C   0  0  1  0  0  0  0  0  0  0  0  0
  -22.9003  -13.4714    1.9666 C   0  0  0  0  0  0  0  0  0  0  0  0
  -22.3532  -14.6863    2.6994 C   0  0  0  0  0  0  0  0  0  0  0  0
  -23.4491  -15.5197    3.0569 O   0  0  0  0  0  0  0  0  0  0  0  0
  1 11  1  0  0  0  0
  3 13  1  1  0  0  0
  3 17  2  0  0  0  0
  3 20  1  0  0  0  0
  3 26  1  0  0  0  0
  4 14  1  6  0  0  0
  4 18  1  0  0  0  0
  4 21  2  0  0  0  0
  4 20  1  0  0  0  0
  5 19  1  0  0  0  0
  5  7  1  0  0  0  0
  6  7  2  0  0  0  0
  6 12  1  0  0  0  0
  7  8  1  0  0  0  0
  8  9  1  0  0  0  0
  8 10  2  0  0  0  0
 10 11  1  0  0  0  0
 11 12  2  0  0  0  0
 15 23  1  0  0  0  0
 15 16  1  0  0  0  0
 16 19  1  0  0  0  0
 19 22  1  0  0  0  0
 22  2  1  6  0  0  0
 22 23  1  0  0  0  0
 23 24  1  1  0  0  0
 24 25  1  0  0  0  0
 25 26  1  0  0  0  0
M  CHG  2  13  -1  18  -1
M  END
>  <CHROM.1>
-149.45816116,29.37731012,-106.80220890,-47.48072166,-68.61838543,-175.75891541
-176.62795183,175.07594021,-20.26485231,-14.06629795,1.73505721,-0.93469123
-0.24188089,2.82947629

>  <Name>
ligand

>  <RI>
0

>  <Rbt.Current_Directory>
/home/itssahil/PROJECTS/Mol_Feturizer/New_Systems/rnas/2GDI

>  <Rbt.Executable>
rbdock ($Id: //depot/dev/client3/rdock/2013.1/src/exe/rbdock.cxx#4 $)

>  <Rbt.Library>
libRbt.so (2013.1, Build901 2013/11/27)

>  <Rbt.Parameter_File>
/export/apps/rDock/src/rDock_2013.1_src/data/scripts/dock_solv.prm

>  <Rbt.Receptor>
prm/pocket_docking_4.prm

>  <SCORE>
-13.6844

>  <SCORE.INTER>
-13.8481

>  <SCORE.INTER.CONST>
1

>  <SCORE.INTER.POLAR>
0

>  <SCORE.INTER.ROT>
8

>  <SCORE.INTER.SOLV>
14.7585

>  <SCORE.INTER.VDW>
-23.0849

>  <SCORE.INTER.norm>
-0.53262

>  <SCORE.INTRA>
0.163714

>  <SCORE.INTRA.DIHEDRAL>
-1.08643

>  <SCORE.INTRA.DIHEDRAL.0>
8.13976

>  <SCORE.INTRA.POLAR>
0

>  <SCORE.INTRA.POLAR.0>
0

>  <SCORE.INTRA.REPUL>
0

>  <SCORE.INTRA.REPUL.0>
0

>  <SCORE.INTRA.SOLV>
1.49401

>  <SCORE.INTRA.SOLV.lig_0>
-82.9561

>  <SCORE.INTRA.VDW>
-0.0400753

>  <SCORE.INTRA.VDW.0>
-3.29171

>  <SCORE.INTRA.norm>
0.00629671

>  <SCORE.RESTR>
0

>  <SCORE.RESTR.CAVITY>
0

>  <SCORE.RESTR.norm>
0

>  <SCORE.SYSTEM>
0

>  <SCORE.SYSTEM.CONST>
0

>  <SCORE.SYSTEM.DIHEDRAL>
0

>  <SCORE.SYSTEM.SOLV>
0

>  <SCORE.SYSTEM.norm>
0

>  <SCORE.heavy>
26

>  <SCORE.norm>
-0.526323

>  <RMSD>
3.498

$$$$
ligand
 OpenBabel11021811433D
libRbt.so/2013.1/901 2013/11/27
 26 27  0  0  0  0  0  0  0  0999 V2000
  -13.2067  -12.8031    0.2911 C   0  0  0  0  0  0  0  0  0  0  0  0
  -21.1107  -12.8613   -1.2444 C   0  0  0  0  0  0  0  0  0  0  0  0
  -21.2398  -16.8525    2.2029 P   0  0  1  0  0  0  0  0  0  0  0  0
  -19.7933  -17.2452   -0.2895 P   0  0  1  0  0  0  0  0  0  0  0  0
  -18.6293  -11.2723   -0.8427 C   0  0  0  0  0  0  0  0  0  0  0  0
  -16.7933  -12.9999   -0.6567 C   0  0  0  0  0  0  0  0  0  0  0  0
  -17.1981  -11.6768   -0.5327 C   0  0  0  0  0  0  0  0  0  0  0  0
  -16.2675  -10.7314   -0.1338 C   0  0  0  0  0  0  0  0  0  0  0  0
  -16.6157   -9.4288    0.0024 N   0  0  0  0  0  0  0  0  0  0  0  0
  -14.9971  -11.1119    0.1232 N   0  0  0  0  0  0  0  0  0  0  0  0
  -14.6278  -12.4052   -0.0030 C   0  0  0  0  0  0  0  0  0  0  0  0
  -15.5254  -13.3439   -0.3912 N   0  0  0  0  0  0  0  0  0  0  0  0
  -22.4507  -17.5006    2.8210 O   0  5  0  0  0  0  0  0  0  0  0  0
  -19.4446  -18.4884   -1.0489 O   0  0  0  0  0  0  0  0  0  0  0  0
  -20.5122  -11.7733    2.6201 S   0  0  0  0  0  0  0  0  0  0  0  0
  -19.2636  -11.2119    1.5529 C   0  0  0  0  0  0  0  0  0  0  0  0
  -20.0393  -16.6539    3.0829 O   0  0  0  0  0  0  0  0  0  0  0  0
  -20.5380  -16.3117   -1.1845 O   0  5  0  0  0  0  0  0  0  0  0  0
  -19.5152  -11.6043    0.2732 N   0  0  0  0  0  0  0  0  0  0  0  0
  -20.8630  -17.6673    0.8535 O   0  0  0  0  0  0  0  0  0  0  0  0
  -18.6583  -16.5762    0.4368 O   0  0  0  0  0  0  0  0  0  0  0  0
  -20.6508  -12.3319    0.0878 C   0  0  1  0  0  0  0  0  0  0  0  0
  -21.4003  -12.5314    1.3578 C   0  0  1  0  0  0  0  0  0  0  0  0
  -22.6775  -13.2352    1.7324 C   0  0  0  0  0  0  0  0  0  0  0  0
  -22.3315  -14.4774    2.5383 C   0  0  0  0  0  0  0  0  0  0  0  0
  -21.6720  -15.3965    1.6761 O   0  0  0  0  0  0  0  0  0  0  0  0
  1 11  1  0  0  0  0
  3 13  1  1  0  0  0
  3 17  2  0  0  0  0
  3 20  1  0  0  0  0
  3 26  1  0  0  0  0
  4 14  1  6  0  0  0
  4 18  1  0  0  0  0
  4 21  2  0  0  0  0
  4 20  1  0  0  0  0
  5 19  1  0  0  0  0
  5  7  1  0  0  0  0
  6  7  2  0  0  0  0
  6 12  1  0  0  0  0
  7  8  1  0  0  0  0
  8  9  1  0  0  0  0
  8 10  2  0  0  0  0
 10 11  1  0  0  0  0
 11 12  2  0  0  0  0
 15 23  1  0  0  0  0
 15 16  1  0  0  0  0
 16 19  1  0  0  0  0
 19 22  1  0  0  0  0
 22  2  1  6  0  0  0
 22 23  1  0  0  0  0
 23 24  1  1  0  0  0
 24 25  1  0  0  0  0
 25 26  1  0  0  0  0
M  CHG  2  13  -1  18  -1
M  END
>  <CHROM.1>
169.87884681,52.41614325,79.09112294,160.41216341,-69.48458324,-67.65228968
-176.74282883,52.21296828,-19.33053782,-14.12638216,0.72538618,-0.76137392
-0.38629198,-3.01580267

>  <Name>
ligand

>  <RI>
0

>  <Rbt.Current_Directory>
/home/itssahil/PROJECTS/Mol_Feturizer/New_Systems/rnas/2GDI

>  <Rbt.Executable>
rbdock ($Id: //depot/dev/client3/rdock/2013.1/src/exe/rbdock.cxx#4 $)

>  <Rbt.Library>
libRbt.so (2013.1, Build901 2013/11/27)

>  <Rbt.Parameter_File>
/export/apps/rDock/src/rDock_2013.1_src/data/scripts/dock_solv.prm

>  <Rbt.Receptor>
prm/pocket_docking_4.prm

>  <SCORE>
-9.76803

>  <SCORE.INTER>
-9.05411

>  <SCORE.INTER.CONST>
1

>  <SCORE.INTER.POLAR>
0

>  <SCORE.INTER.ROT>
8

>  <SCORE.INTER.SOLV>
16.5298

>  <SCORE.INTER.VDW>
-20.4793

>  <SCORE.INTER.norm>
-0.348235

>  <SCORE.INTRA>
-0.714978

>  <SCORE.INTRA.DIHEDRAL>
-1.72471

>  <SCORE.INTRA.DIHEDRAL.0>
8.13976

>  <SCORE.INTRA.POLAR>
0

>  <SCORE.INTRA.POLAR.0>
0

>  <SCORE.INTRA.REPUL>
0

>  <SCORE.INTRA.REPUL.0>
0

>  <SCORE.INTRA.SOLV>
2.4682

>  <SCORE.INTRA.SOLV.lig_0>
-82.9561

>  <SCORE.INTRA.VDW>
-1.08672

>  <SCORE.INTRA.VDW.0>
-3.29171

>  <SCORE.INTRA.norm>
-0.0274991

>  <SCORE.RESTR>
0.0010585

>  <SCORE.RESTR.CAVITY>
0.0010585

>  <SCORE.RESTR.norm>
4.07114e-05

>  <SCORE.SYSTEM>
0

>  <SCORE.SYSTEM.CONST>
0

>  <SCORE.SYSTEM.DIHEDRAL>
0

>  <SCORE.SYSTEM.SOLV>
0

>  <SCORE.SYSTEM.norm>
0

>  <SCORE.heavy>
26

>  <SCORE.norm>
-0.375693

>  <RMSD>
3.503

$$$$
ligand
 OpenBabel11021811433D
libRbt.so/2013.1/901 2013/11/27
 26 27  0  0  0  0  0  0  0  0999 V2000
  -12.7634   -8.6119   -0.5316 C   0  0  0  0  0  0  0  0  0  0  0  0
  -18.3447  -12.6176   -0.6981 C   0  0  0  0  0  0  0  0  0  0  0  0
  -20.7630  -17.2108    0.1117 P   0  0  1  0  0  0  0  0  0  0  0  0
  -21.3226  -19.4751    1.8491 P   0  0  1  0  0  0  0  0  0  0  0  0
  -16.5190  -12.3834    1.6375 C   0  0  0  0  0  0  0  0  0  0  0  0
  -14.1953  -11.7342    0.8829 C   0  0  0  0  0  0  0  0  0  0  0  0
  -15.5254  -11.3818    1.0735 C   0  0  0  0  0  0  0  0  0  0  0  0
  -15.9308  -10.1034    0.7267 C   0  0  0  0  0  0  0  0  0  0  0  0
  -17.2176   -9.7134    0.8955 N   0  0  0  0  0  0  0  0  0  0  0  0
  -15.0329   -9.2342    0.2141 N   0  0  0  0  0  0  0  0  0  0  0  0
  -13.7441   -9.5999    0.0396 C   0  0  0  0  0  0  0  0  0  0  0  0
  -13.3296  -10.8462    0.3745 N   0  0  0  0  0  0  0  0  0  0  0  0
  -21.7717  -17.4358   -0.9839 O   0  5  0  0  0  0  0  0  0  0  0  0
  -20.4299  -20.4998    2.4788 O   0  0  0  0  0  0  0  0  0  0  0  0
  -16.0751  -15.9292   -0.0995 S   0  0  0  0  0  0  0  0  0  0  0  0
  -15.7726  -14.6764    1.0632 C   0  0  0  0  0  0  0  0  0  0  0  0
  -21.0899  -16.1740    1.1476 O   0  0  0  0  0  0  0  0  0  0  0  0
  -21.7257  -18.4716    2.8774 O   0  5  0  0  0  0  0  0  0  0  0  0
  -16.5593  -13.5927    0.8152 N   0  0  0  0  0  0  0  0  0  0  0  0
  -20.4219  -18.6438    0.7877 O   0  0  0  0  0  0  0  0  0  0  0  0
  -22.4909  -20.0100    1.0665 O   0  0  0  0  0  0  0  0  0  0  0  0
  -17.3956  -13.6984   -0.2538 C   0  0  1  0  0  0  0  0  0  0  0  0
  -17.2766  -15.0197   -0.9280 C   0  0  1  0  0  0  0  0  0  0  0  0
  -17.9354  -15.6618   -2.1199 C   0  0  0  0  0  0  0  0  0  0  0  0
  -19.3787  -15.9831   -1.7650 C   0  0  0  0  0  0  0  0  0  0  0  0
  -19.3804  -16.7593   -0.5730 O   0  0  0  0  0  0  0  0  0  0  0  0
  1 11  1  0  0  0  0
  3 13  1  6  0  0  0
  3 17  2  0  0  0  0
  3 20  1  0  0  0  0
  3 26  1  0  0  0  0
  4 14  1  1  0  0  0
  4 18  1  0  0  0  0
  4 21  2  0  0  0  0
  4 20  1  0  0  0  0
  5 19  1  0  0  0  0
  5  7  1  0  0  0  0
  6  7  2  0  0  0  0
  6 12  1  0  0  0  0
  7  8  1  0  0  0  0
  8  9  1  0  0  0  0
  8 10  2  0  0  0  0
 10 11  1  0  0  0  0
 11 12  2  0  0  0  0
 15 23  1  0  0  0  0
 15 16  1  0  0  0  0
 16 19  1  0  0  0  0
 19 22  1  0  0  0  0
 22  2  1  1  0  0  0
 22 23  1  0  0  0  0
 23 24  1  6  0  0  0
 24 25  1  0  0  0  0
 25 26  1  0  0  0  0
M  CHG  2  13  -1  18  -1
M  END
>  <CHROM.1>
-77.52103541,91.69003614,-56.74234083,-163.38201155,110.25757628,-53.90153423
177.19298270,33.12470921,-18.14260036,-15.00226479,0.42995405,-0.88370941
0.25365409,2.84096609

>  <Name>
ligand

>  <RI>
0

>  <Rbt.Current_Directory>
/home/itssahil/PROJECTS/Mol_Feturizer/New_Systems/rnas/2GDI

>  <Rbt.Executable>
rbdock ($Id: //depot/dev/client3/rdock/2013.1/src/exe/rbdock.cxx#4 $)

>  <Rbt.Library>
libRbt.so (2013.1, Build901 2013/11/27)

>  <Rbt.Parameter_File>
/export/apps/rDock/src/rDock_2013.1_src/data/scripts/dock_solv.prm

>  <Rbt.Receptor>
prm/pocket_docking_4.prm

>  <SCORE>
-14.9688

>  <SCORE.INTER>
-15.3119

>  <SCORE.INTER.CONST>
1

>  <SCORE.INTER.POLAR>
0

>  <SCORE.INTER.ROT>
8

>  <SCORE.INTER.SOLV>
11.6542

>  <SCORE.INTER.VDW>
-23.026

>  <SCORE.INTER.norm>
-0.588921

>  <SCORE.INTRA>
0.3431

>  <SCORE.INTRA.DIHEDRAL>
-1.49331

>  <SCORE.INTRA.DIHEDRAL.0>
8.13976

>  <SCORE.INTRA.POLAR>
0

>  <SCORE.INTRA.POLAR.0>
0

>  <SCORE.INTRA.REPUL>
0

>  <SCORE.INTRA.REPUL.0>
0

>  <SCORE.INTRA.SOLV>
3.29057

>  <SCORE.INTRA.SOLV.lig_0>
-82.9561

>  <SCORE.INTRA.VDW>
-0.555533

>  <SCORE.INTRA.VDW.0>
-3.29171

>  <SCORE.INTRA.norm>
0.0131961

>  <SCORE.RESTR>
0

>  <SCORE.RESTR.CAVITY>
0

>  <SCORE.RESTR.norm>
0

>  <SCORE.SYSTEM>
0

>  <SCORE.SYSTEM.CONST>
0

>  <SCORE.SYSTEM.DIHEDRAL>
0

>  <SCORE.SYSTEM.SOLV>
0

>  <SCORE.SYSTEM.norm>
0

>  <SCORE.heavy>
26

>  <SCORE.norm>
-0.575724

>  <RMSD>
3.509

$$$$
ligand
 OpenBabel11021811433D
libRbt.so/2013.1/901 2013/11/27
 26 27  0  0  0  0  0  0  0  0999 V2000
  -13.6077  -11.9716    0.1027 C   0  0  0  0  0  0  0  0  0  0  0  0
  -20.4803  -11.9505    2.4887 C   0  0  0  0  0  0  0  0  0  0  0  0
  -22.2923  -17.7376    0.4571 P   0  0  1  0  0  0  0  0  0  0  0  0
  -23.9221  -20.1403    0.6287 P   0  0  1  0  0  0  0  0  0  0  0  0
  -18.9795  -10.0408    0.7730 C   0  0  0  0  0  0  0  0  0  0  0  0
  -17.2358  -11.3990   -0.4537 C   0  0  0  0  0  0  0  0  0  0  0  0
  -17.5612  -10.5584    0.6033 C   0  0  0  0  0  0  0  0  0  0  0  0
  -16.5640  -10.1907    1.4917 C   0  0  0  0  0  0  0  0  0  0  0  0
  -16.8337   -9.3737    2.5387 N   0  0  0  0  0  0  0  0  0  0  0  0
  -15.3071  -10.6522    1.3130 N   0  0  0  0  0  0  0  0  0  0  0  0
  -15.0155  -11.4701    0.2781 C   0  0  0  0  0  0  0  0  0  0  0  0
  -15.9790  -11.8411   -0.6002 N   0  0  0  0  0  0  0  0  0  0  0  0
  -21.1813  -18.0374    1.4289 O   0  5  0  0  0  0  0  0  0  0  0  0
  -24.9997  -20.5511    1.5844 O   0  0  0  0  0  0  0  0  0  0  0  0
  -21.4064  -12.2662   -1.4507 S   0  0  0  0  0  0  0  0  0  0  0  0
  -20.2178  -11.0435   -1.1259 C   0  0  0  0  0  0  0  0  0  0  0  0
  -21.9980  -17.9201   -1.0040 O   0  0  0  0  0  0  0  0  0  0  0  0
  -24.4569  -20.1754   -0.7642 O   0  5  0  0  0  0  0  0  0  0  0  0
  -19.9460  -10.9820    0.2072 N   0  0  0  0  0  0  0  0  0  0  0  0
  -23.6025  -18.5762    0.9119 O   0  0  0  0  0  0  0  0  0  0  0  0
  -22.6083  -20.8598    0.7674 O   0  0  0  0  0  0  0  0  0  0  0  0
  -20.6325  -11.8556    0.9940 C   0  0  1  0  0  0  0  0  0  0  0  0
  -21.5443  -12.7242    0.2010 C   0  0  1  0  0  0  0  0  0  0  0  0
  -22.5110  -13.8283    0.5377 C   0  0  0  0  0  0  0  0  0  0  0  0
  -21.7690  -15.1550    0.4981 C   0  0  0  0  0  0  0  0  0  0  0  0
  -22.7207  -16.2006    0.6533 O   0  0  0  0  0  0  0  0  0  0  0  0
  1 11  1  0  0  0  0
  3 13  1  1  0  0  0
  3 17  2  0  0  0  0
  3 20  1  0  0  0  0
  3 26  1  0  0  0  0
  4 14  1  1  0  0  0
  4 18  1  0  0  0  0
  4 21  2  0  0  0  0
  4 20  1  0  0  0  0
  5 19  1  0  0  0  0
  5  7  1  0  0  0  0
  6  7  2  0  0  0  0
  6 12  1  0  0  0  0
  7  8  1  0  0  0  0
  8  9  1  0  0  0  0
  8 10  2  0  0  0  0
 10 11  1  0  0  0  0
 11 12  2  0  0  0  0
 15 23  1  0  0  0  0
 15 16  1  0  0  0  0
 16 19  1  0  0  0  0
 19 22  1  0  0  0  0
 22  2  1  6  0  0  0
 22 23  1  0  0  0  0
 23 24  1  1  0  0  0
 24 25  1  0  0  0  0
 25 26  1  0  0  0  0
M  CHG  2  13  -1  18  -1
M  END
>  <CHROM.1>
-80.50668160,-80.52205939,28.12080772,162.58817547,91.37835891,-172.91347791
171.63322353,57.91964557,-20.56771292,-14.68600086,0.43280844,-0.92357923
0.10905528,3.06560838

>  <Name>
ligand

>  <RI>
0

>  <Rbt.Current_Directory>
/home/itssahil/PROJECTS/Mol_Feturizer/New_Systems/rnas/2GDI

>  <Rbt.Executable>
rbdock ($Id: //depot/dev/client3/rdock/2013.1/src/exe/rbdock.cxx#4 $)

>  <Rbt.Library>
libRbt.so (2013.1, Build901 2013/11/27)

>  <Rbt.Parameter_File>
/export/apps/rDock/src/rDock_2013.1_src/data/scripts/dock_solv.prm

>  <Rbt.Receptor>
prm/pocket_docking_6.prm

>  <SCORE>
-10.1904

>  <SCORE.INTER>
-10.4623

>  <SCORE.INTER.CONST>
1

>  <SCORE.INTER.POLAR>
0

>  <SCORE.INTER.ROT>
8

>  <SCORE.INTER.SOLV>
21.648

>  <SCORE.INTER.VDW>
-23.1242

>  <SCORE.INTER.norm>
-0.402396

>  <SCORE.INTRA>
0.27188

>  <SCORE.INTRA.DIHEDRAL>
-1.65697

>  <SCORE.INTRA.DIHEDRAL.0>
8.13976

>  <SCORE.INTRA.POLAR>
0

>  <SCORE.INTRA.POLAR.0>
0

>  <SCORE.INTRA.REPUL>
0

>  <SCORE.INTRA.REPUL.0>
0

>  <SCORE.INTRA.SOLV>
2.16743

>  <SCORE.INTRA.SOLV.lig_0>
-82.9561

>  <SCORE.INTRA.VDW>
0.0166501

>  <SCORE.INTRA.VDW.0>
-3.29171

>  <SCORE.INTRA.norm>
0.0104569

>  <SCORE.RESTR>
0

>  <SCORE.RESTR.CAVITY>
0

>  <SCORE.RESTR.norm>
0

>  <SCORE.SYSTEM>
0

>  <SCORE.SYSTEM.CONST>
0

>  <SCORE.SYSTEM.DIHEDRAL>
0

>  <SCORE.SYSTEM.SOLV>
0

>  <SCORE.SYSTEM.norm>
0

>  <SCORE.heavy>
26

>  <SCORE.norm>
-0.39194

>  <RMSD>
3.526

$$$$
ligand
 OpenBabel11021811433D
libRbt.so/2013.1/901 2013/11/27
 26 27  0  0  0  0  0  0  0  0999 V2000
  -13.7667  -12.6342    0.0864 C   0  0  0  0  0  0  0  0  0  0  0  0
  -20.7959  -11.6919    2.5106 C   0  0  0  0  0  0  0  0  0  0  0  0
  -23.9334  -16.4974    1.0870 P   0  0  1  0  0  0  0  0  0  0  0  0
  -22.2099  -18.5419   -0.0569 P   0  0  1  0  0  0  0  0  0  0  0  0
  -18.9266  -10.1913    0.7507 C   0  0  0  0  0  0  0  0  0  0  0  0
  -17.3422  -11.7682   -0.4297 C   0  0  0  0  0  0  0  0  0  0  0  0
  -17.5648  -10.8437    0.5830 C   0  0  0  0  0  0  0  0  0  0  0  0
  -16.5168  -10.5184    1.4285 C   0  0  0  0  0  0  0  0  0  0  0  0
  -16.6863   -9.6229    2.4314 N   0  0  0  0  0  0  0  0  0  0  0  0
  -15.3109  -11.1008    1.2518 N   0  0  0  0  0  0  0  0  0  0  0  0
  -15.1194  -11.9985    0.2606 C   0  0  0  0  0  0  0  0  0  0  0  0
  -16.1338  -12.3295   -0.5753 N   0  0  0  0  0  0  0  0  0  0  0  0
  -24.3197  -15.9581   -0.2652 O   0  5  0  0  0  0  0  0  0  0  0  0
  -23.2413  -19.5952    0.2078 O   0  0  0  0  0  0  0  0  0  0  0  0
  -21.5015  -12.2747   -1.4440 S   0  0  0  0  0  0  0  0  0  0  0  0
  -20.1719  -11.2011   -1.1399 C   0  0  0  0  0  0  0  0  0  0  0  0
  -24.9576  -17.3127    1.8224 O   0  0  0  0  0  0  0  0  0  0  0  0
  -22.4014  -17.9972   -1.4331 O   0  5  0  0  0  0  0  0  0  0  0  0
  -19.9807  -11.0427    0.1991 N   0  0  0  0  0  0  0  0  0  0  0  0
  -22.5325  -17.2976    0.9312 O   0  0  0  0  0  0  0  0  0  0  0  0
  -20.7838  -18.9303    0.2235 O   0  0  0  0  0  0  0  0  0  0  0  0
  -20.8359  -11.7290    1.0061 C   0  0  1  0  0  0  0  0  0  0  0  0
  -21.8107  -12.5394    0.2268 C   0  0  1  0  0  0  0  0  0  0  0  0
  -22.9469  -13.4598    0.5860 C   0  0  0  0  0  0  0  0  0  0  0  0
  -22.4930  -14.3798    1.7084 C   0  0  0  0  0  0  0  0  0  0  0  0
  -23.5708  -15.2492    2.0330 O   0  0  0  0  0  0  0  0  0  0  0  0
  1 11  1  0  0  0  0
  3 13  1  6  0  0  0
  3 17  2  0  0  0  0
  3 20  1  0  0  0  0
  3 26  1  0  0  0  0
  4 14  1  1  0  0  0
  4 18  1  0  0  0  0
  4 21  2  0  0  0  0
  4 20  1  0  0  0  0
  5 19  1  0  0  0  0
  5  7  1  0  0  0  0
  6  7  2  0  0  0  0
  6 12  1  0  0  0  0
  7  8  1  0  0  0  0
  8  9  1  0  0  0  0
  8 10  2  0  0  0  0
 10 11  1  0  0  0  0
 11 12  2  0  0  0  0
 15 23  1  0  0  0  0
 15 16  1  0  0  0  0
 16 19  1  0  0  0  0
 19 22  1  0  0  0  0
 22  2  1  1  0  0  0
 22 23  1  0  0  0  0
 23 24  1  1  0  0  0
 24 25  1  0  0  0  0
 25 26  1  0  0  0  0
M  CHG  2  13  -1  18  -1
M  END
>  <CHROM.1>
-56.87523050,-73.48352322,25.28948261,-54.05220990,136.41097246,-179.63962267
76.44132763,-61.76114354,-20.65158936,-14.15661055,0.46203076,-0.78105262
-0.09591381,-3.02804440

>  <Name>
ligand

>  <RI>
0

>  <Rbt.Current_Directory>
/home/itssahil/PROJECTS/Mol_Feturizer/New_Systems/rnas/2GDI

>  <Rbt.Executable>
rbdock ($Id: //depot/dev/client3/rdock/2013.1/src/exe/rbdock.cxx#4 $)

>  <Rbt.Library>
libRbt.so (2013.1, Build901 2013/11/27)

>  <Rbt.Parameter_File>
/export/apps/rDock/src/rDock_2013.1_src/data/scripts/dock_solv.prm

>  <Rbt.Receptor>
prm/pocket_docking_3.prm

>  <SCORE>
-7.11187

>  <SCORE.INTER>
-7.38688

>  <SCORE.INTER.CONST>
1

>  <SCORE.INTER.POLAR>
0

>  <SCORE.INTER.ROT>
8

>  <SCORE.INTER.SOLV>
18.6621

>  <SCORE.INTER.VDW>
-20.0786

>  <SCORE.INTER.norm>
-0.284111

>  <SCORE.INTRA>
0.272098

>  <SCORE.INTRA.DIHEDRAL>
-2.07236

>  <SCORE.INTRA.DIHEDRAL.0>
8.13976

>  <SCORE.INTRA.POLAR>
0

>  <SCORE.INTRA.POLAR.0>
0

>  <SCORE.INTRA.REPUL>
0

>  <SCORE.INTRA.REPUL.0>
0

>  <SCORE.INTRA.SOLV>
1.21228

>  <SCORE.INTRA.SOLV.lig_0>
-82.9561

>  <SCORE.INTRA.VDW>
0.702142

>  <SCORE.INTRA.VDW.0>
-3.29171

>  <SCORE.INTRA.norm>
0.0104653

>  <SCORE.RESTR>
0.00290952

>  <SCORE.RESTR.CAVITY>
0.00290952

>  <SCORE.RESTR.norm>
0.000111905

>  <SCORE.SYSTEM>
0

>  <SCORE.SYSTEM.CONST>
0

>  <SCORE.SYSTEM.DIHEDRAL>
0

>  <SCORE.SYSTEM.SOLV>
0

>  <SCORE.SYSTEM.norm>
0

>  <SCORE.heavy>
26

>  <SCORE.norm>
-0.273534

>  <RMSD>
3.555

$$$$
ligand
 OpenBabel11021811433D
libRbt.so/2013.1/901 2013/11/27
 26 27  0  0  0  0  0  0  0  0999 V2000
  -13.1370  -13.2295    0.2349 C   0  0  0  0  0  0  0  0  0  0  0  0
  -20.5086  -12.6852   -1.3562 C   0  0  0  0  0  0  0  0  0  0  0  0
  -20.8451  -16.8208    0.5269 P   0  0  1  0  0  0  0  0  0  0  0  0
  -19.8695  -18.3966   -1.7145 P   0  0  1  0  0  0  0  0  0  0  0  0
  -18.2914  -10.8398   -0.6339 C   0  0  0  0  0  0  0  0  0  0  0  0
  -16.7472  -12.8394   -0.5491 C   0  0  0  0  0  0  0  0  0  0  0  0
  -16.9305  -11.4711   -0.3938 C   0  0  0  0  0  0  0  0  0  0  0  0
  -15.8448  -10.6920   -0.0290 C   0  0  0  0  0  0  0  0  0  0  0  0
  -15.9751   -9.3532    0.1356 N   0  0  0  0  0  0  0  0  0  0  0  0
  -14.6411  -11.2733    0.1657 N   0  0  0  0  0  0  0  0  0  0  0  0
  -14.4882  -12.6065    0.0102 C   0  0  0  0  0  0  0  0  0  0  0  0
  -15.5397  -13.3844   -0.3454 N   0  0  0  0  0  0  0  0  0  0  0  0
  -22.0830  -17.6745    0.6113 O   0  5  0  0  0  0  0  0  0  0  0  0
  -19.2806  -19.3290   -0.7009 O   0  0  0  0  0  0  0  0  0  0  0  0
  -20.5019  -11.6461    2.5677 S   0  0  0  0  0  0  0  0  0  0  0  0
  -19.2083  -10.9183    1.6678 C   0  0  0  0  0  0  0  0  0  0  0  0
  -19.8143  -16.9925    1.6053 O   0  0  0  0  0  0  0  0  0  0  0  0
  -21.1969  -18.9184   -2.1538 O   0  5  0  0  0  0  0  0  0  0  0  0
  -19.2594  -11.3003    0.3616 N   0  0  0  0  0  0  0  0  0  0  0  0
  -20.2020  -17.0064   -0.9492 O   0  0  0  0  0  0  0  0  0  0  0  0
  -18.9770  -18.0275   -2.8679 O   0  0  0  0  0  0  0  0  0  0  0  0
  -20.2739  -12.1452    0.0295 C   0  0  1  0  0  0  0  0  0  0  0  0
  -21.1410  -12.4633    1.1963 C   0  0  1  0  0  0  0  0  0  0  0  0
  -22.3644  -13.3162    1.4032 C   0  0  0  0  0  0  0  0  0  0  0  0
  -21.9211  -14.7347    1.7252 C   0  0  0  0  0  0  0  0  0  0  0  0
  -21.3023  -15.2801    0.5664 O   0  0  0  0  0  0  0  0  0  0  0  0
  1 11  1  0  0  0  0
  3 13  1  1  0  0  0
  3 17  2  0  0  0  0
  3 20  1  0  0  0  0
  3 26  1  0  0  0  0
  4 14  1  1  0  0  0
  4 18  1  0  0  0  0
  4 21  2  0  0  0  0
  4 20  1  0  0  0  0
  5 19  1  0  0  0  0
  5  7  1  0  0  0  0
  6  7  2  0  0  0  0
  6 12  1  0  0  0  0
  7  8  1  0  0  0  0
  8  9  1  0  0  0  0
  8 10  2  0  0  0  0
 10 11  1  0  0  0  0
 11 12  2  0  0  0  0
 15 23  1  0  0  0  0
 15 16  1  0  0  0  0
 16 19  1  0  0  0  0
 19 22  1  0  0  0  0
 22  2  1  6  0  0  0
 22 23  1  0  0  0  0
 23 24  1  1  0  0  0
 24 25  1  0  0  0  0
 25 26  1  0  0  0  0
M  CHG  2  13  -1  18  -1
M  END
>  <CHROM.1>
-50.27873427,70.72999984,65.98827660,-41.34669962,-91.23356105,-67.23010816
-174.10281411,65.16811212,-19.12897770,-14.35509110,0.06958128,-1.00479998
-0.31286306,-2.79125034

>  <Name>
ligand

>  <RI>
0

>  <Rbt.Current_Directory>
/home/itssahil/PROJECTS/Mol_Feturizer/New_Systems/rnas/2GDI

>  <Rbt.Executable>
rbdock ($Id: //depot/dev/client3/rdock/2013.1/src/exe/rbdock.cxx#4 $)

>  <Rbt.Library>
libRbt.so (2013.1, Build901 2013/11/27)

>  <Rbt.Parameter_File>
/export/apps/rDock/src/rDock_2013.1_src/data/scripts/dock_solv.prm

>  <Rbt.Receptor>
prm/pocket_docking_7.prm

>  <SCORE>
-10.9394

>  <SCORE.INTER>
-9.27895

>  <SCORE.INTER.CONST>
1

>  <SCORE.INTER.POLAR>
0

>  <SCORE.INTER.ROT>
8

>  <SCORE.INTER.SOLV>
14.9384

>  <SCORE.INTER.VDW>
-20.0988

>  <SCORE.INTER.norm>
-0.356883

>  <SCORE.INTRA>
-1.66042

>  <SCORE.INTRA.DIHEDRAL>
-2.21487

>  <SCORE.INTRA.DIHEDRAL.0>
8.13976

>  <SCORE.INTRA.POLAR>
0

>  <SCORE.INTRA.POLAR.0>
0

>  <SCORE.INTRA.REPUL>
0

>  <SCORE.INTRA.REPUL.0>
0

>  <SCORE.INTRA.SOLV>
0.348618

>  <SCORE.INTRA.SOLV.lig_0>
-82.9561

>  <SCORE.INTRA.VDW>
-0.727298

>  <SCORE.INTRA.VDW.0>
-3.29171

>  <SCORE.INTRA.norm>
-0.0638625

>  <SCORE.RESTR>
0

>  <SCORE.RESTR.CAVITY>
0

>  <SCORE.RESTR.norm>
0

>  <SCORE.SYSTEM>
0

>  <SCORE.SYSTEM.CONST>
0

>  <SCORE.SYSTEM.DIHEDRAL>
0

>  <SCORE.SYSTEM.SOLV>
0

>  <SCORE.SYSTEM.norm>
0

>  <SCORE.heavy>
26

>  <SCORE.norm>
-0.420745

>  <RMSD>
3.604

$$$$
ligand
 OpenBabel11021811433D
libRbt.so/2013.1/901 2013/11/27
 26 27  0  0  0  0  0  0  0  0999 V2000
  -12.4474   -7.8758   -0.5118 C   0  0  0  0  0  0  0  0  0  0  0  0
  -18.6015  -10.7468    1.4992 C   0  0  0  0  0  0  0  0  0  0  0  0
  -23.5322  -12.8014   -2.0773 P   0  0  1  0  0  0  0  0  0  0  0  0
  -24.8411  -13.5687   -4.5586 P   0  0  1  0  0  0  0  0  0  0  0  0
  -15.9495  -12.0718    1.2660 C   0  0  0  0  0  0  0  0  0  0  0  0
  -15.3618   -9.6298    0.9814 C   0  0  0  0  0  0  0  0  0  0  0  0
  -15.0273  -10.9639    0.7862 C   0  0  0  0  0  0  0  0  0  0  0  0
  -13.8300  -11.2641    0.1575 C   0  0  0  0  0  0  0  0  0  0  0  0
  -13.4616  -12.5506   -0.0561 N   0  0  0  0  0  0  0  0  0  0  0  0
  -13.0195  -10.2626   -0.2483 N   0  0  0  0  0  0  0  0  0  0  0  0
  -13.3674   -8.9726   -0.0486 C   0  0  0  0  0  0  0  0  0  0  0  0
  -14.5357   -8.6604    0.5639 N   0  0  0  0  0  0  0  0  0  0  0  0
  -23.1143  -11.5221   -2.7534 O   0  5  0  0  0  0  0  0  0  0  0  0
  -23.9362  -12.8862   -5.5378 O   0  0  0  0  0  0  0  0  0  0  0  0
  -18.3189  -13.2130   -1.7124 S   0  0  0  0  0  0  0  0  0  0  0  0
  -16.8643  -13.1559   -0.7669 C   0  0  0  0  0  0  0  0  0  0  0  0
  -24.5665  -12.7024   -0.9933 O   0  0  0  0  0  0  0  0  0  0  0  0
  -25.2059  -14.9185   -5.0802 O   0  5  0  0  0  0  0  0  0  0  0  0
  -17.0157  -12.3161    0.2945 N   0  0  0  0  0  0  0  0  0  0  0  0
  -23.9681  -13.8607   -3.2240 O   0  0  0  0  0  0  0  0  0  0  0  0
  -26.0363  -12.7769   -4.1028 O   0  0  0  0  0  0  0  0  0  0  0  0
  -18.2293  -11.7087    0.4025 C   0  0  1  0  0  0  0  0  0  0  0  0
  -19.1586  -12.1195   -0.6847 C   0  0  1  0  0  0  0  0  0  0  0  0
  -20.5778  -11.7735   -1.0497 C   0  0  0  0  0  0  0  0  0  0  0  0
  -21.5097  -12.7764   -0.3879 C   0  0  0  0  0  0  0  0  0  0  0  0
  -22.2256  -13.4587   -1.4102 O   0  0  0  0  0  0  0  0  0  0  0  0
  1 11  1  0  0  0  0
  3 13  1  6  0  0  0
  3 17  2  0  0  0  0
  3 20  1  0  0  0  0
  3 26  1  0  0  0  0
  4 14  1  6  0  0  0
  4 18  1  0  0  0  0
  4 21  2  0  0  0  0
  4 20  1  0  0  0  0
  5 19  1  0  0  0  0
  5  7  1  0  0  0  0
  6  7  2  0  0  0  0
  6 12  1  0  0  0  0
  7  8  1  0  0  0  0
  8  9  1  0  0  0  0
  8 10  2  0  0  0  0
 10 11  1  0  0  0  0
 11 12  2  0  0  0  0
 15 23  1  0  0  0  0
 15 16  1  0  0  0  0
 16 19  1  0  0  0  0
 19 22  1  0  0  0  0
 22  2  1  1  0  0  0
 22 23  1  0  0  0  0
 23 24  1  6  0  0  0
 24 25  1  0  0  0  0
 25 26  1  0  0  0  0
M  CHG  2  13  -1  18  -1
M  END
>  <CHROM.1>
-41.57562907,85.99034182,82.68322312,76.44616777,89.44793574,-119.14929626
-82.13744859,62.14840467,-19.67064212,-12.08824815,-1.43433794,-0.40530087
-0.19721555,-1.79187916

>  <Name>
ligand

>  <RI>
0

>  <Rbt.Current_Directory>
/home/itssahil/PROJECTS/Mol_Feturizer/New_Systems/rnas/2GDI

>  <Rbt.Executable>
rbdock ($Id: //depot/dev/client3/rdock/2013.1/src/exe/rbdock.cxx#4 $)

>  <Rbt.Library>
libRbt.so (2013.1, Build901 2013/11/27)

>  <Rbt.Parameter_File>
/export/apps/rDock/src/rDock_2013.1_src/data/scripts/dock_solv.prm

>  <Rbt.Receptor>
prm/pocket_docking_8.prm

>  <SCORE>
-16.6375

>  <SCORE.INTER>
-20.2287

>  <SCORE.INTER.CONST>
1

>  <SCORE.INTER.POLAR>
0

>  <SCORE.INTER.ROT>
8

>  <SCORE.INTER.SOLV>
25.4154

>  <SCORE.INTER.VDW>
-30.8909

>  <SCORE.INTER.norm>
-0.778027

>  <SCORE.INTRA>
3.57741

>  <SCORE.INTRA.DIHEDRAL>
5.65126

>  <SCORE.INTRA.DIHEDRAL.0>
8.13976

>  <SCORE.INTRA.POLAR>
0

>  <SCORE.INTRA.POLAR.0>
0

>  <SCORE.INTRA.REPUL>
0

>  <SCORE.INTRA.REPUL.0>
0

>  <SCORE.INTRA.SOLV>
2.2304

>  <SCORE.INTRA.SOLV.lig_0>
-82.9561

>  <SCORE.INTRA.VDW>
-0.363425

>  <SCORE.INTRA.VDW.0>
-3.29171

>  <SCORE.INTRA.norm>
0.137593

>  <SCORE.RESTR>
0.0137762

>  <SCORE.RESTR.CAVITY>
0.0137762

>  <SCORE.RESTR.norm>
0.000529854

>  <SCORE.SYSTEM>
0

>  <SCORE.SYSTEM.CONST>
0

>  <SCORE.SYSTEM.DIHEDRAL>
0

>  <SCORE.SYSTEM.SOLV>
0

>  <SCORE.SYSTEM.norm>
0

>  <SCORE.heavy>
26

>  <SCORE.norm>
-0.639904

>  <RMSD>
3.673

$$$$
ligand
 OpenBabel11021811433D
libRbt.so/2013.1/901 2013/11/27
 26 27  0  0  0  0  0  0  0  0999 V2000
  -13.4625  -13.4100    0.2466 C   0  0  0  0  0  0  0  0  0  0  0  0
  -21.4501  -12.1349    2.8391 C   0  0  0  0  0  0  0  0  0  0  0  0
  -22.8371  -16.7111    0.2748 P   0  0  1  0  0  0  0  0  0  0  0  0
  -20.8791  -16.7029    2.4253 P   0  0  1  0  0  0  0  0  0  0  0  0
  -18.6220  -11.6444    2.0618 C   0  0  0  0  0  0  0  0  0  0  0  0
  -16.9440  -13.4620    1.5413 C   0  0  0  0  0  0  0  0  0  0  0  0
  -17.2540  -12.1088    1.5914 C   0  0  0  0  0  0  0  0  0  0  0  0
  -16.2958  -11.1919    1.1912 C   0  0  0  0  0  0  0  0  0  0  0  0
  -16.5517   -9.8615    1.2237 N   0  0  0  0  0  0  0  0  0  0  0  0
  -15.0913  -11.6285    0.7636 N   0  0  0  0  0  0  0  0  0  0  0  0
  -14.8127  -12.9499    0.7254 C   0  0  0  0  0  0  0  0  0  0  0  0
  -15.7379  -13.8611    1.1142 N   0  0  0  0  0  0  0  0  0  0  0  0
  -21.9124  -16.9601   -0.8877 O   0  5  0  0  0  0  0  0  0  0  0  0
  -21.3704  -15.4996    3.1697 O   0  0  0  0  0  0  0  0  0  0  0  0
  -20.8123  -12.4305   -1.1587 S   0  0  0  0  0  0  0  0  0  0  0  0
  -19.3747  -12.0437   -0.2660 C   0  0  0  0  0  0  0  0  0  0  0  0
  -24.2593  -17.1725    0.1356 O   0  0  0  0  0  0  0  0  0  0  0  0
  -20.5044  -17.7686    3.4006 O   0  5  0  0  0  0  0  0  0  0  0  0
  -19.6466  -11.9576    1.0657 N   0  0  0  0  0  0  0  0  0  0  0  0
  -22.1428  -17.3103    1.6111 O   0  0  0  0  0  0  0  0  0  0  0  0
  -19.8103  -16.4512    1.3970 O   0  0  0  0  0  0  0  0  0  0  0  0
  -20.9410  -12.1819    1.4231 C   0  0  1  0  0  0  0  0  0  0  0  0
  -21.7983  -12.4979    0.2485 C   0  0  1  0  0  0  0  0  0  0  0  0
  -23.2574  -12.8182    0.0600 C   0  0  0  0  0  0  0  0  0  0  0  0
  -23.3806  -14.2404   -0.4639 C   0  0  0  0  0  0  0  0  0  0  0  0
  -22.8895  -15.1256    0.5353 O   0  0  0  0  0  0  0  0  0  0  0  0
  1 11  1  0  0  0  0
  3 13  1  6  0  0  0
  3 17  2  0  0  0  0
  3 20  1  0  0  0  0
  3 26  1  0  0  0  0
  4 14  1  1  0  0  0
  4 18  1  0  0  0  0
  4 21  2  0  0  0  0
  4 20  1  0  0  0  0
  5 19  1  0  0  0  0
  5  7  1  0  0  0  0
  6  7  2  0  0  0  0
  6 12  1  0  0  0  0
  7  8  1  0  0  0  0
  8  9  1  0  0  0  0
  8 10  2  0  0  0  0
 10 11  1  0  0  0  0
 11 12  2  0  0  0  0
 15 23  1  0  0  0  0
 15 16  1  0  0  0  0
 16 19  1  0  0  0  0
 19 22  1  0  0  0  0
 22  2  1  1  0  0  0
 22 23  1  0  0  0  0
 23 24  1  6  0  0  0
 24 25  1  0  0  0  0
 25 26  1  0  0  0  0
M  CHG  2  13  -1  18  -1
M  END
>  <CHROM.1>
73.07404084,-28.33865505,-71.32570703,74.10300675,65.62292503,64.30535348
-178.05477498,61.92283186,-20.02838504,-14.15824082,0.96068093,-0.54797979
0.21071503,2.83042452

>  <Name>
ligand

>  <RI>
0

>  <Rbt.Current_Directory>
/home/itssahil/PROJECTS/Mol_Feturizer/New_Systems/rnas/2GDI

>  <Rbt.Executable>
rbdock ($Id: //depot/dev/client3/rdock/2013.1/src/exe/rbdock.cxx#4 $)

>  <Rbt.Library>
libRbt.so (2013.1, Build901 2013/11/27)

>  <Rbt.Parameter_File>
/export/apps/rDock/src/rDock_2013.1_src/data/scripts/dock_solv.prm

>  <Rbt.Receptor>
prm/pocket_docking_3.prm

>  <SCORE>
-10.6395

>  <SCORE.INTER>
-8.64651

>  <SCORE.INTER.CONST>
1

>  <SCORE.INTER.POLAR>
0

>  <SCORE.INTER.ROT>
8

>  <SCORE.INTER.SOLV>
13.1969

>  <SCORE.INTER.VDW>
-19.0966

>  <SCORE.INTER.norm>
-0.332558

>  <SCORE.INTRA>
-1.99298

>  <SCORE.INTRA.DIHEDRAL>
-2.13786

>  <SCORE.INTRA.DIHEDRAL.0>
8.13976

>  <SCORE.INTRA.POLAR>
0

>  <SCORE.INTRA.POLAR.0>
0

>  <SCORE.INTRA.REPUL>
0

>  <SCORE.INTRA.REPUL.0>
0

>  <SCORE.INTRA.SOLV>
0.0355708

>  <SCORE.INTRA.SOLV.lig_0>
-82.9561

>  <SCORE.INTRA.VDW>
-0.941836

>  <SCORE.INTRA.VDW.0>
-3.29171

>  <SCORE.INTRA.norm>
-0.0766532

>  <SCORE.RESTR>
0

>  <SCORE.RESTR.CAVITY>
0

>  <SCORE.RESTR.norm>
0

>  <SCORE.SYSTEM>
0

>  <SCORE.SYSTEM.CONST>
0

>  <SCORE.SYSTEM.DIHEDRAL>
0

>  <SCORE.SYSTEM.SOLV>
0

>  <SCORE.SYSTEM.norm>
0

>  <SCORE.heavy>
26

>  <SCORE.norm>
-0.409211

>  <RMSD>
3.688

$$$$
ligand
 OpenBabel11021811433D
libRbt.so/2013.1/901 2013/11/27
 26 27  0  0  0  0  0  0  0  0999 V2000
  -13.6857  -12.4675    0.0517 C   0  0  0  0  0  0  0  0  0  0  0  0
  -20.8338  -11.7579    2.4903 C   0  0  0  0  0  0  0  0  0  0  0  0
  -23.3237  -17.3973    0.3825 P   0  0  1  0  0  0  0  0  0  0  0  0
  -21.3840  -17.3708    2.5495 P   0  0  1  0  0  0  0  0  0  0  0  0
  -18.9144  -10.2110    0.8271 C   0  0  0  0  0  0  0  0  0  0  0  0
  -17.2785  -11.6619   -0.4412 C   0  0  0  0  0  0  0  0  0  0  0  0
  -17.5343  -10.8147    0.6295 C   0  0  0  0  0  0  0  0  0  0  0  0
  -16.5026  -10.5205    1.5059 C   0  0  0  0  0  0  0  0  0  0  0  0
  -16.7044   -9.7002    2.5655 N   0  0  0  0  0  0  0  0  0  0  0  0
  -15.2801  -11.0579    1.3025 N   0  0  0  0  0  0  0  0  0  0  0  0
  -15.0563  -11.8806    0.2546 C   0  0  0  0  0  0  0  0  0  0  0  0
  -16.0543  -12.1802   -0.6122 N   0  0  0  0  0  0  0  0  0  0  0  0
  -23.2629  -17.7490   -1.0807 O   0  5  0  0  0  0  0  0  0  0  0  0
  -19.9166  -17.0746    2.4993 O   0  0  0  0  0  0  0  0  0  0  0  0
  -21.3953  -12.2675   -1.4974 S   0  0  0  0  0  0  0  0  0  0  0  0
  -20.0849  -11.1914   -1.1257 C   0  0  0  0  0  0  0  0  0  0  0  0
  -24.4173  -18.0253    1.1976 O   0  0  0  0  0  0  0  0  0  0  0  0
  -22.1241  -16.1374    2.9473 O   0  5  0  0  0  0  0  0  0  0  0  0
  -19.9423  -11.0582    0.2221 N   0  0  0  0  0  0  0  0  0  0  0  0
  -21.8634  -17.6714    1.0301 O   0  0  0  0  0  0  0  0  0  0  0  0
  -21.7860  -18.5772    3.3535 O   0  0  0  0  0  0  0  0  0  0  0  0
  -20.8204  -11.7657    0.9848 C   0  0  1  0  0  0  0  0  0  0  0  0
  -21.7613  -12.5670    0.1559 C   0  0  1  0  0  0  0  0  0  0  0  0
  -22.9028  -13.5016    0.4567 C   0  0  0  0  0  0  0  0  0  0  0  0
  -22.4846  -14.9164    0.0885 C   0  0  0  0  0  0  0  0  0  0  0  0
  -23.5149  -15.8056    0.5019 O   0  0  0  0  0  0  0  0  0  0  0  0
  1 11  1  0  0  0  0
  3 13  1  6  0  0  0
  3 17  2  0  0  0  0
  3 20  1  0  0  0  0
  3 26  1  0  0  0  0
  4 14  1  1  0  0  0
  4 18  1  0  0  0  0
  4 21  2  0  0  0  0
  4 20  1  0  0  0  0
  5 19  1  0  0  0  0
  5  7  1  0  0  0  0
  6  7  2  0  0  0  0
  6 12  1  0  0  0  0
  7  8  1  0  0  0  0
  8  9  1  0  0  0  0
  8 10  2  0  0  0  0
 10 11  1  0  0  0  0
 11 12  2  0  0  0  0
 15 23  1  0  0  0  0
 15 16  1  0  0  0  0
 16 19  1  0  0  0  0
 19 22  1  0  0  0  0
 22  2  1  1  0  0  0
 22 23  1  0  0  0  0
 23 24  1  6  0  0  0
 24 25  1  0  0  0  0
 25 26  1  0  0  0  0
M  CHG  2  13  -1  18  -1
M  END
>  <CHROM.1>
176.14250422,-70.43824265,25.96994854,-150.00503169,70.73211841,174.16576204
-174.24376116,-66.72069737,-20.33148355,-14.09371097,0.81230329,-0.75567631
0.31287791,2.71873990

>  <Name>
ligand

>  <RI>
0

>  <Rbt.Current_Directory>
/home/itssahil/PROJECTS/Mol_Feturizer/New_Systems/rnas/2GDI

>  <Rbt.Executable>
rbdock ($Id: //depot/dev/client3/rdock/2013.1/src/exe/rbdock.cxx#4 $)

>  <Rbt.Library>
libRbt.so (2013.1, Build901 2013/11/27)

>  <Rbt.Parameter_File>
/export/apps/rDock/src/rDock_2013.1_src/data/scripts/dock_solv.prm

>  <Rbt.Receptor>
prm/pocket_docking_3.prm

>  <SCORE>
-7.74736

>  <SCORE.INTER>
-8.23106

>  <SCORE.INTER.CONST>
1

>  <SCORE.INTER.POLAR>
0

>  <SCORE.INTER.ROT>
8

>  <SCORE.INTER.SOLV>
17.3946

>  <SCORE.INTER.VDW>
-20.2189

>  <SCORE.INTER.norm>
-0.316579

>  <SCORE.INTRA>
0.483698

>  <SCORE.INTRA.DIHEDRAL>
-1.46545

>  <SCORE.INTRA.DIHEDRAL.0>
8.13976

>  <SCORE.INTRA.POLAR>
0

>  <SCORE.INTRA.POLAR.0>
0

>  <SCORE.INTRA.REPUL>
0

>  <SCORE.INTRA.REPUL.0>
0

>  <SCORE.INTRA.SOLV>
2.53067

>  <SCORE.INTRA.SOLV.lig_0>
-82.9561

>  <SCORE.INTRA.VDW>
-0.0489117

>  <SCORE.INTRA.VDW.0>
-3.29171

>  <SCORE.INTRA.norm>
0.0186038

>  <SCORE.RESTR>
0

>  <SCORE.RESTR.CAVITY>
0

>  <SCORE.RESTR.norm>
0

>  <SCORE.SYSTEM>
0

>  <SCORE.SYSTEM.CONST>
0

>  <SCORE.SYSTEM.DIHEDRAL>
0

>  <SCORE.SYSTEM.SOLV>
0

>  <SCORE.SYSTEM.norm>
0

>  <SCORE.heavy>
26

>  <SCORE.norm>
-0.297976

>  <RMSD>
3.702

$$$$
ligand
 OpenBabel11021811433D
libRbt.so/2013.1/901 2013/11/27
 26 27  0  0  0  0  0  0  0  0999 V2000
  -13.4889  -13.3798    0.2769 C   0  0  0  0  0  0  0  0  0  0  0  0
  -20.4622  -11.7362    2.5600 C   0  0  0  0  0  0  0  0  0  0  0  0
  -21.9653  -15.8628    2.2822 P   0  0  1  0  0  0  0  0  0  0  0  0
  -20.3974  -17.9924    3.4929 P   0  0  1  0  0  0  0  0  0  0  0  0
  -18.3876  -10.4337    0.8740 C   0  0  0  0  0  0  0  0  0  0  0  0
  -17.0275  -12.5570    1.0525 C   0  0  0  0  0  0  0  0  0  0  0  0
  -17.0891  -11.2084    0.7252 C   0  0  0  0  0  0  0  0  0  0  0  0
  -15.9467  -10.5872    0.2477 C   0  0  0  0  0  0  0  0  0  0  0  0
  -15.9579   -9.2732   -0.0836 N   0  0  0  0  0  0  0  0  0  0  0  0
  -14.8071  -11.2993    0.1106 N   0  0  0  0  0  0  0  0  0  0  0  0
  -14.7716  -12.6097    0.4373 C   0  0  0  0  0  0  0  0  0  0  0  0
  -15.8796  -13.2335    0.9071 N   0  0  0  0  0  0  0  0  0  0  0  0
  -21.8903  -16.1062    0.7977 O   0  5  0  0  0  0  0  0  0  0  0  0
  -19.0100  -18.0569    4.0537 O   0  0  0  0  0  0  0  0  0  0  0  0
  -21.0817  -12.2415   -1.4197 S   0  0  0  0  0  0  0  0  0  0  0  0
  -19.6610  -11.3097   -1.0640 C   0  0  0  0  0  0  0  0  0  0  0  0
  -23.2079  -16.3158    2.9932 O   0  0  0  0  0  0  0  0  0  0  0  0
  -21.3857  -18.1674    4.5973 O   0  5  0  0  0  0  0  0  0  0  0  0
  -19.5027  -11.1725    0.2817 N   0  0  0  0  0  0  0  0  0  0  0  0
  -20.6294  -16.4774    2.9638 O   0  0  0  0  0  0  0  0  0  0  0  0
  -20.6747  -18.8861    2.3149 O   0  0  0  0  0  0  0  0  0  0  0  0
  -20.4518  -11.7682    1.0548 C   0  0  1  0  0  0  0  0  0  0  0  0
  -21.4759  -12.4742    0.2379 C   0  0  1  0  0  0  0  0  0  0  0  0
  -22.7123  -13.2737    0.5526 C   0  0  0  0  0  0  0  0  0  0  0  0
  -22.8471  -13.3891    2.0628 C   0  0  0  0  0  0  0  0  0  0  0  0
  -21.8418  -14.2795    2.5314 O   0  0  0  0  0  0  0  0  0  0  0  0
  1 11  1  0  0  0  0
  3 13  1  6  0  0  0
  3 17  2  0  0  0  0
  3 20  1  0  0  0  0
  3 26  1  0  0  0  0
  4 14  1  1  0  0  0
  4 18  1  0  0  0  0
  4 21  2  0  0  0  0
  4 20  1  0  0  0  0
  5 19  1  0  0  0  0
  5  7  1  0  0  0  0
  6  7  2  0  0  0  0
  6 12  1  0  0  0  0
  7  8  1  0  0  0  0
  8  9  1  0  0  0  0
  8 10  2  0  0  0  0
 10 11  1  0  0  0  0
 11 12  2  0  0  0  0
 15 23  1  0  0  0  0
 15 16  1  0  0  0  0
 16 19  1  0  0  0  0
 19 22  1  0  0  0  0
 22  2  1  1  0  0  0
 22 23  1  0  0  0  0
 23 24  1  6  0  0  0
 24 25  1  0  0  0  0
 25 26  1  0  0  0  0
M  CHG  2  13  -1  18  -1
M  END
>  <CHROM.1>
-87.96805879,-72.25281477,-47.67024620,-179.26663319,178.35713123,-71.92728820
-73.49355210,64.96876789,-19.64953796,-13.99306283,1.43054471,-0.93359089
0.03795163,2.65397899

>  <Name>
ligand

>  <RI>
0

>  <Rbt.Current_Directory>
/home/itssahil/PROJECTS/Mol_Feturizer/New_Systems/rnas/2GDI

>  <Rbt.Executable>
rbdock ($Id: //depot/dev/client3/rdock/2013.1/src/exe/rbdock.cxx#4 $)

>  <Rbt.Library>
libRbt.so (2013.1, Build901 2013/11/27)

>  <Rbt.Parameter_File>
/export/apps/rDock/src/rDock_2013.1_src/data/scripts/dock_solv.prm

>  <Rbt.Receptor>
prm/pocket_docking_4.prm

>  <SCORE>
-9.28319

>  <SCORE.INTER>
-12.8619

>  <SCORE.INTER.CONST>
1

>  <SCORE.INTER.POLAR>
0

>  <SCORE.INTER.ROT>
8

>  <SCORE.INTER.SOLV>
17.74

>  <SCORE.INTER.VDW>
-23.4212

>  <SCORE.INTER.norm>
-0.494687

>  <SCORE.INTRA>
3.57277

>  <SCORE.INTRA.DIHEDRAL>
-0.799314

>  <SCORE.INTRA.DIHEDRAL.0>
8.13976

>  <SCORE.INTRA.POLAR>
0

>  <SCORE.INTRA.POLAR.0>
0

>  <SCORE.INTRA.REPUL>
0

>  <SCORE.INTRA.REPUL.0>
0

>  <SCORE.INTRA.SOLV>
3.20693

>  <SCORE.INTRA.SOLV.lig_0>
-82.9561

>  <SCORE.INTRA.VDW>
2.36896

>  <SCORE.INTRA.VDW.0>
-3.29171

>  <SCORE.INTRA.norm>
0.137414

>  <SCORE.RESTR>
0.00590907

>  <SCORE.RESTR.CAVITY>
0.00590907

>  <SCORE.RESTR.norm>
0.000227272

>  <SCORE.SYSTEM>
0

>  <SCORE.SYSTEM.CONST>
0

>  <SCORE.SYSTEM.DIHEDRAL>
0

>  <SCORE.SYSTEM.SOLV>
0

>  <SCORE.SYSTEM.norm>
0

>  <SCORE.heavy>
26

>  <SCORE.norm>
-0.357046

>  <RMSD>
3.704

$$$$
ligand
 OpenBabel11021811433D
libRbt.so/2013.1/901 2013/11/27
 26 27  0  0  0  0  0  0  0  0999 V2000
  -14.7065   -9.7247    0.2426 C   0  0  0  0  0  0  0  0  0  0  0  0
  -22.7008  -13.0141   -0.5301 C   0  0  0  0  0  0  0  0  0  0  0  0
  -25.9157  -16.1363    2.6361 P   0  0  1  0  0  0  0  0  0  0  0  0
  -23.6476  -17.9492    2.8036 P   0  0  1  0  0  0  0  0  0  0  0  0
  -19.9804  -11.8208   -0.6661 C   0  0  0  0  0  0  0  0  0  0  0  0
  -18.3709   -9.8986   -0.3422 C   0  0  0  0  0  0  0  0  0  0  0  0
  -18.5839  -11.2681   -0.4361 C   0  0  0  0  0  0  0  0  0  0  0  0
  -17.5001  -12.1203   -0.3024 C   0  0  0  0  0  0  0  0  0  0  0  0
  -17.6585  -13.4635   -0.3878 N   0  0  0  0  0  0  0  0  0  0  0  0
  -16.2699  -11.6069   -0.0846 N   0  0  0  0  0  0  0  0  0  0  0  0
  -16.0876  -10.2710    0.0013 C   0  0  0  0  0  0  0  0  0  0  0  0
  -17.1365   -9.4223   -0.1282 N   0  0  0  0  0  0  0  0  0  0  0  0
  -25.7923  -16.3431    1.1493 O   0  5  0  0  0  0  0  0  0  0  0  0
  -23.3029  -19.0643    3.7423 O   0  0  0  0  0  0  0  0  0  0  0  0
  -21.3638  -11.6592    3.0551 S   0  0  0  0  0  0  0  0  0  0  0  0
  -20.2244  -11.4189    1.7678 C   0  0  0  0  0  0  0  0  0  0  0  0
  -27.3009  -16.1019    3.2147 O   0  0  0  0  0  0  0  0  0  0  0  0
  -24.0548  -18.5200    1.4862 O   0  5  0  0  0  0  0  0  0  0  0  0
  -20.7240  -11.8904    0.5918 N   0  0  0  0  0  0  0  0  0  0  0  0
  -24.9852  -17.2360    3.3789 O   0  0  0  0  0  0  0  0  0  0  0  0
  -22.6223  -16.8559    2.6738 O   0  0  0  0  0  0  0  0  0  0  0  0
  -21.9694  -12.4370    0.6526 C   0  0  1  0  0  0  0  0  0  0  0  0
  -22.5367  -12.3837    2.0272 C   0  0  1  0  0  0  0  0  0  0  0  0
  -23.8312  -12.8280    2.6549 C   0  0  0  0  0  0  0  0  0  0  0  0
  -24.0604  -14.2923    2.3151 C   0  0  0  0  0  0  0  0  0  0  0  0
  -25.2285  -14.7291    2.9992 O   0  0  0  0  0  0  0  0  0  0  0  0
  1 11  1  0  0  0  0
  3 13  1  6  0  0  0
  3 17  2  0  0  0  0
  3 20  1  0  0  0  0
  3 26  1  0  0  0  0
  4 14  1  1  0  0  0
  4 18  1  0  0  0  0
  4 21  2  0  0  0  0
  4 20  1  0  0  0  0
  5 19  1  0  0  0  0
  5  7  1  0  0  0  0
  6  7  2  0  0  0  0
  6 12  1  0  0  0  0
  7  8  1  0  0  0  0
  8  9  1  0  0  0  0
  8 10  2  0  0  0  0
 10 11  1  0  0  0  0
 11 12  2  0  0  0  0
 15 23  1  0  0  0  0
 15 16  1  0  0  0  0
 16 19  1  0  0  0  0
 19 22  1  0  0  0  0
 22  2  1  6  0  0  0
 22 23  1  0  0  0  0
 23 24  1  1  0  0  0
 24 25  1  0  0  0  0
 25 26  1  0  0  0  0
M  CHG  2  13  -1  18  -1
M  END
>  <CHROM.1>
27.42378195,4.43687357,-81.85720140,-169.44074285,-126.01927539,175.45762917
167.88681203,-36.48297808,-21.84613714,-13.93235417,1.58063128,-0.67999779
-0.27533550,3.05707290

>  <Name>
ligand

>  <RI>
0

>  <Rbt.Current_Directory>
/home/itssahil/PROJECTS/Mol_Feturizer/New_Systems/rnas/2GDI

>  <Rbt.Executable>
rbdock ($Id: //depot/dev/client3/rdock/2013.1/src/exe/rbdock.cxx#4 $)

>  <Rbt.Library>
libRbt.so (2013.1, Build901 2013/11/27)

>  <Rbt.Parameter_File>
/export/apps/rDock/src/rDock_2013.1_src/data/scripts/dock_solv.prm

>  <Rbt.Receptor>
prm/pocket_docking_4.prm

>  <SCORE>
-9.33479

>  <SCORE.INTER>
-10.8956

>  <SCORE.INTER.CONST>
1

>  <SCORE.INTER.POLAR>
0

>  <SCORE.INTER.ROT>
8

>  <SCORE.INTER.SOLV>
17.5955

>  <SCORE.INTER.VDW>
-22.0622

>  <SCORE.INTER.norm>
-0.419061

>  <SCORE.INTRA>
1.56079

>  <SCORE.INTRA.DIHEDRAL>
-1.06876

>  <SCORE.INTRA.DIHEDRAL.0>
8.13976

>  <SCORE.INTRA.POLAR>
0

>  <SCORE.INTRA.POLAR.0>
0

>  <SCORE.INTRA.REPUL>
0

>  <SCORE.INTRA.REPUL.0>
0

>  <SCORE.INTRA.SOLV>
3.34608

>  <SCORE.INTRA.SOLV.lig_0>
-82.9561

>  <SCORE.INTRA.VDW>
0.422134

>  <SCORE.INTRA.VDW.0>
-3.29171

>  <SCORE.INTRA.norm>
0.0600304

>  <SCORE.RESTR>
0

>  <SCORE.RESTR.CAVITY>
0

>  <SCORE.RESTR.norm>
0

>  <SCORE.SYSTEM>
0

>  <SCORE.SYSTEM.CONST>
0

>  <SCORE.SYSTEM.DIHEDRAL>
0

>  <SCORE.SYSTEM.SOLV>
0

>  <SCORE.SYSTEM.norm>
0

>  <SCORE.heavy>
26

>  <SCORE.norm>
-0.359031

>  <RMSD>
3.749

$$$$
ligand
 OpenBabel11021811433D
libRbt.so/2013.1/901 2013/11/27
 26 27  0  0  0  0  0  0  0  0999 V2000
  -14.1377  -14.3231    0.1027 C   0  0  0  0  0  0  0  0  0  0  0  0
  -19.5675  -11.3916    2.0258 C   0  0  0  0  0  0  0  0  0  0  0  0
  -21.5007  -16.8230    2.8000 P   0  0  1  0  0  0  0  0  0  0  0  0
  -21.5617  -19.1559    1.0643 P   0  0  1  0  0  0  0  0  0  0  0  0
  -18.7314  -10.9889   -0.7994 C   0  0  0  0  0  0  0  0  0  0  0  0
  -17.4434  -13.1414   -1.1121 C   0  0  0  0  0  0  0  0  0  0  0  0
  -17.5208  -11.8728   -0.5514 C   0  0  0  0  0  0  0  0  0  0  0  0
  -16.4664  -11.4245    0.2272 C   0  0  0  0  0  0  0  0  0  0  0  0
  -16.4972  -10.1949    0.7959 N   0  0  0  0  0  0  0  0  0  0  0  0
  -15.3942  -12.2225    0.4226 N   0  0  0  0  0  0  0  0  0  0  0  0
  -15.3428  -13.4533   -0.1321 C   0  0  0  0  0  0  0  0  0  0  0  0
  -16.3659  -13.9087   -0.8958 N   0  0  0  0  0  0  0  0  0  0  0  0
  -22.0830  -16.8798    4.1879 O   0  5  0  0  0  0  0  0  0  0  0  0
  -20.9072  -20.0593    2.0638 O   0  0  0  0  0  0  0  0  0  0  0  0
  -22.1690  -12.9763   -0.6570 S   0  0  0  0  0  0  0  0  0  0  0  0
  -20.8042  -12.2066   -1.4040 C   0  0  0  0  0  0  0  0  0  0  0  0
  -20.0071  -16.9132    2.6747 O   0  0  0  0  0  0  0  0  0  0  0  0
  -22.7037  -19.8721    0.4239 O   0  5  0  0  0  0  0  0  0  0  0  0
  -19.9670  -11.6946   -0.4596 N   0  0  0  0  0  0  0  0  0  0  0  0
  -22.2448  -17.9412    1.8929 O   0  0  0  0  0  0  0  0  0  0  0  0
  -20.6454  -18.5064    0.0634 O   0  0  0  0  0  0  0  0  0  0  0  0
  -20.3485  -11.8782    0.8343 C   0  0  1  0  0  0  0  0  0  0  0  0
  -21.6257  -12.6348    0.9384 C   0  0  1  0  0  0  0  0  0  0  0  0
  -22.4858  -13.1053    2.0811 C   0  0  0  0  0  0  0  0  0  0  0  0
  -21.7431  -14.1990    2.8323 C   0  0  0  0  0  0  0  0  0  0  0  0
  -21.9361  -15.4247    2.1370 O   0  0  0  0  0  0  0  0  0  0  0  0
  1 11  1  0  0  0  0
  3 13  1  1  0  0  0
  3 17  2  0  0  0  0
  3 20  1  0  0  0  0
  3 26  1  0  0  0  0
  4 14  1  1  0  0  0
  4 18  1  0  0  0  0
  4 21  2  0  0  0  0
  4 20  1  0  0  0  0
  5 19  1  0  0  0  0
  5  7  1  0  0  0  0
  6  7  2  0  0  0  0
  6 12  1  0  0  0  0
  7  8  1  0  0  0  0
  8  9  1  0  0  0  0
  8 10  2  0  0  0  0
 10 11  1  0  0  0  0
 11 12  2  0  0  0  0
 15 23  1  0  0  0  0
 15 16  1  0  0  0  0
 16 19  1  0  0  0  0
 19 22  1  0  0  0  0
 22  2  1  1  0  0  0
 22 23  1  0  0  0  0
 23 24  1  6  0  0  0
 24 25  1  0  0  0  0
 25 26  1  0  0  0  0
M  CHG  2  13  -1  18  -1
M  END
>  <CHROM.1>
-123.46241887,-104.19774910,53.32980751,63.52890429,112.51764579,-82.06405773
-169.22064915,50.23116905,-19.97435088,-14.76735267,0.92550824,-0.96597113
-0.20486847,2.99074385

>  <Name>
ligand

>  <RI>
0

>  <Rbt.Current_Directory>
/home/itssahil/PROJECTS/Mol_Feturizer/New_Systems/rnas/2GDI

>  <Rbt.Executable>
rbdock ($Id: //depot/dev/client3/rdock/2013.1/src/exe/rbdock.cxx#4 $)

>  <Rbt.Library>
libRbt.so (2013.1, Build901 2013/11/27)

>  <Rbt.Parameter_File>
/export/apps/rDock/src/rDock_2013.1_src/data/scripts/dock_solv.prm

>  <Rbt.Receptor>
prm/pocket_docking_5.prm

>  <SCORE>
-8.61948

>  <SCORE.INTER>
-9.45264

>  <SCORE.INTER.CONST>
1

>  <SCORE.INTER.POLAR>
0

>  <SCORE.INTER.ROT>
8

>  <SCORE.INTER.SOLV>
14.8231

>  <SCORE.INTER.VDW>
-20.1761

>  <SCORE.INTER.norm>
-0.363563

>  <SCORE.INTRA>
0.833156

>  <SCORE.INTRA.DIHEDRAL>
1.35089

>  <SCORE.INTRA.DIHEDRAL.0>
8.13976

>  <SCORE.INTRA.POLAR>
0

>  <SCORE.INTRA.POLAR.0>
0

>  <SCORE.INTRA.REPUL>
0

>  <SCORE.INTRA.REPUL.0>
0

>  <SCORE.INTRA.SOLV>
1.37862

>  <SCORE.INTRA.SOLV.lig_0>
-82.9561

>  <SCORE.INTRA.VDW>
-0.531599

>  <SCORE.INTRA.VDW.0>
-3.29171

>  <SCORE.INTRA.norm>
0.0320444

>  <SCORE.RESTR>
0

>  <SCORE.RESTR.CAVITY>
0

>  <SCORE.RESTR.norm>
0

>  <SCORE.SYSTEM>
0

>  <SCORE.SYSTEM.CONST>
0

>  <SCORE.SYSTEM.DIHEDRAL>
0

>  <SCORE.SYSTEM.SOLV>
0

>  <SCORE.SYSTEM.norm>
0

>  <SCORE.heavy>
26

>  <SCORE.norm>
-0.331519

>  <RMSD>
3.749

$$$$
ligand
 OpenBabel11021811433D
libRbt.so/2013.1/901 2013/11/27
 26 27  0  0  0  0  0  0  0  0999 V2000
  -12.8125   -7.1197   -0.2879 C   0  0  0  0  0  0  0  0  0  0  0  0
  -17.0393  -11.5794    2.8897 C   0  0  0  0  0  0  0  0  0  0  0  0
  -23.0383  -13.3979    4.0181 P   0  0  1  0  0  0  0  0  0  0  0  0
  -24.0298  -11.5808    6.0611 P   0  0  1  0  0  0  0  0  0  0  0  0
  -15.6069  -12.1031    0.3368 C   0  0  0  0  0  0  0  0  0  0  0  0
  -15.5591   -9.5827    0.1478 C   0  0  0  0  0  0  0  0  0  0  0  0
  -14.8676  -10.7874    0.1613 C   0  0  0  0  0  0  0  0  0  0  0  0
  -13.4892  -10.7645    0.0251 C   0  0  0  0  0  0  0  0  0  0  0  0
  -12.7718  -11.9141    0.0311 N   0  0  0  0  0  0  0  0  0  0  0  0
  -12.8518   -9.5819   -0.1158 N   0  0  0  0  0  0  0  0  0  0  0  0
  -13.5466   -8.4234   -0.1276 C   0  0  0  0  0  0  0  0  0  0  0  0
  -14.8957   -8.4271    0.0033 N   0  0  0  0  0  0  0  0  0  0  0  0
  -22.3750  -14.7496    4.0539 O   0  5  0  0  0  0  0  0  0  0  0  0
  -23.1529  -10.5194    5.4713 O   0  0  0  0  0  0  0  0  0  0  0  0
  -19.4901  -11.6113   -0.3460 S   0  0  0  0  0  0  0  0  0  0  0  0
  -17.8273  -11.9060   -0.7476 C   0  0  0  0  0  0  0  0  0  0  0  0
  -24.1697  -13.2105    3.0488 O   0  0  0  0  0  0  0  0  0  0  0  0
  -25.4020  -11.4645    5.4858 O   0  5  0  0  0  0  0  0  0  0  0  0
  -17.0529  -11.8843    0.3726 N   0  0  0  0  0  0  0  0  0  0  0  0
  -23.4758  -13.0088    5.5294 O   0  0  0  0  0  0  0  0  0  0  0  0
  -24.0328  -11.6744    7.5626 O   0  0  0  0  0  0  0  0  0  0  0  0
  -17.7074  -11.6446    1.5421 C   0  0  1  0  0  0  0  0  0  0  0  0
  -19.1710  -11.4701    1.3379 C   0  0  1  0  0  0  0  0  0  0  0  0
  -20.3394  -11.1909    2.2456 C   0  0  0  0  0  0  0  0  0  0  0  0
  -21.0727  -12.4961    2.5120 C   0  0  0  0  0  0  0  0  0  0  0  0
  -21.9199  -12.3072    3.6388 O   0  0  0  0  0  0  0  0  0  0  0  0
  1 11  1  0  0  0  0
  3 13  1  6  0  0  0
  3 17  2  0  0  0  0
  3 20  1  0  0  0  0
  3 26  1  0  0  0  0
  4 14  1  6  0  0  0
  4 18  1  0  0  0  0
  4 21  2  0  0  0  0
  4 20  1  0  0  0  0
  5 19  1  0  0  0  0
  5  7  1  0  0  0  0
  6  7  2  0  0  0  0
  6 12  1  0  0  0  0
  7  8  1  0  0  0  0
  8  9  1  0  0  0  0
  8 10  2  0  0  0  0
 10 11  1  0  0  0  0
 11 12  2  0  0  0  0
 15 23  1  0  0  0  0
 15 16  1  0  0  0  0
 16 19  1  0  0  0  0
 19 22  1  0  0  0  0
 22  2  1  1  0  0  0
 22 23  1  0  0  0  0
 23 24  1  6  0  0  0
 24 25  1  0  0  0  0
 25 26  1  0  0  0  0
M  CHG  2  13  -1  18  -1
M  END
>  <CHROM.1>
170.50690950,90.30869145,4.31847668,-45.08237308,80.65774085,163.84243685
168.33157808,50.48809969,-19.40755047,-11.47941106,2.39203224,-0.16969415
0.52452841,0.75708854

>  <Name>
ligand

>  <RI>
0

>  <Rbt.Current_Directory>
/home/itssahil/PROJECTS/Mol_Feturizer/New_Systems/rnas/2GDI

>  <Rbt.Executable>
rbdock ($Id: //depot/dev/client3/rdock/2013.1/src/exe/rbdock.cxx#4 $)

>  <Rbt.Library>
libRbt.so (2013.1, Build901 2013/11/27)

>  <Rbt.Parameter_File>
/export/apps/rDock/src/rDock_2013.1_src/data/scripts/dock_solv.prm

>  <Rbt.Receptor>
prm/blind_docking_60.prm

>  <SCORE>
-20.4838

>  <SCORE.INTER>
-19.5351

>  <SCORE.INTER.CONST>
1

>  <SCORE.INTER.POLAR>
0

>  <SCORE.INTER.ROT>
8

>  <SCORE.INTER.SOLV>
21.7523

>  <SCORE.INTER.VDW>
-29.2075

>  <SCORE.INTER.norm>
-0.75135

>  <SCORE.INTRA>
-0.973729

>  <SCORE.INTRA.DIHEDRAL>
-0.897777

>  <SCORE.INTRA.DIHEDRAL.0>
8.13976

>  <SCORE.INTRA.POLAR>
0

>  <SCORE.INTRA.POLAR.0>
0

>  <SCORE.INTRA.REPUL>
0

>  <SCORE.INTRA.REPUL.0>
0

>  <SCORE.INTRA.SOLV>
-0.693109

>  <SCORE.INTRA.SOLV.lig_0>
-82.9561

>  <SCORE.INTRA.VDW>
-0.178286

>  <SCORE.INTRA.VDW.0>
-3.29171

>  <SCORE.INTRA.norm>
-0.0374511

>  <SCORE.RESTR>
0.0250154

>  <SCORE.RESTR.CAVITY>
0.0250154

>  <SCORE.RESTR.norm>
0.000962129

>  <SCORE.SYSTEM>
0

>  <SCORE.SYSTEM.CONST>
0

>  <SCORE.SYSTEM.DIHEDRAL>
0

>  <SCORE.SYSTEM.SOLV>
0

>  <SCORE.SYSTEM.norm>
0

>  <SCORE.heavy>
26

>  <SCORE.norm>
-0.787839

>  <RMSD>
3.806

$$$$
ligand
 OpenBabel11021811433D
libRbt.so/2013.1/901 2013/11/27
 26 27  0  0  0  0  0  0  0  0999 V2000
  -13.2042  -12.3114    0.1365 C   0  0  0  0  0  0  0  0  0  0  0  0
  -20.8872  -11.8238    2.6862 C   0  0  0  0  0  0  0  0  0  0  0  0
  -22.0912  -16.2518   -0.9066 P   0  0  1  0  0  0  0  0  0  0  0  0
  -19.5749  -17.7027   -0.7573 P   0  0  1  0  0  0  0  0  0  0  0  0
  -18.5057  -10.5306    1.4618 C   0  0  0  0  0  0  0  0  0  0  0  0
  -16.5451  -12.1005    1.7473 C   0  0  0  0  0  0  0  0  0  0  0  0
  -17.1002  -10.9937    1.1175 C   0  0  0  0  0  0  0  0  0  0  0  0
  -16.3522  -10.3289    0.1598 C   0  0  0  0  0  0  0  0  0  0  0  0
  -16.8509   -9.2436   -0.4805 N   0  0  0  0  0  0  0  0  0  0  0  0
  -15.1100  -10.7669   -0.1399 N   0  0  0  0  0  0  0  0  0  0  0  0
  -14.5911  -11.8449    0.4876 C   0  0  0  0  0  0  0  0  0  0  0  0
  -15.3084  -12.5070    1.4280 N   0  0  0  0  0  0  0  0  0  0  0  0
  -22.6969  -15.3199   -1.9230 O   0  5  0  0  0  0  0  0  0  0  0  0
  -20.2547  -18.8281   -0.0396 O   0  0  0  0  0  0  0  0  0  0  0  0
  -20.7352  -12.2386   -1.3488 S   0  0  0  0  0  0  0  0  0  0  0  0
  -19.3951  -11.3427   -0.7048 C   0  0  0  0  0  0  0  0  0  0  0  0
  -22.9748  -17.3284   -0.3454 O   0  0  0  0  0  0  0  0  0  0  0  0
  -18.7118  -18.2573   -1.8411 O   0  5  0  0  0  0  0  0  0  0  0  0
  -19.4973  -11.2351    0.6489 N   0  0  0  0  0  0  0  0  0  0  0  0
  -20.7267  -16.8642   -1.5313 O   0  0  0  0  0  0  0  0  0  0  0  0
  -18.8545  -16.7070    0.1103 O   0  0  0  0  0  0  0  0  0  0  0  0
  -20.5871  -11.8266    1.2109 C   0  0  1  0  0  0  0  0  0  0  0  0
  -21.4455  -12.4957    0.1960 C   0  0  1  0  0  0  0  0  0  0  0  0
  -22.7320  -13.2761    0.2482 C   0  0  0  0  0  0  0  0  0  0  0  0
  -22.5014  -14.5428    1.0572 C   0  0  0  0  0  0  0  0  0  0  0  0
  -21.5916  -15.3681    0.3399 O   0  0  0  0  0  0  0  0  0  0  0  0
  1 11  1  0  0  0  0
  3 13  1  6  0  0  0
  3 17  2  0  0  0  0
  3 20  1  0  0  0  0
  3 26  1  0  0  0  0
  4 14  1  1  0  0  0
  4 18  1  0  0  0  0
  4 21  2  0  0  0  0
  4 20  1  0  0  0  0
  5 19  1  0  0  0  0
  5  7  1  0  0  0  0
  6  7  2  0  0  0  0
  6 12  1  0  0  0  0
  7  8  1  0  0  0  0
  8  9  1  0  0  0  0
  8 10  2  0  0  0  0
 10 11  1  0  0  0  0
 11 12  2  0  0  0  0
 15 23  1  0  0  0  0
 15 16  1  0  0  0  0
 16 19  1  0  0  0  0
 19 22  1  0  0  0  0
 22  2  1  1  0  0  0
 22 23  1  0  0  0  0
 23 24  1  6  0  0  0
 24 25  1  0  0  0  0
 25 26  1  0  0  0  0
M  CHG  2  13  -1  18  -1
M  END
>  <CHROM.1>
168.30753296,-49.63542302,-87.04055796,52.36417498,117.79595168,-66.19005222
-78.61043685,57.98744902,-19.47029770,-13.93516277,-0.06261799,-0.86784281
0.01509356,-2.93992540

>  <Name>
ligand

>  <RI>
0

>  <Rbt.Current_Directory>
/home/itssahil/PROJECTS/Mol_Feturizer/New_Systems/rnas/2GDI

>  <Rbt.Executable>
rbdock ($Id: //depot/dev/client3/rdock/2013.1/src/exe/rbdock.cxx#4 $)

>  <Rbt.Library>
libRbt.so (2013.1, Build901 2013/11/27)

>  <Rbt.Parameter_File>
/export/apps/rDock/src/rDock_2013.1_src/data/scripts/dock_solv.prm

>  <Rbt.Receptor>
prm/pocket_docking_5.prm

>  <SCORE>
-10.4022

>  <SCORE.INTER>
-9.73853

>  <SCORE.INTER.CONST>
1

>  <SCORE.INTER.POLAR>
0

>  <SCORE.INTER.ROT>
8

>  <SCORE.INTER.SOLV>
17.1565

>  <SCORE.INTER.VDW>
-21.1445

>  <SCORE.INTER.norm>
-0.374559

>  <SCORE.INTRA>
-0.664837

>  <SCORE.INTRA.DIHEDRAL>
-1.52658

>  <SCORE.INTRA.DIHEDRAL.0>
8.13976

>  <SCORE.INTRA.POLAR>
0

>  <SCORE.INTRA.POLAR.0>
0

>  <SCORE.INTRA.REPUL>
0

>  <SCORE.INTRA.REPUL.0>
0

>  <SCORE.INTRA.SOLV>
1.75747

>  <SCORE.INTRA.SOLV.lig_0>
-82.9561

>  <SCORE.INTRA.VDW>
-0.780281

>  <SCORE.INTRA.VDW.0>
-3.29171

>  <SCORE.INTRA.norm>
-0.0255707

>  <SCORE.RESTR>
0.00118231

>  <SCORE.RESTR.CAVITY>
0.00118231

>  <SCORE.RESTR.norm>
4.54736e-05

>  <SCORE.SYSTEM>
0

>  <SCORE.SYSTEM.CONST>
0

>  <SCORE.SYSTEM.DIHEDRAL>
0

>  <SCORE.SYSTEM.SOLV>
0

>  <SCORE.SYSTEM.norm>
0

>  <SCORE.heavy>
26

>  <SCORE.norm>
-0.400084

>  <RMSD>
3.815

$$$$
ligand
 OpenBabel11021811433D
libRbt.so/2013.1/901 2013/11/27
 26 27  0  0  0  0  0  0  0  0999 V2000
  -13.1806   -9.6202    0.1455 C   0  0  0  0  0  0  0  0  0  0  0  0
  -15.4742  -16.5765   -2.1036 C   0  0  0  0  0  0  0  0  0  0  0  0
  -21.7894  -16.7984   -1.3608 P   0  0  1  0  0  0  0  0  0  0  0  0
  -23.2139  -14.3560   -2.0423 P   0  0  1  0  0  0  0  0  0  0  0  0
  -13.9319  -15.3182    0.1058 C   0  0  0  0  0  0  0  0  0  0  0  0
  -12.5143  -13.2593    0.4820 C   0  0  0  0  0  0  0  0  0  0  0  0
  -13.7382  -13.8114    0.1257 C   0  0  0  0  0  0  0  0  0  0  0  0
  -14.7745  -12.9614   -0.2243 C   0  0  0  0  0  0  0  0  0  0  0  0
  -15.9867  -13.4533   -0.5778 N   0  0  0  0  0  0  0  0  0  0  0  0
  -14.5751  -11.6254   -0.2127 N   0  0  0  0  0  0  0  0  0  0  0  0
  -13.3759  -11.1122    0.1392 C   0  0  0  0  0  0  0  0  0  0  0  0
  -12.3511  -11.9290    0.4855 N   0  0  0  0  0  0  0  0  0  0  0  0
  -21.4356  -16.2030   -0.0233 O   0  5  0  0  0  0  0  0  0  0  0  0
  -21.9484  -13.8002   -2.6196 O   0  0  0  0  0  0  0  0  0  0  0  0
  -17.6855  -15.9542    1.2429 S   0  0  0  0  0  0  0  0  0  0  0  0
  -16.0392  -15.4292    1.4066 C   0  0  0  0  0  0  0  0  0  0  0  0
  -22.0317  -18.2794   -1.4138 O   0  0  0  0  0  0  0  0  0  0  0  0
  -24.3344  -14.1350   -3.0029 O   0  5  0  0  0  0  0  0  0  0  0  0
  -15.3460  -15.6611    0.2575 N   0  0  0  0  0  0  0  0  0  0  0  0
  -23.0397  -15.9664   -1.9703 O   0  0  0  0  0  0  0  0  0  0  0  0
  -23.5494  -13.9160   -0.6434 O   0  0  0  0  0  0  0  0  0  0  0  0
  -16.0507  -16.2372   -0.7549 C   0  0  1  0  0  0  0  0  0  0  0  0
  -17.4704  -16.4797   -0.3802 C   0  0  1  0  0  0  0  0  0  0  0  0
  -18.6628  -17.0729   -1.0825 C   0  0  0  0  0  0  0  0  0  0  0  0
  -19.3415  -15.9825   -1.8966 C   0  0  0  0  0  0  0  0  0  0  0  0
  -20.5804  -16.4918   -2.3749 O   0  0  0  0  0  0  0  0  0  0  0  0
  1 11  1  0  0  0  0
  3 13  1  1  0  0  0
  3 17  2  0  0  0  0
  3 20  1  0  0  0  0
  3 26  1  0  0  0  0
  4 14  1  6  0  0  0
  4 18  1  0  0  0  0
  4 21  2  0  0  0  0
  4 20  1  0  0  0  0
  5 19  1  0  0  0  0
  5  7  1  0  0  0  0
  6  7  2  0  0  0  0
  6 12  1  0  0  0  0
  7  8  1  0  0  0  0
  8  9  1  0  0  0  0
  8 10  2  0  0  0  0
 10 11  1  0  0  0  0
 11 12  2  0  0  0  0
 15 23  1  0  0  0  0
 15 16  1  0  0  0  0
 16 19  1  0  0  0  0
 19 22  1  0  0  0  0
 22  2  1  6  0  0  0
 22 23  1  0  0  0  0
 23 24  1  1  0  0  0
 24 25  1  0  0  0  0
 25 26  1  0  0  0  0
M  CHG  2  13  -1  18  -1
M  END
>  <CHROM.1>
46.52496340,-67.11178263,156.46557833,49.09899516,95.62608111,-170.55556427
68.56593570,11.10628724,-18.39916730,-14.87063884,-0.76315957,0.25678724
-0.24483975,-0.10040397

>  <Name>
ligand

>  <RI>
0

>  <Rbt.Current_Directory>
/home/itssahil/PROJECTS/Mol_Feturizer/New_Systems/rnas/2GDI

>  <Rbt.Executable>
rbdock ($Id: //depot/dev/client3/rdock/2013.1/src/exe/rbdock.cxx#4 $)

>  <Rbt.Library>
libRbt.so (2013.1, Build901 2013/11/27)

>  <Rbt.Parameter_File>
/export/apps/rDock/src/rDock_2013.1_src/data/scripts/dock_solv.prm

>  <Rbt.Receptor>
prm/pocket_docking_6.prm

>  <SCORE>
-12.6421

>  <SCORE.INTER>
-16.6932

>  <SCORE.INTER.CONST>
1

>  <SCORE.INTER.POLAR>
0

>  <SCORE.INTER.ROT>
8

>  <SCORE.INTER.SOLV>
8.14498

>  <SCORE.INTER.VDW>
-22.7771

>  <SCORE.INTER.norm>
-0.642047

>  <SCORE.INTRA>
4.05117

>  <SCORE.INTRA.DIHEDRAL>
0.106462

>  <SCORE.INTRA.DIHEDRAL.0>
8.13976

>  <SCORE.INTRA.POLAR>
0

>  <SCORE.INTRA.POLAR.0>
0

>  <SCORE.INTRA.REPUL>
0

>  <SCORE.INTRA.REPUL.0>
0

>  <SCORE.INTRA.SOLV>
6.27255

>  <SCORE.INTRA.SOLV.lig_0>
-82.9561

>  <SCORE.INTRA.VDW>
0.861666

>  <SCORE.INTRA.VDW.0>
-3.29171

>  <SCORE.INTRA.norm>
0.155814

>  <SCORE.RESTR>
0

>  <SCORE.RESTR.CAVITY>
0

>  <SCORE.RESTR.norm>
0

>  <SCORE.SYSTEM>
0

>  <SCORE.SYSTEM.CONST>
0

>  <SCORE.SYSTEM.DIHEDRAL>
0

>  <SCORE.SYSTEM.SOLV>
0

>  <SCORE.SYSTEM.norm>
0

>  <SCORE.heavy>
26

>  <SCORE.norm>
-0.486233

>  <RMSD>
3.832

$$$$
ligand
 OpenBabel11021811433D
libRbt.so/2013.1/901 2013/11/27
 26 27  0  0  0  0  0  0  0  0999 V2000
  -13.6650  -12.4610    0.0893 C   0  0  0  0  0  0  0  0  0  0  0  0
  -20.7337  -11.8087    2.4880 C   0  0  0  0  0  0  0  0  0  0  0  0
  -20.2886  -16.5393    1.2359 P   0  0  1  0  0  0  0  0  0  0  0  0
  -20.6034  -18.0284    3.7143 P   0  0  1  0  0  0  0  0  0  0  0  0
  -18.9140  -10.2170    0.7564 C   0  0  0  0  0  0  0  0  0  0  0  0
  -17.2689  -11.7251   -0.4308 C   0  0  0  0  0  0  0  0  0  0  0  0
  -17.5284  -10.8170    0.5879 C   0  0  0  0  0  0  0  0  0  0  0  0
  -16.4955  -10.4590    1.4387 C   0  0  0  0  0  0  0  0  0  0  0  0
  -16.7008   -9.5779    2.4476 N   0  0  0  0  0  0  0  0  0  0  0  0
  -15.2682  -10.9948    1.2613 N   0  0  0  0  0  0  0  0  0  0  0  0
  -15.0409  -11.8774    0.2641 C   0  0  0  0  0  0  0  0  0  0  0  0
  -16.0400  -12.2399   -0.5771 N   0  0  0  0  0  0  0  0  0  0  0  0
  -18.8067  -16.2710    1.2538 O   0  5  0  0  0  0  0  0  0  0  0  0
  -20.9004  -19.2319    2.8735 O   0  0  0  0  0  0  0  0  0  0  0  0
  -21.4008  -12.3653   -1.4770 S   0  0  0  0  0  0  0  0  0  0  0  0
  -20.1131  -11.2473   -1.1529 C   0  0  0  0  0  0  0  0  0  0  0  0
  -20.7771  -17.6530    0.3551 O   0  0  0  0  0  0  0  0  0  0  0  0
  -19.1581  -18.0296    4.0863 O   0  5  0  0  0  0  0  0  0  0  0  0
  -19.9335  -11.0995    0.1889 N   0  0  0  0  0  0  0  0  0  0  0  0
  -20.7876  -16.7258    2.7667 O   0  0  0  0  0  0  0  0  0  0  0  0
  -21.5095  -17.8090    4.8950 O   0  0  0  0  0  0  0  0  0  0  0  0
  -20.7660  -11.8275    0.9830 C   0  0  1  0  0  0  0  0  0  0  0  0
  -21.7069  -12.6632    0.1887 C   0  0  1  0  0  0  0  0  0  0  0  0
  -22.8096  -13.6296    0.5307 C   0  0  0  0  0  0  0  0  0  0  0  0
  -22.2269  -14.7585    1.3663 C   0  0  0  0  0  0  0  0  0  0  0  0
  -21.0285  -15.2007    0.7408 O   0  0  0  0  0  0  0  0  0  0  0  0
  1 11  1  0  0  0  0
  3 13  1  6  0  0  0
  3 17  2  0  0  0  0
  3 20  1  0  0  0  0
  3 26  1  0  0  0  0
  4 14  1  6  0  0  0
  4 18  1  0  0  0  0
  4 21  2  0  0  0  0
  4 20  1  0  0  0  0
  5 19  1  0  0  0  0
  5  7  1  0  0  0  0
  6  7  2  0  0  0  0
  6 12  1  0  0  0  0
  7  8  1  0  0  0  0
  8  9  1  0  0  0  0
  8 10  2  0  0  0  0
 10 11  1  0  0  0  0
 11 12  2  0  0  0  0
 15 23  1  0  0  0  0
 15 16  1  0  0  0  0
 16 19  1  0  0  0  0
 19 22  1  0  0  0  0
 22  2  1  1  0  0  0
 22 23  1  0  0  0  0
 23 24  1  1  0  0  0
 24 25  1  0  0  0  0
 25 26  1  0  0  0  0
M  CHG  2  13  -1  18  -1
M  END
>  <CHROM.1>
-77.27826582,-73.54377724,24.97262169,-42.73668357,121.95382618,-46.67098682
-170.05309303,-138.34704414,-19.49612847,-14.08592700,1.24935737,-1.08191303
0.22035696,2.66849882

>  <Name>
ligand

>  <RI>
0

>  <Rbt.Current_Directory>
/home/itssahil/PROJECTS/Mol_Feturizer/New_Systems/rnas/2GDI

>  <Rbt.Executable>
rbdock ($Id: //depot/dev/client3/rdock/2013.1/src/exe/rbdock.cxx#4 $)

>  <Rbt.Library>
libRbt.so (2013.1, Build901 2013/11/27)

>  <Rbt.Parameter_File>
/export/apps/rDock/src/rDock_2013.1_src/data/scripts/dock_solv.prm

>  <Rbt.Receptor>
prm/pocket_docking_4.prm

>  <SCORE>
-11.5032

>  <SCORE.INTER>
-11.6737

>  <SCORE.INTER.CONST>
1

>  <SCORE.INTER.POLAR>
0

>  <SCORE.INTER.ROT>
8

>  <SCORE.INTER.SOLV>
25.0562

>  <SCORE.INTER.VDW>
-25.0678

>  <SCORE.INTER.norm>
-0.448987

>  <SCORE.INTRA>
0.166025

>  <SCORE.INTRA.DIHEDRAL>
-0.239623

>  <SCORE.INTRA.DIHEDRAL.0>
8.13976

>  <SCORE.INTRA.POLAR>
0

>  <SCORE.INTRA.POLAR.0>
0

>  <SCORE.INTRA.REPUL>
0

>  <SCORE.INTRA.REPUL.0>
0

>  <SCORE.INTRA.SOLV>
0.0147635

>  <SCORE.INTRA.SOLV.lig_0>
-82.9561

>  <SCORE.INTRA.VDW>
0.278455

>  <SCORE.INTRA.VDW.0>
-3.29171

>  <SCORE.INTRA.norm>
0.00638559

>  <SCORE.RESTR>
0.00448637

>  <SCORE.RESTR.CAVITY>
0.00448637

>  <SCORE.RESTR.norm>
0.000172553

>  <SCORE.SYSTEM>
0

>  <SCORE.SYSTEM.CONST>
0

>  <SCORE.SYSTEM.DIHEDRAL>
0

>  <SCORE.SYSTEM.SOLV>
0

>  <SCORE.SYSTEM.norm>
0

>  <SCORE.heavy>
26

>  <SCORE.norm>
-0.442429

>  <RMSD>
3.841

$$$$
ligand
 OpenBabel11021811433D
libRbt.so/2013.1/901 2013/11/27
 26 27  0  0  0  0  0  0  0  0999 V2000
  -12.6040   -8.1125   -0.5737 C   0  0  0  0  0  0  0  0  0  0  0  0
  -17.2359  -13.0179   -0.8566 C   0  0  0  0  0  0  0  0  0  0  0  0
  -19.8846  -15.8613   -0.6913 P   0  0  1  0  0  0  0  0  0  0  0  0
  -20.7994  -18.5429   -1.3477 P   0  0  1  0  0  0  0  0  0  0  0  0
  -15.6372  -12.4868    1.5940 C   0  0  0  0  0  0  0  0  0  0  0  0
  -13.5601  -11.5337    0.5135 C   0  0  0  0  0  0  0  0  0  0  0  0
  -14.8328  -11.3275    1.0308 C   0  0  0  0  0  0  0  0  0  0  0  0
  -15.3593  -10.0463    1.0106 C   0  0  0  0  0  0  0  0  0  0  0  0
  -16.5960   -9.7961    1.5048 N   0  0  0  0  0  0  0  0  0  0  0  0
  -14.6313   -9.0334    0.4922 N   0  0  0  0  0  0  0  0  0  0  0  0
  -13.3949   -9.2587   -0.0035 C   0  0  0  0  0  0  0  0  0  0  0  0
  -12.8636  -10.5056    0.0091 N   0  0  0  0  0  0  0  0  0  0  0  0
  -20.2343  -14.4865   -1.1973 O   0  5  0  0  0  0  0  0  0  0  0  0
  -19.4466  -19.0526   -0.9557 O   0  0  0  0  0  0  0  0  0  0  0  0
  -14.5372  -15.9378   -0.0394 S   0  0  0  0  0  0  0  0  0  0  0  0
  -14.5119  -14.6434    1.1169 C   0  0  0  0  0  0  0  0  0  0  0  0
  -20.0922  -16.1312    0.7712 O   0  0  0  0  0  0  0  0  0  0  0  0
  -21.7253  -18.6513   -0.1823 O   0  5  0  0  0  0  0  0  0  0  0  0
  -15.4347  -13.6951    0.7945 N   0  0  0  0  0  0  0  0  0  0  0  0
  -20.6516  -16.9505   -1.6145 O   0  0  0  0  0  0  0  0  0  0  0  0
  -21.3806  -19.1189   -2.6101 O   0  0  0  0  0  0  0  0  0  0  0  0
  -16.1673  -13.9369   -0.3273 C   0  0  1  0  0  0  0  0  0  0  0  0
  -15.8013  -15.2301   -0.9659 C   0  0  1  0  0  0  0  0  0  0  0  0
  -16.2686  -15.9757   -2.1877 C   0  0  0  0  0  0  0  0  0  0  0  0
  -17.7820  -15.8603   -2.2801 C   0  0  0  0  0  0  0  0  0  0  0  0
  -18.3263  -16.1181   -0.9916 O   0  0  0  0  0  0  0  0  0  0  0  0
  1 11  1  0  0  0  0
  3 13  1  6  0  0  0
  3 17  2  0  0  0  0
  3 20  1  0  0  0  0
  3 26  1  0  0  0  0
  4 14  1  1  0  0  0
  4 18  1  0  0  0  0
  4 21  2  0  0  0  0
  4 20  1  0  0  0  0
  5 19  1  0  0  0  0
  5  7  1  0  0  0  0
  6  7  2  0  0  0  0
  6 12  1  0  0  0  0
  7  8  1  0  0  0  0
  8  9  1  0  0  0  0
  8 10  2  0  0  0  0
 10 11  1  0  0  0  0
 11 12  2  0  0  0  0
 15 23  1  0  0  0  0
 15 16  1  0  0  0  0
 16 19  1  0  0  0  0
 19 22  1  0  0  0  0
 22  2  1  1  0  0  0
 22 23  1  0  0  0  0
 23 24  1  6  0  0  0
 24 25  1  0  0  0  0
 25 26  1  0  0  0  0
M  CHG  2  13  -1  18  -1
M  END
>  <CHROM.1>
-169.40574192,95.03967996,-38.03904807,-45.86314880,140.41617663,-45.86818406
170.77583392,-48.81189652,-17.26177468,-14.53521360,-0.39917725,0.87437528
-0.03242243,0.18962540

>  <Name>
ligand

>  <RI>
0

>  <Rbt.Current_Directory>
/home/itssahil/PROJECTS/Mol_Feturizer/New_Systems/rnas/2GDI

>  <Rbt.Executable>
rbdock ($Id: //depot/dev/client3/rdock/2013.1/src/exe/rbdock.cxx#4 $)

>  <Rbt.Library>
libRbt.so (2013.1, Build901 2013/11/27)

>  <Rbt.Parameter_File>
/export/apps/rDock/src/rDock_2013.1_src/data/scripts/dock_solv.prm

>  <Rbt.Receptor>
prm/pocket_docking_5.prm

>  <SCORE>
-18.1819

>  <SCORE.INTER>
-17.4758

>  <SCORE.INTER.CONST>
1

>  <SCORE.INTER.POLAR>
0

>  <SCORE.INTER.ROT>
8

>  <SCORE.INTER.SOLV>
11.6104

>  <SCORE.INTER.VDW>
-24.454

>  <SCORE.INTER.norm>
-0.672146

>  <SCORE.INTRA>
-0.706065

>  <SCORE.INTRA.DIHEDRAL>
-1.60974

>  <SCORE.INTRA.DIHEDRAL.0>
8.13976

>  <SCORE.INTRA.POLAR>
0

>  <SCORE.INTRA.POLAR.0>
0

>  <SCORE.INTRA.REPUL>
0

>  <SCORE.INTRA.REPUL.0>
0

>  <SCORE.INTRA.SOLV>
1.30805

>  <SCORE.INTRA.SOLV.lig_0>
-82.9561

>  <SCORE.INTRA.VDW>
-0.55522

>  <SCORE.INTRA.VDW.0>
-3.29171

>  <SCORE.INTRA.norm>
-0.0271563

>  <SCORE.RESTR>
0

>  <SCORE.RESTR.CAVITY>
0

>  <SCORE.RESTR.norm>
0

>  <SCORE.SYSTEM>
0

>  <SCORE.SYSTEM.CONST>
0

>  <SCORE.SYSTEM.DIHEDRAL>
0

>  <SCORE.SYSTEM.SOLV>
0

>  <SCORE.SYSTEM.norm>
0

>  <SCORE.heavy>
26

>  <SCORE.norm>
-0.699302

>  <RMSD>
3.857

$$$$
ligand
 OpenBabel11021811433D
libRbt.so/2013.1/901 2013/11/27
 26 27  0  0  0  0  0  0  0  0999 V2000
  -12.6103   -8.1204   -0.3986 C   0  0  0  0  0  0  0  0  0  0  0  0
  -18.0235  -12.7674   -0.8238 C   0  0  0  0  0  0  0  0  0  0  0  0
  -21.3164  -15.3016   -1.8139 P   0  0  1  0  0  0  0  0  0  0  0  0
  -22.4867  -12.6490   -1.5838 P   0  0  1  0  0  0  0  0  0  0  0  0
  -15.5161  -12.9406    0.7657 C   0  0  0  0  0  0  0  0  0  0  0  0
  -13.4316  -11.7188    0.0227 C   0  0  0  0  0  0  0  0  0  0  0  0
  -14.7462  -11.6650    0.4682 C   0  0  0  0  0  0  0  0  0  0  0  0
  -15.3457  -10.4258    0.6230 C   0  0  0  0  0  0  0  0  0  0  0  0
  -16.6256  -10.3230    1.0561 N   0  0  0  0  0  0  0  0  0  0  0  0
  -14.6462   -9.3056    0.3392 N   0  0  0  0  0  0  0  0  0  0  0  0
  -13.3680   -9.3836   -0.0912 C   0  0  0  0  0  0  0  0  0  0  0  0
  -12.7653  -10.5876   -0.2473 N   0  0  0  0  0  0  0  0  0  0  0  0
  -21.1255  -15.3255   -0.3201 O   0  5  0  0  0  0  0  0  0  0  0  0
  -23.4398  -11.8874   -2.4528 O   0  0  0  0  0  0  0  0  0  0  0  0
  -15.3093  -15.3489   -2.3878 S   0  0  0  0  0  0  0  0  0  0  0  0
  -14.7585  -14.5799   -0.9323 C   0  0  0  0  0  0  0  0  0  0  0  0
  -21.6374  -16.6040   -2.4889 O   0  0  0  0  0  0  0  0  0  0  0  0
  -23.0704  -12.7932   -0.2179 O   0  5  0  0  0  0  0  0  0  0  0  0
  -15.7062  -13.7275   -0.4528 N   0  0  0  0  0  0  0  0  0  0  0  0
  -22.4123  -14.1604   -2.1658 O   0  0  0  0  0  0  0  0  0  0  0  0
  -21.0688  -12.1466   -1.5622 O   0  0  0  0  0  0  0  0  0  0  0  0
  -16.8546  -13.6471   -1.1795 C   0  0  1  0  0  0  0  0  0  0  0  0
  -16.8302  -14.5467   -2.3646 C   0  0  1  0  0  0  0  0  0  0  0  0
  -17.7946  -14.8532   -3.4796 C   0  0  0  0  0  0  0  0  0  0  0  0
  -18.9500  -15.6650   -2.9155 C   0  0  0  0  0  0  0  0  0  0  0  0
  -19.9566  -14.7599   -2.4785 O   0  0  0  0  0  0  0  0  0  0  0  0
  1 11  1  0  0  0  0
  3 13  1  1  0  0  0
  3 17  2  0  0  0  0
  3 20  1  0  0  0  0
  3 26  1  0  0  0  0
  4 14  1  6  0  0  0
  4 18  1  0  0  0  0
  4 21  2  0  0  0  0
  4 20  1  0  0  0  0
  5 19  1  0  0  0  0
  5  7  1  0  0  0  0
  6  7  2  0  0  0  0
  6 12  1  0  0  0  0
  7  8  1  0  0  0  0
  8  9  1  0  0  0  0
  8 10  2  0  0  0  0
 10 11  1  0  0  0  0
 11 12  2  0  0  0  0
 15 23  1  0  0  0  0
 15 16  1  0  0  0  0
 16 19  1  0  0  0  0
 19 22  1  0  0  0  0
 22  2  1  1  0  0  0
 22 23  1  0  0  0  0
 23 24  1  6  0  0  0
 24 25  1  0  0  0  0
 25 26  1  0  0  0  0
M  CHG  2  13  -1  18  -1
M  END
>  <CHROM.1>
45.74040092,83.63563496,-64.54884250,165.80127444,109.46974955,89.75455223
-179.45005932,93.32075712,-18.13827836,-13.13134616,-1.19029261,0.43169063
-0.04914889,0.37658669

>  <Name>
ligand

>  <RI>
0

>  <Rbt.Current_Directory>
/home/itssahil/PROJECTS/Mol_Feturizer/New_Systems/rnas/2GDI

>  <Rbt.Executable>
rbdock ($Id: //depot/dev/client3/rdock/2013.1/src/exe/rbdock.cxx#4 $)

>  <Rbt.Library>
libRbt.so (2013.1, Build901 2013/11/27)

>  <Rbt.Parameter_File>
/export/apps/rDock/src/rDock_2013.1_src/data/scripts/dock_solv.prm

>  <Rbt.Receptor>
prm/pocket_docking_4.prm

>  <SCORE>
-16.5685

>  <SCORE.INTER>
-18.3268

>  <SCORE.INTER.CONST>
1

>  <SCORE.INTER.POLAR>
0

>  <SCORE.INTER.ROT>
8

>  <SCORE.INTER.SOLV>
12.0752

>  <SCORE.INTER.VDW>
-25.1763

>  <SCORE.INTER.norm>
-0.704879

>  <SCORE.INTRA>
1.69977

>  <SCORE.INTRA.DIHEDRAL>
0.984248

>  <SCORE.INTRA.DIHEDRAL.0>
8.13976

>  <SCORE.INTRA.POLAR>
0

>  <SCORE.INTRA.POLAR.0>
0

>  <SCORE.INTRA.REPUL>
0

>  <SCORE.INTRA.REPUL.0>
0

>  <SCORE.INTRA.SOLV>
4.48751

>  <SCORE.INTRA.SOLV.lig_0>
-82.9561

>  <SCORE.INTRA.VDW>
-1.03611

>  <SCORE.INTRA.VDW.0>
-3.29171

>  <SCORE.INTRA.norm>
0.0653758

>  <SCORE.RESTR>
0.058569

>  <SCORE.RESTR.CAVITY>
0.058569

>  <SCORE.RESTR.norm>
0.00225265

>  <SCORE.SYSTEM>
0

>  <SCORE.SYSTEM.CONST>
0

>  <SCORE.SYSTEM.DIHEDRAL>
0

>  <SCORE.SYSTEM.SOLV>
0

>  <SCORE.SYSTEM.norm>
0

>  <SCORE.heavy>
26

>  <SCORE.norm>
-0.63725

>  <RMSD>
3.859

$$$$
ligand
 OpenBabel11021811433D
libRbt.so/2013.1/901 2013/11/27
 26 27  0  0  0  0  0  0  0  0999 V2000
  -13.5731  -16.0097    0.5111 C   0  0  0  0  0  0  0  0  0  0  0  0
  -17.1107  -11.3928    2.9443 C   0  0  0  0  0  0  0  0  0  0  0  0
  -23.1448  -12.4078    3.2366 P   0  0  1  0  0  0  0  0  0  0  0  0
  -25.2291  -11.7988    1.3019 P   0  0  1  0  0  0  0  0  0  0  0  0
  -15.5423  -10.6102    0.5420 C   0  0  0  0  0  0  0  0  0  0  0  0
  -15.8802  -13.1073    0.7432 C   0  0  0  0  0  0  0  0  0  0  0  0
  -15.0182  -12.0363    0.5437 C   0  0  0  0  0  0  0  0  0  0  0  0
  -13.6738  -12.2950    0.3329 C   0  0  0  0  0  0  0  0  0  0  0  0
  -12.7948  -11.2829    0.1348 N   0  0  0  0  0  0  0  0  0  0  0  0
  -13.2328  -13.5718    0.3249 N   0  0  0  0  0  0  0  0  0  0  0  0
  -14.0904  -14.5967    0.5230 C   0  0  0  0  0  0  0  0  0  0  0  0
  -15.4089  -14.3620    0.7319 N   0  0  0  0  0  0  0  0  0  0  0  0
  -22.9162  -10.9765    3.6463 O   0  5  0  0  0  0  0  0  0  0  0  0
  -24.3418  -12.1808    0.1572 O   0  0  0  0  0  0  0  0  0  0  0  0
  -19.4336  -10.3246   -0.2084 S   0  0  0  0  0  0  0  0  0  0  0  0
  -17.7345  -10.2267   -0.5497 C   0  0  0  0  0  0  0  0  0  0  0  0
  -22.8805  -13.4698    4.2648 O   0  0  0  0  0  0  0  0  0  0  0  0
  -26.5802  -12.4005    1.1023 O   0  5  0  0  0  0  0  0  0  0  0  0
  -17.0051  -10.5955    0.5397 N   0  0  0  0  0  0  0  0  0  0  0  0
  -24.6415  -12.5266    2.6261 O   0  0  0  0  0  0  0  0  0  0  0  0
  -25.2866  -10.3318    1.6305 O   0  0  0  0  0  0  0  0  0  0  0  0
  -17.7218  -10.9539    1.6403 C   0  0  1  0  0  0  0  0  0  0  0  0
  -19.1886  -10.8786    1.4009 C   0  0  1  0  0  0  0  0  0  0  0  0
  -20.4116  -11.1492    2.2365 C   0  0  0  0  0  0  0  0  0  0  0  0
  -20.7706  -12.6217    2.1128 C   0  0  0  0  0  0  0  0  0  0  0  0
  -22.1837  -12.7250    1.9876 O   0  0  0  0  0  0  0  0  0  0  0  0
  1 11  1  0  0  0  0
  3 13  1  1  0  0  0
  3 17  2  0  0  0  0
  3 20  1  0  0  0  0
  3 26  1  0  0  0  0
  4 14  1  6  0  0  0
  4 18  1  0  0  0  0
  4 21  2  0  0  0  0
  4 20  1  0  0  0  0
  5 19  1  0  0  0  0
  5  7  1  0  0  0  0
  6  7  2  0  0  0  0
  6 12  1  0  0  0  0
  7  8  1  0  0  0  0
  8  9  1  0  0  0  0
  8 10  2  0  0  0  0
 10 11  1  0  0  0  0
 11 12  2  0  0  0  0
 15 23  1  0  0  0  0
 15 16  1  0  0  0  0
 16 19  1  0  0  0  0
 19 22  1  0  0  0  0
 22  2  1  6  0  0  0
 22 23  1  0  0  0  0
 23 24  1  1  0  0  0
 24 25  1  0  0  0  0
 25 26  1  0  0  0  0
M  CHG  2  13  -1  18  -1
M  END
>  <CHROM.1>
63.19005920,-108.40741936,-9.64444498,56.30491639,93.70186210,-138.22175729
-70.49487928,60.61184682,-19.74637642,-12.04166144,1.38908927,0.00618965
-0.17166109,2.69524000

>  <Name>
ligand

>  <RI>
0

>  <Rbt.Current_Directory>
/home/itssahil/PROJECTS/Mol_Feturizer/New_Systems/rnas/2GDI

>  <Rbt.Executable>
rbdock ($Id: //depot/dev/client3/rdock/2013.1/src/exe/rbdock.cxx#4 $)

>  <Rbt.Library>
libRbt.so (2013.1, Build901 2013/11/27)

>  <Rbt.Parameter_File>
/export/apps/rDock/src/rDock_2013.1_src/data/scripts/dock_solv.prm

>  <Rbt.Receptor>
prm/blind_docking_40.prm

>  <SCORE>
-13.6006

>  <SCORE.INTER>
-15.7719

>  <SCORE.INTER.CONST>
1

>  <SCORE.INTER.POLAR>
0

>  <SCORE.INTER.ROT>
8

>  <SCORE.INTER.SOLV>
31.8029

>  <SCORE.INTER.VDW>
-30.0489

>  <SCORE.INTER.norm>
-0.60661

>  <SCORE.INTRA>
2.14842

>  <SCORE.INTRA.DIHEDRAL>
1.88966

>  <SCORE.INTRA.DIHEDRAL.0>
8.13976

>  <SCORE.INTRA.POLAR>
0

>  <SCORE.INTRA.POLAR.0>
0

>  <SCORE.INTRA.REPUL>
0

>  <SCORE.INTRA.REPUL.0>
0

>  <SCORE.INTRA.SOLV>
0.53409

>  <SCORE.INTRA.SOLV.lig_0>
-82.9561

>  <SCORE.INTRA.VDW>
0.936547

>  <SCORE.INTRA.VDW.0>
-3.29171

>  <SCORE.INTRA.norm>
0.0826316

>  <SCORE.RESTR>
0.0228757

>  <SCORE.RESTR.CAVITY>
0.0228757

>  <SCORE.RESTR.norm>
0.000879833

>  <SCORE.SYSTEM>
0

>  <SCORE.SYSTEM.CONST>
0

>  <SCORE.SYSTEM.DIHEDRAL>
0

>  <SCORE.SYSTEM.SOLV>
0

>  <SCORE.SYSTEM.norm>
0

>  <SCORE.heavy>
26

>  <SCORE.norm>
-0.523099

>  <RMSD>
3.870

$$$$
ligand
 OpenBabel11021811433D
libRbt.so/2013.1/901 2013/11/27
 26 27  0  0  0  0  0  0  0  0999 V2000
  -13.8760  -13.8792    0.2360 C   0  0  0  0  0  0  0  0  0  0  0  0
  -19.4098  -11.4860    2.1492 C   0  0  0  0  0  0  0  0  0  0  0  0
  -20.5502  -16.7096    1.4166 P   0  0  1  0  0  0  0  0  0  0  0  0
  -20.8278  -18.7819    3.4383 P   0  0  1  0  0  0  0  0  0  0  0  0
  -18.5086  -10.5649   -0.5308 C   0  0  0  0  0  0  0  0  0  0  0  0
  -17.2213  -12.7121   -0.8809 C   0  0  0  0  0  0  0  0  0  0  0  0
  -17.2875  -11.4436   -0.3185 C   0  0  0  0  0  0  0  0  0  0  0  0
  -16.2124  -10.9905    0.4284 C   0  0  0  0  0  0  0  0  0  0  0  0
  -16.2316   -9.7607    0.9975 N   0  0  0  0  0  0  0  0  0  0  0  0
  -15.1315  -11.7838    0.5923 N   0  0  0  0  0  0  0  0  0  0  0  0
  -15.0913  -13.0146    0.0367 C   0  0  0  0  0  0  0  0  0  0  0  0
  -16.1346  -13.4746   -0.6963 N   0  0  0  0  0  0  0  0  0  0  0  0
  -19.1384  -16.3680    1.8150 O   0  5  0  0  0  0  0  0  0  0  0  0
  -21.8855  -19.0901    4.4532 O   0  0  0  0  0  0  0  0  0  0  0  0
  -21.9110  -12.5919   -0.8504 S   0  0  0  0  0  0  0  0  0  0  0  0
  -20.5419  -11.6806   -1.4057 C   0  0  0  0  0  0  0  0  0  0  0  0
  -20.7381  -17.5008    0.1543 O   0  0  0  0  0  0  0  0  0  0  0  0
  -20.8395  -19.8316    2.3776 O   0  5  0  0  0  0  0  0  0  0  0  0
  -19.7391  -11.3375   -0.3605 N   0  0  0  0  0  0  0  0  0  0  0  0
  -21.2747  -17.4201    2.6804 O   0  0  0  0  0  0  0  0  0  0  0  0
  -19.4501  -18.5168    3.9815 O   0  0  0  0  0  0  0  0  0  0  0  0
  -20.1505  -11.7584    0.8671 C   0  0  1  0  0  0  0  0  0  0  0  0
  -21.4156  -12.5387    0.7954 C   0  0  1  0  0  0  0  0  0  0  0  0
  -22.2961  -13.2208    1.8086 C   0  0  0  0  0  0  0  0  0  0  0  0
  -21.5788  -14.4589    2.3231 C   0  0  0  0  0  0  0  0  0  0  0  0
  -21.3571  -15.3328    1.2229 O   0  0  0  0  0  0  0  0  0  0  0  0
  1 11  1  0  0  0  0
  3 13  1  1  0  0  0
  3 17  2  0  0  0  0
  3 20  1  0  0  0  0
  3 26  1  0  0  0  0
  4 14  1  1  0  0  0
  4 18  1  0  0  0  0
  4 21  2  0  0  0  0
  4 20  1  0  0  0  0
  5 19  1  0  0  0  0
  5  7  1  0  0  0  0
  6  7  2  0  0  0  0
  6 12  1  0  0  0  0
  7  8  1  0  0  0  0
  8  9  1  0  0  0  0
  8 10  2  0  0  0  0
 10 11  1  0  0  0  0
 11 12  2  0  0  0  0
 15 23  1  0  0  0  0
 15 16  1  0  0  0  0
 16 19  1  0  0  0  0
 19 22  1  0  0  0  0
 22  2  1  6  0  0  0
 22 23  1  0  0  0  0
 23 24  1  1  0  0  0
 24 25  1  0  0  0  0
 25 26  1  0  0  0  0
M  CHG  2  13  -1  18  -1
M  END
>  <CHROM.1>
-59.54158803,-108.06481245,44.30675935,-174.79531183,109.93903081,-61.21657731
176.97085262,-64.23813931,-19.49197258,-14.50207834,1.14323007,-1.10551422
0.00359894,2.73283417

>  <Name>
ligand

>  <RI>
0

>  <Rbt.Current_Directory>
/home/itssahil/PROJECTS/Mol_Feturizer/New_Systems/rnas/2GDI

>  <Rbt.Executable>
rbdock ($Id: //depot/dev/client3/rdock/2013.1/src/exe/rbdock.cxx#4 $)

>  <Rbt.Library>
libRbt.so (2013.1, Build901 2013/11/27)

>  <Rbt.Parameter_File>
/export/apps/rDock/src/rDock_2013.1_src/data/scripts/dock_solv.prm

>  <Rbt.Receptor>
prm/pocket_docking_4.prm

>  <SCORE>
-10.7577

>  <SCORE.INTER>
-9.73308

>  <SCORE.INTER.CONST>
1

>  <SCORE.INTER.POLAR>
0

>  <SCORE.INTER.ROT>
8

>  <SCORE.INTER.SOLV>
20.3596

>  <SCORE.INTER.VDW>
-22.2086

>  <SCORE.INTER.norm>
-0.374349

>  <SCORE.INTRA>
-1.02464

>  <SCORE.INTRA.DIHEDRAL>
-3.246

>  <SCORE.INTRA.DIHEDRAL.0>
8.13976

>  <SCORE.INTRA.POLAR>
0

>  <SCORE.INTRA.POLAR.0>
0

>  <SCORE.INTRA.REPUL>
0

>  <SCORE.INTRA.REPUL.0>
0

>  <SCORE.INTRA.SOLV>
2.66853

>  <SCORE.INTRA.SOLV.lig_0>
-82.9561

>  <SCORE.INTRA.VDW>
-0.735902

>  <SCORE.INTRA.VDW.0>
-3.29171

>  <SCORE.INTRA.norm>
-0.0394091

>  <SCORE.RESTR>
0

>  <SCORE.RESTR.CAVITY>
0

>  <SCORE.RESTR.norm>
0

>  <SCORE.SYSTEM>
0

>  <SCORE.SYSTEM.CONST>
0

>  <SCORE.SYSTEM.DIHEDRAL>
0

>  <SCORE.SYSTEM.SOLV>
0

>  <SCORE.SYSTEM.norm>
0

>  <SCORE.heavy>
26

>  <SCORE.norm>
-0.413758

>  <RMSD>
3.871

$$$$
ligand
 OpenBabel11021811433D
libRbt.so/2013.1/901 2013/11/27
 26 27  0  0  0  0  0  0  0  0999 V2000
  -13.1515   -9.1578    0.1415 C   0  0  0  0  0  0  0  0  0  0  0  0
  -17.3229  -15.4779    1.2911 C   0  0  0  0  0  0  0  0  0  0  0  0
  -22.5804  -14.1563   -1.4059 P   0  0  1  0  0  0  0  0  0  0  0  0
  -22.0115  -13.1208    1.2517 P   0  0  1  0  0  0  0  0  0  0  0  0
  -14.5704  -14.7182    0.4607 C   0  0  0  0  0  0  0  0  0  0  0  0
  -12.8721  -12.8613    0.2200 C   0  0  0  0  0  0  0  0  0  0  0  0
  -14.1960  -13.2476    0.3868 C   0  0  0  0  0  0  0  0  0  0  0  0
  -15.1696  -12.2657    0.4709 C   0  0  0  0  0  0  0  0  0  0  0  0
  -16.4741  -12.5939    0.6350 N   0  0  0  0  0  0  0  0  0  0  0  0
  -14.8149  -10.9650    0.3889 N   0  0  0  0  0  0  0  0  0  0  0  0
  -13.5202  -10.6141    0.2283 C   0  0  0  0  0  0  0  0  0  0  0  0
  -12.5543  -11.5614    0.1451 N   0  0  0  0  0  0  0  0  0  0  0  0
  -23.8258  -14.8005   -0.8559 O   0  5  0  0  0  0  0  0  0  0  0  0
  -21.4649  -11.8194    1.7529 O   0  0  0  0  0  0  0  0  0  0  0  0
  -16.8153  -15.4453   -2.7360 S   0  0  0  0  0  0  0  0  0  0  0  0
  -15.3781  -15.0119   -1.8644 C   0  0  0  0  0  0  0  0  0  0  0  0
  -22.6377  -13.6346   -2.8128 O   0  0  0  0  0  0  0  0  0  0  0  0
  -23.4261  -13.2696    1.7033 O   0  5  0  0  0  0  0  0  0  0  0  0
  -15.6055  -15.0396   -0.5219 N   0  0  0  0  0  0  0  0  0  0  0  0
  -22.1001  -13.0119   -0.3635 O   0  0  0  0  0  0  0  0  0  0  0  0
  -21.1770  -14.3398    1.5362 O   0  0  0  0  0  0  0  0  0  0  0  0
  -16.8652  -15.3872   -0.1402 C   0  0  1  0  0  0  0  0  0  0  0  0
  -17.7401  -15.6860   -1.3063 C   0  0  1  0  0  0  0  0  0  0  0  0
  -19.1772  -16.1039   -1.4704 C   0  0  0  0  0  0  0  0  0  0  0  0
  -20.0431  -14.8559   -1.5399 C   0  0  0  0  0  0  0  0  0  0  0  0
  -21.3996  -15.2464   -1.3654 O   0  0  0  0  0  0  0  0  0  0  0  0
  1 11  1  0  0  0  0
  3 13  1  1  0  0  0
  3 17  2  0  0  0  0
  3 20  1  0  0  0  0
  3 26  1  0  0  0  0
  4 14  1  1  0  0  0
  4 18  1  0  0  0  0
  4 21  2  0  0  0  0
  4 20  1  0  0  0  0
  5 19  1  0  0  0  0
  5  7  1  0  0  0  0
  6  7  2  0  0  0  0
  6 12  1  0  0  0  0
  7  8  1  0  0  0  0
  8  9  1  0  0  0  0
  8 10  2  0  0  0  0
 10 11  1  0  0  0  0
 11 12  2  0  0  0  0
 15 23  1  0  0  0  0
 15 16  1  0  0  0  0
 16 19  1  0  0  0  0
 19 22  1  0  0  0  0
 22  2  1  1  0  0  0
 22 23  1  0  0  0  0
 23 24  1  6  0  0  0
 24 25  1  0  0  0  0
 25 26  1  0  0  0  0
M  CHG  2  13  -1  18  -1
M  END
>  <CHROM.1>
44.45740690,67.60613822,-126.10581117,177.96227465,-90.36253942,-165.98282111
-179.19866921,-165.99321939,-18.48653002,-13.70822435,-0.30654488,0.16029574
0.07888125,0.63245034

>  <Name>
ligand

>  <RI>
0

>  <Rbt.Current_Directory>
/home/itssahil/PROJECTS/Mol_Feturizer/New_Systems/rnas/2GDI

>  <Rbt.Executable>
rbdock ($Id: //depot/dev/client3/rdock/2013.1/src/exe/rbdock.cxx#4 $)

>  <Rbt.Library>
libRbt.so (2013.1, Build901 2013/11/27)

>  <Rbt.Parameter_File>
/export/apps/rDock/src/rDock_2013.1_src/data/scripts/dock_solv.prm

>  <Rbt.Receptor>
prm/pocket_docking_4.prm

>  <SCORE>
-14.1836

>  <SCORE.INTER>
-15.4053

>  <SCORE.INTER.CONST>
1

>  <SCORE.INTER.POLAR>
0

>  <SCORE.INTER.ROT>
8

>  <SCORE.INTER.SOLV>
7.82136

>  <SCORE.INTER.VDW>
-21.8106

>  <SCORE.INTER.norm>
-0.59251

>  <SCORE.INTRA>
1.19978

>  <SCORE.INTRA.DIHEDRAL>
-2.22852

>  <SCORE.INTRA.DIHEDRAL.0>
8.13976

>  <SCORE.INTRA.POLAR>
0

>  <SCORE.INTRA.POLAR.0>
0

>  <SCORE.INTRA.REPUL>
0

>  <SCORE.INTRA.REPUL.0>
0

>  <SCORE.INTRA.SOLV>
6.42125

>  <SCORE.INTRA.SOLV.lig_0>
-82.9561

>  <SCORE.INTRA.VDW>
-0.896587

>  <SCORE.INTRA.VDW.0>
-3.29171

>  <SCORE.INTRA.norm>
0.0461452

>  <SCORE.RESTR>
0.0218754

>  <SCORE.RESTR.CAVITY>
0.0218754

>  <SCORE.RESTR.norm>
0.000841363

>  <SCORE.SYSTEM>
0

>  <SCORE.SYSTEM.CONST>
0

>  <SCORE.SYSTEM.DIHEDRAL>
0

>  <SCORE.SYSTEM.SOLV>
0

>  <SCORE.SYSTEM.norm>
0

>  <SCORE.heavy>
26

>  <SCORE.norm>
-0.545523

>  <RMSD>
3.886

$$$$
ligand
 OpenBabel11021811433D
libRbt.so/2013.1/901 2013/11/27
 26 27  0  0  0  0  0  0  0  0999 V2000
  -13.7418  -13.7787    0.1717 C   0  0  0  0  0  0  0  0  0  0  0  0
  -20.9428  -12.3019   -1.1798 C   0  0  0  0  0  0  0  0  0  0  0  0
  -22.4629  -16.2095    3.9065 P   0  0  1  0  0  0  0  0  0  0  0  0
  -20.4385  -18.2924    4.0542 P   0  0  1  0  0  0  0  0  0  0  0  0
  -18.6190  -10.7555   -0.1545 C   0  0  0  0  0  0  0  0  0  0  0  0
  -17.2622  -12.8487   -0.5643 C   0  0  0  0  0  0  0  0  0  0  0  0
  -17.3318  -11.5569   -0.0581 C   0  0  0  0  0  0  0  0  0  0  0  0
  -16.2005  -11.0090    0.5240 C   0  0  0  0  0  0  0  0  0  0  0  0
  -16.2204   -9.7531    1.0326 N   0  0  0  0  0  0  0  0  0  0  0  0
  -15.0632  -11.7352    0.5861 N   0  0  0  0  0  0  0  0  0  0  0  0
  -15.0207  -12.9903    0.0882 C   0  0  0  0  0  0  0  0  0  0  0  0
  -16.1184  -13.5427   -0.4839 N   0  0  0  0  0  0  0  0  0  0  0  0
  -23.4291  -17.0855    3.1530 O   0  5  0  0  0  0  0  0  0  0  0  0
  -21.1265  -18.7140    5.3161 O   0  0  0  0  0  0  0  0  0  0  0  0
  -20.9425  -11.8983    2.8592 S   0  0  0  0  0  0  0  0  0  0  0  0
  -19.5845  -11.1311    2.0975 C   0  0  0  0  0  0  0  0  0  0  0  0
  -22.7543  -15.9498    5.3564 O   0  0  0  0  0  0  0  0  0  0  0  0
  -20.9070  -19.1492    2.9257 O   0  5  0  0  0  0  0  0  0  0  0  0
  -19.6358  -11.2976    0.7468 N   0  0  0  0  0  0  0  0  0  0  0  0
  -20.9699  -16.8035    3.6942 O   0  0  0  0  0  0  0  0  0  0  0  0
  -18.9393  -18.1879    4.1239 O   0  0  0  0  0  0  0  0  0  0  0  0
  -20.6991  -12.0055    0.2760 C   0  0  1  0  0  0  0  0  0  0  0  0
  -21.6089  -12.4414    1.3699 C   0  0  1  0  0  0  0  0  0  0  0  0
  -22.8918  -13.2275    1.4281 C   0  0  0  0  0  0  0  0  0  0  0  0
  -22.5631  -14.6727    1.7678 C   0  0  0  0  0  0  0  0  0  0  0  0
  -22.4235  -14.7762    3.1795 O   0  0  0  0  0  0  0  0  0  0  0  0
  1 11  1  0  0  0  0
  3 13  1  6  0  0  0
  3 17  2  0  0  0  0
  3 20  1  0  0  0  0
  3 26  1  0  0  0  0
  4 14  1  1  0  0  0
  4 18  1  0  0  0  0
  4 21  2  0  0  0  0
  4 20  1  0  0  0  0
  5 19  1  0  0  0  0
  5  7  1  0  0  0  0
  6  7  2  0  0  0  0
  6 12  1  0  0  0  0
  7  8  1  0  0  0  0
  8  9  1  0  0  0  0
  8 10  2  0  0  0  0
 10 11  1  0  0  0  0
 11 12  2  0  0  0  0
 15 23  1  0  0  0  0
 15 16  1  0  0  0  0
 16 19  1  0  0  0  0
 19 22  1  0  0  0  0
 22  2  1  6  0  0  0
 22 23  1  0  0  0  0
 23 24  1  1  0  0  0
 24 25  1  0  0  0  0
 25 26  1  0  0  0  0
M  CHG  2  13  -1  18  -1
M  END
>  <CHROM.1>
-57.64812816,73.65750957,70.69553630,-36.36261270,-81.44151138,83.15133412
163.67169855,-34.40011803,-19.84914327,-14.27989779,2.10614297,-0.93126976
-0.22731043,2.71802418

>  <Name>
ligand

>  <RI>
0

>  <Rbt.Current_Directory>
/home/itssahil/PROJECTS/Mol_Feturizer/New_Systems/rnas/2GDI

>  <Rbt.Executable>
rbdock ($Id: //depot/dev/client3/rdock/2013.1/src/exe/rbdock.cxx#4 $)

>  <Rbt.Library>
libRbt.so (2013.1, Build901 2013/11/27)

>  <Rbt.Parameter_File>
/export/apps/rDock/src/rDock_2013.1_src/data/scripts/dock_solv.prm

>  <Rbt.Receptor>
prm/pocket_docking_6.prm

>  <SCORE>
-12.822

>  <SCORE.INTER>
-13.0636

>  <SCORE.INTER.CONST>
1

>  <SCORE.INTER.POLAR>
0

>  <SCORE.INTER.ROT>
8

>  <SCORE.INTER.SOLV>
21.1293

>  <SCORE.INTER.VDW>
-24.6855

>  <SCORE.INTER.norm>
-0.502446

>  <SCORE.INTRA>
0.241613

>  <SCORE.INTRA.DIHEDRAL>
1.29156

>  <SCORE.INTRA.DIHEDRAL.0>
8.13976

>  <SCORE.INTRA.POLAR>
0

>  <SCORE.INTRA.POLAR.0>
0

>  <SCORE.INTRA.REPUL>
0

>  <SCORE.INTRA.REPUL.0>
0

>  <SCORE.INTRA.SOLV>
0.150985

>  <SCORE.INTRA.SOLV.lig_0>
-82.9561

>  <SCORE.INTRA.VDW>
-0.479659

>  <SCORE.INTRA.VDW.0>
-3.29171

>  <SCORE.INTRA.norm>
0.0092928

>  <SCORE.RESTR>
0

>  <SCORE.RESTR.CAVITY>
0

>  <SCORE.RESTR.norm>
0

>  <SCORE.SYSTEM>
0

>  <SCORE.SYSTEM.CONST>
0

>  <SCORE.SYSTEM.DIHEDRAL>
0

>  <SCORE.SYSTEM.SOLV>
0

>  <SCORE.SYSTEM.norm>
0

>  <SCORE.heavy>
26

>  <SCORE.norm>
-0.493153

>  <RMSD>
3.889

$$$$
ligand
 OpenBabel11021811433D
libRbt.so/2013.1/901 2013/11/27
 26 27  0  0  0  0  0  0  0  0999 V2000
  -14.4817  -15.3380    1.0893 C   0  0  0  0  0  0  0  0  0  0  0  0
  -21.1928  -12.4116   -1.0034 C   0  0  0  0  0  0  0  0  0  0  0  0
  -22.9765  -16.0252    3.5321 P   0  0  1  0  0  0  0  0  0  0  0  0
  -20.6118  -17.2290    2.3413 P   0  0  1  0  0  0  0  0  0  0  0  0
  -18.5949  -11.4526    0.0802 C   0  0  0  0  0  0  0  0  0  0  0  0
  -17.7513  -13.8339    0.1688 C   0  0  0  0  0  0  0  0  0  0  0  0
  -17.5095  -12.4790    0.3573 C   0  0  0  0  0  0  0  0  0  0  0  0
  -16.2551  -12.0813    0.7899 C   0  0  0  0  0  0  0  0  0  0  0  0
  -15.9725  -10.7710    0.9889 N   0  0  0  0  0  0  0  0  0  0  0  0
  -15.3013  -13.0106    1.0166 N   0  0  0  0  0  0  0  0  0  0  0  0
  -15.5611  -14.3229    0.8278 C   0  0  0  0  0  0  0  0  0  0  0  0
  -16.7832  -14.7301    0.4059 N   0  0  0  0  0  0  0  0  0  0  0  0
  -24.4254  -16.4251    3.6273 O   0  5  0  0  0  0  0  0  0  0  0  0
  -19.7910  -17.2859    3.5929 O   0  0  0  0  0  0  0  0  0  0  0  0
  -21.2520  -11.8179    3.0116 S   0  0  0  0  0  0  0  0  0  0  0  0
  -19.7138  -11.4581    2.2921 C   0  0  0  0  0  0  0  0  0  0  0  0
  -22.2939  -15.5999    4.8002 O   0  0  0  0  0  0  0  0  0  0  0  0
  -20.4411  -18.5011    1.5799 O   0  5  0  0  0  0  0  0  0  0  0  0
  -19.7516  -11.6741    0.9480 N   0  0  0  0  0  0  0  0  0  0  0  0
  -22.1695  -17.2196    2.7911 O   0  0  0  0  0  0  0  0  0  0  0  0
  -20.4240  -16.0067    1.4847 O   0  0  0  0  0  0  0  0  0  0  0  0
  -20.9403  -12.1132    0.4505 C   0  0  1  0  0  0  0  0  0  0  0  0
  -21.9743  -12.2495    1.5120 C   0  0  1  0  0  0  0  0  0  0  0  0
  -23.4163  -12.6821    1.5341 C   0  0  0  0  0  0  0  0  0  0  0  0
  -23.6307  -13.6034    2.7247 C   0  0  0  0  0  0  0  0  0  0  0  0
  -22.8704  -14.7867    2.5128 O   0  0  0  0  0  0  0  0  0  0  0  0
  1 11  1  0  0  0  0
  3 13  1  1  0  0  0
  3 17  2  0  0  0  0
  3 20  1  0  0  0  0
  3 26  1  0  0  0  0
  4 14  1  1  0  0  0
  4 18  1  0  0  0  0
  4 21  2  0  0  0  0
  4 20  1  0  0  0  0
  5 19  1  0  0  0  0
  5  7  1  0  0  0  0
  6  7  2  0  0  0  0
  6 12  1  0  0  0  0
  7  8  1  0  0  0  0
  8  9  1  0  0  0  0
  8 10  2  0  0  0  0
 10 11  1  0  0  0  0
 11 12  2  0  0  0  0
 15 23  1  0  0  0  0
 15 16  1  0  0  0  0
 16 19  1  0  0  0  0
 19 22  1  0  0  0  0
 22  2  1  6  0  0  0
 22 23  1  0  0  0  0
 23 24  1  1  0  0  0
 24 25  1  0  0  0  0
 25 26  1  0  0  0  0
M  CHG  2  13  -1  18  -1
M  END
>  <CHROM.1>
174.70105442,68.86670957,61.36631241,69.84839101,-42.50254283,-65.35598448
-174.69783226,55.73653654,-20.16645410,-14.28534930,1.89057270,-0.53254567
-0.26548496,2.91252441

>  <Name>
ligand

>  <RI>
0

>  <Rbt.Current_Directory>
/home/itssahil/PROJECTS/Mol_Feturizer/New_Systems/rnas/2GDI

>  <Rbt.Executable>
rbdock ($Id: //depot/dev/client3/rdock/2013.1/src/exe/rbdock.cxx#4 $)

>  <Rbt.Library>
libRbt.so (2013.1, Build901 2013/11/27)

>  <Rbt.Parameter_File>
/export/apps/rDock/src/rDock_2013.1_src/data/scripts/dock_solv.prm

>  <Rbt.Receptor>
prm/pocket_docking_4.prm

>  <SCORE>
-9.52821

>  <SCORE.INTER>
-8.3401

>  <SCORE.INTER.CONST>
1

>  <SCORE.INTER.POLAR>
0

>  <SCORE.INTER.ROT>
8

>  <SCORE.INTER.SOLV>
12.779

>  <SCORE.INTER.VDW>
-18.7531

>  <SCORE.INTER.norm>
-0.320773

>  <SCORE.INTRA>
-1.18811

>  <SCORE.INTRA.DIHEDRAL>
-2.54806

>  <SCORE.INTRA.DIHEDRAL.0>
8.13976

>  <SCORE.INTRA.POLAR>
0

>  <SCORE.INTRA.POLAR.0>
0

>  <SCORE.INTRA.REPUL>
0

>  <SCORE.INTRA.REPUL.0>
0

>  <SCORE.INTRA.SOLV>
0.434299

>  <SCORE.INTRA.SOLV.lig_0>
-82.9561

>  <SCORE.INTRA.VDW>
-0.131228

>  <SCORE.INTRA.VDW.0>
-3.29171

>  <SCORE.INTRA.norm>
-0.0456965

>  <SCORE.RESTR>
0

>  <SCORE.RESTR.CAVITY>
0

>  <SCORE.RESTR.norm>
0

>  <SCORE.SYSTEM>
0

>  <SCORE.SYSTEM.CONST>
0

>  <SCORE.SYSTEM.DIHEDRAL>
0

>  <SCORE.SYSTEM.SOLV>
0

>  <SCORE.SYSTEM.norm>
0

>  <SCORE.heavy>
26

>  <SCORE.norm>
-0.36647

>  <RMSD>
3.920

$$$$
ligand
 OpenBabel11021811433D
libRbt.so/2013.1/901 2013/11/27
 26 27  0  0  0  0  0  0  0  0999 V2000
  -14.4098  -14.8563    0.9793 C   0  0  0  0  0  0  0  0  0  0  0  0
  -21.3048  -13.0899   -0.6976 C   0  0  0  0  0  0  0  0  0  0  0  0
  -24.6385  -15.9836    4.5206 P   0  0  1  0  0  0  0  0  0  0  0  0
  -23.7068  -18.2136    2.9027 P   0  0  1  0  0  0  0  0  0  0  0  0
  -18.9294  -11.4430    0.0013 C   0  0  0  0  0  0  0  0  0  0  0  0
  -16.9863  -12.2168    1.4211 C   0  0  0  0  0  0  0  0  0  0  0  0
  -17.7288  -12.3393    0.2535 C   0  0  0  0  0  0  0  0  0  0  0  0
  -17.3611  -13.3039   -0.6702 C   0  0  0  0  0  0  0  0  0  0  0  0
  -18.0542  -13.4601   -1.8242 N   0  0  0  0  0  0  0  0  0  0  0  0
  -16.2983  -14.0987   -0.4184 N   0  0  0  0  0  0  0  0  0  0  0  0
  -15.5907  -13.9593    0.7239 C   0  0  0  0  0  0  0  0  0  0  0  0
  -15.9356  -13.0200    1.6383 N   0  0  0  0  0  0  0  0  0  0  0  0
  -26.0418  -16.5248    4.4417 O   0  5  0  0  0  0  0  0  0  0  0  0
  -22.6178  -19.2260    3.0832 O   0  0  0  0  0  0  0  0  0  0  0  0
  -21.3651  -11.7321    3.1272 S   0  0  0  0  0  0  0  0  0  0  0  0
  -19.9565  -11.2277    2.2471 C   0  0  0  0  0  0  0  0  0  0  0  0
  -24.2391  -15.2852    5.7885 O   0  0  0  0  0  0  0  0  0  0  0  0
  -25.0327  -18.8807    3.0574 O   0  5  0  0  0  0  0  0  0  0  0  0
  -19.9891  -11.7102    0.9739 N   0  0  0  0  0  0  0  0  0  0  0  0
  -23.6123  -17.1821    4.1500 O   0  0  0  0  0  0  0  0  0  0  0  0
  -23.6209  -17.3671    1.6620 O   0  0  0  0  0  0  0  0  0  0  0  0
  -21.0760  -12.4644    0.6525 C   0  0  1  0  0  0  0  0  0  0  0  0
  -22.0274  -12.5870    1.7902 C   0  0  1  0  0  0  0  0  0  0  0  0
  -23.3478  -13.2812    1.9943 C   0  0  0  0  0  0  0  0  0  0  0  0
  -23.1717  -14.3643    3.0469 C   0  0  0  0  0  0  0  0  0  0  0  0
  -24.4498  -14.9210    3.3291 O   0  0  0  0  0  0  0  0  0  0  0  0
  1 11  1  0  0  0  0
  3 13  1  1  0  0  0
  3 17  2  0  0  0  0
  3 20  1  0  0  0  0
  3 26  1  0  0  0  0
  4 14  1  1  0  0  0
  4 18  1  0  0  0  0
  4 21  2  0  0  0  0
  4 20  1  0  0  0  0
  5 19  1  0  0  0  0
  5  7  1  0  0  0  0
  6  7  2  0  0  0  0
  6 12  1  0  0  0  0
  7  8  1  0  0  0  0
  8  9  1  0  0  0  0
  8 10  2  0  0  0  0
 10 11  1  0  0  0  0
 11 12  2  0  0  0  0
 15 23  1  0  0  0  0
 15 16  1  0  0  0  0
 16 19  1  0  0  0  0
 19 22  1  0  0  0  0
 22  2  1  6  0  0  0
 22 23  1  0  0  0  0
 23 24  1  1  0  0  0
 24 25  1  0  0  0  0
 25 26  1  0  0  0  0
M  CHG  2  13  -1  18  -1
M  END
>  <CHROM.1>
47.02128796,78.55290944,-65.29525087,-173.62050005,-63.36094714,174.21213839
-173.18657371,-172.16286062,-21.29227978,-14.59502083,2.14125628,-0.48634757
-0.43128798,3.12257790

>  <Name>
ligand

>  <RI>
0

>  <Rbt.Current_Directory>
/home/itssahil/PROJECTS/Mol_Feturizer/New_Systems/rnas/2GDI

>  <Rbt.Executable>
rbdock ($Id: //depot/dev/client3/rdock/2013.1/src/exe/rbdock.cxx#4 $)

>  <Rbt.Library>
libRbt.so (2013.1, Build901 2013/11/27)

>  <Rbt.Parameter_File>
/export/apps/rDock/src/rDock_2013.1_src/data/scripts/dock_solv.prm

>  <Rbt.Receptor>
prm/pocket_docking_7.prm

>  <SCORE>
-6.95392

>  <SCORE.INTER>
-7.22853

>  <SCORE.INTER.CONST>
1

>  <SCORE.INTER.POLAR>
0

>  <SCORE.INTER.ROT>
8

>  <SCORE.INTER.SOLV>
15.6388

>  <SCORE.INTER.VDW>
-18.9653

>  <SCORE.INTER.norm>
-0.27802

>  <SCORE.INTRA>
0.27461

>  <SCORE.INTRA.DIHEDRAL>
-2.46738

>  <SCORE.INTRA.DIHEDRAL.0>
8.13976

>  <SCORE.INTRA.POLAR>
0

>  <SCORE.INTRA.POLAR.0>
0

>  <SCORE.INTRA.REPUL>
0

>  <SCORE.INTRA.REPUL.0>
0

>  <SCORE.INTRA.SOLV>
3.72951

>  <SCORE.INTRA.SOLV.lig_0>
-82.9561

>  <SCORE.INTRA.VDW>
-0.356454

>  <SCORE.INTRA.VDW.0>
-3.29171

>  <SCORE.INTRA.norm>
0.0105619

>  <SCORE.RESTR>
0

>  <SCORE.RESTR.CAVITY>
0

>  <SCORE.RESTR.norm>
0

>  <SCORE.SYSTEM>
0

>  <SCORE.SYSTEM.CONST>
0

>  <SCORE.SYSTEM.DIHEDRAL>
0

>  <SCORE.SYSTEM.SOLV>
0

>  <SCORE.SYSTEM.norm>
0

>  <SCORE.heavy>
26

>  <SCORE.norm>
-0.267458

>  <RMSD>
3.945

$$$$
ligand
 OpenBabel11021811433D
libRbt.so/2013.1/901 2013/11/27
 26 27  0  0  0  0  0  0  0  0999 V2000
  -14.3824  -15.2704    1.1132 C   0  0  0  0  0  0  0  0  0  0  0  0
  -20.8389  -12.7301   -1.0073 C   0  0  0  0  0  0  0  0  0  0  0  0
  -22.8738  -15.7431    4.1762 P   0  0  1  0  0  0  0  0  0  0  0  0
  -20.9426  -17.6129    3.0658 P   0  0  1  0  0  0  0  0  0  0  0  0
  -18.4743  -11.3501    0.1536 C   0  0  0  0  0  0  0  0  0  0  0  0
  -17.6763  -13.7424    0.3286 C   0  0  0  0  0  0  0  0  0  0  0  0
  -17.3939  -12.3851    0.4177 C   0  0  0  0  0  0  0  0  0  0  0  0
  -16.1043  -11.9940    0.7387 C   0  0  0  0  0  0  0  0  0  0  0  0
  -15.7815  -10.6816    0.8383 N   0  0  0  0  0  0  0  0  0  0  0  0
  -15.1567  -12.9317    0.9557 N   0  0  0  0  0  0  0  0  0  0  0  0
  -15.4562  -14.2459    0.8649 C   0  0  0  0  0  0  0  0  0  0  0  0
  -16.7128  -14.6468    0.5529 N   0  0  0  0  0  0  0  0  0  0  0  0
  -24.0187  -16.6636    3.8443 O   0  5  0  0  0  0  0  0  0  0  0  0
  -22.1067  -18.3947    2.5393 O   0  0  0  0  0  0  0  0  0  0  0  0
  -21.3107  -11.7598    2.9058 S   0  0  0  0  0  0  0  0  0  0  0  0
  -19.7699  -11.2808    2.2659 C   0  0  0  0  0  0  0  0  0  0  0  0
  -23.0128  -14.8831    5.3992 O   0  0  0  0  0  0  0  0  0  0  0  0
  -20.4328  -16.7049    1.9967 O   0  5  0  0  0  0  0  0  0  0  0  0
  -19.6668  -11.6300    0.9535 N   0  0  0  0  0  0  0  0  0  0  0  0
  -21.5127  -16.6222    4.2157 O   0  0  0  0  0  0  0  0  0  0  0  0
  -19.8507  -18.4155    3.7192 O   0  0  0  0  0  0  0  0  0  0  0  0
  -20.7486  -12.2619    0.4207 C   0  0  1  0  0  0  0  0  0  0  0  0
  -21.8462  -12.4232    1.4124 C   0  0  1  0  0  0  0  0  0  0  0  0
  -23.2238  -13.0299    1.3757 C   0  0  0  0  0  0  0  0  0  0  0  0
  -23.5271  -13.6337    2.7379 C   0  0  0  0  0  0  0  0  0  0  0  0
  -22.6630  -14.7465    2.9325 O   0  0  0  0  0  0  0  0  0  0  0  0
  1 11  1  0  0  0  0
  3 13  1  6  0  0  0
  3 17  2  0  0  0  0
  3 20  1  0  0  0  0
  3 26  1  0  0  0  0
  4 14  1  6  0  0  0
  4 18  1  0  0  0  0
  4 21  2  0  0  0  0
  4 20  1  0  0  0  0
  5 19  1  0  0  0  0
  5  7  1  0  0  0  0
  6  7  2  0  0  0  0
  6 12  1  0  0  0  0
  7  8  1  0  0  0  0
  8  9  1  0  0  0  0
  8 10  2  0  0  0  0
 10 11  1  0  0  0  0
 11 12  2  0  0  0  0
 15 23  1  0  0  0  0
 15 16  1  0  0  0  0
 16 19  1  0  0  0  0
 19 22  1  0  0  0  0
 22  2  1  6  0  0  0
 22 23  1  0  0  0  0
 23 24  1  1  0  0  0
 24 25  1  0  0  0  0
 25 26  1  0  0  0  0
M  CHG  2  13  -1  18  -1
M  END
>  <CHROM.1>
53.05379975,80.47939573,51.73347565,-42.57813771,-32.24916473,-67.52179181
-170.71434146,77.90143357,-20.16596330,-14.31407622,2.14446953,-0.62679870
-0.29122538,2.83765957

>  <Name>
ligand

>  <RI>
0

>  <Rbt.Current_Directory>
/home/itssahil/PROJECTS/Mol_Feturizer/New_Systems/rnas/2GDI

>  <Rbt.Executable>
rbdock ($Id: //depot/dev/client3/rdock/2013.1/src/exe/rbdock.cxx#4 $)

>  <Rbt.Library>
libRbt.so (2013.1, Build901 2013/11/27)

>  <Rbt.Parameter_File>
/export/apps/rDock/src/rDock_2013.1_src/data/scripts/dock_solv.prm

>  <Rbt.Receptor>
prm/pocket_docking_4.prm

>  <SCORE>
-9.17983

>  <SCORE.INTER>
-9.06298

>  <SCORE.INTER.CONST>
1

>  <SCORE.INTER.POLAR>
0

>  <SCORE.INTER.ROT>
8

>  <SCORE.INTER.SOLV>
14.976

>  <SCORE.INTER.VDW>
-19.9673

>  <SCORE.INTER.norm>
-0.348576

>  <SCORE.INTRA>
-0.116857

>  <SCORE.INTRA.DIHEDRAL>
-1.86308

>  <SCORE.INTRA.DIHEDRAL.0>
8.13976

>  <SCORE.INTRA.POLAR>
0

>  <SCORE.INTRA.POLAR.0>
0

>  <SCORE.INTRA.REPUL>
0

>  <SCORE.INTRA.REPUL.0>
0

>  <SCORE.INTRA.SOLV>
-0.379415

>  <SCORE.INTRA.SOLV.lig_0>
-82.9561

>  <SCORE.INTRA.VDW>
1.00439

>  <SCORE.INTRA.VDW.0>
-3.29171

>  <SCORE.INTRA.norm>
-0.00449451

>  <SCORE.RESTR>
0

>  <SCORE.RESTR.CAVITY>
0

>  <SCORE.RESTR.norm>
0

>  <SCORE.SYSTEM>
0

>  <SCORE.SYSTEM.CONST>
0

>  <SCORE.SYSTEM.DIHEDRAL>
0

>  <SCORE.SYSTEM.SOLV>
0

>  <SCORE.SYSTEM.norm>
0

>  <SCORE.heavy>
26

>  <SCORE.norm>
-0.353071

>  <RMSD>
3.952

$$$$
ligand
 OpenBabel11021811433D
libRbt.so/2013.1/901 2013/11/27
 26 27  0  0  0  0  0  0  0  0999 V2000
  -13.0398   -8.6054    0.0350 C   0  0  0  0  0  0  0  0  0  0  0  0
  -17.6080  -14.6322    0.7804 C   0  0  0  0  0  0  0  0  0  0  0  0
  -20.9549  -12.8863   -1.0228 P   0  0  1  0  0  0  0  0  0  0  0  0
  -23.5708  -12.6977   -2.2798 P   0  0  1  0  0  0  0  0  0  0  0  0
  -14.6890  -14.0650    0.7465 C   0  0  0  0  0  0  0  0  0  0  0  0
  -12.9351  -12.3123    0.2546 C   0  0  0  0  0  0  0  0  0  0  0  0
  -14.2527  -12.6205    0.5689 C   0  0  0  0  0  0  0  0  0  0  0  0
  -15.1637  -11.5858    0.7038 C   0  0  0  0  0  0  0  0  0  0  0  0
  -16.4594  -11.8372    1.0107 N   0  0  0  0  0  0  0  0  0  0  0  0
  -14.7560  -10.3101    0.5278 N   0  0  0  0  0  0  0  0  0  0  0  0
  -13.4686  -10.0353    0.2242 C   0  0  0  0  0  0  0  0  0  0  0  0
  -12.5634  -11.0352    0.0894 N   0  0  0  0  0  0  0  0  0  0  0  0
  -20.2259  -11.5947   -1.2852 O   0  5  0  0  0  0  0  0  0  0  0  0
  -23.6199  -11.2019   -2.2183 O   0  0  0  0  0  0  0  0  0  0  0  0
  -15.8821  -15.3263   -2.8274 S   0  0  0  0  0  0  0  0  0  0  0  0
  -14.7581  -14.7604   -1.6318 C   0  0  0  0  0  0  0  0  0  0  0  0
  -21.6062  -13.0498    0.3203 O   0  0  0  0  0  0  0  0  0  0  0  0
  -24.0513  -13.1536   -3.6171 O   0  5  0  0  0  0  0  0  0  0  0  0
  -15.3897  -14.5450   -0.4446 N   0  0  0  0  0  0  0  0  0  0  0  0
  -22.0082  -13.1273   -2.2308 O   0  0  0  0  0  0  0  0  0  0  0  0
  -24.2332  -13.4264   -1.1424 O   0  0  0  0  0  0  0  0  0  0  0  0
  -16.7261  -14.8042   -0.4276 C   0  0  1  0  0  0  0  0  0  0  0  0
  -17.2167  -15.2967   -1.7434 C   0  0  1  0  0  0  0  0  0  0  0  0
  -18.5578  -15.7207   -2.2805 C   0  0  0  0  0  0  0  0  0  0  0  0
  -19.4259  -14.4845   -2.4557 C   0  0  0  0  0  0  0  0  0  0  0  0
  -19.9000  -14.0899   -1.1741 O   0  0  0  0  0  0  0  0  0  0  0  0
  1 11  1  0  0  0  0
  3 13  1  6  0  0  0
  3 17  2  0  0  0  0
  3 20  1  0  0  0  0
  3 26  1  0  0  0  0
  4 14  1  1  0  0  0
  4 18  1  0  0  0  0
  4 21  2  0  0  0  0
  4 20  1  0  0  0  0
  5 19  1  0  0  0  0
  5  7  1  0  0  0  0
  6  7  2  0  0  0  0
  6 12  1  0  0  0  0
  7  8  1  0  0  0  0
  8  9  1  0  0  0  0
  8 10  2  0  0  0  0
 10 11  1  0  0  0  0
 11 12  2  0  0  0  0
 15 23  1  0  0  0  0
 15 16  1  0  0  0  0
 16 19  1  0  0  0  0
 19 22  1  0  0  0  0
 22  2  1  1  0  0  0
 22 23  1  0  0  0  0
 23 24  1  6  0  0  0
 24 25  1  0  0  0  0
 25 26  1  0  0  0  0
M  CHG  2  13  -1  18  -1
M  END
>  <CHROM.1>
-93.32272597,69.48744416,-101.63464725,63.53760935,-106.33994687,-76.98165843
-174.57829693,-73.08279956,-18.31962377,-13.04189746,-1.01914843,0.16042438
-0.17353572,0.35175114

>  <Name>
ligand

>  <RI>
0

>  <Rbt.Current_Directory>
/home/itssahil/PROJECTS/Mol_Feturizer/New_Systems/rnas/2GDI

>  <Rbt.Executable>
rbdock ($Id: //depot/dev/client3/rdock/2013.1/src/exe/rbdock.cxx#4 $)

>  <Rbt.Library>
libRbt.so (2013.1, Build901 2013/11/27)

>  <Rbt.Parameter_File>
/export/apps/rDock/src/rDock_2013.1_src/data/scripts/dock_solv.prm

>  <Rbt.Receptor>
prm/pocket_docking_5.prm

>  <SCORE>
-20.8297

>  <SCORE.INTER>
-21.517

>  <SCORE.INTER.CONST>
1

>  <SCORE.INTER.POLAR>
0

>  <SCORE.INTER.ROT>
8

>  <SCORE.INTER.SOLV>
13.731

>  <SCORE.INTER.VDW>
-27.855

>  <SCORE.INTER.norm>
-0.827578

>  <SCORE.INTRA>
0.687339

>  <SCORE.INTRA.DIHEDRAL>
-0.866952

>  <SCORE.INTRA.DIHEDRAL.0>
8.13976

>  <SCORE.INTRA.POLAR>
0

>  <SCORE.INTRA.POLAR.0>
0

>  <SCORE.INTRA.REPUL>
0

>  <SCORE.INTRA.REPUL.0>
0

>  <SCORE.INTRA.SOLV>
3.5081

>  <SCORE.INTRA.SOLV.lig_0>
-82.9561

>  <SCORE.INTRA.VDW>
-0.633235

>  <SCORE.INTRA.VDW.0>
-3.29171

>  <SCORE.INTRA.norm>
0.0264361

>  <SCORE.RESTR>
0

>  <SCORE.RESTR.CAVITY>
0

>  <SCORE.RESTR.norm>
0

>  <SCORE.SYSTEM>
0

>  <SCORE.SYSTEM.CONST>
0

>  <SCORE.SYSTEM.DIHEDRAL>
0

>  <SCORE.SYSTEM.SOLV>
0

>  <SCORE.SYSTEM.norm>
0

>  <SCORE.heavy>
26

>  <SCORE.norm>
-0.801142

>  <RMSD>
3.992

$$$$
ligand
 OpenBabel11021811433D
libRbt.so/2013.1/901 2013/11/27
 26 27  0  0  0  0  0  0  0  0999 V2000
  -14.1595  -15.3841    0.7766 C   0  0  0  0  0  0  0  0  0  0  0  0
  -20.8881  -14.8561    0.0771 C   0  0  0  0  0  0  0  0  0  0  0  0
  -21.1026  -17.9649    2.8509 P   0  0  1  0  0  0  0  0  0  0  0  0
  -23.7161  -19.1396    2.3527 P   0  0  1  0  0  0  0  0  0  0  0  0
  -19.0445  -12.5532   -0.2985 C   0  0  0  0  0  0  0  0  0  0  0  0
  -17.0813  -13.1269    1.1871 C   0  0  0  0  0  0  0  0  0  0  0  0
  -17.7479  -13.2945   -0.0202 C   0  0  0  0  0  0  0  0  0  0  0  0
  -17.2141  -14.1613   -0.9597 C   0  0  0  0  0  0  0  0  0  0  0  0
  -17.8279  -14.3563   -2.1520 N   0  0  0  0  0  0  0  0  0  0  0  0
  -16.0674  -14.8202   -0.6848 N   0  0  0  0  0  0  0  0  0  0  0  0
  -15.4365  -14.6393    0.4960 C   0  0  0  0  0  0  0  0  0  0  0  0
  -15.9439  -13.7943    1.4265 N   0  0  0  0  0  0  0  0  0  0  0  0
  -20.1908  -17.8935    4.0476 O   0  5  0  0  0  0  0  0  0  0  0  0
  -24.7419  -19.7777    3.2381 O   0  0  0  0  0  0  0  0  0  0  0  0
  -21.1683  -12.0812    3.0263 S   0  0  0  0  0  0  0  0  0  0  0  0
  -19.9962  -11.6707    1.8135 C   0  0  0  0  0  0  0  0  0  0  0  0
  -20.5310  -18.5267    1.5811 O   0  0  0  0  0  0  0  0  0  0  0  0
  -24.2420  -17.8385    1.8448 O   0  5  0  0  0  0  0  0  0  0  0  0
  -19.9449  -12.6337    0.8518 N   0  0  0  0  0  0  0  0  0  0  0  0
  -22.4558  -18.7405    3.2914 O   0  0  0  0  0  0  0  0  0  0  0  0
  -23.1558  -20.0087    1.2600 O   0  0  0  0  0  0  0  0  0  0  0  0
  -20.7883  -13.6887    1.0224 C   0  0  1  0  0  0  0  0  0  0  0  0
  -21.6186  -13.5477    2.2493 C   0  0  1  0  0  0  0  0  0  0  0  0
  -22.6809  -14.3861    2.9092 C   0  0  0  0  0  0  0  0  0  0  0  0
  -22.0189  -15.5952    3.5512 C   0  0  0  0  0  0  0  0  0  0  0  0
  -21.5959  -16.4723    2.5144 O   0  0  0  0  0  0  0  0  0  0  0  0
  1 11  1  0  0  0  0
  3 13  1  1  0  0  0
  3 17  2  0  0  0  0
  3 20  1  0  0  0  0
  3 26  1  0  0  0  0
  4 14  1  1  0  0  0
  4 18  1  0  0  0  0
  4 21  2  0  0  0  0
  4 20  1  0  0  0  0
  5 19  1  0  0  0  0
  5  7  1  0  0  0  0
  6  7  2  0  0  0  0
  6 12  1  0  0  0  0
  7  8  1  0  0  0  0
  8  9  1  0  0  0  0
  8 10  2  0  0  0  0
 10 11  1  0  0  0  0
 11 12  2  0  0  0  0
 15 23  1  0  0  0  0
 15 16  1  0  0  0  0
 16 19  1  0  0  0  0
 19 22  1  0  0  0  0
 22  2  1  6  0  0  0
 22 23  1  0  0  0  0
 23 24  1  1  0  0  0
 24 25  1  0  0  0  0
 25 26  1  0  0  0  0
M  CHG  2  13  -1  18  -1
M  END
>  <CHROM.1>
-176.72319500,94.12738482,-45.68529294,-177.12226229,-105.55386108,-71.47192818
-168.69063375,-44.23376150,-20.40828275,-15.69692042,1.68219950,-0.67320191
-0.38495279,-3.12077371

>  <Name>
ligand

>  <RI>
0

>  <Rbt.Current_Directory>
/home/itssahil/PROJECTS/Mol_Feturizer/New_Systems/rnas/2GDI

>  <Rbt.Executable>
rbdock ($Id: //depot/dev/client3/rdock/2013.1/src/exe/rbdock.cxx#4 $)

>  <Rbt.Library>
libRbt.so (2013.1, Build901 2013/11/27)

>  <Rbt.Parameter_File>
/export/apps/rDock/src/rDock_2013.1_src/data/scripts/dock_solv.prm

>  <Rbt.Receptor>
prm/pocket_docking_6.prm

>  <SCORE>
-10.0074

>  <SCORE.INTER>
-9.65493

>  <SCORE.INTER.CONST>
1

>  <SCORE.INTER.POLAR>
0

>  <SCORE.INTER.ROT>
8

>  <SCORE.INTER.SOLV>
13.0614

>  <SCORE.INTER.VDW>
-19.7237

>  <SCORE.INTER.norm>
-0.371343

>  <SCORE.INTRA>
-0.352477

>  <SCORE.INTRA.DIHEDRAL>
-2.05031

>  <SCORE.INTRA.DIHEDRAL.0>
8.13976

>  <SCORE.INTRA.POLAR>
0

>  <SCORE.INTRA.POLAR.0>
0

>  <SCORE.INTRA.REPUL>
0

>  <SCORE.INTRA.REPUL.0>
0

>  <SCORE.INTRA.SOLV>
3.49354

>  <SCORE.INTRA.SOLV.lig_0>
-82.9561

>  <SCORE.INTRA.VDW>
-1.07409

>  <SCORE.INTRA.VDW.0>
-3.29171

>  <SCORE.INTRA.norm>
-0.0135568

>  <SCORE.RESTR>
0

>  <SCORE.RESTR.CAVITY>
0

>  <SCORE.RESTR.norm>
0

>  <SCORE.SYSTEM>
0

>  <SCORE.SYSTEM.CONST>
0

>  <SCORE.SYSTEM.DIHEDRAL>
0

>  <SCORE.SYSTEM.SOLV>
0

>  <SCORE.SYSTEM.norm>
0

>  <SCORE.heavy>
26

>  <SCORE.norm>
-0.3849

>  <RMSD>
4.032

$$$$
ligand
 OpenBabel11021811433D
libRbt.so/2013.1/901 2013/11/27
 26 27  0  0  0  0  0  0  0  0999 V2000
  -12.7762   -7.6241   -0.1073 C   0  0  0  0  0  0  0  0  0  0  0  0
  -17.2578  -11.7379    2.8529 C   0  0  0  0  0  0  0  0  0  0  0  0
  -23.0660  -13.2350    4.3595 P   0  0  1  0  0  0  0  0  0  0  0  0
  -22.8818  -11.6207    6.7717 P   0  0  1  0  0  0  0  0  0  0  0  0
  -15.8150  -12.4800    0.3607 C   0  0  0  0  0  0  0  0  0  0  0  0
  -15.6347   -9.9589    0.3136 C   0  0  0  0  0  0  0  0  0  0  0  0
  -15.0116  -11.1974    0.2265 C   0  0  0  0  0  0  0  0  0  0  0  0
  -13.6412  -11.2398    0.0284 C   0  0  0  0  0  0  0  0  0  0  0  0
  -12.9895  -12.4244   -0.0643 N   0  0  0  0  0  0  0  0  0  0  0  0
  -12.9454  -10.0866   -0.0742 N   0  0  0  0  0  0  0  0  0  0  0  0
  -13.5743   -8.8941    0.0121 C   0  0  0  0  0  0  0  0  0  0  0  0
  -14.9147   -8.8337    0.2048 N   0  0  0  0  0  0  0  0  0  0  0  0
  -22.5394  -14.5913    3.9698 O   0  5  0  0  0  0  0  0  0  0  0  0
  -22.0337  -10.5974    6.0810 O   0  0  0  0  0  0  0  0  0  0  0  0
  -19.6619  -11.8586   -0.4155 S   0  0  0  0  0  0  0  0  0  0  0  0
  -18.0087  -12.2510   -0.7706 C   0  0  0  0  0  0  0  0  0  0  0  0
  -24.5008  -12.9334    4.0355 O   0  0  0  0  0  0  0  0  0  0  0  0
  -24.3187  -11.2369    6.6482 O   0  5  0  0  0  0  0  0  0  0  0  0
  -17.2500  -12.1953    0.3590 N   0  0  0  0  0  0  0  0  0  0  0  0
  -22.7463  -13.0004    5.9310 O   0  0  0  0  0  0  0  0  0  0  0  0
  -22.4878  -11.9594    8.1836 O   0  0  0  0  0  0  0  0  0  0  0  0
  -17.9091  -11.8556    1.5007 C   0  0  1  0  0  0  0  0  0  0  0  0
  -19.3604  -11.6290    1.2619 C   0  0  1  0  0  0  0  0  0  0  0  0
  -20.5275  -11.2430    2.1313 C   0  0  0  0  0  0  0  0  0  0  0  0
  -21.1374  -12.5065    2.7177 C   0  0  0  0  0  0  0  0  0  0  0  0
  -22.1795  -12.1247    3.6073 O   0  0  0  0  0  0  0  0  0  0  0  0
  1 11  1  0  0  0  0
  3 13  1  6  0  0  0
  3 17  2  0  0  0  0
  3 20  1  0  0  0  0
  3 26  1  0  0  0  0
  4 14  1  6  0  0  0
  4 18  1  0  0  0  0
  4 21  2  0  0  0  0
  4 20  1  0  0  0  0
  5 19  1  0  0  0  0
  5  7  1  0  0  0  0
  6  7  2  0  0  0  0
  6 12  1  0  0  0  0
  7  8  1  0  0  0  0
  8  9  1  0  0  0  0
  8 10  2  0  0  0  0
 10 11  1  0  0  0  0
 11 12  2  0  0  0  0
 15 23  1  0  0  0  0
 15 16  1  0  0  0  0
 16 19  1  0  0  0  0
 19 22  1  0  0  0  0
 22  2  1  1  0  0  0
 22 23  1  0  0  0  0
 23 24  1  6  0  0  0
 24 25  1  0  0  0  0
 25 26  1  0  0  0  0
M  CHG  2  13  -1  18  -1
M  END
>  <CHROM.1>
168.99975030,94.71190015,9.22440484,-56.66102219,93.19640707,176.09948469
177.87485041,1.93109967,-19.26297181,-11.63735734,2.62506649,-0.41309555
0.45836166,1.10767300

>  <Name>
ligand

>  <RI>
0

>  <Rbt.Current_Directory>
/home/itssahil/PROJECTS/Mol_Feturizer/New_Systems/rnas/2GDI

>  <Rbt.Executable>
rbdock ($Id: //depot/dev/client3/rdock/2013.1/src/exe/rbdock.cxx#4 $)

>  <Rbt.Library>
libRbt.so (2013.1, Build901 2013/11/27)

>  <Rbt.Parameter_File>
/export/apps/rDock/src/rDock_2013.1_src/data/scripts/dock_solv.prm

>  <Rbt.Receptor>
prm/blind_docking_100.prm

>  <SCORE>
-20.8642

>  <SCORE.INTER>
-20.3159

>  <SCORE.INTER.CONST>
1

>  <SCORE.INTER.POLAR>
0

>  <SCORE.INTER.ROT>
8

>  <SCORE.INTER.SOLV>
23.1142

>  <SCORE.INTER.VDW>
-30.182

>  <SCORE.INTER.norm>
-0.78138

>  <SCORE.INTRA>
-0.548352

>  <SCORE.INTRA.DIHEDRAL>
-0.719544

>  <SCORE.INTRA.DIHEDRAL.0>
8.13976

>  <SCORE.INTRA.POLAR>
0

>  <SCORE.INTRA.POLAR.0>
0

>  <SCORE.INTRA.REPUL>
0

>  <SCORE.INTRA.REPUL.0>
0

>  <SCORE.INTRA.SOLV>
-0.586104

>  <SCORE.INTRA.SOLV.lig_0>
-82.9561

>  <SCORE.INTRA.VDW>
0.104471

>  <SCORE.INTRA.VDW.0>
-3.29171

>  <SCORE.INTRA.norm>
-0.0210905

>  <SCORE.RESTR>
0

>  <SCORE.RESTR.CAVITY>
0

>  <SCORE.RESTR.norm>
0

>  <SCORE.SYSTEM>
0

>  <SCORE.SYSTEM.CONST>
0

>  <SCORE.SYSTEM.DIHEDRAL>
0

>  <SCORE.SYSTEM.SOLV>
0

>  <SCORE.SYSTEM.norm>
0

>  <SCORE.heavy>
26

>  <SCORE.norm>
-0.802471

>  <RMSD>
4.078

$$$$
ligand
 OpenBabel11021811433D
libRbt.so/2013.1/901 2013/11/27
 26 27  0  0  0  0  0  0  0  0999 V2000
  -13.4163  -12.2206    0.1897 C   0  0  0  0  0  0  0  0  0  0  0  0
  -20.9813  -12.2029    2.6491 C   0  0  0  0  0  0  0  0  0  0  0  0
  -20.9284  -16.8434   -0.9136 P   0  0  1  0  0  0  0  0  0  0  0  0
  -18.7228  -15.9783    0.7734 P   0  0  1  0  0  0  0  0  0  0  0  0
  -18.7749  -10.5897    1.4774 C   0  0  0  0  0  0  0  0  0  0  0  0
  -16.7366  -12.0387    1.8458 C   0  0  0  0  0  0  0  0  0  0  0  0
  -17.3546  -11.0125    1.1424 C   0  0  0  0  0  0  0  0  0  0  0  0
  -16.6552  -10.3916    0.1205 C   0  0  0  0  0  0  0  0  0  0  0  0
  -17.2159   -9.3850   -0.5928 N   0  0  0  0  0  0  0  0  0  0  0  0
  -15.3985  -10.7936   -0.1687 N   0  0  0  0  0  0  0  0  0  0  0  0
  -14.8180  -11.7930    0.5309 C   0  0  0  0  0  0  0  0  0  0  0  0
  -15.4872  -12.4111    1.5346 N   0  0  0  0  0  0  0  0  0  0  0  0
  -21.0300  -17.2496   -2.3604 O   0  5  0  0  0  0  0  0  0  0  0  0
  -17.2561  -16.2821    0.7701 O   0  0  0  0  0  0  0  0  0  0  0  0
  -20.9756  -12.2042   -1.4101 S   0  0  0  0  0  0  0  0  0  0  0  0
  -19.6886  -11.2607   -0.7271 C   0  0  0  0  0  0  0  0  0  0  0  0
  -21.6483  -17.6934    0.0934 O   0  0  0  0  0  0  0  0  0  0  0  0
  -18.9249  -14.5146    0.5638 O   0  5  0  0  0  0  0  0  0  0  0  0
  -19.7388  -11.2960    0.6334 N   0  0  0  0  0  0  0  0  0  0  0  0
  -19.3591  -16.6786   -0.5433 O   0  0  0  0  0  0  0  0  0  0  0  0
  -19.5044  -16.5137    1.9420 O   0  0  0  0  0  0  0  0  0  0  0  0
  -20.7484  -12.0341    1.1713 C   0  0  1  0  0  0  0  0  0  0  0  0
  -21.5917  -12.6737    0.1252 C   0  0  1  0  0  0  0  0  0  0  0  0
  -22.8040  -13.5665    0.1442 C   0  0  0  0  0  0  0  0  0  0  0  0
  -22.3474  -15.0047    0.3318 C   0  0  0  0  0  0  0  0  0  0  0  0
  -21.5243  -15.3569   -0.7734 O   0  0  0  0  0  0  0  0  0  0  0  0
  1 11  1  0  0  0  0
  3 13  1  6  0  0  0
  3 17  2  0  0  0  0
  3 20  1  0  0  0  0
  3 26  1  0  0  0  0
  4 14  1  1  0  0  0
  4 18  1  0  0  0  0
  4 21  2  0  0  0  0
  4 20  1  0  0  0  0
  5 19  1  0  0  0  0
  5  7  1  0  0  0  0
  6  7  2  0  0  0  0
  6 12  1  0  0  0  0
  7  8  1  0  0  0  0
  8  9  1  0  0  0  0
  8 10  2  0  0  0  0
 10 11  1  0  0  0  0
 11 12  2  0  0  0  0
 15 23  1  0  0  0  0
 15 16  1  0  0  0  0
 16 19  1  0  0  0  0
 19 22  1  0  0  0  0
 22  2  1  1  0  0  0
 22 23  1  0  0  0  0
 23 24  1  1  0  0  0
 24 25  1  0  0  0  0
 25 26  1  0  0  0  0
M  CHG  2  13  -1  18  -1
M  END
>  <CHROM.1>
166.61196238,-56.14048219,-93.41448264,170.52555675,97.71907410,-61.53172847
-177.24662319,138.95070566,-19.18694514,-13.73074767,0.20528237,-0.82568719
0.14893253,-3.09990420

>  <Name>
ligand

>  <RI>
0

>  <Rbt.Current_Directory>
/home/itssahil/PROJECTS/Mol_Feturizer/New_Systems/rnas/2GDI

>  <Rbt.Executable>
rbdock ($Id: //depot/dev/client3/rdock/2013.1/src/exe/rbdock.cxx#4 $)

>  <Rbt.Library>
libRbt.so (2013.1, Build901 2013/11/27)

>  <Rbt.Parameter_File>
/export/apps/rDock/src/rDock_2013.1_src/data/scripts/dock_solv.prm

>  <Rbt.Receptor>
prm/pocket_docking_5.prm

>  <SCORE>
-10.0607

>  <SCORE.INTER>
-10.2561

>  <SCORE.INTER.CONST>
1

>  <SCORE.INTER.POLAR>
0

>  <SCORE.INTER.ROT>
8

>  <SCORE.INTER.SOLV>
15.4844

>  <SCORE.INTER.VDW>
-20.9322

>  <SCORE.INTER.norm>
-0.394467

>  <SCORE.INTRA>
0.195495

>  <SCORE.INTRA.DIHEDRAL>
-0.889991

>  <SCORE.INTRA.DIHEDRAL.0>
8.13976

>  <SCORE.INTRA.POLAR>
0

>  <SCORE.INTRA.POLAR.0>
0

>  <SCORE.INTRA.REPUL>
0

>  <SCORE.INTRA.REPUL.0>
0

>  <SCORE.INTRA.SOLV>
5.91301

>  <SCORE.INTRA.SOLV.lig_0>
-82.9561

>  <SCORE.INTRA.VDW>
-2.31601

>  <SCORE.INTRA.VDW.0>
-3.29171

>  <SCORE.INTRA.norm>
0.00751905

>  <SCORE.RESTR>
0

>  <SCORE.RESTR.CAVITY>
0

>  <SCORE.RESTR.norm>
0

>  <SCORE.SYSTEM>
0

>  <SCORE.SYSTEM.CONST>
0

>  <SCORE.SYSTEM.DIHEDRAL>
0

>  <SCORE.SYSTEM.SOLV>
0

>  <SCORE.SYSTEM.norm>
0

>  <SCORE.heavy>
26

>  <SCORE.norm>
-0.386948

>  <RMSD>
4.079

$$$$
ligand
 OpenBabel11021811433D
libRbt.so/2013.1/901 2013/11/27
 26 27  0  0  0  0  0  0  0  0999 V2000
  -12.9667   -8.1858   -0.0667 C   0  0  0  0  0  0  0  0  0  0  0  0
  -15.0240  -16.2595   -0.3462 C   0  0  0  0  0  0  0  0  0  0  0  0
  -19.6199  -18.6913   -1.5377 P   0  0  1  0  0  0  0  0  0  0  0  0
  -20.8383  -18.8443    1.0987 P   0  0  1  0  0  0  0  0  0  0  0  0
  -14.9395  -13.5149    0.7952 C   0  0  0  0  0  0  0  0  0  0  0  0
  -13.1945  -11.8937   -0.0515 C   0  0  0  0  0  0  0  0  0  0  0  0
  -14.4148  -12.1057    0.5774 C   0  0  0  0  0  0  0  0  0  0  0  0
  -15.1501  -11.0066    0.9900 C   0  0  0  0  0  0  0  0  0  0  0  0
  -16.3454  -11.1636    1.6088 N   0  0  0  0  0  0  0  0  0  0  0  0
  -14.6701   -9.7627    0.7734 N   0  0  0  0  0  0  0  0  0  0  0  0
  -13.4796   -9.5820    0.1610 C   0  0  0  0  0  0  0  0  0  0  0  0
  -12.7462  -10.6460   -0.2483 N   0  0  0  0  0  0  0  0  0  0  0  0
  -18.4172  -19.3390   -2.1721 O   0  5  0  0  0  0  0  0  0  0  0  0
  -22.0878  -19.4220    0.5082 O   0  0  0  0  0  0  0  0  0  0  0  0
  -17.7698  -13.7578   -1.9828 S   0  0  0  0  0  0  0  0  0  0  0  0
  -16.7957  -12.9971   -0.7640 C   0  0  0  0  0  0  0  0  0  0  0  0
  -20.9523  -18.9237   -2.1899 O   0  0  0  0  0  0  0  0  0  0  0  0
  -20.4488  -19.6355    2.3027 O   0  5  0  0  0  0  0  0  0  0  0  0
  -15.8944  -13.8800   -0.2512 N   0  0  0  0  0  0  0  0  0  0  0  0
  -19.6441  -19.0964    0.0315 O   0  0  0  0  0  0  0  0  0  0  0  0
  -20.8544  -17.3620    1.3550 O   0  0  0  0  0  0  0  0  0  0  0  0
  -15.9320  -15.1369   -0.7728 C   0  0  1  0  0  0  0  0  0  0  0  0
  -16.9684  -15.2718   -1.8320 C   0  0  1  0  0  0  0  0  0  0  0  0
  -17.4359  -16.3967   -2.7169 C   0  0  0  0  0  0  0  0  0  0  0  0
  -18.9563  -16.4249   -2.7074 C   0  0  0  0  0  0  0  0  0  0  0  0
  -19.3803  -17.1017   -1.5304 O   0  0  0  0  0  0  0  0  0  0  0  0
  1 11  1  0  0  0  0
  3 13  1  6  0  0  0
  3 17  2  0  0  0  0
  3 20  1  0  0  0  0
  3 26  1  0  0  0  0
  4 14  1  6  0  0  0
  4 18  1  0  0  0  0
  4 21  2  0  0  0  0
  4 20  1  0  0  0  0
  5 19  1  0  0  0  0
  5  7  1  0  0  0  0
  6  7  2  0  0  0  0
  6 12  1  0  0  0  0
  7  8  1  0  0  0  0
  8  9  1  0  0  0  0
  8 10  2  0  0  0  0
 10 11  1  0  0  0  0
 11 12  2  0  0  0  0
 15 23  1  0  0  0  0
 15 16  1  0  0  0  0
 16 19  1  0  0  0  0
 19 22  1  0  0  0  0
 22  2  1  6  0  0  0
 22 23  1  0  0  0  0
 23 24  1  1  0  0  0
 24 25  1  0  0  0  0
 25 26  1  0  0  0  0
M  CHG  2  13  -1  18  -1
M  END
>  <CHROM.1>
-170.11109115,-38.30059365,-97.64258239,53.31722598,-44.71515306,-81.16571691
-90.54564034,48.71656739,-17.54936860,-15.32245280,-0.40494751,0.36635773
0.86267934,1.15757986

>  <Name>
ligand

>  <RI>
0

>  <Rbt.Current_Directory>
/home/itssahil/PROJECTS/Mol_Feturizer/New_Systems/rnas/2GDI

>  <Rbt.Executable>
rbdock ($Id: //depot/dev/client3/rdock/2013.1/src/exe/rbdock.cxx#4 $)

>  <Rbt.Library>
libRbt.so (2013.1, Build901 2013/11/27)

>  <Rbt.Parameter_File>
/export/apps/rDock/src/rDock_2013.1_src/data/scripts/dock_solv.prm

>  <Rbt.Receptor>
prm/pocket_docking_6.prm

>  <SCORE>
-16.436

>  <SCORE.INTER>
-19.5519

>  <SCORE.INTER.CONST>
1

>  <SCORE.INTER.POLAR>
0

>  <SCORE.INTER.ROT>
8

>  <SCORE.INTER.SOLV>
17.6861

>  <SCORE.INTER.VDW>
-27.8633

>  <SCORE.INTER.norm>
-0.751995

>  <SCORE.INTRA>
3.11589

>  <SCORE.INTRA.DIHEDRAL>
3.09203

>  <SCORE.INTRA.DIHEDRAL.0>
8.13976

>  <SCORE.INTRA.POLAR>
0

>  <SCORE.INTRA.POLAR.0>
0

>  <SCORE.INTRA.REPUL>
0

>  <SCORE.INTRA.REPUL.0>
0

>  <SCORE.INTRA.SOLV>
1.71854

>  <SCORE.INTRA.SOLV.lig_0>
-82.9561

>  <SCORE.INTRA.VDW>
0.710602

>  <SCORE.INTRA.VDW.0>
-3.29171

>  <SCORE.INTRA.norm>
0.119842

>  <SCORE.RESTR>
0

>  <SCORE.RESTR.CAVITY>
0

>  <SCORE.RESTR.norm>
0

>  <SCORE.SYSTEM>
0

>  <SCORE.SYSTEM.CONST>
0

>  <SCORE.SYSTEM.DIHEDRAL>
0

>  <SCORE.SYSTEM.SOLV>
0

>  <SCORE.SYSTEM.norm>
0

>  <SCORE.heavy>
26

>  <SCORE.norm>
-0.632153

>  <RMSD>
4.085

$$$$
ligand
 OpenBabel11021811433D
libRbt.so/2013.1/901 2013/11/27
 26 27  0  0  0  0  0  0  0  0999 V2000
  -13.2850   -9.4732    0.2078 C   0  0  0  0  0  0  0  0  0  0  0  0
  -20.8330  -13.0089    1.3586 C   0  0  0  0  0  0  0  0  0  0  0  0
  -23.0988  -14.5253   -3.9311 P   0  0  1  0  0  0  0  0  0  0  0  0
  -23.4935  -12.2365   -2.1806 P   0  0  1  0  0  0  0  0  0  0  0  0
  -18.8185  -11.0010    0.4907 C   0  0  0  0  0  0  0  0  0  0  0  0
  -16.9769   -9.4130   -0.2001 C   0  0  0  0  0  0  0  0  0  0  0  0
  -17.3544  -10.6037    0.4078 C   0  0  0  0  0  0  0  0  0  0  0  0
  -16.3705  -11.4151    0.9488 C   0  0  0  0  0  0  0  0  0  0  0  0
  -16.6901  -12.5864    1.5507 N   0  0  0  0  0  0  0  0  0  0  0  0
  -15.0765  -11.0348    0.8755 N   0  0  0  0  0  0  0  0  0  0  0  0
  -14.7340   -9.8728    0.2777 C   0  0  0  0  0  0  0  0  0  0  0  0
  -15.6833   -9.0670   -0.2580 N   0  0  0  0  0  0  0  0  0  0  0  0
  -24.2867  -15.3747   -3.5623 O   0  5  0  0  0  0  0  0  0  0  0  0
  -24.1461  -10.9032   -2.3808 O   0  0  0  0  0  0  0  0  0  0  0  0
  -18.9482  -14.0175   -2.0921 S   0  0  0  0  0  0  0  0  0  0  0  0
  -18.4065  -12.5042   -1.4369 C   0  0  0  0  0  0  0  0  0  0  0  0
  -22.5322  -14.6945   -5.3114 O   0  0  0  0  0  0  0  0  0  0  0  0
  -24.3684  -13.0918   -1.3262 O   0  5  0  0  0  0  0  0  0  0  0  0
  -19.0703  -12.2168   -0.2829 N   0  0  0  0  0  0  0  0  0  0  0  0
  -23.4679  -12.9776   -3.6224 O   0  0  0  0  0  0  0  0  0  0  0  0
  -22.0655  -12.2073   -1.7082 O   0  0  0  0  0  0  0  0  0  0  0  0
  -19.9930  -13.1351    0.1156 C   0  0  1  0  0  0  0  0  0  0  0  0
  -20.0654  -14.2945   -0.8145 C   0  0  1  0  0  0  0  0  0  0  0  0
  -20.8813  -15.5589   -0.8667 C   0  0  0  0  0  0  0  0  0  0  0  0
  -22.1983  -15.2608   -1.5660 C   0  0  0  0  0  0  0  0  0  0  0  0
  -21.9115  -14.8601   -2.9003 O   0  0  0  0  0  0  0  0  0  0  0  0
  1 11  1  0  0  0  0
  3 13  1  1  0  0  0
  3 17  2  0  0  0  0
  3 20  1  0  0  0  0
  3 26  1  0  0  0  0
  4 14  1  6  0  0  0
  4 18  1  0  0  0  0
  4 21  2  0  0  0  0
  4 20  1  0  0  0  0
  5 19  1  0  0  0  0
  5  7  1  0  0  0  0
  6  7  2  0  0  0  0
  6 12  1  0  0  0  0
  7  8  1  0  0  0  0
  8  9  1  0  0  0  0
  8 10  2  0  0  0  0
 10 11  1  0  0  0  0
 11 12  2  0  0  0  0
 15 23  1  0  0  0  0
 15 16  1  0  0  0  0
 16 19  1  0  0  0  0
 19 22  1  0  0  0  0
 22  2  1  1  0  0  0
 22 23  1  0  0  0  0
 23 24  1  6  0  0  0
 24 25  1  0  0  0  0
 25 26  1  0  0  0  0
M  CHG  2  13  -1  18  -1
M  END
>  <CHROM.1>
77.52792567,-34.09945151,115.55629526,-169.15507609,-92.82129828,62.65781762
177.65675736,-30.42264634,-20.21740277,-12.70358119,-1.37489776,-0.49656769
0.29821149,-2.83726932

>  <Name>
ligand

>  <RI>
0

>  <Rbt.Current_Directory>
/home/itssahil/PROJECTS/Mol_Feturizer/New_Systems/rnas/2GDI

>  <Rbt.Executable>
rbdock ($Id: //depot/dev/client3/rdock/2013.1/src/exe/rbdock.cxx#4 $)

>  <Rbt.Library>
libRbt.so (2013.1, Build901 2013/11/27)

>  <Rbt.Parameter_File>
/export/apps/rDock/src/rDock_2013.1_src/data/scripts/dock_solv.prm

>  <Rbt.Receptor>
prm/pocket_docking_6.prm

>  <SCORE>
-10.0331

>  <SCORE.INTER>
-11.3238

>  <SCORE.INTER.CONST>
1

>  <SCORE.INTER.POLAR>
0

>  <SCORE.INTER.ROT>
8

>  <SCORE.INTER.SOLV>
13.6265

>  <SCORE.INTER.VDW>
-21.0247

>  <SCORE.INTER.norm>
-0.435531

>  <SCORE.INTRA>
1.29071

>  <SCORE.INTRA.DIHEDRAL>
-1.53051

>  <SCORE.INTRA.DIHEDRAL.0>
8.13976

>  <SCORE.INTRA.POLAR>
0

>  <SCORE.INTRA.POLAR.0>
0

>  <SCORE.INTRA.REPUL>
0

>  <SCORE.INTRA.REPUL.0>
0

>  <SCORE.INTRA.SOLV>
7.95842

>  <SCORE.INTRA.SOLV.lig_0>
-82.9561

>  <SCORE.INTRA.VDW>
-1.92325

>  <SCORE.INTRA.VDW.0>
-3.29171

>  <SCORE.INTRA.norm>
0.0496425

>  <SCORE.RESTR>
0

>  <SCORE.RESTR.CAVITY>
0

>  <SCORE.RESTR.norm>
0

>  <SCORE.SYSTEM>
0

>  <SCORE.SYSTEM.CONST>
0

>  <SCORE.SYSTEM.DIHEDRAL>
0

>  <SCORE.SYSTEM.SOLV>
0

>  <SCORE.SYSTEM.norm>
0

>  <SCORE.heavy>
26

>  <SCORE.norm>
-0.385888

>  <RMSD>
4.132

$$$$
ligand
 OpenBabel11021811433D
libRbt.so/2013.1/901 2013/11/27
 26 27  0  0  0  0  0  0  0  0999 V2000
  -13.5230  -10.9610    0.2484 C   0  0  0  0  0  0  0  0  0  0  0  0
  -21.1349  -12.7186   -1.0884 C   0  0  0  0  0  0  0  0  0  0  0  0
  -23.7174  -12.4045    5.3515 P   0  0  1  0  0  0  0  0  0  0  0  0
  -23.4101  -14.9600    6.7056 P   0  0  1  0  0  0  0  0  0  0  0  0
  -19.1904  -10.5221   -0.6007 C   0  0  0  0  0  0  0  0  0  0  0  0
  -16.9037   -9.5036   -0.2490 C   0  0  0  0  0  0  0  0  0  0  0  0
  -17.6909  -10.6399   -0.3865 C   0  0  0  0  0  0  0  0  0  0  0  0
  -17.0836  -11.8827   -0.3111 C   0  0  0  0  0  0  0  0  0  0  0  0
  -17.8100  -13.0193   -0.4406 N   0  0  0  0  0  0  0  0  0  0  0  0
  -15.7509  -11.9632   -0.1063 N   0  0  0  0  0  0  0  0  0  0  0  0
  -15.0061  -10.8436    0.0228 C   0  0  0  0  0  0  0  0  0  0  0  0
  -15.5833   -9.6193   -0.0495 N   0  0  0  0  0  0  0  0  0  0  0  0
  -24.8325  -11.3976    5.4574 O   0  5  0  0  0  0  0  0  0  0  0  0
  -22.5709  -14.2603    7.7302 O   0  0  0  0  0  0  0  0  0  0  0  0
  -20.7783  -11.7352    2.8337 S   0  0  0  0  0  0  0  0  0  0  0  0
  -19.7618  -10.7834    1.7973 C   0  0  0  0  0  0  0  0  0  0  0  0
  -22.3936  -12.0332    5.9552 O   0  0  0  0  0  0  0  0  0  0  0  0
  -24.4364  -15.7963    7.3945 O   0  5  0  0  0  0  0  0  0  0  0  0
  -19.9221  -11.1549    0.4968 N   0  0  0  0  0  0  0  0  0  0  0  0
  -24.2587  -13.8210    5.9237 O   0  0  0  0  0  0  0  0  0  0  0  0
  -22.6596  -15.7155    5.6429 O   0  0  0  0  0  0  0  0  0  0  0  0
  -20.8119  -12.1604    0.2720 C   0  0  1  0  0  0  0  0  0  0  0  0
  -21.4464  -12.6371    1.5309 C   0  0  1  0  0  0  0  0  0  0  0  0
  -22.4661  -13.6925    1.8672 C   0  0  0  0  0  0  0  0  0  0  0  0
  -22.6162  -13.7614    3.3788 C   0  0  0  0  0  0  0  0  0  0  0  0
  -23.4507  -12.6860    3.7914 O   0  0  0  0  0  0  0  0  0  0  0  0
  1 11  1  0  0  0  0
  3 13  1  1  0  0  0
  3 17  2  0  0  0  0
  3 20  1  0  0  0  0
  3 26  1  0  0  0  0
  4 14  1  1  0  0  0
  4 18  1  0  0  0  0
  4 21  2  0  0  0  0
  4 20  1  0  0  0  0
  5 19  1  0  0  0  0
  5  7  1  0  0  0  0
  6  7  2  0  0  0  0
  6 12  1  0  0  0  0
  7  8  1  0  0  0  0
  8  9  1  0  0  0  0
  8 10  2  0  0  0  0
 10 11  1  0  0  0  0
 11 12  2  0  0  0  0
 15 23  1  0  0  0  0
 15 16  1  0  0  0  0
 16 19  1  0  0  0  0
 19 22  1  0  0  0  0
 22  2  1  6  0  0  0
 22 23  1  0  0  0  0
 23 24  1  1  0  0  0
 24 25  1  0  0  0  0
 25 26  1  0  0  0  0
M  CHG  2  13  -1  18  -1
M  END
>  <CHROM.1>
-147.17547483,57.69681681,-118.36966182,45.21797739,-3.10323201,79.24528926
-175.19222318,-169.03283174,-20.78934724,-12.49707511,2.91182505,-0.78948202
0.01481458,1.99543605

>  <Name>
ligand

>  <RI>
0

>  <Rbt.Current_Directory>
/home/itssahil/PROJECTS/Mol_Feturizer/New_Systems/rnas/2GDI

>  <Rbt.Executable>
rbdock ($Id: //depot/dev/client3/rdock/2013.1/src/exe/rbdock.cxx#4 $)

>  <Rbt.Library>
libRbt.so (2013.1, Build901 2013/11/27)

>  <Rbt.Parameter_File>
/export/apps/rDock/src/rDock_2013.1_src/data/scripts/dock_solv.prm

>  <Rbt.Receptor>
prm/pocket_docking_8.prm

>  <SCORE>
-8.92597

>  <SCORE.INTER>
-13.4491

>  <SCORE.INTER.CONST>
1

>  <SCORE.INTER.POLAR>
0

>  <SCORE.INTER.ROT>
8

>  <SCORE.INTER.SOLV>
16.4897

>  <SCORE.INTER.VDW>
-23.396

>  <SCORE.INTER.norm>
-0.517273

>  <SCORE.INTRA>
4.52313

>  <SCORE.INTRA.DIHEDRAL>
0.0856741

>  <SCORE.INTRA.DIHEDRAL.0>
8.13976

>  <SCORE.INTRA.POLAR>
0

>  <SCORE.INTRA.POLAR.0>
0

>  <SCORE.INTRA.REPUL>
0

>  <SCORE.INTRA.REPUL.0>
0

>  <SCORE.INTRA.SOLV>
4.07046

>  <SCORE.INTRA.SOLV.lig_0>
-82.9561

>  <SCORE.INTRA.VDW>
2.44506

>  <SCORE.INTRA.VDW.0>
-3.29171

>  <SCORE.INTRA.norm>
0.173966

>  <SCORE.RESTR>
0

>  <SCORE.RESTR.CAVITY>
0

>  <SCORE.RESTR.norm>
0

>  <SCORE.SYSTEM>
0

>  <SCORE.SYSTEM.CONST>
0

>  <SCORE.SYSTEM.DIHEDRAL>
0

>  <SCORE.SYSTEM.SOLV>
0

>  <SCORE.SYSTEM.norm>
0

>  <SCORE.heavy>
26

>  <SCORE.norm>
-0.343306

>  <RMSD>
4.236

$$$$
ligand
 OpenBabel11021811433D
libRbt.so/2013.1/901 2013/11/27
 26 27  0  0  0  0  0  0  0  0999 V2000
  -13.9615  -16.0832    0.7162 C   0  0  0  0  0  0  0  0  0  0  0  0
  -17.7434  -10.8829    2.1678 C   0  0  0  0  0  0  0  0  0  0  0  0
  -23.6321  -13.7542    4.5024 P   0  0  1  0  0  0  0  0  0  0  0  0
  -23.4358  -15.1126    7.0666 P   0  0  1  0  0  0  0  0  0  0  0  0
  -17.1199  -11.4877   -0.6763 C   0  0  0  0  0  0  0  0  0  0  0  0
  -15.1557  -12.5730    0.4874 C   0  0  0  0  0  0  0  0  0  0  0  0
  -16.2803  -12.7022   -0.3177 C   0  0  0  0  0  0  0  0  0  0  0  0
  -16.6289  -13.9621   -0.7759 C   0  0  0  0  0  0  0  0  0  0  0  0
  -17.7167  -14.1376   -1.5647 N   0  0  0  0  0  0  0  0  0  0  0  0
  -15.8754  -15.0294   -0.4328 N   0  0  0  0  0  0  0  0  0  0  0  0
  -14.7849  -14.8782    0.3501 C   0  0  0  0  0  0  0  0  0  0  0  0
  -14.4284  -13.6526    0.8066 N   0  0  0  0  0  0  0  0  0  0  0  0
  -23.4186  -14.9431    3.6027 O   0  5  0  0  0  0  0  0  0  0  0  0
  -24.9002  -14.8732    7.2712 O   0  0  0  0  0  0  0  0  0  0  0  0
  -20.9854  -12.0714    0.0339 S   0  0  0  0  0  0  0  0  0  0  0  0
  -19.5289  -12.0239   -0.9091 C   0  0  0  0  0  0  0  0  0  0  0  0
  -25.0404  -13.2610    4.6705 O   0  0  0  0  0  0  0  0  0  0  0  0
  -23.2352  -16.4619    6.4614 O   0  5  0  0  0  0  0  0  0  0  0  0
  -18.4765  -11.6201   -0.1448 N   0  0  0  0  0  0  0  0  0  0  0  0
  -22.9348  -14.0691    5.9312 O   0  0  0  0  0  0  0  0  0  0  0  0
  -22.5551  -14.8728    8.2624 O   0  0  0  0  0  0  0  0  0  0  0  0
  -18.7604  -11.3427    1.1574 C   0  0  1  0  0  0  0  0  0  0  0  0
  -20.1972  -11.5637    1.4755 C   0  0  1  0  0  0  0  0  0  0  0  0
  -21.0405  -11.4182    2.7143 C   0  0  0  0  0  0  0  0  0  0  0  0
  -21.6985  -12.7554    3.0161 C   0  0  0  0  0  0  0  0  0  0  0  0
  -22.7802  -12.5259    3.9107 O   0  0  0  0  0  0  0  0  0  0  0  0
  1 11  1  0  0  0  0
  3 13  1  6  0  0  0
  3 17  2  0  0  0  0
  3 20  1  0  0  0  0
  3 26  1  0  0  0  0
  4 14  1  1  0  0  0
  4 18  1  0  0  0  0
  4 21  2  0  0  0  0
  4 20  1  0  0  0  0
  5 19  1  0  0  0  0
  5  7  1  0  0  0  0
  6  7  2  0  0  0  0
  6 12  1  0  0  0  0
  7  8  1  0  0  0  0
  8  9  1  0  0  0  0
  8 10  2  0  0  0  0
 10 11  1  0  0  0  0
 11 12  2  0  0  0  0
 15 23  1  0  0  0  0
 15 16  1  0  0  0  0
 16 19  1  0  0  0  0
 19 22  1  0  0  0  0
 22  2  1  1  0  0  0
 22 23  1  0  0  0  0
 23 24  1  6  0  0  0
 24 25  1  0  0  0  0
 25 26  1  0  0  0  0
M  CHG  2  13  -1  18  -1
M  END
>  <CHROM.1>
-71.72598198,-99.60007400,-117.21936988,-47.58821590,58.45275645,-162.65517688
-176.17741204,-19.98826886,-20.25902382,-13.47226048,2.66425580,-0.61209470
-0.39207118,2.26547811

>  <Name>
ligand

>  <RI>
0

>  <Rbt.Current_Directory>
/home/itssahil/PROJECTS/Mol_Feturizer/New_Systems/rnas/2GDI

>  <Rbt.Executable>
rbdock ($Id: //depot/dev/client3/rdock/2013.1/src/exe/rbdock.cxx#4 $)

>  <Rbt.Library>
libRbt.so (2013.1, Build901 2013/11/27)

>  <Rbt.Parameter_File>
/export/apps/rDock/src/rDock_2013.1_src/data/scripts/dock_solv.prm

>  <Rbt.Receptor>
prm/blind_docking_60.prm

>  <SCORE>
-8.99832

>  <SCORE.INTER>
-10.243

>  <SCORE.INTER.CONST>
1

>  <SCORE.INTER.POLAR>
0

>  <SCORE.INTER.ROT>
8

>  <SCORE.INTER.SOLV>
15.2157

>  <SCORE.INTER.VDW>
-20.8339

>  <SCORE.INTER.norm>
-0.393961

>  <SCORE.INTRA>
1.24209

>  <SCORE.INTRA.DIHEDRAL>
-0.0417901

>  <SCORE.INTRA.DIHEDRAL.0>
8.13976

>  <SCORE.INTRA.POLAR>
0

>  <SCORE.INTRA.POLAR.0>
0

>  <SCORE.INTRA.REPUL>
0

>  <SCORE.INTRA.REPUL.0>
0

>  <SCORE.INTRA.SOLV>
1.7992

>  <SCORE.INTRA.SOLV.lig_0>
-82.9561

>  <SCORE.INTRA.VDW>
0.363385

>  <SCORE.INTRA.VDW.0>
-3.29171

>  <SCORE.INTRA.norm>
0.0477726

>  <SCORE.RESTR>
0.00258848

>  <SCORE.RESTR.CAVITY>
0.00258848

>  <SCORE.RESTR.norm>
9.95569e-05

>  <SCORE.SYSTEM>
0

>  <SCORE.SYSTEM.CONST>
0

>  <SCORE.SYSTEM.DIHEDRAL>
0

>  <SCORE.SYSTEM.SOLV>
0

>  <SCORE.SYSTEM.norm>
0

>  <SCORE.heavy>
26

>  <SCORE.norm>
-0.346089

>  <RMSD>
4.693

$$$$
ligand
 OpenBabel11021811433D
libRbt.so/2013.1/901 2013/11/27
 26 27  0  0  0  0  0  0  0  0999 V2000
  -12.8979   -8.4027   -0.2766 C   0  0  0  0  0  0  0  0  0  0  0  0
  -17.2110  -13.2185   -1.1364 C   0  0  0  0  0  0  0  0  0  0  0  0
  -19.6952  -17.5666   -4.1954 P   0  0  1  0  0  0  0  0  0  0  0  0
  -20.9873  -14.9778   -3.9001 P   0  0  1  0  0  0  0  0  0  0  0  0
  -15.6468  -13.1663    1.3922 C   0  0  0  0  0  0  0  0  0  0  0  0
  -15.5437  -10.6691    1.0131 C   0  0  0  0  0  0  0  0  0  0  0  0
  -14.9223  -11.9094    0.9410 C   0  0  0  0  0  0  0  0  0  0  0  0
  -13.6241  -11.9759    0.4622 C   0  0  0  0  0  0  0  0  0  0  0  0
  -12.9772  -13.1632    0.3723 N   0  0  0  0  0  0  0  0  0  0  0  0
  -12.9947  -10.8435    0.0796 N   0  0  0  0  0  0  0  0  0  0  0  0
  -13.6208   -9.6489    0.1576 C   0  0  0  0  0  0  0  0  0  0  0  0
  -14.8913   -9.5653    0.6226 N   0  0  0  0  0  0  0  0  0  0  0  0
  -19.7115  -18.8485   -3.4048 O   0  5  0  0  0  0  0  0  0  0  0  0
  -21.3927  -14.9839   -5.3421 O   0  0  0  0  0  0  0  0  0  0  0  0
  -14.6710  -16.3620   -0.7578 S   0  0  0  0  0  0  0  0  0  0  0  0
  -14.6124  -15.2721    0.5919 C   0  0  0  0  0  0  0  0  0  0  0  0
  -19.9573  -17.6633   -5.6708 O   0  0  0  0  0  0  0  0  0  0  0  0
  -22.1497  -14.5617   -3.0616 O   0  5  0  0  0  0  0  0  0  0  0  0
  -15.4822  -14.2397    0.4120 N   0  0  0  0  0  0  0  0  0  0  0  0
  -20.6998  -16.5165   -3.4777 O   0  0  0  0  0  0  0  0  0  0  0  0
  -19.7301  -14.2197   -3.5718 O   0  0  0  0  0  0  0  0  0  0  0  0
  -16.1990  -14.2623   -0.7453 C   0  0  1  0  0  0  0  0  0  0  0  0
  -15.8788  -15.4533   -1.5779 C   0  0  1  0  0  0  0  0  0  0  0  0
  -16.3517  -15.9698   -2.9108 C   0  0  0  0  0  0  0  0  0  0  0  0
  -17.7435  -16.5580   -2.7398 C   0  0  0  0  0  0  0  0  0  0  0  0
  -18.2423  -16.8994   -4.0273 O   0  0  0  0  0  0  0  0  0  0  0  0
  1 11  1  0  0  0  0
  3 13  1  1  0  0  0
  3 17  2  0  0  0  0
  3 20  1  0  0  0  0
  3 26  1  0  0  0  0
  4 14  1  6  0  0  0
  4 18  1  0  0  0  0
  4 21  2  0  0  0  0
  4 20  1  0  0  0  0
  5 19  1  0  0  0  0
  5  7  1  0  0  0  0
  6  7  2  0  0  0  0
  6 12  1  0  0  0  0
  7  8  1  0  0  0  0
  8  9  1  0  0  0  0
  8 10  2  0  0  0  0
 10 11  1  0  0  0  0
 11 12  2  0  0  0  0
 15 23  1  0  0  0  0
 15 16  1  0  0  0  0
 16 19  1  0  0  0  0
 19 22  1  0  0  0  0
 22  2  1  1  0  0  0
 22 23  1  0  0  0  0
 23 24  1  6  0  0  0
 24 25  1  0  0  0  0
 25 26  1  0  0  0  0
M  CHG  2  13  -1  18  -1
M  END
>  <CHROM.1>
177.12200047,102.50922337,134.07735802,54.40465469,106.37002381,173.30921947
179.25777592,-58.71411383,-17.20012897,-14.48531666,-1.86959094,0.68433891
-0.51880219,0.18275813

>  <Name>
ligand

>  <RI>
0

>  <Rbt.Current_Directory>
/home/itssahil/PROJECTS/Mol_Feturizer/New_Systems/rnas/2GDI

>  <Rbt.Executable>
rbdock ($Id: //depot/dev/client3/rdock/2013.1/src/exe/rbdock.cxx#4 $)

>  <Rbt.Library>
libRbt.so (2013.1, Build901 2013/11/27)

>  <Rbt.Parameter_File>
/export/apps/rDock/src/rDock_2013.1_src/data/scripts/dock_solv.prm

>  <Rbt.Receptor>
prm/pocket_docking_8.prm

>  <SCORE>
-14.8318

>  <SCORE.INTER>
-14.4618

>  <SCORE.INTER.CONST>
1

>  <SCORE.INTER.POLAR>
0

>  <SCORE.INTER.ROT>
8

>  <SCORE.INTER.SOLV>
15.4512

>  <SCORE.INTER.VDW>
-23.7249

>  <SCORE.INTER.norm>
-0.556224

>  <SCORE.INTRA>
-0.370028

>  <SCORE.INTRA.DIHEDRAL>
-3.1189

>  <SCORE.INTRA.DIHEDRAL.0>
8.13976

>  <SCORE.INTRA.POLAR>
0

>  <SCORE.INTRA.POLAR.0>
0

>  <SCORE.INTRA.REPUL>
0

>  <SCORE.INTRA.REPUL.0>
0

>  <SCORE.INTRA.SOLV>
3.79628

>  <SCORE.INTRA.SOLV.lig_0>
-82.9561

>  <SCORE.INTRA.VDW>
-0.708717

>  <SCORE.INTRA.VDW.0>
-3.29171

>  <SCORE.INTRA.norm>
-0.0142318

>  <SCORE.RESTR>
0

>  <SCORE.RESTR.CAVITY>
0

>  <SCORE.RESTR.norm>
0

>  <SCORE.SYSTEM>
0

>  <SCORE.SYSTEM.CONST>
0

>  <SCORE.SYSTEM.DIHEDRAL>
0

>  <SCORE.SYSTEM.SOLV>
0

>  <SCORE.SYSTEM.norm>
0

>  <SCORE.heavy>
26

>  <SCORE.norm>
-0.570456

>  <RMSD>
4.791

$$$$
ligand
 OpenBabel11021811433D
libRbt.so/2013.1/901 2013/11/27
 26 27  0  0  0  0  0  0  0  0999 V2000
  -15.6482  -15.9020   -3.0309 C   0  0  0  0  0  0  0  0  0  0  0  0
  -21.2892  -14.4850    1.4259 C   0  0  0  0  0  0  0  0  0  0  0  0
  -22.6784  -17.7819   -0.5794 P   0  0  1  0  0  0  0  0  0  0  0  0
  -23.6938  -20.2982    0.4676 P   0  0  1  0  0  0  0  0  0  0  0  0
  -19.2333  -12.7452    0.1652 C   0  0  0  0  0  0  0  0  0  0  0  0
  -18.1895  -13.3766   -2.0489 C   0  0  0  0  0  0  0  0  0  0  0  0
  -18.2926  -13.5876   -0.6797 C   0  0  0  0  0  0  0  0  0  0  0  0
  -17.5108  -14.5721   -0.0979 C   0  0  0  0  0  0  0  0  0  0  0  0
  -17.5777  -14.8152    1.2336 N   0  0  0  0  0  0  0  0  0  0  0  0
  -16.6714  -15.2993   -0.8667 N   0  0  0  0  0  0  0  0  0  0  0  0
  -16.5900  -15.0766   -2.1967 C   0  0  0  0  0  0  0  0  0  0  0  0
  -17.3483  -14.1182   -2.7830 N   0  0  0  0  0  0  0  0  0  0  0  0
  -21.3128  -18.0774   -0.0169 O   0  5  0  0  0  0  0  0  0  0  0  0
  -22.3953  -20.5805    1.1588 O   0  0  0  0  0  0  0  0  0  0  0  0
  -22.6842  -12.4180   -1.7769 S   0  0  0  0  0  0  0  0  0  0  0  0
  -21.0130  -12.0974   -1.4341 C   0  0  0  0  0  0  0  0  0  0  0  0
  -22.8470  -17.8813   -2.0682 O   0  0  0  0  0  0  0  0  0  0  0  0
  -24.8228  -20.5796    1.4021 O   0  5  0  0  0  0  0  0  0  0  0  0
  -20.5994  -12.8156   -0.3534 N   0  0  0  0  0  0  0  0  0  0  0  0
  -23.7589  -18.6993    0.2066 O   0  0  0  0  0  0  0  0  0  0  0  0
  -23.8772  -20.9422   -0.8795 O   0  0  0  0  0  0  0  0  0  0  0  0
  -21.5396  -13.6125    0.2249 C   0  0  1  0  0  0  0  0  0  0  0  0
  -22.8477  -13.5358   -0.4804 C   0  0  1  0  0  0  0  0  0  0  0  0
  -24.1947  -14.1788   -0.2828 C   0  0  0  0  0  0  0  0  0  0  0  0
  -24.1391  -15.6013   -0.8171 C   0  0  0  0  0  0  0  0  0  0  0  0
  -23.0676  -16.2769   -0.1701 O   0  0  0  0  0  0  0  0  0  0  0  0
  1 11  1  0  0  0  0
  3 13  1  1  0  0  0
  3 17  2  0  0  0  0
  3 20  1  0  0  0  0
  3 26  1  0  0  0  0
  4 14  1  1  0  0  0
  4 18  1  0  0  0  0
  4 21  2  0  0  0  0
  4 20  1  0  0  0  0
  5 19  1  0  0  0  0
  5  7  1  0  0  0  0
  6  7  2  0  0  0  0
  6 12  1  0  0  0  0
  7  8  1  0  0  0  0
  8  9  1  0  0  0  0
  8 10  2  0  0  0  0
 10 11  1  0  0  0  0
 11 12  2  0  0  0  0
 15 23  1  0  0  0  0
 15 16  1  0  0  0  0
 16 19  1  0  0  0  0
 19 22  1  0  0  0  0
 22  2  1  6  0  0  0
 22 23  1  0  0  0  0
 23 24  1  1  0  0  0
 24 25  1  0  0  0  0
 25 26  1  0  0  0  0
M  CHG  2  13  -1  18  -1
M  END
>  <CHROM.1>
-50.38187081,-78.86656210,55.68934550,55.67506115,103.18979642,55.35841511
-176.13121130,164.67620185,-21.28933534,-16.04253062,-0.53308626,-0.85010981
-0.13884352,3.02417572

>  <Name>
ligand

>  <RI>
0

>  <Rbt.Current_Directory>
/home/itssahil/PROJECTS/Mol_Feturizer/New_Systems/rnas/2GDI

>  <Rbt.Executable>
rbdock ($Id: //depot/dev/client3/rdock/2013.1/src/exe/rbdock.cxx#4 $)

>  <Rbt.Library>
libRbt.so (2013.1, Build901 2013/11/27)

>  <Rbt.Parameter_File>
/export/apps/rDock/src/rDock_2013.1_src/data/scripts/dock_solv.prm

>  <Rbt.Receptor>
prm/pocket_docking_4.prm

>  <SCORE>
-4.14957

>  <SCORE.INTER>
-3.50252

>  <SCORE.INTER.CONST>
1

>  <SCORE.INTER.POLAR>
0

>  <SCORE.INTER.ROT>
8

>  <SCORE.INTER.SOLV>
16.2498

>  <SCORE.INTER.VDW>
-16.6849

>  <SCORE.INTER.norm>
-0.134712

>  <SCORE.INTRA>
-0.647055

>  <SCORE.INTRA.DIHEDRAL>
-2.23295

>  <SCORE.INTRA.DIHEDRAL.0>
8.13976

>  <SCORE.INTRA.POLAR>
0

>  <SCORE.INTRA.POLAR.0>
0

>  <SCORE.INTRA.REPUL>
0

>  <SCORE.INTRA.REPUL.0>
0

>  <SCORE.INTRA.SOLV>
1.6954

>  <SCORE.INTRA.SOLV.lig_0>
-82.9561

>  <SCORE.INTRA.VDW>
-0.378277

>  <SCORE.INTRA.VDW.0>
-3.29171

>  <SCORE.INTRA.norm>
-0.0248867

>  <SCORE.RESTR>
0

>  <SCORE.RESTR.CAVITY>
0

>  <SCORE.RESTR.norm>
0

>  <SCORE.SYSTEM>
0

>  <SCORE.SYSTEM.CONST>
0

>  <SCORE.SYSTEM.DIHEDRAL>
0

>  <SCORE.SYSTEM.SOLV>
0

>  <SCORE.SYSTEM.norm>
0

>  <SCORE.heavy>
26

>  <SCORE.norm>
-0.159599

>  <RMSD>
4.841

$$$$
ligand
 OpenBabel11021811433D
libRbt.so/2013.1/901 2013/11/27
 26 27  0  0  0  0  0  0  0  0999 V2000
  -13.7162  -15.9028    0.6230 C   0  0  0  0  0  0  0  0  0  0  0  0
  -17.6944  -11.2722    2.3213 C   0  0  0  0  0  0  0  0  0  0  0  0
  -24.8782  -11.6977    3.2629 P   0  0  1  0  0  0  0  0  0  0  0  0
  -24.7688  -12.1241    6.1378 P   0  0  1  0  0  0  0  0  0  0  0  0
  -16.9930  -11.3336   -0.5679 C   0  0  0  0  0  0  0  0  0  0  0  0
  -15.0428  -12.4329    0.6061 C   0  0  0  0  0  0  0  0  0  0  0  0
  -16.1218  -12.5402   -0.2623 C   0  0  0  0  0  0  0  0  0  0  0  0
  -16.3957  -13.7721   -0.8334 C   0  0  0  0  0  0  0  0  0  0  0  0
  -17.4367  -13.9253   -1.6874 N   0  0  0  0  0  0  0  0  0  0  0  0
  -15.6156  -14.8341   -0.5363 N   0  0  0  0  0  0  0  0  0  0  0  0
  -14.5707  -14.7044    0.3101 C   0  0  0  0  0  0  0  0  0  0  0  0
  -14.2873  -13.5063    0.8772 N   0  0  0  0  0  0  0  0  0  0  0  0
  -25.3217  -13.0643    2.8112 O   0  5  0  0  0  0  0  0  0  0  0  0
  -23.3793  -11.5856    6.2888 O   0  0  0  0  0  0  0  0  0  0  0  0
  -20.8779  -12.0137   -0.0855 S   0  0  0  0  0  0  0  0  0  0  0  0
  -19.3955  -11.7992   -0.9628 C   0  0  0  0  0  0  0  0  0  0  0  0
  -25.2355  -10.5321    2.3862 O   0  0  0  0  0  0  0  0  0  0  0  0
  -25.6256  -11.5977    7.2405 O   0  5  0  0  0  0  0  0  0  0  0  0
  -18.3641  -11.5543   -0.1079 N   0  0  0  0  0  0  0  0  0  0  0  0
  -25.3878  -11.4780    4.7858 O   0  0  0  0  0  0  0  0  0  0  0  0
  -24.8836  -13.6148    5.9708 O   0  0  0  0  0  0  0  0  0  0  0  0
  -18.6837  -11.5258    1.2152 C   0  0  1  0  0  0  0  0  0  0  0  0
  -20.1292  -11.7928    1.4468 C   0  0  1  0  0  0  0  0  0  0  0  0
  -21.0065  -11.8779    2.6676 C   0  0  0  0  0  0  0  0  0  0  0  0
  -22.4611  -11.8580    2.2250 C   0  0  0  0  0  0  0  0  0  0  0  0
  -23.2751  -11.7115    3.3822 O   0  0  0  0  0  0  0  0  0  0  0  0
  1 11  1  0  0  0  0
  3 13  1  6  0  0  0
  3 17  2  0  0  0  0
  3 20  1  0  0  0  0
  3 26  1  0  0  0  0
  4 14  1  1  0  0  0
  4 18  1  0  0  0  0
  4 21  2  0  0  0  0
  4 20  1  0  0  0  0
  5 19  1  0  0  0  0
  5  7  1  0  0  0  0
  6  7  2  0  0  0  0
  6 12  1  0  0  0  0
  7  8  1  0  0  0  0
  8  9  1  0  0  0  0
  8 10  2  0  0  0  0
 10 11  1  0  0  0  0
 11 12  2  0  0  0  0
 15 23  1  0  0  0  0
 15 16  1  0  0  0  0
 16 19  1  0  0  0  0
 19 22  1  0  0  0  0
 22  2  1  1  0  0  0
 22 23  1  0  0  0  0
 23 24  1  6  0  0  0
 24 25  1  0  0  0  0
 25 26  1  0  0  0  0
M  CHG  2  13  -1  18  -1
M  END
>  <CHROM.1>
75.43726475,-106.72903178,-116.77168118,64.34821140,-11.93900596,-170.34994678
-178.19981003,66.46738972,-20.71155149,-12.38092124,2.19262924,-0.43646970
-0.30645862,1.84766202

>  <Name>
ligand

>  <RI>
0

>  <Rbt.Current_Directory>
/home/itssahil/PROJECTS/Mol_Feturizer/New_Systems/rnas/2GDI

>  <Rbt.Executable>
rbdock ($Id: //depot/dev/client3/rdock/2013.1/src/exe/rbdock.cxx#4 $)

>  <Rbt.Library>
libRbt.so (2013.1, Build901 2013/11/27)

>  <Rbt.Parameter_File>
/export/apps/rDock/src/rDock_2013.1_src/data/scripts/dock_solv.prm

>  <Rbt.Receptor>
prm/blind_docking_60.prm

>  <SCORE>
-9.55782

>  <SCORE.INTER>
-11.4783

>  <SCORE.INTER.CONST>
1

>  <SCORE.INTER.POLAR>
0

>  <SCORE.INTER.ROT>
8

>  <SCORE.INTER.SOLV>
15.3858

>  <SCORE.INTER.VDW>
-21.7142

>  <SCORE.INTER.norm>
-0.441474

>  <SCORE.INTRA>
1.9205

>  <SCORE.INTRA.DIHEDRAL>
-2.43073

>  <SCORE.INTRA.DIHEDRAL.0>
8.13976

>  <SCORE.INTRA.POLAR>
0

>  <SCORE.INTRA.POLAR.0>
0

>  <SCORE.INTRA.REPUL>
0

>  <SCORE.INTRA.REPUL.0>
0

>  <SCORE.INTRA.SOLV>
1.14408

>  <SCORE.INTRA.SOLV.lig_0>
-82.9561

>  <SCORE.INTRA.VDW>
2.56382

>  <SCORE.INTRA.VDW.0>
-3.29171

>  <SCORE.INTRA.norm>
0.0738654

>  <SCORE.RESTR>
0

>  <SCORE.RESTR.CAVITY>
0

>  <SCORE.RESTR.norm>
0

>  <SCORE.SYSTEM>
0

>  <SCORE.SYSTEM.CONST>
0

>  <SCORE.SYSTEM.DIHEDRAL>
0

>  <SCORE.SYSTEM.SOLV>
0

>  <SCORE.SYSTEM.norm>
0

>  <SCORE.heavy>
26

>  <SCORE.norm>
-0.367608

>  <RMSD>
4.909

$$$$
ligand
 OpenBabel11021811433D
libRbt.so/2013.1/901 2013/11/27
 26 27  0  0  0  0  0  0  0  0999 V2000
  -12.5834   -7.1652   -0.5976 C   0  0  0  0  0  0  0  0  0  0  0  0
  -15.4386  -14.3530   -0.4198 C   0  0  0  0  0  0  0  0  0  0  0  0
  -18.6615  -14.0732   -5.5926 P   0  0  1  0  0  0  0  0  0  0  0  0
  -21.4343  -14.8825   -5.2529 P   0  0  1  0  0  0  0  0  0  0  0  0
  -15.4394  -11.8331    1.1593 C   0  0  0  0  0  0  0  0  0  0  0  0
  -15.1763   -9.3275    0.9520 C   0  0  0  0  0  0  0  0  0  0  0  0
  -14.6883  -10.6005    0.6851 C   0  0  0  0  0  0  0  0  0  0  0  0
  -13.4964  -10.7235   -0.0100 C   0  0  0  0  0  0  0  0  0  0  0  0
  -12.9816  -11.9443   -0.2947 N   0  0  0  0  0  0  0  0  0  0  0  0
  -12.8389   -9.6133   -0.4096 N   0  0  0  0  0  0  0  0  0  0  0  0
  -13.3346   -8.3859   -0.1396 C   0  0  0  0  0  0  0  0  0  0  0  0
  -14.5000   -8.2467    0.5385 N   0  0  0  0  0  0  0  0  0  0  0  0
  -18.2736  -15.3981   -6.1948 O   0  5  0  0  0  0  0  0  0  0  0  0
  -21.8007  -14.1309   -6.4956 O   0  0  0  0  0  0  0  0  0  0  0  0
  -18.7004  -12.0352   -1.1018 S   0  0  0  0  0  0  0  0  0  0  0  0
  -17.6022  -11.3440    0.0511 C   0  0  0  0  0  0  0  0  0  0  0  0
  -18.7734  -12.8996   -6.5226 O   0  0  0  0  0  0  0  0  0  0  0  0
  -21.1451  -16.3043   -5.6021 O   0  5  0  0  0  0  0  0  0  0  0  0
  -16.5294  -12.1614    0.2404 N   0  0  0  0  0  0  0  0  0  0  0  0
  -20.0190  -14.2860   -4.7332 O   0  0  0  0  0  0  0  0  0  0  0  0
  -22.3866  -14.7480   -4.0961 O   0  0  0  0  0  0  0  0  0  0  0  0
  -16.5277  -13.3154   -0.4818 C   0  0  1  0  0  0  0  0  0  0  0  0
  -17.7247  -13.4278   -1.3587 C   0  0  1  0  0  0  0  0  0  0  0  0
  -18.2257  -14.4564   -2.3374 C   0  0  0  0  0  0  0  0  0  0  0  0
  -17.2080  -14.5994   -3.4582 C   0  0  0  0  0  0  0  0  0  0  0  0
  -17.5552  -13.6865   -4.4921 O   0  0  0  0  0  0  0  0  0  0  0  0
  1 11  1  0  0  0  0
  3 13  1  6  0  0  0
  3 17  2  0  0  0  0
  3 20  1  0  0  0  0
  3 26  1  0  0  0  0
  4 14  1  6  0  0  0
  4 18  1  0  0  0  0
  4 21  2  0  0  0  0
  4 20  1  0  0  0  0
  5 19  1  0  0  0  0
  5  7  1  0  0  0  0
  6  7  2  0  0  0  0
  6 12  1  0  0  0  0
  7  8  1  0  0  0  0
  8  9  1  0  0  0  0
  8 10  2  0  0  0  0
 10 11  1  0  0  0  0
 11 12  2  0  0  0  0
 15 23  1  0  0  0  0
 15 16  1  0  0  0  0
 16 19  1  0  0  0  0
 19 22  1  0  0  0  0
 22  2  1  6  0  0  0
 22 23  1  0  0  0  0
 23 24  1  1  0  0  0
 24 25  1  0  0  0  0
 25 26  1  0  0  0  0
M  CHG  2  13  -1  18  -1
M  END
>  <CHROM.1>
-56.35631927,-65.05220554,81.69998602,-50.62048789,119.82940297,-90.97089603
-83.46544367,-52.80263742,-17.49067460,-12.71256287,-2.54468171,-0.63089918
-0.63851720,-1.59827420

>  <Name>
ligand

>  <RI>
0

>  <Rbt.Current_Directory>
/home/itssahil/PROJECTS/Mol_Feturizer/New_Systems/rnas/2GDI

>  <Rbt.Executable>
rbdock ($Id: //depot/dev/client3/rdock/2013.1/src/exe/rbdock.cxx#4 $)

>  <Rbt.Library>
libRbt.so (2013.1, Build901 2013/11/27)

>  <Rbt.Parameter_File>
/export/apps/rDock/src/rDock_2013.1_src/data/scripts/dock_solv.prm

>  <Rbt.Receptor>
prm/pocket_docking_7.prm

>  <SCORE>
-15.9193

>  <SCORE.INTER>
-17.726

>  <SCORE.INTER.CONST>
1

>  <SCORE.INTER.POLAR>
0

>  <SCORE.INTER.ROT>
8

>  <SCORE.INTER.SOLV>
22.3355

>  <SCORE.INTER.VDW>
-28.1958

>  <SCORE.INTER.norm>
-0.68177

>  <SCORE.INTRA>
1.80624

>  <SCORE.INTRA.DIHEDRAL>
2.00612

>  <SCORE.INTRA.DIHEDRAL.0>
8.13976

>  <SCORE.INTRA.POLAR>
0

>  <SCORE.INTRA.POLAR.0>
0

>  <SCORE.INTRA.REPUL>
0

>  <SCORE.INTRA.REPUL.0>
0

>  <SCORE.INTRA.SOLV>
2.82114

>  <SCORE.INTRA.SOLV.lig_0>
-82.9561

>  <SCORE.INTRA.VDW>
-0.607387

>  <SCORE.INTRA.VDW.0>
-3.29171

>  <SCORE.INTRA.norm>
0.0694707

>  <SCORE.RESTR>
0.000438243

>  <SCORE.RESTR.CAVITY>
0.000438243

>  <SCORE.RESTR.norm>
1.68555e-05

>  <SCORE.SYSTEM>
0

>  <SCORE.SYSTEM.CONST>
0

>  <SCORE.SYSTEM.DIHEDRAL>
0

>  <SCORE.SYSTEM.SOLV>
0

>  <SCORE.SYSTEM.norm>
0

>  <SCORE.heavy>
26

>  <SCORE.norm>
-0.612283

>  <RMSD>
4.958

$$$$
ligand
 OpenBabel11021811433D
libRbt.so/2013.1/901 2013/11/27
 26 27  0  0  0  0  0  0  0  0999 V2000
  -17.1193  -10.9622    2.4626 C   0  0  0  0  0  0  0  0  0  0  0  0
  -20.8458  -17.9049   -0.5536 C   0  0  0  0  0  0  0  0  0  0  0  0
  -24.7067  -16.5964    3.3888 P   0  0  1  0  0  0  0  0  0  0  0  0
  -23.1328  -14.4385    2.2376 P   0  0  1  0  0  0  0  0  0  0  0  0
  -18.6803  -16.0352    0.2577 C   0  0  0  0  0  0  0  0  0  0  0  0
  -19.2004  -13.6839    1.0267 C   0  0  0  0  0  0  0  0  0  0  0  0
  -18.2640  -14.6912    0.8311 C   0  0  0  0  0  0  0  0  0  0  0  0
  -16.9456  -14.4508    1.1819 C   0  0  0  0  0  0  0  0  0  0  0  0
  -15.9965  -15.4024    1.0085 N   0  0  0  0  0  0  0  0  0  0  0  0
  -16.6011  -13.2531    1.7028 N   0  0  0  0  0  0  0  0  0  0  0  0
  -17.5297  -12.2884    1.8820 C   0  0  0  0  0  0  0  0  0  0  0  0
  -18.8241  -12.5058    1.5435 N   0  0  0  0  0  0  0  0  0  0  0  0
  -24.5767  -15.9198    4.7280 O   0  5  0  0  0  0  0  0  0  0  0  0
  -23.1824  -13.7165    0.9262 O   0  0  0  0  0  0  0  0  0  0  0  0
  -20.2647  -17.7710    3.4615 S   0  0  0  0  0  0  0  0  0  0  0  0
  -19.1948  -16.7240    2.5827 C   0  0  0  0  0  0  0  0  0  0  0  0
  -25.9978  -17.3054    3.0970 O   0  0  0  0  0  0  0  0  0  0  0  0
  -23.4646  -13.4872    3.3386 O   0  5  0  0  0  0  0  0  0  0  0  0
  -19.4337  -16.8089    1.2447 N   0  0  0  0  0  0  0  0  0  0  0  0
  -24.3463  -15.5138    2.2377 O   0  0  0  0  0  0  0  0  0  0  0  0
  -21.8823  -15.2300    2.5077 O   0  0  0  0  0  0  0  0  0  0  0  0
  -20.4248  -17.6646    0.8717 C   0  0  1  0  0  0  0  0  0  0  0  0
  -21.0608  -18.3273    2.0424 C   0  0  1  0  0  0  0  0  0  0  0  0
  -22.1674  -19.3336    2.2156 C   0  0  0  0  0  0  0  0  0  0  0  0
  -23.5006  -18.6034    2.1792 C   0  0  0  0  0  0  0  0  0  0  0  0
  -23.5399  -17.6963    3.2741 O   0  0  0  0  0  0  0  0  0  0  0  0
  1 11  1  0  0  0  0
  3 13  1  1  0  0  0
  3 17  2  0  0  0  0
  3 20  1  0  0  0  0
  3 26  1  0  0  0  0
  4 14  1  6  0  0  0
  4 18  1  0  0  0  0
  4 21  2  0  0  0  0
  4 20  1  0  0  0  0
  5 19  1  0  0  0  0
  5  7  1  0  0  0  0
  6  7  2  0  0  0  0
  6 12  1  0  0  0  0
  7  8  1  0  0  0  0
  8  9  1  0  0  0  0
  8 10  2  0  0  0  0
 10 11  1  0  0  0  0
 11 12  2  0  0  0  0
 15 23  1  0  0  0  0
 15 16  1  0  0  0  0
 16 19  1  0  0  0  0
 19 22  1  0  0  0  0
 22  2  1  1  0  0  0
 22 23  1  0  0  0  0
 23 24  1  6  0  0  0
 24 25  1  0  0  0  0
 25 26  1  0  0  0  0
M  CHG  2  13  -1  18  -1
M  END
>  <CHROM.1>
42.77647031,-32.34222778,-72.69733796,177.21716203,98.36752044,-62.36233135
169.84643006,172.75582661,-21.18780497,-15.71050919,2.15922856,0.39956675
0.26709788,0.08296911

>  <Name>
ligand

>  <RI>
0

>  <Rbt.Current_Directory>
/home/itssahil/PROJECTS/Mol_Feturizer/New_Systems/rnas/2GDI

>  <Rbt.Executable>
rbdock ($Id: //depot/dev/client3/rdock/2013.1/src/exe/rbdock.cxx#4 $)

>  <Rbt.Library>
libRbt.so (2013.1, Build901 2013/11/27)

>  <Rbt.Parameter_File>
/export/apps/rDock/src/rDock_2013.1_src/data/scripts/dock_solv.prm

>  <Rbt.Receptor>
prm/pocket_docking_4.prm

>  <SCORE>
-5.75611

>  <SCORE.INTER>
-4.29092

>  <SCORE.INTER.CONST>
1

>  <SCORE.INTER.POLAR>
0

>  <SCORE.INTER.ROT>
8

>  <SCORE.INTER.SOLV>
11.9954

>  <SCORE.INTER.VDW>
-15.7924

>  <SCORE.INTER.norm>
-0.165035

>  <SCORE.INTRA>
-1.46519

>  <SCORE.INTRA.DIHEDRAL>
-2.31482

>  <SCORE.INTRA.DIHEDRAL.0>
8.13976

>  <SCORE.INTRA.POLAR>
0

>  <SCORE.INTRA.POLAR.0>
0

>  <SCORE.INTRA.REPUL>
0

>  <SCORE.INTRA.REPUL.0>
0

>  <SCORE.INTRA.SOLV>
4.24976

>  <SCORE.INTRA.SOLV.lig_0>
-82.9561

>  <SCORE.INTRA.VDW>
-2.43266

>  <SCORE.INTRA.VDW.0>
-3.29171

>  <SCORE.INTRA.norm>
-0.0563535

>  <SCORE.RESTR>
0

>  <SCORE.RESTR.CAVITY>
0

>  <SCORE.RESTR.norm>
0

>  <SCORE.SYSTEM>
0

>  <SCORE.SYSTEM.CONST>
0

>  <SCORE.SYSTEM.DIHEDRAL>
0

>  <SCORE.SYSTEM.SOLV>
0

>  <SCORE.SYSTEM.norm>
0

>  <SCORE.heavy>
26

>  <SCORE.norm>
-0.221389

>  <RMSD>
4.970

$$$$
ligand
 OpenBabel11021811433D
libRbt.so/2013.1/901 2013/11/27
 26 27  0  0  0  0  0  0  0  0999 V2000
  -17.6320  -10.0714    1.0918 C   0  0  0  0  0  0  0  0  0  0  0  0
  -23.2842  -15.6077   -1.6898 C   0  0  0  0  0  0  0  0  0  0  0  0
  -25.3898  -13.0596    1.3003 P   0  0  1  0  0  0  0  0  0  0  0  0
  -25.2877  -15.5388    2.8175 P   0  0  1  0  0  0  0  0  0  0  0  0
  -20.9139  -13.8143   -1.7812 C   0  0  0  0  0  0  0  0  0  0  0  0
  -20.6128  -11.9129   -0.1429 C   0  0  0  0  0  0  0  0  0  0  0  0
  -20.0458  -12.8188   -1.0304 C   0  0  0  0  0  0  0  0  0  0  0  0
  -18.6719  -12.8055   -1.2070 C   0  0  0  0  0  0  0  0  0  0  0  0
  -18.0736  -13.6692   -2.0628 N   0  0  0  0  0  0  0  0  0  0  0  0
  -17.9187  -11.9206   -0.5183 N   0  0  0  0  0  0  0  0  0  0  0  0
  -18.4936  -11.0481    0.3381 C   0  0  0  0  0  0  0  0  0  0  0  0
  -19.8365  -11.0463    0.5225 N   0  0  0  0  0  0  0  0  0  0  0  0
  -26.0484  -11.7267    1.5413 O   0  5  0  0  0  0  0  0  0  0  0  0
  -26.1331  -16.2225    1.7872 O   0  0  0  0  0  0  0  0  0  0  0  0
  -24.2448  -11.7117   -2.3019 S   0  0  0  0  0  0  0  0  0  0  0  0
  -22.5362  -11.9764   -2.1485 C   0  0  0  0  0  0  0  0  0  0  0  0
  -23.9783  -13.0486    0.7880 O   0  0  0  0  0  0  0  0  0  0  0  0
  -23.8463  -15.7447    2.4902 O   0  5  0  0  0  0  0  0  0  0  0  0
  -22.2724  -13.2970   -1.9456 N   0  0  0  0  0  0  0  0  0  0  0  0
  -25.5280  -13.9440    2.6515 O   0  0  0  0  0  0  0  0  0  0  0  0
  -25.6113  -15.8560    4.2520 O   0  0  0  0  0  0  0  0  0  0  0  0
  -23.3566  -14.1192   -1.9034 C   0  0  1  0  0  0  0  0  0  0  0  0
  -24.6295  -13.3769   -2.1109 C   0  0  1  0  0  0  0  0  0  0  0  0
  -26.0836  -13.7642   -2.1595 C   0  0  0  0  0  0  0  0  0  0  0  0
  -26.7810  -13.1952   -0.9339 C   0  0  0  0  0  0  0  0  0  0  0  0
  -26.2683  -13.8574    0.2159 O   0  0  0  0  0  0  0  0  0  0  0  0
  1 11  1  0  0  0  0
  3 13  1  1  0  0  0
  3 17  2  0  0  0  0
  3 20  1  0  0  0  0
  3 26  1  0  0  0  0
  4 14  1  6  0  0  0
  4 18  1  0  0  0  0
  4 21  2  0  0  0  0
  4 20  1  0  0  0  0
  5 19  1  0  0  0  0
  5  7  1  0  0  0  0
  6  7  2  0  0  0  0
  6 12  1  0  0  0  0
  7  8  1  0  0  0  0
  8  9  1  0  0  0  0
  8 10  2  0  0  0  0
 10 11  1  0  0  0  0
 11 12  2  0  0  0  0
 15 23  1  0  0  0  0
 15 16  1  0  0  0  0
 16 19  1  0  0  0  0
 19 22  1  0  0  0  0
 22  2  1  6  0  0  0
 22 23  1  0  0  0  0
 23 24  1  1  0  0  0
 24 25  1  0  0  0  0
 25 26  1  0  0  0  0
M  CHG  2  13  -1  18  -1
M  END
>  <CHROM.1>
165.33046330,35.34262394,26.72508226,-52.99325444,-67.74142461,-66.80485881
113.01693473,43.02058796,-23.21837239,-13.34748839,0.09889590,-0.43295958
0.24435076,1.90503230

>  <Name>
ligand

>  <RI>
0

>  <Rbt.Current_Directory>
/home/itssahil/PROJECTS/Mol_Feturizer/New_Systems/rnas/2GDI

>  <Rbt.Executable>
rbdock ($Id: //depot/dev/client3/rdock/2013.1/src/exe/rbdock.cxx#4 $)

>  <Rbt.Library>
libRbt.so (2013.1, Build901 2013/11/27)

>  <Rbt.Parameter_File>
/export/apps/rDock/src/rDock_2013.1_src/data/scripts/dock_solv.prm

>  <Rbt.Receptor>
prm/pocket_docking_5.prm

>  <SCORE>
-8.31145

>  <SCORE.INTER>
-10.9995

>  <SCORE.INTER.CONST>
1

>  <SCORE.INTER.POLAR>
0

>  <SCORE.INTER.ROT>
8

>  <SCORE.INTER.SOLV>
14.1101

>  <SCORE.INTER.VDW>
-20.9697

>  <SCORE.INTER.norm>
-0.423057

>  <SCORE.INTRA>
2.68804

>  <SCORE.INTRA.DIHEDRAL>
4.93724

>  <SCORE.INTRA.DIHEDRAL.0>
8.13976

>  <SCORE.INTRA.POLAR>
0

>  <SCORE.INTRA.POLAR.0>
0

>  <SCORE.INTRA.REPUL>
0

>  <SCORE.INTRA.REPUL.0>
0

>  <SCORE.INTRA.SOLV>
2.76539

>  <SCORE.INTRA.SOLV.lig_0>
-82.9561

>  <SCORE.INTRA.VDW>
-1.16328

>  <SCORE.INTRA.VDW.0>
-3.29171

>  <SCORE.INTRA.norm>
0.103386

>  <SCORE.RESTR>
0

>  <SCORE.RESTR.CAVITY>
0

>  <SCORE.RESTR.norm>
0

>  <SCORE.SYSTEM>
0

>  <SCORE.SYSTEM.CONST>
0

>  <SCORE.SYSTEM.DIHEDRAL>
0

>  <SCORE.SYSTEM.SOLV>
0

>  <SCORE.SYSTEM.norm>
0

>  <SCORE.heavy>
26

>  <SCORE.norm>
-0.319671

>  <RMSD>
5.137

$$$$
ligand
 OpenBabel11021811433D
libRbt.so/2013.1/901 2013/11/27
 26 27  0  0  0  0  0  0  0  0999 V2000
  -17.6157  -11.2300    2.1707 C   0  0  0  0  0  0  0  0  0  0  0  0
  -23.0302  -15.5333   -2.3280 C   0  0  0  0  0  0  0  0  0  0  0  0
  -25.6733  -13.8995    1.3368 P   0  0  1  0  0  0  0  0  0  0  0  0
  -25.8688  -15.8547    3.4811 P   0  0  1  0  0  0  0  0  0  0  0  0
  -20.6218  -13.8230   -1.9854 C   0  0  0  0  0  0  0  0  0  0  0  0
  -19.6041  -11.7685   -0.9206 C   0  0  0  0  0  0  0  0  0  0  0  0
  -19.8181  -13.1407   -0.8913 C   0  0  0  0  0  0  0  0  0  0  0  0
  -19.2959  -13.8728    0.1624 C   0  0  0  0  0  0  0  0  0  0  0  0
  -19.4776  -15.2138    0.2335 N   0  0  0  0  0  0  0  0  0  0  0  0
  -18.5964  -13.2428    1.1312 N   0  0  0  0  0  0  0  0  0  0  0  0
  -18.4001  -11.9071    1.0797 C   0  0  0  0  0  0  0  0  0  0  0  0
  -18.9030  -11.1753    0.0556 N   0  0  0  0  0  0  0  0  0  0  0  0
  -26.5380  -12.6880    1.5672 O   0  5  0  0  0  0  0  0  0  0  0  0
  -25.6701  -14.7583    4.4822 O   0  0  0  0  0  0  0  0  0  0  0  0
  -23.8896  -11.5697   -2.1612 S   0  0  0  0  0  0  0  0  0  0  0  0
  -22.1928  -11.9058   -2.0166 C   0  0  0  0  0  0  0  0  0  0  0  0
  -24.2130  -13.7766    1.6641 O   0  0  0  0  0  0  0  0  0  0  0  0
  -27.0188  -16.7070    3.9031 O   0  5  0  0  0  0  0  0  0  0  0  0
  -21.9631  -13.2467   -2.0793 N   0  0  0  0  0  0  0  0  0  0  0  0
  -26.3524  -15.1584    2.0991 O   0  0  0  0  0  0  0  0  0  0  0  0
  -24.6455  -16.6573    3.1307 O   0  0  0  0  0  0  0  0  0  0  0  0
  -23.0649  -14.0310   -2.2361 C   0  0  1  0  0  0  0  0  0  0  0  0
  -24.3146  -13.2280   -2.3242 C   0  0  1  0  0  0  0  0  0  0  0  0
  -25.7740  -13.5581   -2.4917 C   0  0  0  0  0  0  0  0  0  0  0  0
  -26.4577  -13.4463   -1.1380 C   0  0  0  0  0  0  0  0  0  0  0  0
  -25.7665  -14.2856   -0.2210 O   0  0  0  0  0  0  0  0  0  0  0  0
  1 11  1  0  0  0  0
  3 13  1  1  0  0  0
  3 17  2  0  0  0  0
  3 20  1  0  0  0  0
  3 26  1  0  0  0  0
  4 14  1  1  0  0  0
  4 18  1  0  0  0  0
  4 21  2  0  0  0  0
  4 20  1  0  0  0  0
  5 19  1  0  0  0  0
  5  7  1  0  0  0  0
  6  7  2  0  0  0  0
  6 12  1  0  0  0  0
  7  8  1  0  0  0  0
  8  9  1  0  0  0  0
  8 10  2  0  0  0  0
 10 11  1  0  0  0  0
 11 12  2  0  0  0  0
 15 23  1  0  0  0  0
 15 16  1  0  0  0  0
 16 19  1  0  0  0  0
 19 22  1  0  0  0  0
 22  2  1  6  0  0  0
 22 23  1  0  0  0  0
 23 24  1  1  0  0  0
 24 25  1  0  0  0  0
 25 26  1  0  0  0  0
M  CHG  2  13  -1  18  -1
M  END
>  <CHROM.1>
-105.08627781,42.84485297,-57.69755208,49.75213776,-76.77932083,-55.21029627
148.29555175,6.42273864,-23.30173429,-13.75209243,0.40584427,-0.49716652
0.21161286,1.94359768

>  <Name>
ligand

>  <RI>
0

>  <Rbt.Current_Directory>
/home/itssahil/PROJECTS/Mol_Feturizer/New_Systems/rnas/2GDI

>  <Rbt.Executable>
rbdock ($Id: //depot/dev/client3/rdock/2013.1/src/exe/rbdock.cxx#4 $)

>  <Rbt.Library>
libRbt.so (2013.1, Build901 2013/11/27)

>  <Rbt.Parameter_File>
/export/apps/rDock/src/rDock_2013.1_src/data/scripts/dock_solv.prm

>  <Rbt.Receptor>
prm/pocket_docking_7.prm

>  <SCORE>
-6.57653

>  <SCORE.INTER>
-9.78274

>  <SCORE.INTER.CONST>
1

>  <SCORE.INTER.POLAR>
0

>  <SCORE.INTER.ROT>
8

>  <SCORE.INTER.SOLV>
18.3726

>  <SCORE.INTER.VDW>
-21.5793

>  <SCORE.INTER.norm>
-0.376259

>  <SCORE.INTRA>
3.19771

>  <SCORE.INTRA.DIHEDRAL>
5.28372

>  <SCORE.INTRA.DIHEDRAL.0>
8.13976

>  <SCORE.INTRA.POLAR>
0

>  <SCORE.INTRA.POLAR.0>
0

>  <SCORE.INTRA.REPUL>
0

>  <SCORE.INTRA.REPUL.0>
0

>  <SCORE.INTRA.SOLV>
0.62704

>  <SCORE.INTRA.SOLV.lig_0>
-82.9561

>  <SCORE.INTRA.VDW>
0.242328

>  <SCORE.INTRA.VDW.0>
-3.29171

>  <SCORE.INTRA.norm>
0.122989

>  <SCORE.RESTR>
0.00850209

>  <SCORE.RESTR.CAVITY>
0.00850209

>  <SCORE.RESTR.norm>
0.000327004

>  <SCORE.SYSTEM>
0

>  <SCORE.SYSTEM.CONST>
0

>  <SCORE.SYSTEM.DIHEDRAL>
0

>  <SCORE.SYSTEM.SOLV>
0

>  <SCORE.SYSTEM.norm>
0

>  <SCORE.heavy>
26

>  <SCORE.norm>
-0.252943

>  <RMSD>
5.231

$$$$
ligand
 OpenBabel11021811433D
libRbt.so/2013.1/901 2013/11/27
 26 27  0  0  0  0  0  0  0  0999 V2000
  -14.5232  -16.1887    0.7079 C   0  0  0  0  0  0  0  0  0  0  0  0
  -20.0951  -12.4342    0.2645 C   0  0  0  0  0  0  0  0  0  0  0  0
  -25.3304  -11.2441    2.0406 P   0  0  1  0  0  0  0  0  0  0  0  0
  -25.3477  -13.0601   -0.2312 P   0  0  1  0  0  0  0  0  0  0  0  0
  -20.1721  -15.3955    0.0046 C   0  0  0  0  0  0  0  0  0  0  0  0
  -18.1512  -15.8789    1.4442 C   0  0  0  0  0  0  0  0  0  0  0  0
  -18.6774  -15.5947    0.1904 C   0  0  0  0  0  0  0  0  0  0  0  0
  -17.8139  -15.5100   -0.8895 C   0  0  0  0  0  0  0  0  0  0  0  0
  -18.2804  -15.2338   -2.1315 N   0  0  0  0  0  0  0  0  0  0  0  0
  -16.4903  -15.7044   -0.7028 N   0  0  0  0  0  0  0  0  0  0  0  0
  -16.0021  -15.9780    0.5268 C   0  0  0  0  0  0  0  0  0  0  0  0
  -16.8323  -16.0637    1.5949 N   0  0  0  0  0  0  0  0  0  0  0  0
  -25.6485   -9.7824    2.2162 O   0  5  0  0  0  0  0  0  0  0  0  0
  -26.1206  -14.1286    0.4790 O   0  0  0  0  0  0  0  0  0  0  0  0
  -21.9299  -14.2699    3.3854 S   0  0  0  0  0  0  0  0  0  0  0  0
  -21.3572  -15.3818    2.1817 C   0  0  0  0  0  0  0  0  0  0  0  0
  -25.9347  -12.2042    3.0243 O   0  0  0  0  0  0  0  0  0  0  0  0
  -25.8861  -12.8963   -1.6134 O   0  5  0  0  0  0  0  0  0  0  0  0
  -20.7519  -14.7130    1.1614 N   0  0  0  0  0  0  0  0  0  0  0  0
  -25.6773  -11.6574    0.5122 O   0  0  0  0  0  0  0  0  0  0  0  0
  -23.8500  -13.1991   -0.2011 O   0  0  0  0  0  0  0  0  0  0  0  0
  -20.7159  -13.3572    1.2790 C   0  0  1  0  0  0  0  0  0  0  0  0
  -21.3494  -12.8887    2.5414 C   0  0  1  0  0  0  0  0  0  0  0  0
  -21.5863  -11.5406    3.1687 C   0  0  0  0  0  0  0  0  0  0  0  0
  -23.0786  -11.3679    3.4042 C   0  0  0  0  0  0  0  0  0  0  0  0
  -23.7358  -11.4199    2.1438 O   0  0  0  0  0  0  0  0  0  0  0  0
  1 11  1  0  0  0  0
  3 13  1  1  0  0  0
  3 17  2  0  0  0  0
  3 20  1  0  0  0  0
  3 26  1  0  0  0  0
  4 14  1  1  0  0  0
  4 18  1  0  0  0  0
  4 21  2  0  0  0  0
  4 20  1  0  0  0  0
  5 19  1  0  0  0  0
  5  7  1  0  0  0  0
  6  7  2  0  0  0  0
  6 12  1  0  0  0  0
  7  8  1  0  0  0  0
  8  9  1  0  0  0  0
  8 10  2  0  0  0  0
 10 11  1  0  0  0  0
 11 12  2  0  0  0  0
 15 23  1  0  0  0  0
 15 16  1  0  0  0  0
 16 19  1  0  0  0  0
 19 22  1  0  0  0  0
 22  2  1  1  0  0  0
 22 23  1  0  0  0  0
 23 24  1  6  0  0  0
 24 25  1  0  0  0  0
 25 26  1  0  0  0  0
M  CHG  2  13  -1  18  -1
M  END
>  <CHROM.1>
171.90946656,-96.56988418,36.23896270,63.79997585,-56.47421907,-61.51101203
-178.99176443,75.93119432,-21.89078871,-13.53976548,1.10626482,-0.26866009
-0.35767324,1.16657667

>  <Name>
ligand

>  <RI>
0

>  <Rbt.Current_Directory>
/home/itssahil/PROJECTS/Mol_Feturizer/New_Systems/rnas/2GDI

>  <Rbt.Executable>
rbdock ($Id: //depot/dev/client3/rdock/2013.1/src/exe/rbdock.cxx#4 $)

>  <Rbt.Library>
libRbt.so (2013.1, Build901 2013/11/27)

>  <Rbt.Parameter_File>
/export/apps/rDock/src/rDock_2013.1_src/data/scripts/dock_solv.prm

>  <Rbt.Receptor>
prm/pocket_docking_7.prm

>  <SCORE>
-16.6833

>  <SCORE.INTER>
-15.0603

>  <SCORE.INTER.CONST>
1

>  <SCORE.INTER.POLAR>
0

>  <SCORE.INTER.ROT>
8

>  <SCORE.INTER.SOLV>
19.5291

>  <SCORE.INTER.VDW>
-25.4832

>  <SCORE.INTER.norm>
-0.579242

>  <SCORE.INTRA>
-1.62305

>  <SCORE.INTRA.DIHEDRAL>
-2.69902

>  <SCORE.INTRA.DIHEDRAL.0>
8.13976

>  <SCORE.INTRA.POLAR>
0

>  <SCORE.INTRA.POLAR.0>
0

>  <SCORE.INTRA.REPUL>
0

>  <SCORE.INTRA.REPUL.0>
0

>  <SCORE.INTRA.SOLV>
1.67661

>  <SCORE.INTRA.SOLV.lig_0>
-82.9561

>  <SCORE.INTRA.VDW>
-1.11185

>  <SCORE.INTRA.VDW.0>
-3.29171

>  <SCORE.INTRA.norm>
-0.0624252

>  <SCORE.RESTR>
0

>  <SCORE.RESTR.CAVITY>
0

>  <SCORE.RESTR.norm>
0

>  <SCORE.SYSTEM>
0

>  <SCORE.SYSTEM.CONST>
0

>  <SCORE.SYSTEM.DIHEDRAL>
0

>  <SCORE.SYSTEM.SOLV>
0

>  <SCORE.SYSTEM.norm>
0

>  <SCORE.heavy>
26

>  <SCORE.norm>
-0.641667

>  <RMSD>
5.255

$$$$
ligand
 OpenBabel11021811433D
libRbt.so/2013.1/901 2013/11/27
 26 27  0  0  0  0  0  0  0  0999 V2000
  -19.8616  -10.8240   -0.6854 C   0  0  0  0  0  0  0  0  0  0  0  0
  -20.3177  -17.4269    3.2711 C   0  0  0  0  0  0  0  0  0  0  0  0
  -24.8750  -16.6668    2.8368 P   0  0  1  0  0  0  0  0  0  0  0  0
  -23.8094  -15.0212    0.6885 P   0  0  1  0  0  0  0  0  0  0  0  0
  -18.5979  -16.0865    1.2490 C   0  0  0  0  0  0  0  0  0  0  0  0
  -20.1771  -14.1315    0.9762 C   0  0  0  0  0  0  0  0  0  0  0  0
  -18.9338  -14.6994    0.7280 C   0  0  0  0  0  0  0  0  0  0  0  0
  -18.0016  -13.9705    0.0079 C   0  0  0  0  0  0  0  0  0  0  0  0
  -16.7761  -14.4831   -0.2600 N   0  0  0  0  0  0  0  0  0  0  0  0
  -18.3176  -12.7336   -0.4335 N   0  0  0  0  0  0  0  0  0  0  0  0
  -19.5342  -12.2033   -0.1809 C   0  0  0  0  0  0  0  0  0  0  0  0
  -20.4589  -12.9027    0.5213 N   0  0  0  0  0  0  0  0  0  0  0  0
  -24.4724  -15.6882    3.9085 O   0  5  0  0  0  0  0  0  0  0  0  0
  -22.6466  -15.9467    0.5013 O   0  0  0  0  0  0  0  0  0  0  0  0
  -21.1477  -18.5540   -0.5391 S   0  0  0  0  0  0  0  0  0  0  0  0
  -19.8635  -17.3907   -0.4369 C   0  0  0  0  0  0  0  0  0  0  0  0
  -26.0983  -17.5004    3.0887 O   0  0  0  0  0  0  0  0  0  0  0  0
  -24.3809  -14.6695   -0.6445 O   0  5  0  0  0  0  0  0  0  0  0  0
  -19.6282  -17.0497    0.8605 N   0  0  0  0  0  0  0  0  0  0  0  0
  -24.9773  -15.8651    1.4319 O   0  0  0  0  0  0  0  0  0  0  0  0
  -23.5599  -13.8154    1.5528 O   0  0  0  0  0  0  0  0  0  0  0  0
  -20.4148  -17.6625    1.7873 C   0  0  1  0  0  0  0  0  0  0  0  0
  -21.3770  -18.6114    1.1642 C   0  0  1  0  0  0  0  0  0  0  0  0
  -22.4499  -19.5273    1.6906 C   0  0  0  0  0  0  0  0  0  0  0  0
  -23.7709  -18.7743    1.7033 C   0  0  0  0  0  0  0  0  0  0  0  0
  -23.6554  -17.6910    2.6178 O   0  0  0  0  0  0  0  0  0  0  0  0
  1 11  1  0  0  0  0
  3 13  1  1  0  0  0
  3 17  2  0  0  0  0
  3 20  1  0  0  0  0
  3 26  1  0  0  0  0
  4 14  1  6  0  0  0
  4 18  1  0  0  0  0
  4 21  2  0  0  0  0
  4 20  1  0  0  0  0
  5 19  1  0  0  0  0
  5  7  1  0  0  0  0
  6  7  2  0  0  0  0
  6 12  1  0  0  0  0
  7  8  1  0  0  0  0
  8  9  1  0  0  0  0
  8 10  2  0  0  0  0
 10 11  1  0  0  0  0
 11 12  2  0  0  0  0
 15 23  1  0  0  0  0
 15 16  1  0  0  0  0
 16 19  1  0  0  0  0
 19 22  1  0  0  0  0
 22  2  1  1  0  0  0
 22 23  1  0  0  0  0
 23 24  1  6  0  0  0
 24 25  1  0  0  0  0
 25 26  1  0  0  0  0
M  CHG  2  13  -1  18  -1
M  END
>  <CHROM.1>
58.39408970,65.42215606,52.08188849,55.77775069,-87.24714552,-63.86245291
178.31653432,177.05558304,-21.82857719,-15.89622646,1.08412643,0.57821585
0.28836104,-0.16488019

>  <Name>
ligand

>  <RI>
0

>  <Rbt.Current_Directory>
/home/itssahil/PROJECTS/Mol_Feturizer/New_Systems/rnas/2GDI

>  <Rbt.Executable>
rbdock ($Id: //depot/dev/client3/rdock/2013.1/src/exe/rbdock.cxx#4 $)

>  <Rbt.Library>
libRbt.so (2013.1, Build901 2013/11/27)

>  <Rbt.Parameter_File>
/export/apps/rDock/src/rDock_2013.1_src/data/scripts/dock_solv.prm

>  <Rbt.Receptor>
prm/pocket_docking_5.prm

>  <SCORE>
-6.6165

>  <SCORE.INTER>
-1.85973

>  <SCORE.INTER.CONST>
1

>  <SCORE.INTER.POLAR>
0

>  <SCORE.INTER.ROT>
8

>  <SCORE.INTER.SOLV>
9.57096

>  <SCORE.INTER.VDW>
-13.3635

>  <SCORE.INTER.norm>
-0.0715282

>  <SCORE.INTRA>
-4.75677

>  <SCORE.INTRA.DIHEDRAL>
-3.02577

>  <SCORE.INTRA.DIHEDRAL.0>
8.13976

>  <SCORE.INTRA.POLAR>
0

>  <SCORE.INTRA.POLAR.0>
0

>  <SCORE.INTRA.REPUL>
0

>  <SCORE.INTRA.REPUL.0>
0

>  <SCORE.INTRA.SOLV>
-0.224499

>  <SCORE.INTRA.SOLV.lig_0>
-82.9561

>  <SCORE.INTRA.VDW>
-3.13163

>  <SCORE.INTRA.VDW.0>
-3.29171

>  <SCORE.INTRA.norm>
-0.182953

>  <SCORE.RESTR>
0

>  <SCORE.RESTR.CAVITY>
0

>  <SCORE.RESTR.norm>
0

>  <SCORE.SYSTEM>
0

>  <SCORE.SYSTEM.CONST>
0

>  <SCORE.SYSTEM.DIHEDRAL>
0

>  <SCORE.SYSTEM.SOLV>
0

>  <SCORE.SYSTEM.norm>
0

>  <SCORE.heavy>
26

>  <SCORE.norm>
-0.254481

>  <RMSD>
5.351

$$$$
ligand
 OpenBabel11021811433D
libRbt.so/2013.1/901 2013/11/27
 26 27  0  0  0  0  0  0  0  0999 V2000
  -12.4727  -13.4131    0.4349 C   0  0  0  0  0  0  0  0  0  0  0  0
  -17.5304  -10.8610    2.3910 C   0  0  0  0  0  0  0  0  0  0  0  0
  -22.6497  -10.6797    5.1517 P   0  0  1  0  0  0  0  0  0  0  0  0
  -22.6576  -10.4285    8.0492 P   0  0  1  0  0  0  0  0  0  0  0  0
  -16.8131   -9.7092   -0.2552 C   0  0  0  0  0  0  0  0  0  0  0  0
  -14.4155  -10.2482    0.3376 C   0  0  0  0  0  0  0  0  0  0  0  0
  -15.6641  -10.6883   -0.0832 C   0  0  0  0  0  0  0  0  0  0  0  0
  -15.8445  -12.0395   -0.3298 C   0  0  0  0  0  0  0  0  0  0  0  0
  -17.0441  -12.5156   -0.7431 N   0  0  0  0  0  0  0  0  0  0  0  0
  -14.8123  -12.8934   -0.1568 N   0  0  0  0  0  0  0  0  0  0  0  0
  -13.6067  -12.4410    0.2517 C   0  0  0  0  0  0  0  0  0  0  0  0
  -13.4119  -11.1222    0.4966 N   0  0  0  0  0  0  0  0  0  0  0  0
  -24.0660  -11.1834    5.0578 O   0  5  0  0  0  0  0  0  0  0  0  0
  -21.6499  -10.7770    9.1012 O   0  0  0  0  0  0  0  0  0  0  0  0
  -20.4337  -11.3388   -0.4052 S   0  0  0  0  0  0  0  0  0  0  0  0
  -19.0366  -10.5043   -1.0092 C   0  0  0  0  0  0  0  0  0  0  0  0
  -22.3993   -9.2505    4.7650 O   0  0  0  0  0  0  0  0  0  0  0  0
  -22.6952   -8.9472    7.8720 O   0  5  0  0  0  0  0  0  0  0  0  0
  -18.0975  -10.3728   -0.0316 N   0  0  0  0  0  0  0  0  0  0  0  0
  -22.0957  -11.0016    6.6404 O   0  0  0  0  0  0  0  0  0  0  0  0
  -24.0256  -11.0304    8.2214 O   0  0  0  0  0  0  0  0  0  0  0  0
  -18.4246  -10.8996    1.1804 C   0  0  1  0  0  0  0  0  0  0  0  0
  -19.7689  -11.5376    1.1682 C   0  0  1  0  0  0  0  0  0  0  0  0
  -20.6106  -12.2500    2.1934 C   0  0  0  0  0  0  0  0  0  0  0  0
  -21.5723  -11.2495    2.8151 C   0  0  0  0  0  0  0  0  0  0  0  0
  -21.7368  -11.5857    4.1873 O   0  0  0  0  0  0  0  0  0  0  0  0
  1 11  1  0  0  0  0
  3 13  1  6  0  0  0
  3 17  2  0  0  0  0
  3 20  1  0  0  0  0
  3 26  1  0  0  0  0
  4 14  1  1  0  0  0
  4 18  1  0  0  0  0
  4 21  2  0  0  0  0
  4 20  1  0  0  0  0
  5 19  1  0  0  0  0
  5  7  1  0  0  0  0
  6  7  2  0  0  0  0
  6 12  1  0  0  0  0
  7  8  1  0  0  0  0
  8  9  1  0  0  0  0
  8 10  2  0  0  0  0
 10 11  1  0  0  0  0
 11 12  2  0  0  0  0
 15 23  1  0  0  0  0
 15 16  1  0  0  0  0
 16 19  1  0  0  0  0
 19 22  1  0  0  0  0
 22  2  1  6  0  0  0
 22 23  1  0  0  0  0
 23 24  1  1  0  0  0
 24 25  1  0  0  0  0
 25 26  1  0  0  0  0
M  CHG  2  13  -1  18  -1
M  END
>  <CHROM.1>
-62.84126193,-116.33674605,-151.34372552,-168.20506149,-83.54297261,-144.57434782
177.38726465,87.90599274,-19.52298299,-11.06160276,2.99019417,-0.76471227
-0.11097291,1.52621590

>  <Name>
ligand

>  <RI>
0

>  <Rbt.Current_Directory>
/home/itssahil/PROJECTS/Mol_Feturizer/New_Systems/rnas/2GDI

>  <Rbt.Executable>
rbdock ($Id: //depot/dev/client3/rdock/2013.1/src/exe/rbdock.cxx#4 $)

>  <Rbt.Library>
libRbt.so (2013.1, Build901 2013/11/27)

>  <Rbt.Parameter_File>
/export/apps/rDock/src/rDock_2013.1_src/data/scripts/dock_solv.prm

>  <Rbt.Receptor>
prm/blind_docking_40.prm

>  <SCORE>
-15.353

>  <SCORE.INTER>
-20.1546

>  <SCORE.INTER.CONST>
1

>  <SCORE.INTER.POLAR>
0

>  <SCORE.INTER.ROT>
8

>  <SCORE.INTER.SOLV>
16.6641

>  <SCORE.INTER.VDW>
-27.9244

>  <SCORE.INTER.norm>
-0.775177

>  <SCORE.INTRA>
4.80113

>  <SCORE.INTRA.DIHEDRAL>
1.34634

>  <SCORE.INTRA.DIHEDRAL.0>
8.13976

>  <SCORE.INTRA.POLAR>
0

>  <SCORE.INTRA.POLAR.0>
0

>  <SCORE.INTRA.REPUL>
0

>  <SCORE.INTRA.REPUL.0>
0

>  <SCORE.INTRA.SOLV>
6.82739

>  <SCORE.INTRA.SOLV.lig_0>
-82.9561

>  <SCORE.INTRA.VDW>
0.71426

>  <SCORE.INTRA.VDW.0>
-3.29171

>  <SCORE.INTRA.norm>
0.184659

>  <SCORE.RESTR>
0.000460094

>  <SCORE.RESTR.CAVITY>
0.000460094

>  <SCORE.RESTR.norm>
1.76959e-05

>  <SCORE.SYSTEM>
0

>  <SCORE.SYSTEM.CONST>
0

>  <SCORE.SYSTEM.DIHEDRAL>
0

>  <SCORE.SYSTEM.SOLV>
0

>  <SCORE.SYSTEM.norm>
0

>  <SCORE.heavy>
26

>  <SCORE.norm>
-0.5905

>  <RMSD>
5.463

$$$$
ligand
 OpenBabel11021811433D
libRbt.so/2013.1/901 2013/11/27
 26 27  0  0  0  0  0  0  0  0999 V2000
  -15.4565  -15.4112   -5.4519 C   0  0  0  0  0  0  0  0  0  0  0  0
  -22.7421  -14.8763   -3.1597 C   0  0  0  0  0  0  0  0  0  0  0  0
  -25.4600  -12.7637    0.7257 P   0  0  1  0  0  0  0  0  0  0  0  0
  -23.3473  -13.0678    2.7013 P   0  0  1  0  0  0  0  0  0  0  0  0
  -20.0773  -15.5718   -2.0379 C   0  0  0  0  0  0  0  0  0  0  0  0
  -18.1753  -14.3400   -3.1583 C   0  0  0  0  0  0  0  0  0  0  0  0
  -18.8621  -15.5292   -2.9489 C   0  0  0  0  0  0  0  0  0  0  0  0
  -18.4090  -16.6781   -3.5763 C   0  0  0  0  0  0  0  0  0  0  0  0
  -19.0469  -17.8611   -3.4033 N   0  0  0  0  0  0  0  0  0  0  0  0
  -17.3183  -16.6191   -4.3709 N   0  0  0  0  0  0  0  0  0  0  0  0
  -16.6680  -15.4502   -4.5604 C   0  0  0  0  0  0  0  0  0  0  0  0
  -17.0979  -14.3160   -3.9553 N   0  0  0  0  0  0  0  0  0  0  0  0
  -26.3760  -13.7274    0.0181 O   0  5  0  0  0  0  0  0  0  0  0  0
  -23.7086  -11.7159    3.2354 O   0  0  0  0  0  0  0  0  0  0  0  0
  -20.9695  -11.7899   -1.2082 S   0  0  0  0  0  0  0  0  0  0  0  0
  -20.0099  -13.2363   -1.2097 C   0  0  0  0  0  0  0  0  0  0  0  0
  -26.0799  -11.5294    1.3147 O   0  0  0  0  0  0  0  0  0  0  0  0
  -23.2365  -14.0334    3.8338 O   0  5  0  0  0  0  0  0  0  0  0  0
  -20.6512  -14.2358   -1.8764 N   0  0  0  0  0  0  0  0  0  0  0  0
  -24.6109  -13.5914    1.8307 O   0  0  0  0  0  0  0  0  0  0  0  0
  -22.1623  -13.1159    1.7756 O   0  0  0  0  0  0  0  0  0  0  0  0
  -21.8713  -13.9189   -2.3904 C   0  0  1  0  0  0  0  0  0  0  0  0
  -22.2419  -12.5036   -2.1185 C   0  0  1  0  0  0  0  0  0  0  0  0
  -23.4347  -11.6425   -2.4392 C   0  0  0  0  0  0  0  0  0  0  0  0
  -24.6500  -12.2054   -1.7192 C   0  0  0  0  0  0  0  0  0  0  0  0
  -24.3537  -12.2664   -0.3294 O   0  0  0  0  0  0  0  0  0  0  0  0
  1 11  1  0  0  0  0
  3 13  1  6  0  0  0
  3 17  2  0  0  0  0
  3 20  1  0  0  0  0
  3 26  1  0  0  0  0
  4 14  1  1  0  0  0
  4 18  1  0  0  0  0
  4 21  2  0  0  0  0
  4 20  1  0  0  0  0
  5 19  1  0  0  0  0
  5  7  1  0  0  0  0
  6  7  2  0  0  0  0
  6 12  1  0  0  0  0
  7  8  1  0  0  0  0
  8  9  1  0  0  0  0
  8 10  2  0  0  0  0
 10 11  1  0  0  0  0
 11 12  2  0  0  0  0
 15 23  1  0  0  0  0
 15 16  1  0  0  0  0
 16 19  1  0  0  0  0
 19 22  1  0  0  0  0
 22  2  1  6  0  0  0
 22 23  1  0  0  0  0
 23 24  1  1  0  0  0
 24 25  1  0  0  0  0
 25 26  1  0  0  0  0
M  CHG  2  13  -1  18  -1
M  END
>  <CHROM.1>
170.38341531,-68.00340939,20.84329455,46.25019663,-114.34203716,56.42181623
177.48296412,28.89291122,-21.79814489,-13.69938961,-0.93830734,-0.61390204
-0.43030247,1.61783849

>  <Name>
ligand

>  <RI>
0

>  <Rbt.Current_Directory>
/home/itssahil/PROJECTS/Mol_Feturizer/New_Systems/rnas/2GDI

>  <Rbt.Executable>
rbdock ($Id: //depot/dev/client3/rdock/2013.1/src/exe/rbdock.cxx#4 $)

>  <Rbt.Library>
libRbt.so (2013.1, Build901 2013/11/27)

>  <Rbt.Parameter_File>
/export/apps/rDock/src/rDock_2013.1_src/data/scripts/dock_solv.prm

>  <Rbt.Receptor>
prm/pocket_docking_8.prm

>  <SCORE>
-8.53102

>  <SCORE.INTER>
-6.97925

>  <SCORE.INTER.CONST>
1

>  <SCORE.INTER.POLAR>
0

>  <SCORE.INTER.ROT>
8

>  <SCORE.INTER.SOLV>
12.1014

>  <SCORE.INTER.VDW>
-17.62

>  <SCORE.INTER.norm>
-0.268433

>  <SCORE.INTRA>
-1.55176

>  <SCORE.INTRA.DIHEDRAL>
-1.53249

>  <SCORE.INTRA.DIHEDRAL.0>
8.13976

>  <SCORE.INTRA.POLAR>
0

>  <SCORE.INTRA.POLAR.0>
0

>  <SCORE.INTRA.REPUL>
0

>  <SCORE.INTRA.REPUL.0>
0

>  <SCORE.INTRA.SOLV>
-0.278646

>  <SCORE.INTRA.SOLV.lig_0>
-82.9561

>  <SCORE.INTRA.VDW>
-0.646192

>  <SCORE.INTRA.VDW.0>
-3.29171

>  <SCORE.INTRA.norm>
-0.0596831

>  <SCORE.RESTR>
0

>  <SCORE.RESTR.CAVITY>
0

>  <SCORE.RESTR.norm>
0

>  <SCORE.SYSTEM>
0

>  <SCORE.SYSTEM.CONST>
0

>  <SCORE.SYSTEM.DIHEDRAL>
0

>  <SCORE.SYSTEM.SOLV>
0

>  <SCORE.SYSTEM.norm>
0

>  <SCORE.heavy>
26

>  <SCORE.norm>
-0.328116

>  <RMSD>
5.950

$$$$
ligand
 OpenBabel11021811433D
libRbt.so/2013.1/901 2013/11/27
 26 27  0  0  0  0  0  0  0  0999 V2000
  -19.2207  -18.2263   -2.0011 C   0  0  0  0  0  0  0  0  0  0  0  0
  -22.3036  -13.0099    1.3798 C   0  0  0  0  0  0  0  0  0  0  0  0
  -25.1465  -16.0752    1.8312 P   0  0  1  0  0  0  0  0  0  0  0  0
  -23.7529  -16.8061   -0.6146 P   0  0  1  0  0  0  0  0  0  0  0  0
  -20.5562  -12.7249   -1.0094 C   0  0  0  0  0  0  0  0  0  0  0  0
  -20.9271  -14.9317   -2.1852 C   0  0  0  0  0  0  0  0  0  0  0  0
  -20.2082  -14.1820   -1.2627 C   0  0  0  0  0  0  0  0  0  0  0  0
  -19.1594  -14.7853   -0.5883 C   0  0  0  0  0  0  0  0  0  0  0  0
  -18.4302  -14.0947    0.3215 N   0  0  0  0  0  0  0  0  0  0  0  0
  -18.8594  -16.0781   -0.8399 N   0  0  0  0  0  0  0  0  0  0  0  0
  -19.5744  -16.7872   -1.7406 C   0  0  0  0  0  0  0  0  0  0  0  0
  -20.6046  -16.2133   -2.4089 N   0  0  0  0  0  0  0  0  0  0  0  0
  -26.5437  -16.2914    2.3506 O   0  5  0  0  0  0  0  0  0  0  0  0
  -23.5738  -15.3890   -1.0656 O   0  0  0  0  0  0  0  0  0  0  0  0
  -24.3409  -12.0116   -1.9861 S   0  0  0  0  0  0  0  0  0  0  0  0
  -22.6334  -12.1809   -2.2480 C   0  0  0  0  0  0  0  0  0  0  0  0
  -24.0089  -16.4242    2.7471 O   0  0  0  0  0  0  0  0  0  0  0  0
  -22.5832  -17.2111    0.2191 O   0  5  0  0  0  0  0  0  0  0  0  0
  -22.0019  -12.5157   -1.0887 N   0  0  0  0  0  0  0  0  0  0  0  0
  -25.0156  -16.8284    0.4021 O   0  0  0  0  0  0  0  0  0  0  0  0
  -24.0751  -17.8053   -1.6921 O   0  0  0  0  0  0  0  0  0  0  0  0
  -22.8006  -12.6465    0.0060 C   0  0  1  0  0  0  0  0  0  0  0  0
  -24.2333  -12.4045   -0.3154 C   0  0  1  0  0  0  0  0  0  0  0  0
  -25.5114  -12.4118    0.4805 C   0  0  0  0  0  0  0  0  0  0  0  0
  -25.9588  -13.8525    0.6714 C   0  0  0  0  0  0  0  0  0  0  0  0
  -24.9878  -14.5166    1.4709 O   0  0  0  0  0  0  0  0  0  0  0  0
  1 11  1  0  0  0  0
  3 13  1  1  0  0  0
  3 17  2  0  0  0  0
  3 20  1  0  0  0  0
  3 26  1  0  0  0  0
  4 14  1  6  0  0  0
  4 18  1  0  0  0  0
  4 21  2  0  0  0  0
  4 20  1  0  0  0  0
  5 19  1  0  0  0  0
  5  7  1  0  0  0  0
  6  7  2  0  0  0  0
  6 12  1  0  0  0  0
  7  8  1  0  0  0  0
  8  9  1  0  0  0  0
  8 10  2  0  0  0  0
 10 11  1  0  0  0  0
 11 12  2  0  0  0  0
 15 23  1  0  0  0  0
 15 16  1  0  0  0  0
 16 19  1  0  0  0  0
 19 22  1  0  0  0  0
 22  2  1  6  0  0  0
 22 23  1  0  0  0  0
 23 24  1  1  0  0  0
 24 25  1  0  0  0  0
 25 26  1  0  0  0  0
M  CHG  2  13  -1  18  -1
M  END
>  <CHROM.1>
175.04340736,-90.64429748,35.99209667,-62.97161128,101.80918590,65.01386603
-178.53796558,-49.60186509,-22.89799801,-14.94912474,-0.28396643,-0.02727040
-0.41332032,2.93015896

>  <Name>
ligand

>  <RI>
0

>  <Rbt.Current_Directory>
/home/itssahil/PROJECTS/Mol_Feturizer/New_Systems/rnas/2GDI

>  <Rbt.Executable>
rbdock ($Id: //depot/dev/client3/rdock/2013.1/src/exe/rbdock.cxx#4 $)

>  <Rbt.Library>
libRbt.so (2013.1, Build901 2013/11/27)

>  <Rbt.Parameter_File>
/export/apps/rDock/src/rDock_2013.1_src/data/scripts/dock_solv.prm

>  <Rbt.Receptor>
prm/pocket_docking_6.prm

>  <SCORE>
-8.51986

>  <SCORE.INTER>
-4.04161

>  <SCORE.INTER.CONST>
1

>  <SCORE.INTER.POLAR>
0

>  <SCORE.INTER.ROT>
8

>  <SCORE.INTER.SOLV>
12.5938

>  <SCORE.INTER.VDW>
-15.8257

>  <SCORE.INTER.norm>
-0.155446

>  <SCORE.INTRA>
-4.47825

>  <SCORE.INTRA.DIHEDRAL>
-3.14253

>  <SCORE.INTRA.DIHEDRAL.0>
8.13976

>  <SCORE.INTRA.POLAR>
0

>  <SCORE.INTRA.POLAR.0>
0

>  <SCORE.INTRA.REPUL>
0

>  <SCORE.INTRA.REPUL.0>
0

>  <SCORE.INTRA.SOLV>
1.92038

>  <SCORE.INTRA.SOLV.lig_0>
-82.9561

>  <SCORE.INTRA.VDW>
-3.86718

>  <SCORE.INTRA.VDW.0>
-3.29171

>  <SCORE.INTRA.norm>
-0.17224

>  <SCORE.RESTR>
0

>  <SCORE.RESTR.CAVITY>
0

>  <SCORE.RESTR.norm>
0

>  <SCORE.SYSTEM>
0

>  <SCORE.SYSTEM.CONST>
0

>  <SCORE.SYSTEM.DIHEDRAL>
0

>  <SCORE.SYSTEM.SOLV>
0

>  <SCORE.SYSTEM.norm>
0

>  <SCORE.heavy>
26

>  <SCORE.norm>
-0.327687

>  <RMSD>
5.958

$$$$
ligand
 OpenBabel11021811433D
libRbt.so/2013.1/901 2013/11/27
 26 27  0  0  0  0  0  0  0  0999 V2000
  -20.0278  -15.6199   -4.2259 C   0  0  0  0  0  0  0  0  0  0  0  0
  -21.6388  -11.5114    3.1880 C   0  0  0  0  0  0  0  0  0  0  0  0
  -24.3935  -15.2839    5.0674 P   0  0  1  0  0  0  0  0  0  0  0  0
  -22.2621  -16.0782    3.2549 P   0  0  1  0  0  0  0  0  0  0  0  0
  -20.8020  -12.4135    0.4808 C   0  0  0  0  0  0  0  0  0  0  0  0
  -21.3048  -12.9960   -1.9272 C   0  0  0  0  0  0  0  0  0  0  0  0
  -20.6037  -13.2686   -0.7594 C   0  0  0  0  0  0  0  0  0  0  0  0
  -19.7100  -14.3270   -0.7520 C   0  0  0  0  0  0  0  0  0  0  0  0
  -19.0043  -14.6320    0.3639 N   0  0  0  0  0  0  0  0  0  0  0  0
  -19.5398  -15.0649   -1.8705 N   0  0  0  0  0  0  0  0  0  0  0  0
  -20.2347  -14.7812   -2.9939 C   0  0  0  0  0  0  0  0  0  0  0  0
  -21.1140  -13.7500   -3.0187 N   0  0  0  0  0  0  0  0  0  0  0  0
  -25.4847  -16.0206    4.3358 O   0  5  0  0  0  0  0  0  0  0  0  0
  -21.5859  -14.7639    3.0126 O   0  0  0  0  0  0  0  0  0  0  0  0
  -24.7504  -12.6624    0.8492 S   0  0  0  0  0  0  0  0  0  0  0  0
  -23.2131  -12.8012    0.0551 C   0  0  0  0  0  0  0  0  0  0  0  0
  -24.5587  -15.1006    6.5486 O   0  0  0  0  0  0  0  0  0  0  0  0
  -21.2296  -17.1454    3.4042 O   0  5  0  0  0  0  0  0  0  0  0  0
  -22.2083  -12.4032    0.8838 N   0  0  0  0  0  0  0  0  0  0  0  0
  -22.9784  -15.9870    4.7066 O   0  0  0  0  0  0  0  0  0  0  0  0
  -23.3488  -16.4497    2.2831 O   0  0  0  0  0  0  0  0  0  0  0  0
  -22.5899  -11.9899    2.1236 C   0  0  1  0  0  0  0  0  0  0  0  0
  -24.0629  -12.0814    2.3144 C   0  0  1  0  0  0  0  0  0  0  0  0
  -25.0040  -11.7663    3.4467 C   0  0  0  0  0  0  0  0  0  0  0  0
  -25.4420  -13.0706    4.0941 C   0  0  0  0  0  0  0  0  0  0  0  0
  -24.2760  -13.8126    4.4303 O   0  0  0  0  0  0  0  0  0  0  0  0
  1 11  1  0  0  0  0
  3 13  1  6  0  0  0
  3 17  2  0  0  0  0
  3 20  1  0  0  0  0
  3 26  1  0  0  0  0
  4 14  1  6  0  0  0
  4 18  1  0  0  0  0
  4 21  2  0  0  0  0
  4 20  1  0  0  0  0
  5 19  1  0  0  0  0
  5  7  1  0  0  0  0
  6  7  2  0  0  0  0
  6 12  1  0  0  0  0
  7  8  1  0  0  0  0
  8  9  1  0  0  0  0
  8 10  2  0  0  0  0
 10 11  1  0  0  0  0
 11 12  2  0  0  0  0
 15 23  1  0  0  0  0
 15 16  1  0  0  0  0
 16 19  1  0  0  0  0
 19 22  1  0  0  0  0
 22  2  1  1  0  0  0
 22 23  1  0  0  0  0
 23 24  1  6  0  0  0
 24 25  1  0  0  0  0
 25 26  1  0  0  0  0
M  CHG  2  13  -1  18  -1
M  END
>  <CHROM.1>
63.79260548,-16.22581316,57.21225808,80.10449624,76.92362171,52.81327150
-176.84266252,41.64283664,-22.59065098,-14.21715506,1.83413586,-0.72388926
-0.83355520,2.35887188

>  <Name>
ligand

>  <RI>
0

>  <Rbt.Current_Directory>
/home/itssahil/PROJECTS/Mol_Feturizer/New_Systems/rnas/2GDI

>  <Rbt.Executable>
rbdock ($Id: //depot/dev/client3/rdock/2013.1/src/exe/rbdock.cxx#4 $)

>  <Rbt.Library>
libRbt.so (2013.1, Build901 2013/11/27)

>  <Rbt.Parameter_File>
/export/apps/rDock/src/rDock_2013.1_src/data/scripts/dock_solv.prm

>  <Rbt.Receptor>
prm/pocket_docking_5.prm

>  <SCORE>
-5.43628

>  <SCORE.INTER>
-3.90403

>  <SCORE.INTER.CONST>
1

>  <SCORE.INTER.POLAR>
0

>  <SCORE.INTER.ROT>
8

>  <SCORE.INTER.SOLV>
10.8373

>  <SCORE.INTER.VDW>
-15.1484

>  <SCORE.INTER.norm>
-0.150155

>  <SCORE.INTRA>
-1.53614

>  <SCORE.INTRA.DIHEDRAL>
-1.42838

>  <SCORE.INTRA.DIHEDRAL.0>
8.13976

>  <SCORE.INTRA.POLAR>
0

>  <SCORE.INTRA.POLAR.0>
0

>  <SCORE.INTRA.REPUL>
0

>  <SCORE.INTRA.REPUL.0>
0

>  <SCORE.INTRA.SOLV>
0.435276

>  <SCORE.INTRA.SOLV.lig_0>
-82.9561

>  <SCORE.INTRA.VDW>
-1.03959

>  <SCORE.INTRA.VDW.0>
-3.29171

>  <SCORE.INTRA.norm>
-0.0590823

>  <SCORE.RESTR>
0.00388994

>  <SCORE.RESTR.CAVITY>
0.00388994

>  <SCORE.RESTR.norm>
0.000149613

>  <SCORE.SYSTEM>
0

>  <SCORE.SYSTEM.CONST>
0

>  <SCORE.SYSTEM.DIHEDRAL>
0

>  <SCORE.SYSTEM.SOLV>
0

>  <SCORE.SYSTEM.norm>
0

>  <SCORE.heavy>
26

>  <SCORE.norm>
-0.209088

>  <RMSD>
6.042

$$$$
ligand
 OpenBabel11021811433D
libRbt.so/2013.1/901 2013/11/27
 26 27  0  0  0  0  0  0  0  0999 V2000
  -18.3393  -12.5648   -8.4171 C   0  0  0  0  0  0  0  0  0  0  0  0
  -18.2325  -13.7758   -0.9802 C   0  0  0  0  0  0  0  0  0  0  0  0
  -22.4823  -11.2036    3.8341 P   0  0  1  0  0  0  0  0  0  0  0  0
  -24.9458  -11.0079    2.3006 P   0  0  1  0  0  0  0  0  0  0  0  0
  -19.5740  -14.9752   -3.3477 C   0  0  0  0  0  0  0  0  0  0  0  0
  -20.2435  -14.1099   -5.6265 C   0  0  0  0  0  0  0  0  0  0  0  0
  -19.2441  -14.3473   -4.6913 C   0  0  0  0  0  0  0  0  0  0  0  0
  -17.9430  -13.9879   -5.0026 C   0  0  0  0  0  0  0  0  0  0  0  0
  -16.9346  -14.2008   -4.1229 N   0  0  0  0  0  0  0  0  0  0  0  0
  -17.6755  -13.4183   -6.1979 N   0  0  0  0  0  0  0  0  0  0  0  0
  -18.6644  -13.1991   -7.0919 C   0  0  0  0  0  0  0  0  0  0  0  0
  -19.9430  -13.5454   -6.8045 N   0  0  0  0  0  0  0  0  0  0  0  0
  -21.9819  -10.3799    4.9916 O   0  5  0  0  0  0  0  0  0  0  0  0
  -24.3832  -11.8325    1.1839 O   0  0  0  0  0  0  0  0  0  0  0  0
  -22.0448  -12.4786   -1.4904 S   0  0  0  0  0  0  0  0  0  0  0  0
  -21.5440  -13.6161   -2.7022 C   0  0  0  0  0  0  0  0  0  0  0  0
  -22.8640  -12.6283    4.1158 O   0  0  0  0  0  0  0  0  0  0  0  0
  -25.6370  -11.9017    3.2756 O   0  5  0  0  0  0  0  0  0  0  0  0
  -20.2611  -14.0165   -2.4822 N   0  0  0  0  0  0  0  0  0  0  0  0
  -23.6896  -10.3917    3.1198 O   0  0  0  0  0  0  0  0  0  0  0  0
  -25.7871   -9.8298    1.8913 O   0  0  0  0  0  0  0  0  0  0  0  0
  -19.6456  -13.4682   -1.3987 C   0  0  1  0  0  0  0  0  0  0  0  0
  -20.5403  -12.5365   -0.6598 C   0  0  1  0  0  0  0  0  0  0  0  0
  -20.3912  -11.6787    0.5686 C   0  0  0  0  0  0  0  0  0  0  0  0
  -21.4343  -12.1041    1.5900 C   0  0  0  0  0  0  0  0  0  0  0  0
  -21.3240  -11.2476    2.7201 O   0  0  0  0  0  0  0  0  0  0  0  0
  1 11  1  0  0  0  0
  3 13  1  1  0  0  0
  3 17  2  0  0  0  0
  3 20  1  0  0  0  0
  3 26  1  0  0  0  0
  4 14  1  6  0  0  0
  4 18  1  0  0  0  0
  4 21  2  0  0  0  0
  4 20  1  0  0  0  0
  5 19  1  0  0  0  0
  5  7  1  0  0  0  0
  6  7  2  0  0  0  0
  6 12  1  0  0  0  0
  7  8  1  0  0  0  0
  8  9  1  0  0  0  0
  8 10  2  0  0  0  0
 10 11  1  0  0  0  0
 11 12  2  0  0  0  0
 15 23  1  0  0  0  0
 15 16  1  0  0  0  0
 16 19  1  0  0  0  0
 19 22  1  0  0  0  0
 22  2  1  1  0  0  0
 22 23  1  0  0  0  0
 23 24  1  6  0  0  0
 24 25  1  0  0  0  0
 25 26  1  0  0  0  0
M  CHG  2  13  -1  18  -1
M  END
>  <CHROM.1>
-151.70833429,71.40762007,-73.22165469,-57.53186022,60.45457823,-177.37837324
166.06247958,171.27656759,-21.37622078,-12.42340635,-0.65982497,1.05175307
0.28386037,-1.69882860

>  <Name>
ligand

>  <RI>
0

>  <Rbt.Current_Directory>
/home/itssahil/PROJECTS/Mol_Feturizer/New_Systems/rnas/2GDI

>  <Rbt.Executable>
rbdock ($Id: //depot/dev/client3/rdock/2013.1/src/exe/rbdock.cxx#4 $)

>  <Rbt.Library>
libRbt.so (2013.1, Build901 2013/11/27)

>  <Rbt.Parameter_File>
/export/apps/rDock/src/rDock_2013.1_src/data/scripts/dock_solv.prm

>  <Rbt.Receptor>
prm/pocket_docking_8.prm

>  <SCORE>
-15.8401

>  <SCORE.INTER>
-16.2067

>  <SCORE.INTER.CONST>
1

>  <SCORE.INTER.POLAR>
0

>  <SCORE.INTER.ROT>
8

>  <SCORE.INTER.SOLV>
27.2059

>  <SCORE.INTER.VDW>
-28.8064

>  <SCORE.INTER.norm>
-0.623336

>  <SCORE.INTRA>
0.366655

>  <SCORE.INTRA.DIHEDRAL>
-0.363305

>  <SCORE.INTRA.DIHEDRAL.0>
8.13976

>  <SCORE.INTRA.POLAR>
0

>  <SCORE.INTRA.POLAR.0>
0

>  <SCORE.INTRA.REPUL>
0

>  <SCORE.INTRA.REPUL.0>
0

>  <SCORE.INTRA.SOLV>
1.73774

>  <SCORE.INTRA.SOLV.lig_0>
-82.9561

>  <SCORE.INTRA.VDW>
-0.320564

>  <SCORE.INTRA.VDW.0>
-3.29171

>  <SCORE.INTRA.norm>
0.0141021

>  <SCORE.RESTR>
0

>  <SCORE.RESTR.CAVITY>
0

>  <SCORE.RESTR.norm>
0

>  <SCORE.SYSTEM>
0

>  <SCORE.SYSTEM.CONST>
0

>  <SCORE.SYSTEM.DIHEDRAL>
0

>  <SCORE.SYSTEM.SOLV>
0

>  <SCORE.SYSTEM.norm>
0

>  <SCORE.heavy>
26

>  <SCORE.norm>
-0.609233

>  <RMSD>
6.165

$$$$
ligand
 OpenBabel11021811433D
libRbt.so/2013.1/901 2013/11/27
 26 27  0  0  0  0  0  0  0  0999 V2000
  -18.5249  -11.2395   -0.7474 C   0  0  0  0  0  0  0  0  0  0  0  0
  -23.2375  -16.4888   -0.3437 C   0  0  0  0  0  0  0  0  0  0  0  0
  -22.6191  -15.5375    4.0471 P   0  0  1  0  0  0  0  0  0  0  0  0
  -20.9960  -17.6912    2.9581 P   0  0  1  0  0  0  0  0  0  0  0  0
  -23.1125  -14.3044   -2.3577 C   0  0  0  0  0  0  0  0  0  0  0  0
  -22.0246  -12.1545   -1.5930 C   0  0  0  0  0  0  0  0  0  0  0  0
  -21.8971  -13.4931   -1.9421 C   0  0  0  0  0  0  0  0  0  0  0  0
  -20.6419  -14.0770   -1.8908 C   0  0  0  0  0  0  0  0  0  0  0  0
  -20.4679  -15.3791   -2.2233 N   0  0  0  0  0  0  0  0  0  0  0  0
  -19.5778  -13.3397   -1.5052 N   0  0  0  0  0  0  0  0  0  0  0  0
  -19.7268  -12.0390   -1.1720 C   0  0  0  0  0  0  0  0  0  0  0  0
  -20.9473  -11.4510   -1.2174 N   0  0  0  0  0  0  0  0  0  0  0  0
  -23.3043  -15.3372    5.3733 O   0  5  0  0  0  0  0  0  0  0  0  0
  -22.1248  -18.2603    2.1548 O   0  0  0  0  0  0  0  0  0  0  0  0
  -26.0861  -13.6476    0.1946 S   0  0  0  0  0  0  0  0  0  0  0  0
  -25.0529  -13.3282   -1.1633 C   0  0  0  0  0  0  0  0  0  0  0  0
  -21.8943  -14.3603    3.4608 O   0  0  0  0  0  0  0  0  0  0  0  0
  -20.2596  -16.6880    2.1343 O   0  5  0  0  0  0  0  0  0  0  0  0
  -24.1192  -14.3106   -1.2962 N   0  0  0  0  0  0  0  0  0  0  0  0
  -21.6539  -16.8340    4.1669 O   0  0  0  0  0  0  0  0  0  0  0  0
  -20.0829  -18.6915    3.6131 O   0  0  0  0  0  0  0  0  0  0  0  0
  -24.1752  -15.3113   -0.3748 C   0  0  1  0  0  0  0  0  0  0  0  0
  -25.2870  -15.1167    0.5949 C   0  0  1  0  0  0  0  0  0  0  0  0
  -25.7985  -15.8840    1.7851 C   0  0  0  0  0  0  0  0  0  0  0  0
  -25.0445  -15.4236    3.0227 C   0  0  0  0  0  0  0  0  0  0  0  0
  -23.7340  -15.9743    2.9745 O   0  0  0  0  0  0  0  0  0  0  0  0
  1 11  1  0  0  0  0
  3 13  1  1  0  0  0
  3 17  2  0  0  0  0
  3 20  1  0  0  0  0
  3 26  1  0  0  0  0
  4 14  1  6  0  0  0
  4 18  1  0  0  0  0
  4 21  2  0  0  0  0
  4 20  1  0  0  0  0
  5 19  1  0  0  0  0
  5  7  1  0  0  0  0
  6  7  2  0  0  0  0
  6 12  1  0  0  0  0
  7  8  1  0  0  0  0
  8  9  1  0  0  0  0
  8 10  2  0  0  0  0
 10 11  1  0  0  0  0
 11 12  2  0  0  0  0
 15 23  1  0  0  0  0
 15 16  1  0  0  0  0
 16 19  1  0  0  0  0
 19 22  1  0  0  0  0
 22  2  1  6  0  0  0
 22 23  1  0  0  0  0
 23 24  1  1  0  0  0
 24 25  1  0  0  0  0
 25 26  1  0  0  0  0
M  CHG  2  13  -1  18  -1
M  END
>  <CHROM.1>
163.21646310,86.02258425,-58.35593258,-61.26221167,-90.89747620,-74.36244316
172.57433474,36.40918886,-22.47615076,-15.04357734,1.06443480,-1.48626559
-0.05702597,2.21107526

>  <Name>
ligand

>  <RI>
0

>  <Rbt.Current_Directory>
/home/itssahil/PROJECTS/Mol_Feturizer/New_Systems/rnas/2GDI

>  <Rbt.Executable>
rbdock ($Id: //depot/dev/client3/rdock/2013.1/src/exe/rbdock.cxx#4 $)

>  <Rbt.Library>
libRbt.so (2013.1, Build901 2013/11/27)

>  <Rbt.Parameter_File>
/export/apps/rDock/src/rDock_2013.1_src/data/scripts/dock_solv.prm

>  <Rbt.Receptor>
prm/pocket_docking_6.prm

>  <SCORE>
-9.08156

>  <SCORE.INTER>
-8.00984

>  <SCORE.INTER.CONST>
1

>  <SCORE.INTER.POLAR>
0

>  <SCORE.INTER.ROT>
8

>  <SCORE.INTER.SOLV>
13.8614

>  <SCORE.INTER.VDW>
-18.8937

>  <SCORE.INTER.norm>
-0.308071

>  <SCORE.INTRA>
-1.07172

>  <SCORE.INTRA.DIHEDRAL>
-1.03474

>  <SCORE.INTRA.DIHEDRAL.0>
8.13976

>  <SCORE.INTRA.POLAR>
0

>  <SCORE.INTRA.POLAR.0>
0

>  <SCORE.INTRA.REPUL>
0

>  <SCORE.INTRA.REPUL.0>
0

>  <SCORE.INTRA.SOLV>
1.81811

>  <SCORE.INTRA.SOLV.lig_0>
-82.9561

>  <SCORE.INTRA.VDW>
-1.46341

>  <SCORE.INTRA.VDW.0>
-3.29171

>  <SCORE.INTRA.norm>
-0.0412201

>  <SCORE.RESTR>
0

>  <SCORE.RESTR.CAVITY>
0

>  <SCORE.RESTR.norm>
0

>  <SCORE.SYSTEM>
0

>  <SCORE.SYSTEM.CONST>
0

>  <SCORE.SYSTEM.DIHEDRAL>
0

>  <SCORE.SYSTEM.SOLV>
0

>  <SCORE.SYSTEM.norm>
0

>  <SCORE.heavy>
26

>  <SCORE.norm>
-0.349291

>  <RMSD>
6.221

$$$$
ligand
 OpenBabel11021811433D
libRbt.so/2013.1/901 2013/11/27
 26 27  0  0  0  0  0  0  0  0999 V2000
  -18.4573  -12.9244   -7.4220 C   0  0  0  0  0  0  0  0  0  0  0  0
  -21.7437  -14.4058   -1.9521 C   0  0  0  0  0  0  0  0  0  0  0  0
  -22.9745  -13.5904    3.9958 P   0  0  1  0  0  0  0  0  0  0  0  0
  -23.1446  -10.7653    4.6653 P   0  0  1  0  0  0  0  0  0  0  0  0
  -20.0077  -16.4828   -3.1833 C   0  0  0  0  0  0  0  0  0  0  0  0
  -20.5540  -14.9213   -5.0947 C   0  0  0  0  0  0  0  0  0  0  0  0
  -19.5958  -15.5505   -4.3100 C   0  0  0  0  0  0  0  0  0  0  0  0
  -18.2576  -15.3004   -4.5663 C   0  0  0  0  0  0  0  0  0  0  0  0
  -17.2871  -15.8918   -3.8283 N   0  0  0  0  0  0  0  0  0  0  0  0
  -17.9152  -14.4570   -5.5643 N   0  0  0  0  0  0  0  0  0  0  0  0
  -18.8655  -13.8583   -6.3150 C   0  0  0  0  0  0  0  0  0  0  0  0
  -20.1796  -14.0921   -6.0790 N   0  0  0  0  0  0  0  0  0  0  0  0
  -22.5262  -14.8158    4.7481 O   0  5  0  0  0  0  0  0  0  0  0  0
  -24.4315  -10.6207    3.9126 O   0  0  0  0  0  0  0  0  0  0  0  0
  -18.5261  -15.3638    0.3295 S   0  0  0  0  0  0  0  0  0  0  0  0
  -18.5962  -16.2551   -1.1584 C   0  0  0  0  0  0  0  0  0  0  0  0
  -24.2662  -13.6823    3.2355 O   0  0  0  0  0  0  0  0  0  0  0  0
  -23.2654  -10.0825    5.9868 O   0  5  0  0  0  0  0  0  0  0  0  0
  -19.6922  -15.8942   -1.8817 N   0  0  0  0  0  0  0  0  0  0  0  0
  -22.9742  -12.3373    5.0237 O   0  0  0  0  0  0  0  0  0  0  0  0
  -21.8973  -10.3762    3.9195 O   0  0  0  0  0  0  0  0  0  0  0  0
  -20.4879  -14.9434   -1.3193 C   0  0  1  0  0  0  0  0  0  0  0  0
  -19.9626  -14.4801   -0.0063 C   0  0  1  0  0  0  0  0  0  0  0  0
  -20.4200  -13.4803    1.0223 C   0  0  0  0  0  0  0  0  0  0  0  0
  -21.5196  -14.1122    1.8612 C   0  0  0  0  0  0  0  0  0  0  0  0
  -21.8337  -13.2217    2.9249 O   0  0  0  0  0  0  0  0  0  0  0  0
  1 11  1  0  0  0  0
  3 13  1  1  0  0  0
  3 17  2  0  0  0  0
  3 20  1  0  0  0  0
  3 26  1  0  0  0  0
  4 14  1  6  0  0  0
  4 18  1  0  0  0  0
  4 21  2  0  0  0  0
  4 20  1  0  0  0  0
  5 19  1  0  0  0  0
  5  7  1  0  0  0  0
  6  7  2  0  0  0  0
  6 12  1  0  0  0  0
  7  8  1  0  0  0  0
  8  9  1  0  0  0  0
  8 10  2  0  0  0  0
 10 11  1  0  0  0  0
 11 12  2  0  0  0  0
 15 23  1  0  0  0  0
 15 16  1  0  0  0  0
 16 19  1  0  0  0  0
 19 22  1  0  0  0  0
 22  2  1  6  0  0  0
 22 23  1  0  0  0  0
 23 24  1  1  0  0  0
 24 25  1  0  0  0  0
 25 26  1  0  0  0  0
M  CHG  2  13  -1  18  -1
M  END
>  <CHROM.1>
169.36326618,-100.77078067,-111.01400299,55.96602555,-99.22987004,173.26453244
179.52025112,63.94733886,-20.95281756,-13.74318057,0.22269904,0.72512105
1.01408165,-1.11688422

>  <Name>
ligand

>  <RI>
0

>  <Rbt.Current_Directory>
/home/itssahil/PROJECTS/Mol_Feturizer/New_Systems/rnas/2GDI

>  <Rbt.Executable>
rbdock ($Id: //depot/dev/client3/rdock/2013.1/src/exe/rbdock.cxx#4 $)

>  <Rbt.Library>
libRbt.so (2013.1, Build901 2013/11/27)

>  <Rbt.Parameter_File>
/export/apps/rDock/src/rDock_2013.1_src/data/scripts/dock_solv.prm

>  <Rbt.Receptor>
prm/pocket_docking_7.prm

>  <SCORE>
-4.73416

>  <SCORE.INTER>
-3.02011

>  <SCORE.INTER.CONST>
1

>  <SCORE.INTER.POLAR>
0

>  <SCORE.INTER.ROT>
8

>  <SCORE.INTER.SOLV>
12.6757

>  <SCORE.INTER.VDW>
-15.172

>  <SCORE.INTER.norm>
-0.116158

>  <SCORE.INTRA>
-1.71405

>  <SCORE.INTRA.DIHEDRAL>
-3.15672

>  <SCORE.INTRA.DIHEDRAL.0>
8.13976

>  <SCORE.INTRA.POLAR>
0

>  <SCORE.INTRA.POLAR.0>
0

>  <SCORE.INTRA.REPUL>
0

>  <SCORE.INTRA.REPUL.0>
0

>  <SCORE.INTRA.SOLV>
1.27814

>  <SCORE.INTRA.SOLV.lig_0>
-82.9561

>  <SCORE.INTRA.VDW>
-0.774762

>  <SCORE.INTRA.VDW.0>
-3.29171

>  <SCORE.INTRA.norm>
-0.065925

>  <SCORE.RESTR>
0

>  <SCORE.RESTR.CAVITY>
0

>  <SCORE.RESTR.norm>
0

>  <SCORE.SYSTEM>
0

>  <SCORE.SYSTEM.CONST>
0

>  <SCORE.SYSTEM.DIHEDRAL>
0

>  <SCORE.SYSTEM.SOLV>
0

>  <SCORE.SYSTEM.norm>
0

>  <SCORE.heavy>
26

>  <SCORE.norm>
-0.182083

>  <RMSD>
6.456

$$$$
ligand
 OpenBabel11021811433D
libRbt.so/2013.1/901 2013/11/27
 26 27  0  0  0  0  0  0  0  0999 V2000
  -19.7059  -18.4212   -0.8791 C   0  0  0  0  0  0  0  0  0  0  0  0
  -22.5385  -12.8590    0.9671 C   0  0  0  0  0  0  0  0  0  0  0  0
  -25.1363  -15.3061    2.8663 P   0  0  1  0  0  0  0  0  0  0  0  0
  -24.3134  -18.0041    2.1573 P   0  0  1  0  0  0  0  0  0  0  0  0
  -21.0356  -12.8762   -1.5989 C   0  0  0  0  0  0  0  0  0  0  0  0
  -20.0092  -14.7685   -0.2738 C   0  0  0  0  0  0  0  0  0  0  0  0
  -20.6758  -14.3408   -1.4151 C   0  0  0  0  0  0  0  0  0  0  0  0
  -21.0179  -15.2782   -2.3759 C   0  0  0  0  0  0  0  0  0  0  0  0
  -21.6676  -14.9083   -3.5062 N   0  0  0  0  0  0  0  0  0  0  0  0
  -20.7000  -16.5770   -2.1847 N   0  0  0  0  0  0  0  0  0  0  0  0
  -20.0499  -16.9684   -1.0670 C   0  0  0  0  0  0  0  0  0  0  0  0
  -19.7064  -16.0647   -0.1169 N   0  0  0  0  0  0  0  0  0  0  0  0
  -26.5463  -15.5279    3.3469 O   0  5  0  0  0  0  0  0  0  0  0  0
  -23.1189  -17.9168    3.0568 O   0  0  0  0  0  0  0  0  0  0  0  0
  -24.9106  -12.3256   -2.2833 S   0  0  0  0  0  0  0  0  0  0  0  0
  -23.2331  -12.5148   -2.6875 C   0  0  0  0  0  0  0  0  0  0  0  0
  -24.0699  -15.1413    3.9105 O   0  0  0  0  0  0  0  0  0  0  0  0
  -25.4604  -18.5864    2.9139 O   0  5  0  0  0  0  0  0  0  0  0  0
  -22.4862  -12.6901   -1.5623 N   0  0  0  0  0  0  0  0  0  0  0  0
  -24.7679  -16.4854    1.8172 O   0  0  0  0  0  0  0  0  0  0  0  0
  -24.0908  -18.6738    0.8287 O   0  0  0  0  0  0  0  0  0  0  0  0
  -23.1729  -12.6824   -0.3868 C   0  0  1  0  0  0  0  0  0  0  0  0
  -24.6345  -12.4954   -0.5945 C   0  0  1  0  0  0  0  0  0  0  0  0
  -25.8295  -12.4080    0.3173 C   0  0  0  0  0  0  0  0  0  0  0  0
  -26.0721  -13.7759    0.9355 C   0  0  0  0  0  0  0  0  0  0  0  0
  -25.1212  -13.9679    1.9757 O   0  0  0  0  0  0  0  0  0  0  0  0
  1 11  1  0  0  0  0
  3 13  1  1  0  0  0
  3 17  2  0  0  0  0
  3 20  1  0  0  0  0
  3 26  1  0  0  0  0
  4 14  1  1  0  0  0
  4 18  1  0  0  0  0
  4 21  2  0  0  0  0
  4 20  1  0  0  0  0
  5 19  1  0  0  0  0
  5  7  1  0  0  0  0
  6  7  2  0  0  0  0
  6 12  1  0  0  0  0
  7  8  1  0  0  0  0
  8  9  1  0  0  0  0
  8 10  2  0  0  0  0
 10 11  1  0  0  0  0
 11 12  2  0  0  0  0
 15 23  1  0  0  0  0
 15 16  1  0  0  0  0
 16 19  1  0  0  0  0
 19 22  1  0  0  0  0
 22  2  1  6  0  0  0
 22 23  1  0  0  0  0
 23 24  1  1  0  0  0
 24 25  1  0  0  0  0
 25 26  1  0  0  0  0
M  CHG  2  13  -1  18  -1
M  END
>  <CHROM.1>
-79.85107129,-101.93094220,-112.95373679,-55.45570199,111.98128990,77.44671422
178.08327234,-49.57950759,-23.37987421,-15.15632958,0.37183738,-0.91667520
-0.61613505,2.52985230

>  <Name>
ligand

>  <RI>
0

>  <Rbt.Current_Directory>
/home/itssahil/PROJECTS/Mol_Feturizer/New_Systems/rnas/2GDI

>  <Rbt.Executable>
rbdock ($Id: //depot/dev/client3/rdock/2013.1/src/exe/rbdock.cxx#4 $)

>  <Rbt.Library>
libRbt.so (2013.1, Build901 2013/11/27)

>  <Rbt.Parameter_File>
/export/apps/rDock/src/rDock_2013.1_src/data/scripts/dock_solv.prm

>  <Rbt.Receptor>
prm/pocket_docking_6.prm

>  <SCORE>
-5.36013

>  <SCORE.INTER>
-4.574

>  <SCORE.INTER.CONST>
1

>  <SCORE.INTER.POLAR>
0

>  <SCORE.INTER.ROT>
8

>  <SCORE.INTER.SOLV>
14.2482

>  <SCORE.INTER.VDW>
-16.7321

>  <SCORE.INTER.norm>
-0.175923

>  <SCORE.INTRA>
-0.786122

>  <SCORE.INTRA.DIHEDRAL>
-1.99241

>  <SCORE.INTRA.DIHEDRAL.0>
8.13976

>  <SCORE.INTRA.POLAR>
0

>  <SCORE.INTRA.POLAR.0>
0

>  <SCORE.INTRA.REPUL>
0

>  <SCORE.INTRA.REPUL.0>
0

>  <SCORE.INTRA.SOLV>
2.34338

>  <SCORE.INTRA.SOLV.lig_0>
-82.9561

>  <SCORE.INTRA.VDW>
-0.961609

>  <SCORE.INTRA.VDW.0>
-3.29171

>  <SCORE.INTRA.norm>
-0.0302355

>  <SCORE.RESTR>
0

>  <SCORE.RESTR.CAVITY>
0

>  <SCORE.RESTR.norm>
0

>  <SCORE.SYSTEM>
0

>  <SCORE.SYSTEM.CONST>
0

>  <SCORE.SYSTEM.DIHEDRAL>
0

>  <SCORE.SYSTEM.SOLV>
0

>  <SCORE.SYSTEM.norm>
0

>  <SCORE.heavy>
26

>  <SCORE.norm>
-0.206159

>  <RMSD>
6.489

$$$$
ligand
 OpenBabel11021811433D
libRbt.so/2013.1/901 2013/11/27
 26 27  0  0  0  0  0  0  0  0999 V2000
  -18.0753  -12.9859    0.8259 C   0  0  0  0  0  0  0  0  0  0  0  0
  -23.0966  -18.4484   -1.5338 C   0  0  0  0  0  0  0  0  0  0  0  0
  -24.8877  -17.0952    3.2662 P   0  0  1  0  0  0  0  0  0  0  0  0
  -22.6927  -15.4108    2.3698 P   0  0  1  0  0  0  0  0  0  0  0  0
  -20.1865  -17.8573   -1.3755 C   0  0  0  0  0  0  0  0  0  0  0  0
  -18.9530  -16.5725    0.4185 C   0  0  0  0  0  0  0  0  0  0  0  0
  -19.6380  -16.5670   -0.7901 C   0  0  0  0  0  0  0  0  0  0  0  0
  -19.7993  -15.3639   -1.4575 C   0  0  0  0  0  0  0  0  0  0  0  0
  -20.4612  -15.3085   -2.6387 N   0  0  0  0  0  0  0  0  0  0  0  0
  -19.2911  -14.2314   -0.9246 N   0  0  0  0  0  0  0  0  0  0  0  0
  -18.6301  -14.2620    0.2532 C   0  0  0  0  0  0  0  0  0  0  0  0
  -18.4638  -15.4301    0.9204 N   0  0  0  0  0  0  0  0  0  0  0  0
  -24.2319  -17.4864    4.5644 O   0  5  0  0  0  0  0  0  0  0  0  0
  -21.8416  -15.9378    3.4841 O   0  0  0  0  0  0  0  0  0  0  0  0
  -21.3153  -20.0338    1.7511 S   0  0  0  0  0  0  0  0  0  0  0  0
  -20.2149  -19.1547    0.7365 C   0  0  0  0  0  0  0  0  0  0  0  0
  -26.3883  -17.0485    3.2385 O   0  0  0  0  0  0  0  0  0  0  0  0
  -22.4608  -16.2269    1.1421 O   0  5  0  0  0  0  0  0  0  0  0  0
  -20.8647  -18.6461   -0.3469 N   0  0  0  0  0  0  0  0  0  0  0  0
  -24.2373  -15.6952    2.7724 O   0  0  0  0  0  0  0  0  0  0  0  0
  -22.6006  -13.9314    2.1129 O   0  0  0  0  0  0  0  0  0  0  0  0
  -22.1970  -18.9160   -0.4208 C   0  0  1  0  0  0  0  0  0  0  0  0
  -22.6702  -19.7170    0.7407 C   0  0  1  0  0  0  0  0  0  0  0  0
  -23.9997  -20.2837    1.1630 C   0  0  0  0  0  0  0  0  0  0  0  0
  -24.4671  -19.5524    2.4115 C   0  0  0  0  0  0  0  0  0  0  0  0
  -24.4380  -18.1556    2.1447 O   0  0  0  0  0  0  0  0  0  0  0  0
  1 11  1  0  0  0  0
  3 13  1  1  0  0  0
  3 17  2  0  0  0  0
  3 20  1  0  0  0  0
  3 26  1  0  0  0  0
  4 14  1  1  0  0  0
  4 18  1  0  0  0  0
  4 21  2  0  0  0  0
  4 20  1  0  0  0  0
  5 19  1  0  0  0  0
  5  7  1  0  0  0  0
  6  7  2  0  0  0  0
  6 12  1  0  0  0  0
  7  8  1  0  0  0  0
  8  9  1  0  0  0  0
  8 10  2  0  0  0  0
 10 11  1  0  0  0  0
 11 12  2  0  0  0  0
 15 23  1  0  0  0  0
 15 16  1  0  0  0  0
 16 19  1  0  0  0  0
 19 22  1  0  0  0  0
 22  2  1  1  0  0  0
 22 23  1  0  0  0  0
 23 24  1  6  0  0  0
 24 25  1  0  0  0  0
 25 26  1  0  0  0  0
M  CHG  2  13  -1  18  -1
M  END
>  <CHROM.1>
62.69049232,-63.37810739,45.29556090,-50.46233223,69.11076652,53.09277893
179.55023431,46.25541696,-22.02626809,-16.97909161,1.22922028,0.20186615
0.65700712,0.37732752

>  <Name>
ligand

>  <RI>
0

>  <Rbt.Current_Directory>
/home/itssahil/PROJECTS/Mol_Feturizer/New_Systems/rnas/2GDI

>  <Rbt.Executable>
rbdock ($Id: //depot/dev/client3/rdock/2013.1/src/exe/rbdock.cxx#4 $)

>  <Rbt.Library>
libRbt.so (2013.1, Build901 2013/11/27)

>  <Rbt.Parameter_File>
/export/apps/rDock/src/rDock_2013.1_src/data/scripts/dock_solv.prm

>  <Rbt.Receptor>
prm/pocket_docking_5.prm

>  <SCORE>
-8.53712

>  <SCORE.INTER>
-6.49463

>  <SCORE.INTER.CONST>
1

>  <SCORE.INTER.POLAR>
0

>  <SCORE.INTER.ROT>
8

>  <SCORE.INTER.SOLV>
9.38647

>  <SCORE.INTER.VDW>
-16.3919

>  <SCORE.INTER.norm>
-0.249793

>  <SCORE.INTRA>
-2.04249

>  <SCORE.INTRA.DIHEDRAL>
-2.11728

>  <SCORE.INTRA.DIHEDRAL.0>
8.13976

>  <SCORE.INTRA.POLAR>
0

>  <SCORE.INTRA.POLAR.0>
0

>  <SCORE.INTRA.REPUL>
0

>  <SCORE.INTRA.REPUL.0>
0

>  <SCORE.INTRA.SOLV>
2.84401

>  <SCORE.INTRA.SOLV.lig_0>
-82.9561

>  <SCORE.INTRA.VDW>
-2.40586

>  <SCORE.INTRA.VDW.0>
-3.29171

>  <SCORE.INTRA.norm>
-0.0785574

>  <SCORE.RESTR>
0

>  <SCORE.RESTR.CAVITY>
0

>  <SCORE.RESTR.norm>
0

>  <SCORE.SYSTEM>
0

>  <SCORE.SYSTEM.CONST>
0

>  <SCORE.SYSTEM.DIHEDRAL>
0

>  <SCORE.SYSTEM.SOLV>
0

>  <SCORE.SYSTEM.norm>
0

>  <SCORE.heavy>
26

>  <SCORE.norm>
-0.328351

>  <RMSD>
6.591

$$$$
ligand
 OpenBabel11021811433D
libRbt.so/2013.1/901 2013/11/27
 26 27  0  0  0  0  0  0  0  0999 V2000
  -18.6047  -11.7974    2.0267 C   0  0  0  0  0  0  0  0  0  0  0  0
  -25.3693  -13.6005    3.8094 C   0  0  0  0  0  0  0  0  0  0  0  0
  -23.7488  -18.9386    2.8282 P   0  0  1  0  0  0  0  0  0  0  0  0
  -23.9793  -19.6075    0.0071 P   0  0  1  0  0  0  0  0  0  0  0  0
  -24.3034  -12.2120    1.4054 C   0  0  0  0  0  0  0  0  0  0  0  0
  -22.2461  -11.5646    2.7240 C   0  0  0  0  0  0  0  0  0  0  0  0
  -22.7970  -12.0937    1.5636 C   0  0  0  0  0  0  0  0  0  0  0  0
  -21.9453  -12.5238    0.5593 C   0  0  0  0  0  0  0  0  0  0  0  0
  -22.4361  -13.0458   -0.5909 N   0  0  0  0  0  0  0  0  0  0  0  0
  -20.6090  -12.4215    0.7278 N   0  0  0  0  0  0  0  0  0  0  0  0
  -20.0970  -11.9018    1.8649 C   0  0  0  0  0  0  0  0  0  0  0  0
  -20.9155  -11.4750    2.8575 N   0  0  0  0  0  0  0  0  0  0  0  0
  -24.8159  -19.8507    3.3738 O   0  5  0  0  0  0  0  0  0  0  0  0
  -24.7031  -20.8703    0.3603 O   0  0  0  0  0  0  0  0  0  0  0  0
  -25.1933  -15.9837    0.5283 S   0  0  0  0  0  0  0  0  0  0  0  0
  -24.6303  -14.3693    0.2289 C   0  0  0  0  0  0  0  0  0  0  0  0
  -22.3209  -19.3753    2.9875 O   0  0  0  0  0  0  0  0  0  0  0  0
  -24.7070  -18.9121   -1.0947 O   0  5  0  0  0  0  0  0  0  0  0  0
  -24.7113  -13.6162    1.3608 N   0  0  0  0  0  0  0  0  0  0  0  0
  -24.1045  -18.6123    1.2810 O   0  0  0  0  0  0  0  0  0  0  0  0
  -22.5058  -19.7456   -0.2631 O   0  0  0  0  0  0  0  0  0  0  0  0
  -25.1992  -14.2505    2.4622 C   0  0  1  0  0  0  0  0  0  0  0  0
  -25.5316  -15.6744    2.1857 C   0  0  1  0  0  0  0  0  0  0  0  0
  -26.0876  -16.8087    3.0049 C   0  0  0  0  0  0  0  0  0  0  0  0
  -25.1211  -17.1103    4.1394 C   0  0  0  0  0  0  0  0  0  0  0  0
  -23.8831  -17.5192    3.5709 O   0  0  0  0  0  0  0  0  0  0  0  0
  1 11  1  0  0  0  0
  3 13  1  1  0  0  0
  3 17  2  0  0  0  0
  3 20  1  0  0  0  0
  3 26  1  0  0  0  0
  4 14  1  1  0  0  0
  4 18  1  0  0  0  0
  4 21  2  0  0  0  0
  4 20  1  0  0  0  0
  5 19  1  0  0  0  0
  5  7  1  0  0  0  0
  6  7  2  0  0  0  0
  6 12  1  0  0  0  0
  7  8  1  0  0  0  0
  8  9  1  0  0  0  0
  8 10  2  0  0  0  0
 10 11  1  0  0  0  0
 11 12  2  0  0  0  0
 15 23  1  0  0  0  0
 15 16  1  0  0  0  0
 16 19  1  0  0  0  0
 19 22  1  0  0  0  0
 22  2  1  1  0  0  0
 22 23  1  0  0  0  0
 23 24  1  6  0  0  0
 24 25  1  0  0  0  0
 25 26  1  0  0  0  0
M  CHG  2  13  -1  18  -1
M  END
>  <CHROM.1>
-72.80478232,-81.19292949,-113.51493727,51.79948265,119.23552391,-62.00698034
-70.24137430,-24.35078058,-23.60279930,-16.04536058,1.61638597,-1.19103358
-0.53813159,-2.89492000

>  <Name>
ligand

>  <RI>
0

>  <Rbt.Current_Directory>
/home/itssahil/PROJECTS/Mol_Feturizer/New_Systems/rnas/2GDI

>  <Rbt.Executable>
rbdock ($Id: //depot/dev/client3/rdock/2013.1/src/exe/rbdock.cxx#4 $)

>  <Rbt.Library>
libRbt.so (2013.1, Build901 2013/11/27)

>  <Rbt.Parameter_File>
/export/apps/rDock/src/rDock_2013.1_src/data/scripts/dock_solv.prm

>  <Rbt.Receptor>
prm/pocket_docking_6.prm

>  <SCORE>
-8.16158

>  <SCORE.INTER>
-7.92861

>  <SCORE.INTER.CONST>
1

>  <SCORE.INTER.POLAR>
0

>  <SCORE.INTER.ROT>
8

>  <SCORE.INTER.SOLV>
20.2564

>  <SCORE.INTER.VDW>
-20.9712

>  <SCORE.INTER.norm>
-0.304947

>  <SCORE.INTRA>
-0.23297

>  <SCORE.INTRA.DIHEDRAL>
-1.44534

>  <SCORE.INTRA.DIHEDRAL.0>
8.13976

>  <SCORE.INTRA.POLAR>
0

>  <SCORE.INTRA.POLAR.0>
0

>  <SCORE.INTRA.REPUL>
0

>  <SCORE.INTRA.REPUL.0>
0

>  <SCORE.INTRA.SOLV>
2.9789

>  <SCORE.INTRA.SOLV.lig_0>
-82.9561

>  <SCORE.INTRA.VDW>
-0.999746

>  <SCORE.INTRA.VDW.0>
-3.29171

>  <SCORE.INTRA.norm>
-0.00896037

>  <SCORE.RESTR>
0

>  <SCORE.RESTR.CAVITY>
0

>  <SCORE.RESTR.norm>
0

>  <SCORE.SYSTEM>
0

>  <SCORE.SYSTEM.CONST>
0

>  <SCORE.SYSTEM.DIHEDRAL>
0

>  <SCORE.SYSTEM.SOLV>
0

>  <SCORE.SYSTEM.norm>
0

>  <SCORE.heavy>
26

>  <SCORE.norm>
-0.313907

>  <RMSD>
6.690

$$$$
ligand
 OpenBabel11021811433D
libRbt.so/2013.1/901 2013/11/27
 26 27  0  0  0  0  0  0  0  0999 V2000
  -18.4331  -13.8888   -6.5993 C   0  0  0  0  0  0  0  0  0  0  0  0
  -24.0081  -15.5378   -0.4377 C   0  0  0  0  0  0  0  0  0  0  0  0
  -25.1198  -11.5370    2.7633 P   0  0  1  0  0  0  0  0  0  0  0  0
  -23.9025  -13.2472    4.7763 P   0  0  1  0  0  0  0  0  0  0  0  0
  -21.4791  -14.7833   -1.8081 C   0  0  0  0  0  0  0  0  0  0  0  0
  -21.2859  -14.5709   -4.3196 C   0  0  0  0  0  0  0  0  0  0  0  0
  -20.6705  -14.5569   -3.0743 C   0  0  0  0  0  0  0  0  0  0  0  0
  -19.3074  -14.3189   -3.0088 C   0  0  0  0  0  0  0  0  0  0  0  0
  -18.6630  -14.2968   -1.8169 N   0  0  0  0  0  0  0  0  0  0  0  0
  -18.6113  -14.1065   -4.1468 N   0  0  0  0  0  0  0  0  0  0  0  0
  -19.2320  -14.1267   -5.3465 C   0  0  0  0  0  0  0  0  0  0  0  0
  -20.5649  -14.3591   -5.4295 N   0  0  0  0  0  0  0  0  0  0  0  0
  -26.4379  -11.4246    3.4832 O   0  5  0  0  0  0  0  0  0  0  0  0
  -25.1345  -13.3187    5.6252 O   0  0  0  0  0  0  0  0  0  0  0  0
  -24.1147  -11.8212   -2.0663 S   0  0  0  0  0  0  0  0  0  0  0  0
  -22.6009  -12.6324   -2.3179 C   0  0  0  0  0  0  0  0  0  0  0  0
  -24.2015  -10.3501    2.8169 O   0  0  0  0  0  0  0  0  0  0  0  0
  -23.2951  -14.6063    4.6710 O   0  5  0  0  0  0  0  0  0  0  0  0
  -22.6215  -13.8712   -1.7525 N   0  0  0  0  0  0  0  0  0  0  0  0
  -24.3804  -12.8876    3.2693 O   0  0  0  0  0  0  0  0  0  0  0  0
  -22.9022  -12.1888    5.1538 O   0  0  0  0  0  0  0  0  0  0  0  0
  -23.7787  -14.2180   -1.1247 C   0  0  1  0  0  0  0  0  0  0  0  0
  -24.8045  -13.1433   -1.2099 C   0  0  1  0  0  0  0  0  0  0  0  0
  -26.2161  -12.9870   -0.7100 C   0  0  0  0  0  0  0  0  0  0  0  0
  -26.1932  -12.9430    0.8098 C   0  0  0  0  0  0  0  0  0  0  0  0
  -25.4259  -11.8141    1.2097 O   0  0  0  0  0  0  0  0  0  0  0  0
  1 11  1  0  0  0  0
  3 13  1  1  0  0  0
  3 17  2  0  0  0  0
  3 20  1  0  0  0  0
  3 26  1  0  0  0  0
  4 14  1  1  0  0  0
  4 18  1  0  0  0  0
  4 21  2  0  0  0  0
  4 20  1  0  0  0  0
  5 19  1  0  0  0  0
  5  7  1  0  0  0  0
  6  7  2  0  0  0  0
  6 12  1  0  0  0  0
  7  8  1  0  0  0  0
  8  9  1  0  0  0  0
  8 10  2  0  0  0  0
 10 11  1  0  0  0  0
 11 12  2  0  0  0  0
 15 23  1  0  0  0  0
 15 16  1  0  0  0  0
 16 19  1  0  0  0  0
 19 22  1  0  0  0  0
 22  2  1  6  0  0  0
 22 23  1  0  0  0  0
 23 24  1  1  0  0  0
 24 25  1  0  0  0  0
 25 26  1  0  0  0  0
M  CHG  2  13  -1  18  -1
M  END
>  <CHROM.1>
-61.44294594,-30.15334689,-52.81247419,63.48132221,-112.49622629,61.45506889
-175.72697051,-57.77721380,-23.10347503,-13.17530310,0.06697599,-1.00758040
-0.40156442,1.61284312

>  <Name>
ligand

>  <RI>
0

>  <Rbt.Current_Directory>
/home/itssahil/PROJECTS/Mol_Feturizer/New_Systems/rnas/2GDI

>  <Rbt.Executable>
rbdock ($Id: //depot/dev/client3/rdock/2013.1/src/exe/rbdock.cxx#4 $)

>  <Rbt.Library>
libRbt.so (2013.1, Build901 2013/11/27)

>  <Rbt.Parameter_File>
/export/apps/rDock/src/rDock_2013.1_src/data/scripts/dock_solv.prm

>  <Rbt.Receptor>
prm/pocket_docking_6.prm

>  <SCORE>
-11.7342

>  <SCORE.INTER>
-9.78355

>  <SCORE.INTER.CONST>
1

>  <SCORE.INTER.POLAR>
0

>  <SCORE.INTER.ROT>
8

>  <SCORE.INTER.SOLV>
15.3838

>  <SCORE.INTER.VDW>
-20.5836

>  <SCORE.INTER.norm>
-0.37629

>  <SCORE.INTRA>
-1.95069

>  <SCORE.INTRA.DIHEDRAL>
-3.39567

>  <SCORE.INTRA.DIHEDRAL.0>
8.13976

>  <SCORE.INTRA.POLAR>
0

>  <SCORE.INTRA.POLAR.0>
0

>  <SCORE.INTRA.REPUL>
0

>  <SCORE.INTRA.REPUL.0>
0

>  <SCORE.INTRA.SOLV>
-0.100306

>  <SCORE.INTRA.SOLV.lig_0>
-82.9561

>  <SCORE.INTRA.VDW>
-0.202699

>  <SCORE.INTRA.VDW.0>
-3.29171

>  <SCORE.INTRA.norm>
-0.0750264

>  <SCORE.RESTR>
0

>  <SCORE.RESTR.CAVITY>
0

>  <SCORE.RESTR.norm>
0

>  <SCORE.SYSTEM>
0

>  <SCORE.SYSTEM.CONST>
0

>  <SCORE.SYSTEM.DIHEDRAL>
0

>  <SCORE.SYSTEM.SOLV>
0

>  <SCORE.SYSTEM.norm>
0

>  <SCORE.heavy>
26

>  <SCORE.norm>
-0.451317

>  <RMSD>
6.737

$$$$
ligand
 OpenBabel11021811433D
libRbt.so/2013.1/901 2013/11/27
 26 27  0  0  0  0  0  0  0  0999 V2000
  -21.8282   -8.5306    7.8834 C   0  0  0  0  0  0  0  0  0  0  0  0
  -23.2431  -13.1369    0.6553 C   0  0  0  0  0  0  0  0  0  0  0  0
  -18.7980  -16.0554    0.8531 P   0  0  1  0  0  0  0  0  0  0  0  0
  -19.6153  -18.1056   -1.0411 P   0  0  1  0  0  0  0  0  0  0  0  0
  -23.0731  -11.7003    3.2535 C   0  0  0  0  0  0  0  0  0  0  0  0
  -22.4477   -9.5125    4.3546 C   0  0  0  0  0  0  0  0  0  0  0  0
  -22.7342  -10.8662    4.4773 C   0  0  0  0  0  0  0  0  0  0  0  0
  -22.7180  -11.4376    5.7391 C   0  0  0  0  0  0  0  0  0  0  0  0
  -22.9897  -12.7544    5.9085 N   0  0  0  0  0  0  0  0  0  0  0  0
  -22.4274  -10.6735    6.8144 N   0  0  0  0  0  0  0  0  0  0  0  0
  -22.1505   -9.3592    6.6694 C   0  0  0  0  0  0  0  0  0  0  0  0
  -22.1607   -8.7837    5.4422 N   0  0  0  0  0  0  0  0  0  0  0  0
  -19.5924  -16.7828    1.9059 O   0  5  0  0  0  0  0  0  0  0  0  0
  -20.0497  -19.0388    0.0470 O   0  0  0  0  0  0  0  0  0  0  0  0
  -19.6155  -11.4386    1.3135 S   0  0  0  0  0  0  0  0  0  0  0  0
  -20.7386  -11.1709    2.6096 C   0  0  0  0  0  0  0  0  0  0  0  0
  -17.5220  -15.3934    1.2869 O   0  0  0  0  0  0  0  0  0  0  0  0
  -20.7711  -17.2573   -1.4555 O   0  5  0  0  0  0  0  0  0  0  0  0
  -21.9351  -11.7612    2.3362 N   0  0  0  0  0  0  0  0  0  0  0  0
  -18.5531  -17.0699   -0.3870 O   0  0  0  0  0  0  0  0  0  0  0  0
  -18.9075  -18.7378   -2.2083 O   0  0  0  0  0  0  0  0  0  0  0  0
  -22.0144  -12.4192    1.1470 C   0  0  1  0  0  0  0  0  0  0  0  0
  -20.7342  -12.3627    0.3906 C   0  0  1  0  0  0  0  0  0  0  0  0
  -20.2663  -12.8959   -0.9375 C   0  0  0  0  0  0  0  0  0  0  0  0
  -19.2075  -13.9590   -0.6905 C   0  0  0  0  0  0  0  0  0  0  0  0
  -19.7317  -14.9002    0.2382 O   0  0  0  0  0  0  0  0  0  0  0  0
  1 11  1  0  0  0  0
  3 13  1  1  0  0  0
  3 17  2  0  0  0  0
  3 20  1  0  0  0  0
  3 26  1  0  0  0  0
  4 14  1  1  0  0  0
  4 18  1  0  0  0  0
  4 21  2  0  0  0  0
  4 20  1  0  0  0  0
  5 19  1  0  0  0  0
  5  7  1  0  0  0  0
  6  7  2  0  0  0  0
  6 12  1  0  0  0  0
  7  8  1  0  0  0  0
  8  9  1  0  0  0  0
  8 10  2  0  0  0  0
 10 11  1  0  0  0  0
 11 12  2  0  0  0  0
 15 23  1  0  0  0  0
 15 16  1  0  0  0  0
 16 19  1  0  0  0  0
 19 22  1  0  0  0  0
 22  2  1  1  0  0  0
 22 23  1  0  0  0  0
 23 24  1  6  0  0  0
 24 25  1  0  0  0  0
 25 26  1  0  0  0  0
M  CHG  2  13  -1  18  -1
M  END
>  <CHROM.1>
41.70682118,2.05772764,63.74256441,-59.07004016,68.17001996,51.82407666,-172.42209030
173.78401707,-20.64167700,-13.72484273,1.84188548,2.73185383,1.24089568,-0.44020947

>  <Name>
ligand

>  <RI>
0

>  <Rbt.Current_Directory>
/home/itssahil/PROJECTS/Mol_Feturizer/New_Systems/rnas/2GDI

>  <Rbt.Executable>
rbdock ($Id: //depot/dev/client3/rdock/2013.1/src/exe/rbdock.cxx#4 $)

>  <Rbt.Library>
libRbt.so (2013.1, Build901 2013/11/27)

>  <Rbt.Parameter_File>
/export/apps/rDock/src/rDock_2013.1_src/data/scripts/dock_solv.prm

>  <Rbt.Receptor>
prm/pocket_docking_8.prm

>  <SCORE>
-13.8306

>  <SCORE.INTER>
-13.347

>  <SCORE.INTER.CONST>
1

>  <SCORE.INTER.POLAR>
0

>  <SCORE.INTER.ROT>
8

>  <SCORE.INTER.SOLV>
17.0025

>  <SCORE.INTER.VDW>
-23.4988

>  <SCORE.INTER.norm>
-0.513344

>  <SCORE.INTRA>
-0.483618

>  <SCORE.INTRA.DIHEDRAL>
-1.95979

>  <SCORE.INTRA.DIHEDRAL.0>
8.13976

>  <SCORE.INTRA.POLAR>
0

>  <SCORE.INTRA.POLAR.0>
0

>  <SCORE.INTRA.REPUL>
0

>  <SCORE.INTRA.REPUL.0>
0

>  <SCORE.INTRA.SOLV>
0.434067

>  <SCORE.INTRA.SOLV.lig_0>
-82.9561

>  <SCORE.INTRA.VDW>
0.279246

>  <SCORE.INTRA.VDW.0>
-3.29171

>  <SCORE.INTRA.norm>
-0.0186007

>  <SCORE.RESTR>
0

>  <SCORE.RESTR.CAVITY>
0

>  <SCORE.RESTR.norm>
0

>  <SCORE.SYSTEM>
0

>  <SCORE.SYSTEM.CONST>
0

>  <SCORE.SYSTEM.DIHEDRAL>
0

>  <SCORE.SYSTEM.SOLV>
0

>  <SCORE.SYSTEM.norm>
0

>  <SCORE.heavy>
26

>  <SCORE.norm>
-0.531945

>  <RMSD>
6.750

$$$$
ligand
 OpenBabel11021811433D
libRbt.so/2013.1/901 2013/11/27
 26 27  0  0  0  0  0  0  0  0999 V2000
  -14.9693  -16.0829    0.8791 C   0  0  0  0  0  0  0  0  0  0  0  0
  -23.4749  -17.2967   -0.3455 C   0  0  0  0  0  0  0  0  0  0  0  0
  -24.8901  -17.1691    3.3504 P   0  0  1  0  0  0  0  0  0  0  0  0
  -23.6219  -17.0557    5.9653 P   0  0  1  0  0  0  0  0  0  0  0  0
  -20.5761  -16.6394   -0.2554 C   0  0  0  0  0  0  0  0  0  0  0  0
  -18.6589  -16.1239    1.3095 C   0  0  0  0  0  0  0  0  0  0  0  0
  -19.0940  -16.4827    0.0400 C   0  0  0  0  0  0  0  0  0  0  0  0
  -18.1493  -16.7081   -0.9477 C   0  0  0  0  0  0  0  0  0  0  0  0
  -18.5257  -17.0590   -2.2014 N   0  0  0  0  0  0  0  0  0  0  0  0
  -16.8364  -16.5764   -0.6585 N   0  0  0  0  0  0  0  0  0  0  0  0
  -16.4379  -16.2247    0.5835 C   0  0  0  0  0  0  0  0  0  0  0  0
  -17.3485  -15.9992    1.5619 N   0  0  0  0  0  0  0  0  0  0  0  0
  -26.1407  -16.3451    3.5099 O   0  5  0  0  0  0  0  0  0  0  0  0
  -23.5634  -18.0056    7.1220 O   0  0  0  0  0  0  0  0  0  0  0  0
  -21.2778  -20.0173    1.7155 S   0  0  0  0  0  0  0  0  0  0  0  0
  -20.3242  -18.7168    1.0733 C   0  0  0  0  0  0  0  0  0  0  0  0
  -23.7145  -16.5156    2.6827 O   0  0  0  0  0  0  0  0  0  0  0  0
  -22.2569  -16.9025    5.3819 O   0  5  0  0  0  0  0  0  0  0  0  0
  -21.1104  -17.8365    0.3939 N   0  0  0  0  0  0  0  0  0  0  0  0
  -24.4934  -17.7729    4.8013 O   0  0  0  0  0  0  0  0  0  0  0  0
  -24.2952  -15.7365    6.2290 O   0  0  0  0  0  0  0  0  0  0  0  0
  -22.4377  -18.1362    0.3517 C   0  0  1  0  0  0  0  0  0  0  0  0
  -22.7520  -19.3877    1.0928 C   0  0  1  0  0  0  0  0  0  0  0  0
  -24.0107  -20.1677    1.3652 C   0  0  0  0  0  0  0  0  0  0  0  0
  -24.5951  -19.7032    2.6899 C   0  0  0  0  0  0  0  0  0  0  0  0
  -25.2587  -18.4641    2.4723 O   0  0  0  0  0  0  0  0  0  0  0  0
  1 11  1  0  0  0  0
  3 13  1  1  0  0  0
  3 17  2  0  0  0  0
  3 20  1  0  0  0  0
  3 26  1  0  0  0  0
  4 14  1  1  0  0  0
  4 18  1  0  0  0  0
  4 21  2  0  0  0  0
  4 20  1  0  0  0  0
  5 19  1  0  0  0  0
  5  7  1  0  0  0  0
  6  7  2  0  0  0  0
  6 12  1  0  0  0  0
  7  8  1  0  0  0  0
  8  9  1  0  0  0  0
  8 10  2  0  0  0  0
 10 11  1  0  0  0  0
 11 12  2  0  0  0  0
 15 23  1  0  0  0  0
 15 16  1  0  0  0  0
 16 19  1  0  0  0  0
 19 22  1  0  0  0  0
 22  2  1  1  0  0  0
 22 23  1  0  0  0  0
 23 24  1  6  0  0  0
 24 25  1  0  0  0  0
 25 26  1  0  0  0  0
M  CHG  2  13  -1  18  -1
M  END
>  <CHROM.1>
-85.28206273,-4.70105858,-71.10942089,178.59192673,88.48511946,77.87888740
-125.51279466,-147.58575301,-21.84873388,-17.50092921,2.27000691,-0.51536904
0.33497713,1.19974378

>  <Name>
ligand

>  <RI>
0

>  <Rbt.Current_Directory>
/home/itssahil/PROJECTS/Mol_Feturizer/New_Systems/rnas/2GDI

>  <Rbt.Executable>
rbdock ($Id: //depot/dev/client3/rdock/2013.1/src/exe/rbdock.cxx#4 $)

>  <Rbt.Library>
libRbt.so (2013.1, Build901 2013/11/27)

>  <Rbt.Parameter_File>
/export/apps/rDock/src/rDock_2013.1_src/data/scripts/dock_solv.prm

>  <Rbt.Receptor>
prm/pocket_docking_8.prm

>  <SCORE>
-8.42847

>  <SCORE.INTER>
-13.1803

>  <SCORE.INTER.CONST>
1

>  <SCORE.INTER.POLAR>
0

>  <SCORE.INTER.ROT>
8

>  <SCORE.INTER.SOLV>
15.5809

>  <SCORE.INTER.VDW>
-22.9138

>  <SCORE.INTER.norm>
-0.506935

>  <SCORE.INTRA>
4.75184

>  <SCORE.INTRA.DIHEDRAL>
6.72725

>  <SCORE.INTRA.DIHEDRAL.0>
8.13976

>  <SCORE.INTRA.POLAR>
0

>  <SCORE.INTRA.POLAR.0>
0

>  <SCORE.INTRA.REPUL>
0

>  <SCORE.INTRA.REPUL.0>
0

>  <SCORE.INTRA.SOLV>
4.1611

>  <SCORE.INTRA.SOLV.lig_0>
-82.9561

>  <SCORE.INTRA.VDW>
-0.692338

>  <SCORE.INTRA.VDW.0>
-3.29171

>  <SCORE.INTRA.norm>
0.182763

>  <SCORE.RESTR>
0

>  <SCORE.RESTR.CAVITY>
0

>  <SCORE.RESTR.norm>
0

>  <SCORE.SYSTEM>
0

>  <SCORE.SYSTEM.CONST>
0

>  <SCORE.SYSTEM.DIHEDRAL>
0

>  <SCORE.SYSTEM.SOLV>
0

>  <SCORE.SYSTEM.norm>
0

>  <SCORE.heavy>
26

>  <SCORE.norm>
-0.324172

>  <RMSD>
6.773

$$$$
ligand
 OpenBabel11021811433D
libRbt.so/2013.1/901 2013/11/27
 26 27  0  0  0  0  0  0  0  0999 V2000
  -23.0046  -12.5215    7.3711 C   0  0  0  0  0  0  0  0  0  0  0  0
  -20.8715  -12.4720   -1.0108 C   0  0  0  0  0  0  0  0  0  0  0  0
  -16.3117  -15.9210    0.0906 P   0  0  1  0  0  0  0  0  0  0  0  0
  -19.1266  -16.6524    0.0931 P   0  0  1  0  0  0  0  0  0  0  0  0
  -21.9527  -12.1099    1.7357 C   0  0  0  0  0  0  0  0  0  0  0  0
  -22.0000  -11.1430    4.0709 C   0  0  0  0  0  0  0  0  0  0  0  0
  -22.2216  -12.2238    3.2267 C   0  0  0  0  0  0  0  0  0  0  0  0
  -22.7054  -13.4030    3.7691 C   0  0  0  0  0  0  0  0  0  0  0  0
  -22.9359  -14.4844    2.9856 N   0  0  0  0  0  0  0  0  0  0  0  0
  -22.9503  -13.4768    5.0955 N   0  0  0  0  0  0  0  0  0  0  0  0
  -22.7252  -12.4125    5.8965 C   0  0  0  0  0  0  0  0  0  0  0  0
  -22.2510  -11.2511    5.3831 N   0  0  0  0  0  0  0  0  0  0  0  0
  -16.0717  -16.2979    1.5290 O   0  5  0  0  0  0  0  0  0  0  0  0
  -19.0635  -16.3272    1.5538 O   0  0  0  0  0  0  0  0  0  0  0  0
  -17.9845  -11.9138    1.7876 S   0  0  0  0  0  0  0  0  0  0  0  0
  -19.5890  -11.8897    2.4495 C   0  0  0  0  0  0  0  0  0  0  0  0
  -15.1507  -16.0350   -0.8549 O   0  0  0  0  0  0  0  0  0  0  0  0
  -19.7179  -15.4981   -0.6454 O   0  5  0  0  0  0  0  0  0  0  0  0
  -20.5145  -12.0816    1.4690 N   0  0  0  0  0  0  0  0  0  0  0  0
  -17.5991  -16.7495   -0.4416 O   0  0  0  0  0  0  0  0  0  0  0  0
  -19.7709  -17.9644   -0.2631 O   0  0  0  0  0  0  0  0  0  0  0  0
  -20.0210  -12.2474    0.2111 C   0  0  1  0  0  0  0  0  0  0  0  0
  -18.5340  -12.1983    0.1831 C   0  0  1  0  0  0  0  0  0  0  0  0
  -17.4922  -12.3161   -0.8976 C   0  0  0  0  0  0  0  0  0  0  0  0
  -17.2274  -13.7902   -1.1609 C   0  0  0  0  0  0  0  0  0  0  0  0
  -16.7884  -14.3862    0.0536 O   0  0  0  0  0  0  0  0  0  0  0  0
  1 11  1  0  0  0  0
  3 13  1  1  0  0  0
  3 17  2  0  0  0  0
  3 20  1  0  0  0  0
  3 26  1  0  0  0  0
  4 14  1  1  0  0  0
  4 18  1  0  0  0  0
  4 21  2  0  0  0  0
  4 20  1  0  0  0  0
  5 19  1  0  0  0  0
  5  7  1  0  0  0  0
  6  7  2  0  0  0  0
  6 12  1  0  0  0  0
  7  8  1  0  0  0  0
  8  9  1  0  0  0  0
  8 10  2  0  0  0  0
 10 11  1  0  0  0  0
 11 12  2  0  0  0  0
 15 23  1  0  0  0  0
 15 16  1  0  0  0  0
 16 19  1  0  0  0  0
 19 22  1  0  0  0  0
 22  2  1  1  0  0  0
 22 23  1  0  0  0  0
 23 24  1  6  0  0  0
 24 25  1  0  0  0  0
 25 26  1  0  0  0  0
M  CHG  2  13  -1  18  -1
M  END
>  <CHROM.1>
63.15457296,-13.09177744,72.51455587,-31.71624838,98.09475307,-58.76964751
-175.17271301,-173.25561937,-19.44319141,-14.01143728,1.47292327,2.64878067
0.72421108,0.06595790

>  <Name>
ligand

>  <RI>
0

>  <Rbt.Current_Directory>
/home/itssahil/PROJECTS/Mol_Feturizer/New_Systems/rnas/2GDI

>  <Rbt.Executable>
rbdock ($Id: //depot/dev/client3/rdock/2013.1/src/exe/rbdock.cxx#4 $)

>  <Rbt.Library>
libRbt.so (2013.1, Build901 2013/11/27)

>  <Rbt.Parameter_File>
/export/apps/rDock/src/rDock_2013.1_src/data/scripts/dock_solv.prm

>  <Rbt.Receptor>
prm/pocket_docking_6.prm

>  <SCORE>
-11.9115

>  <SCORE.INTER>
-10.4955

>  <SCORE.INTER.CONST>
1

>  <SCORE.INTER.POLAR>
0

>  <SCORE.INTER.ROT>
8

>  <SCORE.INTER.SOLV>
16.1823

>  <SCORE.INTER.VDW>
-21.3244

>  <SCORE.INTER.norm>
-0.403674

>  <SCORE.INTRA>
-1.41598

>  <SCORE.INTRA.DIHEDRAL>
-2.10214

>  <SCORE.INTRA.DIHEDRAL.0>
8.13976

>  <SCORE.INTRA.POLAR>
0

>  <SCORE.INTRA.POLAR.0>
0

>  <SCORE.INTRA.REPUL>
0

>  <SCORE.INTRA.REPUL.0>
0

>  <SCORE.INTRA.SOLV>
1.68523

>  <SCORE.INTRA.SOLV.lig_0>
-82.9561

>  <SCORE.INTRA.VDW>
-1.20752

>  <SCORE.INTRA.VDW.0>
-3.29171

>  <SCORE.INTRA.norm>
-0.0544607

>  <SCORE.RESTR>
0

>  <SCORE.RESTR.CAVITY>
0

>  <SCORE.RESTR.norm>
0

>  <SCORE.SYSTEM>
0

>  <SCORE.SYSTEM.CONST>
0

>  <SCORE.SYSTEM.DIHEDRAL>
0

>  <SCORE.SYSTEM.SOLV>
0

>  <SCORE.SYSTEM.norm>
0

>  <SCORE.heavy>
26

>  <SCORE.norm>
-0.458135

>  <RMSD>
6.912

$$$$
ligand
 OpenBabel11021811433D
libRbt.so/2013.1/901 2013/11/27
 26 27  0  0  0  0  0  0  0  0999 V2000
  -20.8439  -19.5735    1.9287 C   0  0  0  0  0  0  0  0  0  0  0  0
  -22.0646  -15.4013   -3.1193 C   0  0  0  0  0  0  0  0  0  0  0  0
  -24.9328  -12.3351    1.2086 P   0  0  1  0  0  0  0  0  0  0  0  0
  -22.6947  -11.7053    2.9559 P   0  0  1  0  0  0  0  0  0  0  0  0
  -19.3483  -15.5773   -1.9219 C   0  0  0  0  0  0  0  0  0  0  0  0
  -20.2878  -16.2716    0.3199 C   0  0  0  0  0  0  0  0  0  0  0  0
  -19.7335  -16.6346   -0.9011 C   0  0  0  0  0  0  0  0  0  0  0  0
  -19.5516  -17.9803   -1.1748 C   0  0  0  0  0  0  0  0  0  0  0  0
  -19.0136  -18.3827   -2.3517 N   0  0  0  0  0  0  0  0  0  0  0  0
  -19.9143  -18.9033   -0.2577 N   0  0  0  0  0  0  0  0  0  0  0  0
  -20.4499  -18.5253    0.9236 C   0  0  0  0  0  0  0  0  0  0  0  0
  -20.6342  -17.2131    1.2087 N   0  0  0  0  0  0  0  0  0  0  0  0
  -24.9349  -13.7685    1.6709 O   0  5  0  0  0  0  0  0  0  0  0  0
  -21.7129  -11.6535    1.8259 O   0  0  0  0  0  0  0  0  0  0  0  0
  -20.9872  -12.0544   -1.0911 S   0  0  0  0  0  0  0  0  0  0  0  0
  -19.7632  -13.2851   -1.0743 C   0  0  0  0  0  0  0  0  0  0  0  0
  -26.2545  -11.7303    0.8315 O   0  0  0  0  0  0  0  0  0  0  0  0
  -22.4597  -10.5480    3.8684 O   0  5  0  0  0  0  0  0  0  0  0  0
  -20.1771  -14.3817   -1.7678 N   0  0  0  0  0  0  0  0  0  0  0  0
  -24.1650  -11.4446    2.3242 O   0  0  0  0  0  0  0  0  0  0  0  0
  -22.7885  -13.0160    3.6883 O   0  0  0  0  0  0  0  0  0  0  0  0
  -21.4205  -14.3026   -2.3165 C   0  0  1  0  0  0  0  0  0  0  0  0
  -22.0687  -12.9908   -2.0453 C   0  0  1  0  0  0  0  0  0  0  0  0
  -23.3974  -12.3754   -2.3958 C   0  0  0  0  0  0  0  0  0  0  0  0
  -24.4139  -12.7744   -1.3376 C   0  0  0  0  0  0  0  0  0  0  0  0
  -23.9918  -12.2351   -0.0909 O   0  0  0  0  0  0  0  0  0  0  0  0
  1 11  1  0  0  0  0
  3 13  1  1  0  0  0
  3 17  2  0  0  0  0
  3 20  1  0  0  0  0
  3 26  1  0  0  0  0
  4 14  1  6  0  0  0
  4 18  1  0  0  0  0
  4 21  2  0  0  0  0
  4 20  1  0  0  0  0
  5 19  1  0  0  0  0
  5  7  1  0  0  0  0
  6  7  2  0  0  0  0
  6 12  1  0  0  0  0
  7  8  1  0  0  0  0
  8  9  1  0  0  0  0
  8 10  2  0  0  0  0
 10 11  1  0  0  0  0
 11 12  2  0  0  0  0
 15 23  1  0  0  0  0
 15 16  1  0  0  0  0
 16 19  1  0  0  0  0
 19 22  1  0  0  0  0
 22  2  1  6  0  0  0
 22 23  1  0  0  0  0
 23 24  1  1  0  0  0
 24 25  1  0  0  0  0
 25 26  1  0  0  0  0
M  CHG  2  13  -1  18  -1
M  END
>  <CHROM.1>
52.20599518,97.59236376,-27.60794579,60.80342069,-91.98748552,62.82809786
173.11189960,72.21468271,-22.07683836,-14.02094711,0.24627185,0.00874321
-1.01195607,2.00046841

>  <Name>
ligand

>  <RI>
0

>  <Rbt.Current_Directory>
/home/itssahil/PROJECTS/Mol_Feturizer/New_Systems/rnas/2GDI

>  <Rbt.Executable>
rbdock ($Id: //depot/dev/client3/rdock/2013.1/src/exe/rbdock.cxx#4 $)

>  <Rbt.Library>
libRbt.so (2013.1, Build901 2013/11/27)

>  <Rbt.Parameter_File>
/export/apps/rDock/src/rDock_2013.1_src/data/scripts/dock_solv.prm

>  <Rbt.Receptor>
prm/pocket_docking_7.prm

>  <SCORE>
-13.5309

>  <SCORE.INTER>
-10.8478

>  <SCORE.INTER.CONST>
1

>  <SCORE.INTER.POLAR>
0

>  <SCORE.INTER.ROT>
8

>  <SCORE.INTER.SOLV>
15.546

>  <SCORE.INTER.VDW>
-21.3472

>  <SCORE.INTER.norm>
-0.417223

>  <SCORE.INTRA>
-2.6831

>  <SCORE.INTRA.DIHEDRAL>
-2.92267

>  <SCORE.INTRA.DIHEDRAL.0>
8.13976

>  <SCORE.INTRA.POLAR>
0

>  <SCORE.INTRA.POLAR.0>
0

>  <SCORE.INTRA.REPUL>
0

>  <SCORE.INTRA.REPUL.0>
0

>  <SCORE.INTRA.SOLV>
-0.099486

>  <SCORE.INTRA.SOLV.lig_0>
-82.9561

>  <SCORE.INTRA.VDW>
-1.17203

>  <SCORE.INTRA.VDW.0>
-3.29171

>  <SCORE.INTRA.norm>
-0.103196

>  <SCORE.RESTR>
0

>  <SCORE.RESTR.CAVITY>
0

>  <SCORE.RESTR.norm>
0

>  <SCORE.SYSTEM>
0

>  <SCORE.SYSTEM.CONST>
0

>  <SCORE.SYSTEM.DIHEDRAL>
0

>  <SCORE.SYSTEM.SOLV>
0

>  <SCORE.SYSTEM.norm>
0

>  <SCORE.heavy>
26

>  <SCORE.norm>
-0.52042

>  <RMSD>
6.966

$$$$
ligand
 OpenBabel11021811433D
libRbt.so/2013.1/901 2013/11/27
 26 27  0  0  0  0  0  0  0  0999 V2000
  -19.9030  -12.8263    0.7047 C   0  0  0  0  0  0  0  0  0  0  0  0
  -21.2387  -19.4370    2.1868 C   0  0  0  0  0  0  0  0  0  0  0  0
  -25.0895  -17.0006    2.9846 P   0  0  1  0  0  0  0  0  0  0  0  0
  -24.7235  -14.1579    2.4909 P   0  0  1  0  0  0  0  0  0  0  0  0
  -19.9298  -18.4838   -0.3075 C   0  0  0  0  0  0  0  0  0  0  0  0
  -20.3869  -16.4806    1.1650 C   0  0  0  0  0  0  0  0  0  0  0  0
  -19.9316  -16.9872   -0.0457 C   0  0  0  0  0  0  0  0  0  0  0  0
  -19.4665  -16.1019   -1.0042 C   0  0  0  0  0  0  0  0  0  0  0  0
  -19.0136  -16.5489   -2.2006 N   0  0  0  0  0  0  0  0  0  0  0  0
  -19.4646  -14.7764   -0.7440 N   0  0  0  0  0  0  0  0  0  0  0  0
  -19.9142  -14.3076    0.4406 C   0  0  0  0  0  0  0  0  0  0  0  0
  -20.3737  -15.1593    1.3897 N   0  0  0  0  0  0  0  0  0  0  0  0
  -24.2442  -17.1367    4.2238 O   0  5  0  0  0  0  0  0  0  0  0  0
  -24.3296  -13.9797    3.9250 O   0  0  0  0  0  0  0  0  0  0  0  0
  -23.6075  -19.7664   -1.0929 S   0  0  0  0  0  0  0  0  0  0  0  0
  -22.0448  -19.0979   -1.4453 C   0  0  0  0  0  0  0  0  0  0  0  0
  -26.5788  -16.9462    3.1685 O   0  0  0  0  0  0  0  0  0  0  0  0
  -23.7388  -13.4555    1.6168 O   0  5  0  0  0  0  0  0  0  0  0  0
  -21.2945  -19.0109   -0.3121 N   0  0  0  0  0  0  0  0  0  0  0  0
  -24.5453  -15.7303    2.1379 O   0  0  0  0  0  0  0  0  0  0  0  0
  -26.1497  -13.8197    2.1520 O   0  0  0  0  0  0  0  0  0  0  0  0
  -21.8925  -19.4468    0.8307 C   0  0  1  0  0  0  0  0  0  0  0  0
  -23.2694  -19.9537    0.5827 C   0  0  1  0  0  0  0  0  0  0  0  0
  -24.3548  -20.5340    1.4500 C   0  0  0  0  0  0  0  0  0  0  0  0
  -24.6384  -19.5667    2.5886 C   0  0  0  0  0  0  0  0  0  0  0  0
  -24.7870  -18.2639    2.0375 O   0  0  0  0  0  0  0  0  0  0  0  0
  1 11  1  0  0  0  0
  3 13  1  1  0  0  0
  3 17  2  0  0  0  0
  3 20  1  0  0  0  0
  3 26  1  0  0  0  0
  4 14  1  1  0  0  0
  4 18  1  0  0  0  0
  4 21  2  0  0  0  0
  4 20  1  0  0  0  0
  5 19  1  0  0  0  0
  5  7  1  0  0  0  0
  6  7  2  0  0  0  0
  6 12  1  0  0  0  0
  7  8  1  0  0  0  0
  8  9  1  0  0  0  0
  8 10  2  0  0  0  0
 10 11  1  0  0  0  0
 11 12  2  0  0  0  0
 15 23  1  0  0  0  0
 15 16  1  0  0  0  0
 16 19  1  0  0  0  0
 19 22  1  0  0  0  0
 22  2  1  6  0  0  0
 22 23  1  0  0  0  0
 23 24  1  1  0  0  0
 24 25  1  0  0  0  0
 25 26  1  0  0  0  0
M  CHG  2  13  -1  18  -1
M  END
>  <CHROM.1>
-73.00895178,91.05967596,64.02655269,48.85942659,-124.47278579,48.10784194
-179.69417199,40.93844461,-22.86160005,-16.83678179,1.24010841,-0.39856887
0.54604050,0.26216372

>  <Name>
ligand

>  <RI>
0

>  <Rbt.Current_Directory>
/home/itssahil/PROJECTS/Mol_Feturizer/New_Systems/rnas/2GDI

>  <Rbt.Executable>
rbdock ($Id: //depot/dev/client3/rdock/2013.1/src/exe/rbdock.cxx#4 $)

>  <Rbt.Library>
libRbt.so (2013.1, Build901 2013/11/27)

>  <Rbt.Parameter_File>
/export/apps/rDock/src/rDock_2013.1_src/data/scripts/dock_solv.prm

>  <Rbt.Receptor>
prm/pocket_docking_7.prm

>  <SCORE>
-7.40468

>  <SCORE.INTER>
-6.15199

>  <SCORE.INTER.CONST>
1

>  <SCORE.INTER.POLAR>
0

>  <SCORE.INTER.ROT>
8

>  <SCORE.INTER.SOLV>
12.0308

>  <SCORE.INTER.VDW>
-17.0449

>  <SCORE.INTER.norm>
-0.236615

>  <SCORE.INTRA>
-1.25269

>  <SCORE.INTRA.DIHEDRAL>
-1.81438

>  <SCORE.INTRA.DIHEDRAL.0>
8.13976

>  <SCORE.INTRA.POLAR>
0

>  <SCORE.INTRA.POLAR.0>
0

>  <SCORE.INTRA.REPUL>
0

>  <SCORE.INTRA.REPUL.0>
0

>  <SCORE.INTRA.SOLV>
0.897665

>  <SCORE.INTRA.SOLV.lig_0>
-82.9561

>  <SCORE.INTRA.VDW>
-0.79433

>  <SCORE.INTRA.VDW.0>
-3.29171

>  <SCORE.INTRA.norm>
-0.0481804

>  <SCORE.RESTR>
0

>  <SCORE.RESTR.CAVITY>
0

>  <SCORE.RESTR.norm>
0

>  <SCORE.SYSTEM>
0

>  <SCORE.SYSTEM.CONST>
0

>  <SCORE.SYSTEM.DIHEDRAL>
0

>  <SCORE.SYSTEM.SOLV>
0

>  <SCORE.SYSTEM.norm>
0

>  <SCORE.heavy>
26

>  <SCORE.norm>
-0.284795

>  <RMSD>
7.010

$$$$
ligand
 OpenBabel11021811433D
libRbt.so/2013.1/901 2013/11/27
 26 27  0  0  0  0  0  0  0  0999 V2000
  -21.7574   -5.8305    5.7044 C   0  0  0  0  0  0  0  0  0  0  0  0
  -22.1451  -12.7544    2.7262 C   0  0  0  0  0  0  0  0  0  0  0  0
  -24.1749  -16.3340    1.2171 P   0  0  1  0  0  0  0  0  0  0  0  0
  -25.7852  -15.8679    3.5937 P   0  0  1  0  0  0  0  0  0  0  0  0
  -23.5756  -11.2119    4.8279 C   0  0  0  0  0  0  0  0  0  0  0  0
  -22.8747   -8.9317    3.9914 C   0  0  0  0  0  0  0  0  0  0  0  0
  -23.0851   -9.7929    5.0609 C   0  0  0  0  0  0  0  0  0  0  0  0
  -22.8518   -9.3280    6.3448 C   0  0  0  0  0  0  0  0  0  0  0  0
  -23.0419  -10.1316    7.4193 N   0  0  0  0  0  0  0  0  0  0  0  0
  -22.4293   -8.0583    6.5287 N   0  0  0  0  0  0  0  0  0  0  0  0
  -22.2302   -7.2400    5.4723 C   0  0  0  0  0  0  0  0  0  0  0  0
  -22.4524   -7.6784    4.2091 N   0  0  0  0  0  0  0  0  0  0  0  0
  -22.8855  -17.0628    0.9437 O   0  5  0  0  0  0  0  0  0  0  0  0
  -27.0074  -16.3824    2.8973 O   0  0  0  0  0  0  0  0  0  0  0  0
  -25.6529  -11.1668    1.4412 S   0  0  0  0  0  0  0  0  0  0  0  0
  -25.3071  -10.8008    3.1024 C   0  0  0  0  0  0  0  0  0  0  0  0
  -25.3652  -16.7004    0.3782 O   0  0  0  0  0  0  0  0  0  0  0  0
  -25.7023  -16.4702    4.9566 O   0  5  0  0  0  0  0  0  0  0  0  0
  -24.1221  -11.3565    3.4787 N   0  0  0  0  0  0  0  0  0  0  0  0
  -24.4995  -16.4562    2.8003 O   0  0  0  0  0  0  0  0  0  0  0  0
  -25.6127  -14.3734    3.6049 O   0  0  0  0  0  0  0  0  0  0  0  0
  -23.4661  -12.0631    2.5175 C   0  0  1  0  0  0  0  0  0  0  0  0
  -24.1999  -12.0602    1.2229 C   0  0  1  0  0  0  0  0  0  0  0  0
  -23.9511  -12.6613   -0.1349 C   0  0  0  0  0  0  0  0  0  0  0  0
  -24.4668  -14.0918   -0.1368 C   0  0  0  0  0  0  0  0  0  0  0  0
  -23.9146  -14.7642    0.9885 O   0  0  0  0  0  0  0  0  0  0  0  0
  1 11  1  0  0  0  0
  3 13  1  6  0  0  0
  3 17  2  0  0  0  0
  3 20  1  0  0  0  0
  3 26  1  0  0  0  0
  4 14  1  6  0  0  0
  4 18  1  0  0  0  0
  4 21  2  0  0  0  0
  4 20  1  0  0  0  0
  5 19  1  0  0  0  0
  5  7  1  0  0  0  0
  6  7  2  0  0  0  0
  6 12  1  0  0  0  0
  7  8  1  0  0  0  0
  8  9  1  0  0  0  0
  8 10  2  0  0  0  0
 10 11  1  0  0  0  0
 11 12  2  0  0  0  0
 15 23  1  0  0  0  0
 15 16  1  0  0  0  0
 16 19  1  0  0  0  0
 19 22  1  0  0  0  0
 22  2  1  6  0  0  0
 22 23  1  0  0  0  0
 23 24  1  1  0  0  0
 24 25  1  0  0  0  0
 25 26  1  0  0  0  0
M  CHG  2  13  -1  18  -1
M  END
>  <CHROM.1>
-178.74921235,-71.56352926,-16.10338963,54.06431011,-93.70782647,-51.46539139
-175.34949686,108.54080375,-24.14475659,-12.73722413,3.07675291,-0.55751587
-1.26641725,-1.72994734

>  <Name>
ligand

>  <RI>
0

>  <Rbt.Current_Directory>
/home/itssahil/PROJECTS/Mol_Feturizer/New_Systems/rnas/2GDI

>  <Rbt.Executable>
rbdock ($Id: //depot/dev/client3/rdock/2013.1/src/exe/rbdock.cxx#4 $)

>  <Rbt.Library>
libRbt.so (2013.1, Build901 2013/11/27)

>  <Rbt.Parameter_File>
/export/apps/rDock/src/rDock_2013.1_src/data/scripts/dock_solv.prm

>  <Rbt.Receptor>
prm/pocket_docking_8.prm

>  <SCORE>
-15.9737

>  <SCORE.INTER>
-15.2398

>  <SCORE.INTER.CONST>
1

>  <SCORE.INTER.POLAR>
0

>  <SCORE.INTER.ROT>
8

>  <SCORE.INTER.SOLV>
14.0531

>  <SCORE.INTER.VDW>
-23.7776

>  <SCORE.INTER.norm>
-0.586147

>  <SCORE.INTRA>
-0.733911

>  <SCORE.INTRA.DIHEDRAL>
-0.770829

>  <SCORE.INTRA.DIHEDRAL.0>
8.13976

>  <SCORE.INTRA.POLAR>
0

>  <SCORE.INTRA.POLAR.0>
0

>  <SCORE.INTRA.REPUL>
0

>  <SCORE.INTRA.REPUL.0>
0

>  <SCORE.INTRA.SOLV>
1.7364

>  <SCORE.INTRA.SOLV.lig_0>
-82.9561

>  <SCORE.INTRA.VDW>
-1.2167

>  <SCORE.INTRA.VDW.0>
-3.29171

>  <SCORE.INTRA.norm>
-0.0282274

>  <SCORE.RESTR>
0

>  <SCORE.RESTR.CAVITY>
0

>  <SCORE.RESTR.norm>
0

>  <SCORE.SYSTEM>
0

>  <SCORE.SYSTEM.CONST>
0

>  <SCORE.SYSTEM.DIHEDRAL>
0

>  <SCORE.SYSTEM.SOLV>
0

>  <SCORE.SYSTEM.norm>
0

>  <SCORE.heavy>
26

>  <SCORE.norm>
-0.614374

>  <RMSD>
7.041

$$$$
ligand
 OpenBabel11021811433D
libRbt.so/2013.1/901 2013/11/27
 26 27  0  0  0  0  0  0  0  0999 V2000
  -21.5168   -6.4016    5.8994 C   0  0  0  0  0  0  0  0  0  0  0  0
  -22.4633  -13.3840    2.6058 C   0  0  0  0  0  0  0  0  0  0  0  0
  -24.5742  -16.6717    0.9692 P   0  0  1  0  0  0  0  0  0  0  0  0
  -23.1502  -18.7947    2.3562 P   0  0  1  0  0  0  0  0  0  0  0  0
  -23.5854  -11.6357    4.7336 C   0  0  0  0  0  0  0  0  0  0  0  0
  -22.5655   -9.4334    4.0263 C   0  0  0  0  0  0  0  0  0  0  0  0
  -23.0294  -10.2564    5.0448 C   0  0  0  0  0  0  0  0  0  0  0  0
  -22.9875   -9.7893    6.3482 C   0  0  0  0  0  0  0  0  0  0  0  0
  -23.4276  -10.5563    7.3751 N   0  0  0  0  0  0  0  0  0  0  0  0
  -22.5017   -8.5542    6.5996 N   0  0  0  0  0  0  0  0  0  0  0  0
  -22.0548   -7.7729    5.5922 C   0  0  0  0  0  0  0  0  0  0  0  0
  -22.0872   -8.2141    4.3109 N   0  0  0  0  0  0  0  0  0  0  0  0
  -24.5473  -17.4194   -0.3380 O   0  5  0  0  0  0  0  0  0  0  0  0
  -24.4383  -19.2923    2.9364 O   0  0  0  0  0  0  0  0  0  0  0  0
  -25.6542  -11.2010    1.3693 S   0  0  0  0  0  0  0  0  0  0  0  0
  -25.2351  -10.9153    3.0294 C   0  0  0  0  0  0  0  0  0  0  0  0
  -25.8836  -16.6105    1.7017 O   0  0  0  0  0  0  0  0  0  0  0  0
  -22.8674  -19.5220    1.0841 O   0  5  0  0  0  0  0  0  0  0  0  0
  -24.1610  -11.6714    3.3891 N   0  0  0  0  0  0  0  0  0  0  0  0
  -23.3901  -17.2546    1.9100 O   0  0  0  0  0  0  0  0  0  0  0  0
  -21.9711  -18.7731    3.2904 O   0  0  0  0  0  0  0  0  0  0  0  0
  -23.6462  -12.4724    2.4160 C   0  0  1  0  0  0  0  0  0  0  0  0
  -24.3802  -12.3308    1.1293 C   0  0  1  0  0  0  0  0  0  0  0  0
  -24.2518  -12.9538   -0.2354 C   0  0  0  0  0  0  0  0  0  0  0  0
  -24.8911  -14.3331   -0.2037 C   0  0  0  0  0  0  0  0  0  0  0  0
  -24.1355  -15.1524    0.6799 O   0  0  0  0  0  0  0  0  0  0  0  0
  1 11  1  0  0  0  0
  3 13  1  6  0  0  0
  3 17  2  0  0  0  0
  3 20  1  0  0  0  0
  3 26  1  0  0  0  0
  4 14  1  1  0  0  0
  4 18  1  0  0  0  0
  4 21  2  0  0  0  0
  4 20  1  0  0  0  0
  5 19  1  0  0  0  0
  5  7  1  0  0  0  0
  6  7  2  0  0  0  0
  6 12  1  0  0  0  0
  7  8  1  0  0  0  0
  8  9  1  0  0  0  0
  8 10  2  0  0  0  0
 10 11  1  0  0  0  0
 11 12  2  0  0  0  0
 15 23  1  0  0  0  0
 15 16  1  0  0  0  0
 16 19  1  0  0  0  0
 19 22  1  0  0  0  0
 22  2  1  6  0  0  0
 22 23  1  0  0  0  0
 23 24  1  1  0  0  0
 24 25  1  0  0  0  0
 25 26  1  0  0  0  0
M  CHG  2  13  -1  18  -1
M  END
>  <CHROM.1>
-55.58803536,-63.40929489,-28.24900295,-52.25625596,-99.14372099,-65.05684025
178.35161438,60.60659414,-23.71119451,-13.64722148,2.74991193,-1.36633709
1.05044630,-2.93911745

>  <Name>
ligand

>  <RI>
0

>  <Rbt.Current_Directory>
/home/itssahil/PROJECTS/Mol_Feturizer/New_Systems/rnas/2GDI

>  <Rbt.Executable>
rbdock ($Id: //depot/dev/client3/rdock/2013.1/src/exe/rbdock.cxx#4 $)

>  <Rbt.Library>
libRbt.so (2013.1, Build901 2013/11/27)

>  <Rbt.Parameter_File>
/export/apps/rDock/src/rDock_2013.1_src/data/scripts/dock_solv.prm

>  <Rbt.Receptor>
prm/pocket_docking_7.prm

>  <SCORE>
-16.4122

>  <SCORE.INTER>
-14.6515

>  <SCORE.INTER.CONST>
1

>  <SCORE.INTER.POLAR>
0

>  <SCORE.INTER.ROT>
8

>  <SCORE.INTER.SOLV>
14.3343

>  <SCORE.INTER.VDW>
-23.4791

>  <SCORE.INTER.norm>
-0.56352

>  <SCORE.INTRA>
-1.76072

>  <SCORE.INTRA.DIHEDRAL>
-3.08821

>  <SCORE.INTRA.DIHEDRAL.0>
8.13976

>  <SCORE.INTRA.POLAR>
0

>  <SCORE.INTRA.POLAR.0>
0

>  <SCORE.INTRA.REPUL>
0

>  <SCORE.INTRA.REPUL.0>
0

>  <SCORE.INTRA.SOLV>
0.482805

>  <SCORE.INTRA.SOLV.lig_0>
-82.9561

>  <SCORE.INTRA.VDW>
-0.458014

>  <SCORE.INTRA.VDW.0>
-3.29171

>  <SCORE.INTRA.norm>
-0.0677199

>  <SCORE.RESTR>
0

>  <SCORE.RESTR.CAVITY>
0

>  <SCORE.RESTR.norm>
0

>  <SCORE.SYSTEM>
0

>  <SCORE.SYSTEM.CONST>
0

>  <SCORE.SYSTEM.DIHEDRAL>
0

>  <SCORE.SYSTEM.SOLV>
0

>  <SCORE.SYSTEM.norm>
0

>  <SCORE.heavy>
26

>  <SCORE.norm>
-0.63124

>  <RMSD>
7.097

$$$$
ligand
 OpenBabel11021811433D
libRbt.so/2013.1/901 2013/11/27
 26 27  0  0  0  0  0  0  0  0999 V2000
  -21.5169   -6.4299    5.5087 C   0  0  0  0  0  0  0  0  0  0  0  0
  -22.3606  -12.7279    2.7408 C   0  0  0  0  0  0  0  0  0  0  0  0
  -23.2026  -16.4867    0.7392 P   0  0  1  0  0  0  0  0  0  0  0  0
  -22.4412  -18.3758   -1.3370 P   0  0  1  0  0  0  0  0  0  0  0  0
  -24.1349  -11.4949    4.7841 C   0  0  0  0  0  0  0  0  0  0  0  0
  -23.1747   -9.3339    3.8905 C   0  0  0  0  0  0  0  0  0  0  0  0
  -23.4335  -10.1610    4.9763 C   0  0  0  0  0  0  0  0  0  0  0  0
  -23.0515   -9.7393    6.2393 C   0  0  0  0  0  0  0  0  0  0  0  0
  -23.2817  -10.5121    7.3284 N   0  0  0  0  0  0  0  0  0  0  0  0
  -22.4417   -8.5432    6.3878 N   0  0  0  0  0  0  0  0  0  0  0  0
  -22.1993   -7.7571    5.3161 C   0  0  0  0  0  0  0  0  0  0  0  0
  -22.5652   -8.1542    4.0729 N   0  0  0  0  0  0  0  0  0  0  0  0
  -24.5508  -17.0794    1.0545 O   0  5  0  0  0  0  0  0  0  0  0  0
  -23.6198  -19.2590   -1.0646 O   0  0  0  0  0  0  0  0  0  0  0  0
  -25.9698  -11.6045    1.2615 S   0  0  0  0  0  0  0  0  0  0  0  0
  -25.7907  -11.2630    2.9540 C   0  0  0  0  0  0  0  0  0  0  0  0
  -22.0824  -16.7733    1.6972 O   0  0  0  0  0  0  0  0  0  0  0  0
  -22.2856  -18.1995   -2.8108 O   0  5  0  0  0  0  0  0  0  0  0  0
  -24.5648  -11.6593    3.3954 N   0  0  0  0  0  0  0  0  0  0  0  0
  -22.8109  -16.8992   -0.7785 O   0  0  0  0  0  0  0  0  0  0  0  0
  -21.1562  -18.7625   -0.6569 O   0  0  0  0  0  0  0  0  0  0  0  0
  -23.7514  -12.2240    2.4611 C   0  0  1  0  0  0  0  0  0  0  0  0
  -24.3913  -12.2715    1.1184 C   0  0  1  0  0  0  0  0  0  0  0  0
  -23.9692  -12.7734   -0.2369 C   0  0  0  0  0  0  0  0  0  0  0  0
  -24.1977  -14.2757   -0.2934 C   0  0  0  0  0  0  0  0  0  0  0  0
  -23.3649  -14.8883    0.6834 O   0  0  0  0  0  0  0  0  0  0  0  0
  1 11  1  0  0  0  0
  3 13  1  1  0  0  0
  3 17  2  0  0  0  0
  3 20  1  0  0  0  0
  3 26  1  0  0  0  0
  4 14  1  1  0  0  0
  4 18  1  0  0  0  0
  4 21  2  0  0  0  0
  4 20  1  0  0  0  0
  5 19  1  0  0  0  0
  5  7  1  0  0  0  0
  6  7  2  0  0  0  0
  6 12  1  0  0  0  0
  7  8  1  0  0  0  0
  8  9  1  0  0  0  0
  8 10  2  0  0  0  0
 10 11  1  0  0  0  0
 11 12  2  0  0  0  0
 15 23  1  0  0  0  0
 15 16  1  0  0  0  0
 16 19  1  0  0  0  0
 19 22  1  0  0  0  0
 22  2  1  6  0  0  0
 22 23  1  0  0  0  0
 23 24  1  1  0  0  0
 24 25  1  0  0  0  0
 25 26  1  0  0  0  0
M  CHG  2  13  -1  18  -1
M  END
>  <CHROM.1>
-68.80043370,-90.72162704,-5.34830074,59.00474379,-96.85848243,-62.85887535
-170.92448135,-63.22297320,-23.35868223,-13.50480917,1.90337346,-1.60991018
0.68844228,-2.52537598

>  <Name>
ligand

>  <RI>
0

>  <Rbt.Current_Directory>
/home/itssahil/PROJECTS/Mol_Feturizer/New_Systems/rnas/2GDI

>  <Rbt.Executable>
rbdock ($Id: //depot/dev/client3/rdock/2013.1/src/exe/rbdock.cxx#4 $)

>  <Rbt.Library>
libRbt.so (2013.1, Build901 2013/11/27)

>  <Rbt.Parameter_File>
/export/apps/rDock/src/rDock_2013.1_src/data/scripts/dock_solv.prm

>  <Rbt.Receptor>
prm/pocket_docking_7.prm

>  <SCORE>
-14.0693

>  <SCORE.INTER>
-12.3099

>  <SCORE.INTER.CONST>
1

>  <SCORE.INTER.POLAR>
0

>  <SCORE.INTER.ROT>
8

>  <SCORE.INTER.SOLV>
5.40588

>  <SCORE.INTER.VDW>
-18.9419

>  <SCORE.INTER.norm>
-0.473458

>  <SCORE.INTRA>
-1.75943

>  <SCORE.INTRA.DIHEDRAL>
-2.83986

>  <SCORE.INTRA.DIHEDRAL.0>
8.13976

>  <SCORE.INTRA.POLAR>
0

>  <SCORE.INTRA.POLAR.0>
0

>  <SCORE.INTRA.REPUL>
0

>  <SCORE.INTRA.REPUL.0>
0

>  <SCORE.INTRA.SOLV>
0.220699

>  <SCORE.INTRA.SOLV.lig_0>
-82.9561

>  <SCORE.INTRA.VDW>
-0.449843

>  <SCORE.INTRA.VDW.0>
-3.29171

>  <SCORE.INTRA.norm>
-0.0676702

>  <SCORE.RESTR>
0

>  <SCORE.RESTR.CAVITY>
0

>  <SCORE.RESTR.norm>
0

>  <SCORE.SYSTEM>
0

>  <SCORE.SYSTEM.CONST>
0

>  <SCORE.SYSTEM.DIHEDRAL>
0

>  <SCORE.SYSTEM.SOLV>
0

>  <SCORE.SYSTEM.norm>
0

>  <SCORE.heavy>
26

>  <SCORE.norm>
-0.541128

>  <RMSD>
7.106

$$$$
ligand
 OpenBabel11021811433D
libRbt.so/2013.1/901 2013/11/27
 26 27  0  0  0  0  0  0  0  0999 V2000
  -21.5061   -6.4160    5.6732 C   0  0  0  0  0  0  0  0  0  0  0  0
  -22.5126  -13.1849    2.8854 C   0  0  0  0  0  0  0  0  0  0  0  0
  -21.8693  -15.4589   -0.8474 P   0  0  1  0  0  0  0  0  0  0  0  0
  -20.9681  -18.1666   -0.2857 P   0  0  1  0  0  0  0  0  0  0  0  0
  -24.0719  -11.4761    4.7540 C   0  0  0  0  0  0  0  0  0  0  0  0
  -23.0806   -9.2986    3.9379 C   0  0  0  0  0  0  0  0  0  0  0  0
  -23.3844  -10.1434    4.9980 C   0  0  0  0  0  0  0  0  0  0  0  0
  -23.0602   -9.7406    6.2832 C   0  0  0  0  0  0  0  0  0  0  0  0
  -23.3358  -10.5312    7.3487 N   0  0  0  0  0  0  0  0  0  0  0  0
  -22.4617   -8.5453    6.4773 N   0  0  0  0  0  0  0  0  0  0  0  0
  -22.1747   -7.7418    5.4299 C   0  0  0  0  0  0  0  0  0  0  0  0
  -22.4838   -8.1203    4.1655 N   0  0  0  0  0  0  0  0  0  0  0  0
  -21.0420  -15.1963   -2.0782 O   0  5  0  0  0  0  0  0  0  0  0  0
  -20.3186  -18.8047    0.9036 O   0  0  0  0  0  0  0  0  0  0  0  0
  -25.6829  -11.3622    1.1238 S   0  0  0  0  0  0  0  0  0  0  0  0
  -25.5262  -10.9782    2.8093 C   0  0  0  0  0  0  0  0  0  0  0  0
  -23.3187  -15.7952   -1.0497 O   0  0  0  0  0  0  0  0  0  0  0  0
  -22.3705  -18.6620   -0.4083 O   0  5  0  0  0  0  0  0  0  0  0  0
  -24.4493  -11.6149    3.3475 N   0  0  0  0  0  0  0  0  0  0  0  0
  -21.1130  -16.5849    0.0399 O   0  0  0  0  0  0  0  0  0  0  0  0
  -20.2042  -18.2516   -1.5790 O   0  0  0  0  0  0  0  0  0  0  0  0
  -23.7345  -12.3977    2.4932 C   0  0  1  0  0  0  0  0  0  0  0  0
  -24.2919  -12.3732    1.1136 C   0  0  1  0  0  0  0  0  0  0  0  0
  -23.9196  -13.0299   -0.1891 C   0  0  0  0  0  0  0  0  0  0  0  0
  -22.4142  -12.9240   -0.3757 C   0  0  0  0  0  0  0  0  0  0  0  0
  -21.8251  -14.1395    0.0700 O   0  0  0  0  0  0  0  0  0  0  0  0
  1 11  1  0  0  0  0
  3 13  1  6  0  0  0
  3 17  2  0  0  0  0
  3 20  1  0  0  0  0
  3 26  1  0  0  0  0
  4 14  1  1  0  0  0
  4 18  1  0  0  0  0
  4 21  2  0  0  0  0
  4 20  1  0  0  0  0
  5 19  1  0  0  0  0
  5  7  1  0  0  0  0
  6  7  2  0  0  0  0
  6 12  1  0  0  0  0
  7  8  1  0  0  0  0
  8  9  1  0  0  0  0
  8 10  2  0  0  0  0
 10 11  1  0  0  0  0
 11 12  2  0  0  0  0
 15 23  1  0  0  0  0
 15 16  1  0  0  0  0
 16 19  1  0  0  0  0
 19 22  1  0  0  0  0
 22  2  1  6  0  0  0
 22 23  1  0  0  0  0
 23 24  1  1  0  0  0
 24 25  1  0  0  0  0
 25 26  1  0  0  0  0
M  CHG  2  13  -1  18  -1
M  END
>  <CHROM.1>
-71.95029837,-76.79014122,-5.81896190,-173.87544381,136.80800338,96.63465711
77.70884360,65.80219510,-22.68049959,-13.19975141,1.78528358,-1.82093546
0.76037143,-2.34943407

>  <Name>
ligand

>  <RI>
0

>  <Rbt.Current_Directory>
/home/itssahil/PROJECTS/Mol_Feturizer/New_Systems/rnas/2GDI

>  <Rbt.Executable>
rbdock ($Id: //depot/dev/client3/rdock/2013.1/src/exe/rbdock.cxx#4 $)

>  <Rbt.Library>
libRbt.so (2013.1, Build901 2013/11/27)

>  <Rbt.Parameter_File>
/export/apps/rDock/src/rDock_2013.1_src/data/scripts/dock_solv.prm

>  <Rbt.Receptor>
prm/pocket_docking_7.prm

>  <SCORE>
-10.9881

>  <SCORE.INTER>
-13.9452

>  <SCORE.INTER.CONST>
1

>  <SCORE.INTER.POLAR>
0

>  <SCORE.INTER.ROT>
8

>  <SCORE.INTER.SOLV>
4.08838

>  <SCORE.INTER.VDW>
-19.5929

>  <SCORE.INTER.norm>
-0.536353

>  <SCORE.INTRA>
2.95704

>  <SCORE.INTRA.DIHEDRAL>
1.76527

>  <SCORE.INTRA.DIHEDRAL.0>
8.13976

>  <SCORE.INTRA.POLAR>
0

>  <SCORE.INTRA.POLAR.0>
0

>  <SCORE.INTRA.REPUL>
0

>  <SCORE.INTRA.REPUL.0>
0

>  <SCORE.INTRA.SOLV>
3.09449

>  <SCORE.INTRA.SOLV.lig_0>
-82.9561

>  <SCORE.INTRA.VDW>
0.527164

>  <SCORE.INTRA.VDW.0>
-3.29171

>  <SCORE.INTRA.norm>
0.113732

>  <SCORE.RESTR>
0

>  <SCORE.RESTR.CAVITY>
0

>  <SCORE.RESTR.norm>
0

>  <SCORE.SYSTEM>
0

>  <SCORE.SYSTEM.CONST>
0

>  <SCORE.SYSTEM.DIHEDRAL>
0

>  <SCORE.SYSTEM.SOLV>
0

>  <SCORE.SYSTEM.norm>
0

>  <SCORE.heavy>
26

>  <SCORE.norm>
-0.422621

>  <RMSD>
7.155

$$$$
ligand
 OpenBabel11021811433D
libRbt.so/2013.1/901 2013/11/27
 26 27  0  0  0  0  0  0  0  0999 V2000
  -23.2227  -15.5885    6.3796 C   0  0  0  0  0  0  0  0  0  0  0  0
  -21.2251  -12.4631   -0.8403 C   0  0  0  0  0  0  0  0  0  0  0  0
  -16.6128  -15.5626    0.3016 P   0  0  1  0  0  0  0  0  0  0  0  0
  -19.3235  -16.6164    0.3266 P   0  0  1  0  0  0  0  0  0  0  0  0
  -22.3574  -12.1103    1.8867 C   0  0  0  0  0  0  0  0  0  0  0  0
  -22.0861  -14.3241    3.0767 C   0  0  0  0  0  0  0  0  0  0  0  0
  -22.5959  -13.0318    3.0709 C   0  0  0  0  0  0  0  0  0  0  0  0
  -23.3144  -12.5955    4.1720 C   0  0  0  0  0  0  0  0  0  0  0  0
  -23.8320  -11.3437    4.2116 N   0  0  0  0  0  0  0  0  0  0  0  0
  -23.5020  -13.4277    5.2193 N   0  0  0  0  0  0  0  0  0  0  0  0
  -22.9978  -14.6809    5.2008 C   0  0  0  0  0  0  0  0  0  0  0  0
  -22.2932  -15.1249    4.1313 N   0  0  0  0  0  0  0  0  0  0  0  0
  -15.4418  -15.7376    1.2326 O   0  5  0  0  0  0  0  0  0  0  0  0
  -19.0215  -17.7904   -0.5531 O   0  0  0  0  0  0  0  0  0  0  0  0
  -18.4239  -11.5529    1.9528 S   0  0  0  0  0  0  0  0  0  0  0  0
  -20.0294  -11.6529    2.6051 C   0  0  0  0  0  0  0  0  0  0  0  0
  -16.4624  -16.0798   -1.1001 O   0  0  0  0  0  0  0  0  0  0  0  0
  -20.1939  -17.0560    1.4564 O   0  5  0  0  0  0  0  0  0  0  0  0
  -20.9256  -11.9603    1.6267 N   0  0  0  0  0  0  0  0  0  0  0  0
  -17.9296  -16.1710    1.0248 O   0  0  0  0  0  0  0  0  0  0  0  0
  -19.8456  -15.3886   -0.3685 O   0  0  0  0  0  0  0  0  0  0  0  0
  -20.4086  -12.1220    0.3777 C   0  0  1  0  0  0  0  0  0  0  0  0
  -18.9320  -11.9389    0.3559 C   0  0  1  0  0  0  0  0  0  0  0  0
  -17.8750  -11.9972   -0.7147 C   0  0  0  0  0  0  0  0  0  0  0  0
  -17.5334  -13.4543   -0.9839 C   0  0  0  0  0  0  0  0  0  0  0  0
  -16.9202  -13.9892    0.1827 O   0  0  0  0  0  0  0  0  0  0  0  0
  1 11  1  0  0  0  0
  3 13  1  1  0  0  0
  3 17  2  0  0  0  0
  3 20  1  0  0  0  0
  3 26  1  0  0  0  0
  4 14  1  6  0  0  0
  4 18  1  0  0  0  0
  4 21  2  0  0  0  0
  4 20  1  0  0  0  0
  5 19  1  0  0  0  0
  5  7  1  0  0  0  0
  6  7  2  0  0  0  0
  6 12  1  0  0  0  0
  7  8  1  0  0  0  0
  8  9  1  0  0  0  0
  8 10  2  0  0  0  0
 10 11  1  0  0  0  0
 11 12  2  0  0  0  0
 15 23  1  0  0  0  0
 15 16  1  0  0  0  0
 16 19  1  0  0  0  0
 19 22  1  0  0  0  0
 22  2  1  1  0  0  0
 22 23  1  0  0  0  0
 23 24  1  6  0  0  0
 24 25  1  0  0  0  0
 25 26  1  0  0  0  0
M  CHG  2  13  -1  18  -1
M  END
>  <CHROM.1>
-161.04460106,-49.54049189,-56.53067510,65.73008819,101.33009519,-65.99471955
171.81181933,152.96612146,-19.77160453,-14.16004975,1.52355419,2.93437823
0.68216120,-0.13361430

>  <Name>
ligand

>  <RI>
0

>  <Rbt.Current_Directory>
/home/itssahil/PROJECTS/Mol_Feturizer/New_Systems/rnas/2GDI

>  <Rbt.Executable>
rbdock ($Id: //depot/dev/client3/rdock/2013.1/src/exe/rbdock.cxx#4 $)

>  <Rbt.Library>
libRbt.so (2013.1, Build901 2013/11/27)

>  <Rbt.Parameter_File>
/export/apps/rDock/src/rDock_2013.1_src/data/scripts/dock_solv.prm

>  <Rbt.Receptor>
prm/pocket_docking_7.prm

>  <SCORE>
-9.38274

>  <SCORE.INTER>
-8.67186

>  <SCORE.INTER.CONST>
1

>  <SCORE.INTER.POLAR>
0

>  <SCORE.INTER.ROT>
8

>  <SCORE.INTER.SOLV>
12.9685

>  <SCORE.INTER.VDW>
-19.0374

>  <SCORE.INTER.norm>
-0.333533

>  <SCORE.INTRA>
-0.710884

>  <SCORE.INTRA.DIHEDRAL>
-0.777043

>  <SCORE.INTRA.DIHEDRAL.0>
8.13976

>  <SCORE.INTRA.POLAR>
0

>  <SCORE.INTRA.POLAR.0>
0

>  <SCORE.INTRA.REPUL>
0

>  <SCORE.INTRA.REPUL.0>
0

>  <SCORE.INTRA.SOLV>
2.28755

>  <SCORE.INTRA.SOLV.lig_0>
-82.9561

>  <SCORE.INTRA.VDW>
-1.46614

>  <SCORE.INTRA.VDW.0>
-3.29171

>  <SCORE.INTRA.norm>
-0.0273417

>  <SCORE.RESTR>
0

>  <SCORE.RESTR.CAVITY>
0

>  <SCORE.RESTR.norm>
0

>  <SCORE.SYSTEM>
0

>  <SCORE.SYSTEM.CONST>
0

>  <SCORE.SYSTEM.DIHEDRAL>
0

>  <SCORE.SYSTEM.SOLV>
0

>  <SCORE.SYSTEM.norm>
0

>  <SCORE.heavy>
26

>  <SCORE.norm>
-0.360875

>  <RMSD>
7.209

$$$$
ligand
 OpenBabel11021811433D
libRbt.so/2013.1/901 2013/11/27
 26 27  0  0  0  0  0  0  0  0999 V2000
  -24.1159  -12.2864   -2.7900 C   0  0  0  0  0  0  0  0  0  0  0  0
  -25.5282  -14.5204    3.3467 C   0  0  0  0  0  0  0  0  0  0  0  0
  -23.5364  -19.6489    1.0289 P   0  0  1  0  0  0  0  0  0  0  0  0
  -23.2074  -17.5538   -0.9614 P   0  0  1  0  0  0  0  0  0  0  0  0
  -23.1955  -12.7400    2.8651 C   0  0  0  0  0  0  0  0  0  0  0  0
  -24.7054  -12.3407    0.8774 C   0  0  0  0  0  0  0  0  0  0  0  0
  -23.4390  -12.6306    1.3694 C   0  0  0  0  0  0  0  0  0  0  0  0
  -22.4000  -12.8045    0.4700 C   0  0  0  0  0  0  0  0  0  0  0  0
  -21.1478  -13.0897    0.9026 N   0  0  0  0  0  0  0  0  0  0  0  0
  -22.6372  -12.6889   -0.8547 N   0  0  0  0  0  0  0  0  0  0  0  0
  -23.8780  -12.4080   -1.3092 C   0  0  0  0  0  0  0  0  0  0  0  0
  -24.9068  -12.2357   -0.4435 N   0  0  0  0  0  0  0  0  0  0  0  0
  -24.4623  -20.8289    1.1662 O   0  5  0  0  0  0  0  0  0  0  0  0
  -23.7228  -17.3702   -2.3558 O   0  0  0  0  0  0  0  0  0  0  0  0
  -21.9581  -16.3704    3.9025 S   0  0  0  0  0  0  0  0  0  0  0  0
  -21.7979  -14.7069    3.4333 C   0  0  0  0  0  0  0  0  0  0  0  0
  -22.0713  -19.8929    1.2494 O   0  0  0  0  0  0  0  0  0  0  0  0
  -23.7911  -16.5035   -0.0763 O   0  5  0  0  0  0  0  0  0  0  0  0
  -23.0232  -14.1376    3.2615 N   0  0  0  0  0  0  0  0  0  0  0  0
  -23.8163  -18.9503   -0.4066 O   0  0  0  0  0  0  0  0  0  0  0  0
  -21.7143  -17.6717   -0.8205 O   0  0  0  0  0  0  0  0  0  0  0  0
  -24.0921  -14.9515    3.4815 C   0  0  1  0  0  0  0  0  0  0  0  0
  -23.6770  -16.3210    3.8900 C   0  0  1  0  0  0  0  0  0  0  0  0
  -24.4112  -17.5865    4.2455 C   0  0  0  0  0  0  0  0  0  0  0  0
  -23.7772  -18.7458    3.4930 C   0  0  0  0  0  0  0  0  0  0  0  0
  -23.9862  -18.5390    2.1014 O   0  0  0  0  0  0  0  0  0  0  0  0
  1 11  1  0  0  0  0
  3 13  1  1  0  0  0
  3 17  2  0  0  0  0
  3 20  1  0  0  0  0
  3 26  1  0  0  0  0
  4 14  1  6  0  0  0
  4 18  1  0  0  0  0
  4 21  2  0  0  0  0
  4 20  1  0  0  0  0
  5 19  1  0  0  0  0
  5  7  1  0  0  0  0
  6  7  2  0  0  0  0
  6 12  1  0  0  0  0
  7  8  1  0  0  0  0
  8  9  1  0  0  0  0
  8 10  2  0  0  0  0
 10 11  1  0  0  0  0
 11 12  2  0  0  0  0
 15 23  1  0  0  0  0
 15 16  1  0  0  0  0
 16 19  1  0  0  0  0
 19 22  1  0  0  0  0
 22  2  1  1  0  0  0
 22 23  1  0  0  0  0
 23 24  1  6  0  0  0
 24 25  1  0  0  0  0
 25 26  1  0  0  0  0
M  CHG  2  13  -1  18  -1
M  END
>  <CHROM.1>
172.39356768,97.83402938,106.02228027,177.77451999,-46.05926868,-64.90573301
-175.17136977,70.69566492,-23.36055187,-16.09064420,1.15922287,1.72499343
-1.52963336,0.00013798

>  <Name>
ligand

>  <RI>
0

>  <Rbt.Current_Directory>
/home/itssahil/PROJECTS/Mol_Feturizer/New_Systems/rnas/2GDI

>  <Rbt.Executable>
rbdock ($Id: //depot/dev/client3/rdock/2013.1/src/exe/rbdock.cxx#4 $)

>  <Rbt.Library>
libRbt.so (2013.1, Build901 2013/11/27)

>  <Rbt.Parameter_File>
/export/apps/rDock/src/rDock_2013.1_src/data/scripts/dock_solv.prm

>  <Rbt.Receptor>
prm/pocket_docking_5.prm

>  <SCORE>
-7.2147

>  <SCORE.INTER>
-6.54052

>  <SCORE.INTER.CONST>
1

>  <SCORE.INTER.POLAR>
0

>  <SCORE.INTER.ROT>
8

>  <SCORE.INTER.SOLV>
11.9187

>  <SCORE.INTER.VDW>
-17.2666

>  <SCORE.INTER.norm>
-0.251558

>  <SCORE.INTRA>
-0.674178

>  <SCORE.INTRA.DIHEDRAL>
-2.6115

>  <SCORE.INTRA.DIHEDRAL.0>
8.13976

>  <SCORE.INTRA.POLAR>
0

>  <SCORE.INTRA.POLAR.0>
0

>  <SCORE.INTRA.REPUL>
0

>  <SCORE.INTRA.REPUL.0>
0

>  <SCORE.INTRA.SOLV>
3.30584

>  <SCORE.INTRA.SOLV.lig_0>
-82.9561

>  <SCORE.INTRA.VDW>
-1.02135

>  <SCORE.INTRA.VDW.0>
-3.29171

>  <SCORE.INTRA.norm>
-0.0259299

>  <SCORE.RESTR>
0

>  <SCORE.RESTR.CAVITY>
0

>  <SCORE.RESTR.norm>
0

>  <SCORE.SYSTEM>
0

>  <SCORE.SYSTEM.CONST>
0

>  <SCORE.SYSTEM.DIHEDRAL>
0

>  <SCORE.SYSTEM.SOLV>
0

>  <SCORE.SYSTEM.norm>
0

>  <SCORE.heavy>
26

>  <SCORE.norm>
-0.277488

>  <RMSD>
7.275

$$$$
ligand
 OpenBabel11021811433D
libRbt.so/2013.1/901 2013/11/27
 26 27  0  0  0  0  0  0  0  0999 V2000
  -22.5357   -8.0281    4.7883 C   0  0  0  0  0  0  0  0  0  0  0  0
  -25.7653  -13.1289    0.0335 C   0  0  0  0  0  0  0  0  0  0  0  0
  -23.4242  -16.3706   -3.7200 P   0  0  1  0  0  0  0  0  0  0  0  0
  -23.2586  -18.9972   -2.4822 P   0  0  1  0  0  0  0  0  0  0  0  0
  -23.5427  -12.9527    2.0013 C   0  0  0  0  0  0  0  0  0  0  0  0
  -22.0978  -11.4641    3.4458 C   0  0  0  0  0  0  0  0  0  0  0  0
  -23.2827  -11.6541    2.7460 C   0  0  0  0  0  0  0  0  0  0  0  0
  -24.2165  -10.6311    2.7292 C   0  0  0  0  0  0  0  0  0  0  0  0
  -25.3873  -10.7707    2.0612 N   0  0  0  0  0  0  0  0  0  0  0  0
  -23.9577   -9.4801    3.3871 N   0  0  0  0  0  0  0  0  0  0  0  0
  -22.7986   -9.3195    4.0622 C   0  0  0  0  0  0  0  0  0  0  0  0
  -21.8741  -10.3103    4.0902 N   0  0  0  0  0  0  0  0  0  0  0  0
  -21.9323  -16.1786   -3.7962 O   0  5  0  0  0  0  0  0  0  0  0  0
  -21.7608  -18.9969   -2.4709 O   0  0  0  0  0  0  0  0  0  0  0  0
  -22.1609  -12.3914   -1.6815 S   0  0  0  0  0  0  0  0  0  0  0  0
  -22.0767  -12.5364    0.0462 C   0  0  0  0  0  0  0  0  0  0  0  0
  -24.1414  -16.7117   -4.9944 O   0  0  0  0  0  0  0  0  0  0  0  0
  -23.7628  -19.4949   -1.1687 O   0  5  0  0  0  0  0  0  0  0  0  0
  -23.3107  -12.7831    0.5669 N   0  0  0  0  0  0  0  0  0  0  0  0
  -23.7366  -17.4495   -2.5516 O   0  0  0  0  0  0  0  0  0  0  0  0
  -23.9089  -19.6811   -3.6538 O   0  0  0  0  0  0  0  0  0  0  0  0
  -24.3293  -12.8639   -0.3329 C   0  0  1  0  0  0  0  0  0  0  0  0
  -23.8560  -12.6764   -1.7312 C   0  0  1  0  0  0  0  0  0  0  0  0
  -24.5235  -12.6640   -3.0807 C   0  0  0  0  0  0  0  0  0  0  0  0
  -23.9500  -13.7958   -3.9187 C   0  0  0  0  0  0  0  0  0  0  0  0
  -24.0725  -15.0034   -3.1772 O   0  0  0  0  0  0  0  0  0  0  0  0
  1 11  1  0  0  0  0
  3 13  1  6  0  0  0
  3 17  2  0  0  0  0
  3 20  1  0  0  0  0
  3 26  1  0  0  0  0
  4 14  1  6  0  0  0
  4 18  1  0  0  0  0
  4 21  2  0  0  0  0
  4 20  1  0  0  0  0
  5 19  1  0  0  0  0
  5  7  1  0  0  0  0
  6  7  2  0  0  0  0
  6 12  1  0  0  0  0
  7  8  1  0  0  0  0
  8  9  1  0  0  0  0
  8 10  2  0  0  0  0
 10 11  1  0  0  0  0
 11 12  2  0  0  0  0
 15 23  1  0  0  0  0
 15 16  1  0  0  0  0
 16 19  1  0  0  0  0
 19 22  1  0  0  0  0
 22  2  1  6  0  0  0
 22 23  1  0  0  0  0
 23 24  1  1  0  0  0
 24 25  1  0  0  0  0
 25 26  1  0  0  0  0
M  CHG  2  13  -1  18  -1
M  END
>  <CHROM.1>
-61.57637626,66.51734408,-101.63166455,61.00503960,63.07172952,53.43064064
-173.77675283,62.50746194,-23.39100544,-14.15782047,-0.76358807,-1.48202697
1.39688054,-2.53855038

>  <Name>
ligand

>  <RI>
0

>  <Rbt.Current_Directory>
/home/itssahil/PROJECTS/Mol_Feturizer/New_Systems/rnas/2GDI

>  <Rbt.Executable>
rbdock ($Id: //depot/dev/client3/rdock/2013.1/src/exe/rbdock.cxx#4 $)

>  <Rbt.Library>
libRbt.so (2013.1, Build901 2013/11/27)

>  <Rbt.Parameter_File>
/export/apps/rDock/src/rDock_2013.1_src/data/scripts/dock_solv.prm

>  <Rbt.Receptor>
prm/pocket_docking_8.prm

>  <SCORE>
-12.1071

>  <SCORE.INTER>
-11.9547

>  <SCORE.INTER.CONST>
1

>  <SCORE.INTER.POLAR>
0

>  <SCORE.INTER.ROT>
8

>  <SCORE.INTER.SOLV>
13.7576

>  <SCORE.INTER.VDW>
-21.489

>  <SCORE.INTER.norm>
-0.459795

>  <SCORE.INTRA>
-0.152437

>  <SCORE.INTRA.DIHEDRAL>
-2.56477

>  <SCORE.INTRA.DIHEDRAL.0>
8.13976

>  <SCORE.INTRA.POLAR>
0

>  <SCORE.INTRA.POLAR.0>
0

>  <SCORE.INTRA.REPUL>
0

>  <SCORE.INTRA.REPUL.0>
0

>  <SCORE.INTRA.SOLV>
3.085

>  <SCORE.INTRA.SOLV.lig_0>
-82.9561

>  <SCORE.INTRA.VDW>
-0.412553

>  <SCORE.INTRA.VDW.0>
-3.29171

>  <SCORE.INTRA.norm>
-0.00586296

>  <SCORE.RESTR>
0

>  <SCORE.RESTR.CAVITY>
0

>  <SCORE.RESTR.norm>
0

>  <SCORE.SYSTEM>
0

>  <SCORE.SYSTEM.CONST>
0

>  <SCORE.SYSTEM.DIHEDRAL>
0

>  <SCORE.SYSTEM.SOLV>
0

>  <SCORE.SYSTEM.norm>
0

>  <SCORE.heavy>
26

>  <SCORE.norm>
-0.465658

>  <RMSD>
7.277

$$$$
ligand
 OpenBabel11021811433D
libRbt.so/2013.1/901 2013/11/27
 26 27  0  0  0  0  0  0  0  0999 V2000
  -22.5110  -12.2770    8.8156 C   0  0  0  0  0  0  0  0  0  0  0  0
  -21.6014  -14.6462    1.5335 C   0  0  0  0  0  0  0  0  0  0  0  0
  -17.8751  -16.1289   -1.4676 P   0  0  1  0  0  0  0  0  0  0  0  0
  -19.7622  -18.3386   -1.5908 P   0  0  1  0  0  0  0  0  0  0  0  0
  -22.8377  -12.4270    3.0794 C   0  0  0  0  0  0  0  0  0  0  0  0
  -22.2442  -11.2732    5.2488 C   0  0  0  0  0  0  0  0  0  0  0  0
  -22.7426  -12.3932    4.5953 C   0  0  0  0  0  0  0  0  0  0  0  0
  -23.1636  -13.4731    5.3538 C   0  0  0  0  0  0  0  0  0  0  0  0
  -23.6558  -14.5879    4.7611 N   0  0  0  0  0  0  0  0  0  0  0  0
  -23.0824  -13.4152    6.7009 N   0  0  0  0  0  0  0  0  0  0  0  0
  -22.5924  -12.3153    7.3135 C   0  0  0  0  0  0  0  0  0  0  0  0
  -22.1749  -11.2498    6.5872 N   0  0  0  0  0  0  0  0  0  0  0  0
  -17.4387  -16.3113   -0.0377 O   0  5  0  0  0  0  0  0  0  0  0  0
  -19.5706  -18.8090   -0.1817 O   0  0  0  0  0  0  0  0  0  0  0  0
  -19.2562  -11.3399    1.7460 S   0  0  0  0  0  0  0  0  0  0  0  0
  -20.7690  -11.1570    2.5772 C   0  0  0  0  0  0  0  0  0  0  0  0
  -16.9417  -16.6116   -2.5403 O   0  0  0  0  0  0  0  0  0  0  0  0
  -21.2158  -18.3652   -1.9275 O   0  5  0  0  0  0  0  0  0  0  0  0
  -21.5128  -12.2931    2.4736 N   0  0  0  0  0  0  0  0  0  0  0  0
  -19.3549  -16.7698   -1.6307 O   0  0  0  0  0  0  0  0  0  0  0  0
  -18.9098  -19.0112   -2.6320 O   0  0  0  0  0  0  0  0  0  0  0  0
  -20.9481  -13.3099    1.7661 C   0  0  1  0  0  0  0  0  0  0  0  0
  -19.5949  -12.9542    1.2596 C   0  0  1  0  0  0  0  0  0  0  0  0
  -18.5496  -13.6681    0.4443 C   0  0  0  0  0  0  0  0  0  0  0  0
  -19.0660  -13.8298   -0.9767 C   0  0  0  0  0  0  0  0  0  0  0  0
  -18.0965  -14.5570   -1.7213 O   0  0  0  0  0  0  0  0  0  0  0  0
  1 11  1  0  0  0  0
  3 13  1  1  0  0  0
  3 17  2  0  0  0  0
  3 20  1  0  0  0  0
  3 26  1  0  0  0  0
  4 14  1  1  0  0  0
  4 18  1  0  0  0  0
  4 21  2  0  0  0  0
  4 20  1  0  0  0  0
  5 19  1  0  0  0  0
  5  7  1  0  0  0  0
  6  7  2  0  0  0  0
  6 12  1  0  0  0  0
  7  8  1  0  0  0  0
  8  9  1  0  0  0  0
  8 10  2  0  0  0  0
 10 11  1  0  0  0  0
 11 12  2  0  0  0  0
 15 23  1  0  0  0  0
 15 16  1  0  0  0  0
 16 19  1  0  0  0  0
 19 22  1  0  0  0  0
 22  2  1  1  0  0  0
 22 23  1  0  0  0  0
 23 24  1  6  0  0  0
 24 25  1  0  0  0  0
 25 26  1  0  0  0  0
M  CHG  2  13  -1  18  -1
M  END
>  <CHROM.1>
-69.96179977,-66.02868114,61.44086138,69.35810170,-109.68581526,-177.45347541
72.18598611,-61.10635234,-20.30228283,-14.55636019,1.45117731,2.17853203
0.84775155,0.49832362

>  <Name>
ligand

>  <RI>
0

>  <Rbt.Current_Directory>
/home/itssahil/PROJECTS/Mol_Feturizer/New_Systems/rnas/2GDI

>  <Rbt.Executable>
rbdock ($Id: //depot/dev/client3/rdock/2013.1/src/exe/rbdock.cxx#4 $)

>  <Rbt.Library>
libRbt.so (2013.1, Build901 2013/11/27)

>  <Rbt.Parameter_File>
/export/apps/rDock/src/rDock_2013.1_src/data/scripts/dock_solv.prm

>  <Rbt.Receptor>
prm/pocket_docking_7.prm

>  <SCORE>
-8.67051

>  <SCORE.INTER>
-8.47828

>  <SCORE.INTER.CONST>
1

>  <SCORE.INTER.POLAR>
0

>  <SCORE.INTER.ROT>
8

>  <SCORE.INTER.SOLV>
9.88307

>  <SCORE.INTER.VDW>
-17.8799

>  <SCORE.INTER.norm>
-0.326088

>  <SCORE.INTRA>
-0.192226

>  <SCORE.INTRA.DIHEDRAL>
-2.64066

>  <SCORE.INTRA.DIHEDRAL.0>
8.13976

>  <SCORE.INTRA.POLAR>
0

>  <SCORE.INTRA.POLAR.0>
0

>  <SCORE.INTRA.REPUL>
0

>  <SCORE.INTRA.REPUL.0>
0

>  <SCORE.INTRA.SOLV>
2.23827

>  <SCORE.INTRA.SOLV.lig_0>
-82.9561

>  <SCORE.INTRA.VDW>
0.00896891

>  <SCORE.INTRA.VDW.0>
-3.29171

>  <SCORE.INTRA.norm>
-0.00739331

>  <SCORE.RESTR>
0

>  <SCORE.RESTR.CAVITY>
0

>  <SCORE.RESTR.norm>
0

>  <SCORE.SYSTEM>
0

>  <SCORE.SYSTEM.CONST>
0

>  <SCORE.SYSTEM.DIHEDRAL>
0

>  <SCORE.SYSTEM.SOLV>
0

>  <SCORE.SYSTEM.norm>
0

>  <SCORE.heavy>
26

>  <SCORE.norm>
-0.333481

>  <RMSD>
7.304

$$$$
ligand
 OpenBabel11021811433D
libRbt.so/2013.1/901 2013/11/27
 26 27  0  0  0  0  0  0  0  0999 V2000
  -22.3164  -12.1657    8.7634 C   0  0  0  0  0  0  0  0  0  0  0  0
  -23.1722  -13.8490    1.7910 C   0  0  0  0  0  0  0  0  0  0  0  0
  -20.4113  -18.0076   -0.0227 P   0  0  1  0  0  0  0  0  0  0  0  0
  -18.8479  -18.5931   -2.4043 P   0  0  1  0  0  0  0  0  0  0  0  0
  -22.8171  -11.2115    3.1179 C   0  0  0  0  0  0  0  0  0  0  0  0
  -22.8566  -12.7375    5.1328 C   0  0  0  0  0  0  0  0  0  0  0  0
  -22.6945  -11.4600    4.6117 C   0  0  0  0  0  0  0  0  0  0  0  0
  -22.4055  -10.4196    5.4795 C   0  0  0  0  0  0  0  0  0  0  0  0
  -22.2400   -9.1563    5.0180 N   0  0  0  0  0  0  0  0  0  0  0  0
  -22.2876  -10.6667    6.8022 N   0  0  0  0  0  0  0  0  0  0  0  0
  -22.4513  -11.9177    7.2854 C   0  0  0  0  0  0  0  0  0  0  0  0
  -22.7354  -12.9474    6.4510 N   0  0  0  0  0  0  0  0  0  0  0  0
  -21.4096  -17.2611   -0.8681 O   0  5  0  0  0  0  0  0  0  0  0  0
  -17.8797  -17.4843   -2.1274 O   0  0  0  0  0  0  0  0  0  0  0  0
  -19.4330  -12.3292    1.3612 S   0  0  0  0  0  0  0  0  0  0  0  0
  -20.4855  -11.2998    2.2809 C   0  0  0  0  0  0  0  0  0  0  0  0
  -20.9374  -18.7478    1.1732 O   0  0  0  0  0  0  0  0  0  0  0  0
  -18.0954  -19.8183   -2.8037 O   0  5  0  0  0  0  0  0  0  0  0  0
  -21.7227  -11.8577    2.3933 N   0  0  0  0  0  0  0  0  0  0  0  0
  -19.5503  -18.9778   -0.9945 O   0  0  0  0  0  0  0  0  0  0  0  0
  -19.9728  -18.2658   -3.3481 O   0  0  0  0  0  0  0  0  0  0  0  0
  -21.8869  -13.0652    1.7863 C   0  0  1  0  0  0  0  0  0  0  0  0
  -20.6376  -13.5338    1.1273 C   0  0  1  0  0  0  0  0  0  0  0  0
  -20.2547  -14.7546    0.3335 C   0  0  0  0  0  0  0  0  0  0  0  0
  -19.7508  -15.8216    1.2927 C   0  0  0  0  0  0  0  0  0  0  0  0
  -19.3362  -16.9464    0.5273 O   0  0  0  0  0  0  0  0  0  0  0  0
  1 11  1  0  0  0  0
  3 13  1  6  0  0  0
  3 17  2  0  0  0  0
  3 20  1  0  0  0  0
  3 26  1  0  0  0  0
  4 14  1  1  0  0  0
  4 18  1  0  0  0  0
  4 21  2  0  0  0  0
  4 20  1  0  0  0  0
  5 19  1  0  0  0  0
  5  7  1  0  0  0  0
  6  7  2  0  0  0  0
  6 12  1  0  0  0  0
  7  8  1  0  0  0  0
  8  9  1  0  0  0  0
  8 10  2  0  0  0  0
 10 11  1  0  0  0  0
 11 12  2  0  0  0  0
 15 23  1  0  0  0  0
 15 16  1  0  0  0  0
 16 19  1  0  0  0  0
 19 22  1  0  0  0  0
 22  2  1  1  0  0  0
 22 23  1  0  0  0  0
 23 24  1  6  0  0  0
 24 25  1  0  0  0  0
 25 26  1  0  0  0  0
M  CHG  2  13  -1  18  -1
M  END
>  <CHROM.1>
47.50588390,-81.50713570,-67.03609451,58.98868413,91.74327198,-177.42495119
-80.56986572,57.39159649,-20.77204584,-14.78848659,1.62776772,2.35962496
1.16098534,0.04722715

>  <Name>
ligand

>  <RI>
0

>  <Rbt.Current_Directory>
/home/itssahil/PROJECTS/Mol_Feturizer/New_Systems/rnas/2GDI

>  <Rbt.Executable>
rbdock ($Id: //depot/dev/client3/rdock/2013.1/src/exe/rbdock.cxx#4 $)

>  <Rbt.Library>
libRbt.so (2013.1, Build901 2013/11/27)

>  <Rbt.Parameter_File>
/export/apps/rDock/src/rDock_2013.1_src/data/scripts/dock_solv.prm

>  <Rbt.Receptor>
prm/pocket_docking_8.prm

>  <SCORE>
-9.3005

>  <SCORE.INTER>
-8.6993

>  <SCORE.INTER.CONST>
1

>  <SCORE.INTER.POLAR>
0

>  <SCORE.INTER.ROT>
8

>  <SCORE.INTER.SOLV>
15.4505

>  <SCORE.INTER.VDW>
-19.883

>  <SCORE.INTER.norm>
-0.334588

>  <SCORE.INTRA>
-0.601199

>  <SCORE.INTRA.DIHEDRAL>
-1.09513

>  <SCORE.INTRA.DIHEDRAL.0>
8.13976

>  <SCORE.INTRA.POLAR>
0

>  <SCORE.INTRA.POLAR.0>
0

>  <SCORE.INTRA.REPUL>
0

>  <SCORE.INTRA.REPUL.0>
0

>  <SCORE.INTRA.SOLV>
0.827252

>  <SCORE.INTRA.SOLV.lig_0>
-82.9561

>  <SCORE.INTRA.VDW>
-0.467258

>  <SCORE.INTRA.VDW.0>
-3.29171

>  <SCORE.INTRA.norm>
-0.023123

>  <SCORE.RESTR>
0

>  <SCORE.RESTR.CAVITY>
0

>  <SCORE.RESTR.norm>
0

>  <SCORE.SYSTEM>
0

>  <SCORE.SYSTEM.CONST>
0

>  <SCORE.SYSTEM.DIHEDRAL>
0

>  <SCORE.SYSTEM.SOLV>
0

>  <SCORE.SYSTEM.norm>
0

>  <SCORE.heavy>
26

>  <SCORE.norm>
-0.357711

>  <RMSD>
7.313

$$$$
ligand
 OpenBabel11021811433D
libRbt.so/2013.1/901 2013/11/27
 26 27  0  0  0  0  0  0  0  0999 V2000
  -17.9722   -9.0875   -1.1082 C   0  0  0  0  0  0  0  0  0  0  0  0
  -22.5099  -14.4773    3.9207 C   0  0  0  0  0  0  0  0  0  0  0  0
  -25.2840  -10.2453    7.8371 P   0  0  1  0  0  0  0  0  0  0  0  0
  -24.9292  -11.9722   10.1502 P   0  0  1  0  0  0  0  0  0  0  0  0
  -21.1814  -12.8592    1.8089 C   0  0  0  0  0  0  0  0  0  0  0  0
  -20.7222  -11.4214   -0.2190 C   0  0  0  0  0  0  0  0  0  0  0  0
  -20.3266  -11.8700    1.0348 C   0  0  0  0  0  0  0  0  0  0  0  0
  -19.1442  -11.3871    1.5712 C   0  0  0  0  0  0  0  0  0  0  0  0
  -18.7167  -11.7964    2.7903 N   0  0  0  0  0  0  0  0  0  0  0  0
  -18.4074  -10.4977    0.8707 N   0  0  0  0  0  0  0  0  0  0  0  0
  -18.8123  -10.0776   -0.3478 C   0  0  0  0  0  0  0  0  0  0  0  0
  -19.9660  -10.5403   -0.8885 N   0  0  0  0  0  0  0  0  0  0  0  0
  -26.3214   -9.1556    7.9065 O   0  5  0  0  0  0  0  0  0  0  0  0
  -24.7483  -10.8057   11.0721 O   0  0  0  0  0  0  0  0  0  0  0  0
  -22.3747  -10.5137    4.7858 S   0  0  0  0  0  0  0  0  0  0  0  0
  -21.6435  -10.9037    3.2606 C   0  0  0  0  0  0  0  0  0  0  0  0
  -23.8513   -9.8476    8.0471 O   0  0  0  0  0  0  0  0  0  0  0  0
  -25.8503  -12.9627   10.7810 O   0  5  0  0  0  0  0  0  0  0  0  0
  -21.7175  -12.2426    3.0224 N   0  0  0  0  0  0  0  0  0  0  0  0
  -25.7286  -11.4324    8.8470 O   0  0  0  0  0  0  0  0  0  0  0  0
  -23.6666  -12.6008    9.6266 O   0  0  0  0  0  0  0  0  0  0  0  0
  -22.3253  -12.9847    3.9884 C   0  0  1  0  0  0  0  0  0  0  0  0
  -22.8054  -12.1448    5.1192 C   0  0  1  0  0  0  0  0  0  0  0  0
  -23.5205  -12.4239    6.4144 C   0  0  0  0  0  0  0  0  0  0  0  0
  -25.0170  -12.2816    6.1856 C   0  0  0  0  0  0  0  0  0  0  0  0
  -25.3678  -10.9168    6.3789 O   0  0  0  0  0  0  0  0  0  0  0  0
  1 11  1  0  0  0  0
  3 13  1  1  0  0  0
  3 17  2  0  0  0  0
  3 20  1  0  0  0  0
  3 26  1  0  0  0  0
  4 14  1  1  0  0  0
  4 18  1  0  0  0  0
  4 21  2  0  0  0  0
  4 20  1  0  0  0  0
  5 19  1  0  0  0  0
  5  7  1  0  0  0  0
  6  7  2  0  0  0  0
  6 12  1  0  0  0  0
  7  8  1  0  0  0  0
  8  9  1  0  0  0  0
  8 10  2  0  0  0  0
 10 11  1  0  0  0  0
 11 12  2  0  0  0  0
 15 23  1  0  0  0  0
 15 16  1  0  0  0  0
 16 19  1  0  0  0  0
 19 22  1  0  0  0  0
 22  2  1  6  0  0  0
 22 23  1  0  0  0  0
 23 24  1  1  0  0  0
 24 25  1  0  0  0  0
 25 26  1  0  0  0  0
M  CHG  2  13  -1  18  -1
M  END
>  <CHROM.1>
-117.96585296,11.06521231,-114.03155125,58.14851264,88.67275695,-87.20250573
-67.82330332,-150.66939537,-22.76695006,-11.36063565,5.28789087,0.25430608
0.97616611,-0.25745687

>  <Name>
ligand

>  <RI>
0

>  <Rbt.Current_Directory>
/home/itssahil/PROJECTS/Mol_Feturizer/New_Systems/rnas/2GDI

>  <Rbt.Executable>
rbdock ($Id: //depot/dev/client3/rdock/2013.1/src/exe/rbdock.cxx#4 $)

>  <Rbt.Library>
libRbt.so (2013.1, Build901 2013/11/27)

>  <Rbt.Parameter_File>
/export/apps/rDock/src/rDock_2013.1_src/data/scripts/dock_solv.prm

>  <Rbt.Receptor>
prm/blind_docking_100.prm

>  <SCORE>
-9.76051

>  <SCORE.INTER>
-13.0497

>  <SCORE.INTER.CONST>
1

>  <SCORE.INTER.POLAR>
0

>  <SCORE.INTER.ROT>
8

>  <SCORE.INTER.SOLV>
25.2892

>  <SCORE.INTER.VDW>
-26.0629

>  <SCORE.INTER.norm>
-0.501911

>  <SCORE.INTRA>
3.11052

>  <SCORE.INTRA.DIHEDRAL>
2.70053

>  <SCORE.INTRA.DIHEDRAL.0>
8.13976

>  <SCORE.INTRA.POLAR>
0

>  <SCORE.INTRA.POLAR.0>
0

>  <SCORE.INTRA.REPUL>
0

>  <SCORE.INTRA.REPUL.0>
0

>  <SCORE.INTRA.SOLV>
4.0413

>  <SCORE.INTRA.SOLV.lig_0>
-82.9561

>  <SCORE.INTRA.VDW>
-0.260395

>  <SCORE.INTRA.VDW.0>
-3.29171

>  <SCORE.INTRA.norm>
0.119636

>  <SCORE.RESTR>
0.178662

>  <SCORE.RESTR.CAVITY>
0.178662

>  <SCORE.RESTR.norm>
0.00687161

>  <SCORE.SYSTEM>
0

>  <SCORE.SYSTEM.CONST>
0

>  <SCORE.SYSTEM.DIHEDRAL>
0

>  <SCORE.SYSTEM.SOLV>
0

>  <SCORE.SYSTEM.norm>
0

>  <SCORE.heavy>
26

>  <SCORE.norm>
-0.375404

>  <RMSD>
7.319

$$$$
ligand
 OpenBabel11021811433D
libRbt.so/2013.1/901 2013/11/27
 26 27  0  0  0  0  0  0  0  0999 V2000
  -22.2151  -12.6827    9.0823 C   0  0  0  0  0  0  0  0  0  0  0  0
  -21.1517  -11.8306    2.8012 C   0  0  0  0  0  0  0  0  0  0  0  0
  -21.4152  -17.0031    0.9374 P   0  0  1  0  0  0  0  0  0  0  0  0
  -21.0996  -18.0941   -1.7401 P   0  0  1  0  0  0  0  0  0  0  0  0
  -22.8374   -9.7892    4.1555 C   0  0  0  0  0  0  0  0  0  0  0  0
  -22.8672  -11.9272    5.5040 C   0  0  0  0  0  0  0  0  0  0  0  0
  -22.6825  -10.5510    5.4609 C   0  0  0  0  0  0  0  0  0  0  0  0
  -22.3411   -9.8890    6.6288 C   0  0  0  0  0  0  0  0  0  0  0  0
  -22.1518   -8.5471    6.6363 N   0  0  0  0  0  0  0  0  0  0  0  0
  -22.1954  -10.5889    7.7749 N   0  0  0  0  0  0  0  0  0  0  0  0
  -22.3819  -11.9268    7.7920 C   0  0  0  0  0  0  0  0  0  0  0  0
  -22.7173  -12.5908    6.6588 N   0  0  0  0  0  0  0  0  0  0  0  0
  -22.5617  -17.9491    1.1806 O   0  5  0  0  0  0  0  0  0  0  0  0
  -22.1441  -19.1299   -1.4579 O   0  0  0  0  0  0  0  0  0  0  0  0
  -24.9768  -11.7548    1.4450 S   0  0  0  0  0  0  0  0  0  0  0  0
  -24.6732  -10.5879    2.6937 C   0  0  0  0  0  0  0  0  0  0  0  0
  -20.5419  -16.6622    2.1104 O   0  0  0  0  0  0  0  0  0  0  0  0
  -21.7430  -16.9001   -2.3628 O   0  5  0  0  0  0  0  0  0  0  0  0
  -23.3782  -10.6575    3.1096 N   0  0  0  0  0  0  0  0  0  0  0  0
  -20.5474  -17.5695   -0.3088 O   0  0  0  0  0  0  0  0  0  0  0  0
  -19.8899  -18.5672   -2.4990 O   0  0  0  0  0  0  0  0  0  0  0  0
  -22.6053  -11.5916    2.4905 C   0  0  1  0  0  0  0  0  0  0  0  0
  -23.3611  -12.3436    1.4524 C   0  0  1  0  0  0  0  0  0  0  0  0
  -23.0216  -13.4538    0.4936 C   0  0  0  0  0  0  0  0  0  0  0  0
  -22.6030  -14.6776    1.2932 C   0  0  0  0  0  0  0  0  0  0  0  0
  -22.0232  -15.6168    0.3961 O   0  0  0  0  0  0  0  0  0  0  0  0
  1 11  1  0  0  0  0
  3 13  1  1  0  0  0
  3 17  2  0  0  0  0
  3 20  1  0  0  0  0
  3 26  1  0  0  0  0
  4 14  1  1  0  0  0
  4 18  1  0  0  0  0
  4 21  2  0  0  0  0
  4 20  1  0  0  0  0
  5 19  1  0  0  0  0
  5  7  1  0  0  0  0
  6  7  2  0  0  0  0
  6 12  1  0  0  0  0
  7  8  1  0  0  0  0
  8  9  1  0  0  0  0
  8 10  2  0  0  0  0
 10 11  1  0  0  0  0
 11 12  2  0  0  0  0
 15 23  1  0  0  0  0
 15 16  1  0  0  0  0
 16 19  1  0  0  0  0
 19 22  1  0  0  0  0
 22  2  1  6  0  0  0
 22 23  1  0  0  0  0
 23 24  1  1  0  0  0
 24 25  1  0  0  0  0
 25 26  1  0  0  0  0
M  CHG  2  13  -1  18  -1
M  END
>  <CHROM.1>
47.36025965,104.24658023,8.53424659,-52.96609281,-117.54180434,-168.04061145
177.33701182,79.07842637,-22.28428245,-14.01768165,2.29454648,-1.88472236
1.07719772,-2.08228142

>  <Name>
ligand

>  <RI>
0

>  <Rbt.Current_Directory>
/home/itssahil/PROJECTS/Mol_Feturizer/New_Systems/rnas/2GDI

>  <Rbt.Executable>
rbdock ($Id: //depot/dev/client3/rdock/2013.1/src/exe/rbdock.cxx#4 $)

>  <Rbt.Library>
libRbt.so (2013.1, Build901 2013/11/27)

>  <Rbt.Parameter_File>
/export/apps/rDock/src/rDock_2013.1_src/data/scripts/dock_solv.prm

>  <Rbt.Receptor>
prm/pocket_docking_8.prm

>  <SCORE>
-12.5206

>  <SCORE.INTER>
-11.3077

>  <SCORE.INTER.CONST>
1

>  <SCORE.INTER.POLAR>
0

>  <SCORE.INTER.ROT>
8

>  <SCORE.INTER.SOLV>
9.98193

>  <SCORE.INTER.VDW>
-19.7991

>  <SCORE.INTER.norm>
-0.434912

>  <SCORE.INTRA>
-1.21291

>  <SCORE.INTRA.DIHEDRAL>
-2.52268

>  <SCORE.INTRA.DIHEDRAL.0>
8.13976

>  <SCORE.INTRA.POLAR>
0

>  <SCORE.INTRA.POLAR.0>
0

>  <SCORE.INTRA.REPUL>
0

>  <SCORE.INTRA.REPUL.0>
0

>  <SCORE.INTRA.SOLV>
-0.119539

>  <SCORE.INTRA.SOLV.lig_0>
-82.9561

>  <SCORE.INTRA.VDW>
0.108203

>  <SCORE.INTRA.VDW.0>
-3.29171

>  <SCORE.INTRA.norm>
-0.0466503

>  <SCORE.RESTR>
0

>  <SCORE.RESTR.CAVITY>
0

>  <SCORE.RESTR.norm>
0

>  <SCORE.SYSTEM>
0

>  <SCORE.SYSTEM.CONST>
0

>  <SCORE.SYSTEM.DIHEDRAL>
0

>  <SCORE.SYSTEM.SOLV>
0

>  <SCORE.SYSTEM.norm>
0

>  <SCORE.heavy>
26

>  <SCORE.norm>
-0.481562

>  <RMSD>
7.350

$$$$
ligand
 OpenBabel11021811433D
libRbt.so/2013.1/901 2013/11/27
 26 27  0  0  0  0  0  0  0  0999 V2000
  -22.3135  -12.1617    9.0833 C   0  0  0  0  0  0  0  0  0  0  0  0
  -21.8279  -12.3187    2.6426 C   0  0  0  0  0  0  0  0  0  0  0  0
  -24.0414  -17.4347    1.5457 P   0  0  1  0  0  0  0  0  0  0  0  0
  -23.7461  -20.0463    0.3003 P   0  0  1  0  0  0  0  0  0  0  0  0
  -22.7474   -9.7728    3.8739 C   0  0  0  0  0  0  0  0  0  0  0  0
  -22.8431  -11.7643    5.4279 C   0  0  0  0  0  0  0  0  0  0  0  0
  -22.6424  -10.4008    5.2533 C   0  0  0  0  0  0  0  0  0  0  0  0
  -22.3314   -9.6274    6.3597 C   0  0  0  0  0  0  0  0  0  0  0  0
  -22.1281   -8.2931    6.2390 N   0  0  0  0  0  0  0  0  0  0  0  0
  -22.2297  -10.2099    7.5742 N   0  0  0  0  0  0  0  0  0  0  0  0
  -22.4310  -11.5379    7.7190 C   0  0  0  0  0  0  0  0  0  0  0  0
  -22.7372  -12.3097    6.6476 N   0  0  0  0  0  0  0  0  0  0  0  0
  -25.2611  -17.7068    2.3864 O   0  5  0  0  0  0  0  0  0  0  0  0
  -24.8284  -20.7008    1.1026 O   0  0  0  0  0  0  0  0  0  0  0  0
  -25.6480  -11.3543    1.6665 S   0  0  0  0  0  0  0  0  0  0  0  0
  -24.8984  -10.1919    2.7152 C   0  0  0  0  0  0  0  0  0  0  0  0
  -22.7106  -17.4343    2.2414 O   0  0  0  0  0  0  0  0  0  0  0  0
  -23.8621  -20.4711   -1.1257 O   0  5  0  0  0  0  0  0  0  0  0  0
  -23.6219  -10.5648    3.0089 N   0  0  0  0  0  0  0  0  0  0  0  0
  -24.0568  -18.4551    0.2865 O   0  0  0  0  0  0  0  0  0  0  0  0
  -22.3486  -20.1876    0.8392 O   0  0  0  0  0  0  0  0  0  0  0  0
  -23.1996  -11.7302    2.4460 C   0  0  1  0  0  0  0  0  0  0  0  0
  -24.2494  -12.3522    1.5943 C   0  0  1  0  0  0  0  0  0  0  0  0
  -24.3310  -13.6039    0.7615 C   0  0  0  0  0  0  0  0  0  0  0  0
  -24.2309  -14.8097    1.6826 C   0  0  0  0  0  0  0  0  0  0  0  0
  -24.2138  -15.9826    0.8780 O   0  0  0  0  0  0  0  0  0  0  0  0
  1 11  1  0  0  0  0
  3 13  1  1  0  0  0
  3 17  2  0  0  0  0
  3 20  1  0  0  0  0
  3 26  1  0  0  0  0
  4 14  1  1  0  0  0
  4 18  1  0  0  0  0
  4 21  2  0  0  0  0
  4 20  1  0  0  0  0
  5 19  1  0  0  0  0
  5  7  1  0  0  0  0
  6  7  2  0  0  0  0
  6 12  1  0  0  0  0
  7  8  1  0  0  0  0
  8  9  1  0  0  0  0
  8 10  2  0  0  0  0
 10 11  1  0  0  0  0
 11 12  2  0  0  0  0
 15 23  1  0  0  0  0
 15 16  1  0  0  0  0
 16 19  1  0  0  0  0
 19 22  1  0  0  0  0
 22  2  1  6  0  0  0
 22 23  1  0  0  0  0
 23 24  1  1  0  0  0
 24 25  1  0  0  0  0
 25 26  1  0  0  0  0
M  CHG  2  13  -1  18  -1
M  END
>  <CHROM.1>
-73.24629842,103.40696041,25.83226109,65.51467643,-113.88898642,-175.94313482
176.99023249,65.88670257,-23.58911051,-14.42953438,2.84158662,-1.31568200
1.16254940,-2.86370906

>  <Name>
ligand

>  <RI>
0

>  <Rbt.Current_Directory>
/home/itssahil/PROJECTS/Mol_Feturizer/New_Systems/rnas/2GDI

>  <Rbt.Executable>
rbdock ($Id: //depot/dev/client3/rdock/2013.1/src/exe/rbdock.cxx#4 $)

>  <Rbt.Library>
libRbt.so (2013.1, Build901 2013/11/27)

>  <Rbt.Parameter_File>
/export/apps/rDock/src/rDock_2013.1_src/data/scripts/dock_solv.prm

>  <Rbt.Receptor>
prm/pocket_docking_8.prm

>  <SCORE>
-16.59

>  <SCORE.INTER>
-15.6784

>  <SCORE.INTER.CONST>
1

>  <SCORE.INTER.POLAR>
0

>  <SCORE.INTER.ROT>
8

>  <SCORE.INTER.SOLV>
16.7934

>  <SCORE.INTER.VDW>
-24.9834

>  <SCORE.INTER.norm>
-0.603014

>  <SCORE.INTRA>
-0.911662

>  <SCORE.INTRA.DIHEDRAL>
-3.33911

>  <SCORE.INTRA.DIHEDRAL.0>
8.13976

>  <SCORE.INTRA.POLAR>
0

>  <SCORE.INTRA.POLAR.0>
0

>  <SCORE.INTRA.REPUL>
0

>  <SCORE.INTRA.REPUL.0>
0

>  <SCORE.INTRA.SOLV>
0.286931

>  <SCORE.INTRA.SOLV.lig_0>
-82.9561

>  <SCORE.INTRA.VDW>
0.614427

>  <SCORE.INTRA.VDW.0>
-3.29171

>  <SCORE.INTRA.norm>
-0.0350639

>  <SCORE.RESTR>
0

>  <SCORE.RESTR.CAVITY>
0

>  <SCORE.RESTR.norm>
0

>  <SCORE.SYSTEM>
0

>  <SCORE.SYSTEM.CONST>
0

>  <SCORE.SYSTEM.DIHEDRAL>
0

>  <SCORE.SYSTEM.SOLV>
0

>  <SCORE.SYSTEM.norm>
0

>  <SCORE.heavy>
26

>  <SCORE.norm>
-0.638077

>  <RMSD>
7.408

$$$$
ligand
 OpenBabel11021811433D
libRbt.so/2013.1/901 2013/11/27
 26 27  0  0  0  0  0  0  0  0999 V2000
  -22.9073   -8.4029    4.8122 C   0  0  0  0  0  0  0  0  0  0  0  0
  -22.9427  -15.1269   -0.5740 C   0  0  0  0  0  0  0  0  0  0  0  0
  -17.1585  -15.6144   -1.8881 P   0  0  1  0  0  0  0  0  0  0  0  0
  -16.5232  -15.8214    0.9425 P   0  0  1  0  0  0  0  0  0  0  0  0
  -22.8029  -13.2539    1.7315 C   0  0  0  0  0  0  0  0  0  0  0  0
  -21.7587  -11.6208    3.3542 C   0  0  0  0  0  0  0  0  0  0  0  0
  -22.8365  -11.9763    2.5531 C   0  0  0  0  0  0  0  0  0  0  0  0
  -23.9369  -11.1361    2.5078 C   0  0  0  0  0  0  0  0  0  0  0  0
  -25.0123  -11.4413    1.7418 N   0  0  0  0  0  0  0  0  0  0  0  0
  -23.9388   -9.9985    3.2361 N   0  0  0  0  0  0  0  0  0  0  0  0
  -22.8791   -9.6751    4.0092 C   0  0  0  0  0  0  0  0  0  0  0  0
  -21.7944  -10.4860    4.0664 N   0  0  0  0  0  0  0  0  0  0  0  0
  -15.9193  -14.7588   -1.9175 O   0  5  0  0  0  0  0  0  0  0  0  0
  -15.3802  -16.7631    0.7186 O   0  0  0  0  0  0  0  0  0  0  0  0
  -20.1675  -12.2031   -1.0502 S   0  0  0  0  0  0  0  0  0  0  0  0
  -21.0213  -12.0934    0.4572 C   0  0  0  0  0  0  0  0  0  0  0  0
  -17.1608  -16.8537   -2.7360 O   0  0  0  0  0  0  0  0  0  0  0  0
  -16.0215  -14.4165    0.9023 O   0  5  0  0  0  0  0  0  0  0  0  0
  -21.9366  -13.0962    0.5632 N   0  0  0  0  0  0  0  0  0  0  0  0
  -17.5060  -15.9487   -0.3407 O   0  0  0  0  0  0  0  0  0  0  0  0
  -17.3812  -16.1002    2.1465 O   0  0  0  0  0  0  0  0  0  0  0  0
  -22.0018  -13.9545   -0.4916 C   0  0  1  0  0  0  0  0  0  0  0  0
  -21.0186  -13.6098   -1.5541 C   0  0  1  0  0  0  0  0  0  0  0  0
  -20.6640  -14.1931   -2.8961 C   0  0  0  0  0  0  0  0  0  0  0  0
  -19.6497  -15.3073   -2.6909 C   0  0  0  0  0  0  0  0  0  0  0  0
  -18.3943  -14.7136   -2.3836 O   0  0  0  0  0  0  0  0  0  0  0  0
  1 11  1  0  0  0  0
  3 13  1  6  0  0  0
  3 17  2  0  0  0  0
  3 20  1  0  0  0  0
  3 26  1  0  0  0  0
  4 14  1  6  0  0  0
  4 18  1  0  0  0  0
  4 21  2  0  0  0  0
  4 20  1  0  0  0  0
  5 19  1  0  0  0  0
  5  7  1  0  0  0  0
  6  7  2  0  0  0  0
  6 12  1  0  0  0  0
  7  8  1  0  0  0  0
  8  9  1  0  0  0  0
  8 10  2  0  0  0  0
 10 11  1  0  0  0  0
 11 12  2  0  0  0  0
 15 23  1  0  0  0  0
 15 16  1  0  0  0  0
 16 19  1  0  0  0  0
 19 22  1  0  0  0  0
 22  2  1  1  0  0  0
 22 23  1  0  0  0  0
 23 24  1  6  0  0  0
 24 25  1  0  0  0  0
 25 26  1  0  0  0  0
M  CHG  2  13  -1  18  -1
M  END
>  <CHROM.1>
-17.55014966,16.89322968,-75.07881849,-61.93456107,95.58276522,-74.09976465
170.54351283,168.62765081,-19.87758506,-13.65554031,0.36731086,-2.46160920
0.44389092,-1.99801390

>  <Name>
ligand

>  <RI>
0

>  <Rbt.Current_Directory>
/home/itssahil/PROJECTS/Mol_Feturizer/New_Systems/rnas/2GDI

>  <Rbt.Executable>
rbdock ($Id: //depot/dev/client3/rdock/2013.1/src/exe/rbdock.cxx#4 $)

>  <Rbt.Library>
libRbt.so (2013.1, Build901 2013/11/27)

>  <Rbt.Parameter_File>
/export/apps/rDock/src/rDock_2013.1_src/data/scripts/dock_solv.prm

>  <Rbt.Receptor>
prm/pocket_docking_6.prm

>  <SCORE>
-9.60324

>  <SCORE.INTER>
-10.1452

>  <SCORE.INTER.CONST>
1

>  <SCORE.INTER.POLAR>
0

>  <SCORE.INTER.ROT>
8

>  <SCORE.INTER.SOLV>
21.0722

>  <SCORE.INTER.VDW>
-22.7209

>  <SCORE.INTER.norm>
-0.390199

>  <SCORE.INTRA>
0.541701

>  <SCORE.INTRA.DIHEDRAL>
0.396673

>  <SCORE.INTRA.DIHEDRAL.0>
8.13976

>  <SCORE.INTRA.POLAR>
0

>  <SCORE.INTRA.POLAR.0>
0

>  <SCORE.INTRA.REPUL>
0

>  <SCORE.INTRA.REPUL.0>
0

>  <SCORE.INTRA.SOLV>
0.330683

>  <SCORE.INTRA.SOLV.lig_0>
-82.9561

>  <SCORE.INTRA.VDW>
0.178024

>  <SCORE.INTRA.VDW.0>
-3.29171

>  <SCORE.INTRA.norm>
0.0208347

>  <SCORE.RESTR>
0.00023624

>  <SCORE.RESTR.CAVITY>
0.00023624

>  <SCORE.RESTR.norm>
9.08615e-06

>  <SCORE.SYSTEM>
0

>  <SCORE.SYSTEM.CONST>
0

>  <SCORE.SYSTEM.DIHEDRAL>
0

>  <SCORE.SYSTEM.SOLV>
0

>  <SCORE.SYSTEM.norm>
0

>  <SCORE.heavy>
26

>  <SCORE.norm>
-0.369355

>  <RMSD>
7.443

$$$$
ligand
 OpenBabel11021811433D
libRbt.so/2013.1/901 2013/11/27
 26 27  0  0  0  0  0  0  0  0999 V2000
  -20.7707  -18.4534    3.7914 C   0  0  0  0  0  0  0  0  0  0  0  0
  -20.0859  -14.7408   -3.4230 C   0  0  0  0  0  0  0  0  0  0  0  0
  -24.3525  -12.7807   -2.5357 P   0  0  1  0  0  0  0  0  0  0  0  0
  -25.8779  -13.5177   -0.1716 P   0  0  1  0  0  0  0  0  0  0  0  0
  -19.4461  -17.0113   -1.6122 C   0  0  0  0  0  0  0  0  0  0  0  0
  -20.2111  -18.6798    0.1259 C   0  0  0  0  0  0  0  0  0  0  0  0
  -19.8058  -17.3880   -0.1849 C   0  0  0  0  0  0  0  0  0  0  0  0
  -19.7229  -16.4537    0.8344 C   0  0  0  0  0  0  0  0  0  0  0  0
  -19.3334  -15.1809    0.5797 N   0  0  0  0  0  0  0  0  0  0  0  0
  -20.0342  -16.8149    2.0982 N   0  0  0  0  0  0  0  0  0  0  0  0
  -20.4277  -18.0773    2.3754 C   0  0  0  0  0  0  0  0  0  0  0  0
  -20.5155  -19.0041    1.3902 N   0  0  0  0  0  0  0  0  0  0  0  0
  -25.6067  -12.4035   -3.2795 O   0  5  0  0  0  0  0  0  0  0  0  0
  -25.8573  -14.7096    0.7353 O   0  0  0  0  0  0  0  0  0  0  0  0
  -22.8010  -17.7526   -3.6078 S   0  0  0  0  0  0  0  0  0  0  0  0
  -21.5121  -18.0648   -2.4879 C   0  0  0  0  0  0  0  0  0  0  0  0
  -23.4689  -11.6626   -2.0624 O   0  0  0  0  0  0  0  0  0  0  0  0
  -25.3913  -12.3203    0.5745 O   0  5  0  0  0  0  0  0  0  0  0  0
  -20.6336  -17.0243   -2.4667 N   0  0  0  0  0  0  0  0  0  0  0  0
  -24.7633  -13.7723   -1.3212 O   0  0  0  0  0  0  0  0  0  0  0  0
  -27.1697  -13.2659   -0.9002 O   0  0  0  0  0  0  0  0  0  0  0  0
  -20.9251  -15.9842   -3.2952 C   0  0  1  0  0  0  0  0  0  0  0  0
  -22.1857  -16.2098   -4.0532 C   0  0  1  0  0  0  0  0  0  0  0  0
  -22.9598  -15.4218   -5.0763 C   0  0  0  0  0  0  0  0  0  0  0  0
  -24.0640  -14.6539   -4.3668 C   0  0  0  0  0  0  0  0  0  0  0  0
  -23.4573  -13.6971   -3.5068 O   0  0  0  0  0  0  0  0  0  0  0  0
  1 11  1  0  0  0  0
  3 13  1  6  0  0  0
  3 17  2  0  0  0  0
  3 20  1  0  0  0  0
  3 26  1  0  0  0  0
  4 14  1  1  0  0  0
  4 18  1  0  0  0  0
  4 21  2  0  0  0  0
  4 20  1  0  0  0  0
  5 19  1  0  0  0  0
  5  7  1  0  0  0  0
  6  7  2  0  0  0  0
  6 12  1  0  0  0  0
  7  8  1  0  0  0  0
  8  9  1  0  0  0  0
  8 10  2  0  0  0  0
 10 11  1  0  0  0  0
 11 12  2  0  0  0  0
 15 23  1  0  0  0  0
 15 16  1  0  0  0  0
 16 19  1  0  0  0  0
 19 22  1  0  0  0  0
 22  2  1  1  0  0  0
 22 23  1  0  0  0  0
 23 24  1  6  0  0  0
 24 25  1  0  0  0  0
 25 26  1  0  0  0  0
M  CHG  2  13  -1  18  -1
M  END
>  <CHROM.1>
-53.13439316,-48.79581049,68.47503082,-178.52786134,84.83839899,65.14884951
-176.01710186,-38.16489689,-22.74113107,-15.34201917,-1.34625211,0.40615629
-0.71412938,1.66736509

>  <Name>
ligand

>  <RI>
0

>  <Rbt.Current_Directory>
/home/itssahil/PROJECTS/Mol_Feturizer/New_Systems/rnas/2GDI

>  <Rbt.Executable>
rbdock ($Id: //depot/dev/client3/rdock/2013.1/src/exe/rbdock.cxx#4 $)

>  <Rbt.Library>
libRbt.so (2013.1, Build901 2013/11/27)

>  <Rbt.Parameter_File>
/export/apps/rDock/src/rDock_2013.1_src/data/scripts/dock_solv.prm

>  <Rbt.Receptor>
prm/pocket_docking_7.prm

>  <SCORE>
-4.29587

>  <SCORE.INTER>
-4.21306

>  <SCORE.INTER.CONST>
1

>  <SCORE.INTER.POLAR>
0

>  <SCORE.INTER.ROT>
8

>  <SCORE.INTER.SOLV>
19.9413

>  <SCORE.INTER.VDW>
-18.3891

>  <SCORE.INTER.norm>
-0.162041

>  <SCORE.INTRA>
-0.0828105

>  <SCORE.INTRA.DIHEDRAL>
-2.17539

>  <SCORE.INTRA.DIHEDRAL.0>
8.13976

>  <SCORE.INTRA.POLAR>
0

>  <SCORE.INTRA.POLAR.0>
0

>  <SCORE.INTRA.REPUL>
0

>  <SCORE.INTRA.REPUL.0>
0

>  <SCORE.INTRA.SOLV>
2.64946

>  <SCORE.INTRA.SOLV.lig_0>
-82.9561

>  <SCORE.INTRA.VDW>
-0.319846

>  <SCORE.INTRA.VDW.0>
-3.29171

>  <SCORE.INTRA.norm>
-0.00318502

>  <SCORE.RESTR>
0

>  <SCORE.RESTR.CAVITY>
0

>  <SCORE.RESTR.norm>
0

>  <SCORE.SYSTEM>
0

>  <SCORE.SYSTEM.CONST>
0

>  <SCORE.SYSTEM.DIHEDRAL>
0

>  <SCORE.SYSTEM.SOLV>
0

>  <SCORE.SYSTEM.norm>
0

>  <SCORE.heavy>
26

>  <SCORE.norm>
-0.165226

>  <RMSD>
7.445

$$$$
ligand
 OpenBabel11021811433D
libRbt.so/2013.1/901 2013/11/27
 26 27  0  0  0  0  0  0  0  0999 V2000
  -20.1764  -11.5700    0.9499 C   0  0  0  0  0  0  0  0  0  0  0  0
  -22.8039  -15.7165    4.5697 C   0  0  0  0  0  0  0  0  0  0  0  0
  -22.3824  -17.2618    0.3846 P   0  0  1  0  0  0  0  0  0  0  0  0
  -19.8341  -18.0189   -0.7952 P   0  0  1  0  0  0  0  0  0  0  0  0
  -24.5942  -13.3793    4.1504 C   0  0  0  0  0  0  0  0  0  0  0  0
  -22.2067  -12.5910    3.8886 C   0  0  0  0  0  0  0  0  0  0  0  0
  -23.4305  -12.8913    3.3041 C   0  0  0  0  0  0  0  0  0  0  0  0
  -23.5650  -12.7501    1.9326 C   0  0  0  0  0  0  0  0  0  0  0  0
  -24.7397  -13.0299    1.3178 N   0  0  0  0  0  0  0  0  0  0  0  0
  -22.5126  -12.3279    1.1986 N   0  0  0  0  0  0  0  0  0  0  0  0
  -21.3326  -12.0402    1.7903 C   0  0  0  0  0  0  0  0  0  0  0  0
  -21.1835  -12.1717    3.1311 N   0  0  0  0  0  0  0  0  0  0  0  0
  -21.8080  -16.2059    1.2922 O   0  5  0  0  0  0  0  0  0  0  0  0
  -19.0121  -17.0872    0.0413 O   0  0  0  0  0  0  0  0  0  0  0  0
  -26.3402  -16.6972    2.8348 S   0  0  0  0  0  0  0  0  0  0  0  0
  -26.1950  -15.0011    3.1749 C   0  0  0  0  0  0  0  0  0  0  0  0
  -23.1052  -16.7944   -0.8458 O   0  0  0  0  0  0  0  0  0  0  0  0
  -19.1483  -19.3415   -0.8812 O   0  5  0  0  0  0  0  0  0  0  0  0
  -24.9927  -14.7300    3.7542 N   0  0  0  0  0  0  0  0  0  0  0  0
  -21.2034  -18.3130    0.0217 O   0  0  0  0  0  0  0  0  0  0  0  0
  -20.2618  -17.4950   -2.1390 O   0  0  0  0  0  0  0  0  0  0  0  0
  -24.1721  -15.7991    3.9469 C   0  0  1  0  0  0  0  0  0  0  0  0
  -24.7782  -17.0652    3.4529 C   0  0  1  0  0  0  0  0  0  0  0  0
  -24.3359  -18.5038    3.4120 C   0  0  0  0  0  0  0  0  0  0  0  0
  -23.0996  -18.6090    2.5330 C   0  0  0  0  0  0  0  0  0  0  0  0
  -23.4344  -18.1286    1.2368 O   0  0  0  0  0  0  0  0  0  0  0  0
  1 11  1  0  0  0  0
  3 13  1  1  0  0  0
  3 17  2  0  0  0  0
  3 20  1  0  0  0  0
  3 26  1  0  0  0  0
  4 14  1  1  0  0  0
  4 18  1  0  0  0  0
  4 21  2  0  0  0  0
  4 20  1  0  0  0  0
  5 19  1  0  0  0  0
  5  7  1  0  0  0  0
  6  7  2  0  0  0  0
  6 12  1  0  0  0  0
  7  8  1  0  0  0  0
  8  9  1  0  0  0  0
  8 10  2  0  0  0  0
 10 11  1  0  0  0  0
 11 12  2  0  0  0  0
 15 23  1  0  0  0  0
 15 16  1  0  0  0  0
 16 19  1  0  0  0  0
 19 22  1  0  0  0  0
 22  2  1  6  0  0  0
 22 23  1  0  0  0  0
 23 24  1  1  0  0  0
 24 25  1  0  0  0  0
 25 26  1  0  0  0  0
M  CHG  2  13  -1  18  -1
M  END
>  <CHROM.1>
-63.51019595,-113.33932489,-117.61932988,65.92203161,118.23704468,-58.72106490
141.79831623,-46.80988202,-22.65281642,-15.85405749,1.60709356,-2.31873050
-0.58898669,-2.86290539

>  <Name>
ligand

>  <RI>
0

>  <Rbt.Current_Directory>
/home/itssahil/PROJECTS/Mol_Feturizer/New_Systems/rnas/2GDI

>  <Rbt.Executable>
rbdock ($Id: //depot/dev/client3/rdock/2013.1/src/exe/rbdock.cxx#4 $)

>  <Rbt.Library>
libRbt.so (2013.1, Build901 2013/11/27)

>  <Rbt.Parameter_File>
/export/apps/rDock/src/rDock_2013.1_src/data/scripts/dock_solv.prm

>  <Rbt.Receptor>
prm/pocket_docking_8.prm

>  <SCORE>
-5.13812

>  <SCORE.INTER>
-6.07934

>  <SCORE.INTER.CONST>
1

>  <SCORE.INTER.POLAR>
0

>  <SCORE.INTER.ROT>
8

>  <SCORE.INTER.SOLV>
10.2205

>  <SCORE.INTER.VDW>
-16.393

>  <SCORE.INTER.norm>
-0.233821

>  <SCORE.INTRA>
0.941214

>  <SCORE.INTRA.DIHEDRAL>
1.73934

>  <SCORE.INTRA.DIHEDRAL.0>
8.13976

>  <SCORE.INTRA.POLAR>
0

>  <SCORE.INTRA.POLAR.0>
0

>  <SCORE.INTRA.REPUL>
0

>  <SCORE.INTRA.REPUL.0>
0

>  <SCORE.INTRA.SOLV>
3.44898

>  <SCORE.INTRA.SOLV.lig_0>
-82.9561

>  <SCORE.INTRA.VDW>
-1.65294

>  <SCORE.INTRA.VDW.0>
-3.29171

>  <SCORE.INTRA.norm>
0.0362006

>  <SCORE.RESTR>
0

>  <SCORE.RESTR.CAVITY>
0

>  <SCORE.RESTR.norm>
0

>  <SCORE.SYSTEM>
0

>  <SCORE.SYSTEM.CONST>
0

>  <SCORE.SYSTEM.DIHEDRAL>
0

>  <SCORE.SYSTEM.SOLV>
0

>  <SCORE.SYSTEM.norm>
0

>  <SCORE.heavy>
26

>  <SCORE.norm>
-0.19762

>  <RMSD>
7.449

$$$$
ligand
 OpenBabel11021811433D
libRbt.so/2013.1/901 2013/11/27
 26 27  0  0  0  0  0  0  0  0999 V2000
  -23.0455  -17.2295    6.0186 C   0  0  0  0  0  0  0  0  0  0  0  0
  -19.8978  -11.7659    2.1275 C   0  0  0  0  0  0  0  0  0  0  0  0
  -18.7163  -15.8003   -0.0972 P   0  0  1  0  0  0  0  0  0  0  0  0
  -20.0890  -18.2060   -0.9843 P   0  0  1  0  0  0  0  0  0  0  0  0
  -22.5750  -12.1544    3.3625 C   0  0  0  0  0  0  0  0  0  0  0  0
  -21.9564  -14.5893    3.6430 C   0  0  0  0  0  0  0  0  0  0  0  0
  -22.7083  -13.4979    4.0593 C   0  0  0  0  0  0  0  0  0  0  0  0
  -23.5720  -13.6553    5.1308 C   0  0  0  0  0  0  0  0  0  0  0  0
  -24.3267  -12.6198    5.5720 N   0  0  0  0  0  0  0  0  0  0  0  0
  -23.6637  -14.8555    5.7438 N   0  0  0  0  0  0  0  0  0  0  0  0
  -22.9232  -15.9027    5.3195 C   0  0  0  0  0  0  0  0  0  0  0  0
  -22.0738  -15.7671    4.2719 N   0  0  0  0  0  0  0  0  0  0  0  0
  -18.5894  -16.1327    1.3663 O   0  5  0  0  0  0  0  0  0  0  0  0
  -19.9961  -18.9041    0.3377 O   0  0  0  0  0  0  0  0  0  0  0  0
  -22.7623  -12.8118   -0.5516 S   0  0  0  0  0  0  0  0  0  0  0  0
  -23.3614  -12.6869    1.0728 C   0  0  0  0  0  0  0  0  0  0  0  0
  -17.4947  -15.9761   -0.9525 O   0  0  0  0  0  0  0  0  0  0  0  0
  -21.4551  -18.4024   -1.5521 O   0  5  0  0  0  0  0  0  0  0  0  0
  -22.3607  -12.3341    1.9265 N   0  0  0  0  0  0  0  0  0  0  0  0
  -19.9848  -16.6145   -0.6929 O   0  0  0  0  0  0  0  0  0  0  0  0
  -18.9969  -18.5155   -1.9716 O   0  0  0  0  0  0  0  0  0  0  0  0
  -21.1345  -12.1560    1.3626 C   0  0  1  0  0  0  0  0  0  0  0  0
  -21.1589  -12.3756   -0.1091 C   0  0  1  0  0  0  0  0  0  0  0  0
  -20.1269  -12.3186   -1.2039 C   0  0  0  0  0  0  0  0  0  0  0  0
  -19.6053  -13.7246   -1.4559 C   0  0  0  0  0  0  0  0  0  0  0  0
  -19.1469  -14.2563   -0.2189 O   0  0  0  0  0  0  0  0  0  0  0  0
  1 11  1  0  0  0  0
  3 13  1  1  0  0  0
  3 17  2  0  0  0  0
  3 20  1  0  0  0  0
  3 26  1  0  0  0  0
  4 14  1  1  0  0  0
  4 18  1  0  0  0  0
  4 21  2  0  0  0  0
  4 20  1  0  0  0  0
  5 19  1  0  0  0  0
  5  7  1  0  0  0  0
  6  7  2  0  0  0  0
  6 12  1  0  0  0  0
  7  8  1  0  0  0  0
  8  9  1  0  0  0  0
  8 10  2  0  0  0  0
 10 11  1  0  0  0  0
 11 12  2  0  0  0  0
 15 23  1  0  0  0  0
 15 16  1  0  0  0  0
 16 19  1  0  0  0  0
 19 22  1  0  0  0  0
 22  2  1  6  0  0  0
 22 23  1  0  0  0  0
 23 24  1  1  0  0  0
 24 25  1  0  0  0  0
 25 26  1  0  0  0  0
M  CHG  2  13  -1  18  -1
M  END
>  <CHROM.1>
-72.46453992,75.49441599,36.02688841,65.12993171,-82.79806077,-54.25139761
171.64368381,-167.17409592,-21.03951968,-14.95345617,1.22768754,2.98505986
1.02641280,-0.36574841

>  <Name>
ligand

>  <RI>
0

>  <Rbt.Current_Directory>
/home/itssahil/PROJECTS/Mol_Feturizer/New_Systems/rnas/2GDI

>  <Rbt.Executable>
rbdock ($Id: //depot/dev/client3/rdock/2013.1/src/exe/rbdock.cxx#4 $)

>  <Rbt.Library>
libRbt.so (2013.1, Build901 2013/11/27)

>  <Rbt.Parameter_File>
/export/apps/rDock/src/rDock_2013.1_src/data/scripts/dock_solv.prm

>  <Rbt.Receptor>
prm/pocket_docking_5.prm

>  <SCORE>
-8.99061

>  <SCORE.INTER>
-6.97569

>  <SCORE.INTER.CONST>
1

>  <SCORE.INTER.POLAR>
0

>  <SCORE.INTER.ROT>
8

>  <SCORE.INTER.SOLV>
11.5883

>  <SCORE.INTER.VDW>
-17.4465

>  <SCORE.INTER.norm>
-0.268296

>  <SCORE.INTRA>
-2.01492

>  <SCORE.INTRA.DIHEDRAL>
-2.54132

>  <SCORE.INTRA.DIHEDRAL.0>
8.13976

>  <SCORE.INTRA.POLAR>
0

>  <SCORE.INTRA.POLAR.0>
0

>  <SCORE.INTRA.REPUL>
0

>  <SCORE.INTRA.REPUL.0>
0

>  <SCORE.INTRA.SOLV>
0.0264177

>  <SCORE.INTRA.SOLV.lig_0>
-82.9561

>  <SCORE.INTRA.VDW>
-0.757474

>  <SCORE.INTRA.VDW.0>
-3.29171

>  <SCORE.INTRA.norm>
-0.0774971

>  <SCORE.RESTR>
0

>  <SCORE.RESTR.CAVITY>
0

>  <SCORE.RESTR.norm>
0

>  <SCORE.SYSTEM>
0

>  <SCORE.SYSTEM.CONST>
0

>  <SCORE.SYSTEM.DIHEDRAL>
0

>  <SCORE.SYSTEM.SOLV>
0

>  <SCORE.SYSTEM.norm>
0

>  <SCORE.heavy>
26

>  <SCORE.norm>
-0.345793

>  <RMSD>
7.463

$$$$
ligand
 OpenBabel11021811433D
libRbt.so/2013.1/901 2013/11/27
 26 27  0  0  0  0  0  0  0  0999 V2000
  -22.2607   -7.6192    4.6701 C   0  0  0  0  0  0  0  0  0  0  0  0
  -22.1979  -15.4095    3.4531 C   0  0  0  0  0  0  0  0  0  0  0  0
  -22.3091  -13.5923   -1.4721 P   0  0  1  0  0  0  0  0  0  0  0  0
  -23.9508  -13.7025   -3.8703 P   0  0  1  0  0  0  0  0  0  0  0  0
  -23.3423  -13.2444    5.1400 C   0  0  0  0  0  0  0  0  0  0  0  0
  -22.2488  -11.2726    3.9970 C   0  0  0  0  0  0  0  0  0  0  0  0
  -23.0491  -11.7582    5.0234 C   0  0  0  0  0  0  0  0  0  0  0  0
  -23.5855  -10.8591    5.9305 C   0  0  0  0  0  0  0  0  0  0  0  0
  -24.3710  -11.2857    6.9490 N   0  0  0  0  0  0  0  0  0  0  0  0
  -23.3225   -9.5407    5.7990 N   0  0  0  0  0  0  0  0  0  0  0  0
  -22.5397   -9.0927    4.7931 C   0  0  0  0  0  0  0  0  0  0  0  0
  -22.0056   -9.9583    3.8971 N   0  0  0  0  0  0  0  0  0  0  0  0
  -21.3025  -14.5732   -2.0134 O   0  5  0  0  0  0  0  0  0  0  0  0
  -24.3076  -12.6869   -4.9119 O   0  0  0  0  0  0  0  0  0  0  0  0
  -25.7647  -14.0317    2.0905 S   0  0  0  0  0  0  0  0  0  0  0  0
  -25.2319  -13.2311    3.5356 C   0  0  0  0  0  0  0  0  0  0  0  0
  -21.8077  -12.5439   -0.5212 O   0  0  0  0  0  0  0  0  0  0  0  0
  -23.0009  -14.6953   -4.4527 O   0  5  0  0  0  0  0  0  0  0  0  0
  -24.0337  -13.7316    3.9464 N   0  0  0  0  0  0  0  0  0  0  0  0
  -23.0984  -12.9338   -2.7252 O   0  0  0  0  0  0  0  0  0  0  0  0
  -25.1067  -14.3497   -3.1573 O   0  0  0  0  0  0  0  0  0  0  0  0
  -23.5086  -14.7230    3.1751 C   0  0  1  0  0  0  0  0  0  0  0  0
  -24.3752  -15.0415    2.0080 C   0  0  1  0  0  0  0  0  0  0  0  0
  -24.2932  -16.0187    0.8655 C   0  0  0  0  0  0  0  0  0  0  0  0
  -23.1166  -15.6372   -0.0190 C   0  0  0  0  0  0  0  0  0  0  0  0
  -23.4394  -14.4242   -0.6880 O   0  0  0  0  0  0  0  0  0  0  0  0
  1 11  1  0  0  0  0
  3 13  1  6  0  0  0
  3 17  2  0  0  0  0
  3 20  1  0  0  0  0
  3 26  1  0  0  0  0
  4 14  1  6  0  0  0
  4 18  1  0  0  0  0
  4 21  2  0  0  0  0
  4 20  1  0  0  0  0
  5 19  1  0  0  0  0
  5  7  1  0  0  0  0
  6  7  2  0  0  0  0
  6 12  1  0  0  0  0
  7  8  1  0  0  0  0
  8  9  1  0  0  0  0
  8 10  2  0  0  0  0
 10 11  1  0  0  0  0
 11 12  2  0  0  0  0
 15 23  1  0  0  0  0
 15 16  1  0  0  0  0
 16 19  1  0  0  0  0
 19 22  1  0  0  0  0
 22  2  1  6  0  0  0
 22 23  1  0  0  0  0
 23 24  1  1  0  0  0
 24 25  1  0  0  0  0
 25 26  1  0  0  0  0
M  CHG  2  13  -1  18  -1
M  END
>  <CHROM.1>
57.78542144,-59.12708380,-60.60684850,-171.57163646,115.19579332,-69.91529977
167.78092083,31.71467599,-23.43484038,-13.07038169,1.05775960,-1.51846877
-1.21022038,-1.86991292

>  <Name>
ligand

>  <RI>
0

>  <Rbt.Current_Directory>
/home/itssahil/PROJECTS/Mol_Feturizer/New_Systems/rnas/2GDI

>  <Rbt.Executable>
rbdock ($Id: //depot/dev/client3/rdock/2013.1/src/exe/rbdock.cxx#4 $)

>  <Rbt.Library>
libRbt.so (2013.1, Build901 2013/11/27)

>  <Rbt.Parameter_File>
/export/apps/rDock/src/rDock_2013.1_src/data/scripts/dock_solv.prm

>  <Rbt.Receptor>
prm/pocket_docking_8.prm

>  <SCORE>
-9.55439

>  <SCORE.INTER>
-9.21708

>  <SCORE.INTER.CONST>
1

>  <SCORE.INTER.POLAR>
0

>  <SCORE.INTER.ROT>
8

>  <SCORE.INTER.SOLV>
8.97532

>  <SCORE.INTER.VDW>
-18.0698

>  <SCORE.INTER.norm>
-0.354503

>  <SCORE.INTRA>
-0.337309

>  <SCORE.INTRA.DIHEDRAL>
-1.0266

>  <SCORE.INTRA.DIHEDRAL.0>
8.13976

>  <SCORE.INTRA.POLAR>
0

>  <SCORE.INTRA.POLAR.0>
0

>  <SCORE.INTRA.REPUL>
0

>  <SCORE.INTRA.REPUL.0>
0

>  <SCORE.INTRA.SOLV>
1.93203

>  <SCORE.INTRA.SOLV.lig_0>
-82.9561

>  <SCORE.INTRA.VDW>
-0.790024

>  <SCORE.INTRA.VDW.0>
-3.29171

>  <SCORE.INTRA.norm>
-0.0129734

>  <SCORE.RESTR>
0

>  <SCORE.RESTR.CAVITY>
0

>  <SCORE.RESTR.norm>
0

>  <SCORE.SYSTEM>
0

>  <SCORE.SYSTEM.CONST>
0

>  <SCORE.SYSTEM.DIHEDRAL>
0

>  <SCORE.SYSTEM.SOLV>
0

>  <SCORE.SYSTEM.norm>
0

>  <SCORE.heavy>
26

>  <SCORE.norm>
-0.367477

>  <RMSD>
7.490

$$$$
ligand
 OpenBabel11021811433D
libRbt.so/2013.1/901 2013/11/27
 26 27  0  0  0  0  0  0  0  0999 V2000
  -21.4719   -6.5072    5.6361 C   0  0  0  0  0  0  0  0  0  0  0  0
  -23.9525  -14.1412    3.3419 C   0  0  0  0  0  0  0  0  0  0  0  0
  -23.1815  -16.3655   -1.4921 P   0  0  1  0  0  0  0  0  0  0  0  0
  -21.6375  -14.2905   -2.8222 P   0  0  1  0  0  0  0  0  0  0  0  0
  -24.0385  -11.5926    4.8717 C   0  0  0  0  0  0  0  0  0  0  0  0
  -22.9716   -9.4787    3.9866 C   0  0  0  0  0  0  0  0  0  0  0  0
  -23.3508  -10.2532    5.0757 C   0  0  0  0  0  0  0  0  0  0  0  0
  -23.1018   -9.7740    6.3513 C   0  0  0  0  0  0  0  0  0  0  0  0
  -23.4526  -10.4944    7.4442 N   0  0  0  0  0  0  0  0  0  0  0  0
  -22.5017   -8.5741    6.5085 N   0  0  0  0  0  0  0  0  0  0  0  0
  -22.1406   -7.8398    5.4335 C   0  0  0  0  0  0  0  0  0  0  0  0
  -22.3755   -8.2936    4.1781 N   0  0  0  0  0  0  0  0  0  0  0  0
  -23.6022  -16.9670   -2.8074 O   0  5  0  0  0  0  0  0  0  0  0  0
  -22.4986  -13.1451   -2.3860 O   0  0  0  0  0  0  0  0  0  0  0  0
  -25.7071  -11.1040    1.2990 S   0  0  0  0  0  0  0  0  0  0  0  0
  -25.1666  -10.6382    2.8815 C   0  0  0  0  0  0  0  0  0  0  0  0
  -23.0167  -17.2998   -0.3281 O   0  0  0  0  0  0  0  0  0  0  0  0
  -20.2012  -13.9057   -2.6949 O   0  5  0  0  0  0  0  0  0  0  0  0
  -24.5875  -11.6929    3.5194 N   0  0  0  0  0  0  0  0  0  0  0  0
  -21.8456  -15.4830   -1.7435 O   0  0  0  0  0  0  0  0  0  0  0  0
  -21.9648  -14.8879   -4.1635 O   0  0  0  0  0  0  0  0  0  0  0  0
  -24.5475  -12.8604    2.8203 C   0  0  1  0  0  0  0  0  0  0  0  0
  -25.1476  -12.7215    1.4657 C   0  0  1  0  0  0  0  0  0  0  0  0
  -25.3671  -13.6558    0.3055 C   0  0  0  0  0  0  0  0  0  0  0  0
  -24.0851  -14.4350    0.0576 C   0  0  0  0  0  0  0  0  0  0  0  0
  -24.2923  -15.2853   -1.0636 O   0  0  0  0  0  0  0  0  0  0  0  0
  1 11  1  0  0  0  0
  3 13  1  6  0  0  0
  3 17  2  0  0  0  0
  3 20  1  0  0  0  0
  3 26  1  0  0  0  0
  4 14  1  1  0  0  0
  4 18  1  0  0  0  0
  4 21  2  0  0  0  0
  4 20  1  0  0  0  0
  5 19  1  0  0  0  0
  5  7  1  0  0  0  0
  6  7  2  0  0  0  0
  6 12  1  0  0  0  0
  7  8  1  0  0  0  0
  8  9  1  0  0  0  0
  8 10  2  0  0  0  0
 10 11  1  0  0  0  0
 11 12  2  0  0  0  0
 15 23  1  0  0  0  0
 15 16  1  0  0  0  0
 16 19  1  0  0  0  0
 19 22  1  0  0  0  0
 22  2  1  6  0  0  0
 22 23  1  0  0  0  0
 23 24  1  1  0  0  0
 24 25  1  0  0  0  0
 25 26  1  0  0  0  0
M  CHG  2  13  -1  18  -1
M  END
>  <CHROM.1>
54.09509463,-38.22243945,-18.09261801,68.11735053,134.84106883,-178.35145015
-173.21318099,-172.28280579,-23.29960784,-12.70691148,1.22691412,-1.64275661
-0.74935362,-2.30518947

>  <Name>
ligand

>  <RI>
0

>  <Rbt.Current_Directory>
/home/itssahil/PROJECTS/Mol_Feturizer/New_Systems/rnas/2GDI

>  <Rbt.Executable>
rbdock ($Id: //depot/dev/client3/rdock/2013.1/src/exe/rbdock.cxx#4 $)

>  <Rbt.Library>
libRbt.so (2013.1, Build901 2013/11/27)

>  <Rbt.Parameter_File>
/export/apps/rDock/src/rDock_2013.1_src/data/scripts/dock_solv.prm

>  <Rbt.Receptor>
prm/pocket_docking_7.prm

>  <SCORE>
-13.457

>  <SCORE.INTER>
-12.8022

>  <SCORE.INTER.CONST>
1

>  <SCORE.INTER.POLAR>
0

>  <SCORE.INTER.ROT>
8

>  <SCORE.INTER.SOLV>
8.83686

>  <SCORE.INTER.VDW>
-20.4137

>  <SCORE.INTER.norm>
-0.492392

>  <SCORE.INTRA>
-0.654837

>  <SCORE.INTRA.DIHEDRAL>
-3.16668

>  <SCORE.INTRA.DIHEDRAL.0>
8.13976

>  <SCORE.INTRA.POLAR>
0

>  <SCORE.INTRA.POLAR.0>
0

>  <SCORE.INTRA.REPUL>
0

>  <SCORE.INTRA.REPUL.0>
0

>  <SCORE.INTRA.SOLV>
-0.443599

>  <SCORE.INTRA.SOLV.lig_0>
-82.9561

>  <SCORE.INTRA.VDW>
1.1503

>  <SCORE.INTRA.VDW.0>
-3.29171

>  <SCORE.INTRA.norm>
-0.025186

>  <SCORE.RESTR>
0

>  <SCORE.RESTR.CAVITY>
0

>  <SCORE.RESTR.norm>
0

>  <SCORE.SYSTEM>
0

>  <SCORE.SYSTEM.CONST>
0

>  <SCORE.SYSTEM.DIHEDRAL>
0

>  <SCORE.SYSTEM.SOLV>
0

>  <SCORE.SYSTEM.norm>
0

>  <SCORE.heavy>
26

>  <SCORE.norm>
-0.517578

>  <RMSD>
7.508

$$$$
ligand
 OpenBabel11021811433D
libRbt.so/2013.1/901 2013/11/27
 26 27  0  0  0  0  0  0  0  0999 V2000
  -21.1711  -18.6048    3.7344 C   0  0  0  0  0  0  0  0  0  0  0  0
  -21.6522  -12.7834   -1.1813 C   0  0  0  0  0  0  0  0  0  0  0  0
  -16.3164  -13.0470    0.7064 P   0  0  1  0  0  0  0  0  0  0  0  0
  -17.3547  -15.7638    0.6937 P   0  0  1  0  0  0  0  0  0  0  0  0
  -22.7275  -13.5510    1.4828 C   0  0  0  0  0  0  0  0  0  0  0  0
  -21.7395  -14.9551    3.3382 C   0  0  0  0  0  0  0  0  0  0  0  0
  -22.3072  -14.8868    2.0722 C   0  0  0  0  0  0  0  0  0  0  0  0
  -22.4951  -16.0620    1.3634 C   0  0  0  0  0  0  0  0  0  0  0  0
  -23.0439  -16.0453    0.1245 N   0  0  0  0  0  0  0  0  0  0  0  0
  -22.1264  -17.2395    1.9131 N   0  0  0  0  0  0  0  0  0  0  0  0
  -21.5746  -17.2802    3.1456 C   0  0  0  0  0  0  0  0  0  0  0  0
  -21.3825  -16.1400    3.8530 N   0  0  0  0  0  0  0  0  0  0  0  0
  -15.7325  -12.8474    2.0803 O   0  5  0  0  0  0  0  0  0  0  0  0
  -16.3256  -16.1926    1.6940 O   0  0  0  0  0  0  0  0  0  0  0  0
  -19.6161  -11.1169    1.9096 S   0  0  0  0  0  0  0  0  0  0  0  0
  -20.9308  -12.1265    2.4249 C   0  0  0  0  0  0  0  0  0  0  0  0
  -15.3621  -13.3624   -0.4092 O   0  0  0  0  0  0  0  0  0  0  0  0
  -18.6890  -16.2963    1.0978 O   0  5  0  0  0  0  0  0  0  0  0  0
  -21.5764  -12.6578    1.3500 N   0  0  0  0  0  0  0  0  0  0  0  0
  -17.4963  -14.1531    0.8138 O   0  0  0  0  0  0  0  0  0  0  0  0
  -17.0282  -16.0412   -0.7485 O   0  0  0  0  0  0  0  0  0  0  0  0
  -21.0853  -12.3073    0.1296 C   0  0  1  0  0  0  0  0  0  0  0  0
  -19.9054  -11.4071    0.2395 C   0  0  1  0  0  0  0  0  0  0  0  0
  -18.9957  -10.7304   -0.7512 C   0  0  0  0  0  0  0  0  0  0  0  0
  -17.7629  -11.5975   -0.9525 C   0  0  0  0  0  0  0  0  0  0  0  0
  -17.0808  -11.6949    0.2918 O   0  0  0  0  0  0  0  0  0  0  0  0
  1 11  1  0  0  0  0
  3 13  1  1  0  0  0
  3 17  2  0  0  0  0
  3 20  1  0  0  0  0
  3 26  1  0  0  0  0
  4 14  1  1  0  0  0
  4 18  1  0  0  0  0
  4 21  2  0  0  0  0
  4 20  1  0  0  0  0
  5 19  1  0  0  0  0
  5  7  1  0  0  0  0
  6  7  2  0  0  0  0
  6 12  1  0  0  0  0
  7  8  1  0  0  0  0
  8  9  1  0  0  0  0
  8 10  2  0  0  0  0
 10 11  1  0  0  0  0
 11 12  2  0  0  0  0
 15 23  1  0  0  0  0
 15 16  1  0  0  0  0
 16 19  1  0  0  0  0
 19 22  1  0  0  0  0
 22  2  1  1  0  0  0
 22 23  1  0  0  0  0
 23 24  1  6  0  0  0
 24 25  1  0  0  0  0
 25 26  1  0  0  0  0
M  CHG  2  13  -1  18  -1
M  END
>  <CHROM.1>
-88.10569598,-68.74182920,61.04816343,54.46672567,85.93363403,-62.41649580
145.31226312,-178.51875962,-19.29414150,-14.08769277,1.12635098,-2.50322361
0.17382962,-0.28131550

>  <Name>
ligand

>  <RI>
0

>  <Rbt.Current_Directory>
/home/itssahil/PROJECTS/Mol_Feturizer/New_Systems/rnas/2GDI

>  <Rbt.Executable>
rbdock ($Id: //depot/dev/client3/rdock/2013.1/src/exe/rbdock.cxx#4 $)

>  <Rbt.Library>
libRbt.so (2013.1, Build901 2013/11/27)

>  <Rbt.Parameter_File>
/export/apps/rDock/src/rDock_2013.1_src/data/scripts/dock_solv.prm

>  <Rbt.Receptor>
prm/pocket_docking_6.prm

>  <SCORE>
-10.9111

>  <SCORE.INTER>
-11.0112

>  <SCORE.INTER.CONST>
1

>  <SCORE.INTER.POLAR>
0

>  <SCORE.INTER.ROT>
8

>  <SCORE.INTER.SOLV>
15.1647

>  <SCORE.INTER.VDW>
-21.329

>  <SCORE.INTER.norm>
-0.423508

>  <SCORE.INTRA>
0.100074

>  <SCORE.INTRA.DIHEDRAL>
2.26782

>  <SCORE.INTRA.DIHEDRAL.0>
8.13976

>  <SCORE.INTRA.POLAR>
0

>  <SCORE.INTRA.POLAR.0>
0

>  <SCORE.INTRA.REPUL>
0

>  <SCORE.INTRA.REPUL.0>
0

>  <SCORE.INTRA.SOLV>
1.96866

>  <SCORE.INTRA.SOLV.lig_0>
-82.9561

>  <SCORE.INTRA.VDW>
-2.01817

>  <SCORE.INTRA.VDW.0>
-3.29171

>  <SCORE.INTRA.norm>
0.00384901

>  <SCORE.RESTR>
0

>  <SCORE.RESTR.CAVITY>
0

>  <SCORE.RESTR.norm>
0

>  <SCORE.SYSTEM>
0

>  <SCORE.SYSTEM.CONST>
0

>  <SCORE.SYSTEM.DIHEDRAL>
0

>  <SCORE.SYSTEM.SOLV>
0

>  <SCORE.SYSTEM.norm>
0

>  <SCORE.heavy>
26

>  <SCORE.norm>
-0.419659

>  <RMSD>
7.509

$$$$
ligand
 OpenBabel11021811433D
libRbt.so/2013.1/901 2013/11/27
 26 27  0  0  0  0  0  0  0  0999 V2000
  -22.2195  -12.7363    9.2112 C   0  0  0  0  0  0  0  0  0  0  0  0
  -25.1860  -10.8444    2.7365 C   0  0  0  0  0  0  0  0  0  0  0  0
  -25.3374  -15.7840    3.0471 P   0  0  1  0  0  0  0  0  0  0  0  0
  -22.9671  -16.2597    4.6638 P   0  0  1  0  0  0  0  0  0  0  0  0
  -22.6945  -10.0500    4.1524 C   0  0  0  0  0  0  0  0  0  0  0  0
  -22.6856  -12.1401    5.5743 C   0  0  0  0  0  0  0  0  0  0  0  0
  -22.5789  -10.7575    5.4920 C   0  0  0  0  0  0  0  0  0  0  0  0
  -22.3515  -10.0378    6.6536 C   0  0  0  0  0  0  0  0  0  0  0  0
  -22.2414   -8.6875    6.6233 N   0  0  0  0  0  0  0  0  0  0  0  0
  -22.2384  -10.6894    7.8314 N   0  0  0  0  0  0  0  0  0  0  0  0
  -22.3476  -12.0349    7.8862 C   0  0  0  0  0  0  0  0  0  0  0  0
  -22.5711  -12.7549    6.7597 N   0  0  0  0  0  0  0  0  0  0  0  0
  -26.3038  -16.6804    2.3183 O   0  5  0  0  0  0  0  0  0  0  0  0
  -22.4407  -14.9399    4.1898 O   0  0  0  0  0  0  0  0  0  0  0  0
  -21.8687  -12.6922    1.3021 S   0  0  0  0  0  0  0  0  0  0  0  0
  -21.5304  -11.6051    2.6124 C   0  0  0  0  0  0  0  0  0  0  0  0
  -25.9018  -14.8709    4.0971 O   0  0  0  0  0  0  0  0  0  0  0  0
  -23.6565  -16.0751    5.9745 O   0  5  0  0  0  0  0  0  0  0  0  0
  -22.6761  -11.0152    3.0531 N   0  0  0  0  0  0  0  0  0  0  0  0
  -24.1399  -16.7037    3.6362 O   0  0  0  0  0  0  0  0  0  0  0  0
  -21.9813  -17.3961    4.6781 O   0  0  0  0  0  0  0  0  0  0  0  0
  -23.8175  -11.3778    2.4058 C   0  0  1  0  0  0  0  0  0  0  0  0
  -23.5596  -12.3814    1.3378 C   0  0  1  0  0  0  0  0  0  0  0  0
  -24.4209  -13.1078    0.3391 C   0  0  0  0  0  0  0  0  0  0  0  0
  -25.3791  -14.0174    1.0919 C   0  0  0  0  0  0  0  0  0  0  0  0
  -24.6151  -14.8462    1.9594 O   0  0  0  0  0  0  0  0  0  0  0  0
  1 11  1  0  0  0  0
  3 13  1  6  0  0  0
  3 17  2  0  0  0  0
  3 20  1  0  0  0  0
  3 26  1  0  0  0  0
  4 14  1  6  0  0  0
  4 18  1  0  0  0  0
  4 21  2  0  0  0  0
  4 20  1  0  0  0  0
  5 19  1  0  0  0  0
  5  7  1  0  0  0  0
  6  7  2  0  0  0  0
  6 12  1  0  0  0  0
  7  8  1  0  0  0  0
  8  9  1  0  0  0  0
  8 10  2  0  0  0  0
 10 11  1  0  0  0  0
 11 12  2  0  0  0  0
 15 23  1  0  0  0  0
 15 16  1  0  0  0  0
 16 19  1  0  0  0  0
 19 22  1  0  0  0  0
 22  2  1  1  0  0  0
 22 23  1  0  0  0  0
 23 24  1  6  0  0  0
 24 25  1  0  0  0  0
 25 26  1  0  0  0  0
M  CHG  2  13  -1  18  -1
M  END
>  <CHROM.1>
-170.80682163,-77.41678415,-10.17476132,-45.06153029,116.41025533,-53.85185969
171.49403203,56.56387638,-23.42192827,-13.45772355,4.04529235,-0.19394564
1.21838105,2.42396216

>  <Name>
ligand

>  <RI>
0

>  <Rbt.Current_Directory>
/home/itssahil/PROJECTS/Mol_Feturizer/New_Systems/rnas/2GDI

>  <Rbt.Executable>
rbdock ($Id: //depot/dev/client3/rdock/2013.1/src/exe/rbdock.cxx#4 $)

>  <Rbt.Library>
libRbt.so (2013.1, Build901 2013/11/27)

>  <Rbt.Parameter_File>
/export/apps/rDock/src/rDock_2013.1_src/data/scripts/dock_solv.prm

>  <Rbt.Receptor>
prm/pocket_docking_8.prm

>  <SCORE>
-15.0285

>  <SCORE.INTER>
-11.9596

>  <SCORE.INTER.CONST>
1

>  <SCORE.INTER.POLAR>
0

>  <SCORE.INTER.ROT>
8

>  <SCORE.INTER.SOLV>
19.0411

>  <SCORE.INTER.VDW>
-23.2534

>  <SCORE.INTER.norm>
-0.459984

>  <SCORE.INTRA>
-3.0803

>  <SCORE.INTRA.DIHEDRAL>
-2.35313

>  <SCORE.INTRA.DIHEDRAL.0>
8.13976

>  <SCORE.INTRA.POLAR>
0

>  <SCORE.INTRA.POLAR.0>
0

>  <SCORE.INTRA.REPUL>
0

>  <SCORE.INTRA.REPUL.0>
0

>  <SCORE.INTRA.SOLV>
-0.311033

>  <SCORE.INTRA.SOLV.lig_0>
-82.9561

>  <SCORE.INTRA.VDW>
-1.74822

>  <SCORE.INTRA.VDW.0>
-3.29171

>  <SCORE.INTRA.norm>
-0.118473

>  <SCORE.RESTR>
0.0114179

>  <SCORE.RESTR.CAVITY>
0.0114179

>  <SCORE.RESTR.norm>
0.000439152

>  <SCORE.SYSTEM>
0

>  <SCORE.SYSTEM.CONST>
0

>  <SCORE.SYSTEM.DIHEDRAL>
0

>  <SCORE.SYSTEM.SOLV>
0

>  <SCORE.SYSTEM.norm>
0

>  <SCORE.heavy>
26

>  <SCORE.norm>
-0.578018

>  <RMSD>
7.545

$$$$
ligand
 OpenBabel11021811433D
libRbt.so/2013.1/901 2013/11/27
 26 27  0  0  0  0  0  0  0  0999 V2000
  -22.1798   -7.1205    5.0165 C   0  0  0  0  0  0  0  0  0  0  0  0
  -24.4469  -15.3453    5.7320 C   0  0  0  0  0  0  0  0  0  0  0  0
  -23.8947  -18.6016    2.7239 P   0  0  1  0  0  0  0  0  0  0  0  0
  -23.5229  -18.8233   -0.1521 P   0  0  1  0  0  0  0  0  0  0  0  0
  -22.9414  -12.8062    5.3722 C   0  0  0  0  0  0  0  0  0  0  0  0
  -22.2769  -10.7210    4.1070 C   0  0  0  0  0  0  0  0  0  0  0  0
  -22.7309  -11.3042    5.2833 C   0  0  0  0  0  0  0  0  0  0  0  0
  -23.0007  -10.4875    6.3692 C   0  0  0  0  0  0  0  0  0  0  0  0
  -23.4443  -11.0107    7.5380 N   0  0  0  0  0  0  0  0  0  0  0  0
  -22.8193   -9.1533    6.2627 N   0  0  0  0  0  0  0  0  0  0  0  0
  -22.3752   -8.6097    5.1084 C   0  0  0  0  0  0  0  0  0  0  0  0
  -22.1051   -9.3937    4.0361 N   0  0  0  0  0  0  0  0  0  0  0  0
  -24.7868  -19.8149    2.7016 O   0  5  0  0  0  0  0  0  0  0  0  0
  -22.3086  -19.0122   -1.0084 O   0  0  0  0  0  0  0  0  0  0  0  0
  -25.4665  -13.3426    2.3517 S   0  0  0  0  0  0  0  0  0  0  0  0
  -24.2437  -12.5334    3.2807 C   0  0  0  0  0  0  0  0  0  0  0  0
  -23.0439  -18.3938    3.9437 O   0  0  0  0  0  0  0  0  0  0  0  0
  -24.3012  -20.0960   -0.1101 O   0  5  0  0  0  0  0  0  0  0  0  0
  -23.9413  -13.2480    4.4000 N   0  0  0  0  0  0  0  0  0  0  0  0
  -23.0059  -18.6019    1.3686 O   0  0  0  0  0  0  0  0  0  0  0  0
  -24.3771  -17.6275   -0.4739 O   0  0  0  0  0  0  0  0  0  0  0  0
  -24.6298  -14.4106    4.5660 C   0  0  1  0  0  0  0  0  0  0  0  0
  -25.5783  -14.6632    3.4475 C   0  0  1  0  0  0  0  0  0  0  0  0
  -26.5621  -15.7553    3.1216 C   0  0  0  0  0  0  0  0  0  0  0  0
  -25.9302  -17.0970    3.4576 C   0  0  0  0  0  0  0  0  0  0  0  0
  -24.8265  -17.2991    2.5835 O   0  0  0  0  0  0  0  0  0  0  0  0
  1 11  1  0  0  0  0
  3 13  1  1  0  0  0
  3 17  2  0  0  0  0
  3 20  1  0  0  0  0
  3 26  1  0  0  0  0
  4 14  1  6  0  0  0
  4 18  1  0  0  0  0
  4 21  2  0  0  0  0
  4 20  1  0  0  0  0
  5 19  1  0  0  0  0
  5  7  1  0  0  0  0
  6  7  2  0  0  0  0
  6 12  1  0  0  0  0
  7  8  1  0  0  0  0
  8  9  1  0  0  0  0
  8 10  2  0  0  0  0
 10 11  1  0  0  0  0
 11 12  2  0  0  0  0
 15 23  1  0  0  0  0
 15 16  1  0  0  0  0
 16 19  1  0  0  0  0
 19 22  1  0  0  0  0
 22  2  1  6  0  0  0
 22 23  1  0  0  0  0
 23 24  1  1  0  0  0
 24 25  1  0  0  0  0
 25 26  1  0  0  0  0
M  CHG  2  13  -1  18  -1
M  END
>  <CHROM.1>
48.09320151,22.53735009,-60.73070455,-168.72899626,139.96657760,-65.65305954
177.10155632,52.87259513,-23.86897395,-14.94740774,3.17062314,-1.30333055
-1.17094237,-2.44464967

>  <Name>
ligand

>  <RI>
0

>  <Rbt.Current_Directory>
/home/itssahil/PROJECTS/Mol_Feturizer/New_Systems/rnas/2GDI

>  <Rbt.Executable>
rbdock ($Id: //depot/dev/client3/rdock/2013.1/src/exe/rbdock.cxx#4 $)

>  <Rbt.Library>
libRbt.so (2013.1, Build901 2013/11/27)

>  <Rbt.Parameter_File>
/export/apps/rDock/src/rDock_2013.1_src/data/scripts/dock_solv.prm

>  <Rbt.Receptor>
prm/pocket_docking_7.prm

>  <SCORE>
-10.9112

>  <SCORE.INTER>
-11.2473

>  <SCORE.INTER.CONST>
1

>  <SCORE.INTER.POLAR>
0

>  <SCORE.INTER.ROT>
8

>  <SCORE.INTER.SOLV>
17.3357

>  <SCORE.INTER.VDW>
-22.2101

>  <SCORE.INTER.norm>
-0.432589

>  <SCORE.INTRA>
0.336149

>  <SCORE.INTRA.DIHEDRAL>
-2.90127

>  <SCORE.INTRA.DIHEDRAL.0>
8.13976

>  <SCORE.INTRA.POLAR>
0

>  <SCORE.INTRA.POLAR.0>
0

>  <SCORE.INTRA.REPUL>
0

>  <SCORE.INTRA.REPUL.0>
0

>  <SCORE.INTRA.SOLV>
2.25173

>  <SCORE.INTRA.SOLV.lig_0>
-82.9561

>  <SCORE.INTRA.VDW>
0.66092

>  <SCORE.INTRA.VDW.0>
-3.29171

>  <SCORE.INTRA.norm>
0.0129288

>  <SCORE.RESTR>
0

>  <SCORE.RESTR.CAVITY>
0

>  <SCORE.RESTR.norm>
0

>  <SCORE.SYSTEM>
0

>  <SCORE.SYSTEM.CONST>
0

>  <SCORE.SYSTEM.DIHEDRAL>
0

>  <SCORE.SYSTEM.SOLV>
0

>  <SCORE.SYSTEM.norm>
0

>  <SCORE.heavy>
26

>  <SCORE.norm>
-0.41966

>  <RMSD>
7.554

$$$$
ligand
 OpenBabel11021811433D
libRbt.so/2013.1/901 2013/11/27
 26 27  0  0  0  0  0  0  0  0999 V2000
  -19.8493  -18.4207    4.0900 C   0  0  0  0  0  0  0  0  0  0  0  0
  -20.6789  -13.1054   -1.3767 C   0  0  0  0  0  0  0  0  0  0  0  0
  -16.1163  -12.4612    0.7575 P   0  0  1  0  0  0  0  0  0  0  0  0
  -16.2082  -15.3580    0.5144 P   0  0  1  0  0  0  0  0  0  0  0  0
  -22.0098  -13.9931    1.1301 C   0  0  0  0  0  0  0  0  0  0  0  0
  -20.2533  -15.7687    1.5202 C   0  0  0  0  0  0  0  0  0  0  0  0
  -21.4455  -15.1700    1.9077 C   0  0  0  0  0  0  0  0  0  0  0  0
  -22.1025  -15.6586    3.0251 C   0  0  0  0  0  0  0  0  0  0  0  0
  -23.2689  -15.1079    3.4407 N   0  0  0  0  0  0  0  0  0  0  0  0
  -21.5749  -16.6970    3.7090 N   0  0  0  0  0  0  0  0  0  0  0  0
  -20.4148  -17.2638    3.3115 C   0  0  0  0  0  0  0  0  0  0  0  0
  -19.7589  -16.7994    2.2200 N   0  0  0  0  0  0  0  0  0  0  0  0
  -17.1405  -12.3223    1.8530 O   0  5  0  0  0  0  0  0  0  0  0  0
  -17.1476  -15.5365    1.6673 O   0  0  0  0  0  0  0  0  0  0  0  0
  -19.5901  -10.9303    1.8729 S   0  0  0  0  0  0  0  0  0  0  0  0
  -20.7351  -12.1815    2.2427 C   0  0  0  0  0  0  0  0  0  0  0  0
  -14.6708  -12.3384    1.1454 O   0  0  0  0  0  0  0  0  0  0  0  0
  -16.6388  -16.2340   -0.6145 O   0  5  0  0  0  0  0  0  0  0  0  0
  -21.0636  -12.8774    1.1191 N   0  0  0  0  0  0  0  0  0  0  0  0
  -16.4067  -13.8453   -0.0343 O   0  0  0  0  0  0  0  0  0  0  0  0
  -14.7435  -15.4916    0.8306 O   0  0  0  0  0  0  0  0  0  0  0  0
  -20.4551  -12.4721   -0.0294 C   0  0  1  0  0  0  0  0  0  0  0  0
  -19.5239  -11.3348    0.2028 C   0  0  1  0  0  0  0  0  0  0  0  0
  -18.6191  -10.5126   -0.6760 C   0  0  0  0  0  0  0  0  0  0  0  0
  -17.5147  -11.4093   -1.2131 C   0  0  0  0  0  0  0  0  0  0  0  0
  -16.4002  -11.3159   -0.3342 O   0  0  0  0  0  0  0  0  0  0  0  0
  1 11  1  0  0  0  0
  3 13  1  1  0  0  0
  3 17  2  0  0  0  0
  3 20  1  0  0  0  0
  3 26  1  0  0  0  0
  4 14  1  1  0  0  0
  4 18  1  0  0  0  0
  4 21  2  0  0  0  0
  4 20  1  0  0  0  0
  5 19  1  0  0  0  0
  5  7  1  0  0  0  0
  6  7  2  0  0  0  0
  6 12  1  0  0  0  0
  7  8  1  0  0  0  0
  8  9  1  0  0  0  0
  8 10  2  0  0  0  0
 10 11  1  0  0  0  0
 11 12  2  0  0  0  0
 15 23  1  0  0  0  0
 15 16  1  0  0  0  0
 16 19  1  0  0  0  0
 19 22  1  0  0  0  0
 22  2  1  1  0  0  0
 22 23  1  0  0  0  0
 23 24  1  6  0  0  0
 24 25  1  0  0  0  0
 25 26  1  0  0  0  0
M  CHG  2  13  -1  18  -1
M  END
>  <CHROM.1>
-69.22539984,-67.03204761,-59.42920454,63.19967514,115.49868765,-92.93229670
100.51620274,-73.30868886,-18.66107136,-13.87563955,1.18351458,-2.46677065
0.25319608,-0.34611800

>  <Name>
ligand

>  <RI>
0

>  <Rbt.Current_Directory>
/home/itssahil/PROJECTS/Mol_Feturizer/New_Systems/rnas/2GDI

>  <Rbt.Executable>
rbdock ($Id: //depot/dev/client3/rdock/2013.1/src/exe/rbdock.cxx#4 $)

>  <Rbt.Library>
libRbt.so (2013.1, Build901 2013/11/27)

>  <Rbt.Parameter_File>
/export/apps/rDock/src/rDock_2013.1_src/data/scripts/dock_solv.prm

>  <Rbt.Receptor>
prm/pocket_docking_4.prm

>  <SCORE>
-11.4468

>  <SCORE.INTER>
-13.136

>  <SCORE.INTER.CONST>
1

>  <SCORE.INTER.POLAR>
0

>  <SCORE.INTER.ROT>
8

>  <SCORE.INTER.SOLV>
15.6001

>  <SCORE.INTER.VDW>
-22.8907

>  <SCORE.INTER.norm>
-0.505229

>  <SCORE.INTRA>
1.68547

>  <SCORE.INTRA.DIHEDRAL>
5.64718

>  <SCORE.INTRA.DIHEDRAL.0>
8.13976

>  <SCORE.INTRA.POLAR>
0

>  <SCORE.INTRA.POLAR.0>
0

>  <SCORE.INTRA.REPUL>
0

>  <SCORE.INTRA.REPUL.0>
0

>  <SCORE.INTRA.SOLV>
1.63915

>  <SCORE.INTRA.SOLV.lig_0>
-82.9561

>  <SCORE.INTRA.VDW>
-1.9577

>  <SCORE.INTRA.VDW.0>
-3.29171

>  <SCORE.INTRA.norm>
0.0648256

>  <SCORE.RESTR>
0.00367819

>  <SCORE.RESTR.CAVITY>
0.00367819

>  <SCORE.RESTR.norm>
0.000141469

>  <SCORE.SYSTEM>
0

>  <SCORE.SYSTEM.CONST>
0

>  <SCORE.SYSTEM.DIHEDRAL>
0

>  <SCORE.SYSTEM.SOLV>
0

>  <SCORE.SYSTEM.norm>
0

>  <SCORE.heavy>
26

>  <SCORE.norm>
-0.440262

>  <RMSD>
7.559

$$$$
ligand
 OpenBabel11021811433D
libRbt.so/2013.1/901 2013/11/27
 26 27  0  0  0  0  0  0  0  0999 V2000
  -22.3085  -18.5389   -1.6750 C   0  0  0  0  0  0  0  0  0  0  0  0
  -21.4998  -12.5154    2.4067 C   0  0  0  0  0  0  0  0  0  0  0  0
  -16.3366  -13.8150    0.5764 P   0  0  1  0  0  0  0  0  0  0  0  0
  -18.6657  -15.5569    0.5668 P   0  0  1  0  0  0  0  0  0  0  0  0
  -23.0094  -13.0567   -0.0976 C   0  0  0  0  0  0  0  0  0  0  0  0
  -21.9892  -14.8392   -1.5714 C   0  0  0  0  0  0  0  0  0  0  0  0
  -22.8333  -14.5056   -0.5198 C   0  0  0  0  0  0  0  0  0  0  0  0
  -23.5008  -15.5212    0.1450 C   0  0  0  0  0  0  0  0  0  0  0  0
  -24.3355  -15.2445    1.1761 N   0  0  0  0  0  0  0  0  0  0  0  0
  -23.3181  -16.8033   -0.2389 N   0  0  0  0  0  0  0  0  0  0  0  0
  -22.4931  -17.1026   -1.2660 C   0  0  0  0  0  0  0  0  0  0  0  0
  -21.8328  -16.1216   -1.9285 N   0  0  0  0  0  0  0  0  0  0  0  0
  -15.1531  -13.6431    1.4919 O   0  5  0  0  0  0  0  0  0  0  0  0
  -19.4760  -14.3886    0.0956 O   0  0  0  0  0  0  0  0  0  0  0  0
  -19.6406  -11.1171   -0.9197 S   0  0  0  0  0  0  0  0  0  0  0  0
  -21.1489  -11.9051   -1.2623 C   0  0  0  0  0  0  0  0  0  0  0  0
  -16.0536  -14.0580   -0.8781 O   0  0  0  0  0  0  0  0  0  0  0  0
  -18.2274  -16.3619   -0.6109 O   0  5  0  0  0  0  0  0  0  0  0  0
  -21.7272  -12.3526   -0.1134 N   0  0  0  0  0  0  0  0  0  0  0  0
  -17.2951  -14.9644    1.1986 O   0  0  0  0  0  0  0  0  0  0  0  0
  -19.2875  -16.3969    1.6489 O   0  0  0  0  0  0  0  0  0  0  0  0
  -21.0372  -12.1056    1.0339 C   0  0  1  0  0  0  0  0  0  0  0  0
  -19.7728  -11.3641    0.7769 C   0  0  1  0  0  0  0  0  0  0  0  0
  -18.6560  -10.8459    1.6437 C   0  0  0  0  0  0  0  0  0  0  0  0
  -17.6788  -11.9802    1.9096 C   0  0  0  0  0  0  0  0  0  0  0  0
  -17.2235  -12.4766    0.6568 O   0  0  0  0  0  0  0  0  0  0  0  0
  1 11  1  0  0  0  0
  3 13  1  1  0  0  0
  3 17  2  0  0  0  0
  3 20  1  0  0  0  0
  3 26  1  0  0  0  0
  4 14  1  6  0  0  0
  4 18  1  0  0  0  0
  4 21  2  0  0  0  0
  4 20  1  0  0  0  0
  5 19  1  0  0  0  0
  5  7  1  0  0  0  0
  6  7  2  0  0  0  0
  6 12  1  0  0  0  0
  7  8  1  0  0  0  0
  8  9  1  0  0  0  0
  8 10  2  0  0  0  0
 10 11  1  0  0  0  0
 11 12  2  0  0  0  0
 15 23  1  0  0  0  0
 15 16  1  0  0  0  0
 16 19  1  0  0  0  0
 19 22  1  0  0  0  0
 22  2  1  1  0  0  0
 22 23  1  0  0  0  0
 23 24  1  6  0  0  0
 24 25  1  0  0  0  0
 25 26  1  0  0  0  0
M  CHG  2  13  -1  18  -1
M  END
>  <CHROM.1>
-177.64047229,78.16827927,-41.13866518,-45.20557571,-95.61371360,57.02580861
-171.37348216,-53.94974935,-19.79847929,-14.08192630,0.18069639,-2.68597717
-0.13742008,0.16301378

>  <Name>
ligand

>  <RI>
0

>  <Rbt.Current_Directory>
/home/itssahil/PROJECTS/Mol_Feturizer/New_Systems/rnas/2GDI

>  <Rbt.Executable>
rbdock ($Id: //depot/dev/client3/rdock/2013.1/src/exe/rbdock.cxx#4 $)

>  <Rbt.Library>
libRbt.so (2013.1, Build901 2013/11/27)

>  <Rbt.Parameter_File>
/export/apps/rDock/src/rDock_2013.1_src/data/scripts/dock_solv.prm

>  <Rbt.Receptor>
prm/pocket_docking_5.prm

>  <SCORE>
-10.3762

>  <SCORE.INTER>
-5.47226

>  <SCORE.INTER.CONST>
1

>  <SCORE.INTER.POLAR>
0

>  <SCORE.INTER.ROT>
8

>  <SCORE.INTER.SOLV>
12.5545

>  <SCORE.INTER.VDW>
-16.7664

>  <SCORE.INTER.norm>
-0.210472

>  <SCORE.INTRA>
-4.90393

>  <SCORE.INTRA.DIHEDRAL>
-2.64156

>  <SCORE.INTRA.DIHEDRAL.0>
8.13976

>  <SCORE.INTRA.POLAR>
0

>  <SCORE.INTRA.POLAR.0>
0

>  <SCORE.INTRA.REPUL>
0

>  <SCORE.INTRA.REPUL.0>
0

>  <SCORE.INTRA.SOLV>
0.0757914

>  <SCORE.INTRA.SOLV.lig_0>
-82.9561

>  <SCORE.INTRA.VDW>
-3.62105

>  <SCORE.INTRA.VDW.0>
-3.29171

>  <SCORE.INTRA.norm>
-0.188613

>  <SCORE.RESTR>
0

>  <SCORE.RESTR.CAVITY>
0

>  <SCORE.RESTR.norm>
0

>  <SCORE.SYSTEM>
0

>  <SCORE.SYSTEM.CONST>
0

>  <SCORE.SYSTEM.DIHEDRAL>
0

>  <SCORE.SYSTEM.SOLV>
0

>  <SCORE.SYSTEM.norm>
0

>  <SCORE.heavy>
26

>  <SCORE.norm>
-0.399085

>  <RMSD>
7.596

$$$$
ligand
 OpenBabel11021811433D
libRbt.so/2013.1/901 2013/11/27
 26 27  0  0  0  0  0  0  0  0999 V2000
  -21.4206   -6.4883    6.5913 C   0  0  0  0  0  0  0  0  0  0  0  0
  -23.8343  -13.8650    2.7821 C   0  0  0  0  0  0  0  0  0  0  0  0
  -22.4327  -12.9192   -1.4079 P   0  0  1  0  0  0  0  0  0  0  0  0
  -19.7039  -12.1925   -0.7122 P   0  0  1  0  0  0  0  0  0  0  0  0
  -23.1044  -11.5929    4.5564 C   0  0  0  0  0  0  0  0  0  0  0  0
  -22.1885   -9.2584    4.2382 C   0  0  0  0  0  0  0  0  0  0  0  0
  -22.6500  -10.2478    5.0972 C   0  0  0  0  0  0  0  0  0  0  0  0
  -22.7005   -9.9789    6.4551 C   0  0  0  0  0  0  0  0  0  0  0  0
  -23.1422  -10.9130    7.3319 N   0  0  0  0  0  0  0  0  0  0  0  0
  -22.3044   -8.7709    6.9117 N   0  0  0  0  0  0  0  0  0  0  0  0
  -21.8577   -7.8252    6.0566 C   0  0  0  0  0  0  0  0  0  0  0  0
  -21.8005   -8.0714    4.7249 N   0  0  0  0  0  0  0  0  0  0  0  0
  -22.6028  -11.6096   -2.1322 O   0  5  0  0  0  0  0  0  0  0  0  0
  -19.8759  -10.7727   -1.1573 O   0  0  0  0  0  0  0  0  0  0  0  0
  -25.5729  -10.3613    1.6970 S   0  0  0  0  0  0  0  0  0  0  0  0
  -24.5611  -10.2143    3.0997 C   0  0  0  0  0  0  0  0  0  0  0  0
  -22.3229  -14.1609   -2.2451 O   0  0  0  0  0  0  0  0  0  0  0  0
  -18.9870  -12.2169    0.5965 O   0  5  0  0  0  0  0  0  0  0  0  0
  -24.0051  -11.4163    3.4173 N   0  0  0  0  0  0  0  0  0  0  0  0
  -21.1820  -12.7742   -0.3873 O   0  0  0  0  0  0  0  0  0  0  0  0
  -19.1053  -13.1324   -1.7228 O   0  0  0  0  0  0  0  0  0  0  0  0
  -24.3385  -12.4574    2.6059 C   0  0  1  0  0  0  0  0  0  0  0  0
  -25.2508  -12.0397    1.5070 C   0  0  1  0  0  0  0  0  0  0  0  0
  -25.9179  -12.7498    0.3590 C   0  0  0  0  0  0  0  0  0  0  0  0
  -24.9985  -12.6918   -0.8507 C   0  0  0  0  0  0  0  0  0  0  0  0
  -23.7046  -13.1219   -0.4458 O   0  0  0  0  0  0  0  0  0  0  0  0
  1 11  1  0  0  0  0
  3 13  1  6  0  0  0
  3 17  2  0  0  0  0
  3 20  1  0  0  0  0
  3 26  1  0  0  0  0
  4 14  1  6  0  0  0
  4 18  1  0  0  0  0
  4 21  2  0  0  0  0
  4 20  1  0  0  0  0
  5 19  1  0  0  0  0
  5  7  1  0  0  0  0
  6  7  2  0  0  0  0
  6 12  1  0  0  0  0
  7  8  1  0  0  0  0
  8  9  1  0  0  0  0
  8 10  2  0  0  0  0
 10 11  1  0  0  0  0
 11 12  2  0  0  0  0
 15 23  1  0  0  0  0
 15 16  1  0  0  0  0
 16 19  1  0  0  0  0
 19 22  1  0  0  0  0
 22  2  1  6  0  0  0
 22 23  1  0  0  0  0
 23 24  1  1  0  0  0
 24 25  1  0  0  0  0
 25 26  1  0  0  0  0
M  CHG  2  13  -1  18  -1
M  END
>  <CHROM.1>
-48.84859551,-12.87877970,-47.48671464,60.69892959,91.08938622,50.07413499
-168.37246898,36.16915074,-22.59512370,-11.36563301,1.74380461,-1.70089111
-0.21781559,-2.07669558

>  <Name>
ligand

>  <RI>
0

>  <Rbt.Current_Directory>
/home/itssahil/PROJECTS/Mol_Feturizer/New_Systems/rnas/2GDI

>  <Rbt.Executable>
rbdock ($Id: //depot/dev/client3/rdock/2013.1/src/exe/rbdock.cxx#4 $)

>  <Rbt.Library>
libRbt.so (2013.1, Build901 2013/11/27)

>  <Rbt.Parameter_File>
/export/apps/rDock/src/rDock_2013.1_src/data/scripts/dock_solv.prm

>  <Rbt.Receptor>
prm/pocket_docking_8.prm

>  <SCORE>
-19.2927

>  <SCORE.INTER>
-19.7969

>  <SCORE.INTER.CONST>
1

>  <SCORE.INTER.POLAR>
0

>  <SCORE.INTER.ROT>
8

>  <SCORE.INTER.SOLV>
14.2895

>  <SCORE.INTER.VDW>
-26.8944

>  <SCORE.INTER.norm>
-0.761418

>  <SCORE.INTRA>
0.502453

>  <SCORE.INTRA.DIHEDRAL>
-0.673213

>  <SCORE.INTRA.DIHEDRAL.0>
8.13976

>  <SCORE.INTRA.POLAR>
0

>  <SCORE.INTRA.POLAR.0>
0

>  <SCORE.INTRA.REPUL>
0

>  <SCORE.INTRA.REPUL.0>
0

>  <SCORE.INTRA.SOLV>
0.284545

>  <SCORE.INTRA.SOLV.lig_0>
-82.9561

>  <SCORE.INTRA.VDW>
0.696787

>  <SCORE.INTRA.VDW.0>
-3.29171

>  <SCORE.INTRA.norm>
0.0193251

>  <SCORE.RESTR>
0.00174973

>  <SCORE.RESTR.CAVITY>
0.00174973

>  <SCORE.RESTR.norm>
6.72973e-05

>  <SCORE.SYSTEM>
0

>  <SCORE.SYSTEM.CONST>
0

>  <SCORE.SYSTEM.DIHEDRAL>
0

>  <SCORE.SYSTEM.SOLV>
0

>  <SCORE.SYSTEM.norm>
0

>  <SCORE.heavy>
26

>  <SCORE.norm>
-0.742025

>  <RMSD>
7.606

$$$$
ligand
 OpenBabel11021811433D
libRbt.so/2013.1/901 2013/11/27
 26 27  0  0  0  0  0  0  0  0999 V2000
  -23.1374  -11.0291    4.9190 C   0  0  0  0  0  0  0  0  0  0  0  0
  -17.3120  -12.4322    1.9102 C   0  0  0  0  0  0  0  0  0  0  0  0
  -14.0389  -13.4000    0.0877 P   0  0  1  0  0  0  0  0  0  0  0  0
  -14.9217  -15.8967   -1.1149 P   0  0  1  0  0  0  0  0  0  0  0  0
  -19.9132  -12.9397    0.5614 C   0  0  0  0  0  0  0  0  0  0  0  0
  -20.5594  -11.1710    2.2479 C   0  0  0  0  0  0  0  0  0  0  0  0
  -20.7597  -12.4402    1.7201 C   0  0  0  0  0  0  0  0  0  0  0  0
  -21.7553  -13.2363    2.2621 C   0  0  0  0  0  0  0  0  0  0  0  0
  -21.9870  -14.4819    1.7813 N   0  0  0  0  0  0  0  0  0  0  0  0
  -22.5047  -12.7660    3.2829 N   0  0  0  0  0  0  0  0  0  0  0  0
  -22.2898  -11.5285    3.7804 C   0  0  0  0  0  0  0  0  0  0  0  0
  -21.3192  -10.7363    3.2630 N   0  0  0  0  0  0  0  0  0  0  0  0
  -14.6127  -13.9961    1.3462 O   0  5  0  0  0  0  0  0  0  0  0  0
  -13.9333  -16.6179   -0.2509 O   0  0  0  0  0  0  0  0  0  0  0  0
  -17.9895   -9.9686   -1.2439 S   0  0  0  0  0  0  0  0  0  0  0  0
  -19.2810  -11.0956   -0.9696 C   0  0  0  0  0  0  0  0  0  0  0  0
  -12.5668  -13.1041    0.0739 O   0  0  0  0  0  0  0  0  0  0  0  0
  -16.2539  -15.8899   -0.4424 O   0  5  0  0  0  0  0  0  0  0  0  0
  -19.0011  -11.8943    0.0974 N   0  0  0  0  0  0  0  0  0  0  0  0
  -14.4709  -14.3399   -1.1601 O   0  0  0  0  0  0  0  0  0  0  0  0
  -14.9945  -16.3452   -2.5491 O   0  0  0  0  0  0  0  0  0  0  0  0
  -17.8105  -11.6631    0.7158 C   0  0  1  0  0  0  0  0  0  0  0  0
  -17.0600  -10.5446    0.0833 C   0  0  1  0  0  0  0  0  0  0  0  0
  -15.7332   -9.8817    0.3422 C   0  0  0  0  0  0  0  0  0  0  0  0
  -14.7289  -10.9459    0.7558 C   0  0  0  0  0  0  0  0  0  0  0  0
  -14.7924  -12.0072   -0.1890 O   0  0  0  0  0  0  0  0  0  0  0  0
  1 11  1  0  0  0  0
  3 13  1  1  0  0  0
  3 17  2  0  0  0  0
  3 20  1  0  0  0  0
  3 26  1  0  0  0  0
  4 14  1  1  0  0  0
  4 18  1  0  0  0  0
  4 21  2  0  0  0  0
  4 20  1  0  0  0  0
  5 19  1  0  0  0  0
  5  7  1  0  0  0  0
  6  7  2  0  0  0  0
  6 12  1  0  0  0  0
  7  8  1  0  0  0  0
  8  9  1  0  0  0  0
  8 10  2  0  0  0  0
 10 11  1  0  0  0  0
 11 12  2  0  0  0  0
 15 23  1  0  0  0  0
 15 16  1  0  0  0  0
 16 19  1  0  0  0  0
 19 22  1  0  0  0  0
 22  2  1  1  0  0  0
 22 23  1  0  0  0  0
 23 24  1  6  0  0  0
 24 25  1  0  0  0  0
 25 26  1  0  0  0  0
M  CHG  2  13  -1  18  -1
M  END
>  <CHROM.1>
-21.76259792,-97.22746879,-3.54612117,-46.59957999,-141.03464811,49.68129857
-169.64649933,60.69500664,-17.40101375,-12.83860121,0.57309549,2.80091205
0.41560107,0.02310631

>  <Name>
ligand

>  <RI>
0

>  <Rbt.Current_Directory>
/home/itssahil/PROJECTS/Mol_Feturizer/New_Systems/rnas/2GDI

>  <Rbt.Executable>
rbdock ($Id: //depot/dev/client3/rdock/2013.1/src/exe/rbdock.cxx#4 $)

>  <Rbt.Library>
libRbt.so (2013.1, Build901 2013/11/27)

>  <Rbt.Parameter_File>
/export/apps/rDock/src/rDock_2013.1_src/data/scripts/dock_solv.prm

>  <Rbt.Receptor>
prm/pocket_docking_6.prm

>  <SCORE>
-17.2984

>  <SCORE.INTER>
-17.8027

>  <SCORE.INTER.CONST>
1

>  <SCORE.INTER.POLAR>
0

>  <SCORE.INTER.ROT>
8

>  <SCORE.INTER.SOLV>
22.817

>  <SCORE.INTER.VDW>
-28.4075

>  <SCORE.INTER.norm>
-0.684718

>  <SCORE.INTRA>
0.504315

>  <SCORE.INTRA.DIHEDRAL>
-0.249808

>  <SCORE.INTRA.DIHEDRAL.0>
8.13976

>  <SCORE.INTRA.POLAR>
0

>  <SCORE.INTRA.POLAR.0>
0

>  <SCORE.INTRA.REPUL>
0

>  <SCORE.INTRA.REPUL.0>
0

>  <SCORE.INTRA.SOLV>
1.33075

>  <SCORE.INTRA.SOLV.lig_0>
-82.9561

>  <SCORE.INTRA.VDW>
-0.0361574

>  <SCORE.INTRA.VDW.0>
-3.29171

>  <SCORE.INTRA.norm>
0.0193967

>  <SCORE.RESTR>
0

>  <SCORE.RESTR.CAVITY>
0

>  <SCORE.RESTR.norm>
0

>  <SCORE.SYSTEM>
0

>  <SCORE.SYSTEM.CONST>
0

>  <SCORE.SYSTEM.DIHEDRAL>
0

>  <SCORE.SYSTEM.SOLV>
0

>  <SCORE.SYSTEM.norm>
0

>  <SCORE.heavy>
26

>  <SCORE.norm>
-0.665321

>  <RMSD>
7.607

$$$$
ligand
 OpenBabel11021811433D
libRbt.so/2013.1/901 2013/11/27
 26 27  0  0  0  0  0  0  0  0999 V2000
  -22.6193  -10.3669    7.7072 C   0  0  0  0  0  0  0  0  0  0  0  0
  -21.2475  -14.4785    0.8892 C   0  0  0  0  0  0  0  0  0  0  0  0
  -15.2603  -16.0515    0.2479 P   0  0  1  0  0  0  0  0  0  0  0  0
  -16.3297  -16.2538   -2.4492 P   0  0  1  0  0  0  0  0  0  0  0  0
  -22.1282  -11.9627    2.2076 C   0  0  0  0  0  0  0  0  0  0  0  0
  -21.9941  -10.2346    4.0477 C   0  0  0  0  0  0  0  0  0  0  0  0
  -22.2486  -11.5451    3.6634 C   0  0  0  0  0  0  0  0  0  0  0  0
  -22.6273  -12.4604    4.6318 C   0  0  0  0  0  0  0  0  0  0  0  0
  -22.8848  -13.7501    4.3052 N   0  0  0  0  0  0  0  0  0  0  0  0
  -22.7412  -12.0631    5.9178 N   0  0  0  0  0  0  0  0  0  0  0  0
  -22.4868  -10.7832    6.2673 C   0  0  0  0  0  0  0  0  0  0  0  0
  -22.1140   -9.8745    5.3331 N   0  0  0  0  0  0  0  0  0  0  0  0
  -14.4893  -17.3441    0.1922 O   0  5  0  0  0  0  0  0  0  0  0  0
  -17.7257  -16.4423   -1.9399 O   0  0  0  0  0  0  0  0  0  0  0  0
  -18.2130  -11.8618    1.5380 S   0  0  0  0  0  0  0  0  0  0  0  0
  -19.7501  -11.2732    2.0893 C   0  0  0  0  0  0  0  0  0  0  0  0
  -14.7210  -14.9647    1.1326 O   0  0  0  0  0  0  0  0  0  0  0  0
  -16.3414  -15.2698   -3.5712 O   0  5  0  0  0  0  0  0  0  0  0  0
  -20.7285  -12.1891    1.8472 N   0  0  0  0  0  0  0  0  0  0  0  0
  -15.4842  -15.5300   -1.2702 O   0  0  0  0  0  0  0  0  0  0  0  0
  -15.5746  -17.5112   -2.7838 O   0  0  0  0  0  0  0  0  0  0  0  0
  -20.3268  -13.3413    1.2436 C   0  0  1  0  0  0  0  0  0  0  0  0
  -18.8610  -13.3565    0.9875 C   0  0  1  0  0  0  0  0  0  0  0  0
  -17.9065  -14.3407    0.3652 C   0  0  0  0  0  0  0  0  0  0  0  0
  -17.5292  -15.3805    1.4086 C   0  0  0  0  0  0  0  0  0  0  0  0
  -16.7432  -16.3816    0.7737 O   0  0  0  0  0  0  0  0  0  0  0  0
  1 11  1  0  0  0  0
  3 13  1  1  0  0  0
  3 17  2  0  0  0  0
  3 20  1  0  0  0  0
  3 26  1  0  0  0  0
  4 14  1  1  0  0  0
  4 18  1  0  0  0  0
  4 21  2  0  0  0  0
  4 20  1  0  0  0  0
  5 19  1  0  0  0  0
  5  7  1  0  0  0  0
  6  7  2  0  0  0  0
  6 12  1  0  0  0  0
  7  8  1  0  0  0  0
  8  9  1  0  0  0  0
  8 10  2  0  0  0  0
 10 11  1  0  0  0  0
 11 12  2  0  0  0  0
 15 23  1  0  0  0  0
 15 16  1  0  0  0  0
 16 19  1  0  0  0  0
 19 22  1  0  0  0  0
 22  2  1  1  0  0  0
 22 23  1  0  0  0  0
 23 24  1  6  0  0  0
 24 25  1  0  0  0  0
 25 26  1  0  0  0  0
M  CHG  2  13  -1  18  -1
M  END
>  <CHROM.1>
63.72441765,-51.56720374,79.84770622,57.23601128,99.12185552,173.90978430
68.78563795,155.82533302,-18.71302009,-13.91876886,1.35306650,-2.32181021
0.40156253,-1.89440373

>  <Name>
ligand

>  <RI>
0

>  <Rbt.Current_Directory>
/home/itssahil/PROJECTS/Mol_Feturizer/New_Systems/rnas/2GDI

>  <Rbt.Executable>
rbdock ($Id: //depot/dev/client3/rdock/2013.1/src/exe/rbdock.cxx#4 $)

>  <Rbt.Library>
libRbt.so (2013.1, Build901 2013/11/27)

>  <Rbt.Parameter_File>
/export/apps/rDock/src/rDock_2013.1_src/data/scripts/dock_solv.prm

>  <Rbt.Receptor>
prm/pocket_docking_7.prm

>  <SCORE>
-11.8196

>  <SCORE.INTER>
-11.6869

>  <SCORE.INTER.CONST>
1

>  <SCORE.INTER.POLAR>
0

>  <SCORE.INTER.ROT>
8

>  <SCORE.INTER.SOLV>
20.0737

>  <SCORE.INTER.VDW>
-23.4158

>  <SCORE.INTER.norm>
-0.449496

>  <SCORE.INTRA>
-0.132707

>  <SCORE.INTRA.DIHEDRAL>
-1.50755

>  <SCORE.INTRA.DIHEDRAL.0>
8.13976

>  <SCORE.INTRA.POLAR>
0

>  <SCORE.INTRA.POLAR.0>
0

>  <SCORE.INTRA.REPUL>
0

>  <SCORE.INTRA.REPUL.0>
0

>  <SCORE.INTRA.SOLV>
2.0216

>  <SCORE.INTRA.SOLV.lig_0>
-82.9561

>  <SCORE.INTRA.VDW>
-0.38973

>  <SCORE.INTRA.VDW.0>
-3.29171

>  <SCORE.INTRA.norm>
-0.00510411

>  <SCORE.RESTR>
0

>  <SCORE.RESTR.CAVITY>
0

>  <SCORE.RESTR.norm>
0

>  <SCORE.SYSTEM>
0

>  <SCORE.SYSTEM.CONST>
0

>  <SCORE.SYSTEM.DIHEDRAL>
0

>  <SCORE.SYSTEM.SOLV>
0

>  <SCORE.SYSTEM.norm>
0

>  <SCORE.heavy>
26

>  <SCORE.norm>
-0.4546

>  <RMSD>
7.625

$$$$
ligand
 OpenBabel11021811433D
libRbt.so/2013.1/901 2013/11/27
 26 27  0  0  0  0  0  0  0  0999 V2000
  -20.0009  -18.4579    4.2102 C   0  0  0  0  0  0  0  0  0  0  0  0
  -21.1570  -12.7917   -1.3658 C   0  0  0  0  0  0  0  0  0  0  0  0
  -15.7016  -11.9780    0.4832 P   0  0  1  0  0  0  0  0  0  0  0  0
  -16.9048  -14.6041    0.1452 P   0  0  1  0  0  0  0  0  0  0  0  0
  -22.1159  -14.0890    1.1324 C   0  0  0  0  0  0  0  0  0  0  0  0
  -20.4135  -15.9139    1.5347 C   0  0  0  0  0  0  0  0  0  0  0  0
  -21.5640  -15.2503    1.9418 C   0  0  0  0  0  0  0  0  0  0  0  0
  -22.1905  -15.6596    3.1075 C   0  0  0  0  0  0  0  0  0  0  0  0
  -23.3159  -15.0436    3.5440 N   0  0  0  0  0  0  0  0  0  0  0  0
  -21.6740  -16.6856    3.8182 N   0  0  0  0  0  0  0  0  0  0  0  0
  -20.5547  -17.3166    3.4009 C   0  0  0  0  0  0  0  0  0  0  0  0
  -19.9292  -16.9301    2.2622 N   0  0  0  0  0  0  0  0  0  0  0  0
  -15.4689  -12.3631    1.9206 O   0  5  0  0  0  0  0  0  0  0  0  0
  -18.1968  -14.0808    0.6934 O   0  0  0  0  0  0  0  0  0  0  0  0
  -19.6611  -11.0878    2.0011 S   0  0  0  0  0  0  0  0  0  0  0  0
  -20.7259  -12.4196    2.3264 C   0  0  0  0  0  0  0  0  0  0  0  0
  -14.6377  -11.1619   -0.1927 O   0  0  0  0  0  0  0  0  0  0  0  0
  -17.1757  -15.3885   -1.0952 O   0  5  0  0  0  0  0  0  0  0  0  0
  -21.1964  -12.9516    1.1644 N   0  0  0  0  0  0  0  0  0  0  0  0
  -16.0431  -13.3241   -0.3524 O   0  0  0  0  0  0  0  0  0  0  0  0
  -16.0246  -15.3386    1.1193 O   0  0  0  0  0  0  0  0  0  0  0  0
  -20.7583  -12.3586    0.0198 C   0  0  1  0  0  0  0  0  0  0  0  0
  -19.8205  -11.2366    0.2953 C   0  0  1  0  0  0  0  0  0  0  0  0
  -19.0576  -10.2615   -0.5616 C   0  0  0  0  0  0  0  0  0  0  0  0
  -17.6744  -10.8309   -0.8349 C   0  0  0  0  0  0  0  0  0  0  0  0
  -17.0574  -11.1171    0.4144 O   0  0  0  0  0  0  0  0  0  0  0  0
  1 11  1  0  0  0  0
  3 13  1  1  0  0  0
  3 17  2  0  0  0  0
  3 20  1  0  0  0  0
  3 26  1  0  0  0  0
  4 14  1  1  0  0  0
  4 18  1  0  0  0  0
  4 21  2  0  0  0  0
  4 20  1  0  0  0  0
  5 19  1  0  0  0  0
  5  7  1  0  0  0  0
  6  7  2  0  0  0  0
  6 12  1  0  0  0  0
  7  8  1  0  0  0  0
  8  9  1  0  0  0  0
  8 10  2  0  0  0  0
 10 11  1  0  0  0  0
 11 12  2  0  0  0  0
 15 23  1  0  0  0  0
 15 16  1  0  0  0  0
 16 19  1  0  0  0  0
 19 22  1  0  0  0  0
 22  2  1  6  0  0  0
 22 23  1  0  0  0  0
 23 24  1  1  0  0  0
 24 25  1  0  0  0  0
 25 26  1  0  0  0  0
M  CHG  2  13  -1  18  -1
M  END
>  <CHROM.1>
36.81990758,-53.10682136,-66.29804131,50.98478278,88.52647953,-55.44299730
168.63932190,-167.78007225,-18.83588906,-13.60981172,1.11310167,-2.39090591
0.22969546,-0.35487557

>  <Name>
ligand

>  <RI>
0

>  <Rbt.Current_Directory>
/home/itssahil/PROJECTS/Mol_Feturizer/New_Systems/rnas/2GDI

>  <Rbt.Executable>
rbdock ($Id: //depot/dev/client3/rdock/2013.1/src/exe/rbdock.cxx#4 $)

>  <Rbt.Library>
libRbt.so (2013.1, Build901 2013/11/27)

>  <Rbt.Parameter_File>
/export/apps/rDock/src/rDock_2013.1_src/data/scripts/dock_solv.prm

>  <Rbt.Receptor>
prm/pocket_docking_5.prm

>  <SCORE>
-15.3642

>  <SCORE.INTER>
-11.5323

>  <SCORE.INTER.CONST>
1

>  <SCORE.INTER.POLAR>
0

>  <SCORE.INTER.ROT>
8

>  <SCORE.INTER.SOLV>
16.0016

>  <SCORE.INTER.VDW>
-21.9554

>  <SCORE.INTER.norm>
-0.443551

>  <SCORE.INTRA>
-3.8319

>  <SCORE.INTRA.DIHEDRAL>
-1.63974

>  <SCORE.INTRA.DIHEDRAL.0>
8.13976

>  <SCORE.INTRA.POLAR>
0

>  <SCORE.INTRA.POLAR.0>
0

>  <SCORE.INTRA.REPUL>
0

>  <SCORE.INTRA.REPUL.0>
0

>  <SCORE.INTRA.SOLV>
-0.658764

>  <SCORE.INTRA.SOLV.lig_0>
-82.9561

>  <SCORE.INTRA.VDW>
-2.68265

>  <SCORE.INTRA.VDW.0>
-3.29171

>  <SCORE.INTRA.norm>
-0.147381

>  <SCORE.RESTR>
0

>  <SCORE.RESTR.CAVITY>
0

>  <SCORE.RESTR.norm>
0

>  <SCORE.SYSTEM>
0

>  <SCORE.SYSTEM.CONST>
0

>  <SCORE.SYSTEM.DIHEDRAL>
0

>  <SCORE.SYSTEM.SOLV>
0

>  <SCORE.SYSTEM.norm>
0

>  <SCORE.heavy>
26

>  <SCORE.norm>
-0.590932

>  <RMSD>
7.626

$$$$
ligand
 OpenBabel11021811433D
libRbt.so/2013.1/901 2013/11/27
 26 27  0  0  0  0  0  0  0  0999 V2000
  -22.3239   -8.4651    8.5484 C   0  0  0  0  0  0  0  0  0  0  0  0
  -23.1550  -13.4568    1.6512 C   0  0  0  0  0  0  0  0  0  0  0  0
  -25.4802  -13.7564   -3.3381 P   0  0  1  0  0  0  0  0  0  0  0  0
  -23.4968  -15.8304   -3.8104 P   0  0  1  0  0  0  0  0  0  0  0  0
  -22.2028  -11.4754    3.6538 C   0  0  0  0  0  0  0  0  0  0  0  0
  -21.9821   -9.3154    4.9483 C   0  0  0  0  0  0  0  0  0  0  0  0
  -22.2251  -10.6831    4.9500 C   0  0  0  0  0  0  0  0  0  0  0  0
  -22.5016  -11.3078    6.1551 C   0  0  0  0  0  0  0  0  0  0  0  0
  -22.7440  -12.6401    6.2068 N   0  0  0  0  0  0  0  0  0  0  0  0
  -22.5297  -10.5807    7.2931 N   0  0  0  0  0  0  0  0  0  0  0  0
  -22.2883   -9.2518    7.2662 C   0  0  0  0  0  0  0  0  0  0  0  0
  -22.0151   -8.6242    6.0962 N   0  0  0  0  0  0  0  0  0  0  0  0
  -24.5993  -12.6935   -3.9402 O   0  5  0  0  0  0  0  0  0  0  0  0
  -22.4791  -14.8549   -4.3163 O   0  0  0  0  0  0  0  0  0  0  0  0
  -25.6021  -10.2382    2.0101 S   0  0  0  0  0  0  0  0  0  0  0  0
  -24.2215  -10.1651    3.0598 C   0  0  0  0  0  0  0  0  0  0  0  0
  -26.6571  -14.2172   -4.1489 O   0  0  0  0  0  0  0  0  0  0  0  0
  -22.8401  -16.7888   -2.8736 O   0  5  0  0  0  0  0  0  0  0  0  0
  -23.4376  -11.2669    2.8975 N   0  0  0  0  0  0  0  0  0  0  0  0
  -24.5405  -14.9985   -2.8898 O   0  0  0  0  0  0  0  0  0  0  0  0
  -24.3299  -16.5170   -4.8582 O   0  0  0  0  0  0  0  0  0  0  0  0
  -23.8723  -12.1749    1.9810 C   0  0  1  0  0  0  0  0  0  0  0  0
  -25.1371  -11.7454    1.3252 C   0  0  1  0  0  0  0  0  0  0  0  0
  -26.0373  -12.3381    0.2738 C   0  0  0  0  0  0  0  0  0  0  0  0
  -25.1970  -12.6971   -0.9416 C   0  0  0  0  0  0  0  0  0  0  0  0
  -26.0675  -13.1874   -1.9540 O   0  0  0  0  0  0  0  0  0  0  0  0
  1 11  1  0  0  0  0
  3 13  1  6  0  0  0
  3 17  2  0  0  0  0
  3 20  1  0  0  0  0
  3 26  1  0  0  0  0
  4 14  1  6  0  0  0
  4 18  1  0  0  0  0
  4 21  2  0  0  0  0
  4 20  1  0  0  0  0
  5 19  1  0  0  0  0
  5  7  1  0  0  0  0
  6  7  2  0  0  0  0
  6 12  1  0  0  0  0
  7  8  1  0  0  0  0
  8  9  1  0  0  0  0
  8 10  2  0  0  0  0
 10 11  1  0  0  0  0
 11 12  2  0  0  0  0
 15 23  1  0  0  0  0
 15 16  1  0  0  0  0
 16 19  1  0  0  0  0
 19 22  1  0  0  0  0
 22  2  1  6  0  0  0
 22 23  1  0  0  0  0
 23 24  1  1  0  0  0
 24 25  1  0  0  0  0
 25 26  1  0  0  0  0
M  CHG  2  13  -1  18  -1
M  END
>  <CHROM.1>
-55.03066448,23.28779712,-77.51069100,60.04076595,128.81888679,-176.85870963
-175.55801101,-54.55524824,-23.94477121,-12.52537703,0.74161456,-1.36118319
0.67193213,-2.16933747

>  <Name>
ligand

>  <RI>
0

>  <Rbt.Current_Directory>
/home/itssahil/PROJECTS/Mol_Feturizer/New_Systems/rnas/2GDI

>  <Rbt.Executable>
rbdock ($Id: //depot/dev/client3/rdock/2013.1/src/exe/rbdock.cxx#4 $)

>  <Rbt.Library>
libRbt.so (2013.1, Build901 2013/11/27)

>  <Rbt.Parameter_File>
/export/apps/rDock/src/rDock_2013.1_src/data/scripts/dock_solv.prm

>  <Rbt.Receptor>
prm/pocket_docking_8.prm

>  <SCORE>
-17.0394

>  <SCORE.INTER>
-16.093

>  <SCORE.INTER.CONST>
1

>  <SCORE.INTER.POLAR>
0

>  <SCORE.INTER.ROT>
8

>  <SCORE.INTER.SOLV>
16.3119

>  <SCORE.INTER.VDW>
-25.0993

>  <SCORE.INTER.norm>
-0.618962

>  <SCORE.INTRA>
-0.9464

>  <SCORE.INTRA.DIHEDRAL>
-3.23829

>  <SCORE.INTRA.DIHEDRAL.0>
8.13976

>  <SCORE.INTRA.POLAR>
0

>  <SCORE.INTRA.POLAR.0>
0

>  <SCORE.INTRA.REPUL>
0

>  <SCORE.INTRA.REPUL.0>
0

>  <SCORE.INTRA.SOLV>
0.425844

>  <SCORE.INTRA.SOLV.lig_0>
-82.9561

>  <SCORE.INTRA.VDW>
0.459821

>  <SCORE.INTRA.VDW.0>
-3.29171

>  <SCORE.INTRA.norm>
-0.0364

>  <SCORE.RESTR>
0

>  <SCORE.RESTR.CAVITY>
0

>  <SCORE.RESTR.norm>
0

>  <SCORE.SYSTEM>
0

>  <SCORE.SYSTEM.CONST>
0

>  <SCORE.SYSTEM.DIHEDRAL>
0

>  <SCORE.SYSTEM.SOLV>
0

>  <SCORE.SYSTEM.norm>
0

>  <SCORE.heavy>
26

>  <SCORE.norm>
-0.655362

>  <RMSD>
7.648

$$$$
ligand
 OpenBabel11021811433D
libRbt.so/2013.1/901 2013/11/27
 26 27  0  0  0  0  0  0  0  0999 V2000
  -22.6672  -12.8063    8.5647 C   0  0  0  0  0  0  0  0  0  0  0  0
  -22.1336  -12.0795    2.5107 C   0  0  0  0  0  0  0  0  0  0  0  0
  -23.4789  -17.3371    0.7683 P   0  0  1  0  0  0  0  0  0  0  0  0
  -23.3832  -19.8935   -0.6153 P   0  0  1  0  0  0  0  0  0  0  0  0
  -23.5543   -9.7837    3.7574 C   0  0  0  0  0  0  0  0  0  0  0  0
  -22.1475  -10.4324    5.7550 C   0  0  0  0  0  0  0  0  0  0  0  0
  -23.3170  -10.5911    5.0224 C   0  0  0  0  0  0  0  0  0  0  0  0
  -24.2686  -11.4901    5.4754 C   0  0  0  0  0  0  0  0  0  0  0  0
  -25.4244  -11.6799    4.7939 N   0  0  0  0  0  0  0  0  0  0  0  0
  -24.0420  -12.1869    6.6102 N   0  0  0  0  0  0  0  0  0  0  0  0
  -22.8958  -12.0164    7.3046 C   0  0  0  0  0  0  0  0  0  0  0  0
  -21.9533  -11.1418    6.8755 N   0  0  0  0  0  0  0  0  0  0  0  0
  -24.6646  -17.7970    1.5752 O   0  5  0  0  0  0  0  0  0  0  0  0
  -22.5534  -20.3885    0.5293 O   0  0  0  0  0  0  0  0  0  0  0  0
  -25.8863  -11.5385    1.0612 S   0  0  0  0  0  0  0  0  0  0  0  0
  -25.4522  -10.3796    2.2784 C   0  0  0  0  0  0  0  0  0  0  0  0
  -22.1611  -17.2280    1.4799 O   0  0  0  0  0  0  0  0  0  0  0  0
  -24.8091  -20.2738   -0.3931 O   0  5  0  0  0  0  0  0  0  0  0  0
  -24.1869  -10.6078    2.7274 N   0  0  0  0  0  0  0  0  0  0  0  0
  -23.3700  -18.2736   -0.5501 O   0  0  0  0  0  0  0  0  0  0  0  0
  -22.8910  -20.2535   -1.9906 O   0  0  0  0  0  0  0  0  0  0  0  0
  -23.5352  -11.6586    2.1576 C   0  0  1  0  0  0  0  0  0  0  0  0
  -24.3654  -12.3383    1.1265 C   0  0  1  0  0  0  0  0  0  0  0  0
  -24.1603  -13.5172    0.2125 C   0  0  0  0  0  0  0  0  0  0  0  0
  -23.9755  -14.7655    1.0609 C   0  0  0  0  0  0  0  0  0  0  0  0
  -23.8120  -15.8758    0.1870 O   0  0  0  0  0  0  0  0  0  0  0  0
  1 11  1  0  0  0  0
  3 13  1  1  0  0  0
  3 17  2  0  0  0  0
  3 20  1  0  0  0  0
  3 26  1  0  0  0  0
  4 14  1  1  0  0  0
  4 18  1  0  0  0  0
  4 21  2  0  0  0  0
  4 20  1  0  0  0  0
  5 19  1  0  0  0  0
  5  7  1  0  0  0  0
  6  7  2  0  0  0  0
  6 12  1  0  0  0  0
  7  8  1  0  0  0  0
  8  9  1  0  0  0  0
  8 10  2  0  0  0  0
 10 11  1  0  0  0  0
 11 12  2  0  0  0  0
 15 23  1  0  0  0  0
 15 16  1  0  0  0  0
 16 19  1  0  0  0  0
 19 22  1  0  0  0  0
 22  2  1  6  0  0  0
 22 23  1  0  0  0  0
 23 24  1  1  0  0  0
 24 25  1  0  0  0  0
 25 26  1  0  0  0  0
M  CHG  2  13  -1  18  -1
M  END
>  <CHROM.1>
-50.38948770,113.77501143,140.31222749,-40.82733779,-115.55737200,178.74936397
175.18959027,65.51816957,-23.72077041,-14.58256592,2.23124581,-1.62070687
1.15541371,-2.51522743

>  <Name>
ligand

>  <RI>
0

>  <Rbt.Current_Directory>
/home/itssahil/PROJECTS/Mol_Feturizer/New_Systems/rnas/2GDI

>  <Rbt.Executable>
rbdock ($Id: //depot/dev/client3/rdock/2013.1/src/exe/rbdock.cxx#4 $)

>  <Rbt.Library>
libRbt.so (2013.1, Build901 2013/11/27)

>  <Rbt.Parameter_File>
/export/apps/rDock/src/rDock_2013.1_src/data/scripts/dock_solv.prm

>  <Rbt.Receptor>
prm/pocket_docking_8.prm

>  <SCORE>
-12.1883

>  <SCORE.INTER>
-12.5821

>  <SCORE.INTER.CONST>
1

>  <SCORE.INTER.POLAR>
0

>  <SCORE.INTER.ROT>
8

>  <SCORE.INTER.SOLV>
12.0361

>  <SCORE.INTER.VDW>
-21.3335

>  <SCORE.INTER.norm>
-0.483927

>  <SCORE.INTRA>
0.393822

>  <SCORE.INTRA.DIHEDRAL>
-2.6847

>  <SCORE.INTRA.DIHEDRAL.0>
8.13976

>  <SCORE.INTRA.POLAR>
0

>  <SCORE.INTRA.POLAR.0>
0

>  <SCORE.INTRA.REPUL>
0

>  <SCORE.INTRA.REPUL.0>
0

>  <SCORE.INTRA.SOLV>
3.74918

>  <SCORE.INTRA.SOLV.lig_0>
-82.9561

>  <SCORE.INTRA.VDW>
-0.138417

>  <SCORE.INTRA.VDW.0>
-3.29171

>  <SCORE.INTRA.norm>
0.015147

>  <SCORE.RESTR>
0

>  <SCORE.RESTR.CAVITY>
0

>  <SCORE.RESTR.norm>
0

>  <SCORE.SYSTEM>
0

>  <SCORE.SYSTEM.CONST>
0

>  <SCORE.SYSTEM.DIHEDRAL>
0

>  <SCORE.SYSTEM.SOLV>
0

>  <SCORE.SYSTEM.norm>
0

>  <SCORE.heavy>
26

>  <SCORE.norm>
-0.46878

>  <RMSD>
7.662

$$$$
ligand
 OpenBabel11021811433D
libRbt.so/2013.1/901 2013/11/27
 26 27  0  0  0  0  0  0  0  0999 V2000
  -22.5911   -8.8001    4.7332 C   0  0  0  0  0  0  0  0  0  0  0  0
  -22.3906  -15.3215    2.9482 C   0  0  0  0  0  0  0  0  0  0  0  0
  -23.9206  -19.8153    1.3146 P   0  0  1  0  0  0  0  0  0  0  0  0
  -23.7027  -19.5832   -1.5763 P   0  0  1  0  0  0  0  0  0  0  0  0
  -23.7635  -13.2599    1.3026 C   0  0  0  0  0  0  0  0  0  0  0  0
  -22.1876  -11.9173    2.7532 C   0  0  0  0  0  0  0  0  0  0  0  0
  -23.4582  -12.0860    2.2175 C   0  0  0  0  0  0  0  0  0  0  0  0
  -24.4376  -11.1552    2.5232 C   0  0  0  0  0  0  0  0  0  0  0  0
  -25.6919  -11.2784    2.0252 N   0  0  0  0  0  0  0  0  0  0  0  0
  -24.1395  -10.1120    3.3277 N   0  0  0  0  0  0  0  0  0  0  0  0
  -22.8966   -9.9703    3.8380 C   0  0  0  0  0  0  0  0  0  0  0  0
  -21.9263  -10.8720    3.5504 N   0  0  0  0  0  0  0  0  0  0  0  0
  -24.6255  -21.1423    1.4176 O   0  5  0  0  0  0  0  0  0  0  0  0
  -24.3363  -18.6764   -2.5861 O   0  0  0  0  0  0  0  0  0  0  0  0
  -26.4307  -15.7133    2.9317 S   0  0  0  0  0  0  0  0  0  0  0  0
  -25.8718  -14.3763    1.9761 C   0  0  0  0  0  0  0  0  0  0  0  0
  -22.4415  -19.7984    1.5735 O   0  0  0  0  0  0  0  0  0  0  0  0
  -22.2400  -19.2959   -1.5027 O   0  5  0  0  0  0  0  0  0  0  0  0
  -24.5131  -14.2930    2.0175 N   0  0  0  0  0  0  0  0  0  0  0  0
  -24.2830  -19.1599   -0.1227 O   0  0  0  0  0  0  0  0  0  0  0  0
  -24.0022  -21.0497   -1.7272 O   0  0  0  0  0  0  0  0  0  0  0  0
  -23.8831  -15.2362    2.7705 C   0  0  1  0  0  0  0  0  0  0  0  0
  -24.8431  -16.1904    3.3888 C   0  0  1  0  0  0  0  0  0  0  0  0
  -24.7101  -17.3897    4.2894 C   0  0  0  0  0  0  0  0  0  0  0  0
  -23.8939  -18.4518    3.5697 C   0  0  0  0  0  0  0  0  0  0  0  0
  -24.5876  -18.8159    2.3826 O   0  0  0  0  0  0  0  0  0  0  0  0
  1 11  1  0  0  0  0
  3 13  1  1  0  0  0
  3 17  2  0  0  0  0
  3 20  1  0  0  0  0
  3 26  1  0  0  0  0
  4 14  1  6  0  0  0
  4 18  1  0  0  0  0
  4 21  2  0  0  0  0
  4 20  1  0  0  0  0
  5 19  1  0  0  0  0
  5  7  1  0  0  0  0
  6  7  2  0  0  0  0
  6 12  1  0  0  0  0
  7  8  1  0  0  0  0
  8  9  1  0  0  0  0
  8 10  2  0  0  0  0
 10 11  1  0  0  0  0
 11 12  2  0  0  0  0
 15 23  1  0  0  0  0
 15 16  1  0  0  0  0
 16 19  1  0  0  0  0
 19 22  1  0  0  0  0
 22  2  1  6  0  0  0
 22 23  1  0  0  0  0
 23 24  1  1  0  0  0
 24 25  1  0  0  0  0
 25 26  1  0  0  0  0
M  CHG  2  13  -1  18  -1
M  END
>  <CHROM.1>
-75.27295269,95.45486946,103.31461185,-179.69561771,119.63683430,-60.83850621
173.86795781,107.01322450,-24.00244271,-16.08269474,1.69184258,-1.49469025
-1.21578081,-2.69914083

>  <Name>
ligand

>  <RI>
0

>  <Rbt.Current_Directory>
/home/itssahil/PROJECTS/Mol_Feturizer/New_Systems/rnas/2GDI

>  <Rbt.Executable>
rbdock ($Id: //depot/dev/client3/rdock/2013.1/src/exe/rbdock.cxx#4 $)

>  <Rbt.Library>
libRbt.so (2013.1, Build901 2013/11/27)

>  <Rbt.Parameter_File>
/export/apps/rDock/src/rDock_2013.1_src/data/scripts/dock_solv.prm

>  <Rbt.Receptor>
prm/pocket_docking_7.prm

>  <SCORE>
-11.3094

>  <SCORE.INTER>
-11.8395

>  <SCORE.INTER.CONST>
1

>  <SCORE.INTER.POLAR>
0

>  <SCORE.INTER.ROT>
8

>  <SCORE.INTER.SOLV>
23.2671

>  <SCORE.INTER.VDW>
-24.582

>  <SCORE.INTER.norm>
-0.455367

>  <SCORE.INTRA>
0.530095

>  <SCORE.INTRA.DIHEDRAL>
-1.21908

>  <SCORE.INTRA.DIHEDRAL.0>
8.13976

>  <SCORE.INTRA.POLAR>
0

>  <SCORE.INTRA.POLAR.0>
0

>  <SCORE.INTRA.REPUL>
0

>  <SCORE.INTRA.REPUL.0>
0

>  <SCORE.INTRA.SOLV>
3.25265

>  <SCORE.INTRA.SOLV.lig_0>
-82.9561

>  <SCORE.INTRA.VDW>
-0.486693

>  <SCORE.INTRA.VDW.0>
-3.29171

>  <SCORE.INTRA.norm>
0.0203883

>  <SCORE.RESTR>
0

>  <SCORE.RESTR.CAVITY>
0

>  <SCORE.RESTR.norm>
0

>  <SCORE.SYSTEM>
0

>  <SCORE.SYSTEM.CONST>
0

>  <SCORE.SYSTEM.DIHEDRAL>
0

>  <SCORE.SYSTEM.SOLV>
0

>  <SCORE.SYSTEM.norm>
0

>  <SCORE.heavy>
26

>  <SCORE.norm>
-0.434978

>  <RMSD>
7.680

$$$$
ligand
 OpenBabel11021811433D
libRbt.so/2013.1/901 2013/11/27
 26 27  0  0  0  0  0  0  0  0999 V2000
  -22.9891  -14.9950   -7.0860 C   0  0  0  0  0  0  0  0  0  0  0  0
  -24.5202  -13.2516    0.9137 C   0  0  0  0  0  0  0  0  0  0  0  0
  -21.1319  -16.6235    2.0594 P   0  0  1  0  0  0  0  0  0  0  0  0
  -19.9669  -18.3624    4.0788 P   0  0  1  0  0  0  0  0  0  0  0  0
  -24.4102  -12.7086   -2.0080 C   0  0  0  0  0  0  0  0  0  0  0  0
  -24.4940  -12.7538   -4.5341 C   0  0  0  0  0  0  0  0  0  0  0  0
  -24.0420  -13.3204   -3.3491 C   0  0  0  0  0  0  0  0  0  0  0  0
  -23.2377  -14.4464   -3.4148 C   0  0  0  0  0  0  0  0  0  0  0  0
  -22.7737  -15.0349   -2.2858 N   0  0  0  0  0  0  0  0  0  0  0  0
  -22.9119  -14.9648   -4.6188 N   0  0  0  0  0  0  0  0  0  0  0  0
  -23.3653  -14.3967   -5.7576 C   0  0  0  0  0  0  0  0  0  0  0  0
  -24.1541  -13.2953   -5.7121 N   0  0  0  0  0  0  0  0  0  0  0  0
  -20.5648  -17.2825    0.8295 O   0  5  0  0  0  0  0  0  0  0  0  0
  -21.0928  -18.4779    5.0599 O   0  0  0  0  0  0  0  0  0  0  0  0
  -20.8368  -12.1288   -0.3704 S   0  0  0  0  0  0  0  0  0  0  0  0
  -22.0135  -12.1904   -1.6451 C   0  0  0  0  0  0  0  0  0  0  0  0
  -22.5667  -16.9109    2.3962 O   0  0  0  0  0  0  0  0  0  0  0  0
  -20.1264  -19.4007    3.0187 O   0  5  0  0  0  0  0  0  0  0  0  0
  -23.2272  -12.5712   -1.1585 N   0  0  0  0  0  0  0  0  0  0  0  0
  -20.1489  -16.9485    3.3064 O   0  0  0  0  0  0  0  0  0  0  0  0
  -18.5817  -18.3351    4.6650 O   0  0  0  0  0  0  0  0  0  0  0  0
  -23.2790  -12.8202    0.1789 C   0  0  1  0  0  0  0  0  0  0  0  0
  -21.9642  -12.5994    0.8399 C   0  0  1  0  0  0  0  0  0  0  0  0
  -21.4571  -12.7210    2.2524 C   0  0  0  0  0  0  0  0  0  0  0  0
  -21.7012  -14.1413    2.7375 C   0  0  0  0  0  0  0  0  0  0  0  0
  -21.0124  -15.0318    1.8682 O   0  0  0  0  0  0  0  0  0  0  0  0
  1 11  1  0  0  0  0
  3 13  1  6  0  0  0
  3 17  2  0  0  0  0
  3 20  1  0  0  0  0
  3 26  1  0  0  0  0
  4 14  1  1  0  0  0
  4 18  1  0  0  0  0
  4 21  2  0  0  0  0
  4 20  1  0  0  0  0
  5 19  1  0  0  0  0
  5  7  1  0  0  0  0
  6  7  2  0  0  0  0
  6 12  1  0  0  0  0
  7  8  1  0  0  0  0
  8  9  1  0  0  0  0
  8 10  2  0  0  0  0
 10 11  1  0  0  0  0
 11 12  2  0  0  0  0
 15 23  1  0  0  0  0
 15 16  1  0  0  0  0
 16 19  1  0  0  0  0
 19 22  1  0  0  0  0
 22  2  1  1  0  0  0
 22 23  1  0  0  0  0
 23 24  1  6  0  0  0
 24 25  1  0  0  0  0
 25 26  1  0  0  0  0
M  CHG  2  13  -1  18  -1
M  END
>  <CHROM.1>
-72.61111646,39.22601867,-132.11866398,-81.18076810,-121.36908176,59.27353707
-176.67473838,167.35507699,-21.90657210,-15.07256964,0.14404276,-2.91120342
-1.21884968,0.74836607

>  <Name>
ligand

>  <RI>
0

>  <Rbt.Current_Directory>
/home/itssahil/PROJECTS/Mol_Feturizer/New_Systems/rnas/2GDI

>  <Rbt.Executable>
rbdock ($Id: //depot/dev/client3/rdock/2013.1/src/exe/rbdock.cxx#4 $)

>  <Rbt.Library>
libRbt.so (2013.1, Build901 2013/11/27)

>  <Rbt.Parameter_File>
/export/apps/rDock/src/rDock_2013.1_src/data/scripts/dock_solv.prm

>  <Rbt.Receptor>
prm/pocket_docking_7.prm

>  <SCORE>
-14.0439

>  <SCORE.INTER>
-14.5627

>  <SCORE.INTER.CONST>
1

>  <SCORE.INTER.POLAR>
0

>  <SCORE.INTER.ROT>
8

>  <SCORE.INTER.SOLV>
15.4443

>  <SCORE.INTER.VDW>
-23.7899

>  <SCORE.INTER.norm>
-0.560103

>  <SCORE.INTRA>
0.518784

>  <SCORE.INTRA.DIHEDRAL>
-2.11648

>  <SCORE.INTRA.DIHEDRAL.0>
8.13976

>  <SCORE.INTRA.POLAR>
0

>  <SCORE.INTRA.POLAR.0>
0

>  <SCORE.INTRA.REPUL>
0

>  <SCORE.INTRA.REPUL.0>
0

>  <SCORE.INTRA.SOLV>
3.93672

>  <SCORE.INTRA.SOLV.lig_0>
-82.9561

>  <SCORE.INTRA.VDW>
-0.391336

>  <SCORE.INTRA.VDW.0>
-3.29171

>  <SCORE.INTRA.norm>
0.0199532

>  <SCORE.RESTR>
0

>  <SCORE.RESTR.CAVITY>
0

>  <SCORE.RESTR.norm>
0

>  <SCORE.SYSTEM>
0

>  <SCORE.SYSTEM.CONST>
0

>  <SCORE.SYSTEM.DIHEDRAL>
0

>  <SCORE.SYSTEM.SOLV>
0

>  <SCORE.SYSTEM.norm>
0

>  <SCORE.heavy>
26

>  <SCORE.norm>
-0.54015

>  <RMSD>
7.698

$$$$
ligand
 OpenBabel11021811433D
libRbt.so/2013.1/901 2013/11/27
 26 27  0  0  0  0  0  0  0  0999 V2000
  -18.9702  -10.4858    0.4191 C   0  0  0  0  0  0  0  0  0  0  0  0
  -21.9950  -15.4929   -2.8660 C   0  0  0  0  0  0  0  0  0  0  0  0
  -18.8465  -14.7905   -5.8400 P   0  0  1  0  0  0  0  0  0  0  0  0
  -18.2451  -17.1035   -4.1825 P   0  0  1  0  0  0  0  0  0  0  0  0
  -23.5375  -13.5822   -1.1887 C   0  0  0  0  0  0  0  0  0  0  0  0
  -21.6234  -12.0084   -1.6885 C   0  0  0  0  0  0  0  0  0  0  0  0
  -22.3242  -12.7724   -0.7638 C   0  0  0  0  0  0  0  0  0  0  0  0
  -21.9030  -12.7706    0.5558 C   0  0  0  0  0  0  0  0  0  0  0  0
  -22.5540  -13.5012    1.4933 N   0  0  0  0  0  0  0  0  0  0  0  0
  -20.8299  -12.0321    0.9132 N   0  0  0  0  0  0  0  0  0  0  0  0
  -20.1636  -11.2983   -0.0048 C   0  0  0  0  0  0  0  0  0  0  0  0
  -20.5610  -11.2891   -1.3007 N   0  0  0  0  0  0  0  0  0  0  0  0
  -18.4724  -13.8134   -4.7565 O   0  5  0  0  0  0  0  0  0  0  0  0
  -19.6960  -17.4340   -4.0118 O   0  0  0  0  0  0  0  0  0  0  0  0
  -24.3976  -13.0387   -5.0296 S   0  0  0  0  0  0  0  0  0  0  0  0
  -24.4898  -12.7495   -3.3205 C   0  0  0  0  0  0  0  0  0  0  0  0
  -18.6278  -14.3602   -7.2619 O   0  0  0  0  0  0  0  0  0  0  0  0
  -17.4859  -18.3520   -4.4858 O   0  5  0  0  0  0  0  0  0  0  0  0
  -23.6656  -13.5983   -2.6459 N   0  0  0  0  0  0  0  0  0  0  0  0
  -18.1146  -16.2016   -5.5235 O   0  0  0  0  0  0  0  0  0  0  0  0
  -17.6192  -16.2935   -3.0800 O   0  0  0  0  0  0  0  0  0  0  0  0
  -22.9588  -14.4737   -3.4125 C   0  0  1  0  0  0  0  0  0  0  0  0
  -23.2362  -14.2960   -4.8637 C   0  0  1  0  0  0  0  0  0  0  0  0
  -22.7539  -14.9670   -6.1223 C   0  0  0  0  0  0  0  0  0  0  0  0
  -21.3784  -14.4199   -6.4702 C   0  0  0  0  0  0  0  0  0  0  0  0
  -20.4135  -15.1178   -5.6924 O   0  0  0  0  0  0  0  0  0  0  0  0
  1 11  1  0  0  0  0
  3 13  1  1  0  0  0
  3 17  2  0  0  0  0
  3 20  1  0  0  0  0
  3 26  1  0  0  0  0
  4 14  1  1  0  0  0
  4 18  1  0  0  0  0
  4 21  2  0  0  0  0
  4 20  1  0  0  0  0
  5 19  1  0  0  0  0
  5  7  1  0  0  0  0
  6  7  2  0  0  0  0
  6 12  1  0  0  0  0
  7  8  1  0  0  0  0
  8  9  1  0  0  0  0
  8 10  2  0  0  0  0
 10 11  1  0  0  0  0
 11 12  2  0  0  0  0
 15 23  1  0  0  0  0
 15 16  1  0  0  0  0
 16 19  1  0  0  0  0
 19 22  1  0  0  0  0
 22  2  1  6  0  0  0
 22 23  1  0  0  0  0
 23 24  1  1  0  0  0
 24 25  1  0  0  0  0
 25 26  1  0  0  0  0
M  CHG  2  13  -1  18  -1
M  END
>  <CHROM.1>
57.52342503,-97.17945646,9.48174152,57.88370950,102.21086139,82.26111020
179.07129284,96.03919514,-20.78189026,-14.28773493,-3.44870659,-2.15221685
0.38314295,-2.02957505

>  <Name>
ligand

>  <RI>
0

>  <Rbt.Current_Directory>
/home/itssahil/PROJECTS/Mol_Feturizer/New_Systems/rnas/2GDI

>  <Rbt.Executable>
rbdock ($Id: //depot/dev/client3/rdock/2013.1/src/exe/rbdock.cxx#4 $)

>  <Rbt.Library>
libRbt.so (2013.1, Build901 2013/11/27)

>  <Rbt.Parameter_File>
/export/apps/rDock/src/rDock_2013.1_src/data/scripts/dock_solv.prm

>  <Rbt.Receptor>
prm/pocket_docking_7.prm

>  <SCORE>
-9.47212

>  <SCORE.INTER>
-8.48979

>  <SCORE.INTER.CONST>
1

>  <SCORE.INTER.POLAR>
0

>  <SCORE.INTER.ROT>
8

>  <SCORE.INTER.SOLV>
6.86138

>  <SCORE.INTER.VDW>
-16.8803

>  <SCORE.INTER.norm>
-0.32653

>  <SCORE.INTRA>
-0.982332

>  <SCORE.INTRA.DIHEDRAL>
-0.320301

>  <SCORE.INTRA.DIHEDRAL.0>
8.13976

>  <SCORE.INTRA.POLAR>
0

>  <SCORE.INTRA.POLAR.0>
0

>  <SCORE.INTRA.REPUL>
0

>  <SCORE.INTRA.REPUL.0>
0

>  <SCORE.INTRA.SOLV>
0.114161

>  <SCORE.INTRA.SOLV.lig_0>
-82.9561

>  <SCORE.INTRA.VDW>
-0.879262

>  <SCORE.INTRA.VDW.0>
-3.29171

>  <SCORE.INTRA.norm>
-0.037782

>  <SCORE.RESTR>
0

>  <SCORE.RESTR.CAVITY>
0

>  <SCORE.RESTR.norm>
0

>  <SCORE.SYSTEM>
0

>  <SCORE.SYSTEM.CONST>
0

>  <SCORE.SYSTEM.DIHEDRAL>
0

>  <SCORE.SYSTEM.SOLV>
0

>  <SCORE.SYSTEM.norm>
0

>  <SCORE.heavy>
26

>  <SCORE.norm>
-0.364312

>  <RMSD>
7.710

$$$$
ligand
 OpenBabel11021811433D
libRbt.so/2013.1/901 2013/11/27
 26 27  0  0  0  0  0  0  0  0999 V2000
  -17.6300  -15.7798    1.0226 C   0  0  0  0  0  0  0  0  0  0  0  0
  -24.0332  -16.1303    0.4346 C   0  0  0  0  0  0  0  0  0  0  0  0
  -25.7267  -12.6374    4.3140 P   0  0  1  0  0  0  0  0  0  0  0  0
  -25.5086  -11.4181    1.6826 P   0  0  1  0  0  0  0  0  0  0  0  0
  -22.5125  -18.6606    0.0766 C   0  0  0  0  0  0  0  0  0  0  0  0
  -21.0048  -17.2467    1.5318 C   0  0  0  0  0  0  0  0  0  0  0  0
  -21.2256  -17.8910    0.3211 C   0  0  0  0  0  0  0  0  0  0  0  0
  -20.2435  -17.8291   -0.6539 C   0  0  0  0  0  0  0  0  0  0  0  0
  -20.4142  -18.4408   -1.8510 N   0  0  0  0  0  0  0  0  0  0  0  0
  -19.1015  -17.1506   -0.4091 N   0  0  0  0  0  0  0  0  0  0  0  0
  -18.9105  -16.5305    0.7759 C   0  0  0  0  0  0  0  0  0  0  0  0
  -19.8612  -16.5797    1.7409 N   0  0  0  0  0  0  0  0  0  0  0  0
  -24.2276  -12.4950    4.2847 O   0  5  0  0  0  0  0  0  0  0  0  0
  -26.3740  -11.6699    0.4862 O   0  0  0  0  0  0  0  0  0  0  0  0
  -24.8310  -18.8980    3.2946 S   0  0  0  0  0  0  0  0  0  0  0  0
  -23.6740  -19.4442    2.1215 C   0  0  0  0  0  0  0  0  0  0  0  0
  -26.4390  -12.1759    5.5527 O   0  0  0  0  0  0  0  0  0  0  0  0
  -25.3600   -9.9469    1.8844 O   0  5  0  0  0  0  0  0  0  0  0  0
  -23.4449  -18.4784    1.1891 N   0  0  0  0  0  0  0  0  0  0  0  0
  -26.3279  -11.9354    2.9826 O   0  0  0  0  0  0  0  0  0  0  0  0
  -24.1926  -12.1466    1.7095 O   0  0  0  0  0  0  0  0  0  0  0  0
  -24.1404  -17.3194    1.3516 C   0  0  1  0  0  0  0  0  0  0  0  0
  -25.0123  -17.3551    2.5571 C   0  0  1  0  0  0  0  0  0  0  0  0
  -25.9700  -16.3865    3.1985 C   0  0  0  0  0  0  0  0  0  0  0  0
  -25.3081  -15.0192    3.2666 C   0  0  0  0  0  0  0  0  0  0  0  0
  -26.0799  -14.1951    4.1316 O   0  0  0  0  0  0  0  0  0  0  0  0
  1 11  1  0  0  0  0
  3 13  1  1  0  0  0
  3 17  2  0  0  0  0
  3 20  1  0  0  0  0
  3 26  1  0  0  0  0
  4 14  1  6  0  0  0
  4 18  1  0  0  0  0
  4 21  2  0  0  0  0
  4 20  1  0  0  0  0
  5 19  1  0  0  0  0
  5  7  1  0  0  0  0
  6  7  2  0  0  0  0
  6 12  1  0  0  0  0
  7  8  1  0  0  0  0
  8  9  1  0  0  0  0
  8 10  2  0  0  0  0
 10 11  1  0  0  0  0
 11 12  2  0  0  0  0
 15 23  1  0  0  0  0
 15 16  1  0  0  0  0
 16 19  1  0  0  0  0
 19 22  1  0  0  0  0
 22  2  1  1  0  0  0
 22 23  1  0  0  0  0
 23 24  1  6  0  0  0
 24 25  1  0  0  0  0
 25 26  1  0  0  0  0
M  CHG  2  13  -1  18  -1
M  END
>  <CHROM.1>
11.15255309,-104.74959390,6.07309568,144.64521300,134.94910951,-167.02707196
-174.26437247,-36.80965403,-23.71909831,-15.20663027,2.02520637,-0.77513762
0.53699487,-0.05565541

>  <Name>
ligand

>  <RI>
0

>  <Rbt.Current_Directory>
/home/itssahil/PROJECTS/Mol_Feturizer/New_Systems/rnas/2GDI

>  <Rbt.Executable>
rbdock ($Id: //depot/dev/client3/rdock/2013.1/src/exe/rbdock.cxx#4 $)

>  <Rbt.Library>
libRbt.so (2013.1, Build901 2013/11/27)

>  <Rbt.Parameter_File>
/export/apps/rDock/src/rDock_2013.1_src/data/scripts/dock_solv.prm

>  <Rbt.Receptor>
prm/pocket_docking_6.prm

>  <SCORE>
-9.73905

>  <SCORE.INTER>
-12.0188

>  <SCORE.INTER.CONST>
1

>  <SCORE.INTER.POLAR>
0

>  <SCORE.INTER.ROT>
8

>  <SCORE.INTER.SOLV>
18.4032

>  <SCORE.INTER.VDW>
-23.0803

>  <SCORE.INTER.norm>
-0.462261

>  <SCORE.INTRA>
2.27973

>  <SCORE.INTRA.DIHEDRAL>
1.43633

>  <SCORE.INTRA.DIHEDRAL.0>
8.13976

>  <SCORE.INTRA.POLAR>
0

>  <SCORE.INTRA.POLAR.0>
0

>  <SCORE.INTRA.REPUL>
0

>  <SCORE.INTRA.REPUL.0>
0

>  <SCORE.INTRA.SOLV>
2.29518

>  <SCORE.INTRA.SOLV.lig_0>
-82.9561

>  <SCORE.INTRA.VDW>
0.413978

>  <SCORE.INTRA.VDW.0>
-3.29171

>  <SCORE.INTRA.norm>
0.087682

>  <SCORE.RESTR>
0

>  <SCORE.RESTR.CAVITY>
0

>  <SCORE.RESTR.norm>
0

>  <SCORE.SYSTEM>
0

>  <SCORE.SYSTEM.CONST>
0

>  <SCORE.SYSTEM.DIHEDRAL>
0

>  <SCORE.SYSTEM.SOLV>
0

>  <SCORE.SYSTEM.norm>
0

>  <SCORE.heavy>
26

>  <SCORE.norm>
-0.374579

>  <RMSD>
7.726

$$$$
ligand
 OpenBabel11021811433D
libRbt.so/2013.1/901 2013/11/27
 26 27  0  0  0  0  0  0  0  0999 V2000
  -22.7178  -13.1136    8.8042 C   0  0  0  0  0  0  0  0  0  0  0  0
  -21.9477  -12.5080    2.1802 C   0  0  0  0  0  0  0  0  0  0  0  0
  -21.9043  -13.1199   -1.5862 P   0  0  1  0  0  0  0  0  0  0  0  0
  -21.3438  -14.7765   -3.9100 P   0  0  1  0  0  0  0  0  0  0  0  0
  -22.5774  -10.1513    3.8809 C   0  0  0  0  0  0  0  0  0  0  0  0
  -22.8589  -12.3002    5.1822 C   0  0  0  0  0  0  0  0  0  0  0  0
  -22.6243  -10.9309    5.1841 C   0  0  0  0  0  0  0  0  0  0  0  0
  -22.4206  -10.2929    6.3967 C   0  0  0  0  0  0  0  0  0  0  0  0
  -22.1894   -8.9586    6.4489 N   0  0  0  0  0  0  0  0  0  0  0  0
  -22.4532  -11.0088    7.5416 N   0  0  0  0  0  0  0  0  0  0  0  0
  -22.6848  -12.3395    7.5142 C   0  0  0  0  0  0  0  0  0  0  0  0
  -22.8873  -12.9800    6.3369 N   0  0  0  0  0  0  0  0  0  0  0  0
  -21.9939  -14.2293   -0.5714 O   0  5  0  0  0  0  0  0  0  0  0  0
  -19.9888  -14.1588   -4.0717 O   0  0  0  0  0  0  0  0  0  0  0  0
  -25.6685  -11.0173    1.5395 S   0  0  0  0  0  0  0  0  0  0  0  0
  -24.7830  -10.1428    2.7496 C   0  0  0  0  0  0  0  0  0  0  0  0
  -20.6421  -12.3068   -1.6089 O   0  0  0  0  0  0  0  0  0  0  0  0
  -21.2332  -15.9938   -3.0537 O   0  5  0  0  0  0  0  0  0  0  0  0
  -23.5455  -10.6846    2.9226 N   0  0  0  0  0  0  0  0  0  0  0  0
  -22.2417  -13.7400   -3.0451 O   0  0  0  0  0  0  0  0  0  0  0  0
  -22.1111  -15.0244   -5.1800 O   0  0  0  0  0  0  0  0  0  0  0  0
  -23.2559  -11.7637    2.1447 C   0  0  1  0  0  0  0  0  0  0  0  0
  -24.3808  -12.1161    1.2365 C   0  0  1  0  0  0  0  0  0  0  0  0
  -24.6067  -13.1819    0.1973 C   0  0  0  0  0  0  0  0  0  0  0  0
  -24.4475  -12.5602   -1.1813 C   0  0  0  0  0  0  0  0  0  0  0  0
  -23.1096  -12.0937   -1.3060 O   0  0  0  0  0  0  0  0  0  0  0  0
  1 11  1  0  0  0  0
  3 13  1  1  0  0  0
  3 17  2  0  0  0  0
  3 20  1  0  0  0  0
  3 26  1  0  0  0  0
  4 14  1  6  0  0  0
  4 18  1  0  0  0  0
  4 21  2  0  0  0  0
  4 20  1  0  0  0  0
  5 19  1  0  0  0  0
  5  7  1  0  0  0  0
  6  7  2  0  0  0  0
  6 12  1  0  0  0  0
  7  8  1  0  0  0  0
  8  9  1  0  0  0  0
  8 10  2  0  0  0  0
 10 11  1  0  0  0  0
 11 12  2  0  0  0  0
 15 23  1  0  0  0  0
 15 16  1  0  0  0  0
 16 19  1  0  0  0  0
 19 22  1  0  0  0  0
 22  2  1  6  0  0  0
 22 23  1  0  0  0  0
 23 24  1  1  0  0  0
 24 25  1  0  0  0  0
 25 26  1  0  0  0  0
M  CHG  2  13  -1  18  -1
M  END
>  <CHROM.1>
-69.09293702,96.84626112,35.77955891,-55.53103441,78.25186902,62.69694618
76.97667028,-51.03774008,-22.69745936,-12.52173168,1.13422855,-1.73434402
0.66097454,-1.77596357

>  <Name>
ligand

>  <RI>
0

>  <Rbt.Current_Directory>
/home/itssahil/PROJECTS/Mol_Feturizer/New_Systems/rnas/2GDI

>  <Rbt.Executable>
rbdock ($Id: //depot/dev/client3/rdock/2013.1/src/exe/rbdock.cxx#4 $)

>  <Rbt.Library>
libRbt.so (2013.1, Build901 2013/11/27)

>  <Rbt.Parameter_File>
/export/apps/rDock/src/rDock_2013.1_src/data/scripts/dock_solv.prm

>  <Rbt.Receptor>
prm/pocket_docking_7.prm

>  <SCORE>
-15.8411

>  <SCORE.INTER>
-16.0673

>  <SCORE.INTER.CONST>
1

>  <SCORE.INTER.POLAR>
0

>  <SCORE.INTER.ROT>
8

>  <SCORE.INTER.SOLV>
15.1073

>  <SCORE.INTER.VDW>
-24.6806

>  <SCORE.INTER.norm>
-0.617973

>  <SCORE.INTRA>
0.216595

>  <SCORE.INTRA.DIHEDRAL>
-1.59695

>  <SCORE.INTRA.DIHEDRAL.0>
8.13976

>  <SCORE.INTRA.POLAR>
0

>  <SCORE.INTRA.POLAR.0>
0

>  <SCORE.INTRA.REPUL>
0

>  <SCORE.INTRA.REPUL.0>
0

>  <SCORE.INTRA.SOLV>
2.6467

>  <SCORE.INTRA.SOLV.lig_0>
-82.9561

>  <SCORE.INTRA.VDW>
-0.308282

>  <SCORE.INTRA.VDW.0>
-3.29171

>  <SCORE.INTRA.norm>
0.00833057

>  <SCORE.RESTR>
0.00963584

>  <SCORE.RESTR.CAVITY>
0.00963584

>  <SCORE.RESTR.norm>
0.000370609

>  <SCORE.SYSTEM>
0

>  <SCORE.SYSTEM.CONST>
0

>  <SCORE.SYSTEM.DIHEDRAL>
0

>  <SCORE.SYSTEM.SOLV>
0

>  <SCORE.SYSTEM.norm>
0

>  <SCORE.heavy>
26

>  <SCORE.norm>
-0.609272

>  <RMSD>
7.751

$$$$
ligand
 OpenBabel11021811433D
libRbt.so/2013.1/901 2013/11/27
 26 27  0  0  0  0  0  0  0  0999 V2000
  -22.3050   -7.5246    4.6280 C   0  0  0  0  0  0  0  0  0  0  0  0
  -24.2818  -15.8517    5.9764 C   0  0  0  0  0  0  0  0  0  0  0  0
  -23.4563  -18.2605    1.4498 P   0  0  1  0  0  0  0  0  0  0  0  0
  -23.7637  -20.1459   -0.7433 P   0  0  1  0  0  0  0  0  0  0  0  0
  -23.1708  -13.1107    5.6667 C   0  0  0  0  0  0  0  0  0  0  0  0
  -22.1688  -11.2238    4.3155 C   0  0  0  0  0  0  0  0  0  0  0  0
  -22.9345  -11.6338    5.3997 C   0  0  0  0  0  0  0  0  0  0  0  0
  -23.4894  -10.6692    6.2246 C   0  0  0  0  0  0  0  0  0  0  0  0
  -24.2427  -11.0208    7.2948 N   0  0  0  0  0  0  0  0  0  0  0  0
  -23.2773   -9.3617    5.9596 N   0  0  0  0  0  0  0  0  0  0  0  0
  -22.5274   -8.9877    4.9000 C   0  0  0  0  0  0  0  0  0  0  0  0
  -21.9758   -9.9180    4.0829 N   0  0  0  0  0  0  0  0  0  0  0  0
  -23.0801  -19.2589    2.5129 O   0  5  0  0  0  0  0  0  0  0  0  0
  -23.5260  -21.4059    0.0310 O   0  0  0  0  0  0  0  0  0  0  0  0
  -25.6532  -13.9298    2.6745 S   0  0  0  0  0  0  0  0  0  0  0  0
  -24.5424  -12.9755    3.6063 C   0  0  0  0  0  0  0  0  0  0  0  0
  -22.3505  -17.4363    0.8559 O   0  0  0  0  0  0  0  0  0  0  0  0
  -24.8943  -20.3561   -1.6946 O   0  5  0  0  0  0  0  0  0  0  0  0
  -24.1156  -13.6679    4.6987 N   0  0  0  0  0  0  0  0  0  0  0  0
  -24.3046  -19.0346    0.3061 O   0  0  0  0  0  0  0  0  0  0  0  0
  -22.5546  -19.5372   -1.3996 O   0  0  0  0  0  0  0  0  0  0  0  0
  -24.6235  -14.9229    4.8418 C   0  0  1  0  0  0  0  0  0  0  0  0
  -25.5481  -15.2814    3.7324 C   0  0  1  0  0  0  0  0  0  0  0  0
  -26.3687  -16.4968    3.3908 C   0  0  0  0  0  0  0  0  0  0  0  0
  -25.4270  -17.6522    3.0904 C   0  0  0  0  0  0  0  0  0  0  0  0
  -24.5091  -17.2281    2.0900 O   0  0  0  0  0  0  0  0  0  0  0  0
  1 11  1  0  0  0  0
  3 13  1  1  0  0  0
  3 17  2  0  0  0  0
  3 20  1  0  0  0  0
  3 26  1  0  0  0  0
  4 14  1  1  0  0  0
  4 18  1  0  0  0  0
  4 21  2  0  0  0  0
  4 20  1  0  0  0  0
  5 19  1  0  0  0  0
  5  7  1  0  0  0  0
  6  7  2  0  0  0  0
  6 12  1  0  0  0  0
  7  8  1  0  0  0  0
  8  9  1  0  0  0  0
  8 10  2  0  0  0  0
 10 11  1  0  0  0  0
 11 12  2  0  0  0  0
 15 23  1  0  0  0  0
 15 16  1  0  0  0  0
 16 19  1  0  0  0  0
 19 22  1  0  0  0  0
 22  2  1  6  0  0  0
 22 23  1  0  0  0  0
 23 24  1  1  0  0  0
 24 25  1  0  0  0  0
 25 26  1  0  0  0  0
M  CHG  2  13  -1  18  -1
M  END
>  <CHROM.1>
-68.90781079,9.02229523,-73.48515163,72.65309122,115.78613864,-53.68787193
-174.50979377,-32.38560904,-23.86907636,-15.40610230,2.83542487,-1.48381941
-0.89786266,-2.55222514

>  <Name>
ligand

>  <RI>
0

>  <Rbt.Current_Directory>
/home/itssahil/PROJECTS/Mol_Feturizer/New_Systems/rnas/2GDI

>  <Rbt.Executable>
rbdock ($Id: //depot/dev/client3/rdock/2013.1/src/exe/rbdock.cxx#4 $)

>  <Rbt.Library>
libRbt.so (2013.1, Build901 2013/11/27)

>  <Rbt.Parameter_File>
/export/apps/rDock/src/rDock_2013.1_src/data/scripts/dock_solv.prm

>  <Rbt.Receptor>
prm/pocket_docking_7.prm

>  <SCORE>
-13.7463

>  <SCORE.INTER>
-13.1568

>  <SCORE.INTER.CONST>
1

>  <SCORE.INTER.POLAR>
0

>  <SCORE.INTER.ROT>
8

>  <SCORE.INTER.SOLV>
12.1938

>  <SCORE.INTER.VDW>
-21.7691

>  <SCORE.INTER.norm>
-0.50603

>  <SCORE.INTRA>
-0.589546

>  <SCORE.INTRA.DIHEDRAL>
-2.25153

>  <SCORE.INTRA.DIHEDRAL.0>
8.13976

>  <SCORE.INTRA.POLAR>
0

>  <SCORE.INTRA.POLAR.0>
0

>  <SCORE.INTRA.REPUL>
0

>  <SCORE.INTRA.REPUL.0>
0

>  <SCORE.INTRA.SOLV>
0.275082

>  <SCORE.INTRA.SOLV.lig_0>
-82.9561

>  <SCORE.INTRA.VDW>
0.398676

>  <SCORE.INTRA.VDW.0>
-3.29171

>  <SCORE.INTRA.norm>
-0.0226749

>  <SCORE.RESTR>
0

>  <SCORE.RESTR.CAVITY>
0

>  <SCORE.RESTR.norm>
0

>  <SCORE.SYSTEM>
0

>  <SCORE.SYSTEM.CONST>
0

>  <SCORE.SYSTEM.DIHEDRAL>
0

>  <SCORE.SYSTEM.SOLV>
0

>  <SCORE.SYSTEM.norm>
0

>  <SCORE.heavy>
26

>  <SCORE.norm>
-0.528705

>  <RMSD>
7.754

$$$$
ligand
 OpenBabel11021811433D
libRbt.so/2013.1/901 2013/11/27
 26 27  0  0  0  0  0  0  0  0999 V2000
  -20.4002  -18.0053    3.5673 C   0  0  0  0  0  0  0  0  0  0  0  0
  -25.2504  -12.5180    0.7006 C   0  0  0  0  0  0  0  0  0  0  0  0
  -23.2825  -14.8955   -5.0108 P   0  0  1  0  0  0  0  0  0  0  0  0
  -20.3745  -14.9123   -4.9654 P   0  0  1  0  0  0  0  0  0  0  0  0
  -22.7478  -12.9262    2.2540 C   0  0  0  0  0  0  0  0  0  0  0  0
  -21.1429  -14.8251    1.7968 C   0  0  0  0  0  0  0  0  0  0  0  0
  -22.1356  -14.2738    2.5971 C   0  0  0  0  0  0  0  0  0  0  0  0
  -22.5467  -14.9706    3.7215 C   0  0  0  0  0  0  0  0  0  0  0  0
  -23.5125  -14.4736    4.5317 N   0  0  0  0  0  0  0  0  0  0  0  0
  -21.9784  -16.1606    4.0144 N   0  0  0  0  0  0  0  0  0  0  0  0
  -21.0158  -16.6771    3.2196 C   0  0  0  0  0  0  0  0  0  0  0  0
  -20.6020  -16.0095    2.1148 N   0  0  0  0  0  0  0  0  0  0  0  0
  -24.3172  -14.7256   -6.0921 O   0  5  0  0  0  0  0  0  0  0  0  0
  -20.4089  -14.1294   -3.6889 O   0  0  0  0  0  0  0  0  0  0  0  0
  -21.9015  -12.3725   -1.5885 S   0  0  0  0  0  0  0  0  0  0  0  0
  -21.5674  -12.6595    0.0906 C   0  0  0  0  0  0  0  0  0  0  0  0
  -23.3633  -16.1356   -4.1680 O   0  0  0  0  0  0  0  0  0  0  0  0
  -20.2918  -16.3686   -4.6501 O   0  5  0  0  0  0  0  0  0  0  0  0
  -22.7237  -12.6987    0.8090 N   0  0  0  0  0  0  0  0  0  0  0  0
  -21.8170  -14.7233   -5.6812 O   0  0  0  0  0  0  0  0  0  0  0  0
  -19.3523  -14.4759   -5.9792 O   0  0  0  0  0  0  0  0  0  0  0  0
  -23.8703  -12.5119    0.0992 C   0  0  1  0  0  0  0  0  0  0  0  0
  -23.6038  -12.3166   -1.3517 C   0  0  1  0  0  0  0  0  0  0  0  0
  -24.4661  -12.0735   -2.5619 C   0  0  0  0  0  0  0  0  0  0  0  0
  -24.6228  -13.3825   -3.3197 C   0  0  0  0  0  0  0  0  0  0  0  0
  -23.4056  -13.6461   -4.0068 O   0  0  0  0  0  0  0  0  0  0  0  0
  1 11  1  0  0  0  0
  3 13  1  6  0  0  0
  3 17  2  0  0  0  0
  3 20  1  0  0  0  0
  3 26  1  0  0  0  0
  4 14  1  1  0  0  0
  4 18  1  0  0  0  0
  4 21  2  0  0  0  0
  4 20  1  0  0  0  0
  5 19  1  0  0  0  0
  5  7  1  0  0  0  0
  6  7  2  0  0  0  0
  6 12  1  0  0  0  0
  7  8  1  0  0  0  0
  8  9  1  0  0  0  0
  8 10  2  0  0  0  0
 10 11  1  0  0  0  0
 11 12  2  0  0  0  0
 15 23  1  0  0  0  0
 15 16  1  0  0  0  0
 16 19  1  0  0  0  0
 19 22  1  0  0  0  0
 22  2  1  6  0  0  0
 22 23  1  0  0  0  0
 23 24  1  1  0  0  0
 24 25  1  0  0  0  0
 25 26  1  0  0  0  0
M  CHG  2  13  -1  18  -1
M  END
>  <CHROM.1>
-175.59173451,-60.42461316,29.56861493,-48.95674312,80.23178648,-75.07124518
-174.58467447,59.13124061,-22.26359492,-14.33450859,-1.46333604,-1.58849450
0.75789232,-1.51622199

>  <Name>
ligand

>  <RI>
0

>  <Rbt.Current_Directory>
/home/itssahil/PROJECTS/Mol_Feturizer/New_Systems/rnas/2GDI

>  <Rbt.Executable>
rbdock ($Id: //depot/dev/client3/rdock/2013.1/src/exe/rbdock.cxx#4 $)

>  <Rbt.Library>
libRbt.so (2013.1, Build901 2013/11/27)

>  <Rbt.Parameter_File>
/export/apps/rDock/src/rDock_2013.1_src/data/scripts/dock_solv.prm

>  <Rbt.Receptor>
prm/pocket_docking_8.prm

>  <SCORE>
-12.1867

>  <SCORE.INTER>
-10.7288

>  <SCORE.INTER.CONST>
1

>  <SCORE.INTER.POLAR>
0

>  <SCORE.INTER.ROT>
8

>  <SCORE.INTER.SOLV>
7.89661

>  <SCORE.INTER.VDW>
-18.7181

>  <SCORE.INTER.norm>
-0.412645

>  <SCORE.INTRA>
-1.45796

>  <SCORE.INTRA.DIHEDRAL>
-1.78845

>  <SCORE.INTRA.DIHEDRAL.0>
8.13976

>  <SCORE.INTRA.POLAR>
0

>  <SCORE.INTRA.POLAR.0>
0

>  <SCORE.INTRA.REPUL>
0

>  <SCORE.INTRA.REPUL.0>
0

>  <SCORE.INTRA.SOLV>
-0.471606

>  <SCORE.INTRA.SOLV.lig_0>
-82.9561

>  <SCORE.INTRA.VDW>
-0.327931

>  <SCORE.INTRA.VDW.0>
-3.29171

>  <SCORE.INTRA.norm>
-0.0560753

>  <SCORE.RESTR>
0

>  <SCORE.RESTR.CAVITY>
0

>  <SCORE.RESTR.norm>
0

>  <SCORE.SYSTEM>
0

>  <SCORE.SYSTEM.CONST>
0

>  <SCORE.SYSTEM.DIHEDRAL>
0

>  <SCORE.SYSTEM.SOLV>
0

>  <SCORE.SYSTEM.norm>
0

>  <SCORE.heavy>
26

>  <SCORE.norm>
-0.468721

>  <RMSD>
7.859

$$$$
ligand
 OpenBabel11021811433D
libRbt.so/2013.1/901 2013/11/27
 26 27  0  0  0  0  0  0  0  0999 V2000
  -22.5064   -9.2348    4.6604 C   0  0  0  0  0  0  0  0  0  0  0  0
  -25.1145  -17.3466    3.0774 C   0  0  0  0  0  0  0  0  0  0  0  0
  -23.8188  -20.3741    0.5036 P   0  0  1  0  0  0  0  0  0  0  0  0
  -24.0940  -20.1762   -2.3850 P   0  0  1  0  0  0  0  0  0  0  0  0
  -24.5518  -14.4369    3.3234 C   0  0  0  0  0  0  0  0  0  0  0  0
  -23.9493  -12.0566    2.7224 C   0  0  0  0  0  0  0  0  0  0  0  0
  -24.0013  -13.0654    3.6759 C   0  0  0  0  0  0  0  0  0  0  0  0
  -23.5537  -12.7922    4.9581 C   0  0  0  0  0  0  0  0  0  0  0  0
  -23.5836  -13.7447    5.9216 N   0  0  0  0  0  0  0  0  0  0  0  0
  -23.0812  -11.5614    5.2523 N   0  0  0  0  0  0  0  0  0  0  0  0
  -23.0391  -10.5970    4.3072 C   0  0  0  0  0  0  0  0  0  0  0  0
  -23.4719  -10.8470    3.0472 N   0  0  0  0  0  0  0  0  0  0  0  0
  -24.7709  -20.2313    1.6619 O   0  5  0  0  0  0  0  0  0  0  0  0
  -22.8238  -19.3885   -2.4841 O   0  0  0  0  0  0  0  0  0  0  0  0
  -21.1494  -16.4790    3.1206 S   0  0  0  0  0  0  0  0  0  0  0  0
  -22.1566  -15.0710    3.2492 C   0  0  0  0  0  0  0  0  0  0  0  0
  -23.0592  -21.6645    0.3906 O   0  0  0  0  0  0  0  0  0  0  0  0
  -23.7899  -21.6277   -2.5512 O   0  5  0  0  0  0  0  0  0  0  0  0
  -23.4728  -15.4203    3.2299 N   0  0  0  0  0  0  0  0  0  0  0  0
  -24.6265  -20.0350   -0.8601 O   0  0  0  0  0  0  0  0  0  0  0  0
  -25.2267  -19.7135   -3.2603 O   0  0  0  0  0  0  0  0  0  0  0  0
  -23.7319  -16.7521    3.1173 C   0  0  1  0  0  0  0  0  0  0  0  0
  -22.4844  -17.5609    3.0548 C   0  0  1  0  0  0  0  0  0  0  0  0
  -22.1822  -19.0307    2.9304 C   0  0  0  0  0  0  0  0  0  0  0  0
  -21.6436  -19.3013    1.5344 C   0  0  0  0  0  0  0  0  0  0  0  0
  -22.7241  -19.2021    0.6148 O   0  0  0  0  0  0  0  0  0  0  0  0
  1 11  1  0  0  0  0
  3 13  1  1  0  0  0
  3 17  2  0  0  0  0
  3 20  1  0  0  0  0
  3 26  1  0  0  0  0
  4 14  1  6  0  0  0
  4 18  1  0  0  0  0
  4 21  2  0  0  0  0
  4 20  1  0  0  0  0
  5 19  1  0  0  0  0
  5  7  1  0  0  0  0
  6  7  2  0  0  0  0
  6 12  1  0  0  0  0
  7  8  1  0  0  0  0
  8  9  1  0  0  0  0
  8 10  2  0  0  0  0
 10 11  1  0  0  0  0
 11 12  2  0  0  0  0
 15 23  1  0  0  0  0
 15 16  1  0  0  0  0
 16 19  1  0  0  0  0
 19 22  1  0  0  0  0
 22  2  1  1  0  0  0
 22 23  1  0  0  0  0
 23 24  1  6  0  0  0
 24 25  1  0  0  0  0
 25 26  1  0  0  0  0
M  CHG  2  13  -1  18  -1
M  END
>  <CHROM.1>
-173.86071320,-9.65102521,107.06985302,-54.80315661,-70.83012779,-72.73176628
-75.27574274,78.14855173,-23.37645946,-16.95621223,1.69574341,1.39843400
-1.18642691,0.41955024

>  <Name>
ligand

>  <RI>
0

>  <Rbt.Current_Directory>
/home/itssahil/PROJECTS/Mol_Feturizer/New_Systems/rnas/2GDI

>  <Rbt.Executable>
rbdock ($Id: //depot/dev/client3/rdock/2013.1/src/exe/rbdock.cxx#4 $)

>  <Rbt.Library>
libRbt.so (2013.1, Build901 2013/11/27)

>  <Rbt.Parameter_File>
/export/apps/rDock/src/rDock_2013.1_src/data/scripts/dock_solv.prm

>  <Rbt.Receptor>
prm/pocket_docking_8.prm

>  <SCORE>
-7.15968

>  <SCORE.INTER>
-8.1644

>  <SCORE.INTER.CONST>
1

>  <SCORE.INTER.POLAR>
0

>  <SCORE.INTER.ROT>
8

>  <SCORE.INTER.SOLV>
21.5155

>  <SCORE.INTER.VDW>
-21.5481

>  <SCORE.INTER.norm>
-0.314015

>  <SCORE.INTRA>
1.00471

>  <SCORE.INTRA.DIHEDRAL>
-0.796141

>  <SCORE.INTRA.DIHEDRAL.0>
8.13976

>  <SCORE.INTRA.POLAR>
0

>  <SCORE.INTRA.POLAR.0>
0

>  <SCORE.INTRA.REPUL>
0

>  <SCORE.INTRA.REPUL.0>
0

>  <SCORE.INTRA.SOLV>
3.16912

>  <SCORE.INTRA.SOLV.lig_0>
-82.9561

>  <SCORE.INTRA.VDW>
-0.181779

>  <SCORE.INTRA.VDW.0>
-3.29171

>  <SCORE.INTRA.norm>
0.0386427

>  <SCORE.RESTR>
0

>  <SCORE.RESTR.CAVITY>
0

>  <SCORE.RESTR.norm>
0

>  <SCORE.SYSTEM>
0

>  <SCORE.SYSTEM.CONST>
0

>  <SCORE.SYSTEM.DIHEDRAL>
0

>  <SCORE.SYSTEM.SOLV>
0

>  <SCORE.SYSTEM.norm>
0

>  <SCORE.heavy>
26

>  <SCORE.norm>
-0.275372

>  <RMSD>
7.871

$$$$
ligand
 OpenBabel11021811433D
libRbt.so/2013.1/901 2013/11/27
 26 27  0  0  0  0  0  0  0  0999 V2000
  -23.1632  -17.0300    7.0047 C   0  0  0  0  0  0  0  0  0  0  0  0
  -24.0502  -13.0581    1.4485 C   0  0  0  0  0  0  0  0  0  0  0  0
  -19.5108  -16.1340    0.1817 P   0  0  1  0  0  0  0  0  0  0  0  0
  -19.1032  -18.0935   -1.9286 P   0  0  1  0  0  0  0  0  0  0  0  0
  -23.3921  -12.0391    4.1636 C   0  0  0  0  0  0  0  0  0  0  0  0
  -22.9807  -14.5313    4.2618 C   0  0  0  0  0  0  0  0  0  0  0  0
  -23.3421  -13.3592    4.9140 C   0  0  0  0  0  0  0  0  0  0  0  0
  -23.6428  -13.4156    6.2650 C   0  0  0  0  0  0  0  0  0  0  0  0
  -24.0015  -12.2988    6.9436 N   0  0  0  0  0  0  0  0  0  0  0  0
  -23.5782  -14.5982    6.9146 N   0  0  0  0  0  0  0  0  0  0  0  0
  -23.2258  -15.7251    6.2580 C   0  0  0  0  0  0  0  0  0  0  0  0
  -22.9293  -15.6886    4.9359 N   0  0  0  0  0  0  0  0  0  0  0  0
  -20.4619  -16.8155    1.1301 O   0  5  0  0  0  0  0  0  0  0  0  0
  -19.2437  -19.1722   -0.8988 O   0  0  0  0  0  0  0  0  0  0  0  0
  -20.2484  -11.6708    1.7618 S   0  0  0  0  0  0  0  0  0  0  0  0
  -21.1449  -11.5423    3.2426 C   0  0  0  0  0  0  0  0  0  0  0  0
  -18.0553  -16.1283    0.5505 O   0  0  0  0  0  0  0  0  0  0  0  0
  -19.9631  -18.4176   -3.1045 O   0  5  0  0  0  0  0  0  0  0  0  0
  -22.4094  -12.0212    3.0800 N   0  0  0  0  0  0  0  0  0  0  0  0
  -19.7491  -16.7456   -1.3003 O   0  0  0  0  0  0  0  0  0  0  0  0
  -17.6955  -17.7322   -2.3172 O   0  0  0  0  0  0  0  0  0  0  0  0
  -22.7122  -12.4880    1.8375 C   0  0  1  0  0  0  0  0  0  0  0  0
  -21.5568  -12.3858    0.9052 C   0  0  1  0  0  0  0  0  0  0  0  0
  -21.3311  -12.7372   -0.5414 C   0  0  0  0  0  0  0  0  0  0  0  0
  -21.1440  -14.2420   -0.6541 C   0  0  0  0  0  0  0  0  0  0  0  0
  -19.9598  -14.5961    0.0498 O   0  0  0  0  0  0  0  0  0  0  0  0
  1 11  1  0  0  0  0
  3 13  1  1  0  0  0
  3 17  2  0  0  0  0
  3 20  1  0  0  0  0
  3 26  1  0  0  0  0
  4 14  1  1  0  0  0
  4 18  1  0  0  0  0
  4 21  2  0  0  0  0
  4 20  1  0  0  0  0
  5 19  1  0  0  0  0
  5  7  1  0  0  0  0
  6  7  2  0  0  0  0
  6 12  1  0  0  0  0
  7  8  1  0  0  0  0
  8  9  1  0  0  0  0
  8 10  2  0  0  0  0
 10 11  1  0  0  0  0
 11 12  2  0  0  0  0
 15 23  1  0  0  0  0
 15 16  1  0  0  0  0
 16 19  1  0  0  0  0
 19 22  1  0  0  0  0
 22  2  1  1  0  0  0
 22 23  1  0  0  0  0
 23 24  1  6  0  0  0
 24 25  1  0  0  0  0
 25 26  1  0  0  0  0
M  CHG  2  13  -1  18  -1
M  END
>  <CHROM.1>
-84.60204073,-91.80819455,-30.54389583,46.36016646,104.24627856,-64.13342445
177.16491773,-71.53614720,-21.15300063,-14.90687497,1.71127771,2.94979736
1.08149586,-0.31289734

>  <Name>
ligand

>  <RI>
0

>  <Rbt.Current_Directory>
/home/itssahil/PROJECTS/Mol_Feturizer/New_Systems/rnas/2GDI

>  <Rbt.Executable>
rbdock ($Id: //depot/dev/client3/rdock/2013.1/src/exe/rbdock.cxx#4 $)

>  <Rbt.Library>
libRbt.so (2013.1, Build901 2013/11/27)

>  <Rbt.Parameter_File>
/export/apps/rDock/src/rDock_2013.1_src/data/scripts/dock_solv.prm

>  <Rbt.Receptor>
prm/pocket_docking_6.prm

>  <SCORE>
-9.27929

>  <SCORE.INTER>
-7.57331

>  <SCORE.INTER.CONST>
1

>  <SCORE.INTER.POLAR>
0

>  <SCORE.INTER.ROT>
8

>  <SCORE.INTER.SOLV>
8.58959

>  <SCORE.INTER.VDW>
-16.8454

>  <SCORE.INTER.norm>
-0.291281

>  <SCORE.INTRA>
-1.70598

>  <SCORE.INTRA.DIHEDRAL>
-1.9069

>  <SCORE.INTRA.DIHEDRAL.0>
8.13976

>  <SCORE.INTRA.POLAR>
0

>  <SCORE.INTRA.POLAR.0>
0

>  <SCORE.INTRA.REPUL>
0

>  <SCORE.INTRA.REPUL.0>
0

>  <SCORE.INTRA.SOLV>
-0.516781

>  <SCORE.INTRA.SOLV.lig_0>
-82.9561

>  <SCORE.INTRA.VDW>
-0.494141

>  <SCORE.INTRA.VDW.0>
-3.29171

>  <SCORE.INTRA.norm>
-0.0656147

>  <SCORE.RESTR>
0

>  <SCORE.RESTR.CAVITY>
0

>  <SCORE.RESTR.norm>
0

>  <SCORE.SYSTEM>
0

>  <SCORE.SYSTEM.CONST>
0

>  <SCORE.SYSTEM.DIHEDRAL>
0

>  <SCORE.SYSTEM.SOLV>
0

>  <SCORE.SYSTEM.norm>
0

>  <SCORE.heavy>
26

>  <SCORE.norm>
-0.356896

>  <RMSD>
7.897

$$$$
ligand
 OpenBabel11021811433D
libRbt.so/2013.1/901 2013/11/27
 26 27  0  0  0  0  0  0  0  0999 V2000
  -20.7950  -19.5880    1.8398 C   0  0  0  0  0  0  0  0  0  0  0  0
  -25.5104  -13.5806    4.1784 C   0  0  0  0  0  0  0  0  0  0  0  0
  -25.2654  -12.9204   -1.0444 P   0  0  1  0  0  0  0  0  0  0  0  0
  -23.1563  -14.8225   -0.4177 P   0  0  1  0  0  0  0  0  0  0  0  0
  -23.0533  -15.1625    4.7292 C   0  0  0  0  0  0  0  0  0  0  0  0
  -21.1176  -16.3330    3.6007 C   0  0  0  0  0  0  0  0  0  0  0  0
  -22.4604  -16.3286    3.9564 C   0  0  0  0  0  0  0  0  0  0  0  0
  -23.2451  -17.4146    3.6045 C   0  0  0  0  0  0  0  0  0  0  0  0
  -24.5603  -17.4549    3.9285 N   0  0  0  0  0  0  0  0  0  0  0  0
  -22.6931  -18.4463    2.9295 N   0  0  0  0  0  0  0  0  0  0  0  0
  -21.3848  -18.4267    2.5933 C   0  0  0  0  0  0  0  0  0  0  0  0
  -20.6025  -17.3719    2.9286 N   0  0  0  0  0  0  0  0  0  0  0  0
  -24.7102  -12.2534   -2.2754 O   0  5  0  0  0  0  0  0  0  0  0  0
  -23.1452  -14.6178    1.0660 O   0  0  0  0  0  0  0  0  0  0  0  0
  -22.1705  -11.9866    2.5108 S   0  0  0  0  0  0  0  0  0  0  0  0
  -21.8600  -13.4477    3.3949 C   0  0  0  0  0  0  0  0  0  0  0  0
  -26.7584  -12.9424   -0.8861 O   0  0  0  0  0  0  0  0  0  0  0  0
  -23.0370  -16.2798   -0.7166 O   0  5  0  0  0  0  0  0  0  0  0  0
  -23.0123  -13.9373    3.9309 N   0  0  0  0  0  0  0  0  0  0  0  0
  -24.6323  -14.4092   -0.9464 O   0  0  0  0  0  0  0  0  0  0  0  0
  -22.1876  -13.9841   -1.2063 O   0  0  0  0  0  0  0  0  0  0  0  0
  -24.1380  -13.2140    3.6797 C   0  0  1  0  0  0  0  0  0  0  0  0
  -23.8589  -12.0206    2.8357 C   0  0  1  0  0  0  0  0  0  0  0  0
  -24.6979  -10.9052    2.2710 C   0  0  0  0  0  0  0  0  0  0  0  0
  -25.5384  -11.4568    1.1302 C   0  0  0  0  0  0  0  0  0  0  0  0
  -24.6760  -12.1564    0.2414 O   0  0  0  0  0  0  0  0  0  0  0  0
  1 11  1  0  0  0  0
  3 13  1  6  0  0  0
  3 17  2  0  0  0  0
  3 20  1  0  0  0  0
  3 26  1  0  0  0  0
  4 14  1  1  0  0  0
  4 18  1  0  0  0  0
  4 21  2  0  0  0  0
  4 20  1  0  0  0  0
  5 19  1  0  0  0  0
  5  7  1  0  0  0  0
  6  7  2  0  0  0  0
  6 12  1  0  0  0  0
  7  8  1  0  0  0  0
  8  9  1  0  0  0  0
  8 10  2  0  0  0  0
 10 11  1  0  0  0  0
 11 12  2  0  0  0  0
 15 23  1  0  0  0  0
 15 16  1  0  0  0  0
 16 19  1  0  0  0  0
 19 22  1  0  0  0  0
 22  2  1  6  0  0  0
 22 23  1  0  0  0  0
 23 24  1  1  0  0  0
 24 25  1  0  0  0  0
 25 26  1  0  0  0  0
M  CHG  2  13  -1  18  -1
M  END
>  <CHROM.1>
78.79116702,-55.53106274,64.61721731,71.32797782,108.03520252,-50.86405972
177.25421973,116.03084612,-23.46004567,-14.44961521,1.53145007,-0.15221773
1.12395588,-1.99336714

>  <Name>
ligand

>  <RI>
0

>  <Rbt.Current_Directory>
/home/itssahil/PROJECTS/Mol_Feturizer/New_Systems/rnas/2GDI

>  <Rbt.Executable>
rbdock ($Id: //depot/dev/client3/rdock/2013.1/src/exe/rbdock.cxx#4 $)

>  <Rbt.Library>
libRbt.so (2013.1, Build901 2013/11/27)

>  <Rbt.Parameter_File>
/export/apps/rDock/src/rDock_2013.1_src/data/scripts/dock_solv.prm

>  <Rbt.Receptor>
prm/pocket_docking_6.prm

>  <SCORE>
-10.6589

>  <SCORE.INTER>
-8.27939

>  <SCORE.INTER.CONST>
1

>  <SCORE.INTER.POLAR>
0

>  <SCORE.INTER.ROT>
8

>  <SCORE.INTER.SOLV>
13.1416

>  <SCORE.INTER.VDW>
-18.8335

>  <SCORE.INTER.norm>
-0.318438

>  <SCORE.INTRA>
-2.37946

>  <SCORE.INTRA.DIHEDRAL>
0.129139

>  <SCORE.INTRA.DIHEDRAL.0>
8.13976

>  <SCORE.INTRA.POLAR>
0

>  <SCORE.INTRA.POLAR.0>
0

>  <SCORE.INTRA.REPUL>
0

>  <SCORE.INTRA.REPUL.0>
0

>  <SCORE.INTRA.SOLV>
-0.02642

>  <SCORE.INTRA.SOLV.lig_0>
-82.9561

>  <SCORE.INTRA.VDW>
-2.43082

>  <SCORE.INTRA.VDW.0>
-3.29171

>  <SCORE.INTRA.norm>
-0.0915177

>  <SCORE.RESTR>
0

>  <SCORE.RESTR.CAVITY>
0

>  <SCORE.RESTR.norm>
0

>  <SCORE.SYSTEM>
0

>  <SCORE.SYSTEM.CONST>
0

>  <SCORE.SYSTEM.DIHEDRAL>
0

>  <SCORE.SYSTEM.SOLV>
0

>  <SCORE.SYSTEM.norm>
0

>  <SCORE.heavy>
26

>  <SCORE.norm>
-0.409956

>  <RMSD>
7.934

$$$$
ligand
 OpenBabel11021811433D
libRbt.so/2013.1/901 2013/11/27
 26 27  0  0  0  0  0  0  0  0999 V2000
  -20.9714  -17.8343    3.7599 C   0  0  0  0  0  0  0  0  0  0  0  0
  -21.7221  -12.4715   -1.4711 C   0  0  0  0  0  0  0  0  0  0  0  0
  -24.0354  -14.5423   -6.0497 P   0  0  1  0  0  0  0  0  0  0  0  0
  -23.5180  -17.4032   -5.9715 P   0  0  1  0  0  0  0  0  0  0  0  0
  -21.9219  -12.6398    1.4912 C   0  0  0  0  0  0  0  0  0  0  0  0
  -20.8851  -14.9444    1.4272 C   0  0  0  0  0  0  0  0  0  0  0  0
  -21.6801  -14.0161    2.0875 C   0  0  0  0  0  0  0  0  0  0  0  0
  -22.2370  -14.3653    3.3069 C   0  0  0  0  0  0  0  0  0  0  0  0
  -23.0203  -13.4937    3.9874 N   0  0  0  0  0  0  0  0  0  0  0  0
  -21.9970  -15.5898    3.8243 N   0  0  0  0  0  0  0  0  0  0  0  0
  -21.2216  -16.4761    3.1623 C   0  0  0  0  0  0  0  0  0  0  0  0
  -20.6695  -16.1518    1.9676 N   0  0  0  0  0  0  0  0  0  0  0  0
  -22.6089  -14.1377   -6.3143 O   0  5  0  0  0  0  0  0  0  0  0  0
  -24.1821  -17.5520   -7.3058 O   0  0  0  0  0  0  0  0  0  0  0  0
  -25.5473  -12.7061   -0.1334 S   0  0  0  0  0  0  0  0  0  0  0  0
  -24.3752  -12.7259    1.1468 C   0  0  0  0  0  0  0  0  0  0  0  0
  -24.9906  -14.4983   -7.2074 O   0  0  0  0  0  0  0  0  0  0  0  0
  -22.0491  -17.2268   -6.1674 O   0  5  0  0  0  0  0  0  0  0  0  0
  -23.1130  -12.6447    0.6418 N   0  0  0  0  0  0  0  0  0  0  0  0
  -24.0247  -15.9989   -5.3391 O   0  0  0  0  0  0  0  0  0  0  0  0
  -23.8478  -18.4570   -4.9497 O   0  0  0  0  0  0  0  0  0  0  0  0
  -23.0200  -12.5677   -0.7142 C   0  0  1  0  0  0  0  0  0  0  0  0
  -24.3571  -12.5722   -1.3673 C   0  0  1  0  0  0  0  0  0  0  0  0
  -24.8378  -12.5113   -2.7929 C   0  0  0  0  0  0  0  0  0  0  0  0
  -24.1230  -13.5873   -3.5950 C   0  0  0  0  0  0  0  0  0  0  0  0
  -24.6284  -13.5594   -4.9242 O   0  0  0  0  0  0  0  0  0  0  0  0
  1 11  1  0  0  0  0
  3 13  1  6  0  0  0
  3 17  2  0  0  0  0
  3 20  1  0  0  0  0
  3 26  1  0  0  0  0
  4 14  1  6  0  0  0
  4 18  1  0  0  0  0
  4 21  2  0  0  0  0
  4 20  1  0  0  0  0
  5 19  1  0  0  0  0
  5  7  1  0  0  0  0
  6  7  2  0  0  0  0
  6 12  1  0  0  0  0
  7  8  1  0  0  0  0
  8  9  1  0  0  0  0
  8 10  2  0  0  0  0
 10 11  1  0  0  0  0
 11 12  2  0  0  0  0
 15 23  1  0  0  0  0
 15 16  1  0  0  0  0
 16 19  1  0  0  0  0
 19 22  1  0  0  0  0
 22  2  1  1  0  0  0
 22 23  1  0  0  0  0
 23 24  1  6  0  0  0
 24 25  1  0  0  0  0
 25 26  1  0  0  0  0
M  CHG  2  13  -1  18  -1
M  END
>  <CHROM.1>
-64.67886284,72.00394831,90.50396327,-50.29289126,-126.58580608,177.43369453
177.60540738,-66.61220348,-23.25876624,-14.73366307,-1.98812825,-1.17515529
1.07748030,-2.08245524

>  <Name>
ligand

>  <RI>
0

>  <Rbt.Current_Directory>
/home/itssahil/PROJECTS/Mol_Feturizer/New_Systems/rnas/2GDI

>  <Rbt.Executable>
rbdock ($Id: //depot/dev/client3/rdock/2013.1/src/exe/rbdock.cxx#4 $)

>  <Rbt.Library>
libRbt.so (2013.1, Build901 2013/11/27)

>  <Rbt.Parameter_File>
/export/apps/rDock/src/rDock_2013.1_src/data/scripts/dock_solv.prm

>  <Rbt.Receptor>
prm/pocket_docking_8.prm

>  <SCORE>
-9.24917

>  <SCORE.INTER>
-7.97305

>  <SCORE.INTER.CONST>
1

>  <SCORE.INTER.POLAR>
0

>  <SCORE.INTER.ROT>
8

>  <SCORE.INTER.SOLV>
13.0825

>  <SCORE.INTER.VDW>
-18.6095

>  <SCORE.INTER.norm>
-0.306656

>  <SCORE.INTRA>
-1.27611

>  <SCORE.INTRA.DIHEDRAL>
-3.14245

>  <SCORE.INTRA.DIHEDRAL.0>
8.13976

>  <SCORE.INTRA.POLAR>
0

>  <SCORE.INTRA.POLAR.0>
0

>  <SCORE.INTRA.REPUL>
0

>  <SCORE.INTRA.REPUL.0>
0

>  <SCORE.INTRA.SOLV>
1.10333

>  <SCORE.INTRA.SOLV.lig_0>
-82.9561

>  <SCORE.INTRA.VDW>
-0.256554

>  <SCORE.INTRA.VDW.0>
-3.29171

>  <SCORE.INTRA.norm>
-0.0490813

>  <SCORE.RESTR>
0

>  <SCORE.RESTR.CAVITY>
0

>  <SCORE.RESTR.norm>
0

>  <SCORE.SYSTEM>
0

>  <SCORE.SYSTEM.CONST>
0

>  <SCORE.SYSTEM.DIHEDRAL>
0

>  <SCORE.SYSTEM.SOLV>
0

>  <SCORE.SYSTEM.norm>
0

>  <SCORE.heavy>
26

>  <SCORE.norm>
-0.355737

>  <RMSD>
7.945

$$$$
ligand
 OpenBabel11021811433D
libRbt.so/2013.1/901 2013/11/27
 26 27  0  0  0  0  0  0  0  0999 V2000
  -21.5862   -6.5284    4.4323 C   0  0  0  0  0  0  0  0  0  0  0  0
  -26.2830  -11.7953    4.5872 C   0  0  0  0  0  0  0  0  0  0  0  0
  -25.9948  -13.4762   -0.9943 P   0  0  1  0  0  0  0  0  0  0  0  0
  -25.1666  -14.1934   -3.6884 P   0  0  1  0  0  0  0  0  0  0  0  0
  -24.1228  -11.2304    6.5513 C   0  0  0  0  0  0  0  0  0  0  0  0
  -23.3257   -9.8053    4.6215 C   0  0  0  0  0  0  0  0  0  0  0  0
  -23.4428   -9.9917    5.9931 C   0  0  0  0  0  0  0  0  0  0  0  0
  -22.9393   -9.0193    6.8416 C   0  0  0  0  0  0  0  0  0  0  0  0
  -23.0291   -9.1575    8.1867 N   0  0  0  0  0  0  0  0  0  0  0  0
  -22.3511   -7.9197    6.3225 N   0  0  0  0  0  0  0  0  0  0  0  0
  -22.2476   -7.7618    4.9848 C   0  0  0  0  0  0  0  0  0  0  0  0
  -22.7337   -8.7036    4.1397 N   0  0  0  0  0  0  0  0  0  0  0  0
  -25.1667  -12.2182   -0.9847 O   0  5  0  0  0  0  0  0  0  0  0  0
  -24.6453  -15.4570   -4.3009 O   0  0  0  0  0  0  0  0  0  0  0  0
  -23.1695  -14.3875    4.3352 S   0  0  0  0  0  0  0  0  0  0  0  0
  -22.9560  -13.1837    5.5674 C   0  0  0  0  0  0  0  0  0  0  0  0
  -27.4803  -13.3226   -1.1514 O   0  0  0  0  0  0  0  0  0  0  0  0
  -26.5364  -13.9183   -4.2130 O   0  5  0  0  0  0  0  0  0  0  0  0
  -24.0275  -12.3439    5.6073 N   0  0  0  0  0  0  0  0  0  0  0  0
  -25.3772  -14.4803   -2.1066 O   0  0  0  0  0  0  0  0  0  0  0  0
  -24.2587  -12.9968   -3.7718 O   0  0  0  0  0  0  0  0  0  0  0  0
  -25.0172  -12.6013    4.7086 C   0  0  1  0  0  0  0  0  0  0  0  0
  -24.7115  -13.7886    3.8653 C   0  0  1  0  0  0  0  0  0  0  0  0
  -25.4231  -14.5029    2.7471 C   0  0  0  0  0  0  0  0  0  0  0  0
  -25.6806  -13.5128    1.6221 C   0  0  0  0  0  0  0  0  0  0  0  0
  -25.7545  -14.2381    0.4008 O   0  0  0  0  0  0  0  0  0  0  0  0
  1 11  1  0  0  0  0
  3 13  1  6  0  0  0
  3 17  2  0  0  0  0
  3 20  1  0  0  0  0
  3 26  1  0  0  0  0
  4 14  1  6  0  0  0
  4 18  1  0  0  0  0
  4 21  2  0  0  0  0
  4 20  1  0  0  0  0
  5 19  1  0  0  0  0
  5  7  1  0  0  0  0
  6  7  2  0  0  0  0
  6 12  1  0  0  0  0
  7  8  1  0  0  0  0
  8  9  1  0  0  0  0
  8 10  2  0  0  0  0
 10 11  1  0  0  0  0
 11 12  2  0  0  0  0
 15 23  1  0  0  0  0
 15 16  1  0  0  0  0
 16 19  1  0  0  0  0
 19 22  1  0  0  0  0
 22  2  1  1  0  0  0
 22 23  1  0  0  0  0
 23 24  1  6  0  0  0
 24 25  1  0  0  0  0
 25 26  1  0  0  0  0
M  CHG  2  13  -1  18  -1
M  END
>  <CHROM.1>
-57.62827750,86.26173366,26.30313407,-176.49595561,-121.00107618,153.31815959
-178.94922794,40.96438903,-24.47743219,-12.28666891,1.92185150,-0.79808171
-1.20922491,-1.28902025

>  <Name>
ligand

>  <RI>
0

>  <Rbt.Current_Directory>
/home/itssahil/PROJECTS/Mol_Feturizer/New_Systems/rnas/2GDI

>  <Rbt.Executable>
rbdock ($Id: //depot/dev/client3/rdock/2013.1/src/exe/rbdock.cxx#4 $)

>  <Rbt.Library>
libRbt.so (2013.1, Build901 2013/11/27)

>  <Rbt.Parameter_File>
/export/apps/rDock/src/rDock_2013.1_src/data/scripts/dock_solv.prm

>  <Rbt.Receptor>
prm/blind_docking_80.prm

>  <SCORE>
-10.6895

>  <SCORE.INTER>
-11.5245

>  <SCORE.INTER.CONST>
1

>  <SCORE.INTER.POLAR>
0

>  <SCORE.INTER.ROT>
8

>  <SCORE.INTER.SOLV>
18.7319

>  <SCORE.INTER.VDW>
-22.8603

>  <SCORE.INTER.norm>
-0.443249

>  <SCORE.INTRA>
0.834939

>  <SCORE.INTRA.DIHEDRAL>
-0.40353

>  <SCORE.INTRA.DIHEDRAL.0>
8.13976

>  <SCORE.INTRA.POLAR>
0

>  <SCORE.INTRA.POLAR.0>
0

>  <SCORE.INTRA.REPUL>
0

>  <SCORE.INTRA.REPUL.0>
0

>  <SCORE.INTRA.SOLV>
1.94901

>  <SCORE.INTRA.SOLV.lig_0>
-82.9561

>  <SCORE.INTRA.VDW>
0.0622002

>  <SCORE.INTRA.VDW.0>
-3.29171

>  <SCORE.INTRA.norm>
0.032113

>  <SCORE.RESTR>
0

>  <SCORE.RESTR.CAVITY>
0

>  <SCORE.RESTR.norm>
0

>  <SCORE.SYSTEM>
0

>  <SCORE.SYSTEM.CONST>
0

>  <SCORE.SYSTEM.DIHEDRAL>
0

>  <SCORE.SYSTEM.SOLV>
0

>  <SCORE.SYSTEM.norm>
0

>  <SCORE.heavy>
26

>  <SCORE.norm>
-0.411135

>  <RMSD>
7.949

$$$$
ligand
 OpenBabel11021811433D
libRbt.so/2013.1/901 2013/11/27
 26 27  0  0  0  0  0  0  0  0999 V2000
  -22.4294  -12.9751    8.9648 C   0  0  0  0  0  0  0  0  0  0  0  0
  -21.5874  -12.1427    2.3670 C   0  0  0  0  0  0  0  0  0  0  0  0
  -24.3231  -12.4202   -2.7320 P   0  0  1  0  0  0  0  0  0  0  0  0
  -24.0578  -14.1078   -5.0858 P   0  0  1  0  0  0  0  0  0  0  0  0
  -22.5913   -9.9360    4.0892 C   0  0  0  0  0  0  0  0  0  0  0  0
  -22.6992  -12.1185    5.3601 C   0  0  0  0  0  0  0  0  0  0  0  0
  -22.5585  -10.7366    5.3800 C   0  0  0  0  0  0  0  0  0  0  0  0
  -22.3741  -10.1046    6.5988 C   0  0  0  0  0  0  0  0  0  0  0  0
  -22.2333   -8.7586    6.6685 N   0  0  0  0  0  0  0  0  0  0  0  0
  -22.3345  -10.8383    7.7323 N   0  0  0  0  0  0  0  0  0  0  0  0
  -22.4755  -12.1812    7.6874 C   0  0  0  0  0  0  0  0  0  0  0  0
  -22.6578  -12.8162    6.5038 N   0  0  0  0  0  0  0  0  0  0  0  0
  -24.0177  -10.9762   -2.4318 O   0  5  0  0  0  0  0  0  0  0  0  0
  -23.4575  -13.8865   -6.4401 O   0  0  0  0  0  0  0  0  0  0  0  0
  -25.4699  -11.1947    1.6568 S   0  0  0  0  0  0  0  0  0  0  0  0
  -24.7485  -10.2250    2.9028 C   0  0  0  0  0  0  0  0  0  0  0  0
  -25.6893  -12.9260   -2.3680 O   0  0  0  0  0  0  0  0  0  0  0  0
  -23.1874  -15.0348   -4.3046 O   0  5  0  0  0  0  0  0  0  0  0  0
  -23.4497  -10.5850    3.0983 N   0  0  0  0  0  0  0  0  0  0  0  0
  -23.9799  -12.6963   -4.2918 O   0  0  0  0  0  0  0  0  0  0  0  0
  -25.5069  -14.5116   -5.0649 O   0  0  0  0  0  0  0  0  0  0  0  0
  -22.9887  -11.5952    2.3106 C   0  0  1  0  0  0  0  0  0  0  0  0
  -24.0296  -12.0890    1.3687 C   0  0  1  0  0  0  0  0  0  0  0  0
  -24.0746  -13.1556    0.3070 C   0  0  0  0  0  0  0  0  0  0  0  0
  -22.8710  -12.9853   -0.6066 C   0  0  0  0  0  0  0  0  0  0  0  0
  -23.2660  -13.3273   -1.9295 O   0  0  0  0  0  0  0  0  0  0  0  0
  1 11  1  0  0  0  0
  3 13  1  1  0  0  0
  3 17  2  0  0  0  0
  3 20  1  0  0  0  0
  3 26  1  0  0  0  0
  4 14  1  6  0  0  0
  4 18  1  0  0  0  0
  4 21  2  0  0  0  0
  4 20  1  0  0  0  0
  5 19  1  0  0  0  0
  5  7  1  0  0  0  0
  6  7  2  0  0  0  0
  6 12  1  0  0  0  0
  7  8  1  0  0  0  0
  8  9  1  0  0  0  0
  8 10  2  0  0  0  0
 10 11  1  0  0  0  0
 11 12  2  0  0  0  0
 15 23  1  0  0  0  0
 15 16  1  0  0  0  0
 16 19  1  0  0  0  0
 19 22  1  0  0  0  0
 22  2  1  6  0  0  0
 22 23  1  0  0  0  0
 23 24  1  1  0  0  0
 24 25  1  0  0  0  0
 25 26  1  0  0  0  0
M  CHG  2  13  -1  18  -1
M  END
>  <CHROM.1>
176.37989414,96.60991688,30.77336383,-171.95147816,131.54777824,-144.70008166
67.16460329,39.62758736,-23.60312321,-12.21658764,0.76761425,-1.27567224
1.08238673,-2.05577001

>  <Name>
ligand

>  <RI>
0

>  <Rbt.Current_Directory>
/home/itssahil/PROJECTS/Mol_Feturizer/New_Systems/rnas/2GDI

>  <Rbt.Executable>
rbdock ($Id: //depot/dev/client3/rdock/2013.1/src/exe/rbdock.cxx#4 $)

>  <Rbt.Library>
libRbt.so (2013.1, Build901 2013/11/27)

>  <Rbt.Parameter_File>
/export/apps/rDock/src/rDock_2013.1_src/data/scripts/dock_solv.prm

>  <Rbt.Receptor>
prm/pocket_docking_8.prm

>  <SCORE>
-17.6796

>  <SCORE.INTER>
-19.8108

>  <SCORE.INTER.CONST>
1

>  <SCORE.INTER.POLAR>
0

>  <SCORE.INTER.ROT>
8

>  <SCORE.INTER.SOLV>
20.1724

>  <SCORE.INTER.VDW>
-28.8646

>  <SCORE.INTER.norm>
-0.761953

>  <SCORE.INTRA>
2.12622

>  <SCORE.INTRA.DIHEDRAL>
1.11353

>  <SCORE.INTRA.DIHEDRAL.0>
8.13976

>  <SCORE.INTRA.POLAR>
0

>  <SCORE.INTRA.POLAR.0>
0

>  <SCORE.INTRA.REPUL>
0

>  <SCORE.INTRA.REPUL.0>
0

>  <SCORE.INTRA.SOLV>
2.60357

>  <SCORE.INTRA.SOLV.lig_0>
-82.9561

>  <SCORE.INTRA.VDW>
0.267673

>  <SCORE.INTRA.VDW.0>
-3.29171

>  <SCORE.INTRA.norm>
0.0817778

>  <SCORE.RESTR>
0.00499249

>  <SCORE.RESTR.CAVITY>
0.00499249

>  <SCORE.RESTR.norm>
0.000192019

>  <SCORE.SYSTEM>
0

>  <SCORE.SYSTEM.CONST>
0

>  <SCORE.SYSTEM.DIHEDRAL>
0

>  <SCORE.SYSTEM.SOLV>
0

>  <SCORE.SYSTEM.norm>
0

>  <SCORE.heavy>
26

>  <SCORE.norm>
-0.679983

>  <RMSD>
7.952

$$$$
ligand
 OpenBabel11021811433D
libRbt.so/2013.1/901 2013/11/27
 26 27  0  0  0  0  0  0  0  0999 V2000
  -21.9634   -8.6396    7.6800 C   0  0  0  0  0  0  0  0  0  0  0  0
  -25.8436  -14.6101    2.9139 C   0  0  0  0  0  0  0  0  0  0  0  0
  -22.7086  -14.8500   -0.5529 P   0  0  1  0  0  0  0  0  0  0  0  0
  -20.7067  -12.8223   -1.1357 P   0  0  1  0  0  0  0  0  0  0  0  0
  -25.1587  -12.5747    4.9709 C   0  0  0  0  0  0  0  0  0  0  0  0
  -24.8225  -10.8293    6.7683 C   0  0  0  0  0  0  0  0  0  0  0  0
  -24.3162  -11.5275    5.6794 C   0  0  0  0  0  0  0  0  0  0  0  0
  -23.0231  -11.2597    5.2607 C   0  0  0  0  0  0  0  0  0  0  0  0
  -22.4864  -11.9145    4.2026 N   0  0  0  0  0  0  0  0  0  0  0  0
  -22.2878  -10.3343    5.9145 N   0  0  0  0  0  0  0  0  0  0  0  0
  -22.8030   -9.6670    6.9701 C   0  0  0  0  0  0  0  0  0  0  0  0
  -24.0667   -9.9154    7.3928 N   0  0  0  0  0  0  0  0  0  0  0  0
  -22.6951  -15.1914   -2.0198 O   0  5  0  0  0  0  0  0  0  0  0  0
  -20.2574  -13.4690   -2.4098 O   0  0  0  0  0  0  0  0  0  0  0  0
  -25.5903  -10.8442    1.4203 S   0  0  0  0  0  0  0  0  0  0  0  0
  -25.2760  -10.9236    3.1256 C   0  0  0  0  0  0  0  0  0  0  0  0
  -22.8832  -15.9829    0.4171 O   0  0  0  0  0  0  0  0  0  0  0  0
  -21.8184  -11.8710   -1.4293 O   0  5  0  0  0  0  0  0  0  0  0  0
  -25.3740  -12.2067    3.5714 N   0  0  0  0  0  0  0  0  0  0  0  0
  -21.3809  -13.9807   -0.2234 O   0  0  0  0  0  0  0  0  0  0  0  0
  -19.6239  -12.2107   -0.2891 O   0  0  0  0  0  0  0  0  0  0  0  0
  -25.6876  -13.1397    2.6308 C   0  0  1  0  0  0  0  0  0  0  0  0
  -25.8430  -12.5392    1.2781 C   0  0  1  0  0  0  0  0  0  0  0  0
  -26.1769  -13.0800   -0.0868 C   0  0  0  0  0  0  0  0  0  0  0  0
  -25.2728  -14.2681   -0.3751 C   0  0  0  0  0  0  0  0  0  0  0  0
  -23.9226  -13.8286   -0.2931 O   0  0  0  0  0  0  0  0  0  0  0  0
  1 11  1  0  0  0  0
  3 13  1  6  0  0  0
  3 17  2  0  0  0  0
  3 20  1  0  0  0  0
  3 26  1  0  0  0  0
  4 14  1  6  0  0  0
  4 18  1  0  0  0  0
  4 21  2  0  0  0  0
  4 20  1  0  0  0  0
  5 19  1  0  0  0  0
  5  7  1  0  0  0  0
  6  7  2  0  0  0  0
  6 12  1  0  0  0  0
  7  8  1  0  0  0  0
  8  9  1  0  0  0  0
  8 10  2  0  0  0  0
 10 11  1  0  0  0  0
 11 12  2  0  0  0  0
 15 23  1  0  0  0  0
 15 16  1  0  0  0  0
 16 19  1  0  0  0  0
 19 22  1  0  0  0  0
 22  2  1  6  0  0  0
 22 23  1  0  0  0  0
 23 24  1  1  0  0  0
 24 25  1  0  0  0  0
 25 26  1  0  0  0  0
M  CHG  2  13  -1  18  -1
M  END
>  <CHROM.1>
39.63206139,-22.42570654,118.93256671,-63.45896364,130.93183128,-58.22720803
-179.77853692,70.33096469,-23.38870453,-12.52773009,1.89351985,-1.79413935
-0.26789034,-2.07327874

>  <Name>
ligand

>  <RI>
0

>  <Rbt.Current_Directory>
/home/itssahil/PROJECTS/Mol_Feturizer/New_Systems/rnas/2GDI

>  <Rbt.Executable>
rbdock ($Id: //depot/dev/client3/rdock/2013.1/src/exe/rbdock.cxx#4 $)

>  <Rbt.Library>
libRbt.so (2013.1, Build901 2013/11/27)

>  <Rbt.Parameter_File>
/export/apps/rDock/src/rDock_2013.1_src/data/scripts/dock_solv.prm

>  <Rbt.Receptor>
prm/pocket_docking_8.prm

>  <SCORE>
-11.2098

>  <SCORE.INTER>
-10.6916

>  <SCORE.INTER.CONST>
1

>  <SCORE.INTER.POLAR>
0

>  <SCORE.INTER.ROT>
8

>  <SCORE.INTER.SOLV>
12.121

>  <SCORE.INTER.VDW>
-20.1014

>  <SCORE.INTER.norm>
-0.411214

>  <SCORE.INTRA>
-0.528214

>  <SCORE.INTRA.DIHEDRAL>
-3.03449

>  <SCORE.INTRA.DIHEDRAL.0>
8.13976

>  <SCORE.INTRA.POLAR>
0

>  <SCORE.INTRA.POLAR.0>
0

>  <SCORE.INTRA.REPUL>
0

>  <SCORE.INTRA.REPUL.0>
0

>  <SCORE.INTRA.SOLV>
2.5858

>  <SCORE.INTRA.SOLV.lig_0>
-82.9561

>  <SCORE.INTRA.VDW>
-0.303871

>  <SCORE.INTRA.VDW.0>
-3.29171

>  <SCORE.INTRA.norm>
-0.0203159

>  <SCORE.RESTR>
0.00999977

>  <SCORE.RESTR.CAVITY>
0.00999977

>  <SCORE.RESTR.norm>
0.000384607

>  <SCORE.SYSTEM>
0

>  <SCORE.SYSTEM.CONST>
0

>  <SCORE.SYSTEM.DIHEDRAL>
0

>  <SCORE.SYSTEM.SOLV>
0

>  <SCORE.SYSTEM.norm>
0

>  <SCORE.heavy>
26

>  <SCORE.norm>
-0.431146

>  <RMSD>
8.016

$$$$
ligand
 OpenBabel11021811433D
libRbt.so/2013.1/901 2013/11/27
 26 27  0  0  0  0  0  0  0  0999 V2000
  -22.3086  -12.3337    8.9765 C   0  0  0  0  0  0  0  0  0  0  0  0
  -25.5586  -10.3387    2.3849 C   0  0  0  0  0  0  0  0  0  0  0  0
  -23.8753  -13.4823   -2.8222 P   0  0  1  0  0  0  0  0  0  0  0  0
  -24.8774  -14.1310   -5.4743 P   0  0  1  0  0  0  0  0  0  0  0  0
  -22.8418  -10.3930    3.5929 C   0  0  0  0  0  0  0  0  0  0  0  0
  -22.8357  -12.2574    5.3000 C   0  0  0  0  0  0  0  0  0  0  0  0
  -22.7107  -10.9029    5.0181 C   0  0  0  0  0  0  0  0  0  0  0  0
  -22.4508  -10.0281    6.0602 C   0  0  0  0  0  0  0  0  0  0  0  0
  -22.3220   -8.6981    5.8344 N   0  0  0  0  0  0  0  0  0  0  0  0
  -22.3246  -10.5059    7.3174 N   0  0  0  0  0  0  0  0  0  0  0  0
  -22.4520  -11.8275    7.5667 C   0  0  0  0  0  0  0  0  0  0  0  0
  -22.7073  -12.6977    6.5594 N   0  0  0  0  0  0  0  0  0  0  0  0
  -22.7298  -14.4568   -2.9044 O   0  5  0  0  0  0  0  0  0  0  0  0
  -24.0105  -13.0128   -5.9659 O   0  0  0  0  0  0  0  0  0  0  0  0
  -23.3879  -13.5933    1.3023 S   0  0  0  0  0  0  0  0  0  0  0  0
  -22.5316  -12.5282    2.3725 C   0  0  0  0  0  0  0  0  0  0  0  0
  -23.5524  -12.0242   -2.9779 O   0  0  0  0  0  0  0  0  0  0  0  0
  -24.1619  -15.4280   -5.6564 O   0  5  0  0  0  0  0  0  0  0  0  0
  -23.3052  -11.4570    2.7022 N   0  0  0  0  0  0  0  0  0  0  0  0
  -25.0187  -13.9561   -3.8687 O   0  0  0  0  0  0  0  0  0  0  0  0
  -26.2830  -14.1600   -6.0099 O   0  0  0  0  0  0  0  0  0  0  0  0
  -24.5493  -11.4307    2.1498 C   0  0  1  0  0  0  0  0  0  0  0  0
  -24.8063  -12.6212    1.2947 C   0  0  1  0  0  0  0  0  0  0  0  0
  -25.9698  -13.0960    0.4654 C   0  0  0  0  0  0  0  0  0  0  0  0
  -25.6644  -12.8305   -1.0003 C   0  0  0  0  0  0  0  0  0  0  0  0
  -24.5665  -13.6509   -1.3807 O   0  0  0  0  0  0  0  0  0  0  0  0
  1 11  1  0  0  0  0
  3 13  1  6  0  0  0
  3 17  2  0  0  0  0
  3 20  1  0  0  0  0
  3 26  1  0  0  0  0
  4 14  1  6  0  0  0
  4 18  1  0  0  0  0
  4 21  2  0  0  0  0
  4 20  1  0  0  0  0
  5 19  1  0  0  0  0
  5  7  1  0  0  0  0
  6  7  2  0  0  0  0
  6 12  1  0  0  0  0
  7  8  1  0  0  0  0
  8  9  1  0  0  0  0
  8 10  2  0  0  0  0
 10 11  1  0  0  0  0
 11 12  2  0  0  0  0
 15 23  1  0  0  0  0
 15 16  1  0  0  0  0
 16 19  1  0  0  0  0
 19 22  1  0  0  0  0
 22  2  1  1  0  0  0
 22 23  1  0  0  0  0
 23 24  1  6  0  0  0
 24 25  1  0  0  0  0
 25 26  1  0  0  0  0
M  CHG  2  13  -1  18  -1
M  END
>  <CHROM.1>
-59.66427447,-69.39279314,8.90049971,-38.32038670,-75.48022160,65.90402180
-172.48671427,178.36978102,-23.83443605,-12.61361935,0.50131638,-1.13213197
1.16509140,-2.22893841

>  <Name>
ligand

>  <RI>
0

>  <Rbt.Current_Directory>
/home/itssahil/PROJECTS/Mol_Feturizer/New_Systems/rnas/2GDI

>  <Rbt.Executable>
rbdock ($Id: //depot/dev/client3/rdock/2013.1/src/exe/rbdock.cxx#4 $)

>  <Rbt.Library>
libRbt.so (2013.1, Build901 2013/11/27)

>  <Rbt.Parameter_File>
/export/apps/rDock/src/rDock_2013.1_src/data/scripts/dock_solv.prm

>  <Rbt.Receptor>
prm/pocket_docking_7.prm

>  <SCORE>
-14.4137

>  <SCORE.INTER>
-13.3894

>  <SCORE.INTER.CONST>
1

>  <SCORE.INTER.POLAR>
0

>  <SCORE.INTER.ROT>
8

>  <SCORE.INTER.SOLV>
17.7535

>  <SCORE.INTER.VDW>
-23.7774

>  <SCORE.INTER.norm>
-0.514976

>  <SCORE.INTRA>
-1.02633

>  <SCORE.INTRA.DIHEDRAL>
-2.04391

>  <SCORE.INTRA.DIHEDRAL.0>
8.13976

>  <SCORE.INTRA.POLAR>
0

>  <SCORE.INTRA.POLAR.0>
0

>  <SCORE.INTRA.REPUL>
0

>  <SCORE.INTRA.REPUL.0>
0

>  <SCORE.INTRA.SOLV>
-0.274424

>  <SCORE.INTRA.SOLV.lig_0>
-82.9561

>  <SCORE.INTRA.VDW>
0.132836

>  <SCORE.INTRA.VDW.0>
-3.29171

>  <SCORE.INTRA.norm>
-0.0394743

>  <SCORE.RESTR>
0.00201026

>  <SCORE.RESTR.CAVITY>
0.00201026

>  <SCORE.RESTR.norm>
7.73176e-05

>  <SCORE.SYSTEM>
0

>  <SCORE.SYSTEM.CONST>
0

>  <SCORE.SYSTEM.DIHEDRAL>
0

>  <SCORE.SYSTEM.SOLV>
0

>  <SCORE.SYSTEM.norm>
0

>  <SCORE.heavy>
26

>  <SCORE.norm>
-0.554373

>  <RMSD>
8.022

$$$$
ligand
 OpenBabel11021811433D
libRbt.so/2013.1/901 2013/11/27
 26 27  0  0  0  0  0  0  0  0999 V2000
  -24.0555  -19.0208   -0.4017 C   0  0  0  0  0  0  0  0  0  0  0  0
  -22.0632  -12.9157    0.5499 C   0  0  0  0  0  0  0  0  0  0  0  0
  -23.5266  -14.5737    5.2031 P   0  0  1  0  0  0  0  0  0  0  0  0
  -22.4639  -16.2830    3.1036 P   0  0  1  0  0  0  0  0  0  0  0  0
  -24.3286  -13.3547   -1.3259 C   0  0  0  0  0  0  0  0  0  0  0  0
  -25.0261  -15.4483   -0.0927 C   0  0  0  0  0  0  0  0  0  0  0  0
  -24.2475  -14.8511   -1.0761 C   0  0  0  0  0  0  0  0  0  0  0  0
  -23.4057  -15.6491   -1.8335 C   0  0  0  0  0  0  0  0  0  0  0  0
  -22.6263  -15.1117   -2.8031 N   0  0  0  0  0  0  0  0  0  0  0  0
  -23.3604  -16.9793   -1.6029 N   0  0  0  0  0  0  0  0  0  0  0  0
  -24.1261  -17.5367   -0.6395 C   0  0  0  0  0  0  0  0  0  0  0  0
  -24.9547  -16.7710    0.1118 N   0  0  0  0  0  0  0  0  0  0  0  0
  -24.7872  -15.3944    5.1269 O   0  5  0  0  0  0  0  0  0  0  0  0
  -23.1039  -15.4220    2.0584 O   0  0  0  0  0  0  0  0  0  0  0  0
  -25.5582  -11.3172    1.8559 S   0  0  0  0  0  0  0  0  0  0  0  0
  -25.7043  -12.1118    0.3196 C   0  0  0  0  0  0  0  0  0  0  0  0
  -23.0942  -14.0984    6.5603 O   0  0  0  0  0  0  0  0  0  0  0  0
  -21.0535  -16.5718    2.7105 O   0  5  0  0  0  0  0  0  0  0  0  0
  -24.5053  -12.6281   -0.0685 N   0  0  0  0  0  0  0  0  0  0  0  0
  -22.3451  -15.3900    4.4517 O   0  0  0  0  0  0  0  0  0  0  0  0
  -23.2251  -17.5199    3.4957 O   0  0  0  0  0  0  0  0  0  0  0  0
  -23.4672  -12.4278    0.7892 C   0  0  1  0  0  0  0  0  0  0  0  0
  -23.8844  -11.6814    2.0071 C   0  0  1  0  0  0  0  0  0  0  0  0
  -23.1767  -11.1965    3.2444 C   0  0  0  0  0  0  0  0  0  0  0  0
  -22.6414  -12.4005    4.0034 C   0  0  0  0  0  0  0  0  0  0  0  0
  -23.7348  -13.2610    4.2988 O   0  0  0  0  0  0  0  0  0  0  0  0
  1 11  1  0  0  0  0
  3 13  1  1  0  0  0
  3 17  2  0  0  0  0
  3 20  1  0  0  0  0
  3 26  1  0  0  0  0
  4 14  1  6  0  0  0
  4 18  1  0  0  0  0
  4 21  2  0  0  0  0
  4 20  1  0  0  0  0
  5 19  1  0  0  0  0
  5  7  1  0  0  0  0
  6  7  2  0  0  0  0
  6 12  1  0  0  0  0
  7  8  1  0  0  0  0
  8  9  1  0  0  0  0
  8 10  2  0  0  0  0
 10 11  1  0  0  0  0
 11 12  2  0  0  0  0
 15 23  1  0  0  0  0
 15 16  1  0  0  0  0
 16 19  1  0  0  0  0
 19 22  1  0  0  0  0
 22  2  1  1  0  0  0
 22 23  1  0  0  0  0
 23 24  1  6  0  0  0
 24 25  1  0  0  0  0
 25 26  1  0  0  0  0
M  CHG  2  13  -1  18  -1
M  END
>  <CHROM.1>
37.97225779,-103.39294958,36.90737008,52.87145754,118.90933193,-57.35191181
-174.98931987,-169.91603875,-23.62114536,-14.58039599,1.89808465,-1.83286542
-1.29295747,0.99393664

>  <Name>
ligand

>  <RI>
0

>  <Rbt.Current_Directory>
/home/itssahil/PROJECTS/Mol_Feturizer/New_Systems/rnas/2GDI

>  <Rbt.Executable>
rbdock ($Id: //depot/dev/client3/rdock/2013.1/src/exe/rbdock.cxx#4 $)

>  <Rbt.Library>
libRbt.so (2013.1, Build901 2013/11/27)

>  <Rbt.Parameter_File>
/export/apps/rDock/src/rDock_2013.1_src/data/scripts/dock_solv.prm

>  <Rbt.Receptor>
prm/pocket_docking_5.prm

>  <SCORE>
-10.8854

>  <SCORE.INTER>
-7.15344

>  <SCORE.INTER.CONST>
1

>  <SCORE.INTER.POLAR>
0

>  <SCORE.INTER.ROT>
8

>  <SCORE.INTER.SOLV>
9.68621

>  <SCORE.INTER.VDW>
-16.931

>  <SCORE.INTER.norm>
-0.275132

>  <SCORE.INTRA>
-3.73194

>  <SCORE.INTRA.DIHEDRAL>
-2.7628

>  <SCORE.INTRA.DIHEDRAL.0>
8.13976

>  <SCORE.INTRA.POLAR>
0

>  <SCORE.INTRA.POLAR.0>
0

>  <SCORE.INTRA.REPUL>
0

>  <SCORE.INTRA.REPUL.0>
0

>  <SCORE.INTRA.SOLV>
0.81032

>  <SCORE.INTRA.SOLV.lig_0>
-82.9561

>  <SCORE.INTRA.VDW>
-2.75571

>  <SCORE.INTRA.VDW.0>
-3.29171

>  <SCORE.INTRA.norm>
-0.143536

>  <SCORE.RESTR>
0

>  <SCORE.RESTR.CAVITY>
0

>  <SCORE.RESTR.norm>
0

>  <SCORE.SYSTEM>
0

>  <SCORE.SYSTEM.CONST>
0

>  <SCORE.SYSTEM.DIHEDRAL>
0

>  <SCORE.SYSTEM.SOLV>
0

>  <SCORE.SYSTEM.norm>
0

>  <SCORE.heavy>
26

>  <SCORE.norm>
-0.418668

>  <RMSD>
8.023

$$$$
ligand
 OpenBabel11021811433D
libRbt.so/2013.1/901 2013/11/27
 26 27  0  0  0  0  0  0  0  0999 V2000
  -22.5175   -9.9668    4.3165 C   0  0  0  0  0  0  0  0  0  0  0  0
  -22.4114  -17.8740    4.9391 C   0  0  0  0  0  0  0  0  0  0  0  0
  -23.8334  -16.9868   -0.4765 P   0  0  1  0  0  0  0  0  0  0  0  0
  -25.0409  -14.3807   -0.0191 P   0  0  1  0  0  0  0  0  0  0  0  0
  -23.4182  -15.3442    6.1348 C   0  0  0  0  0  0  0  0  0  0  0  0
  -22.6874  -13.6773    4.3805 C   0  0  0  0  0  0  0  0  0  0  0  0
  -23.1710  -13.9225    5.6595 C   0  0  0  0  0  0  0  0  0  0  0  0
  -23.4361  -12.8445    6.4881 C   0  0  0  0  0  0  0  0  0  0  0  0
  -23.9077  -13.0340    7.7443 N   0  0  0  0  0  0  0  0  0  0  0  0
  -23.2218  -11.5887    6.0392 N   0  0  0  0  0  0  0  0  0  0  0  0
  -22.7493  -11.3757    4.7916 C   0  0  0  0  0  0  0  0  0  0  0  0
  -22.4833  -12.4186    3.9676 N   0  0  0  0  0  0  0  0  0  0  0  0
  -23.9239  -18.0119   -1.5763 O   0  5  0  0  0  0  0  0  0  0  0  0
  -26.2794  -13.7356   -0.5608 O   0  0  0  0  0  0  0  0  0  0  0  0
  -26.0735  -16.7954    3.5599 S   0  0  0  0  0  0  0  0  0  0  0  0
  -25.4282  -15.6809    4.7237 C   0  0  0  0  0  0  0  0  0  0  0  0
  -22.4631  -16.5110   -0.0884 O   0  0  0  0  0  0  0  0  0  0  0  0
  -25.2887  -14.8266    1.3834 O   0  5  0  0  0  0  0  0  0  0  0  0
  -24.2017  -16.0910    5.1507 N   0  0  0  0  0  0  0  0  0  0  0  0
  -24.8099  -15.7500   -0.8559 O   0  0  0  0  0  0  0  0  0  0  0  0
  -23.7687  -13.5909   -0.1639 O   0  0  0  0  0  0  0  0  0  0  0  0
  -23.7395  -17.2491    4.6042 C   0  0  1  0  0  0  0  0  0  0  0  0
  -24.6954  -17.8223    3.6183 C   0  0  1  0  0  0  0  0  0  0  0  0
  -24.7042  -19.0475    2.7431 C   0  0  0  0  0  0  0  0  0  0  0  0
  -23.9108  -18.7503    1.4803 C   0  0  0  0  0  0  0  0  0  0  0  0
  -24.4943  -17.6190    0.8455 O   0  0  0  0  0  0  0  0  0  0  0  0
  1 11  1  0  0  0  0
  3 13  1  6  0  0  0
  3 17  2  0  0  0  0
  3 20  1  0  0  0  0
  3 26  1  0  0  0  0
  4 14  1  6  0  0  0
  4 18  1  0  0  0  0
  4 21  2  0  0  0  0
  4 20  1  0  0  0  0
  5 19  1  0  0  0  0
  5  7  1  0  0  0  0
  6  7  2  0  0  0  0
  6 12  1  0  0  0  0
  7  8  1  0  0  0  0
  8  9  1  0  0  0  0
  8 10  2  0  0  0  0
 10 11  1  0  0  0  0
 11 12  2  0  0  0  0
 15 23  1  0  0  0  0
 15 16  1  0  0  0  0
 16 19  1  0  0  0  0
 19 22  1  0  0  0  0
 22  2  1  6  0  0  0
 22 23  1  0  0  0  0
 23 24  1  1  0  0  0
 24 25  1  0  0  0  0
 25 26  1  0  0  0  0
M  CHG  2  13  -1  18  -1
M  END
>  <CHROM.1>
-178.30644664,-57.37093369,-49.39946393,-164.99569074,98.56825345,-57.35438095
176.20535644,64.78401926,-24.09694363,-15.32759657,2.62830202,-0.26282116
-1.40314028,-0.85853743

>  <Name>
ligand

>  <RI>
0

>  <Rbt.Current_Directory>
/home/itssahil/PROJECTS/Mol_Feturizer/New_Systems/rnas/2GDI

>  <Rbt.Executable>
rbdock ($Id: //depot/dev/client3/rdock/2013.1/src/exe/rbdock.cxx#4 $)

>  <Rbt.Library>
libRbt.so (2013.1, Build901 2013/11/27)

>  <Rbt.Parameter_File>
/export/apps/rDock/src/rDock_2013.1_src/data/scripts/dock_solv.prm

>  <Rbt.Receptor>
prm/pocket_docking_6.prm

>  <SCORE>
-12.5357

>  <SCORE.INTER>
-10.6637

>  <SCORE.INTER.CONST>
1

>  <SCORE.INTER.POLAR>
0

>  <SCORE.INTER.ROT>
8

>  <SCORE.INTER.SOLV>
10.8656

>  <SCORE.INTER.VDW>
-19.6644

>  <SCORE.INTER.norm>
-0.410144

>  <SCORE.INTRA>
-1.87193

>  <SCORE.INTRA.DIHEDRAL>
-2.86076

>  <SCORE.INTRA.DIHEDRAL.0>
8.13976

>  <SCORE.INTRA.POLAR>
0

>  <SCORE.INTRA.POLAR.0>
0

>  <SCORE.INTRA.REPUL>
0

>  <SCORE.INTRA.REPUL.0>
0

>  <SCORE.INTRA.SOLV>
2.05118

>  <SCORE.INTRA.SOLV.lig_0>
-82.9561

>  <SCORE.INTRA.VDW>
-1.46714

>  <SCORE.INTRA.VDW.0>
-3.29171

>  <SCORE.INTRA.norm>
-0.0719974

>  <SCORE.RESTR>
0

>  <SCORE.RESTR.CAVITY>
0

>  <SCORE.RESTR.norm>
0

>  <SCORE.SYSTEM>
0

>  <SCORE.SYSTEM.CONST>
0

>  <SCORE.SYSTEM.DIHEDRAL>
0

>  <SCORE.SYSTEM.SOLV>
0

>  <SCORE.SYSTEM.norm>
0

>  <SCORE.heavy>
26

>  <SCORE.norm>
-0.482141

>  <RMSD>
8.052

$$$$
ligand
 OpenBabel11021811433D
libRbt.so/2013.1/901 2013/11/27
 26 27  0  0  0  0  0  0  0  0999 V2000
  -19.6450  -18.5936   -0.9093 C   0  0  0  0  0  0  0  0  0  0  0  0
  -24.5887  -12.2290   -1.8216 C   0  0  0  0  0  0  0  0  0  0  0  0
  -22.8501  -11.6097    3.4562 P   0  0  1  0  0  0  0  0  0  0  0  0
  -23.3702  -13.1637    5.8590 P   0  0  1  0  0  0  0  0  0  0  0  0
  -24.0368  -15.1243   -2.2167 C   0  0  0  0  0  0  0  0  0  0  0  0
  -22.1036  -15.8138   -0.7410 C   0  0  0  0  0  0  0  0  0  0  0  0
  -22.8698  -16.0364   -1.8782 C   0  0  0  0  0  0  0  0  0  0  0  0
  -22.5572  -17.1143   -2.6901 C   0  0  0  0  0  0  0  0  0  0  0  0
  -23.2752  -17.3708   -3.8104 N   0  0  0  0  0  0  0  0  0  0  0  0
  -21.5238  -17.9199   -2.3619 N   0  0  0  0  0  0  0  0  0  0  0  0
  -20.7922  -17.6819   -1.2514 C   0  0  0  0  0  0  0  0  0  0  0  0
  -21.0832  -16.6312   -0.4460 N   0  0  0  0  0  0  0  0  0  0  0  0
  -23.0682  -10.3611    4.2698 O   0  5  0  0  0  0  0  0  0  0  0  0
  -22.9063  -12.1661    6.8754 O   0  0  0  0  0  0  0  0  0  0  0  0
  -25.7758  -14.5283    1.3058 S   0  0  0  0  0  0  0  0  0  0  0  0
  -25.0539  -15.4454    0.0210 C   0  0  0  0  0  0  0  0  0  0  0  0
  -21.8101  -11.5548    2.3745 O   0  0  0  0  0  0  0  0  0  0  0  0
  -24.8091  -12.9195    5.5474 O   0  5  0  0  0  0  0  0  0  0  0  0
  -24.6753  -14.6257   -0.9985 N   0  0  0  0  0  0  0  0  0  0  0  0
  -22.5850  -12.8396    4.4779 O   0  0  0  0  0  0  0  0  0  0  0  0
  -23.0771  -14.6063    6.1695 O   0  0  0  0  0  0  0  0  0  0  0  0
  -24.9275  -13.2999   -0.8191 C   0  0  1  0  0  0  0  0  0  0  0  0
  -25.5650  -13.0254    0.4972 C   0  0  1  0  0  0  0  0  0  0  0  0
  -26.0484  -11.7845    1.1996 C   0  0  0  0  0  0  0  0  0  0  0  0
  -24.8542  -11.0832    1.8277 C   0  0  0  0  0  0  0  0  0  0  0  0
  -24.2405  -11.9842    2.7413 O   0  0  0  0  0  0  0  0  0  0  0  0
  1 11  1  0  0  0  0
  3 13  1  1  0  0  0
  3 17  2  0  0  0  0
  3 20  1  0  0  0  0
  3 26  1  0  0  0  0
  4 14  1  1  0  0  0
  4 18  1  0  0  0  0
  4 21  2  0  0  0  0
  4 20  1  0  0  0  0
  5 19  1  0  0  0  0
  5  7  1  0  0  0  0
  6  7  2  0  0  0  0
  6 12  1  0  0  0  0
  7  8  1  0  0  0  0
  8  9  1  0  0  0  0
  8 10  2  0  0  0  0
 10 11  1  0  0  0  0
 11 12  2  0  0  0  0
 15 23  1  0  0  0  0
 15 16  1  0  0  0  0
 16 19  1  0  0  0  0
 19 22  1  0  0  0  0
 22  2  1  1  0  0  0
 22 23  1  0  0  0  0
 23 24  1  6  0  0  0
 24 25  1  0  0  0  0
 25 26  1  0  0  0  0
M  CHG  2  13  -1  18  -1
M  END
>  <CHROM.1>
42.55210386,-50.02301933,-32.80473412,-74.16293788,100.77694896,-59.18415228
173.19337749,60.85888925,-23.45609363,-13.97843308,1.50836611,-1.39672563
-0.78024933,1.11573860

>  <Name>
ligand

>  <RI>
0

>  <Rbt.Current_Directory>
/home/itssahil/PROJECTS/Mol_Feturizer/New_Systems/rnas/2GDI

>  <Rbt.Executable>
rbdock ($Id: //depot/dev/client3/rdock/2013.1/src/exe/rbdock.cxx#4 $)

>  <Rbt.Library>
libRbt.so (2013.1, Build901 2013/11/27)

>  <Rbt.Parameter_File>
/export/apps/rDock/src/rDock_2013.1_src/data/scripts/dock_solv.prm

>  <Rbt.Receptor>
prm/pocket_docking_6.prm

>  <SCORE>
-7.79937

>  <SCORE.INTER>
-6.20602

>  <SCORE.INTER.CONST>
1

>  <SCORE.INTER.POLAR>
0

>  <SCORE.INTER.ROT>
8

>  <SCORE.INTER.SOLV>
14.0241

>  <SCORE.INTER.VDW>
-17.7454

>  <SCORE.INTER.norm>
-0.238693

>  <SCORE.INTRA>
-1.59334

>  <SCORE.INTRA.DIHEDRAL>
-2.38261

>  <SCORE.INTRA.DIHEDRAL.0>
8.13976

>  <SCORE.INTRA.POLAR>
0

>  <SCORE.INTRA.POLAR.0>
0

>  <SCORE.INTRA.REPUL>
0

>  <SCORE.INTRA.REPUL.0>
0

>  <SCORE.INTRA.SOLV>
0.393251

>  <SCORE.INTRA.SOLV.lig_0>
-82.9561

>  <SCORE.INTRA.VDW>
-0.598662

>  <SCORE.INTRA.VDW.0>
-3.29171

>  <SCORE.INTRA.norm>
-0.0612825

>  <SCORE.RESTR>
0

>  <SCORE.RESTR.CAVITY>
0

>  <SCORE.RESTR.norm>
0

>  <SCORE.SYSTEM>
0

>  <SCORE.SYSTEM.CONST>
0

>  <SCORE.SYSTEM.DIHEDRAL>
0

>  <SCORE.SYSTEM.SOLV>
0

>  <SCORE.SYSTEM.norm>
0

>  <SCORE.heavy>
26

>  <SCORE.norm>
-0.299976

>  <RMSD>
8.061

$$$$
ligand
 OpenBabel11021811433D
libRbt.so/2013.1/901 2013/11/27
 26 27  0  0  0  0  0  0  0  0999 V2000
  -24.5778  -12.8263   -1.8574 C   0  0  0  0  0  0  0  0  0  0  0  0
  -20.7994  -17.4464    1.6289 C   0  0  0  0  0  0  0  0  0  0  0  0
  -23.2577  -14.7231    5.0757 P   0  0  1  0  0  0  0  0  0  0  0  0
  -22.2780  -13.3192    2.7245 P   0  0  1  0  0  0  0  0  0  0  0  0
  -22.7407  -18.1067   -0.5249 C   0  0  0  0  0  0  0  0  0  0  0  0
  -24.4050  -16.2129   -0.3405 C   0  0  0  0  0  0  0  0  0  0  0  0
  -23.2301  -16.7145   -0.8863 C   0  0  0  0  0  0  0  0  0  0  0  0
  -22.5066  -15.9151   -1.7560 C   0  0  0  0  0  0  0  0  0  0  0  0
  -21.3553  -16.3614   -2.3142 N   0  0  0  0  0  0  0  0  0  0  0  0
  -22.9539  -14.6754   -2.0520 N   0  0  0  0  0  0  0  0  0  0  0  0
  -24.1006  -14.2103   -1.5098 C   0  0  0  0  0  0  0  0  0  0  0  0
  -24.8218  -14.9792   -0.6577 N   0  0  0  0  0  0  0  0  0  0  0  0
  -23.0906  -14.5364    6.5609 O   0  5  0  0  0  0  0  0  0  0  0  0
  -22.1061  -14.6636    2.0868 O   0  0  0  0  0  0  0  0  0  0  0  0
  -24.1849  -19.2106    3.0082 S   0  0  0  0  0  0  0  0  0  0  0  0
  -24.1788  -19.0015    1.2850 C   0  0  0  0  0  0  0  0  0  0  0  0
  -24.6596  -14.8221    4.5467 O   0  0  0  0  0  0  0  0  0  0  0  0
  -23.5899  -12.7401    2.3113 O   0  5  0  0  0  0  0  0  0  0  0  0
  -23.0227  -18.4072    0.8788 N   0  0  0  0  0  0  0  0  0  0  0  0
  -22.4153  -13.5617    4.3217 O   0  0  0  0  0  0  0  0  0  0  0  0
  -21.1350  -12.3565    2.5518 O   0  0  0  0  0  0  0  0  0  0  0  0
  -22.1331  -18.1042    1.8638 C   0  0  1  0  0  0  0  0  0  0  0  0
  -22.6246  -18.5156    3.2067 C   0  0  1  0  0  0  0  0  0  0  0  0
  -22.0757  -18.4282    4.6061 C   0  0  0  0  0  0  0  0  0  0  0  0
  -22.7880  -17.3028    5.3398 C   0  0  0  0  0  0  0  0  0  0  0  0
  -22.5103  -16.0844    4.6604 O   0  0  0  0  0  0  0  0  0  0  0  0
  1 11  1  0  0  0  0
  3 13  1  1  0  0  0
  3 17  2  0  0  0  0
  3 20  1  0  0  0  0
  3 26  1  0  0  0  0
  4 14  1  6  0  0  0
  4 18  1  0  0  0  0
  4 21  2  0  0  0  0
  4 20  1  0  0  0  0
  5 19  1  0  0  0  0
  5  7  1  0  0  0  0
  6  7  2  0  0  0  0
  6 12  1  0  0  0  0
  7  8  1  0  0  0  0
  8  9  1  0  0  0  0
  8 10  2  0  0  0  0
 10 11  1  0  0  0  0
 11 12  2  0  0  0  0
 15 23  1  0  0  0  0
 15 16  1  0  0  0  0
 16 19  1  0  0  0  0
 19 22  1  0  0  0  0
 22  2  1  6  0  0  0
 22 23  1  0  0  0  0
 23 24  1  1  0  0  0
 24 25  1  0  0  0  0
 25 26  1  0  0  0  0
M  CHG  2  13  -1  18  -1
M  END
>  <CHROM.1>
-179.63522331,90.45132954,-36.51408941,-41.75245638,-74.95075099,-61.95523176
172.55139456,52.23871614,-22.99784799,-15.78623947,2.06497355,-2.50828115
1.51305287,2.49950962

>  <Name>
ligand

>  <RI>
0

>  <Rbt.Current_Directory>
/home/itssahil/PROJECTS/Mol_Feturizer/New_Systems/rnas/2GDI

>  <Rbt.Executable>
rbdock ($Id: //depot/dev/client3/rdock/2013.1/src/exe/rbdock.cxx#4 $)

>  <Rbt.Library>
libRbt.so (2013.1, Build901 2013/11/27)

>  <Rbt.Parameter_File>
/export/apps/rDock/src/rDock_2013.1_src/data/scripts/dock_solv.prm

>  <Rbt.Receptor>
prm/pocket_docking_5.prm

>  <SCORE>
-8.46185

>  <SCORE.INTER>
-5.44481

>  <SCORE.INTER.CONST>
1

>  <SCORE.INTER.POLAR>
0

>  <SCORE.INTER.ROT>
8

>  <SCORE.INTER.SOLV>
10.0195

>  <SCORE.INTER.VDW>
-15.903

>  <SCORE.INTER.norm>
-0.209416

>  <SCORE.INTRA>
-3.01704

>  <SCORE.INTRA.DIHEDRAL>
-2.11861

>  <SCORE.INTRA.DIHEDRAL.0>
8.13976

>  <SCORE.INTRA.POLAR>
0

>  <SCORE.INTRA.POLAR.0>
0

>  <SCORE.INTRA.REPUL>
0

>  <SCORE.INTRA.REPUL.0>
0

>  <SCORE.INTRA.SOLV>
0.217018

>  <SCORE.INTRA.SOLV.lig_0>
-82.9561

>  <SCORE.INTRA.VDW>
-2.06624

>  <SCORE.INTRA.VDW.0>
-3.29171

>  <SCORE.INTRA.norm>
-0.11604

>  <SCORE.RESTR>
0

>  <SCORE.RESTR.CAVITY>
0

>  <SCORE.RESTR.norm>
0

>  <SCORE.SYSTEM>
0

>  <SCORE.SYSTEM.CONST>
0

>  <SCORE.SYSTEM.DIHEDRAL>
0

>  <SCORE.SYSTEM.SOLV>
0

>  <SCORE.SYSTEM.norm>
0

>  <SCORE.heavy>
26

>  <SCORE.norm>
-0.325456

>  <RMSD>
8.072

$$$$
ligand
 OpenBabel11021811433D
libRbt.so/2013.1/901 2013/11/27
 26 27  0  0  0  0  0  0  0  0999 V2000
  -22.2376  -11.6237    3.4643 C   0  0  0  0  0  0  0  0  0  0  0  0
  -20.9149  -18.3195    3.3038 C   0  0  0  0  0  0  0  0  0  0  0  0
  -20.4992  -18.3305   -0.2874 P   0  0  1  0  0  0  0  0  0  0  0  0
  -20.3884  -15.4243   -0.2652 P   0  0  1  0  0  0  0  0  0  0  0  0
  -22.7067  -17.0474    5.3075 C   0  0  0  0  0  0  0  0  0  0  0  0
  -21.8072  -15.3053    3.7118 C   0  0  0  0  0  0  0  0  0  0  0  0
  -22.5755  -15.6117    4.8278 C   0  0  0  0  0  0  0  0  0  0  0  0
  -23.2307  -14.5842    5.4866 C   0  0  0  0  0  0  0  0  0  0  0  0
  -23.9905  -14.8342    6.5805 N   0  0  0  0  0  0  0  0  0  0  0  0
  -23.1107  -13.3173    5.0339 N   0  0  0  0  0  0  0  0  0  0  0  0
  -22.3562  -13.0440    3.9471 C   0  0  0  0  0  0  0  0  0  0  0  0
  -21.7073  -14.0367    3.2908 N   0  0  0  0  0  0  0  0  0  0  0  0
  -20.2978  -18.4919   -1.7713 O   0  5  0  0  0  0  0  0  0  0  0  0
  -20.5358  -15.4159   -1.7558 O   0  0  0  0  0  0  0  0  0  0  0  0
  -24.8347  -19.2140    2.7454 S   0  0  0  0  0  0  0  0  0  0  0  0
  -24.5609  -18.1697    4.1047 C   0  0  0  0  0  0  0  0  0  0  0  0
  -20.0199  -19.4441    0.5986 O   0  0  0  0  0  0  0  0  0  0  0  0
  -21.7347  -15.2942    0.3655 O   0  5  0  0  0  0  0  0  0  0  0  0
  -23.2326  -17.9033    4.2441 N   0  0  0  0  0  0  0  0  0  0  0  0
  -19.8732  -16.9028    0.1560 O   0  0  0  0  0  0  0  0  0  0  0  0
  -19.3823  -14.4611    0.3033 O   0  0  0  0  0  0  0  0  0  0  0  0
  -22.4111  -18.4851    3.3275 C   0  0  1  0  0  0  0  0  0  0  0  0
  -23.1670  -19.2953    2.3342 C   0  0  1  0  0  0  0  0  0  0  0  0
  -22.7853  -20.1308    1.1412 C   0  0  0  0  0  0  0  0  0  0  0  0
  -22.9478  -19.2898   -0.1152 C   0  0  0  0  0  0  0  0  0  0  0  0
  -22.0757  -18.1706   -0.0160 O   0  0  0  0  0  0  0  0  0  0  0  0
  1 11  1  0  0  0  0
  3 13  1  6  0  0  0
  3 17  2  0  0  0  0
  3 20  1  0  0  0  0
  3 26  1  0  0  0  0
  4 14  1  6  0  0  0
  4 18  1  0  0  0  0
  4 21  2  0  0  0  0
  4 20  1  0  0  0  0
  5 19  1  0  0  0  0
  5  7  1  0  0  0  0
  6  7  2  0  0  0  0
  6 12  1  0  0  0  0
  7  8  1  0  0  0  0
  8  9  1  0  0  0  0
  8 10  2  0  0  0  0
 10 11  1  0  0  0  0
 11 12  2  0  0  0  0
 15 23  1  0  0  0  0
 15 16  1  0  0  0  0
 16 19  1  0  0  0  0
 19 22  1  0  0  0  0
 22  2  1  6  0  0  0
 22 23  1  0  0  0  0
 23 24  1  1  0  0  0
 24 25  1  0  0  0  0
 25 26  1  0  0  0  0
M  CHG  2  13  -1  18  -1
M  END
>  <CHROM.1>
66.02835299,-93.31570128,-57.11597414,-50.19154348,84.52123403,60.98109630
77.27429042,73.76718096,-21.96329263,-16.76353599,1.98197696,-2.22012088
-0.95197198,-2.65058946

>  <Name>
ligand

>  <RI>
0

>  <Rbt.Current_Directory>
/home/itssahil/PROJECTS/Mol_Feturizer/New_Systems/rnas/2GDI

>  <Rbt.Executable>
rbdock ($Id: //depot/dev/client3/rdock/2013.1/src/exe/rbdock.cxx#4 $)

>  <Rbt.Library>
libRbt.so (2013.1, Build901 2013/11/27)

>  <Rbt.Parameter_File>
/export/apps/rDock/src/rDock_2013.1_src/data/scripts/dock_solv.prm

>  <Rbt.Receptor>
prm/pocket_docking_5.prm

>  <SCORE>
-9.64685

>  <SCORE.INTER>
-9.11733

>  <SCORE.INTER.CONST>
1

>  <SCORE.INTER.POLAR>
0

>  <SCORE.INTER.ROT>
8

>  <SCORE.INTER.SOLV>
11.4268

>  <SCORE.INTER.VDW>
-18.8205

>  <SCORE.INTER.norm>
-0.350666

>  <SCORE.INTRA>
-0.529529

>  <SCORE.INTRA.DIHEDRAL>
-1.25747

>  <SCORE.INTRA.DIHEDRAL.0>
8.13976

>  <SCORE.INTRA.POLAR>
0

>  <SCORE.INTRA.POLAR.0>
0

>  <SCORE.INTRA.REPUL>
0

>  <SCORE.INTRA.REPUL.0>
0

>  <SCORE.INTRA.SOLV>
3.40822

>  <SCORE.INTRA.SOLV.lig_0>
-82.9561

>  <SCORE.INTRA.VDW>
-1.60491

>  <SCORE.INTRA.VDW.0>
-3.29171

>  <SCORE.INTRA.norm>
-0.0203665

>  <SCORE.RESTR>
0

>  <SCORE.RESTR.CAVITY>
0

>  <SCORE.RESTR.norm>
0

>  <SCORE.SYSTEM>
0

>  <SCORE.SYSTEM.CONST>
0

>  <SCORE.SYSTEM.DIHEDRAL>
0

>  <SCORE.SYSTEM.SOLV>
0

>  <SCORE.SYSTEM.norm>
0

>  <SCORE.heavy>
26

>  <SCORE.norm>
-0.371033

>  <RMSD>
8.104

$$$$
ligand
 OpenBabel11021811433D
libRbt.so/2013.1/901 2013/11/27
 26 27  0  0  0  0  0  0  0  0999 V2000
  -22.3865  -12.3588    3.2705 C   0  0  0  0  0  0  0  0  0  0  0  0
  -20.7936  -19.6145    1.7941 C   0  0  0  0  0  0  0  0  0  0  0  0
  -22.7863  -18.2567   -2.3241 P   0  0  1  0  0  0  0  0  0  0  0  0
  -23.4988  -16.2603   -0.3328 P   0  0  1  0  0  0  0  0  0  0  0  0
  -21.7167  -18.0040    4.1173 C   0  0  0  0  0  0  0  0  0  0  0  0
  -21.3205  -15.8857    2.7959 C   0  0  0  0  0  0  0  0  0  0  0  0
  -21.8862  -16.5098    3.9006 C   0  0  0  0  0  0  0  0  0  0  0  0
  -22.6192  -15.7452    4.7933 C   0  0  0  0  0  0  0  0  0  0  0  0
  -23.1888  -16.3093    5.8859 N   0  0  0  0  0  0  0  0  0  0  0  0
  -22.7682  -14.4209    4.5729 N   0  0  0  0  0  0  0  0  0  0  0  0
  -22.2069  -13.8363    3.4919 C   0  0  0  0  0  0  0  0  0  0  0  0
  -21.4855  -14.5688    2.6086 N   0  0  0  0  0  0  0  0  0  0  0  0
  -23.5062  -18.8708   -3.4959 O   0  5  0  0  0  0  0  0  0  0  0  0
  -23.5259  -17.2495    0.7916 O   0  0  0  0  0  0  0  0  0  0  0  0
  -24.8117  -19.7613    2.3508 S   0  0  0  0  0  0  0  0  0  0  0  0
  -23.9972  -18.7712    3.5211 C   0  0  0  0  0  0  0  0  0  0  0  0
  -21.3838  -17.7719   -2.5537 O   0  0  0  0  0  0  0  0  0  0  0  0
  -22.1256  -15.6889   -0.4556 O   0  5  0  0  0  0  0  0  0  0  0  0
  -22.6557  -18.7581    3.2868 N   0  0  0  0  0  0  0  0  0  0  0  0
  -23.7277  -17.0910   -1.7062 O   0  0  0  0  0  0  0  0  0  0  0  0
  -24.5700  -15.2042   -0.3079 O   0  0  0  0  0  0  0  0  0  0  0  0
  -22.2316  -19.4950    2.2235 C   0  0  1  0  0  0  0  0  0  0  0  0
  -23.3607  -20.1601    1.5185 C   0  0  1  0  0  0  0  0  0  0  0  0
  -23.4730  -21.0667    0.3216 C   0  0  0  0  0  0  0  0  0  0  0  0
  -23.8083  -20.2238   -0.8988 C   0  0  0  0  0  0  0  0  0  0  0  0
  -22.7084  -19.3598   -1.1573 O   0  0  0  0  0  0  0  0  0  0  0  0
  1 11  1  0  0  0  0
  3 13  1  6  0  0  0
  3 17  2  0  0  0  0
  3 20  1  0  0  0  0
  3 26  1  0  0  0  0
  4 14  1  1  0  0  0
  4 18  1  0  0  0  0
  4 21  2  0  0  0  0
  4 20  1  0  0  0  0
  5 19  1  0  0  0  0
  5  7  1  0  0  0  0
  6  7  2  0  0  0  0
  6 12  1  0  0  0  0
  7  8  1  0  0  0  0
  8  9  1  0  0  0  0
  8 10  2  0  0  0  0
 10 11  1  0  0  0  0
 11 12  2  0  0  0  0
 15 23  1  0  0  0  0
 15 16  1  0  0  0  0
 16 19  1  0  0  0  0
 19 22  1  0  0  0  0
 22  2  1  6  0  0  0
 22 23  1  0  0  0  0
 23 24  1  1  0  0  0
 24 25  1  0  0  0  0
 25 26  1  0  0  0  0
M  CHG  2  13  -1  18  -1
M  END
>  <CHROM.1>
171.61422208,-70.17380967,-80.03590342,-61.79328126,84.93461954,65.09586432
-175.52201510,-39.22552853,-22.91882333,-17.44904934,1.13079395,-0.83299420
-1.41756209,-1.38470250

>  <Name>
ligand

>  <RI>
0

>  <Rbt.Current_Directory>
/home/itssahil/PROJECTS/Mol_Feturizer/New_Systems/rnas/2GDI

>  <Rbt.Executable>
rbdock ($Id: //depot/dev/client3/rdock/2013.1/src/exe/rbdock.cxx#4 $)

>  <Rbt.Library>
libRbt.so (2013.1, Build901 2013/11/27)

>  <Rbt.Parameter_File>
/export/apps/rDock/src/rDock_2013.1_src/data/scripts/dock_solv.prm

>  <Rbt.Receptor>
prm/pocket_docking_5.prm

>  <SCORE>
-15.5106

>  <SCORE.INTER>
-10.9757

>  <SCORE.INTER.CONST>
1

>  <SCORE.INTER.POLAR>
0

>  <SCORE.INTER.ROT>
8

>  <SCORE.INTER.SOLV>
10.3735

>  <SCORE.INTER.VDW>
-19.7083

>  <SCORE.INTER.norm>
-0.422141

>  <SCORE.INTRA>
-4.53493

>  <SCORE.INTRA.DIHEDRAL>
-2.42989

>  <SCORE.INTRA.DIHEDRAL.0>
8.13976

>  <SCORE.INTRA.POLAR>
0

>  <SCORE.INTRA.POLAR.0>
0

>  <SCORE.INTRA.REPUL>
0

>  <SCORE.INTRA.REPUL.0>
0

>  <SCORE.INTRA.SOLV>
0.653325

>  <SCORE.INTRA.SOLV.lig_0>
-82.9561

>  <SCORE.INTRA.VDW>
-3.64665

>  <SCORE.INTRA.VDW.0>
-3.29171

>  <SCORE.INTRA.norm>
-0.174421

>  <SCORE.RESTR>
0

>  <SCORE.RESTR.CAVITY>
0

>  <SCORE.RESTR.norm>
0

>  <SCORE.SYSTEM>
0

>  <SCORE.SYSTEM.CONST>
0

>  <SCORE.SYSTEM.DIHEDRAL>
0

>  <SCORE.SYSTEM.SOLV>
0

>  <SCORE.SYSTEM.norm>
0

>  <SCORE.heavy>
26

>  <SCORE.norm>
-0.596562

>  <RMSD>
8.110

$$$$
ligand
 OpenBabel11021811433D
libRbt.so/2013.1/901 2013/11/27
 26 27  0  0  0  0  0  0  0  0999 V2000
  -22.4182   -8.9659    4.6939 C   0  0  0  0  0  0  0  0  0  0  0  0
  -22.2613  -16.5868    4.0710 C   0  0  0  0  0  0  0  0  0  0  0  0
  -22.9605  -19.9177    0.6462 P   0  0  1  0  0  0  0  0  0  0  0  0
  -23.4970  -21.2013   -1.9079 P   0  0  1  0  0  0  0  0  0  0  0  0
  -23.3543  -14.5080    5.8952 C   0  0  0  0  0  0  0  0  0  0  0  0
  -22.5789  -12.6616    4.3525 C   0  0  0  0  0  0  0  0  0  0  0  0
  -23.0979  -13.0433    5.5832 C   0  0  0  0  0  0  0  0  0  0  0  0
  -23.3897  -12.0610    6.5154 C   0  0  0  0  0  0  0  0  0  0  0  0
  -23.8962  -12.3849    7.7298 N   0  0  0  0  0  0  0  0  0  0  0  0
  -23.1663  -10.7641    6.2108 N   0  0  0  0  0  0  0  0  0  0  0  0
  -22.6592  -10.4178    5.0075 C   0  0  0  0  0  0  0  0  0  0  0  0
  -22.3669  -11.3657    4.0838 N   0  0  0  0  0  0  0  0  0  0  0  0
  -21.8689  -20.2123    1.6412 O   0  5  0  0  0  0  0  0  0  0  0  0
  -23.6192  -22.6326   -2.3321 O   0  0  0  0  0  0  0  0  0  0  0  0
  -26.1565  -15.7049    3.3453 S   0  0  0  0  0  0  0  0  0  0  0  0
  -25.4829  -14.7878    4.6560 C   0  0  0  0  0  0  0  0  0  0  0  0
  -22.8574  -18.6372   -0.1313 O   0  0  0  0  0  0  0  0  0  0  0  0
  -24.8379  -20.5495   -1.9748 O   0  5  0  0  0  0  0  0  0  0  0  0
  -24.1779  -15.1232    4.8544 N   0  0  0  0  0  0  0  0  0  0  0  0
  -23.1125  -21.2004   -0.3328 O   0  0  0  0  0  0  0  0  0  0  0  0
  -22.4240  -20.3998   -2.5933 O   0  0  0  0  0  0  0  0  0  0  0  0
  -23.6762  -16.0748    4.0200 C   0  0  1  0  0  0  0  0  0  0  0  0
  -24.6874  -16.5427    3.0337 C   0  0  1  0  0  0  0  0  0  0  0  0
  -24.6853  -17.5489    1.9135 C   0  0  0  0  0  0  0  0  0  0  0  0
  -24.5484  -18.9413    2.5091 C   0  0  0  0  0  0  0  0  0  0  0  0
  -24.3556  -19.8630    1.4431 O   0  0  0  0  0  0  0  0  0  0  0  0
  1 11  1  0  0  0  0
  3 13  1  1  0  0  0
  3 17  2  0  0  0  0
  3 20  1  0  0  0  0
  3 26  1  0  0  0  0
  4 14  1  6  0  0  0
  4 18  1  0  0  0  0
  4 21  2  0  0  0  0
  4 20  1  0  0  0  0
  5 19  1  0  0  0  0
  5  7  1  0  0  0  0
  6  7  2  0  0  0  0
  6 12  1  0  0  0  0
  7  8  1  0  0  0  0
  8  9  1  0  0  0  0
  8 10  2  0  0  0  0
 10 11  1  0  0  0  0
 11 12  2  0  0  0  0
 15 23  1  0  0  0  0
 15 16  1  0  0  0  0
 16 19  1  0  0  0  0
 19 22  1  0  0  0  0
 22  2  1  6  0  0  0
 22 23  1  0  0  0  0
 23 24  1  1  0  0  0
 24 25  1  0  0  0  0
 25 26  1  0  0  0  0
M  CHG  2  13  -1  18  -1
M  END
>  <CHROM.1>
-145.84401201,-67.85236926,-52.91555256,-175.50423186,-111.21770037,-171.80986294
72.58782688,58.46365267,-23.61320241,-16.77402123,2.37897775,-1.56030623
-0.81510367,-2.49810772

>  <Name>
ligand

>  <RI>
0

>  <Rbt.Current_Directory>
/home/itssahil/PROJECTS/Mol_Feturizer/New_Systems/rnas/2GDI

>  <Rbt.Executable>
rbdock ($Id: //depot/dev/client3/rdock/2013.1/src/exe/rbdock.cxx#4 $)

>  <Rbt.Library>
libRbt.so (2013.1, Build901 2013/11/27)

>  <Rbt.Parameter_File>
/export/apps/rDock/src/rDock_2013.1_src/data/scripts/dock_solv.prm

>  <Rbt.Receptor>
prm/pocket_docking_7.prm

>  <SCORE>
-12.7804

>  <SCORE.INTER>
-13.7876

>  <SCORE.INTER.CONST>
1

>  <SCORE.INTER.POLAR>
0

>  <SCORE.INTER.ROT>
8

>  <SCORE.INTER.SOLV>
15.8185

>  <SCORE.INTER.VDW>
-23.3979

>  <SCORE.INTER.norm>
-0.530291

>  <SCORE.INTRA>
1.00713

>  <SCORE.INTRA.DIHEDRAL>
-0.735452

>  <SCORE.INTRA.DIHEDRAL.0>
8.13976

>  <SCORE.INTRA.POLAR>
0

>  <SCORE.INTRA.POLAR.0>
0

>  <SCORE.INTRA.REPUL>
0

>  <SCORE.INTRA.REPUL.0>
0

>  <SCORE.INTRA.SOLV>
2.91728

>  <SCORE.INTRA.SOLV.lig_0>
-82.9561

>  <SCORE.INTRA.VDW>
-0.0837813

>  <SCORE.INTRA.VDW.0>
-3.29171

>  <SCORE.INTRA.norm>
0.0387358

>  <SCORE.RESTR>
0

>  <SCORE.RESTR.CAVITY>
0

>  <SCORE.RESTR.norm>
0

>  <SCORE.SYSTEM>
0

>  <SCORE.SYSTEM.CONST>
0

>  <SCORE.SYSTEM.DIHEDRAL>
0

>  <SCORE.SYSTEM.SOLV>
0

>  <SCORE.SYSTEM.norm>
0

>  <SCORE.heavy>
26

>  <SCORE.norm>
-0.491556

>  <RMSD>
8.116

$$$$
ligand
 OpenBabel11021811433D
libRbt.so/2013.1/901 2013/11/27
 26 27  0  0  0  0  0  0  0  0999 V2000
  -23.6229  -15.5397    6.9081 C   0  0  0  0  0  0  0  0  0  0  0  0
  -19.4761  -11.2849    1.8102 C   0  0  0  0  0  0  0  0  0  0  0  0
  -17.4929  -14.8979    0.8614 P   0  0  1  0  0  0  0  0  0  0  0  0
  -15.0143  -16.0164   -0.1704 P   0  0  1  0  0  0  0  0  0  0  0  0
  -22.0693  -11.3765    3.2628 C   0  0  0  0  0  0  0  0  0  0  0  0
  -22.2930  -13.8126    3.9000 C   0  0  0  0  0  0  0  0  0  0  0  0
  -22.4900  -12.4760    4.2233 C   0  0  0  0  0  0  0  0  0  0  0  0
  -23.0652  -12.1651    5.4446 C   0  0  0  0  0  0  0  0  0  0  0  0
  -23.2783  -10.8759    5.8035 N   0  0  0  0  0  0  0  0  0  0  0  0
  -23.4187  -13.1589    6.2884 N   0  0  0  0  0  0  0  0  0  0  0  0
  -23.2185  -14.4515    5.9507 C   0  0  0  0  0  0  0  0  0  0  0  0
  -22.6579  -14.7741    4.7595 N   0  0  0  0  0  0  0  0  0  0  0  0
  -18.0346  -16.0402    1.6800 O   0  5  0  0  0  0  0  0  0  0  0  0
  -14.9800  -17.0456    0.9173 O   0  0  0  0  0  0  0  0  0  0  0  0
  -22.4677  -12.9691   -0.3555 S   0  0  0  0  0  0  0  0  0  0  0  0
  -22.9749  -12.4557    1.2232 C   0  0  0  0  0  0  0  0  0  0  0  0
  -16.8056  -13.7856    1.5998 O   0  0  0  0  0  0  0  0  0  0  0  0
  -14.7099  -16.6683   -1.4778 O   0  5  0  0  0  0  0  0  0  0  0  0
  -21.9342  -11.8996    1.9033 N   0  0  0  0  0  0  0  0  0  0  0  0
  -16.5498  -15.5132   -0.3043 O   0  0  0  0  0  0  0  0  0  0  0  0
  -14.1952  -14.7773    0.0684 O   0  0  0  0  0  0  0  0  0  0  0  0
  -20.7463  -11.8570    1.2395 C   0  0  1  0  0  0  0  0  0  0  0  0
  -20.8508  -12.4287   -0.1304 C   0  0  1  0  0  0  0  0  0  0  0  0
  -19.8848  -12.6342   -1.2669 C   0  0  0  0  0  0  0  0  0  0  0  0
  -18.5374  -13.0441   -0.6935 C   0  0  0  0  0  0  0  0  0  0  0  0
  -18.7209  -14.2334    0.0647 O   0  0  0  0  0  0  0  0  0  0  0  0
  1 11  1  0  0  0  0
  3 13  1  1  0  0  0
  3 17  2  0  0  0  0
  3 20  1  0  0  0  0
  3 26  1  0  0  0  0
  4 14  1  1  0  0  0
  4 18  1  0  0  0  0
  4 21  2  0  0  0  0
  4 20  1  0  0  0  0
  5 19  1  0  0  0  0
  5  7  1  0  0  0  0
  6  7  2  0  0  0  0
  6 12  1  0  0  0  0
  7  8  1  0  0  0  0
  8  9  1  0  0  0  0
  8 10  2  0  0  0  0
 10 11  1  0  0  0  0
 11 12  2  0  0  0  0
 15 23  1  0  0  0  0
 15 16  1  0  0  0  0
 16 19  1  0  0  0  0
 19 22  1  0  0  0  0
 22  2  1  6  0  0  0
 22 23  1  0  0  0  0
 23 24  1  1  0  0  0
 24 25  1  0  0  0  0
 25 26  1  0  0  0  0
M  CHG  2  13  -1  18  -1
M  END
>  <CHROM.1>
-80.06541743,60.92709605,20.38917783,55.62092764,-140.65634384,58.43468863
-177.33362771,173.77689734,-19.59456148,-13.89658351,1.73401783,-2.81705597
0.55301735,-1.09776824

>  <Name>
ligand

>  <RI>
0

>  <Rbt.Current_Directory>
/home/itssahil/PROJECTS/Mol_Feturizer/New_Systems/rnas/2GDI

>  <Rbt.Executable>
rbdock ($Id: //depot/dev/client3/rdock/2013.1/src/exe/rbdock.cxx#4 $)

>  <Rbt.Library>
libRbt.so (2013.1, Build901 2013/11/27)

>  <Rbt.Parameter_File>
/export/apps/rDock/src/rDock_2013.1_src/data/scripts/dock_solv.prm

>  <Rbt.Receptor>
prm/pocket_docking_6.prm

>  <SCORE>
-11.5717

>  <SCORE.INTER>
-10.7329

>  <SCORE.INTER.CONST>
1

>  <SCORE.INTER.POLAR>
0

>  <SCORE.INTER.ROT>
8

>  <SCORE.INTER.SOLV>
21.1007

>  <SCORE.INTER.VDW>
-23.1222

>  <SCORE.INTER.norm>
-0.412804

>  <SCORE.INTRA>
-0.838799

>  <SCORE.INTRA.DIHEDRAL>
-2.69995

>  <SCORE.INTRA.DIHEDRAL.0>
8.13976

>  <SCORE.INTRA.POLAR>
0

>  <SCORE.INTRA.POLAR.0>
0

>  <SCORE.INTRA.REPUL>
0

>  <SCORE.INTRA.REPUL.0>
0

>  <SCORE.INTRA.SOLV>
0.49348

>  <SCORE.INTRA.SOLV.lig_0>
-82.9561

>  <SCORE.INTRA.VDW>
0.264435

>  <SCORE.INTRA.VDW.0>
-3.29171

>  <SCORE.INTRA.norm>
-0.0322615

>  <SCORE.RESTR>
0

>  <SCORE.RESTR.CAVITY>
0

>  <SCORE.RESTR.norm>
0

>  <SCORE.SYSTEM>
0

>  <SCORE.SYSTEM.CONST>
0

>  <SCORE.SYSTEM.DIHEDRAL>
0

>  <SCORE.SYSTEM.SOLV>
0

>  <SCORE.SYSTEM.norm>
0

>  <SCORE.heavy>
26

>  <SCORE.norm>
-0.445066

>  <RMSD>
8.125

$$$$
ligand
 OpenBabel11021811433D
libRbt.so/2013.1/901 2013/11/27
 26 27  0  0  0  0  0  0  0  0999 V2000
  -23.4396  -20.2649    0.2822 C   0  0  0  0  0  0  0  0  0  0  0  0
  -22.3852  -12.8873    0.0772 C   0  0  0  0  0  0  0  0  0  0  0  0
  -23.2934  -13.2425    4.1610 P   0  0  1  0  0  0  0  0  0  0  0  0
  -22.2063  -15.6720    2.9886 P   0  0  1  0  0  0  0  0  0  0  0  0
  -23.2807  -14.9412   -1.8780 C   0  0  0  0  0  0  0  0  0  0  0  0
  -24.4155  -16.7835   -0.5710 C   0  0  0  0  0  0  0  0  0  0  0  0
  -23.3165  -16.3454   -1.2990 C   0  0  0  0  0  0  0  0  0  0  0  0
  -22.2598  -17.2187   -1.4981 C   0  0  0  0  0  0  0  0  0  0  0  0
  -21.1659  -16.8361   -2.2006 N   0  0  0  0  0  0  0  0  0  0  0  0
  -22.3196  -18.4671   -0.9856 N   0  0  0  0  0  0  0  0  0  0  0  0
  -23.3987  -18.8695   -0.2795 C   0  0  0  0  0  0  0  0  0  0  0  0
  -24.4413  -18.0280   -0.0740 N   0  0  0  0  0  0  0  0  0  0  0  0
  -24.4313  -14.0795    4.6836 O   0  5  0  0  0  0  0  0  0  0  0  0
  -22.5335  -16.6901    4.0374 O   0  0  0  0  0  0  0  0  0  0  0  0
  -26.4126  -12.9767   -0.4222 S   0  0  0  0  0  0  0  0  0  0  0  0
  -25.5788  -14.1464   -1.3968 C   0  0  0  0  0  0  0  0  0  0  0  0
  -22.8047  -12.1219    5.0328 O   0  0  0  0  0  0  0  0  0  0  0  0
  -23.3671  -15.5259    2.0622 O   0  5  0  0  0  0  0  0  0  0  0  0
  -24.2349  -14.0720   -1.1894 N   0  0  0  0  0  0  0  0  0  0  0  0
  -22.0871  -14.2377    3.7352 O   0  0  0  0  0  0  0  0  0  0  0  0
  -20.9025  -15.8677    2.2639 O   0  0  0  0  0  0  0  0  0  0  0  0
  -23.8234  -13.1321   -0.2946 C   0  0  1  0  0  0  0  0  0  0  0  0
  -24.9661  -12.3802    0.2914 C   0  0  1  0  0  0  0  0  0  0  0  0
  -25.0949  -11.2652    1.2950 C   0  0  0  0  0  0  0  0  0  0  0  0
  -24.9843  -11.8526    2.6932 C   0  0  0  0  0  0  0  0  0  0  0  0
  -23.7635  -12.5778    2.7748 O   0  0  0  0  0  0  0  0  0  0  0  0
  1 11  1  0  0  0  0
  3 13  1  1  0  0  0
  3 17  2  0  0  0  0
  3 20  1  0  0  0  0
  3 26  1  0  0  0  0
  4 14  1  1  0  0  0
  4 18  1  0  0  0  0
  4 21  2  0  0  0  0
  4 20  1  0  0  0  0
  5 19  1  0  0  0  0
  5  7  1  0  0  0  0
  6  7  2  0  0  0  0
  6 12  1  0  0  0  0
  7  8  1  0  0  0  0
  8  9  1  0  0  0  0
  8 10  2  0  0  0  0
 10 11  1  0  0  0  0
 11 12  2  0  0  0  0
 15 23  1  0  0  0  0
 15 16  1  0  0  0  0
 16 19  1  0  0  0  0
 19 22  1  0  0  0  0
 22  2  1  1  0  0  0
 22 23  1  0  0  0  0
 23 24  1  6  0  0  0
 24 25  1  0  0  0  0
 25 26  1  0  0  0  0
M  CHG  2  13  -1  18  -1
M  END
>  <CHROM.1>
39.92052126,-74.76986562,19.98651974,-81.72927874,101.02835114,55.25949449
175.79146650,52.05799861,-23.52148247,-14.85512572,1.22747670,-1.33491990
-1.03135200,0.90670873

>  <Name>
ligand

>  <RI>
0

>  <Rbt.Current_Directory>
/home/itssahil/PROJECTS/Mol_Feturizer/New_Systems/rnas/2GDI

>  <Rbt.Executable>
rbdock ($Id: //depot/dev/client3/rdock/2013.1/src/exe/rbdock.cxx#4 $)

>  <Rbt.Library>
libRbt.so (2013.1, Build901 2013/11/27)

>  <Rbt.Parameter_File>
/export/apps/rDock/src/rDock_2013.1_src/data/scripts/dock_solv.prm

>  <Rbt.Receptor>
prm/pocket_docking_7.prm

>  <SCORE>
-8.20496

>  <SCORE.INTER>
-6.77251

>  <SCORE.INTER.CONST>
1

>  <SCORE.INTER.POLAR>
0

>  <SCORE.INTER.ROT>
8

>  <SCORE.INTER.SOLV>
7.82687

>  <SCORE.INTER.VDW>
-16.0573

>  <SCORE.INTER.norm>
-0.260481

>  <SCORE.INTRA>
-1.43245

>  <SCORE.INTRA.DIHEDRAL>
-1.76779

>  <SCORE.INTRA.DIHEDRAL.0>
8.13976

>  <SCORE.INTRA.POLAR>
0

>  <SCORE.INTRA.POLAR.0>
0

>  <SCORE.INTRA.REPUL>
0

>  <SCORE.INTRA.REPUL.0>
0

>  <SCORE.INTRA.SOLV>
3.56142

>  <SCORE.INTRA.SOLV.lig_0>
-82.9561

>  <SCORE.INTRA.VDW>
-2.32926

>  <SCORE.INTRA.VDW.0>
-3.29171

>  <SCORE.INTRA.norm>
-0.0550943

>  <SCORE.RESTR>
0

>  <SCORE.RESTR.CAVITY>
0

>  <SCORE.RESTR.norm>
0

>  <SCORE.SYSTEM>
0

>  <SCORE.SYSTEM.CONST>
0

>  <SCORE.SYSTEM.DIHEDRAL>
0

>  <SCORE.SYSTEM.SOLV>
0

>  <SCORE.SYSTEM.norm>
0

>  <SCORE.heavy>
26

>  <SCORE.norm>
-0.315575

>  <RMSD>
8.139

$$$$
ligand
 OpenBabel11021811433D
libRbt.so/2013.1/901 2013/11/27
 26 27  0  0  0  0  0  0  0  0999 V2000
  -23.1644  -10.0477    4.4156 C   0  0  0  0  0  0  0  0  0  0  0  0
  -27.0541  -13.7859   -2.3866 C   0  0  0  0  0  0  0  0  0  0  0  0
  -22.9202  -16.4515   -3.5555 P   0  0  1  0  0  0  0  0  0  0  0  0
  -23.5182  -19.2969   -3.6245 P   0  0  1  0  0  0  0  0  0  0  0  0
  -26.0831  -12.4598    0.0917 C   0  0  0  0  0  0  0  0  0  0  0  0
  -25.5660  -10.5138    1.6200 C   0  0  0  0  0  0  0  0  0  0  0  0
  -25.3035  -11.8204    1.2282 C   0  0  0  0  0  0  0  0  0  0  0  0
  -24.3261  -12.5333    1.9031 C   0  0  0  0  0  0  0  0  0  0  0  0
  -24.0340  -13.8103    1.5561 N   0  0  0  0  0  0  0  0  0  0  0  0
  -23.6553  -11.9489    2.9195 N   0  0  0  0  0  0  0  0  0  0  0  0
  -23.9275  -10.6760    3.2810 C   0  0  0  0  0  0  0  0  0  0  0  0
  -24.8797   -9.9632    2.6311 N   0  0  0  0  0  0  0  0  0  0  0  0
  -22.7056  -16.5802   -2.0703 O   0  5  0  0  0  0  0  0  0  0  0  0
  -23.8455  -19.3948   -2.1661 O   0  0  0  0  0  0  0  0  0  0  0  0
  -23.5016  -11.8834   -2.8732 S   0  0  0  0  0  0  0  0  0  0  0  0
  -24.1314  -11.7491   -1.2613 C   0  0  0  0  0  0  0  0  0  0  0  0
  -21.7102  -16.1959   -4.4072 O   0  0  0  0  0  0  0  0  0  0  0  0
  -24.5256  -20.0683   -4.4102 O   0  5  0  0  0  0  0  0  0  0  0  0
  -25.3208  -12.4041   -1.1557 N   0  0  0  0  0  0  0  0  0  0  0  0
  -23.7436  -17.7522   -4.0625 O   0  0  0  0  0  0  0  0  0  0  0  0
  -22.1015  -19.6298   -4.0060 O   0  0  0  0  0  0  0  0  0  0  0  0
  -25.7666  -13.0116   -2.2895 C   0  0  1  0  0  0  0  0  0  0  0  0
  -24.8218  -12.8367   -3.4258 C   0  0  1  0  0  0  0  0  0  0  0  0
  -24.8062  -13.2775   -4.8654 C   0  0  0  0  0  0  0  0  0  0  0  0
  -23.8602  -14.4600   -5.0031 C   0  0  0  0  0  0  0  0  0  0  0  0
  -23.9286  -15.2248   -3.8058 O   0  0  0  0  0  0  0  0  0  0  0  0
  1 11  1  0  0  0  0
  3 13  1  1  0  0  0
  3 17  2  0  0  0  0
  3 20  1  0  0  0  0
  3 26  1  0  0  0  0
  4 14  1  1  0  0  0
  4 18  1  0  0  0  0
  4 21  2  0  0  0  0
  4 20  1  0  0  0  0
  5 19  1  0  0  0  0
  5  7  1  0  0  0  0
  6  7  2  0  0  0  0
  6 12  1  0  0  0  0
  7  8  1  0  0  0  0
  8  9  1  0  0  0  0
  8 10  2  0  0  0  0
 10 11  1  0  0  0  0
 11 12  2  0  0  0  0
 15 23  1  0  0  0  0
 15 16  1  0  0  0  0
 16 19  1  0  0  0  0
 19 22  1  0  0  0  0
 22  2  1  1  0  0  0
 22 23  1  0  0  0  0
 23 24  1  6  0  0  0
 24 25  1  0  0  0  0
 25 26  1  0  0  0  0
M  CHG  2  13  -1  18  -1
M  END
>  <CHROM.1>
-42.20436874,-5.47814057,98.75709982,64.94451808,78.64923031,33.77816998
-172.76590013,150.50188582,-24.04110610,-14.53792203,-1.73087009,-2.09637347
1.31951122,-1.95207543

>  <Name>
ligand

>  <RI>
0

>  <Rbt.Current_Directory>
/home/itssahil/PROJECTS/Mol_Feturizer/New_Systems/rnas/2GDI

>  <Rbt.Executable>
rbdock ($Id: //depot/dev/client3/rdock/2013.1/src/exe/rbdock.cxx#4 $)

>  <Rbt.Library>
libRbt.so (2013.1, Build901 2013/11/27)

>  <Rbt.Parameter_File>
/export/apps/rDock/src/rDock_2013.1_src/data/scripts/dock_solv.prm

>  <Rbt.Receptor>
prm/pocket_docking_6.prm

>  <SCORE>
-9.28584

>  <SCORE.INTER>
-11.3614

>  <SCORE.INTER.CONST>
1

>  <SCORE.INTER.POLAR>
0

>  <SCORE.INTER.ROT>
8

>  <SCORE.INTER.SOLV>
6.49215

>  <SCORE.INTER.VDW>
-18.6717

>  <SCORE.INTER.norm>
-0.436977

>  <SCORE.INTRA>
2.07557

>  <SCORE.INTRA.DIHEDRAL>
1.66728

>  <SCORE.INTRA.DIHEDRAL.0>
8.13976

>  <SCORE.INTRA.POLAR>
0

>  <SCORE.INTRA.POLAR.0>
0

>  <SCORE.INTRA.REPUL>
0

>  <SCORE.INTRA.REPUL.0>
0

>  <SCORE.INTRA.SOLV>
1.04235

>  <SCORE.INTRA.SOLV.lig_0>
-82.9561

>  <SCORE.INTRA.VDW>
0.72075

>  <SCORE.INTRA.VDW.0>
-3.29171

>  <SCORE.INTRA.norm>
0.0798296

>  <SCORE.RESTR>
0

>  <SCORE.RESTR.CAVITY>
0

>  <SCORE.RESTR.norm>
0

>  <SCORE.SYSTEM>
0

>  <SCORE.SYSTEM.CONST>
0

>  <SCORE.SYSTEM.DIHEDRAL>
0

>  <SCORE.SYSTEM.SOLV>
0

>  <SCORE.SYSTEM.norm>
0

>  <SCORE.heavy>
26

>  <SCORE.norm>
-0.357148

>  <RMSD>
8.169

$$$$
ligand
 OpenBabel11021811433D
libRbt.so/2013.1/901 2013/11/27
 26 27  0  0  0  0  0  0  0  0999 V2000
  -24.4344  -11.4323    9.2601 C   0  0  0  0  0  0  0  0  0  0  0  0
  -22.1982  -12.5117    2.8036 C   0  0  0  0  0  0  0  0  0  0  0  0
  -25.7196  -16.0277    3.4806 P   0  0  1  0  0  0  0  0  0  0  0  0
  -23.5188  -15.9296    5.3795 P   0  0  1  0  0  0  0  0  0  0  0  0
  -23.0963   -9.8920    3.8870 C   0  0  0  0  0  0  0  0  0  0  0  0
  -23.9434  -11.5669    5.5802 C   0  0  0  0  0  0  0  0  0  0  0  0
  -23.4592  -10.2940    5.3065 C   0  0  0  0  0  0  0  0  0  0  0  0
  -23.3009   -9.4029    6.3553 C   0  0  0  0  0  0  0  0  0  0  0  0
  -22.8331   -8.1500    6.1372 N   0  0  0  0  0  0  0  0  0  0  0  0
  -23.6171   -9.7870    7.6111 N   0  0  0  0  0  0  0  0  0  0  0  0
  -24.0880  -11.0301    7.8521 C   0  0  0  0  0  0  0  0  0  0  0  0
  -24.2501  -11.9146    6.8378 N   0  0  0  0  0  0  0  0  0  0  0  0
  -25.2927  -17.3808    2.9752 O   0  5  0  0  0  0  0  0  0  0  0  0
  -22.8307  -14.6967    4.8795 O   0  0  0  0  0  0  0  0  0  0  0  0
  -25.7775  -11.3048    1.3175 S   0  0  0  0  0  0  0  0  0  0  0  0
  -25.0966  -10.1809    2.4517 C   0  0  0  0  0  0  0  0  0  0  0  0
  -27.1888  -15.7182    3.4654 O   0  0  0  0  0  0  0  0  0  0  0  0
  -23.5278  -15.9200    6.8718 O   0  5  0  0  0  0  0  0  0  0  0  0
  -23.8997  -10.6352    2.9162 N   0  0  0  0  0  0  0  0  0  0  0  0
  -25.0789  -15.8125    4.9537 O   0  0  0  0  0  0  0  0  0  0  0  0
  -23.0334  -17.2335    4.8073 O   0  0  0  0  0  0  0  0  0  0  0  0
  -23.4873  -11.8345    2.4212 C   0  0  1  0  0  0  0  0  0  0  0  0
  -24.4541  -12.3961    1.4392 C   0  0  1  0  0  0  0  0  0  0  0  0
  -24.5097  -13.6512    0.6094 C   0  0  0  0  0  0  0  0  0  0  0  0
  -25.4778  -14.6250    1.2626 C   0  0  0  0  0  0  0  0  0  0  0  0
  -25.0031  -14.9113    2.5725 O   0  0  0  0  0  0  0  0  0  0  0  0
  1 11  1  0  0  0  0
  3 13  1  6  0  0  0
  3 17  2  0  0  0  0
  3 20  1  0  0  0  0
  3 26  1  0  0  0  0
  4 14  1  6  0  0  0
  4 18  1  0  0  0  0
  4 21  2  0  0  0  0
  4 20  1  0  0  0  0
  5 19  1  0  0  0  0
  5  7  1  0  0  0  0
  6  7  2  0  0  0  0
  6 12  1  0  0  0  0
  7  8  1  0  0  0  0
  8  9  1  0  0  0  0
  8 10  2  0  0  0  0
 10 11  1  0  0  0  0
 11 12  2  0  0  0  0
 15 23  1  0  0  0  0
 15 16  1  0  0  0  0
 16 19  1  0  0  0  0
 19 22  1  0  0  0  0
 22  2  1  6  0  0  0
 22 23  1  0  0  0  0
 23 24  1  1  0  0  0
 24 25  1  0  0  0  0
 25 26  1  0  0  0  0
M  CHG  2  13  -1  18  -1
M  END
>  <CHROM.1>
54.27677521,90.42931920,28.51223635,75.30261665,-76.15285144,-59.83438014
-173.72027859,76.48142136,-24.31467620,-13.20418065,4.24050877,-0.74990113
1.30100903,2.72517225

>  <Name>
ligand

>  <RI>
0

>  <Rbt.Current_Directory>
/home/itssahil/PROJECTS/Mol_Feturizer/New_Systems/rnas/2GDI

>  <Rbt.Executable>
rbdock ($Id: //depot/dev/client3/rdock/2013.1/src/exe/rbdock.cxx#4 $)

>  <Rbt.Library>
libRbt.so (2013.1, Build901 2013/11/27)

>  <Rbt.Parameter_File>
/export/apps/rDock/src/rDock_2013.1_src/data/scripts/dock_solv.prm

>  <Rbt.Receptor>
prm/pocket_docking_8.prm

>  <SCORE>
-14.2232

>  <SCORE.INTER>
-11.593

>  <SCORE.INTER.CONST>
1

>  <SCORE.INTER.POLAR>
0

>  <SCORE.INTER.ROT>
8

>  <SCORE.INTER.SOLV>
18.7997

>  <SCORE.INTER.VDW>
-22.9286

>  <SCORE.INTER.norm>
-0.445886

>  <SCORE.INTRA>
-2.63018

>  <SCORE.INTRA.DIHEDRAL>
-2.43313

>  <SCORE.INTRA.DIHEDRAL.0>
8.13976

>  <SCORE.INTRA.POLAR>
0

>  <SCORE.INTRA.POLAR.0>
0

>  <SCORE.INTRA.REPUL>
0

>  <SCORE.INTRA.REPUL.0>
0

>  <SCORE.INTRA.SOLV>
-0.26485

>  <SCORE.INTRA.SOLV.lig_0>
-82.9561

>  <SCORE.INTRA.VDW>
-1.28119

>  <SCORE.INTRA.VDW.0>
-3.29171

>  <SCORE.INTRA.norm>
-0.101161

>  <SCORE.RESTR>
0

>  <SCORE.RESTR.CAVITY>
0

>  <SCORE.RESTR.norm>
0

>  <SCORE.SYSTEM>
0

>  <SCORE.SYSTEM.CONST>
0

>  <SCORE.SYSTEM.DIHEDRAL>
0

>  <SCORE.SYSTEM.SOLV>
0

>  <SCORE.SYSTEM.norm>
0

>  <SCORE.heavy>
26

>  <SCORE.norm>
-0.547047

>  <RMSD>
8.183

$$$$
ligand
 OpenBabel11021811433D
libRbt.so/2013.1/901 2013/11/27
 26 27  0  0  0  0  0  0  0  0999 V2000
  -22.8633  -11.6938    4.7662 C   0  0  0  0  0  0  0  0  0  0  0  0
  -20.4370  -18.4188    4.3957 C   0  0  0  0  0  0  0  0  0  0  0  0
  -20.6585  -16.7046   -0.3585 P   0  0  1  0  0  0  0  0  0  0  0  0
  -23.0691  -15.1630    0.1622 P   0  0  1  0  0  0  0  0  0  0  0  0
  -22.8263  -17.3466    5.8044 C   0  0  0  0  0  0  0  0  0  0  0  0
  -22.4080  -15.3521    4.3086 C   0  0  0  0  0  0  0  0  0  0  0  0
  -22.8271  -15.8513    5.5354 C   0  0  0  0  0  0  0  0  0  0  0  0
  -23.2585  -14.9596    6.5037 C   0  0  0  0  0  0  0  0  0  0  0  0
  -23.6754  -15.3992    7.7159 N   0  0  0  0  0  0  0  0  0  0  0  0
  -23.2635  -13.6353    6.2373 N   0  0  0  0  0  0  0  0  0  0  0  0
  -22.8495  -13.1739    5.0370 C   0  0  0  0  0  0  0  0  0  0  0  0
  -22.4231  -14.0319    4.0781 N   0  0  0  0  0  0  0  0  0  0  0  0
  -19.9699  -17.1852   -1.6088 O   0  5  0  0  0  0  0  0  0  0  0  0
  -22.3784  -14.3225    1.1917 O   0  0  0  0  0  0  0  0  0  0  0  0
  -23.9268  -19.2627    2.5022 S   0  0  0  0  0  0  0  0  0  0  0  0
  -24.1472  -18.3523    3.9636 C   0  0  0  0  0  0  0  0  0  0  0  0
  -19.8107  -16.0238    0.6772 O   0  0  0  0  0  0  0  0  0  0  0  0
  -23.8785  -14.2839   -0.7318 O   0  5  0  0  0  0  0  0  0  0  0  0
  -22.9471  -18.0981    4.5551 N   0  0  0  0  0  0  0  0  0  0  0  0
  -21.9194  -15.7853   -0.7968 O   0  0  0  0  0  0  0  0  0  0  0  0
  -23.8485  -16.3386    0.6856 O   0  0  0  0  0  0  0  0  0  0  0  0
  -21.8523  -18.5885    3.9113 C   0  0  1  0  0  0  0  0  0  0  0  0
  -22.2146  -19.3016    2.6565 C   0  0  1  0  0  0  0  0  0  0  0  0
  -21.4364  -20.0190    1.5856 C   0  0  0  0  0  0  0  0  0  0  0  0
  -20.5227  -19.0192    0.8943 C   0  0  0  0  0  0  0  0  0  0  0  0
  -21.3294  -17.9777    0.3580 O   0  0  0  0  0  0  0  0  0  0  0  0
  1 11  1  0  0  0  0
  3 13  1  6  0  0  0
  3 17  2  0  0  0  0
  3 20  1  0  0  0  0
  3 26  1  0  0  0  0
  4 14  1  1  0  0  0
  4 18  1  0  0  0  0
  4 21  2  0  0  0  0
  4 20  1  0  0  0  0
  5 19  1  0  0  0  0
  5  7  1  0  0  0  0
  6  7  2  0  0  0  0
  6 12  1  0  0  0  0
  7  8  1  0  0  0  0
  8  9  1  0  0  0  0
  8 10  2  0  0  0  0
 10 11  1  0  0  0  0
 11 12  2  0  0  0  0
 15 23  1  0  0  0  0
 15 16  1  0  0  0  0
 16 19  1  0  0  0  0
 19 22  1  0  0  0  0
 22  2  1  6  0  0  0
 22 23  1  0  0  0  0
 23 24  1  1  0  0  0
 24 25  1  0  0  0  0
 25 26  1  0  0  0  0
M  CHG  2  13  -1  18  -1
M  END
>  <CHROM.1>
172.89077833,-83.81607604,-25.62212909,57.58947706,118.01131533,-58.22494223
176.01646867,65.61880591,-22.33243202,-16.45828222,2.44869873,3.00735700
-1.30850686,2.65522343

>  <Name>
ligand

>  <RI>
0

>  <Rbt.Current_Directory>
/home/itssahil/PROJECTS/Mol_Feturizer/New_Systems/rnas/2GDI

>  <Rbt.Executable>
rbdock ($Id: //depot/dev/client3/rdock/2013.1/src/exe/rbdock.cxx#4 $)

>  <Rbt.Library>
libRbt.so (2013.1, Build901 2013/11/27)

>  <Rbt.Parameter_File>
/export/apps/rDock/src/rDock_2013.1_src/data/scripts/dock_solv.prm

>  <Rbt.Receptor>
prm/pocket_docking_7.prm

>  <SCORE>
-12.6415

>  <SCORE.INTER>
-9.01719

>  <SCORE.INTER.CONST>
1

>  <SCORE.INTER.POLAR>
0

>  <SCORE.INTER.ROT>
8

>  <SCORE.INTER.SOLV>
7.45777

>  <SCORE.INTER.VDW>
-17.4307

>  <SCORE.INTER.norm>
-0.346815

>  <SCORE.INTRA>
-3.62435

>  <SCORE.INTRA.DIHEDRAL>
-3.34565

>  <SCORE.INTRA.DIHEDRAL.0>
8.13976

>  <SCORE.INTRA.POLAR>
0

>  <SCORE.INTRA.POLAR.0>
0

>  <SCORE.INTRA.REPUL>
0

>  <SCORE.INTRA.REPUL.0>
0

>  <SCORE.INTRA.SOLV>
0.0583587

>  <SCORE.INTRA.SOLV.lig_0>
-82.9561

>  <SCORE.INTRA.VDW>
-1.9807

>  <SCORE.INTRA.VDW.0>
-3.29171

>  <SCORE.INTRA.norm>
-0.139398

>  <SCORE.RESTR>
0

>  <SCORE.RESTR.CAVITY>
0

>  <SCORE.RESTR.norm>
0

>  <SCORE.SYSTEM>
0

>  <SCORE.SYSTEM.CONST>
0

>  <SCORE.SYSTEM.DIHEDRAL>
0

>  <SCORE.SYSTEM.SOLV>
0

>  <SCORE.SYSTEM.norm>
0

>  <SCORE.heavy>
26

>  <SCORE.norm>
-0.486213

>  <RMSD>
8.186

$$$$
ligand
 OpenBabel11021811433D
libRbt.so/2013.1/901 2013/11/27
 26 27  0  0  0  0  0  0  0  0999 V2000
  -23.5008  -20.3299    0.2155 C   0  0  0  0  0  0  0  0  0  0  0  0
  -22.4960  -12.9427    0.2856 C   0  0  0  0  0  0  0  0  0  0  0  0
  -24.0557  -13.6537    4.4009 P   0  0  1  0  0  0  0  0  0  0  0  0
  -22.7779  -15.9580    3.1695 P   0  0  1  0  0  0  0  0  0  0  0  0
  -23.2972  -14.9392   -1.7675 C   0  0  0  0  0  0  0  0  0  0  0  0
  -24.4707  -16.8310   -0.5697 C   0  0  0  0  0  0  0  0  0  0  0  0
  -23.3452  -16.3614   -1.2349 C   0  0  0  0  0  0  0  0  0  0  0  0
  -22.2728  -17.2196   -1.4150 C   0  0  0  0  0  0  0  0  0  0  0  0
  -21.1530  -16.8064   -2.0566 N   0  0  0  0  0  0  0  0  0  0  0  0
  -22.3434  -18.4840   -0.9451 N   0  0  0  0  0  0  0  0  0  0  0  0
  -23.4484  -18.9172   -0.2997 C   0  0  0  0  0  0  0  0  0  0  0  0
  -24.5066  -18.0908   -0.1137 N   0  0  0  0  0  0  0  0  0  0  0  0
  -25.2833  -14.5035    4.5990 O   0  5  0  0  0  0  0  0  0  0  0  0
  -23.3315  -15.5603    1.8358 O   0  0  0  0  0  0  0  0  0  0  0  0
  -26.4995  -13.0423   -0.3767 S   0  0  0  0  0  0  0  0  0  0  0  0
  -25.6187  -14.1750   -1.3536 C   0  0  0  0  0  0  0  0  0  0  0  0
  -23.7342  -12.6475    5.4681 O   0  0  0  0  0  0  0  0  0  0  0  0
  -21.3323  -16.2984    3.0232 O   0  5  0  0  0  0  0  0  0  0  0  0
  -24.2847  -14.0986   -1.0904 N   0  0  0  0  0  0  0  0  0  0  0  0
  -22.8009  -14.6374    4.1098 O   0  0  0  0  0  0  0  0  0  0  0  0
  -23.5518  -17.0089    3.9179 O   0  0  0  0  0  0  0  0  0  0  0  0
  -23.9163  -13.1849   -0.1508 C   0  0  1  0  0  0  0  0  0  0  0  0
  -25.0872  -12.4594    0.4125 C   0  0  1  0  0  0  0  0  0  0  0  0
  -25.2643  -11.3778    1.4448 C   0  0  0  0  0  0  0  0  0  0  0  0
  -25.3900  -12.0266    2.8143 C   0  0  0  0  0  0  0  0  0  0  0  0
  -24.2379  -12.8319    3.0313 O   0  0  0  0  0  0  0  0  0  0  0  0
  1 11  1  0  0  0  0
  3 13  1  1  0  0  0
  3 17  2  0  0  0  0
  3 20  1  0  0  0  0
  3 26  1  0  0  0  0
  4 14  1  6  0  0  0
  4 18  1  0  0  0  0
  4 21  2  0  0  0  0
  4 20  1  0  0  0  0
  5 19  1  0  0  0  0
  5  7  1  0  0  0  0
  6  7  2  0  0  0  0
  6 12  1  0  0  0  0
  7  8  1  0  0  0  0
  8  9  1  0  0  0  0
  8 10  2  0  0  0  0
 10 11  1  0  0  0  0
 11 12  2  0  0  0  0
 15 23  1  0  0  0  0
 15 16  1  0  0  0  0
 16 19  1  0  0  0  0
 19 22  1  0  0  0  0
 22  2  1  1  0  0  0
 22 23  1  0  0  0  0
 23 24  1  6  0  0  0
 24 25  1  0  0  0  0
 25 26  1  0  0  0  0
M  CHG  2  13  -1  18  -1
M  END
>  <CHROM.1>
41.73403049,-74.76283636,20.21367642,51.93061236,93.60347616,56.43709649
179.62392065,54.20797677,-23.83628853,-15.02737488,1.35407546,-1.05702055
-1.11345483,1.21680598

>  <Name>
ligand

>  <RI>
0

>  <Rbt.Current_Directory>
/home/itssahil/PROJECTS/Mol_Feturizer/New_Systems/rnas/2GDI

>  <Rbt.Executable>
rbdock ($Id: //depot/dev/client3/rdock/2013.1/src/exe/rbdock.cxx#4 $)

>  <Rbt.Library>
libRbt.so (2013.1, Build901 2013/11/27)

>  <Rbt.Parameter_File>
/export/apps/rDock/src/rDock_2013.1_src/data/scripts/dock_solv.prm

>  <Rbt.Receptor>
prm/pocket_docking_8.prm

>  <SCORE>
-9.13848

>  <SCORE.INTER>
-5.31011

>  <SCORE.INTER.CONST>
1

>  <SCORE.INTER.POLAR>
0

>  <SCORE.INTER.ROT>
8

>  <SCORE.INTER.SOLV>
7.29564

>  <SCORE.INTER.VDW>
-14.9053

>  <SCORE.INTER.norm>
-0.204235

>  <SCORE.INTRA>
-3.82836

>  <SCORE.INTRA.DIHEDRAL>
-2.58603

>  <SCORE.INTRA.DIHEDRAL.0>
8.13976

>  <SCORE.INTRA.POLAR>
0

>  <SCORE.INTRA.POLAR.0>
0

>  <SCORE.INTRA.REPUL>
0

>  <SCORE.INTRA.REPUL.0>
0

>  <SCORE.INTRA.SOLV>
-0.309734

>  <SCORE.INTRA.SOLV.lig_0>
-82.9561

>  <SCORE.INTRA.VDW>
-2.38048

>  <SCORE.INTRA.VDW.0>
-3.29171

>  <SCORE.INTRA.norm>
-0.147245

>  <SCORE.RESTR>
0

>  <SCORE.RESTR.CAVITY>
0

>  <SCORE.RESTR.norm>
0

>  <SCORE.SYSTEM>
0

>  <SCORE.SYSTEM.CONST>
0

>  <SCORE.SYSTEM.DIHEDRAL>
0

>  <SCORE.SYSTEM.SOLV>
0

>  <SCORE.SYSTEM.norm>
0

>  <SCORE.heavy>
26

>  <SCORE.norm>
-0.35148

>  <RMSD>
8.215

$$$$
ligand
 OpenBabel11021811433D
libRbt.so/2013.1/901 2013/11/27
 26 27  0  0  0  0  0  0  0  0999 V2000
  -22.4769  -11.9586    3.5938 C   0  0  0  0  0  0  0  0  0  0  0  0
  -21.3076  -19.7591    1.6394 C   0  0  0  0  0  0  0  0  0  0  0  0
  -23.1038  -19.0890   -2.1693 P   0  0  1  0  0  0  0  0  0  0  0  0
  -20.2702  -18.8264   -2.7698 P   0  0  1  0  0  0  0  0  0  0  0  0
  -21.5428  -17.6286    3.7007 C   0  0  0  0  0  0  0  0  0  0  0  0
  -22.4741  -15.5036    4.7043 C   0  0  0  0  0  0  0  0  0  0  0  0
  -21.7978  -16.1313    3.6658 C   0  0  0  0  0  0  0  0  0  0  0  0
  -21.3487  -15.3628    2.6043 C   0  0  0  0  0  0  0  0  0  0  0  0
  -20.6853  -15.9305    1.5680 N   0  0  0  0  0  0  0  0  0  0  0  0
  -21.5748  -14.0311    2.6014 N   0  0  0  0  0  0  0  0  0  0  0  0
  -22.2365  -13.4437    3.6223 C   0  0  0  0  0  0  0  0  0  0  0  0
  -22.6840  -14.1803    4.6685 N   0  0  0  0  0  0  0  0  0  0  0  0
  -23.4442  -17.6371   -2.3802 O   0  5  0  0  0  0  0  0  0  0  0  0
  -20.4854  -19.5364   -4.0710 O   0  0  0  0  0  0  0  0  0  0  0  0
  -25.1177  -19.1724    2.9104 S   0  0  0  0  0  0  0  0  0  0  0  0
  -23.9713  -18.1255    3.6871 C   0  0  0  0  0  0  0  0  0  0  0  0
  -23.4897  -20.0523   -3.2547 O   0  0  0  0  0  0  0  0  0  0  0  0
  -20.3715  -17.3535   -2.9877 O   0  5  0  0  0  0  0  0  0  0  0  0
  -22.7133  -18.3651    3.2235 N   0  0  0  0  0  0  0  0  0  0  0  0
  -21.5262  -19.1923   -1.8121 O   0  0  0  0  0  0  0  0  0  0  0  0
  -19.0386  -19.2190   -2.0003 O   0  0  0  0  0  0  0  0  0  0  0  0
  -22.6041  -19.3402    2.2798 C   0  0  1  0  0  0  0  0  0  0  0  0
  -23.9235  -19.9378    1.9383 C   0  0  1  0  0  0  0  0  0  0  0  0
  -24.3827  -21.0181    0.9954 C   0  0  0  0  0  0  0  0  0  0  0  0
  -23.6138  -20.8855   -0.3097 C   0  0  0  0  0  0  0  0  0  0  0  0
  -23.8439  -19.5819   -0.8300 O   0  0  0  0  0  0  0  0  0  0  0  0
  1 11  1  0  0  0  0
  3 13  1  6  0  0  0
  3 17  2  0  0  0  0
  3 20  1  0  0  0  0
  3 26  1  0  0  0  0
  4 14  1  6  0  0  0
  4 18  1  0  0  0  0
  4 21  2  0  0  0  0
  4 20  1  0  0  0  0
  5 19  1  0  0  0  0
  5  7  1  0  0  0  0
  6  7  2  0  0  0  0
  6 12  1  0  0  0  0
  7  8  1  0  0  0  0
  8  9  1  0  0  0  0
  8 10  2  0  0  0  0
 10 11  1  0  0  0  0
 11 12  2  0  0  0  0
 15 23  1  0  0  0  0
 15 16  1  0  0  0  0
 16 19  1  0  0  0  0
 19 22  1  0  0  0  0
 22  2  1  6  0  0  0
 22 23  1  0  0  0  0
 23 24  1  1  0  0  0
 24 25  1  0  0  0  0
 25 26  1  0  0  0  0
M  CHG  2  13  -1  18  -1
M  END
>  <CHROM.1>
-65.23952853,-49.46177022,82.93748339,-50.60203649,140.63280544,-57.82124261
176.56850873,-174.45189861,-22.34828796,-17.96262488,0.57947372,-1.73697282
-0.87470542,-2.27214112

>  <Name>
ligand

>  <RI>
0

>  <Rbt.Current_Directory>
/home/itssahil/PROJECTS/Mol_Feturizer/New_Systems/rnas/2GDI

>  <Rbt.Executable>
rbdock ($Id: //depot/dev/client3/rdock/2013.1/src/exe/rbdock.cxx#4 $)

>  <Rbt.Library>
libRbt.so (2013.1, Build901 2013/11/27)

>  <Rbt.Parameter_File>
/export/apps/rDock/src/rDock_2013.1_src/data/scripts/dock_solv.prm

>  <Rbt.Receptor>
prm/pocket_docking_7.prm

>  <SCORE>
-14.6566

>  <SCORE.INTER>
-13.6612

>  <SCORE.INTER.CONST>
1

>  <SCORE.INTER.POLAR>
0

>  <SCORE.INTER.ROT>
8

>  <SCORE.INTER.SOLV>
10.4419

>  <SCORE.INTER.VDW>
-21.5215

>  <SCORE.INTER.norm>
-0.525432

>  <SCORE.INTRA>
-0.995368

>  <SCORE.INTRA.DIHEDRAL>
-3.25887

>  <SCORE.INTRA.DIHEDRAL.0>
8.13976

>  <SCORE.INTRA.POLAR>
0

>  <SCORE.INTRA.POLAR.0>
0

>  <SCORE.INTRA.REPUL>
0

>  <SCORE.INTRA.REPUL.0>
0

>  <SCORE.INTRA.SOLV>
1.89663

>  <SCORE.INTRA.SOLV.lig_0>
-82.9561

>  <SCORE.INTRA.VDW>
-0.31425

>  <SCORE.INTRA.VDW.0>
-3.29171

>  <SCORE.INTRA.norm>
-0.0382834

>  <SCORE.RESTR>
0

>  <SCORE.RESTR.CAVITY>
0

>  <SCORE.RESTR.norm>
0

>  <SCORE.SYSTEM>
0

>  <SCORE.SYSTEM.CONST>
0

>  <SCORE.SYSTEM.DIHEDRAL>
0

>  <SCORE.SYSTEM.SOLV>
0

>  <SCORE.SYSTEM.norm>
0

>  <SCORE.heavy>
26

>  <SCORE.norm>
-0.563716

>  <RMSD>
8.224

$$$$
ligand
 OpenBabel11021811433D
libRbt.so/2013.1/901 2013/11/27
 26 27  0  0  0  0  0  0  0  0999 V2000
  -23.4830  -15.6268    6.7935 C   0  0  0  0  0  0  0  0  0  0  0  0
  -21.1487  -12.5281   -0.9802 C   0  0  0  0  0  0  0  0  0  0  0  0
  -23.2662  -14.6038   -4.9405 P   0  0  1  0  0  0  0  0  0  0  0  0
  -21.0683  -15.3150   -6.7076 P   0  0  1  0  0  0  0  0  0  0  0  0
  -21.6023  -13.6843    1.7218 C   0  0  0  0  0  0  0  0  0  0  0  0
  -21.9826  -15.5395    3.3962 C   0  0  0  0  0  0  0  0  0  0  0  0
  -22.1093  -14.1979    3.0587 C   0  0  0  0  0  0  0  0  0  0  0  0
  -22.6948  -13.3352    3.9708 C   0  0  0  0  0  0  0  0  0  0  0  0
  -22.8412  -12.0185    3.6858 N   0  0  0  0  0  0  0  0  0  0  0  0
  -23.1258  -13.8118    5.1590 N   0  0  0  0  0  0  0  0  0  0  0  0
  -22.9930  -15.1212    5.4637 C   0  0  0  0  0  0  0  0  0  0  0  0
  -22.4235  -15.9798    4.5829 N   0  0  0  0  0  0  0  0  0  0  0  0
  -23.9809  -13.9858   -6.1134 O   0  5  0  0  0  0  0  0  0  0  0  0
  -21.5298  -14.4065   -7.8054 O   0  0  0  0  0  0  0  0  0  0  0  0
  -25.0763  -12.8011    0.0077 S   0  0  0  0  0  0  0  0  0  0  0  0
  -24.0180  -13.3852    1.2534 C   0  0  0  0  0  0  0  0  0  0  0  0
  -23.8243  -15.8844   -4.3899 O   0  0  0  0  0  0  0  0  0  0  0  0
  -19.5918  -15.1773   -6.5397 O   0  5  0  0  0  0  0  0  0  0  0  0
  -22.7165  -13.2697    0.8693 N   0  0  0  0  0  0  0  0  0  0  0  0
  -21.6983  -14.7515   -5.3240 O   0  0  0  0  0  0  0  0  0  0  0  0
  -21.5128  -16.7488   -6.8076 O   0  0  0  0  0  0  0  0  0  0  0  0
  -22.5073  -12.7406   -0.3675 C   0  0  1  0  0  0  0  0  0  0  0  0
  -23.7826  -12.3777   -1.0431 C   0  0  1  0  0  0  0  0  0  0  0  0
  -24.1389  -11.7786   -2.3777 C   0  0  0  0  0  0  0  0  0  0  0  0
  -24.4875  -12.9035   -3.3397 C   0  0  0  0  0  0  0  0  0  0  0  0
  -23.2784  -13.5392   -3.7361 O   0  0  0  0  0  0  0  0  0  0  0  0
  1 11  1  0  0  0  0
  3 13  1  6  0  0  0
  3 17  2  0  0  0  0
  3 20  1  0  0  0  0
  3 26  1  0  0  0  0
  4 14  1  6  0  0  0
  4 18  1  0  0  0  0
  4 21  2  0  0  0  0
  4 20  1  0  0  0  0
  5 19  1  0  0  0  0
  5  7  1  0  0  0  0
  6  7  2  0  0  0  0
  6 12  1  0  0  0  0
  7  8  1  0  0  0  0
  8  9  1  0  0  0  0
  8 10  2  0  0  0  0
 10 11  1  0  0  0  0
 11 12  2  0  0  0  0
 15 23  1  0  0  0  0
 15 16  1  0  0  0  0
 16 19  1  0  0  0  0
 19 22  1  0  0  0  0
 22  2  1  1  0  0  0
 22 23  1  0  0  0  0
 23 24  1  6  0  0  0
 24 25  1  0  0  0  0
 25 26  1  0  0  0  0
M  CHG  2  13  -1  18  -1
M  END
>  <CHROM.1>
-45.51100509,-1.75384399,112.20916336,61.65614736,-82.06463604,-75.05594539
-169.41022794,49.83970009,-22.75813434,-14.11406651,-1.41400396,-1.70477076
0.78860805,-1.54752439

>  <Name>
ligand

>  <RI>
0

>  <Rbt.Current_Directory>
/home/itssahil/PROJECTS/Mol_Feturizer/New_Systems/rnas/2GDI

>  <Rbt.Executable>
rbdock ($Id: //depot/dev/client3/rdock/2013.1/src/exe/rbdock.cxx#4 $)

>  <Rbt.Library>
libRbt.so (2013.1, Build901 2013/11/27)

>  <Rbt.Parameter_File>
/export/apps/rDock/src/rDock_2013.1_src/data/scripts/dock_solv.prm

>  <Rbt.Receptor>
prm/pocket_docking_8.prm

>  <SCORE>
-10.7472

>  <SCORE.INTER>
-11.316

>  <SCORE.INTER.CONST>
1

>  <SCORE.INTER.POLAR>
0

>  <SCORE.INTER.ROT>
8

>  <SCORE.INTER.SOLV>
8.29204

>  <SCORE.INTER.VDW>
-19.2414

>  <SCORE.INTER.norm>
-0.435232

>  <SCORE.INTRA>
0.568803

>  <SCORE.INTRA.DIHEDRAL>
-0.925991

>  <SCORE.INTRA.DIHEDRAL.0>
8.13976

>  <SCORE.INTRA.POLAR>
0

>  <SCORE.INTRA.POLAR.0>
0

>  <SCORE.INTRA.REPUL>
0

>  <SCORE.INTRA.REPUL.0>
0

>  <SCORE.INTRA.SOLV>
1.7978

>  <SCORE.INTRA.SOLV.lig_0>
-82.9561

>  <SCORE.INTRA.VDW>
0.132898

>  <SCORE.INTRA.VDW.0>
-3.29171

>  <SCORE.INTRA.norm>
0.021877

>  <SCORE.RESTR>
0

>  <SCORE.RESTR.CAVITY>
0

>  <SCORE.RESTR.norm>
0

>  <SCORE.SYSTEM>
0

>  <SCORE.SYSTEM.CONST>
0

>  <SCORE.SYSTEM.DIHEDRAL>
0

>  <SCORE.SYSTEM.SOLV>
0

>  <SCORE.SYSTEM.norm>
0

>  <SCORE.heavy>
26

>  <SCORE.norm>
-0.413355

>  <RMSD>
8.244

$$$$
ligand
 OpenBabel11021811433D
libRbt.so/2013.1/901 2013/11/27
 26 27  0  0  0  0  0  0  0  0999 V2000
  -22.5888  -12.4326    3.6624 C   0  0  0  0  0  0  0  0  0  0  0  0
  -24.3546  -18.8373    2.9877 C   0  0  0  0  0  0  0  0  0  0  0  0
  -22.4336  -17.6993   -0.8883 P   0  0  1  0  0  0  0  0  0  0  0  0
  -21.5707  -15.4473   -2.5139 P   0  0  1  0  0  0  0  0  0  0  0  0
  -22.1633  -18.0431    4.8345 C   0  0  0  0  0  0  0  0  0  0  0  0
  -21.6129  -16.0098    3.4370 C   0  0  0  0  0  0  0  0  0  0  0  0
  -22.2686  -16.5579    4.5322 C   0  0  0  0  0  0  0  0  0  0  0  0
  -23.0315  -15.7259    5.3352 C   0  0  0  0  0  0  0  0  0  0  0  0
  -23.6884  -16.2146    6.4150 N   0  0  0  0  0  0  0  0  0  0  0  0
  -23.1217  -14.4111    5.0390 N   0  0  0  0  0  0  0  0  0  0  0  0
  -22.4732  -13.9011    3.9693 C   0  0  0  0  0  0  0  0  0  0  0  0
  -21.7215  -14.7002    3.1732 N   0  0  0  0  0  0  0  0  0  0  0  0
  -21.0784  -18.3293   -0.7012 O   0  5  0  0  0  0  0  0  0  0  0  0
  -21.9095  -14.5023   -1.4024 O   0  0  0  0  0  0  0  0  0  0  0  0
  -20.6905  -20.0721    1.7521 S   0  0  0  0  0  0  0  0  0  0  0  0
  -20.6446  -19.1915    3.2473 C   0  0  0  0  0  0  0  0  0  0  0  0
  -22.9962  -16.9190    0.2647 O   0  0  0  0  0  0  0  0  0  0  0  0
  -20.1351  -15.8410   -2.4079 O   0  5  0  0  0  0  0  0  0  0  0  0
  -21.8976  -18.8032    3.6131 N   0  0  0  0  0  0  0  0  0  0  0  0
  -22.3978  -16.8160   -2.2467 O   0  0  0  0  0  0  0  0  0  0  0  0
  -21.9523  -15.0003   -3.8988 O   0  0  0  0  0  0  0  0  0  0  0  0
  -22.9019  -19.1660    2.7685 C   0  0  1  0  0  0  0  0  0  0  0  0
  -22.3991  -19.9448    1.6044 C   0  0  1  0  0  0  0  0  0  0  0  0
  -23.0414  -20.5770    0.3982 C   0  0  0  0  0  0  0  0  0  0  0  0
  -24.0840  -19.6194   -0.1570 C   0  0  0  0  0  0  0  0  0  0  0  0
  -23.4851  -18.8723   -1.2088 O   0  0  0  0  0  0  0  0  0  0  0  0
  1 11  1  0  0  0  0
  3 13  1  1  0  0  0
  3 17  2  0  0  0  0
  3 20  1  0  0  0  0
  3 26  1  0  0  0  0
  4 14  1  1  0  0  0
  4 18  1  0  0  0  0
  4 21  2  0  0  0  0
  4 20  1  0  0  0  0
  5 19  1  0  0  0  0
  5  7  1  0  0  0  0
  6  7  2  0  0  0  0
  6 12  1  0  0  0  0
  7  8  1  0  0  0  0
  8  9  1  0  0  0  0
  8 10  2  0  0  0  0
 10 11  1  0  0  0  0
 11 12  2  0  0  0  0
 15 23  1  0  0  0  0
 15 16  1  0  0  0  0
 16 19  1  0  0  0  0
 19 22  1  0  0  0  0
 22  2  1  1  0  0  0
 22 23  1  0  0  0  0
 23 24  1  6  0  0  0
 24 25  1  0  0  0  0
 25 26  1  0  0  0  0
M  CHG  2  13  -1  18  -1
M  END
>  <CHROM.1>
-68.52452890,97.13845944,-26.55444945,-52.33909200,-136.66763349,95.88095514
-74.27044231,83.66587803,-22.23388909,-17.12626039,1.17353406,-2.94226274
-1.46007202,-2.96365519

>  <Name>
ligand

>  <RI>
0

>  <Rbt.Current_Directory>
/home/itssahil/PROJECTS/Mol_Feturizer/New_Systems/rnas/2GDI

>  <Rbt.Executable>
rbdock ($Id: //depot/dev/client3/rdock/2013.1/src/exe/rbdock.cxx#4 $)

>  <Rbt.Library>
libRbt.so (2013.1, Build901 2013/11/27)

>  <Rbt.Parameter_File>
/export/apps/rDock/src/rDock_2013.1_src/data/scripts/dock_solv.prm

>  <Rbt.Receptor>
prm/pocket_docking_7.prm

>  <SCORE>
-9.77685

>  <SCORE.INTER>
-11.4323

>  <SCORE.INTER.CONST>
1

>  <SCORE.INTER.POLAR>
0

>  <SCORE.INTER.ROT>
8

>  <SCORE.INTER.SOLV>
7.43016

>  <SCORE.INTER.VDW>
-19.0316

>  <SCORE.INTER.norm>
-0.439702

>  <SCORE.INTRA>
1.6554

>  <SCORE.INTRA.DIHEDRAL>
1.85189

>  <SCORE.INTRA.DIHEDRAL.0>
8.13976

>  <SCORE.INTRA.POLAR>
0

>  <SCORE.INTRA.POLAR.0>
0

>  <SCORE.INTRA.REPUL>
0

>  <SCORE.INTRA.REPUL.0>
0

>  <SCORE.INTRA.SOLV>
4.23716

>  <SCORE.INTRA.SOLV.lig_0>
-82.9561

>  <SCORE.INTRA.VDW>
-1.38912

>  <SCORE.INTRA.VDW.0>
-3.29171

>  <SCORE.INTRA.norm>
0.0636693

>  <SCORE.RESTR>
0

>  <SCORE.RESTR.CAVITY>
0

>  <SCORE.RESTR.norm>
0

>  <SCORE.SYSTEM>
0

>  <SCORE.SYSTEM.CONST>
0

>  <SCORE.SYSTEM.DIHEDRAL>
0

>  <SCORE.SYSTEM.SOLV>
0

>  <SCORE.SYSTEM.norm>
0

>  <SCORE.heavy>
26

>  <SCORE.norm>
-0.376033

>  <RMSD>
8.251

$$$$
ligand
 OpenBabel11021811433D
libRbt.so/2013.1/901 2013/11/27
 26 27  0  0  0  0  0  0  0  0999 V2000
  -24.7582  -21.1724    0.9525 C   0  0  0  0  0  0  0  0  0  0  0  0
  -22.6923  -15.1183    4.5139 C   0  0  0  0  0  0  0  0  0  0  0  0
  -25.2503  -13.5772    0.2851 P   0  0  1  0  0  0  0  0  0  0  0  0
  -24.6674  -16.4263    0.3257 P   0  0  1  0  0  0  0  0  0  0  0  0
  -21.2002  -17.5296    3.6180 C   0  0  0  0  0  0  0  0  0  0  0  0
  -23.4156  -18.7288    3.4074 C   0  0  0  0  0  0  0  0  0  0  0  0
  -22.1357  -18.5007    2.9178 C   0  0  0  0  0  0  0  0  0  0  0  0
  -21.7342  -19.1659    1.7711 C   0  0  0  0  0  0  0  0  0  0  0  0
  -20.4948  -18.9766    1.2567 N   0  0  0  0  0  0  0  0  0  0  0  0
  -22.5878  -20.0142    1.1577 N   0  0  0  0  0  0  0  0  0  0  0  0
  -23.8272  -20.2208    1.6540 C   0  0  0  0  0  0  0  0  0  0  0  0
  -24.2366  -19.5793    2.7757 N   0  0  0  0  0  0  0  0  0  0  0  0
  -25.4617  -12.5819   -0.8255 O   0  5  0  0  0  0  0  0  0  0  0  0
  -23.2782  -16.1608    0.8188 O   0  0  0  0  0  0  0  0  0  0  0  0
  -20.5077  -14.4934    1.1504 S   0  0  0  0  0  0  0  0  0  0  0  0
  -20.3715  -16.1128    1.7604 C   0  0  0  0  0  0  0  0  0  0  0  0
  -26.1937  -13.5189    1.4519 O   0  0  0  0  0  0  0  0  0  0  0  0
  -25.5736  -16.6406    1.4920 O   0  5  0  0  0  0  0  0  0  0  0  0
  -21.1229  -16.2653    2.8860 N   0  0  0  0  0  0  0  0  0  0  0  0
  -25.1981  -15.0599   -0.3673 O   0  0  0  0  0  0  0  0  0  0  0  0
  -24.8018  -17.4975   -0.7220 O   0  0  0  0  0  0  0  0  0  0  0  0
  -21.8065  -15.1622    3.2974 C   0  0  1  0  0  0  0  0  0  0  0  0
  -21.5907  -14.0011    2.3920 C   0  0  1  0  0  0  0  0  0  0  0  0
  -22.0791  -12.5771    2.3639 C   0  0  0  0  0  0  0  0  0  0  0  0
  -23.5668  -12.5780    2.0493 C   0  0  0  0  0  0  0  0  0  0  0  0
  -23.7717  -13.3542    0.8752 O   0  0  0  0  0  0  0  0  0  0  0  0
  1 11  1  0  0  0  0
  3 13  1  6  0  0  0
  3 17  2  0  0  0  0
  3 20  1  0  0  0  0
  3 26  1  0  0  0  0
  4 14  1  1  0  0  0
  4 18  1  0  0  0  0
  4 21  2  0  0  0  0
  4 20  1  0  0  0  0
  5 19  1  0  0  0  0
  5  7  1  0  0  0  0
  6  7  2  0  0  0  0
  6 12  1  0  0  0  0
  7  8  1  0  0  0  0
  8  9  1  0  0  0  0
  8 10  2  0  0  0  0
 10 11  1  0  0  0  0
 11 12  2  0  0  0  0
 15 23  1  0  0  0  0
 15 16  1  0  0  0  0
 16 19  1  0  0  0  0
 19 22  1  0  0  0  0
 22  2  1  6  0  0  0
 22 23  1  0  0  0  0
 23 24  1  1  0  0  0
 24 25  1  0  0  0  0
 25 26  1  0  0  0  0
M  CHG  2  13  -1  18  -1
M  END
>  <CHROM.1>
165.04482498,-78.22380984,-103.38934243,-54.07762850,112.28447511,-52.00050240
178.92418908,97.78639407,-23.29209978,-16.08467326,1.46777969,1.30985312
0.48937235,3.08456606

>  <Name>
ligand

>  <RI>
0

>  <Rbt.Current_Directory>
/home/itssahil/PROJECTS/Mol_Feturizer/New_Systems/rnas/2GDI

>  <Rbt.Executable>
rbdock ($Id: //depot/dev/client3/rdock/2013.1/src/exe/rbdock.cxx#4 $)

>  <Rbt.Library>
libRbt.so (2013.1, Build901 2013/11/27)

>  <Rbt.Parameter_File>
/export/apps/rDock/src/rDock_2013.1_src/data/scripts/dock_solv.prm

>  <Rbt.Receptor>
prm/pocket_docking_5.prm

>  <SCORE>
-10.3596

>  <SCORE.INTER>
-6.7022

>  <SCORE.INTER.CONST>
1

>  <SCORE.INTER.POLAR>
0

>  <SCORE.INTER.ROT>
8

>  <SCORE.INTER.SOLV>
20.8535

>  <SCORE.INTER.VDW>
-20.3526

>  <SCORE.INTER.norm>
-0.257777

>  <SCORE.INTRA>
-3.65743

>  <SCORE.INTRA.DIHEDRAL>
-1.66908

>  <SCORE.INTRA.DIHEDRAL.0>
8.13976

>  <SCORE.INTRA.POLAR>
0

>  <SCORE.INTRA.POLAR.0>
0

>  <SCORE.INTRA.REPUL>
0

>  <SCORE.INTRA.REPUL.0>
0

>  <SCORE.INTRA.SOLV>
2.44623

>  <SCORE.INTRA.SOLV.lig_0>
-82.9561

>  <SCORE.INTRA.VDW>
-4.04601

>  <SCORE.INTRA.VDW.0>
-3.29171

>  <SCORE.INTRA.norm>
-0.14067

>  <SCORE.RESTR>
0

>  <SCORE.RESTR.CAVITY>
0

>  <SCORE.RESTR.norm>
0

>  <SCORE.SYSTEM>
0

>  <SCORE.SYSTEM.CONST>
0

>  <SCORE.SYSTEM.DIHEDRAL>
0

>  <SCORE.SYSTEM.SOLV>
0

>  <SCORE.SYSTEM.norm>
0

>  <SCORE.heavy>
26

>  <SCORE.norm>
-0.398447

>  <RMSD>
8.254

$$$$
ligand
 OpenBabel11021811433D
libRbt.so/2013.1/901 2013/11/27
 26 27  0  0  0  0  0  0  0  0999 V2000
  -24.8500  -21.1125    0.9614 C   0  0  0  0  0  0  0  0  0  0  0  0
  -22.7150  -15.3329    4.3848 C   0  0  0  0  0  0  0  0  0  0  0  0
  -24.7776  -13.6616   -0.4102 P   0  0  1  0  0  0  0  0  0  0  0  0
  -23.7168  -16.3020   -1.0116 P   0  0  1  0  0  0  0  0  0  0  0  0
  -21.0402  -17.6103    3.4621 C   0  0  0  0  0  0  0  0  0  0  0  0
  -23.3144  -18.7073    3.3399 C   0  0  0  0  0  0  0  0  0  0  0  0
  -22.0425  -18.5444    2.8054 C   0  0  0  0  0  0  0  0  0  0  0  0
  -21.7108  -19.2401    1.6544 C   0  0  0  0  0  0  0  0  0  0  0  0
  -20.4821  -19.1143    1.0970 N   0  0  0  0  0  0  0  0  0  0  0  0
  -22.6229  -20.0544    1.0802 N   0  0  0  0  0  0  0  0  0  0  0  0
  -23.8531  -20.1977    1.6198 C   0  0  0  0  0  0  0  0  0  0  0  0
  -24.1945  -19.5256    2.7463 N   0  0  0  0  0  0  0  0  0  0  0  0
  -25.0632  -12.4357   -1.2373 O   0  5  0  0  0  0  0  0  0  0  0  0
  -22.7341  -16.0777    0.0963 O   0  0  0  0  0  0  0  0  0  0  0  0
  -20.4464  -14.4422    1.1388 S   0  0  0  0  0  0  0  0  0  0  0  0
  -20.2317  -16.0729    1.6936 C   0  0  0  0  0  0  0  0  0  0  0  0
  -25.8459  -14.1145    0.5428 O   0  0  0  0  0  0  0  0  0  0  0  0
  -24.8814  -17.0760   -0.4904 O   0  5  0  0  0  0  0  0  0  0  0  0
  -21.0148  -16.3158    2.7811 N   0  0  0  0  0  0  0  0  0  0  0  0
  -24.3257  -14.8534   -1.4113 O   0  0  0  0  0  0  0  0  0  0  0  0
  -23.1562  -16.8773   -2.2837 O   0  0  0  0  0  0  0  0  0  0  0  0
  -21.7820  -15.2740    3.2047 C   0  0  1  0  0  0  0  0  0  0  0  0
  -21.6054  -14.0670    2.3525 C   0  0  1  0  0  0  0  0  0  0  0  0
  -22.1813  -12.6758    2.3571 C   0  0  0  0  0  0  0  0  0  0  0  0
  -23.5672  -12.7198    1.7330 C   0  0  0  0  0  0  0  0  0  0  0  0
  -23.4657  -13.3694    0.4718 O   0  0  0  0  0  0  0  0  0  0  0  0
  1 11  1  0  0  0  0
  3 13  1  6  0  0  0
  3 17  2  0  0  0  0
  3 20  1  0  0  0  0
  3 26  1  0  0  0  0
  4 14  1  1  0  0  0
  4 18  1  0  0  0  0
  4 21  2  0  0  0  0
  4 20  1  0  0  0  0
  5 19  1  0  0  0  0
  5  7  1  0  0  0  0
  6  7  2  0  0  0  0
  6 12  1  0  0  0  0
  7  8  1  0  0  0  0
  8  9  1  0  0  0  0
  8 10  2  0  0  0  0
 10 11  1  0  0  0  0
 11 12  2  0  0  0  0
 15 23  1  0  0  0  0
 15 16  1  0  0  0  0
 16 19  1  0  0  0  0
 19 22  1  0  0  0  0
 22  2  1  6  0  0  0
 22 23  1  0  0  0  0
 23 24  1  1  0  0  0
 24 25  1  0  0  0  0
 25 26  1  0  0  0  0
M  CHG  2  13  -1  18  -1
M  END
>  <CHROM.1>
170.78639205,-86.55656214,-98.44300649,-41.90213122,101.69529480,-52.15931508
176.15770778,86.08434518,-22.98622157,-16.10566443,0.99922991,1.28180428
0.80159585,3.03551735

>  <Name>
ligand

>  <RI>
0

>  <Rbt.Current_Directory>
/home/itssahil/PROJECTS/Mol_Feturizer/New_Systems/rnas/2GDI

>  <Rbt.Executable>
rbdock ($Id: //depot/dev/client3/rdock/2013.1/src/exe/rbdock.cxx#4 $)

>  <Rbt.Library>
libRbt.so (2013.1, Build901 2013/11/27)

>  <Rbt.Parameter_File>
/export/apps/rDock/src/rDock_2013.1_src/data/scripts/dock_solv.prm

>  <Rbt.Receptor>
prm/pocket_docking_4.prm

>  <SCORE>
-9.46978

>  <SCORE.INTER>
-5.83371

>  <SCORE.INTER.CONST>
1

>  <SCORE.INTER.POLAR>
0

>  <SCORE.INTER.ROT>
8

>  <SCORE.INTER.SOLV>
16.4025

>  <SCORE.INTER.VDW>
-18.29

>  <SCORE.INTER.norm>
-0.224374

>  <SCORE.INTRA>
-3.64861

>  <SCORE.INTRA.DIHEDRAL>
-1.96433

>  <SCORE.INTRA.DIHEDRAL.0>
8.13976

>  <SCORE.INTRA.POLAR>
0

>  <SCORE.INTRA.POLAR.0>
0

>  <SCORE.INTRA.REPUL>
0

>  <SCORE.INTRA.REPUL.0>
0

>  <SCORE.INTRA.SOLV>
0.826361

>  <SCORE.INTRA.SOLV.lig_0>
-82.9561

>  <SCORE.INTRA.VDW>
-3.07962

>  <SCORE.INTRA.VDW.0>
-3.29171

>  <SCORE.INTRA.norm>
-0.140331

>  <SCORE.RESTR>
0.0125346

>  <SCORE.RESTR.CAVITY>
0.0125346

>  <SCORE.RESTR.norm>
0.0004821

>  <SCORE.SYSTEM>
0

>  <SCORE.SYSTEM.CONST>
0

>  <SCORE.SYSTEM.DIHEDRAL>
0

>  <SCORE.SYSTEM.SOLV>
0

>  <SCORE.SYSTEM.norm>
0

>  <SCORE.heavy>
26

>  <SCORE.norm>
-0.364222

>  <RMSD>
8.256

$$$$
ligand
 OpenBabel11021811433D
libRbt.so/2013.1/901 2013/11/27
 26 27  0  0  0  0  0  0  0  0999 V2000
  -19.2630  -16.9031   -2.8346 C   0  0  0  0  0  0  0  0  0  0  0  0
  -24.1699  -18.7624    3.2284 C   0  0  0  0  0  0  0  0  0  0  0  0
  -23.1128  -14.1623    4.5742 P   0  0  1  0  0  0  0  0  0  0  0  0
  -21.8854  -12.1663    2.8514 P   0  0  1  0  0  0  0  0  0  0  0  0
  -22.1257  -19.7065    1.2860 C   0  0  0  0  0  0  0  0  0  0  0  0
  -19.9871  -19.0529    0.1072 C   0  0  0  0  0  0  0  0  0  0  0  0
  -21.3697  -18.9565    0.2023 C   0  0  0  0  0  0  0  0  0  0  0  0
  -22.0466  -18.1739   -0.7187 C   0  0  0  0  0  0  0  0  0  0  0  0
  -23.3949  -18.0485   -0.6652 N   0  0  0  0  0  0  0  0  0  0  0  0
  -21.3548  -17.5273   -1.6819 N   0  0  0  0  0  0  0  0  0  0  0  0
  -20.0100  -17.6352   -1.7529 C   0  0  0  0  0  0  0  0  0  0  0  0
  -19.3312  -18.3957   -0.8595 N   0  0  0  0  0  0  0  0  0  0  0  0
  -23.2109  -13.2590    5.7754 O   0  5  0  0  0  0  0  0  0  0  0  0
  -21.8529  -11.1060    3.9088 O   0  0  0  0  0  0  0  0  0  0  0  0
  -20.3765  -18.5302    4.6541 S   0  0  0  0  0  0  0  0  0  0  0  0
  -20.4601  -19.1606    3.0389 C   0  0  0  0  0  0  0  0  0  0  0  0
  -24.3761  -14.4298    3.8078 O   0  0  0  0  0  0  0  0  0  0  0  0
  -20.5868  -12.1710    2.1158 O   0  5  0  0  0  0  0  0  0  0  0  0
  -21.7524  -19.2159    2.6127 N   0  0  0  0  0  0  0  0  0  0  0  0
  -21.9379  -13.5977    3.6110 O   0  0  0  0  0  0  0  0  0  0  0  0
  -23.0763  -12.1448    1.9324 O   0  0  0  0  0  0  0  0  0  0  0  0
  -22.6895  -18.7841    3.5010 C   0  0  1  0  0  0  0  0  0  0  0  0
  -22.0785  -18.3165    4.7748 C   0  0  1  0  0  0  0  0  0  0  0  0
  -22.6189  -17.7563    6.0636 C   0  0  0  0  0  0  0  0  0  0  0  0
  -23.4171  -16.4999    5.7524 C   0  0  0  0  0  0  0  0  0  0  0  0
  -22.5633  -15.5891    5.0709 O   0  0  0  0  0  0  0  0  0  0  0  0
  1 11  1  0  0  0  0
  3 13  1  1  0  0  0
  3 17  2  0  0  0  0
  3 20  1  0  0  0  0
  3 26  1  0  0  0  0
  4 14  1  1  0  0  0
  4 18  1  0  0  0  0
  4 21  2  0  0  0  0
  4 20  1  0  0  0  0
  5 19  1  0  0  0  0
  5  7  1  0  0  0  0
  6  7  2  0  0  0  0
  6 12  1  0  0  0  0
  7  8  1  0  0  0  0
  8  9  1  0  0  0  0
  8 10  2  0  0  0  0
 10 11  1  0  0  0  0
 11 12  2  0  0  0  0
 15 23  1  0  0  0  0
 15 16  1  0  0  0  0
 16 19  1  0  0  0  0
 19 22  1  0  0  0  0
 22  2  1  6  0  0  0
 22 23  1  0  0  0  0
 23 24  1  1  0  0  0
 24 25  1  0  0  0  0
 25 26  1  0  0  0  0
M  CHG  2  13  -1  18  -1
M  END
>  <CHROM.1>
-62.82118026,-54.23486170,64.27221987,63.58573471,123.18157213,-57.20972688
178.92024936,76.22925043,-21.91303394,-16.17883877,2.60620333,-0.71672938
1.24812610,-0.18070972

>  <Name>
ligand

>  <RI>
0

>  <Rbt.Current_Directory>
/home/itssahil/PROJECTS/Mol_Feturizer/New_Systems/rnas/2GDI

>  <Rbt.Executable>
rbdock ($Id: //depot/dev/client3/rdock/2013.1/src/exe/rbdock.cxx#4 $)

>  <Rbt.Library>
libRbt.so (2013.1, Build901 2013/11/27)

>  <Rbt.Parameter_File>
/export/apps/rDock/src/rDock_2013.1_src/data/scripts/dock_solv.prm

>  <Rbt.Receptor>
prm/pocket_docking_6.prm

>  <SCORE>
-13.3055

>  <SCORE.INTER>
-12.1408

>  <SCORE.INTER.CONST>
1

>  <SCORE.INTER.POLAR>
0

>  <SCORE.INTER.ROT>
8

>  <SCORE.INTER.SOLV>
13.6626

>  <SCORE.INTER.VDW>
-21.5814

>  <SCORE.INTER.norm>
-0.466953

>  <SCORE.INTRA>
-1.16475

>  <SCORE.INTRA.DIHEDRAL>
-3.2494

>  <SCORE.INTRA.DIHEDRAL.0>
8.13976

>  <SCORE.INTRA.POLAR>
0

>  <SCORE.INTRA.POLAR.0>
0

>  <SCORE.INTRA.REPUL>
0

>  <SCORE.INTRA.REPUL.0>
0

>  <SCORE.INTRA.SOLV>
1.37948

>  <SCORE.INTRA.SOLV.lig_0>
-82.9561

>  <SCORE.INTRA.VDW>
-0.229783

>  <SCORE.INTRA.VDW.0>
-3.29171

>  <SCORE.INTRA.norm>
-0.0447979

>  <SCORE.RESTR>
0

>  <SCORE.RESTR.CAVITY>
0

>  <SCORE.RESTR.norm>
0

>  <SCORE.SYSTEM>
0

>  <SCORE.SYSTEM.CONST>
0

>  <SCORE.SYSTEM.DIHEDRAL>
0

>  <SCORE.SYSTEM.SOLV>
0

>  <SCORE.SYSTEM.norm>
0

>  <SCORE.heavy>
26

>  <SCORE.norm>
-0.511751

>  <RMSD>
8.257

$$$$
ligand
 OpenBabel11021811433D
libRbt.so/2013.1/901 2013/11/27
 26 27  0  0  0  0  0  0  0  0999 V2000
  -22.1112   -9.0737    6.4574 C   0  0  0  0  0  0  0  0  0  0  0  0
  -25.6201  -14.6521    1.2120 C   0  0  0  0  0  0  0  0  0  0  0  0
  -23.1201  -19.4128    1.2525 P   0  0  1  0  0  0  0  0  0  0  0  0
  -20.7132  -17.9610    0.5054 P   0  0  1  0  0  0  0  0  0  0  0  0
  -25.4329  -12.4493    3.2010 C   0  0  0  0  0  0  0  0  0  0  0  0
  -23.3658  -11.0409    3.5667 C   0  0  0  0  0  0  0  0  0  0  0  0
  -24.5510  -11.5656    4.0667 C   0  0  0  0  0  0  0  0  0  0  0  0
  -24.9195  -11.2559    5.3656 C   0  0  0  0  0  0  0  0  0  0  0  0
  -26.0660  -11.7451    5.8973 N   0  0  0  0  0  0  0  0  0  0  0  0
  -24.1265  -10.4569    6.1122 N   0  0  0  0  0  0  0  0  0  0  0  0
  -22.9775   -9.9600    5.6042 C   0  0  0  0  0  0  0  0  0  0  0  0
  -22.6008  -10.2535    4.3356 N   0  0  0  0  0  0  0  0  0  0  0  0
  -24.0627  -18.7364    0.2920 O   0  5  0  0  0  0  0  0  0  0  0  0
  -19.9308  -19.1918    0.1639 O   0  0  0  0  0  0  0  0  0  0  0  0
  -25.0080  -15.9643    5.0041 S   0  0  0  0  0  0  0  0  0  0  0  0
  -25.1043  -14.2350    4.8886 C   0  0  0  0  0  0  0  0  0  0  0  0
  -22.6438  -20.7913    0.8953 O   0  0  0  0  0  0  0  0  0  0  0  0
  -21.4380  -17.4832   -0.7085 O   0  5  0  0  0  0  0  0  0  0  0  0
  -25.3100  -13.8520    3.5980 N   0  0  0  0  0  0  0  0  0  0  0  0
  -21.8809  -18.4078    1.5377 O   0  0  0  0  0  0  0  0  0  0  0  0
  -19.9496  -16.8653    1.1980 O   0  0  0  0  0  0  0  0  0  0  0  0
  -25.3959  -14.8594    2.6862 C   0  0  1  0  0  0  0  0  0  0  0  0
  -25.2590  -16.1992    3.3192 C   0  0  1  0  0  0  0  0  0  0  0  0
  -25.2721  -17.6159    2.8094 C   0  0  0  0  0  0  0  0  0  0  0  0
  -24.1267  -18.3778    3.4572 C   0  0  0  0  0  0  0  0  0  0  0  0
  -23.8633  -19.5347    2.6727 O   0  0  0  0  0  0  0  0  0  0  0  0
  1 11  1  0  0  0  0
  3 13  1  6  0  0  0
  3 17  2  0  0  0  0
  3 20  1  0  0  0  0
  3 26  1  0  0  0  0
  4 14  1  6  0  0  0
  4 18  1  0  0  0  0
  4 21  2  0  0  0  0
  4 20  1  0  0  0  0
  5 19  1  0  0  0  0
  5  7  1  0  0  0  0
  6  7  2  0  0  0  0
  6 12  1  0  0  0  0
  7  8  1  0  0  0  0
  8  9  1  0  0  0  0
  8 10  2  0  0  0  0
 10 11  1  0  0  0  0
 11 12  2  0  0  0  0
 15 23  1  0  0  0  0
 15 16  1  0  0  0  0
 16 19  1  0  0  0  0
 19 22  1  0  0  0  0
 22  2  1  1  0  0  0
 22 23  1  0  0  0  0
 23 24  1  6  0  0  0
 24 25  1  0  0  0  0
 25 26  1  0  0  0  0
M  CHG  2  13  -1  18  -1
M  END
>  <CHROM.1>
-69.04637686,33.67133358,104.94299702,-64.17705576,-43.75466299,-160.89724803
73.95706064,-69.45475089,-23.48266493,-15.59022716,2.85332753,-1.81708808
-0.44323211,-2.75412983

>  <Name>
ligand

>  <RI>
0

>  <Rbt.Current_Directory>
/home/itssahil/PROJECTS/Mol_Feturizer/New_Systems/rnas/2GDI

>  <Rbt.Executable>
rbdock ($Id: //depot/dev/client3/rdock/2013.1/src/exe/rbdock.cxx#4 $)

>  <Rbt.Library>
libRbt.so (2013.1, Build901 2013/11/27)

>  <Rbt.Parameter_File>
/export/apps/rDock/src/rDock_2013.1_src/data/scripts/dock_solv.prm

>  <Rbt.Receptor>
prm/pocket_docking_8.prm

>  <SCORE>
-5.82089

>  <SCORE.INTER>
-8.63336

>  <SCORE.INTER.CONST>
1

>  <SCORE.INTER.POLAR>
0

>  <SCORE.INTER.ROT>
8

>  <SCORE.INTER.SOLV>
14.9707

>  <SCORE.INTER.VDW>
-19.6791

>  <SCORE.INTER.norm>
-0.332052

>  <SCORE.INTRA>
2.81247

>  <SCORE.INTRA.DIHEDRAL>
-0.381647

>  <SCORE.INTRA.DIHEDRAL.0>
8.13976

>  <SCORE.INTRA.POLAR>
0

>  <SCORE.INTRA.POLAR.0>
0

>  <SCORE.INTRA.REPUL>
0

>  <SCORE.INTRA.REPUL.0>
0

>  <SCORE.INTRA.SOLV>
2.95031

>  <SCORE.INTRA.SOLV.lig_0>
-82.9561

>  <SCORE.INTRA.VDW>
1.52814

>  <SCORE.INTRA.VDW.0>
-3.29171

>  <SCORE.INTRA.norm>
0.108172

>  <SCORE.RESTR>
0

>  <SCORE.RESTR.CAVITY>
0

>  <SCORE.RESTR.norm>
0

>  <SCORE.SYSTEM>
0

>  <SCORE.SYSTEM.CONST>
0

>  <SCORE.SYSTEM.DIHEDRAL>
0

>  <SCORE.SYSTEM.SOLV>
0

>  <SCORE.SYSTEM.norm>
0

>  <SCORE.heavy>
26

>  <SCORE.norm>
-0.22388

>  <RMSD>
8.275

$$$$
ligand
 OpenBabel11021811433D
libRbt.so/2013.1/901 2013/11/27
 26 27  0  0  0  0  0  0  0  0999 V2000
  -23.8852  -19.6494    0.3794 C   0  0  0  0  0  0  0  0  0  0  0  0
  -20.6060  -14.9836   -2.3910 C   0  0  0  0  0  0  0  0  0  0  0  0
  -22.0857  -12.2991    2.4647 P   0  0  1  0  0  0  0  0  0  0  0  0
  -24.4241  -11.7340    4.0991 P   0  0  1  0  0  0  0  0  0  0  0  0
  -23.2509  -15.5686   -3.6179 C   0  0  0  0  0  0  0  0  0  0  0  0
  -23.9568  -16.3460   -1.3184 C   0  0  0  0  0  0  0  0  0  0  0  0
  -23.4083  -16.6465   -2.5588 C   0  0  0  0  0  0  0  0  0  0  0  0
  -23.0203  -17.9513   -2.8157 C   0  0  0  0  0  0  0  0  0  0  0  0
  -22.4792  -18.2921   -4.0105 N   0  0  0  0  0  0  0  0  0  0  0  0
  -23.1825  -18.8958   -1.8638 N   0  0  0  0  0  0  0  0  0  0  0  0
  -23.7170  -18.5786   -0.6643 C   0  0  0  0  0  0  0  0  0  0  0  0
  -24.1012  -17.3069   -0.3953 N   0  0  0  0  0  0  0  0  0  0  0  0
  -21.2577  -11.2590    3.1727 O   0  5  0  0  0  0  0  0  0  0  0  0
  -24.1783  -12.9617    4.9212 O   0  0  0  0  0  0  0  0  0  0  0  0
  -23.2066  -11.8762   -2.1511 S   0  0  0  0  0  0  0  0  0  0  0  0
  -23.8757  -13.2648   -2.9493 C   0  0  0  0  0  0  0  0  0  0  0  0
  -21.7983  -13.7393    2.7779 O   0  0  0  0  0  0  0  0  0  0  0  0
  -23.7494  -10.5670    4.7395 O   0  5  0  0  0  0  0  0  0  0  0  0
  -22.9625  -14.2739   -3.0009 N   0  0  0  0  0  0  0  0  0  0  0  0
  -23.6500  -11.9395    2.6894 O   0  0  0  0  0  0  0  0  0  0  0  0
  -25.8589  -11.4551    3.7433 O   0  0  0  0  0  0  0  0  0  0  0  0
  -21.7511  -14.0074   -2.4397 C   0  0  1  0  0  0  0  0  0  0  0  0
  -21.6926  -12.6380   -1.8605 C   0  0  1  0  0  0  0  0  0  0  0  0
  -20.6381  -11.8373   -1.1434 C   0  0  0  0  0  0  0  0  0  0  0  0
  -20.5764  -12.2983    0.3043 C   0  0  0  0  0  0  0  0  0  0  0  0
  -21.8630  -12.1171    0.8831 O   0  0  0  0  0  0  0  0  0  0  0  0
  1 11  1  0  0  0  0
  3 13  1  1  0  0  0
  3 17  2  0  0  0  0
  3 20  1  0  0  0  0
  3 26  1  0  0  0  0
  4 14  1  1  0  0  0
  4 18  1  0  0  0  0
  4 21  2  0  0  0  0
  4 20  1  0  0  0  0
  5 19  1  0  0  0  0
  5  7  1  0  0  0  0
  6  7  2  0  0  0  0
  6 12  1  0  0  0  0
  7  8  1  0  0  0  0
  8  9  1  0  0  0  0
  8 10  2  0  0  0  0
 10 11  1  0  0  0  0
 11 12  2  0  0  0  0
 15 23  1  0  0  0  0
 15 16  1  0  0  0  0
 16 19  1  0  0  0  0
 19 22  1  0  0  0  0
 22  2  1  1  0  0  0
 22 23  1  0  0  0  0
 23 24  1  6  0  0  0
 24 25  1  0  0  0  0
 25 26  1  0  0  0  0
M  CHG  2  13  -1  18  -1
M  END
>  <CHROM.1>
-55.73535208,-107.63811691,33.49331745,-54.12891486,102.57686767,-58.36462631
-170.73462144,62.65713692,-22.93553756,-13.92673143,0.24655405,1.44189567
-1.15726423,-2.41332929

>  <Name>
ligand

>  <RI>
0

>  <Rbt.Current_Directory>
/home/itssahil/PROJECTS/Mol_Feturizer/New_Systems/rnas/2GDI

>  <Rbt.Executable>
rbdock ($Id: //depot/dev/client3/rdock/2013.1/src/exe/rbdock.cxx#4 $)

>  <Rbt.Library>
libRbt.so (2013.1, Build901 2013/11/27)

>  <Rbt.Parameter_File>
/export/apps/rDock/src/rDock_2013.1_src/data/scripts/dock_solv.prm

>  <Rbt.Receptor>
prm/pocket_docking_6.prm

>  <SCORE>
-8.59956

>  <SCORE.INTER>
-7.13914

>  <SCORE.INTER.CONST>
1

>  <SCORE.INTER.POLAR>
0

>  <SCORE.INTER.ROT>
8

>  <SCORE.INTER.SOLV>
14.3022

>  <SCORE.INTER.VDW>
-18.4602

>  <SCORE.INTER.norm>
-0.274582

>  <SCORE.INTRA>
-1.46042

>  <SCORE.INTRA.DIHEDRAL>
-2.79061

>  <SCORE.INTRA.DIHEDRAL.0>
8.13976

>  <SCORE.INTRA.POLAR>
0

>  <SCORE.INTRA.POLAR.0>
0

>  <SCORE.INTRA.REPUL>
0

>  <SCORE.INTRA.REPUL.0>
0

>  <SCORE.INTRA.SOLV>
1.00458

>  <SCORE.INTRA.SOLV.lig_0>
-82.9561

>  <SCORE.INTRA.VDW>
-0.567405

>  <SCORE.INTRA.VDW.0>
-3.29171

>  <SCORE.INTRA.norm>
-0.0561699

>  <SCORE.RESTR>
0

>  <SCORE.RESTR.CAVITY>
0

>  <SCORE.RESTR.norm>
0

>  <SCORE.SYSTEM>
0

>  <SCORE.SYSTEM.CONST>
0

>  <SCORE.SYSTEM.DIHEDRAL>
0

>  <SCORE.SYSTEM.SOLV>
0

>  <SCORE.SYSTEM.norm>
0

>  <SCORE.heavy>
26

>  <SCORE.norm>
-0.330752

>  <RMSD>
8.283

$$$$
ligand
 OpenBabel11021811433D
libRbt.so/2013.1/901 2013/11/27
 26 27  0  0  0  0  0  0  0  0999 V2000
  -22.3269   -7.5880    5.4840 C   0  0  0  0  0  0  0  0  0  0  0  0
  -22.5214  -12.4324    1.8445 C   0  0  0  0  0  0  0  0  0  0  0  0
  -24.3790  -14.0965   -4.7886 P   0  0  1  0  0  0  0  0  0  0  0  0
  -26.9570  -14.1998   -6.1309 P   0  0  1  0  0  0  0  0  0  0  0  0
  -24.8006  -12.4789    3.7540 C   0  0  0  0  0  0  0  0  0  0  0  0
  -23.9744  -10.1276    3.3308 C   0  0  0  0  0  0  0  0  0  0  0  0
  -24.1371  -11.1905    4.2104 C   0  0  0  0  0  0  0  0  0  0  0  0
  -23.6949  -11.0475    5.5153 C   0  0  0  0  0  0  0  0  0  0  0  0
  -23.8309  -12.0570    6.4090 N   0  0  0  0  0  0  0  0  0  0  0  0
  -23.1205   -9.8878    5.9023 N   0  0  0  0  0  0  0  0  0  0  0  0
  -22.9717   -8.8687    5.0279 C   0  0  0  0  0  0  0  0  0  0  0  0
  -23.3976   -8.9915    3.7469 N   0  0  0  0  0  0  0  0  0  0  0  0
  -24.4042  -15.5288   -4.3237 O   0  5  0  0  0  0  0  0  0  0  0  0
  -26.1871  -14.4630   -7.3885 O   0  0  0  0  0  0  0  0  0  0  0  0
  -26.1448  -12.4590    0.0151 S   0  0  0  0  0  0  0  0  0  0  0  0
  -26.2558  -12.4778    1.7472 C   0  0  0  0  0  0  0  0  0  0  0  0
  -23.4965  -13.7666   -5.9579 O   0  0  0  0  0  0  0  0  0  0  0  0
  -27.4262  -15.4956   -5.5582 O   0  5  0  0  0  0  0  0  0  0  0  0
  -25.0142  -12.4676    2.3068 N   0  0  0  0  0  0  0  0  0  0  0  0
  -25.9073  -13.6191   -5.0403 O   0  0  0  0  0  0  0  0  0  0  0  0
  -28.0540  -13.1752   -6.2316 O   0  0  0  0  0  0  0  0  0  0  0  0
  -23.9697  -12.4464    1.4338 C   0  0  1  0  0  0  0  0  0  0  0  0
  -24.4256  -12.4212    0.0175 C   0  0  1  0  0  0  0  0  0  0  0  0
  -23.7292  -12.3952   -1.3172 C   0  0  0  0  0  0  0  0  0  0  0  0
  -24.4879  -13.2943   -2.2806 C   0  0  0  0  0  0  0  0  0  0  0  0
  -23.8790  -13.1862   -3.5616 O   0  0  0  0  0  0  0  0  0  0  0  0
  1 11  1  0  0  0  0
  3 13  1  1  0  0  0
  3 17  2  0  0  0  0
  3 20  1  0  0  0  0
  3 26  1  0  0  0  0
  4 14  1  6  0  0  0
  4 18  1  0  0  0  0
  4 21  2  0  0  0  0
  4 20  1  0  0  0  0
  5 19  1  0  0  0  0
  5  7  1  0  0  0  0
  6  7  2  0  0  0  0
  6 12  1  0  0  0  0
  7  8  1  0  0  0  0
  8  9  1  0  0  0  0
  8 10  2  0  0  0  0
 10 11  1  0  0  0  0
 11 12  2  0  0  0  0
 15 23  1  0  0  0  0
 15 16  1  0  0  0  0
 16 19  1  0  0  0  0
 19 22  1  0  0  0  0
 22  2  1  1  0  0  0
 22 23  1  0  0  0  0
 23 24  1  6  0  0  0
 24 25  1  0  0  0  0
 25 26  1  0  0  0  0
M  CHG  2  13  -1  18  -1
M  END
>  <CHROM.1>
-63.66237090,-115.30983218,8.42437460,-39.34895796,-38.16281963,175.83208260
175.56276100,-50.96028607,-24.78633498,-12.55620606,-0.76862522,-1.34694306
-0.37500654,-1.84349045

>  <Name>
ligand

>  <RI>
0

>  <Rbt.Current_Directory>
/home/itssahil/PROJECTS/Mol_Feturizer/New_Systems/rnas/2GDI

>  <Rbt.Executable>
rbdock ($Id: //depot/dev/client3/rdock/2013.1/src/exe/rbdock.cxx#4 $)

>  <Rbt.Library>
libRbt.so (2013.1, Build901 2013/11/27)

>  <Rbt.Parameter_File>
/export/apps/rDock/src/rDock_2013.1_src/data/scripts/dock_solv.prm

>  <Rbt.Receptor>
prm/blind_docking_40.prm

>  <SCORE>
-14.2486

>  <SCORE.INTER>
-15.2389

>  <SCORE.INTER.CONST>
1

>  <SCORE.INTER.POLAR>
0

>  <SCORE.INTER.ROT>
8

>  <SCORE.INTER.SOLV>
14.6049

>  <SCORE.INTER.VDW>
-23.9609

>  <SCORE.INTER.norm>
-0.586112

>  <SCORE.INTRA>
0.934722

>  <SCORE.INTRA.DIHEDRAL>
-2.35325

>  <SCORE.INTRA.DIHEDRAL.0>
8.13976

>  <SCORE.INTRA.POLAR>
0

>  <SCORE.INTRA.POLAR.0>
0

>  <SCORE.INTRA.REPUL>
0

>  <SCORE.INTRA.REPUL.0>
0

>  <SCORE.INTRA.SOLV>
-0.170328

>  <SCORE.INTRA.SOLV.lig_0>
-82.9561

>  <SCORE.INTRA.VDW>
2.19651

>  <SCORE.INTRA.VDW.0>
-3.29171

>  <SCORE.INTRA.norm>
0.0359508

>  <SCORE.RESTR>
0.0555339

>  <SCORE.RESTR.CAVITY>
0.0555339

>  <SCORE.RESTR.norm>
0.00213592

>  <SCORE.SYSTEM>
0

>  <SCORE.SYSTEM.CONST>
0

>  <SCORE.SYSTEM.DIHEDRAL>
0

>  <SCORE.SYSTEM.SOLV>
0

>  <SCORE.SYSTEM.norm>
0

>  <SCORE.heavy>
26

>  <SCORE.norm>
-0.548025

>  <RMSD>
8.285

$$$$
ligand
 OpenBabel11021811433D
libRbt.so/2013.1/901 2013/11/27
 26 27  0  0  0  0  0  0  0  0999 V2000
  -20.5028  -16.2974   -2.9204 C   0  0  0  0  0  0  0  0  0  0  0  0
  -20.4015  -18.3714    4.0985 C   0  0  0  0  0  0  0  0  0  0  0  0
  -22.9839  -13.7575    4.2490 P   0  0  1  0  0  0  0  0  0  0  0  0
  -21.3093  -11.9558    2.6970 P   0  0  1  0  0  0  0  0  0  0  0  0
  -21.2486  -19.7577    1.6077 C   0  0  0  0  0  0  0  0  0  0  0  0
  -19.9445  -18.0104    0.3283 C   0  0  0  0  0  0  0  0  0  0  0  0
  -21.0583  -18.8361    0.4149 C   0  0  0  0  0  0  0  0  0  0  0  0
  -21.9851  -18.8125   -0.6144 C   0  0  0  0  0  0  0  0  0  0  0  0
  -23.0878  -19.5991   -0.5739 N   0  0  0  0  0  0  0  0  0  0  0  0
  -21.7881  -17.9951   -1.6717 N   0  0  0  0  0  0  0  0  0  0  0  0
  -20.6977  -17.2000   -1.7323 C   0  0  0  0  0  0  0  0  0  0  0  0
  -19.7811  -17.2093   -0.7337 N   0  0  0  0  0  0  0  0  0  0  0  0
  -23.1544  -12.8725    5.4557 O   0  5  0  0  0  0  0  0  0  0  0  0
  -19.8282  -11.8833    2.4864 O   0  0  0  0  0  0  0  0  0  0  0  0
  -24.4317  -18.5176    3.6368 S   0  0  0  0  0  0  0  0  0  0  0  0
  -23.5687  -19.2779    2.3366 C   0  0  0  0  0  0  0  0  0  0  0  0
  -24.1353  -13.8434    3.2889 O   0  0  0  0  0  0  0  0  0  0  0  0
  -21.9885  -12.1244    1.3789 O   0  5  0  0  0  0  0  0  0  0  0  0
  -22.2249  -19.1996    2.5434 N   0  0  0  0  0  0  0  0  0  0  0  0
  -21.6114  -13.3321    3.4993 O   0  0  0  0  0  0  0  0  0  0  0  0
  -21.9119  -10.8554    3.5273 O   0  0  0  0  0  0  0  0  0  0  0  0
  -21.8356  -18.5652    3.6833 C   0  0  1  0  0  0  0  0  0  0  0  0
  -22.9973  -18.0966    4.4867 C   0  0  1  0  0  0  0  0  0  0  0  0
  -23.1529  -17.3591    5.7901 C   0  0  0  0  0  0  0  0  0  0  0  0
  -23.6901  -15.9663    5.5012 C   0  0  0  0  0  0  0  0  0  0  0  0
  -22.7023  -15.2529    4.7673 O   0  0  0  0  0  0  0  0  0  0  0  0
  1 11  1  0  0  0  0
  3 13  1  1  0  0  0
  3 17  2  0  0  0  0
  3 20  1  0  0  0  0
  3 26  1  0  0  0  0
  4 14  1  6  0  0  0
  4 18  1  0  0  0  0
  4 21  2  0  0  0  0
  4 20  1  0  0  0  0
  5 19  1  0  0  0  0
  5  7  1  0  0  0  0
  6  7  2  0  0  0  0
  6 12  1  0  0  0  0
  7  8  1  0  0  0  0
  8  9  1  0  0  0  0
  8 10  2  0  0  0  0
 10 11  1  0  0  0  0
 11 12  2  0  0  0  0
 15 23  1  0  0  0  0
 15 16  1  0  0  0  0
 16 19  1  0  0  0  0
 19 22  1  0  0  0  0
 22  2  1  1  0  0  0
 22 23  1  0  0  0  0
 23 24  1  6  0  0  0
 24 25  1  0  0  0  0
 25 26  1  0  0  0  0
M  CHG  2  13  -1  18  -1
M  END
>  <CHROM.1>
-68.86830656,78.87356003,102.02070391,166.11939886,-68.18023323,-65.52019598
177.47359484,64.28013045,-22.12555576,-15.97591345,2.44266862,-1.43714779
1.11257169,0.37133498

>  <Name>
ligand

>  <RI>
0

>  <Rbt.Current_Directory>
/home/itssahil/PROJECTS/Mol_Feturizer/New_Systems/rnas/2GDI

>  <Rbt.Executable>
rbdock ($Id: //depot/dev/client3/rdock/2013.1/src/exe/rbdock.cxx#4 $)

>  <Rbt.Library>
libRbt.so (2013.1, Build901 2013/11/27)

>  <Rbt.Parameter_File>
/export/apps/rDock/src/rDock_2013.1_src/data/scripts/dock_solv.prm

>  <Rbt.Receptor>
prm/pocket_docking_6.prm

>  <SCORE>
-10.8901

>  <SCORE.INTER>
-10.7474

>  <SCORE.INTER.CONST>
1

>  <SCORE.INTER.POLAR>
0

>  <SCORE.INTER.ROT>
8

>  <SCORE.INTER.SOLV>
15.3968

>  <SCORE.INTER.VDW>
-21.2306

>  <SCORE.INTER.norm>
-0.413362

>  <SCORE.INTRA>
-0.142735

>  <SCORE.INTRA.DIHEDRAL>
-2.37603

>  <SCORE.INTRA.DIHEDRAL.0>
8.13976

>  <SCORE.INTRA.POLAR>
0

>  <SCORE.INTRA.POLAR.0>
0

>  <SCORE.INTRA.REPUL>
0

>  <SCORE.INTRA.REPUL.0>
0

>  <SCORE.INTRA.SOLV>
3.29297

>  <SCORE.INTRA.SOLV.lig_0>
-82.9561

>  <SCORE.INTRA.VDW>
-0.601203

>  <SCORE.INTRA.VDW.0>
-3.29171

>  <SCORE.INTRA.norm>
-0.0054898

>  <SCORE.RESTR>
0

>  <SCORE.RESTR.CAVITY>
0

>  <SCORE.RESTR.norm>
0

>  <SCORE.SYSTEM>
0

>  <SCORE.SYSTEM.CONST>
0

>  <SCORE.SYSTEM.DIHEDRAL>
0

>  <SCORE.SYSTEM.SOLV>
0

>  <SCORE.SYSTEM.norm>
0

>  <SCORE.heavy>
26

>  <SCORE.norm>
-0.418852

>  <RMSD>
8.289

$$$$
ligand
 OpenBabel11021811433D
libRbt.so/2013.1/901 2013/11/27
 26 27  0  0  0  0  0  0  0  0999 V2000
  -23.0488  -16.4567    6.4378 C   0  0  0  0  0  0  0  0  0  0  0  0
  -20.9022  -13.4083   -1.4099 C   0  0  0  0  0  0  0  0  0  0  0  0
  -16.0836  -10.7532    1.2392 P   0  0  1  0  0  0  0  0  0  0  0  0
  -14.9859  -13.3119    0.3987 P   0  0  1  0  0  0  0  0  0  0  0  0
  -21.7459  -14.7494    1.1066 C   0  0  0  0  0  0  0  0  0  0  0  0
  -22.9805  -14.4763    3.2955 C   0  0  0  0  0  0  0  0  0  0  0  0
  -22.0813  -15.1965    2.5194 C   0  0  0  0  0  0  0  0  0  0  0  0
  -21.5069  -16.3380    3.0541 C   0  0  0  0  0  0  0  0  0  0  0  0
  -20.6234  -17.0725    2.3355 N   0  0  0  0  0  0  0  0  0  0  0  0
  -21.8306  -16.7241    4.3074 N   0  0  0  0  0  0  0  0  0  0  0  0
  -22.7066  -16.0059    5.0435 C   0  0  0  0  0  0  0  0  0  0  0  0
  -23.2775  -14.8858    4.5367 N   0  0  0  0  0  0  0  0  0  0  0  0
  -16.5441  -10.1857    2.5562 O   0  5  0  0  0  0  0  0  0  0  0  0
  -13.7412  -12.7232   -0.1910 O   0  0  0  0  0  0  0  0  0  0  0  0
  -20.1026  -11.2237    1.9165 S   0  0  0  0  0  0  0  0  0  0  0  0
  -20.8655  -12.7432    2.2661 C   0  0  0  0  0  0  0  0  0  0  0  0
  -15.1045   -9.9398    0.4426 O   0  0  0  0  0  0  0  0  0  0  0  0
  -14.6327  -14.5322    1.1819 O   0  5  0  0  0  0  0  0  0  0  0  0
  -21.1096  -13.4322    1.1170 N   0  0  0  0  0  0  0  0  0  0  0  0
  -15.5388  -12.2574    1.4991 O   0  0  0  0  0  0  0  0  0  0  0  0
  -16.1238  -13.5420   -0.5581 O   0  0  0  0  0  0  0  0  0  0  0  0
  -20.7239  -12.8194   -0.0359 C   0  0  1  0  0  0  0  0  0  0  0  0
  -20.0860  -11.4994    0.2192 C   0  0  1  0  0  0  0  0  0  0  0  0
  -19.4936  -10.4250   -0.6536 C   0  0  0  0  0  0  0  0  0  0  0  0
  -18.2523   -9.8719    0.0287 C   0  0  0  0  0  0  0  0  0  0  0  0
  -17.3782  -10.9585    0.3086 O   0  0  0  0  0  0  0  0  0  0  0  0
  1 11  1  0  0  0  0
  3 13  1  1  0  0  0
  3 17  2  0  0  0  0
  3 20  1  0  0  0  0
  3 26  1  0  0  0  0
  4 14  1  6  0  0  0
  4 18  1  0  0  0  0
  4 21  2  0  0  0  0
  4 20  1  0  0  0  0
  5 19  1  0  0  0  0
  5  7  1  0  0  0  0
  6  7  2  0  0  0  0
  6 12  1  0  0  0  0
  7  8  1  0  0  0  0
  8  9  1  0  0  0  0
  8 10  2  0  0  0  0
 10 11  1  0  0  0  0
 11 12  2  0  0  0  0
 15 23  1  0  0  0  0
 15 16  1  0  0  0  0
 16 19  1  0  0  0  0
 19 22  1  0  0  0  0
 22  2  1  1  0  0  0
 22 23  1  0  0  0  0
 23 24  1  6  0  0  0
 24 25  1  0  0  0  0
 25 26  1  0  0  0  0
M  CHG  2  13  -1  18  -1
M  END
>  <CHROM.1>
177.53928981,0.34184766,62.61949406,64.31956241,40.25179211,54.89727469,-169.98352443
55.66790323,-18.83163890,-13.03515391,1.54715608,-2.52035998,0.16107378,-0.47171600

>  <Name>
ligand

>  <RI>
0

>  <Rbt.Current_Directory>
/home/itssahil/PROJECTS/Mol_Feturizer/New_Systems/rnas/2GDI

>  <Rbt.Executable>
rbdock ($Id: //depot/dev/client3/rdock/2013.1/src/exe/rbdock.cxx#4 $)

>  <Rbt.Library>
libRbt.so (2013.1, Build901 2013/11/27)

>  <Rbt.Parameter_File>
/export/apps/rDock/src/rDock_2013.1_src/data/scripts/dock_solv.prm

>  <Rbt.Receptor>
prm/pocket_docking_5.prm

>  <SCORE>
-10.9905

>  <SCORE.INTER>
-11.1073

>  <SCORE.INTER.CONST>
1

>  <SCORE.INTER.POLAR>
0

>  <SCORE.INTER.ROT>
8

>  <SCORE.INTER.SOLV>
20.7229

>  <SCORE.INTER.VDW>
-23.2459

>  <SCORE.INTER.norm>
-0.427206

>  <SCORE.INTRA>
0.116804

>  <SCORE.INTRA.DIHEDRAL>
-2.42884

>  <SCORE.INTRA.DIHEDRAL.0>
8.13976

>  <SCORE.INTRA.POLAR>
0

>  <SCORE.INTRA.POLAR.0>
0

>  <SCORE.INTRA.REPUL>
0

>  <SCORE.INTRA.REPUL.0>
0

>  <SCORE.INTRA.SOLV>
0.0742049

>  <SCORE.INTRA.SOLV.lig_0>
-82.9561

>  <SCORE.INTRA.VDW>
1.29412

>  <SCORE.INTRA.VDW.0>
-3.29171

>  <SCORE.INTRA.norm>
0.00449245

>  <SCORE.RESTR>
0

>  <SCORE.RESTR.CAVITY>
0

>  <SCORE.RESTR.norm>
0

>  <SCORE.SYSTEM>
0

>  <SCORE.SYSTEM.CONST>
0

>  <SCORE.SYSTEM.DIHEDRAL>
0

>  <SCORE.SYSTEM.SOLV>
0

>  <SCORE.SYSTEM.norm>
0

>  <SCORE.heavy>
26

>  <SCORE.norm>
-0.422713

>  <RMSD>
8.296

$$$$
ligand
 OpenBabel11021811433D
libRbt.so/2013.1/901 2013/11/27
 26 27  0  0  0  0  0  0  0  0999 V2000
  -24.4050  -12.2853   -2.4833 C   0  0  0  0  0  0  0  0  0  0  0  0
  -23.3139  -13.8796    4.9740 C   0  0  0  0  0  0  0  0  0  0  0  0
  -20.3529  -18.0880    4.0191 P   0  0  1  0  0  0  0  0  0  0  0  0
  -20.9292  -19.9293    1.8428 P   0  0  1  0  0  0  0  0  0  0  0  0
  -25.4061  -12.8090    3.1521 C   0  0  0  0  0  0  0  0  0  0  0  0
  -26.1912  -12.5484    0.7633 C   0  0  0  0  0  0  0  0  0  0  0  0
  -25.1400  -12.6810    1.6617 C   0  0  0  0  0  0  0  0  0  0  0  0
  -23.8437  -12.6805    1.1731 C   0  0  0  0  0  0  0  0  0  0  0  0
  -22.7861  -12.8083    2.0107 N   0  0  0  0  0  0  0  0  0  0  0  0
  -23.6306  -12.5516   -0.1545 N   0  0  0  0  0  0  0  0  0  0  0  0
  -24.6697  -12.4257   -1.0087 C   0  0  0  0  0  0  0  0  0  0  0  0
  -25.9446  -12.4252   -0.5483 N   0  0  0  0  0  0  0  0  0  0  0  0
  -19.2238  -18.3871    4.9699 O   0  5  0  0  0  0  0  0  0  0  0  0
  -20.2457  -21.2578    1.7357 O   0  0  0  0  0  0  0  0  0  0  0  0
  -26.0151  -16.6790    3.8149 S   0  0  0  0  0  0  0  0  0  0  0  0
  -26.3279  -15.1101    3.1413 C   0  0  0  0  0  0  0  0  0  0  0  0
  -20.0974  -17.0724    2.9430 O   0  0  0  0  0  0  0  0  0  0  0  0
  -22.3805  -20.0938    1.5363 O   0  5  0  0  0  0  0  0  0  0  0  0
  -25.3934  -14.2132    3.5622 N   0  0  0  0  0  0  0  0  0  0  0  0
  -20.8809  -19.4911    3.4030 O   0  0  0  0  0  0  0  0  0  0  0  0
  -20.2961  -18.7985    1.0786 O   0  0  0  0  0  0  0  0  0  0  0  0
  -24.4350  -14.7019    4.3964 C   0  0  1  0  0  0  0  0  0  0  0  0
  -24.6125  -16.1555    4.6610 C   0  0  1  0  0  0  0  0  0  0  0  0
  -23.8741  -17.1787    5.4824 C   0  0  0  0  0  0  0  0  0  0  0  0
  -22.9256  -17.9427    4.5719 C   0  0  0  0  0  0  0  0  0  0  0  0
  -21.5958  -17.5441    4.8816 O   0  0  0  0  0  0  0  0  0  0  0  0
  1 11  1  0  0  0  0
  3 13  1  1  0  0  0
  3 17  2  0  0  0  0
  3 20  1  0  0  0  0
  3 26  1  0  0  0  0
  4 14  1  6  0  0  0
  4 18  1  0  0  0  0
  4 21  2  0  0  0  0
  4 20  1  0  0  0  0
  5 19  1  0  0  0  0
  5  7  1  0  0  0  0
  6  7  2  0  0  0  0
  6 12  1  0  0  0  0
  7  8  1  0  0  0  0
  8  9  1  0  0  0  0
  8 10  2  0  0  0  0
 10 11  1  0  0  0  0
 11 12  2  0  0  0  0
 15 23  1  0  0  0  0
 15 16  1  0  0  0  0
 16 19  1  0  0  0  0
 19 22  1  0  0  0  0
 22  2  1  6  0  0  0
 22 23  1  0  0  0  0
 23 24  1  1  0  0  0
 24 25  1  0  0  0  0
 25 26  1  0  0  0  0
M  CHG  2  13  -1  18  -1
M  END
>  <CHROM.1>
-120.81848944,-66.12436285,97.05504482,128.02117614,84.07245697,108.58735387
-175.41329374,-139.87582936,-23.02932939,-16.22262704,2.63272459,-2.50405204
-0.82116674,2.04486456

>  <Name>
ligand

>  <RI>
0

>  <Rbt.Current_Directory>
/home/itssahil/PROJECTS/Mol_Feturizer/New_Systems/rnas/2GDI

>  <Rbt.Executable>
rbdock ($Id: //depot/dev/client3/rdock/2013.1/src/exe/rbdock.cxx#4 $)

>  <Rbt.Library>
libRbt.so (2013.1, Build901 2013/11/27)

>  <Rbt.Parameter_File>
/export/apps/rDock/src/rDock_2013.1_src/data/scripts/dock_solv.prm

>  <Rbt.Receptor>
prm/pocket_docking_8.prm

>  <SCORE>
-11.9145

>  <SCORE.INTER>
-18.3424

>  <SCORE.INTER.CONST>
1

>  <SCORE.INTER.POLAR>
0

>  <SCORE.INTER.ROT>
8

>  <SCORE.INTER.SOLV>
19.67

>  <SCORE.INTER.VDW>
-27.7183

>  <SCORE.INTER.norm>
-0.705479

>  <SCORE.INTRA>
6.42795

>  <SCORE.INTRA.DIHEDRAL>
8.31453

>  <SCORE.INTRA.DIHEDRAL.0>
8.13976

>  <SCORE.INTRA.POLAR>
0

>  <SCORE.INTRA.POLAR.0>
0

>  <SCORE.INTRA.REPUL>
0

>  <SCORE.INTRA.REPUL.0>
0

>  <SCORE.INTRA.SOLV>
4.32441

>  <SCORE.INTRA.SOLV.lig_0>
-82.9561

>  <SCORE.INTRA.VDW>
0.108473

>  <SCORE.INTRA.VDW.0>
-3.29171

>  <SCORE.INTRA.norm>
0.247229

>  <SCORE.RESTR>
0

>  <SCORE.RESTR.CAVITY>
0

>  <SCORE.RESTR.norm>
0

>  <SCORE.SYSTEM>
0

>  <SCORE.SYSTEM.CONST>
0

>  <SCORE.SYSTEM.DIHEDRAL>
0

>  <SCORE.SYSTEM.SOLV>
0

>  <SCORE.SYSTEM.norm>
0

>  <SCORE.heavy>
26

>  <SCORE.norm>
-0.45825

>  <RMSD>
8.300

$$$$
ligand
 OpenBabel11021811433D
libRbt.so/2013.1/901 2013/11/27
 26 27  0  0  0  0  0  0  0  0999 V2000
  -22.3677  -11.6028    3.1319 C   0  0  0  0  0  0  0  0  0  0  0  0
  -21.3809  -19.7200    1.8591 C   0  0  0  0  0  0  0  0  0  0  0  0
  -23.1419  -20.0641   -2.1630 P   0  0  1  0  0  0  0  0  0  0  0  0
  -23.5840  -22.0462   -4.2450 P   0  0  1  0  0  0  0  0  0  0  0  0
  -21.5085  -17.2710    3.5410 C   0  0  0  0  0  0  0  0  0  0  0  0
  -22.3579  -15.0733    4.4570 C   0  0  0  0  0  0  0  0  0  0  0  0
  -21.7441  -15.7744    3.4268 C   0  0  0  0  0  0  0  0  0  0  0  0
  -21.3388  -15.0796    2.2989 C   0  0  0  0  0  0  0  0  0  0  0  0
  -20.7368  -15.7205    1.2678 N   0  0  0  0  0  0  0  0  0  0  0  0
  -21.5461  -13.7469    2.2253 N   0  0  0  0  0  0  0  0  0  0  0  0
  -22.1469  -13.0873    3.2398 C   0  0  0  0  0  0  0  0  0  0  0  0
  -22.5509  -13.7512    4.3504 N   0  0  0  0  0  0  0  0  0  0  0  0
  -21.7254  -19.5989   -2.3762 O   0  5  0  0  0  0  0  0  0  0  0  0
  -23.8024  -23.5277   -4.2154 O   0  0  0  0  0  0  0  0  0  0  0  0
  -25.1576  -18.7382    2.9766 S   0  0  0  0  0  0  0  0  0  0  0  0
  -23.9597  -17.6383    3.5833 C   0  0  0  0  0  0  0  0  0  0  0  0
  -24.2420  -19.1867   -2.6872 O   0  0  0  0  0  0  0  0  0  0  0  0
  -24.8646  -21.3646   -4.5955 O   0  5  0  0  0  0  0  0  0  0  0  0
  -22.7150  -18.0148    3.1786 N   0  0  0  0  0  0  0  0  0  0  0  0
  -23.2671  -21.5791   -2.7250 O   0  0  0  0  0  0  0  0  0  0  0  0
  -22.4227  -21.5673   -5.0727 O   0  0  0  0  0  0  0  0  0  0  0  0
  -22.6550  -19.1359    2.4086 C   0  0  1  0  0  0  0  0  0  0  0  0
  -24.0031  -19.7130    2.1556 C   0  0  1  0  0  0  0  0  0  0  0  0
  -24.5163  -20.9084    1.3976 C   0  0  0  0  0  0  0  0  0  0  0  0
  -24.6701  -20.5281   -0.0666 C   0  0  0  0  0  0  0  0  0  0  0  0
  -23.3824  -20.2101   -0.5802 O   0  0  0  0  0  0  0  0  0  0  0  0
  1 11  1  0  0  0  0
  3 13  1  6  0  0  0
  3 17  2  0  0  0  0
  3 20  1  0  0  0  0
  3 26  1  0  0  0  0
  4 14  1  6  0  0  0
  4 18  1  0  0  0  0
  4 21  2  0  0  0  0
  4 20  1  0  0  0  0
  5 19  1  0  0  0  0
  5  7  1  0  0  0  0
  6  7  2  0  0  0  0
  6 12  1  0  0  0  0
  7  8  1  0  0  0  0
  8  9  1  0  0  0  0
  8 10  2  0  0  0  0
 10 11  1  0  0  0  0
 11 12  2  0  0  0  0
 15 23  1  0  0  0  0
 15 16  1  0  0  0  0
 16 19  1  0  0  0  0
 19 22  1  0  0  0  0
 22  2  1  6  0  0  0
 22 23  1  0  0  0  0
 23 24  1  1  0  0  0
 24 25  1  0  0  0  0
 25 26  1  0  0  0  0
M  CHG  2  13  -1  18  -1
M  END
>  <CHROM.1>
-86.18149939,-42.24537482,82.51811347,-171.51151499,96.97676573,63.29613475
167.16504475,174.69907176,-23.06926907,-18.64142807,0.23371551,-1.29089507
-1.07960598,-2.08817066

>  <Name>
ligand

>  <RI>
0

>  <Rbt.Current_Directory>
/home/itssahil/PROJECTS/Mol_Feturizer/New_Systems/rnas/2GDI

>  <Rbt.Executable>
rbdock ($Id: //depot/dev/client3/rdock/2013.1/src/exe/rbdock.cxx#4 $)

>  <Rbt.Library>
libRbt.so (2013.1, Build901 2013/11/27)

>  <Rbt.Parameter_File>
/export/apps/rDock/src/rDock_2013.1_src/data/scripts/dock_solv.prm

>  <Rbt.Receptor>
prm/pocket_docking_8.prm

>  <SCORE>
-13.7836

>  <SCORE.INTER>
-14.2062

>  <SCORE.INTER.CONST>
1

>  <SCORE.INTER.POLAR>
0

>  <SCORE.INTER.ROT>
8

>  <SCORE.INTER.SOLV>
10.8611

>  <SCORE.INTER.VDW>
-22.0245

>  <SCORE.INTER.norm>
-0.546393

>  <SCORE.INTRA>
0.412584

>  <SCORE.INTRA.DIHEDRAL>
-1.58832

>  <SCORE.INTRA.DIHEDRAL.0>
8.13976

>  <SCORE.INTRA.POLAR>
0

>  <SCORE.INTRA.POLAR.0>
0

>  <SCORE.INTRA.REPUL>
0

>  <SCORE.INTRA.REPUL.0>
0

>  <SCORE.INTRA.SOLV>
3.17992

>  <SCORE.INTRA.SOLV.lig_0>
-82.9561

>  <SCORE.INTRA.VDW>
-0.383216

>  <SCORE.INTRA.VDW.0>
-3.29171

>  <SCORE.INTRA.norm>
0.0158686

>  <SCORE.RESTR>
0.0100918

>  <SCORE.RESTR.CAVITY>
0.0100918

>  <SCORE.RESTR.norm>
0.000388145

>  <SCORE.SYSTEM>
0

>  <SCORE.SYSTEM.CONST>
0

>  <SCORE.SYSTEM.DIHEDRAL>
0

>  <SCORE.SYSTEM.SOLV>
0

>  <SCORE.SYSTEM.norm>
0

>  <SCORE.heavy>
26

>  <SCORE.norm>
-0.530137

>  <RMSD>
8.325

$$$$
ligand
 OpenBabel11021811433D
libRbt.so/2013.1/901 2013/11/27
 26 27  0  0  0  0  0  0  0  0999 V2000
  -22.5942  -12.2938    3.9399 C   0  0  0  0  0  0  0  0  0  0  0  0
  -24.3793  -18.4875    3.0450 C   0  0  0  0  0  0  0  0  0  0  0  0
  -20.9195  -17.9067   -1.8078 P   0  0  1  0  0  0  0  0  0  0  0  0
  -21.2493  -15.0180   -1.8821 P   0  0  1  0  0  0  0  0  0  0  0  0
  -22.2731  -17.9206    5.0663 C   0  0  0  0  0  0  0  0  0  0  0  0
  -21.6772  -15.8851    3.6909 C   0  0  0  0  0  0  0  0  0  0  0  0
  -22.3508  -16.4313    4.7761 C   0  0  0  0  0  0  0  0  0  0  0  0
  -23.1058  -15.5934    5.5804 C   0  0  0  0  0  0  0  0  0  0  0  0
  -23.7794  -16.0801    6.6508 N   0  0  0  0  0  0  0  0  0  0  0  0
  -23.1714  -14.2747    5.2950 N   0  0  0  0  0  0  0  0  0  0  0  0
  -22.5059  -13.7666    4.2348 C   0  0  0  0  0  0  0  0  0  0  0  0
  -21.7616  -14.5716    3.4377 N   0  0  0  0  0  0  0  0  0  0  0  0
  -21.5675  -18.2042   -3.1345 O   0  5  0  0  0  0  0  0  0  0  0  0
  -21.7369  -15.0412   -3.2982 O   0  0  0  0  0  0  0  0  0  0  0  0
  -20.7465  -19.9939    2.0401 S   0  0  0  0  0  0  0  0  0  0  0  0
  -20.7397  -19.1546    3.5595 C   0  0  0  0  0  0  0  0  0  0  0  0
  -19.4195  -17.9446   -1.7493 O   0  0  0  0  0  0  0  0  0  0  0  0
  -22.1178  -14.1117   -1.0750 O   0  5  0  0  0  0  0  0  0  0  0  0
  -21.9806  -18.6720    3.8457 N   0  0  0  0  0  0  0  0  0  0  0  0
  -21.5031  -16.4955   -1.2647 O   0  0  0  0  0  0  0  0  0  0  0  0
  -19.7827  -14.7405   -1.6942 O   0  0  0  0  0  0  0  0  0  0  0  0
  -22.9459  -18.9307    2.9211 C   0  0  1  0  0  0  0  0  0  0  0  0
  -22.4235  -19.7218    1.7741 C   0  0  1  0  0  0  0  0  0  0  0  0
  -23.0242  -20.2706    0.5072 C   0  0  0  0  0  0  0  0  0  0  0  0
  -22.8421  -19.2467   -0.6022 C   0  0  0  0  0  0  0  0  0  0  0  0
  -21.4506  -18.9882   -0.7436 O   0  0  0  0  0  0  0  0  0  0  0  0
  1 11  1  0  0  0  0
  3 13  1  6  0  0  0
  3 17  2  0  0  0  0
  3 20  1  0  0  0  0
  3 26  1  0  0  0  0
  4 14  1  6  0  0  0
  4 18  1  0  0  0  0
  4 21  2  0  0  0  0
  4 20  1  0  0  0  0
  5 19  1  0  0  0  0
  5  7  1  0  0  0  0
  6  7  2  0  0  0  0
  6 12  1  0  0  0  0
  7  8  1  0  0  0  0
  8  9  1  0  0  0  0
  8 10  2  0  0  0  0
 10 11  1  0  0  0  0
 11 12  2  0  0  0  0
 15 23  1  0  0  0  0
 15 16  1  0  0  0  0
 16 19  1  0  0  0  0
 19 22  1  0  0  0  0
 22  2  1  1  0  0  0
 22 23  1  0  0  0  0
 23 24  1  6  0  0  0
 24 25  1  0  0  0  0
 25 26  1  0  0  0  0
M  CHG  2  13  -1  18  -1
M  END
>  <CHROM.1>
-68.30848055,101.92420896,-25.27135620,58.76166606,-86.90304393,58.29340762
-177.97726491,-49.89095966,-21.84168459,-16.98363329,1.21117193,-3.13378773
-1.33915802,3.03328178

>  <Name>
ligand

>  <RI>
0

>  <Rbt.Current_Directory>
/home/itssahil/PROJECTS/Mol_Feturizer/New_Systems/rnas/2GDI

>  <Rbt.Executable>
rbdock ($Id: //depot/dev/client3/rdock/2013.1/src/exe/rbdock.cxx#4 $)

>  <Rbt.Library>
libRbt.so (2013.1, Build901 2013/11/27)

>  <Rbt.Parameter_File>
/export/apps/rDock/src/rDock_2013.1_src/data/scripts/dock_solv.prm

>  <Rbt.Receptor>
prm/pocket_docking_7.prm

>  <SCORE>
-13.4649

>  <SCORE.INTER>
-11.493

>  <SCORE.INTER.CONST>
1

>  <SCORE.INTER.POLAR>
0

>  <SCORE.INTER.ROT>
8

>  <SCORE.INTER.SOLV>
7.70457

>  <SCORE.INTER.VDW>
-19.1635

>  <SCORE.INTER.norm>
-0.44204

>  <SCORE.INTRA>
-1.97185

>  <SCORE.INTRA.DIHEDRAL>
-3.09777

>  <SCORE.INTRA.DIHEDRAL.0>
8.13976

>  <SCORE.INTRA.POLAR>
0

>  <SCORE.INTRA.POLAR.0>
0

>  <SCORE.INTRA.REPUL>
0

>  <SCORE.INTRA.REPUL.0>
0

>  <SCORE.INTRA.SOLV>
0.240432

>  <SCORE.INTRA.SOLV.lig_0>
-82.9561

>  <SCORE.INTRA.VDW>
-0.54318

>  <SCORE.INTRA.VDW.0>
-3.29171

>  <SCORE.INTRA.norm>
-0.0758404

>  <SCORE.RESTR>
0

>  <SCORE.RESTR.CAVITY>
0

>  <SCORE.RESTR.norm>
0

>  <SCORE.SYSTEM>
0

>  <SCORE.SYSTEM.CONST>
0

>  <SCORE.SYSTEM.DIHEDRAL>
0

>  <SCORE.SYSTEM.SOLV>
0

>  <SCORE.SYSTEM.norm>
0

>  <SCORE.heavy>
26

>  <SCORE.norm>
-0.51788

>  <RMSD>
8.328

$$$$
ligand
 OpenBabel11021811433D
libRbt.so/2013.1/901 2013/11/27
 26 27  0  0  0  0  0  0  0  0999 V2000
  -24.1372  -11.8630   -2.3059 C   0  0  0  0  0  0  0  0  0  0  0  0
  -18.1446  -17.5786   -2.7852 C   0  0  0  0  0  0  0  0  0  0  0  0
  -15.2388  -14.0684    0.1568 P   0  0  1  0  0  0  0  0  0  0  0  0
  -16.2288  -11.5397    1.1979 P   0  0  1  0  0  0  0  0  0  0  0  0
  -20.4776  -16.0366   -3.7964 C   0  0  0  0  0  0  0  0  0  0  0  0
  -22.5340  -14.6243   -4.2047 C   0  0  0  0  0  0  0  0  0  0  0  0
  -21.4382  -14.9261   -3.4060 C   0  0  0  0  0  0  0  0  0  0  0  0
  -21.2463  -14.2037   -2.2398 C   0  0  0  0  0  0  0  0  0  0  0  0
  -20.1912  -14.4612   -1.4294 N   0  0  0  0  0  0  0  0  0  0  0  0
  -22.1211  -13.2301   -1.9059 N   0  0  0  0  0  0  0  0  0  0  0  0
  -23.1786  -12.9538   -2.6999 C   0  0  0  0  0  0  0  0  0  0  0  0
  -23.3813  -13.6499   -3.8452 N   0  0  0  0  0  0  0  0  0  0  0  0
  -13.8756  -14.4617    0.6625 O   0  5  0  0  0  0  0  0  0  0  0  0
  -16.1510  -12.1747    2.5522 O   0  0  0  0  0  0  0  0  0  0  0  0
  -17.1149  -14.0257   -4.4565 S   0  0  0  0  0  0  0  0  0  0  0  0
  -18.8251  -14.3220   -4.4848 C   0  0  0  0  0  0  0  0  0  0  0  0
  -16.4281  -14.7142    0.8073 O   0  0  0  0  0  0  0  0  0  0  0  0
  -15.5332  -10.2197    1.2301 O   0  5  0  0  0  0  0  0  0  0  0  0
  -19.1124  -15.5240   -3.9127 N   0  0  0  0  0  0  0  0  0  0  0  0
  -15.3440  -12.4514    0.1907 O   0  0  0  0  0  0  0  0  0  0  0  0
  -17.6001  -11.4616    0.5841 O   0  0  0  0  0  0  0  0  0  0  0  0
  -18.0453  -16.2311   -3.4493 C   0  0  1  0  0  0  0  0  0  0  0  0
  -16.7617  -15.5082   -3.6599 C   0  0  1  0  0  0  0  0  0  0  0  0
  -15.3176  -15.8073   -3.3567 C   0  0  0  0  0  0  0  0  0  0  0  0
  -15.1185  -15.7730   -1.8496 C   0  0  0  0  0  0  0  0  0  0  0  0
  -15.3118  -14.4352   -1.4067 O   0  0  0  0  0  0  0  0  0  0  0  0
  1 11  1  0  0  0  0
  3 13  1  1  0  0  0
  3 17  2  0  0  0  0
  3 20  1  0  0  0  0
  3 26  1  0  0  0  0
  4 14  1  1  0  0  0
  4 18  1  0  0  0  0
  4 21  2  0  0  0  0
  4 20  1  0  0  0  0
  5 19  1  0  0  0  0
  5  7  1  0  0  0  0
  6  7  2  0  0  0  0
  6 12  1  0  0  0  0
  7  8  1  0  0  0  0
  8  9  1  0  0  0  0
  8 10  2  0  0  0  0
 10 11  1  0  0  0  0
 11 12  2  0  0  0  0
 15 23  1  0  0  0  0
 15 16  1  0  0  0  0
 16 19  1  0  0  0  0
 19 22  1  0  0  0  0
 22  2  1  1  0  0  0
 22 23  1  0  0  0  0
 23 24  1  6  0  0  0
 24 25  1  0  0  0  0
 25 26  1  0  0  0  0
M  CHG  2  13  -1  18  -1
M  END
>  <CHROM.1>
-108.73262647,-40.91432032,122.62228095,39.18167853,112.27982485,-66.79589338
177.14767200,58.96507034,-18.00525131,-13.92181303,-1.61428159,2.62310817
0.27452069,-2.31589408

>  <Name>
ligand

>  <RI>
0

>  <Rbt.Current_Directory>
/home/itssahil/PROJECTS/Mol_Feturizer/New_Systems/rnas/2GDI

>  <Rbt.Executable>
rbdock ($Id: //depot/dev/client3/rdock/2013.1/src/exe/rbdock.cxx#4 $)

>  <Rbt.Library>
libRbt.so (2013.1, Build901 2013/11/27)

>  <Rbt.Parameter_File>
/export/apps/rDock/src/rDock_2013.1_src/data/scripts/dock_solv.prm

>  <Rbt.Receptor>
prm/pocket_docking_7.prm

>  <SCORE>
-8.18446

>  <SCORE.INTER>
-8.57613

>  <SCORE.INTER.CONST>
1

>  <SCORE.INTER.POLAR>
0

>  <SCORE.INTER.ROT>
8

>  <SCORE.INTER.SOLV>
11.7675

>  <SCORE.INTER.VDW>
-18.5732

>  <SCORE.INTER.norm>
-0.329851

>  <SCORE.INTRA>
0.391665

>  <SCORE.INTRA.DIHEDRAL>
-0.49602

>  <SCORE.INTRA.DIHEDRAL.0>
8.13976

>  <SCORE.INTRA.POLAR>
0

>  <SCORE.INTRA.POLAR.0>
0

>  <SCORE.INTRA.REPUL>
0.000591524

>  <SCORE.INTRA.REPUL.0>
0

>  <SCORE.INTRA.SOLV>
2.59646

>  <SCORE.INTRA.SOLV.lig_0>
-82.9561

>  <SCORE.INTRA.VDW>
-0.661514

>  <SCORE.INTRA.VDW.0>
-3.29171

>  <SCORE.INTRA.norm>
0.015064

>  <SCORE.RESTR>
0

>  <SCORE.RESTR.CAVITY>
0

>  <SCORE.RESTR.norm>
0

>  <SCORE.SYSTEM>
0

>  <SCORE.SYSTEM.CONST>
0

>  <SCORE.SYSTEM.DIHEDRAL>
0

>  <SCORE.SYSTEM.SOLV>
0

>  <SCORE.SYSTEM.norm>
0

>  <SCORE.heavy>
26

>  <SCORE.norm>
-0.314787

>  <RMSD>
8.332

$$$$
ligand
 OpenBabel11021811433D
libRbt.so/2013.1/901 2013/11/27
 26 27  0  0  0  0  0  0  0  0999 V2000
  -24.4294  -12.8913   -2.5514 C   0  0  0  0  0  0  0  0  0  0  0  0
  -21.5364  -18.7818   -0.2460 C   0  0  0  0  0  0  0  0  0  0  0  0
  -24.0279  -18.6192    2.7021 P   0  0  1  0  0  0  0  0  0  0  0  0
  -25.5227  -16.1649    2.2536 P   0  0  1  0  0  0  0  0  0  0  0  0
  -21.5170  -17.8201   -3.0599 C   0  0  0  0  0  0  0  0  0  0  0  0
  -23.3861  -16.4259   -2.0837 C   0  0  0  0  0  0  0  0  0  0  0  0
  -22.2919  -16.5192   -2.9345 C   0  0  0  0  0  0  0  0  0  0  0  0
  -21.9131  -15.3990   -3.6560 C   0  0  0  0  0  0  0  0  0  0  0  0
  -20.8532  -15.4421   -4.4993 N   0  0  0  0  0  0  0  0  0  0  0  0
  -22.6086  -14.2493   -3.5180 N   0  0  0  0  0  0  0  0  0  0  0  0
  -23.6705  -14.1837   -2.6854 C   0  0  0  0  0  0  0  0  0  0  0  0
  -24.0559  -15.2702   -1.9725 N   0  0  0  0  0  0  0  0  0  0  0  0
  -22.8275  -17.9962    3.3650 O   0  5  0  0  0  0  0  0  0  0  0  0
  -26.7663  -16.6202    2.9533 O   0  0  0  0  0  0  0  0  0  0  0  0
  -23.9730  -20.9211   -2.6879 S   0  0  0  0  0  0  0  0  0  0  0  0
  -23.1412  -19.6380   -3.5093 C   0  0  0  0  0  0  0  0  0  0  0  0
  -25.0258  -19.3067    3.5889 O   0  0  0  0  0  0  0  0  0  0  0  0
  -24.6106  -15.5144    3.2395 O   0  5  0  0  0  0  0  0  0  0  0  0
  -22.3401  -18.9559   -2.6445 N   0  0  0  0  0  0  0  0  0  0  0  0
  -24.7316  -17.4951    1.7703 O   0  0  0  0  0  0  0  0  0  0  0  0
  -25.7288  -15.3366    1.0148 O   0  0  0  0  0  0  0  0  0  0  0  0
  -22.3480  -19.3950   -1.3559 C   0  0  1  0  0  0  0  0  0  0  0  0
  -23.2433  -20.5692   -1.1711 C   0  0  1  0  0  0  0  0  0  0  0  0
  -23.6269  -21.4323    0.0015 C   0  0  0  0  0  0  0  0  0  0  0  0
  -24.4122  -20.5876    0.9925 C   0  0  0  0  0  0  0  0  0  0  0  0
  -23.5007  -19.7223    1.6583 O   0  0  0  0  0  0  0  0  0  0  0  0
  1 11  1  0  0  0  0
  3 13  1  1  0  0  0
  3 17  2  0  0  0  0
  3 20  1  0  0  0  0
  3 26  1  0  0  0  0
  4 14  1  1  0  0  0
  4 18  1  0  0  0  0
  4 21  2  0  0  0  0
  4 20  1  0  0  0  0
  5 19  1  0  0  0  0
  5  7  1  0  0  0  0
  6  7  2  0  0  0  0
  6 12  1  0  0  0  0
  7  8  1  0  0  0  0
  8  9  1  0  0  0  0
  8 10  2  0  0  0  0
 10 11  1  0  0  0  0
 11 12  2  0  0  0  0
 15 23  1  0  0  0  0
 15 16  1  0  0  0  0
 16 19  1  0  0  0  0
 19 22  1  0  0  0  0
 22  2  1  6  0  0  0
 22 23  1  0  0  0  0
 23 24  1  1  0  0  0
 24 25  1  0  0  0  0
 25 26  1  0  0  0  0
M  CHG  2  13  -1  18  -1
M  END
>  <CHROM.1>
-68.83780078,89.27446380,22.06558708,-66.78059548,-112.48498617,-74.03839039
175.64133827,172.65259779,-23.72067271,-17.63904488,-0.25864493,0.55246693
1.15918313,-0.34616089

>  <Name>
ligand

>  <RI>
0

>  <Rbt.Current_Directory>
/home/itssahil/PROJECTS/Mol_Feturizer/New_Systems/rnas/2GDI

>  <Rbt.Executable>
rbdock ($Id: //depot/dev/client3/rdock/2013.1/src/exe/rbdock.cxx#4 $)

>  <Rbt.Library>
libRbt.so (2013.1, Build901 2013/11/27)

>  <Rbt.Parameter_File>
/export/apps/rDock/src/rDock_2013.1_src/data/scripts/dock_solv.prm

>  <Rbt.Receptor>
prm/pocket_docking_7.prm

>  <SCORE>
-9.07356

>  <SCORE.INTER>
-7.95726

>  <SCORE.INTER.CONST>
1

>  <SCORE.INTER.POLAR>
0

>  <SCORE.INTER.ROT>
8

>  <SCORE.INTER.SOLV>
15.743

>  <SCORE.INTER.VDW>
-19.4858

>  <SCORE.INTER.norm>
-0.306048

>  <SCORE.INTRA>
-1.1163

>  <SCORE.INTRA.DIHEDRAL>
-2.38387

>  <SCORE.INTRA.DIHEDRAL.0>
8.13976

>  <SCORE.INTRA.POLAR>
0

>  <SCORE.INTRA.POLAR.0>
0

>  <SCORE.INTRA.REPUL>
0

>  <SCORE.INTRA.REPUL.0>
0

>  <SCORE.INTRA.SOLV>
1.36515

>  <SCORE.INTRA.SOLV.lig_0>
-82.9561

>  <SCORE.INTRA.VDW>
-0.606937

>  <SCORE.INTRA.VDW.0>
-3.29171

>  <SCORE.INTRA.norm>
-0.0429346

>  <SCORE.RESTR>
0

>  <SCORE.RESTR.CAVITY>
0

>  <SCORE.RESTR.norm>
0

>  <SCORE.SYSTEM>
0

>  <SCORE.SYSTEM.CONST>
0

>  <SCORE.SYSTEM.DIHEDRAL>
0

>  <SCORE.SYSTEM.SOLV>
0

>  <SCORE.SYSTEM.norm>
0

>  <SCORE.heavy>
26

>  <SCORE.norm>
-0.348983

>  <RMSD>
8.347

$$$$
ligand
 OpenBabel11021811433D
libRbt.so/2013.1/901 2013/11/27
 26 27  0  0  0  0  0  0  0  0999 V2000
  -22.4127   -6.4231    6.3678 C   0  0  0  0  0  0  0  0  0  0  0  0
  -26.2645  -11.5514    4.7123 C   0  0  0  0  0  0  0  0  0  0  0  0
  -26.4526  -13.3954   -1.2414 P   0  0  1  0  0  0  0  0  0  0  0  0
  -24.6387  -13.0808   -3.4930 P   0  0  1  0  0  0  0  0  0  0  0  0
  -23.9180  -11.9685    6.4908 C   0  0  0  0  0  0  0  0  0  0  0  0
  -22.7941   -9.9877    5.3939 C   0  0  0  0  0  0  0  0  0  0  0  0
  -23.5121  -10.5047    6.4649 C   0  0  0  0  0  0  0  0  0  0  0  0
  -23.8623   -9.6561    7.5022 C   0  0  0  0  0  0  0  0  0  0  0  0
  -24.5615  -10.1149    8.5685 N   0  0  0  0  0  0  0  0  0  0  0  0
  -23.5025   -8.3551    7.4511 N   0  0  0  0  0  0  0  0  0  0  0  0
  -22.8027   -7.8760    6.3994 C   0  0  0  0  0  0  0  0  0  0  0  0
  -22.4506   -8.6922    5.3761 N   0  0  0  0  0  0  0  0  0  0  0  0
  -27.9461  -13.5654   -1.1470 O   0  5  0  0  0  0  0  0  0  0  0  0
  -24.8360  -12.6800   -4.9227 O   0  0  0  0  0  0  0  0  0  0  0  0
  -23.3164  -13.7452    2.9881 S   0  0  0  0  0  0  0  0  0  0  0  0
  -22.9383  -13.2493    4.6081 C   0  0  0  0  0  0  0  0  0  0  0  0
  -25.5974  -14.5276   -0.7500 O   0  0  0  0  0  0  0  0  0  0  0  0
  -23.7978  -12.0581   -2.8044 O   0  5  0  0  0  0  0  0  0  0  0  0
  -23.9595  -12.5191    5.1360 N   0  0  0  0  0  0  0  0  0  0  0  0
  -26.0851  -12.9873   -2.7663 O   0  0  0  0  0  0  0  0  0  0  0  0
  -24.1533  -14.4860   -3.2631 O   0  0  0  0  0  0  0  0  0  0  0  0
  -25.0344  -12.3272    4.3229 C   0  0  1  0  0  0  0  0  0  0  0  0
  -24.8615  -12.9906    3.0021 C   0  0  1  0  0  0  0  0  0  0  0  0
  -25.7012  -13.1032    1.7574 C   0  0  0  0  0  0  0  0  0  0  0  0
  -25.1077  -12.2025    0.6857 C   0  0  0  0  0  0  0  0  0  0  0  0
  -26.0459  -12.1013   -0.3786 O   0  0  0  0  0  0  0  0  0  0  0  0
  1 11  1  0  0  0  0
  3 13  1  1  0  0  0
  3 17  2  0  0  0  0
  3 20  1  0  0  0  0
  3 26  1  0  0  0  0
  4 14  1  6  0  0  0
  4 18  1  0  0  0  0
  4 21  2  0  0  0  0
  4 20  1  0  0  0  0
  5 19  1  0  0  0  0
  5  7  1  0  0  0  0
  6  7  2  0  0  0  0
  6 12  1  0  0  0  0
  7  8  1  0  0  0  0
  8  9  1  0  0  0  0
  8 10  2  0  0  0  0
 10 11  1  0  0  0  0
 11 12  2  0  0  0  0
 15 23  1  0  0  0  0
 15 16  1  0  0  0  0
 16 19  1  0  0  0  0
 19 22  1  0  0  0  0
 22  2  1  1  0  0  0
 22 23  1  0  0  0  0
 23 24  1  6  0  0  0
 24 25  1  0  0  0  0
 25 26  1  0  0  0  0
M  CHG  2  13  -1  18  -1
M  END
>  <CHROM.1>
-161.89721293,98.65828230,-23.11371482,176.10564923,-73.08160118,-168.24452996
-64.09051094,122.69253610,-24.57838039,-11.97350029,1.93396701,-1.12855012
-1.11781371,-1.54053819

>  <Name>
ligand

>  <RI>
0

>  <Rbt.Current_Directory>
/home/itssahil/PROJECTS/Mol_Feturizer/New_Systems/rnas/2GDI

>  <Rbt.Executable>
rbdock ($Id: //depot/dev/client3/rdock/2013.1/src/exe/rbdock.cxx#4 $)

>  <Rbt.Library>
libRbt.so (2013.1, Build901 2013/11/27)

>  <Rbt.Parameter_File>
/export/apps/rDock/src/rDock_2013.1_src/data/scripts/dock_solv.prm

>  <Rbt.Receptor>
prm/blind_docking_100.prm

>  <SCORE>
-4.65453

>  <SCORE.INTER>
-7.95932

>  <SCORE.INTER.CONST>
1

>  <SCORE.INTER.POLAR>
0

>  <SCORE.INTER.ROT>
8

>  <SCORE.INTER.SOLV>
19.4899

>  <SCORE.INTER.VDW>
-20.7362

>  <SCORE.INTER.norm>
-0.306128

>  <SCORE.INTRA>
3.04681

>  <SCORE.INTRA.DIHEDRAL>
0.781742

>  <SCORE.INTRA.DIHEDRAL.0>
8.13976

>  <SCORE.INTRA.POLAR>
0

>  <SCORE.INTRA.POLAR.0>
0

>  <SCORE.INTRA.REPUL>
0

>  <SCORE.INTRA.REPUL.0>
0

>  <SCORE.INTRA.SOLV>
3.56231

>  <SCORE.INTRA.SOLV.lig_0>
-82.9561

>  <SCORE.INTRA.VDW>
0.874788

>  <SCORE.INTRA.VDW.0>
-3.29171

>  <SCORE.INTRA.norm>
0.117185

>  <SCORE.RESTR>
0.257969

>  <SCORE.RESTR.CAVITY>
0.257969

>  <SCORE.RESTR.norm>
0.00992189

>  <SCORE.SYSTEM>
0

>  <SCORE.SYSTEM.CONST>
0

>  <SCORE.SYSTEM.DIHEDRAL>
0

>  <SCORE.SYSTEM.SOLV>
0

>  <SCORE.SYSTEM.norm>
0

>  <SCORE.heavy>
26

>  <SCORE.norm>
-0.17902

>  <RMSD>
8.359

$$$$
ligand
 OpenBabel11021811433D
libRbt.so/2013.1/901 2013/11/27
 26 27  0  0  0  0  0  0  0  0999 V2000
  -19.5995  -17.1478   -3.0934 C   0  0  0  0  0  0  0  0  0  0  0  0
  -24.2297  -18.9907    3.1092 C   0  0  0  0  0  0  0  0  0  0  0  0
  -22.9142  -15.2097    3.4971 P   0  0  1  0  0  0  0  0  0  0  0  0
  -22.7407  -12.3427    3.9546 P   0  0  1  0  0  0  0  0  0  0  0  0
  -22.0880  -19.9340    1.2744 C   0  0  0  0  0  0  0  0  0  0  0  0
  -20.0913  -18.8380    0.1779 C   0  0  0  0  0  0  0  0  0  0  0  0
  -21.4344  -19.1884    0.1232 C   0  0  0  0  0  0  0  0  0  0  0  0
  -22.1627  -18.8566   -1.0075 C   0  0  0  0  0  0  0  0  0  0  0  0
  -23.4758  -19.1764   -1.1062 N   0  0  0  0  0  0  0  0  0  0  0  0
  -21.5571  -18.2058   -2.0246 N   0  0  0  0  0  0  0  0  0  0  0  0
  -20.2497  -17.8742   -1.9472 C   0  0  0  0  0  0  0  0  0  0  0  0
  -19.5221  -18.1900   -0.8481 N   0  0  0  0  0  0  0  0  0  0  0  0
  -23.7560  -16.0841    2.6054 O   0  5  0  0  0  0  0  0  0  0  0  0
  -21.3134  -12.1593    3.5390 O   0  0  0  0  0  0  0  0  0  0  0  0
  -20.4883  -18.3073    4.5274 S   0  0  0  0  0  0  0  0  0  0  0  0
  -20.4974  -19.0893    2.9777 C   0  0  0  0  0  0  0  0  0  0  0  0
  -21.4289  -15.4292    3.4749 O   0  0  0  0  0  0  0  0  0  0  0  0
  -23.5610  -11.2187    3.4152 O   0  5  0  0  0  0  0  0  0  0  0  0
  -21.7748  -19.2929    2.5515 N   0  0  0  0  0  0  0  0  0  0  0  0
  -23.2941  -13.6634    3.1942 O   0  0  0  0  0  0  0  0  0  0  0  0
  -22.9746  -12.5844    5.4209 O   0  0  0  0  0  0  0  0  0  0  0  0
  -22.7564  -18.8617    3.3905 C   0  0  1  0  0  0  0  0  0  0  0  0
  -22.2036  -18.2282    4.6184 C   0  0  1  0  0  0  0  0  0  0  0  0
  -22.8061  -17.5988    5.8464 C   0  0  0  0  0  0  0  0  0  0  0  0
  -23.9468  -16.6890    5.4183 C   0  0  0  0  0  0  0  0  0  0  0  0
  -23.3927  -15.4429    5.0140 O   0  0  0  0  0  0  0  0  0  0  0  0
  1 11  1  0  0  0  0
  3 13  1  6  0  0  0
  3 17  2  0  0  0  0
  3 20  1  0  0  0  0
  3 26  1  0  0  0  0
  4 14  1  6  0  0  0
  4 18  1  0  0  0  0
  4 21  2  0  0  0  0
  4 20  1  0  0  0  0
  5 19  1  0  0  0  0
  5  7  1  0  0  0  0
  6  7  2  0  0  0  0
  6 12  1  0  0  0  0
  7  8  1  0  0  0  0
  8  9  1  0  0  0  0
  8 10  2  0  0  0  0
 10 11  1  0  0  0  0
 11 12  2  0  0  0  0
 15 23  1  0  0  0  0
 15 16  1  0  0  0  0
 16 19  1  0  0  0  0
 19 22  1  0  0  0  0
 22  2  1  6  0  0  0
 22 23  1  0  0  0  0
 23 24  1  1  0  0  0
 24 25  1  0  0  0  0
 25 26  1  0  0  0  0
M  CHG  2  13  -1  18  -1
M  END
>  <CHROM.1>
175.73342028,-56.81646948,48.54272333,71.97721507,136.83853299,-82.23688482
87.86859129,28.93786139,-22.12649683,-16.52276535,2.53139699,-0.54132508
1.28486923,-0.28614390

>  <Name>
ligand

>  <RI>
0

>  <Rbt.Current_Directory>
/home/itssahil/PROJECTS/Mol_Feturizer/New_Systems/rnas/2GDI

>  <Rbt.Executable>
rbdock ($Id: //depot/dev/client3/rdock/2013.1/src/exe/rbdock.cxx#4 $)

>  <Rbt.Library>
libRbt.so (2013.1, Build901 2013/11/27)

>  <Rbt.Parameter_File>
/export/apps/rDock/src/rDock_2013.1_src/data/scripts/dock_solv.prm

>  <Rbt.Receptor>
prm/pocket_docking_7.prm

>  <SCORE>
-6.85216

>  <SCORE.INTER>
-9.72056

>  <SCORE.INTER.CONST>
1

>  <SCORE.INTER.POLAR>
0

>  <SCORE.INTER.ROT>
8

>  <SCORE.INTER.SOLV>
11.8009

>  <SCORE.INTER.VDW>
-19.3474

>  <SCORE.INTER.norm>
-0.373868

>  <SCORE.INTRA>
2.86841

>  <SCORE.INTRA.DIHEDRAL>
3.01058

>  <SCORE.INTRA.DIHEDRAL.0>
8.13976

>  <SCORE.INTRA.POLAR>
0

>  <SCORE.INTRA.POLAR.0>
0

>  <SCORE.INTRA.REPUL>
0

>  <SCORE.INTRA.REPUL.0>
0

>  <SCORE.INTRA.SOLV>
4.6462

>  <SCORE.INTRA.SOLV.lig_0>
-82.9561

>  <SCORE.INTRA.VDW>
-0.959981

>  <SCORE.INTRA.VDW.0>
-3.29171

>  <SCORE.INTRA.norm>
0.110323

>  <SCORE.RESTR>
0

>  <SCORE.RESTR.CAVITY>
0

>  <SCORE.RESTR.norm>
0

>  <SCORE.SYSTEM>
0

>  <SCORE.SYSTEM.CONST>
0

>  <SCORE.SYSTEM.DIHEDRAL>
0

>  <SCORE.SYSTEM.SOLV>
0

>  <SCORE.SYSTEM.norm>
0

>  <SCORE.heavy>
26

>  <SCORE.norm>
-0.263544

>  <RMSD>
8.364

$$$$
ligand
 OpenBabel11021811433D
libRbt.so/2013.1/901 2013/11/27
 26 27  0  0  0  0  0  0  0  0999 V2000
  -23.7576  -12.1792   -2.5275 C   0  0  0  0  0  0  0  0  0  0  0  0
  -21.5962  -18.5892    0.3429 C   0  0  0  0  0  0  0  0  0  0  0  0
  -23.0158  -17.9605    3.7548 P   0  0  1  0  0  0  0  0  0  0  0  0
  -20.1327  -18.3274    3.8646 P   0  0  1  0  0  0  0  0  0  0  0  0
  -21.9101  -17.6211   -2.4513 C   0  0  0  0  0  0  0  0  0  0  0  0
  -22.7260  -15.5276   -1.2929 C   0  0  0  0  0  0  0  0  0  0  0  0
  -22.4081  -16.1859   -2.4742 C   0  0  0  0  0  0  0  0  0  0  0  0
  -22.5413  -15.5034   -3.6723 C   0  0  0  0  0  0  0  0  0  0  0  0
  -22.2445  -16.1042   -4.8501 N   0  0  0  0  0  0  0  0  0  0  0  0
  -22.9728  -14.2234   -3.6672 N   0  0  0  0  0  0  0  0  0  0  0  0
  -23.2774  -13.6050   -2.5053 C   0  0  0  0  0  0  0  0  0  0  0  0
  -23.1540  -14.2578   -1.3238 N   0  0  0  0  0  0  0  0  0  0  0  0
  -24.1267  -18.0407    4.7686 O   0  5  0  0  0  0  0  0  0  0  0  0
  -19.1720  -18.5976    4.9815 O   0  0  0  0  0  0  0  0  0  0  0  0
  -24.9647  -19.9606   -1.4598 S   0  0  0  0  0  0  0  0  0  0  0  0
  -24.0134  -18.9324   -2.4849 C   0  0  0  0  0  0  0  0  0  0  0  0
  -22.9548  -16.7312    2.8946 O   0  0  0  0  0  0  0  0  0  0  0  0
  -20.1947  -19.5179    2.9668 O   0  5  0  0  0  0  0  0  0  0  0  0
  -22.8987  -18.5030   -1.8308 N   0  0  0  0  0  0  0  0  0  0  0  0
  -21.6118  -18.2240    4.5205 O   0  0  0  0  0  0  0  0  0  0  0  0
  -19.9254  -17.0405    3.1134 O   0  0  0  0  0  0  0  0  0  0  0  0
  -22.7537  -18.9454   -0.5515 C   0  0  1  0  0  0  0  0  0  0  0  0
  -23.8685  -19.8412   -0.1402 C   0  0  1  0  0  0  0  0  0  0  0  0
  -24.2134  -20.5900    1.1197 C   0  0  0  0  0  0  0  0  0  0  0  0
  -24.4335  -19.5851    2.2395 C   0  0  0  0  0  0  0  0  0  0  0  0
  -23.1625  -19.2140    2.7590 O   0  0  0  0  0  0  0  0  0  0  0  0
  1 11  1  0  0  0  0
  3 13  1  1  0  0  0
  3 17  2  0  0  0  0
  3 20  1  0  0  0  0
  3 26  1  0  0  0  0
  4 14  1  1  0  0  0
  4 18  1  0  0  0  0
  4 21  2  0  0  0  0
  4 20  1  0  0  0  0
  5 19  1  0  0  0  0
  5  7  1  0  0  0  0
  6  7  2  0  0  0  0
  6 12  1  0  0  0  0
  7  8  1  0  0  0  0
  8  9  1  0  0  0  0
  8 10  2  0  0  0  0
 10 11  1  0  0  0  0
 11 12  2  0  0  0  0
 15 23  1  0  0  0  0
 15 16  1  0  0  0  0
 16 19  1  0  0  0  0
 19 22  1  0  0  0  0
 22  2  1  6  0  0  0
 22 23  1  0  0  0  0
 23 24  1  1  0  0  0
 24 25  1  0  0  0  0
 25 26  1  0  0  0  0
M  CHG  2  13  -1  18  -1
M  END
>  <CHROM.1>
176.21551131,77.61496802,59.33860071,-179.23440520,-116.18153195,-81.76897183
168.00805820,44.35458755,-22.58399294,-17.65047318,0.63136398,-1.96862706
0.99777991,2.31357823

>  <Name>
ligand

>  <RI>
0

>  <Rbt.Current_Directory>
/home/itssahil/PROJECTS/Mol_Feturizer/New_Systems/rnas/2GDI

>  <Rbt.Executable>
rbdock ($Id: //depot/dev/client3/rdock/2013.1/src/exe/rbdock.cxx#4 $)

>  <Rbt.Library>
libRbt.so (2013.1, Build901 2013/11/27)

>  <Rbt.Parameter_File>
/export/apps/rDock/src/rDock_2013.1_src/data/scripts/dock_solv.prm

>  <Rbt.Receptor>
prm/pocket_docking_6.prm

>  <SCORE>
-10.5982

>  <SCORE.INTER>
-11.2358

>  <SCORE.INTER.CONST>
1

>  <SCORE.INTER.POLAR>
0

>  <SCORE.INTER.ROT>
8

>  <SCORE.INTER.SOLV>
13.3096

>  <SCORE.INTER.VDW>
-20.8604

>  <SCORE.INTER.norm>
-0.432147

>  <SCORE.INTRA>
0.637587

>  <SCORE.INTRA.DIHEDRAL>
-0.658091

>  <SCORE.INTRA.DIHEDRAL.0>
8.13976

>  <SCORE.INTRA.POLAR>
0

>  <SCORE.INTRA.POLAR.0>
0

>  <SCORE.INTRA.REPUL>
0

>  <SCORE.INTRA.REPUL.0>
0

>  <SCORE.INTRA.SOLV>
4.15884

>  <SCORE.INTRA.SOLV.lig_0>
-82.9561

>  <SCORE.INTRA.VDW>
-1.11279

>  <SCORE.INTRA.VDW.0>
-3.29171

>  <SCORE.INTRA.norm>
0.0245226

>  <SCORE.RESTR>
0

>  <SCORE.RESTR.CAVITY>
0

>  <SCORE.RESTR.norm>
0

>  <SCORE.SYSTEM>
0

>  <SCORE.SYSTEM.CONST>
0

>  <SCORE.SYSTEM.DIHEDRAL>
0

>  <SCORE.SYSTEM.SOLV>
0

>  <SCORE.SYSTEM.norm>
0

>  <SCORE.heavy>
26

>  <SCORE.norm>
-0.407624

>  <RMSD>
8.377

$$$$
ligand
 OpenBabel11021811433D
libRbt.so/2013.1/901 2013/11/27
 26 27  0  0  0  0  0  0  0  0999 V2000
  -20.8667  -19.3865    2.4813 C   0  0  0  0  0  0  0  0  0  0  0  0
  -21.5273  -13.1579   -1.1639 C   0  0  0  0  0  0  0  0  0  0  0  0
  -16.8661  -13.6922    0.2303 P   0  0  1  0  0  0  0  0  0  0  0  0
  -13.9957  -13.7431   -0.2352 P   0  0  1  0  0  0  0  0  0  0  0  0
  -23.0882  -14.2656    1.1121 C   0  0  0  0  0  0  0  0  0  0  0  0
  -21.7734  -15.7877    2.6434 C   0  0  0  0  0  0  0  0  0  0  0  0
  -22.4929  -15.6176    1.4673 C   0  0  0  0  0  0  0  0  0  0  0  0
  -22.6685  -16.7083    0.6316 C   0  0  0  0  0  0  0  0  0  0  0  0
  -23.3619  -16.5908   -0.5267 N   0  0  0  0  0  0  0  0  0  0  0  0
  -22.1419  -17.9040    0.9748 N   0  0  0  0  0  0  0  0  0  0  0  0
  -21.4444  -18.0441    2.1232 C   0  0  0  0  0  0  0  0  0  0  0  0
  -21.2619  -16.9874    2.9524 N   0  0  0  0  0  0  0  0  0  0  0  0
  -17.2679  -14.3088   -1.0838 O   0  5  0  0  0  0  0  0  0  0  0  0
  -12.9707  -12.6714   -0.4457 O   0  0  0  0  0  0  0  0  0  0  0  0
  -20.6292  -11.4194    2.3925 S   0  0  0  0  0  0  0  0  0  0  0  0
  -21.8442  -12.6521    2.5241 C   0  0  0  0  0  0  0  0  0  0  0  0
  -16.9086  -14.5720    1.4463 O   0  0  0  0  0  0  0  0  0  0  0  0
  -13.6927  -14.4755    1.0292 O   0  5  0  0  0  0  0  0  0  0  0  0
  -22.1050  -13.1996    1.3046 N   0  0  0  0  0  0  0  0  0  0  0  0
  -15.4113  -13.0029    0.0421 O   0  0  0  0  0  0  0  0  0  0  0  0
  -14.2350  -14.6645   -1.4001 O   0  0  0  0  0  0  0  0  0  0  0  0
  -21.3912  -12.6934    0.2617 C   0  0  1  0  0  0  0  0  0  0  0  0
  -20.4420  -11.6330    0.6965 C   0  0  1  0  0  0  0  0  0  0  0  0
  -19.4401  -10.7572   -0.0078 C   0  0  0  0  0  0  0  0  0  0  0  0
  -18.3179  -11.6329   -0.5426 C   0  0  0  0  0  0  0  0  0  0  0  0
  -17.8529  -12.4565    0.5198 O   0  0  0  0  0  0  0  0  0  0  0  0
  1 11  1  0  0  0  0
  3 13  1  6  0  0  0
  3 17  2  0  0  0  0
  3 20  1  0  0  0  0
  3 26  1  0  0  0  0
  4 14  1  6  0  0  0
  4 18  1  0  0  0  0
  4 21  2  0  0  0  0
  4 20  1  0  0  0  0
  5 19  1  0  0  0  0
  5  7  1  0  0  0  0
  6  7  2  0  0  0  0
  6 12  1  0  0  0  0
  7  8  1  0  0  0  0
  8  9  1  0  0  0  0
  8 10  2  0  0  0  0
 10 11  1  0  0  0  0
 11 12  2  0  0  0  0
 15 23  1  0  0  0  0
 15 16  1  0  0  0  0
 16 19  1  0  0  0  0
 19 22  1  0  0  0  0
 22  2  1  1  0  0  0
 22 23  1  0  0  0  0
 23 24  1  6  0  0  0
 24 25  1  0  0  0  0
 25 26  1  0  0  0  0
M  CHG  2  13  -1  18  -1
M  END
>  <CHROM.1>
-67.06070363,-81.39318524,46.76790385,175.37954064,114.66875438,-50.80593554
168.26218756,-36.25891157,-18.91809538,-14.11201856,0.70804998,-2.84305101
0.18016895,-0.10130333

>  <Name>
ligand

>  <RI>
0

>  <Rbt.Current_Directory>
/home/itssahil/PROJECTS/Mol_Feturizer/New_Systems/rnas/2GDI

>  <Rbt.Executable>
rbdock ($Id: //depot/dev/client3/rdock/2013.1/src/exe/rbdock.cxx#4 $)

>  <Rbt.Library>
libRbt.so (2013.1, Build901 2013/11/27)

>  <Rbt.Parameter_File>
/export/apps/rDock/src/rDock_2013.1_src/data/scripts/dock_solv.prm

>  <Rbt.Receptor>
prm/pocket_docking_5.prm

>  <SCORE>
-8.98218

>  <SCORE.INTER>
-8.87542

>  <SCORE.INTER.CONST>
1

>  <SCORE.INTER.POLAR>
0

>  <SCORE.INTER.ROT>
8

>  <SCORE.INTER.SOLV>
16.5531

>  <SCORE.INTER.VDW>
-20.368

>  <SCORE.INTER.norm>
-0.341362

>  <SCORE.INTRA>
-0.106763

>  <SCORE.INTRA.DIHEDRAL>
-1.86989

>  <SCORE.INTRA.DIHEDRAL.0>
8.13976

>  <SCORE.INTRA.POLAR>
0

>  <SCORE.INTRA.POLAR.0>
0

>  <SCORE.INTRA.REPUL>
0

>  <SCORE.INTRA.REPUL.0>
0

>  <SCORE.INTRA.SOLV>
2.74105

>  <SCORE.INTRA.SOLV.lig_0>
-82.9561

>  <SCORE.INTRA.VDW>
-0.542344

>  <SCORE.INTRA.VDW.0>
-3.29171

>  <SCORE.INTRA.norm>
-0.00410628

>  <SCORE.RESTR>
0

>  <SCORE.RESTR.CAVITY>
0

>  <SCORE.RESTR.norm>
0

>  <SCORE.SYSTEM>
0

>  <SCORE.SYSTEM.CONST>
0

>  <SCORE.SYSTEM.DIHEDRAL>
0

>  <SCORE.SYSTEM.SOLV>
0

>  <SCORE.SYSTEM.norm>
0

>  <SCORE.heavy>
26

>  <SCORE.norm>
-0.345468

>  <RMSD>
8.384

$$$$
ligand
 OpenBabel11021811433D
libRbt.so/2013.1/901 2013/11/27
 26 27  0  0  0  0  0  0  0  0999 V2000
  -24.1066  -18.6176   -0.8179 C   0  0  0  0  0  0  0  0  0  0  0  0
  -21.4686  -12.6324   -1.5165 C   0  0  0  0  0  0  0  0  0  0  0  0
  -18.0084  -15.5976    0.7616 P   0  0  1  0  0  0  0  0  0  0  0  0
  -15.1963  -14.8608    0.6717 P   0  0  1  0  0  0  0  0  0  0  0  0
  -23.9148  -12.9544    0.1435 C   0  0  0  0  0  0  0  0  0  0  0  0
  -23.7420  -14.9638   -1.3806 C   0  0  0  0  0  0  0  0  0  0  0  0
  -23.9761  -14.4510   -0.1109 C   0  0  0  0  0  0  0  0  0  0  0  0
  -24.2531  -15.3322    0.9214 C   0  0  0  0  0  0  0  0  0  0  0  0
  -24.4894  -14.8790    2.1765 N   0  0  0  0  0  0  0  0  0  0  0  0
  -24.2887  -16.6598    0.6746 N   0  0  0  0  0  0  0  0  0  0  0  0
  -24.0593  -17.1343   -0.5693 C   0  0  0  0  0  0  0  0  0  0  0  0
  -23.7877  -16.2866   -1.5915 N   0  0  0  0  0  0  0  0  0  0  0  0
  -18.0692  -15.8360   -0.7243 O   0  5  0  0  0  0  0  0  0  0  0  0
  -15.3505  -14.7636   -0.8150 O   0  0  0  0  0  0  0  0  0  0  0  0
  -20.8292  -11.9391    2.4315 S   0  0  0  0  0  0  0  0  0  0  0  0
  -22.4741  -12.3603    2.0713 C   0  0  0  0  0  0  0  0  0  0  0  0
  -18.9100  -16.4265    1.6303 O   0  0  0  0  0  0  0  0  0  0  0  0
  -15.3502  -13.5043    1.2745 O   0  5  0  0  0  0  0  0  0  0  0  0
  -22.6305  -12.5815    0.7366 N   0  0  0  0  0  0  0  0  0  0  0  0
  -16.4605  -15.7093    1.2291 O   0  0  0  0  0  0  0  0  0  0  0  0
  -13.9698  -15.5812    1.1616 O   0  0  0  0  0  0  0  0  0  0  0  0
  -21.5115  -12.4344   -0.0247 C   0  0  1  0  0  0  0  0  0  0  0  0
  -20.3231  -12.0697    0.7933 C   0  0  1  0  0  0  0  0  0  0  0  0
  -18.8754  -11.7896    0.4887 C   0  0  0  0  0  0  0  0  0  0  0  0
  -18.2178  -13.0777    0.0190 C   0  0  0  0  0  0  0  0  0  0  0  0
  -18.3917  -14.0601    1.0328 O   0  0  0  0  0  0  0  0  0  0  0  0
  1 11  1  0  0  0  0
  3 13  1  6  0  0  0
  3 17  2  0  0  0  0
  3 20  1  0  0  0  0
  3 26  1  0  0  0  0
  4 14  1  6  0  0  0
  4 18  1  0  0  0  0
  4 21  2  0  0  0  0
  4 20  1  0  0  0  0
  5 19  1  0  0  0  0
  5  7  1  0  0  0  0
  6  7  2  0  0  0  0
  6 12  1  0  0  0  0
  7  8  1  0  0  0  0
  8  9  1  0  0  0  0
  8 10  2  0  0  0  0
 10 11  1  0  0  0  0
 11 12  2  0  0  0  0
 15 23  1  0  0  0  0
 15 16  1  0  0  0  0
 16 19  1  0  0  0  0
 19 22  1  0  0  0  0
 22  2  1  1  0  0  0
 22 23  1  0  0  0  0
 23 24  1  6  0  0  0
 24 25  1  0  0  0  0
 25 26  1  0  0  0  0
M  CHG  2  13  -1  18  -1
M  END
>  <CHROM.1>
56.55208930,-100.06303713,-99.73330527,-41.33525613,113.71449297,-56.98775023
170.72222616,-24.08952078,-19.98863837,-14.47125186,0.52932416,-3.09253665
-0.05563544,0.28228146

>  <Name>
ligand

>  <RI>
0

>  <Rbt.Current_Directory>
/home/itssahil/PROJECTS/Mol_Feturizer/New_Systems/rnas/2GDI

>  <Rbt.Executable>
rbdock ($Id: //depot/dev/client3/rdock/2013.1/src/exe/rbdock.cxx#4 $)

>  <Rbt.Library>
libRbt.so (2013.1, Build901 2013/11/27)

>  <Rbt.Parameter_File>
/export/apps/rDock/src/rDock_2013.1_src/data/scripts/dock_solv.prm

>  <Rbt.Receptor>
prm/pocket_docking_4.prm

>  <SCORE>
-8.56049

>  <SCORE.INTER>
-7.67854

>  <SCORE.INTER.CONST>
1

>  <SCORE.INTER.POLAR>
0

>  <SCORE.INTER.ROT>
8

>  <SCORE.INTER.SOLV>
15.6224

>  <SCORE.INTER.VDW>
-19.2598

>  <SCORE.INTER.norm>
-0.295329

>  <SCORE.INTRA>
-0.886783

>  <SCORE.INTRA.DIHEDRAL>
-1.36064

>  <SCORE.INTRA.DIHEDRAL.0>
8.13976

>  <SCORE.INTRA.POLAR>
0

>  <SCORE.INTRA.POLAR.0>
0

>  <SCORE.INTRA.REPUL>
0

>  <SCORE.INTRA.REPUL.0>
0

>  <SCORE.INTRA.SOLV>
1.83458

>  <SCORE.INTRA.SOLV.lig_0>
-82.9561

>  <SCORE.INTRA.VDW>
-1.12375

>  <SCORE.INTRA.VDW.0>
-3.29171

>  <SCORE.INTRA.norm>
-0.034107

>  <SCORE.RESTR>
0.00483359

>  <SCORE.RESTR.CAVITY>
0.00483359

>  <SCORE.RESTR.norm>
0.000185907

>  <SCORE.SYSTEM>
0

>  <SCORE.SYSTEM.CONST>
0

>  <SCORE.SYSTEM.DIHEDRAL>
0

>  <SCORE.SYSTEM.SOLV>
0

>  <SCORE.SYSTEM.norm>
0

>  <SCORE.heavy>
26

>  <SCORE.norm>
-0.32925

>  <RMSD>
8.428

$$$$
ligand
 OpenBabel11021811433D
libRbt.so/2013.1/901 2013/11/27
 26 27  0  0  0  0  0  0  0  0999 V2000
  -18.9965  -18.3806   -2.7929 C   0  0  0  0  0  0  0  0  0  0  0  0
  -24.2606  -17.2491    2.4543 C   0  0  0  0  0  0  0  0  0  0  0  0
  -21.9608  -13.3210    2.7371 P   0  0  1  0  0  0  0  0  0  0  0  0
  -22.9400  -11.4256    4.7138 P   0  0  1  0  0  0  0  0  0  0  0  0
  -22.7098  -19.5704    1.4296 C   0  0  0  0  0  0  0  0  0  0  0  0
  -20.3924  -19.0053    0.5926 C   0  0  0  0  0  0  0  0  0  0  0  0
  -21.7317  -19.2459    0.3132 C   0  0  0  0  0  0  0  0  0  0  0  0
  -22.1551  -19.1975   -1.0049 C   0  0  0  0  0  0  0  0  0  0  0  0
  -23.4519  -19.4241   -1.3263 N   0  0  0  0  0  0  0  0  0  0  0  0
  -21.2649  -18.9207   -1.9824 N   0  0  0  0  0  0  0  0  0  0  0  0
  -19.9676  -18.6885   -1.6854 C   0  0  0  0  0  0  0  0  0  0  0  0
  -19.5360  -18.7307   -0.4012 N   0  0  0  0  0  0  0  0  0  0  0  0
  -23.3070  -13.2725    2.0635 O   0  5  0  0  0  0  0  0  0  0  0  0
  -22.8753  -12.2439    5.9667 O   0  0  0  0  0  0  0  0  0  0  0  0
  -21.1027  -18.2316    4.8078 S   0  0  0  0  0  0  0  0  0  0  0  0
  -21.2608  -19.2573    3.4164 C   0  0  0  0  0  0  0  0  0  0  0  0
  -20.7552  -13.4859    1.8573 O   0  0  0  0  0  0  0  0  0  0  0  0
  -22.4848  -10.0351    5.0075 O   0  5  0  0  0  0  0  0  0  0  0  0
  -22.3331  -18.8830    2.6648 N   0  0  0  0  0  0  0  0  0  0  0  0
  -21.8274  -12.0210    3.6958 O   0  0  0  0  0  0  0  0  0  0  0  0
  -24.2449  -11.4666    3.9662 O   0  0  0  0  0  0  0  0  0  0  0  0
  -23.0441  -17.8205    3.1328 C   0  0  1  0  0  0  0  0  0  0  0  0
  -22.4682  -17.2731    4.3910 C   0  0  1  0  0  0  0  0  0  0  0  0
  -22.8326  -16.1429    5.3167 C   0  0  0  0  0  0  0  0  0  0  0  0
  -23.1354  -14.9080    4.4828 C   0  0  0  0  0  0  0  0  0  0  0  0
  -21.9617  -14.5639    3.7568 O   0  0  0  0  0  0  0  0  0  0  0  0
  1 11  1  0  0  0  0
  3 13  1  6  0  0  0
  3 17  2  0  0  0  0
  3 20  1  0  0  0  0
  3 26  1  0  0  0  0
  4 14  1  1  0  0  0
  4 18  1  0  0  0  0
  4 21  2  0  0  0  0
  4 20  1  0  0  0  0
  5 19  1  0  0  0  0
  5  7  1  0  0  0  0
  6  7  2  0  0  0  0
  6 12  1  0  0  0  0
  7  8  1  0  0  0  0
  8  9  1  0  0  0  0
  8 10  2  0  0  0  0
 10 11  1  0  0  0  0
 11 12  2  0  0  0  0
 15 23  1  0  0  0  0
 15 16  1  0  0  0  0
 16 19  1  0  0  0  0
 19 22  1  0  0  0  0
 22  2  1  6  0  0  0
 22 23  1  0  0  0  0
 23 24  1  1  0  0  0
 24 25  1  0  0  0  0
 25 26  1  0  0  0  0
M  CHG  2  13  -1  18  -1
M  END
>  <CHROM.1>
44.77272302,-72.72152955,32.27850348,80.91210137,135.15124694,-61.31498595
178.10163700,-36.28982981,-22.06030443,-15.83075226,2.51919390,-0.84867873
1.28882070,-0.11806779

>  <Name>
ligand

>  <RI>
0

>  <Rbt.Current_Directory>
/home/itssahil/PROJECTS/Mol_Feturizer/New_Systems/rnas/2GDI

>  <Rbt.Executable>
rbdock ($Id: //depot/dev/client3/rdock/2013.1/src/exe/rbdock.cxx#4 $)

>  <Rbt.Library>
libRbt.so (2013.1, Build901 2013/11/27)

>  <Rbt.Parameter_File>
/export/apps/rDock/src/rDock_2013.1_src/data/scripts/dock_solv.prm

>  <Rbt.Receptor>
prm/pocket_docking_6.prm

>  <SCORE>
-12.0098

>  <SCORE.INTER>
-11.2674

>  <SCORE.INTER.CONST>
1

>  <SCORE.INTER.POLAR>
0

>  <SCORE.INTER.ROT>
8

>  <SCORE.INTER.SOLV>
10.1847

>  <SCORE.INTER.VDW>
-19.8398

>  <SCORE.INTER.norm>
-0.43336

>  <SCORE.INTRA>
-0.742451

>  <SCORE.INTRA.DIHEDRAL>
-2.26569

>  <SCORE.INTRA.DIHEDRAL.0>
8.13976

>  <SCORE.INTRA.POLAR>
0

>  <SCORE.INTRA.POLAR.0>
0

>  <SCORE.INTRA.REPUL>
0

>  <SCORE.INTRA.REPUL.0>
0

>  <SCORE.INTRA.SOLV>
1.39934

>  <SCORE.INTRA.SOLV.lig_0>
-82.9561

>  <SCORE.INTRA.VDW>
-0.309273

>  <SCORE.INTRA.VDW.0>
-3.29171

>  <SCORE.INTRA.norm>
-0.0285558

>  <SCORE.RESTR>
0

>  <SCORE.RESTR.CAVITY>
0

>  <SCORE.RESTR.norm>
0

>  <SCORE.SYSTEM>
0

>  <SCORE.SYSTEM.CONST>
0

>  <SCORE.SYSTEM.DIHEDRAL>
0

>  <SCORE.SYSTEM.SOLV>
0

>  <SCORE.SYSTEM.norm>
0

>  <SCORE.heavy>
26

>  <SCORE.norm>
-0.461916

>  <RMSD>
8.458

$$$$
ligand
 OpenBabel11021811433D
libRbt.so/2013.1/901 2013/11/27
 26 27  0  0  0  0  0  0  0  0999 V2000
  -22.3883  -10.3119    5.6730 C   0  0  0  0  0  0  0  0  0  0  0  0
  -23.6552  -17.0650    0.8900 C   0  0  0  0  0  0  0  0  0  0  0  0
  -17.6008  -16.2849   -0.7043 P   0  0  1  0  0  0  0  0  0  0  0  0
  -14.7497  -16.1123   -0.1562 P   0  0  1  0  0  0  0  0  0  0  0  0
  -23.7203  -15.3983    3.3519 C   0  0  0  0  0  0  0  0  0  0  0  0
  -22.6688  -13.1024    3.2369 C   0  0  0  0  0  0  0  0  0  0  0  0
  -23.3601  -14.0582    3.9706 C   0  0  0  0  0  0  0  0  0  0  0  0
  -23.7263  -13.7601    5.2729 C   0  0  0  0  0  0  0  0  0  0  0  0
  -24.4006  -14.6610    6.0279 N   0  0  0  0  0  0  0  0  0  0  0  0
  -23.4073  -12.5569    5.7974 N   0  0  0  0  0  0  0  0  0  0  0  0
  -22.7329  -11.6442    5.0644 C   0  0  0  0  0  0  0  0  0  0  0  0
  -22.3657  -11.9193    3.7889 N   0  0  0  0  0  0  0  0  0  0  0  0
  -18.0957  -14.8829   -0.9448 O   0  5  0  0  0  0  0  0  0  0  0  0
  -14.6105  -14.9270   -1.0614 O   0  0  0  0  0  0  0  0  0  0  0  0
  -20.1361  -17.0561    2.9131 S   0  0  0  0  0  0  0  0  0  0  0  0
  -21.3597  -16.0848    3.6697 C   0  0  0  0  0  0  0  0  0  0  0  0
  -17.3295  -17.1368   -1.9107 O   0  0  0  0  0  0  0  0  0  0  0  0
  -14.0174  -15.8503    1.1175 O   0  5  0  0  0  0  0  0  0  0  0  0
  -22.5155  -16.1246    2.9505 N   0  0  0  0  0  0  0  0  0  0  0  0
  -16.3104  -16.2054    0.2732 O   0  0  0  0  0  0  0  0  0  0  0  0
  -14.4095  -17.4472   -0.7608 O   0  0  0  0  0  0  0  0  0  0  0  0
  -22.4872  -16.8872    1.8231 C   0  0  1  0  0  0  0  0  0  0  0  0
  -21.1664  -17.5436    1.6254 C   0  0  1  0  0  0  0  0  0  0  0  0
  -20.5885  -18.4642    0.5835 C   0  0  0  0  0  0  0  0  0  0  0  0
  -19.8543  -17.6279   -0.4528 C   0  0  0  0  0  0  0  0  0  0  0  0
  -18.7081  -17.0584    0.1675 O   0  0  0  0  0  0  0  0  0  0  0  0
  1 11  1  0  0  0  0
  3 13  1  6  0  0  0
  3 17  2  0  0  0  0
  3 20  1  0  0  0  0
  3 26  1  0  0  0  0
  4 14  1  6  0  0  0
  4 18  1  0  0  0  0
  4 21  2  0  0  0  0
  4 20  1  0  0  0  0
  5 19  1  0  0  0  0
  5  7  1  0  0  0  0
  6  7  2  0  0  0  0
  6 12  1  0  0  0  0
  7  8  1  0  0  0  0
  8  9  1  0  0  0  0
  8 10  2  0  0  0  0
 10 11  1  0  0  0  0
 11 12  2  0  0  0  0
 15 23  1  0  0  0  0
 15 16  1  0  0  0  0
 16 19  1  0  0  0  0
 19 22  1  0  0  0  0
 22  2  1  1  0  0  0
 22 23  1  0  0  0  0
 23 24  1  6  0  0  0
 24 25  1  0  0  0  0
 25 26  1  0  0  0  0
M  CHG  2  13  -1  18  -1
M  END
>  <CHROM.1>
-92.30276217,36.45988821,60.68955324,55.28883712,-84.34555078,67.97967241
171.32666001,81.61484236,-19.71387711,-15.57016488,1.72287604,-2.56990649
-0.35041272,-2.56123141

>  <Name>
ligand

>  <RI>
0

>  <Rbt.Current_Directory>
/home/itssahil/PROJECTS/Mol_Feturizer/New_Systems/rnas/2GDI

>  <Rbt.Executable>
rbdock ($Id: //depot/dev/client3/rdock/2013.1/src/exe/rbdock.cxx#4 $)

>  <Rbt.Library>
libRbt.so (2013.1, Build901 2013/11/27)

>  <Rbt.Parameter_File>
/export/apps/rDock/src/rDock_2013.1_src/data/scripts/dock_solv.prm

>  <Rbt.Receptor>
prm/pocket_docking_8.prm

>  <SCORE>
-8.18702

>  <SCORE.INTER>
-7.55416

>  <SCORE.INTER.CONST>
1

>  <SCORE.INTER.POLAR>
0

>  <SCORE.INTER.ROT>
8

>  <SCORE.INTER.SOLV>
19.1029

>  <SCORE.INTER.VDW>
-20.3371

>  <SCORE.INTER.norm>
-0.290545

>  <SCORE.INTRA>
-0.632863

>  <SCORE.INTRA.DIHEDRAL>
-1.06746

>  <SCORE.INTRA.DIHEDRAL.0>
8.13976

>  <SCORE.INTRA.POLAR>
0

>  <SCORE.INTRA.POLAR.0>
0

>  <SCORE.INTRA.REPUL>
0

>  <SCORE.INTRA.REPUL.0>
0

>  <SCORE.INTRA.SOLV>
0.00492163

>  <SCORE.INTRA.SOLV.lig_0>
-82.9561

>  <SCORE.INTRA.VDW>
-0.101596

>  <SCORE.INTRA.VDW.0>
-3.29171

>  <SCORE.INTRA.norm>
-0.0243409

>  <SCORE.RESTR>
0

>  <SCORE.RESTR.CAVITY>
0

>  <SCORE.RESTR.norm>
0

>  <SCORE.SYSTEM>
0

>  <SCORE.SYSTEM.CONST>
0

>  <SCORE.SYSTEM.DIHEDRAL>
0

>  <SCORE.SYSTEM.SOLV>
0

>  <SCORE.SYSTEM.norm>
0

>  <SCORE.heavy>
26

>  <SCORE.norm>
-0.314885

>  <RMSD>
8.476

$$$$
ligand
 OpenBabel11021811433D
libRbt.so/2013.1/901 2013/11/27
 26 27  0  0  0  0  0  0  0  0999 V2000
  -19.3873  -11.0158    1.0382 C   0  0  0  0  0  0  0  0  0  0  0  0
  -25.8148  -11.9499    4.7595 C   0  0  0  0  0  0  0  0  0  0  0  0
  -23.2927   -8.9447    7.5595 P   0  0  1  0  0  0  0  0  0  0  0  0
  -22.7122   -9.1252    4.7153 P   0  0  1  0  0  0  0  0  0  0  0  0
  -23.9671  -13.7084    3.2310 C   0  0  0  0  0  0  0  0  0  0  0  0
  -21.6628  -12.6922    3.4490 C   0  0  0  0  0  0  0  0  0  0  0  0
  -22.7616  -12.9874    2.6520 C   0  0  0  0  0  0  0  0  0  0  0  0
  -22.7307  -12.6235    1.3157 C   0  0  0  0  0  0  0  0  0  0  0  0
  -23.7793  -12.8894    0.4995 N   0  0  0  0  0  0  0  0  0  0  0  0
  -21.6425  -11.9957    0.8197 N   0  0  0  0  0  0  0  0  0  0  0  0
  -20.5866  -11.7178    1.6153 C   0  0  0  0  0  0  0  0  0  0  0  0
  -20.6000  -12.0655    2.9253 N   0  0  0  0  0  0  0  0  0  0  0  0
  -21.7992   -8.8581    7.7345 O   0  5  0  0  0  0  0  0  0  0  0  0
  -21.6733   -8.0564    4.5684 O   0  0  0  0  0  0  0  0  0  0  0  0
  -23.3317  -14.1135    7.1322 S   0  0  0  0  0  0  0  0  0  0  0  0
  -23.0890  -14.4125    5.4396 C   0  0  0  0  0  0  0  0  0  0  0  0
  -24.1414   -8.0694    8.4360 O   0  0  0  0  0  0  0  0  0  0  0  0
  -22.0524  -10.4057    5.1055 O   0  5  0  0  0  0  0  0  0  0  0  0
  -23.9460  -13.6621    4.6930 N   0  0  0  0  0  0  0  0  0  0  0  0
  -23.6318   -8.7263    5.9897 O   0  0  0  0  0  0  0  0  0  0  0  0
  -23.6606   -9.2864    3.5587 O   0  0  0  0  0  0  0  0  0  0  0  0
  -24.7926  -12.8566    5.3915 C   0  0  1  0  0  0  0  0  0  0  0  0
  -24.5796  -12.9620    6.8605 C   0  0  1  0  0  0  0  0  0  0  0  0
  -25.2114  -12.3237    8.0690 C   0  0  0  0  0  0  0  0  0  0  0  0
  -25.1146  -10.8127    7.9290 C   0  0  0  0  0  0  0  0  0  0  0  0
  -23.7385  -10.4614    7.8514 O   0  0  0  0  0  0  0  0  0  0  0  0
  1 11  1  0  0  0  0
  3 13  1  1  0  0  0
  3 17  2  0  0  0  0
  3 20  1  0  0  0  0
  3 26  1  0  0  0  0
  4 14  1  6  0  0  0
  4 18  1  0  0  0  0
  4 21  2  0  0  0  0
  4 20  1  0  0  0  0
  5 19  1  0  0  0  0
  5  7  1  0  0  0  0
  6  7  2  0  0  0  0
  6 12  1  0  0  0  0
  7  8  1  0  0  0  0
  8  9  1  0  0  0  0
  8 10  2  0  0  0  0
 10 11  1  0  0  0  0
 11 12  2  0  0  0  0
 15 23  1  0  0  0  0
 15 16  1  0  0  0  0
 16 19  1  0  0  0  0
 19 22  1  0  0  0  0
 22  2  1  6  0  0  0
 22 23  1  0  0  0  0
 23 24  1  1  0  0  0
 24 25  1  0  0  0  0
 25 26  1  0  0  0  0
M  CHG  2  13  -1  18  -1
M  END
>  <CHROM.1>
30.76326938,-73.76840037,16.27306447,-79.83565393,125.31696386,-60.35727176
174.21875310,171.99461706,-23.07208186,-11.21075182,5.02988729,-0.96058724
1.03573750,0.63472861

>  <Name>
ligand

>  <RI>
0

>  <Rbt.Current_Directory>
/home/itssahil/PROJECTS/Mol_Feturizer/New_Systems/rnas/2GDI

>  <Rbt.Executable>
rbdock ($Id: //depot/dev/client3/rdock/2013.1/src/exe/rbdock.cxx#4 $)

>  <Rbt.Library>
libRbt.so (2013.1, Build901 2013/11/27)

>  <Rbt.Parameter_File>
/export/apps/rDock/src/rDock_2013.1_src/data/scripts/dock_solv.prm

>  <Rbt.Receptor>
prm/blind_docking_100.prm

>  <SCORE>
-10.5117

>  <SCORE.INTER>
-9.65148

>  <SCORE.INTER.CONST>
1

>  <SCORE.INTER.POLAR>
0

>  <SCORE.INTER.ROT>
8

>  <SCORE.INTER.SOLV>
20.8637

>  <SCORE.INTER.VDW>
-22.3222

>  <SCORE.INTER.norm>
-0.371211

>  <SCORE.INTRA>
-1.60756

>  <SCORE.INTRA.DIHEDRAL>
-1.61874

>  <SCORE.INTRA.DIHEDRAL.0>
8.13976

>  <SCORE.INTRA.POLAR>
0

>  <SCORE.INTRA.POLAR.0>
0

>  <SCORE.INTRA.REPUL>
0

>  <SCORE.INTRA.REPUL.0>
0

>  <SCORE.INTRA.SOLV>
3.30238

>  <SCORE.INTRA.SOLV.lig_0>
-82.9561

>  <SCORE.INTRA.VDW>
-2.44937

>  <SCORE.INTRA.VDW.0>
-3.29171

>  <SCORE.INTRA.norm>
-0.0618292

>  <SCORE.RESTR>
0.747333

>  <SCORE.RESTR.CAVITY>
0.747333

>  <SCORE.RESTR.norm>
0.0287436

>  <SCORE.SYSTEM>
0

>  <SCORE.SYSTEM.CONST>
0

>  <SCORE.SYSTEM.DIHEDRAL>
0

>  <SCORE.SYSTEM.SOLV>
0

>  <SCORE.SYSTEM.norm>
0

>  <SCORE.heavy>
26

>  <SCORE.norm>
-0.404296

>  <RMSD>
8.482

$$$$
ligand
 OpenBabel11021811433D
libRbt.so/2013.1/901 2013/11/27
 26 27  0  0  0  0  0  0  0  0999 V2000
  -24.8644  -18.5205    2.9309 C   0  0  0  0  0  0  0  0  0  0  0  0
  -21.2518  -12.4803   -1.3876 C   0  0  0  0  0  0  0  0  0  0  0  0
  -16.8448  -14.0683    0.8202 P   0  0  1  0  0  0  0  0  0  0  0  0
  -15.8983  -15.1782   -1.6960 P   0  0  1  0  0  0  0  0  0  0  0  0
  -23.5225  -13.7090    0.0880 C   0  0  0  0  0  0  0  0  0  0  0  0
  -24.6455  -14.9325    1.9939 C   0  0  0  0  0  0  0  0  0  0  0  0
  -23.8677  -14.9810    0.8439 C   0  0  0  0  0  0  0  0  0  0  0  0
  -23.4243  -16.2133    0.3925 C   0  0  0  0  0  0  0  0  0  0  0  0
  -22.6621  -16.3106   -0.7237 N   0  0  0  0  0  0  0  0  0  0  0  0
  -23.7551  -17.3322    1.0732 N   0  0  0  0  0  0  0  0  0  0  0  0
  -24.5115  -17.2592    2.1902 C   0  0  0  0  0  0  0  0  0  0  0  0
  -24.9531  -16.0618    2.6468 N   0  0  0  0  0  0  0  0  0  0  0  0
  -17.2838  -15.3559    1.4667 O   0  5  0  0  0  0  0  0  0  0  0  0
  -14.4972  -14.7422   -1.3958 O   0  0  0  0  0  0  0  0  0  0  0  0
  -21.0848  -11.8558    2.6198 S   0  0  0  0  0  0  0  0  0  0  0  0
  -22.4682  -12.7837    2.1317 C   0  0  0  0  0  0  0  0  0  0  0  0
  -15.5382  -13.4812    1.2705 O   0  0  0  0  0  0  0  0  0  0  0  0
  -16.0989  -16.5722   -1.2023 O   0  5  0  0  0  0  0  0  0  0  0  0
  -22.4730  -12.9623    0.7816 N   0  0  0  0  0  0  0  0  0  0  0  0
  -16.8869  -14.2692   -0.7875 O   0  0  0  0  0  0  0  0  0  0  0  0
  -16.3572  -14.9907   -3.1164 O   0  0  0  0  0  0  0  0  0  0  0  0
  -21.4341  -12.4003    0.1047 C   0  0  1  0  0  0  0  0  0  0  0  0
  -20.4830  -11.7074    1.0157 C   0  0  1  0  0  0  0  0  0  0  0  0
  -19.2036  -10.9377    0.8219 C   0  0  0  0  0  0  0  0  0  0  0  0
  -18.1624  -11.8668    0.2178 C   0  0  0  0  0  0  0  0  0  0  0  0
  -17.9729  -12.9597    1.1082 O   0  0  0  0  0  0  0  0  0  0  0  0
  1 11  1  0  0  0  0
  3 13  1  1  0  0  0
  3 17  2  0  0  0  0
  3 20  1  0  0  0  0
  3 26  1  0  0  0  0
  4 14  1  1  0  0  0
  4 18  1  0  0  0  0
  4 21  2  0  0  0  0
  4 20  1  0  0  0  0
  5 19  1  0  0  0  0
  5  7  1  0  0  0  0
  6  7  2  0  0  0  0
  6 12  1  0  0  0  0
  7  8  1  0  0  0  0
  8  9  1  0  0  0  0
  8 10  2  0  0  0  0
 10 11  1  0  0  0  0
 11 12  2  0  0  0  0
 15 23  1  0  0  0  0
 15 16  1  0  0  0  0
 16 19  1  0  0  0  0
 19 22  1  0  0  0  0
 22  2  1  1  0  0  0
 22 23  1  0  0  0  0
 23 24  1  6  0  0  0
 24 25  1  0  0  0  0
 25 26  1  0  0  0  0
M  CHG  2  13  -1  18  -1
M  END
>  <CHROM.1>
-70.50700693,-43.21327968,76.39074781,-54.59402322,119.16180197,-59.24128717
-175.02722451,-153.10518869,-19.88698863,-14.30769023,0.50317746,-3.08806058
0.31369305,0.26388680

>  <Name>
ligand

>  <RI>
0

>  <Rbt.Current_Directory>
/home/itssahil/PROJECTS/Mol_Feturizer/New_Systems/rnas/2GDI

>  <Rbt.Executable>
rbdock ($Id: //depot/dev/client3/rdock/2013.1/src/exe/rbdock.cxx#4 $)

>  <Rbt.Library>
libRbt.so (2013.1, Build901 2013/11/27)

>  <Rbt.Parameter_File>
/export/apps/rDock/src/rDock_2013.1_src/data/scripts/dock_solv.prm

>  <Rbt.Receptor>
prm/pocket_docking_6.prm

>  <SCORE>
-7.36848

>  <SCORE.INTER>
-6.35667

>  <SCORE.INTER.CONST>
1

>  <SCORE.INTER.POLAR>
0

>  <SCORE.INTER.ROT>
8

>  <SCORE.INTER.SOLV>
13.2697

>  <SCORE.INTER.VDW>
-17.5944

>  <SCORE.INTER.norm>
-0.244487

>  <SCORE.INTRA>
-1.01181

>  <SCORE.INTRA.DIHEDRAL>
-2.57012

>  <SCORE.INTRA.DIHEDRAL.0>
8.13976

>  <SCORE.INTRA.POLAR>
0

>  <SCORE.INTRA.POLAR.0>
0

>  <SCORE.INTRA.REPUL>
0

>  <SCORE.INTRA.REPUL.0>
0

>  <SCORE.INTRA.SOLV>
0.976099

>  <SCORE.INTRA.SOLV.lig_0>
-82.9561

>  <SCORE.INTRA.VDW>
-0.214803

>  <SCORE.INTRA.VDW.0>
-3.29171

>  <SCORE.INTRA.norm>
-0.0389159

>  <SCORE.RESTR>
0

>  <SCORE.RESTR.CAVITY>
0

>  <SCORE.RESTR.norm>
0

>  <SCORE.SYSTEM>
0

>  <SCORE.SYSTEM.CONST>
0

>  <SCORE.SYSTEM.DIHEDRAL>
0

>  <SCORE.SYSTEM.SOLV>
0

>  <SCORE.SYSTEM.norm>
0

>  <SCORE.heavy>
26

>  <SCORE.norm>
-0.283403

>  <RMSD>
8.489

$$$$
ligand
 OpenBabel11021811433D
libRbt.so/2013.1/901 2013/11/27
 26 27  0  0  0  0  0  0  0  0999 V2000
  -25.3746  -12.6072   -2.9593 C   0  0  0  0  0  0  0  0  0  0  0  0
  -26.7348  -16.0458    3.1367 C   0  0  0  0  0  0  0  0  0  0  0  0
  -23.4063  -19.5659    0.3418 P   0  0  1  0  0  0  0  0  0  0  0  0
  -20.5980  -18.8808    0.6621 P   0  0  1  0  0  0  0  0  0  0  0  0
  -25.3501  -13.4463    2.7265 C   0  0  0  0  0  0  0  0  0  0  0  0
  -26.4972  -13.4743    0.4741 C   0  0  0  0  0  0  0  0  0  0  0  0
  -25.3516  -13.2337    1.2221 C   0  0  0  0  0  0  0  0  0  0  0  0
  -24.2149  -12.7832    0.5712 C   0  0  0  0  0  0  0  0  0  0  0  0
  -23.0734  -12.5359    1.2585 N   0  0  0  0  0  0  0  0  0  0  0  0
  -24.2437  -12.5882   -0.7651 N   0  0  0  0  0  0  0  0  0  0  0  0
  -25.3695  -12.8309   -1.4713 C   0  0  0  0  0  0  0  0  0  0  0  0
  -26.4907  -13.2730   -0.8510 N   0  0  0  0  0  0  0  0  0  0  0  0
  -24.4606  -18.9297   -0.5254 O   0  5  0  0  0  0  0  0  0  0  0  0
  -20.4117  -20.1050    1.5049 O   0  0  0  0  0  0  0  0  0  0  0  0
  -22.7148  -16.2724    3.6514 S   0  0  0  0  0  0  0  0  0  0  0  0
  -23.2601  -14.6772    3.2378 C   0  0  0  0  0  0  0  0  0  0  0  0
  -23.4730  -21.0544    0.5282 O   0  0  0  0  0  0  0  0  0  0  0  0
  -19.5057  -18.8080   -0.3521 O   0  5  0  0  0  0  0  0  0  0  0  0
  -24.6124  -14.6598    3.0779 N   0  0  0  0  0  0  0  0  0  0  0  0
  -21.9532  -19.0964   -0.2013 O   0  0  0  0  0  0  0  0  0  0  0  0
  -20.7877  -17.5887    1.4090 O   0  0  0  0  0  0  0  0  0  0  0  0
  -25.2477  -15.8492    3.2652 C   0  0  1  0  0  0  0  0  0  0  0  0
  -24.3006  -16.9372    3.6310 C   0  0  1  0  0  0  0  0  0  0  0  0
  -24.4435  -18.4036    3.9408 C   0  0  0  0  0  0  0  0  0  0  0  0
  -24.6374  -19.1609    2.6365 C   0  0  0  0  0  0  0  0  0  0  0  0
  -23.5092  -18.9121    1.8069 O   0  0  0  0  0  0  0  0  0  0  0  0
  1 11  1  0  0  0  0
  3 13  1  6  0  0  0
  3 17  2  0  0  0  0
  3 20  1  0  0  0  0
  3 26  1  0  0  0  0
  4 14  1  1  0  0  0
  4 18  1  0  0  0  0
  4 21  2  0  0  0  0
  4 20  1  0  0  0  0
  5 19  1  0  0  0  0
  5  7  1  0  0  0  0
  6  7  2  0  0  0  0
  6 12  1  0  0  0  0
  7  8  1  0  0  0  0
  8  9  1  0  0  0  0
  8 10  2  0  0  0  0
 10 11  1  0  0  0  0
 11 12  2  0  0  0  0
 15 23  1  0  0  0  0
 15 16  1  0  0  0  0
 16 19  1  0  0  0  0
 19 22  1  0  0  0  0
 22  2  1  1  0  0  0
 22 23  1  0  0  0  0
 23 24  1  6  0  0  0
 24 25  1  0  0  0  0
 25 26  1  0  0  0  0
M  CHG  2  13  -1  18  -1
M  END
>  <CHROM.1>
148.95675236,84.74548065,105.92839935,49.34103916,-101.83228087,58.83260966
-179.68480407,68.24969530,-23.56344427,-16.62221086,1.23711034,-2.56063667
-0.96867103,2.16042845

>  <Name>
ligand

>  <RI>
0

>  <Rbt.Current_Directory>
/home/itssahil/PROJECTS/Mol_Feturizer/New_Systems/rnas/2GDI

>  <Rbt.Executable>
rbdock ($Id: //depot/dev/client3/rdock/2013.1/src/exe/rbdock.cxx#4 $)

>  <Rbt.Library>
libRbt.so (2013.1, Build901 2013/11/27)

>  <Rbt.Parameter_File>
/export/apps/rDock/src/rDock_2013.1_src/data/scripts/dock_solv.prm

>  <Rbt.Receptor>
prm/pocket_docking_5.prm

>  <SCORE>
-11.4903

>  <SCORE.INTER>
-9.38349

>  <SCORE.INTER.CONST>
1

>  <SCORE.INTER.POLAR>
0

>  <SCORE.INTER.ROT>
8

>  <SCORE.INTER.SOLV>
18.2883

>  <SCORE.INTER.VDW>
-21.2851

>  <SCORE.INTER.norm>
-0.360903

>  <SCORE.INTRA>
-2.1068

>  <SCORE.INTRA.DIHEDRAL>
-2.21663

>  <SCORE.INTRA.DIHEDRAL.0>
8.13976

>  <SCORE.INTRA.POLAR>
0

>  <SCORE.INTRA.POLAR.0>
0

>  <SCORE.INTRA.REPUL>
0

>  <SCORE.INTRA.REPUL.0>
0

>  <SCORE.INTRA.SOLV>
1.19855

>  <SCORE.INTRA.SOLV.lig_0>
-82.9561

>  <SCORE.INTRA.VDW>
-1.59776

>  <SCORE.INTRA.VDW.0>
-3.29171

>  <SCORE.INTRA.norm>
-0.0810306

>  <SCORE.RESTR>
0

>  <SCORE.RESTR.CAVITY>
0

>  <SCORE.RESTR.norm>
0

>  <SCORE.SYSTEM>
0

>  <SCORE.SYSTEM.CONST>
0

>  <SCORE.SYSTEM.DIHEDRAL>
0

>  <SCORE.SYSTEM.SOLV>
0

>  <SCORE.SYSTEM.norm>
0

>  <SCORE.heavy>
26

>  <SCORE.norm>
-0.441934

>  <RMSD>
8.534

$$$$
ligand
 OpenBabel11021811433D
libRbt.so/2013.1/901 2013/11/27
 26 27  0  0  0  0  0  0  0  0999 V2000
  -20.1618  -16.1922   -2.7444 C   0  0  0  0  0  0  0  0  0  0  0  0
  -20.6445  -18.3435    3.9337 C   0  0  0  0  0  0  0  0  0  0  0  0
  -23.6722  -13.5565    6.4031 P   0  0  1  0  0  0  0  0  0  0  0  0
  -25.7892  -11.8047    5.4499 P   0  0  1  0  0  0  0  0  0  0  0  0
  -21.4027  -19.8683    1.4958 C   0  0  0  0  0  0  0  0  0  0  0  0
  -19.9700  -18.0613    0.4603 C   0  0  0  0  0  0  0  0  0  0  0  0
  -21.0820  -18.8899    0.3786 C   0  0  0  0  0  0  0  0  0  0  0  0
  -21.8850  -18.8160   -0.7478 C   0  0  0  0  0  0  0  0  0  0  0  0
  -22.9809  -19.6034   -0.8720 N   0  0  0  0  0  0  0  0  0  0  0  0
  -21.5726  -17.9483   -1.7348 N   0  0  0  0  0  0  0  0  0  0  0  0
  -20.4866  -17.1514   -1.6315 C   0  0  0  0  0  0  0  0  0  0  0  0
  -19.6903  -17.2095   -0.5361 N   0  0  0  0  0  0  0  0  0  0  0  0
  -22.6903  -13.0508    5.3791 O   0  5  0  0  0  0  0  0  0  0  0  0
  -27.2488  -12.0122    5.1856 O   0  0  0  0  0  0  0  0  0  0  0  0
  -24.6592  -18.6802    3.4377 S   0  0  0  0  0  0  0  0  0  0  0  0
  -23.7495  -19.4573    2.1800 C   0  0  0  0  0  0  0  0  0  0  0  0
  -23.4862  -13.0995    7.8213 O   0  0  0  0  0  0  0  0  0  0  0  0
  -25.6228  -10.9511    6.6627 O   0  5  0  0  0  0  0  0  0  0  0  0
  -22.4128  -19.3133    2.3969 N   0  0  0  0  0  0  0  0  0  0  0  0
  -25.1692  -13.2438    5.8663 O   0  0  0  0  0  0  0  0  0  0  0  0
  -24.9693  -11.3261    4.2828 O   0  0  0  0  0  0  0  0  0  0  0  0
  -22.0641  -18.6154    3.5126 C   0  0  1  0  0  0  0  0  0  0  0  0
  -23.2540  -18.1631    4.2834 C   0  0  1  0  0  0  0  0  0  0  0  0
  -23.4561  -17.3787    5.5526 C   0  0  0  0  0  0  0  0  0  0  0  0
  -23.5242  -15.8997    5.2061 C   0  0  0  0  0  0  0  0  0  0  0  0
  -23.5873  -15.1617    6.4204 O   0  0  0  0  0  0  0  0  0  0  0  0
  1 11  1  0  0  0  0
  3 13  1  6  0  0  0
  3 17  2  0  0  0  0
  3 20  1  0  0  0  0
  3 26  1  0  0  0  0
  4 14  1  6  0  0  0
  4 18  1  0  0  0  0
  4 21  2  0  0  0  0
  4 20  1  0  0  0  0
  5 19  1  0  0  0  0
  5  7  1  0  0  0  0
  6  7  2  0  0  0  0
  6 12  1  0  0  0  0
  7  8  1  0  0  0  0
  8  9  1  0  0  0  0
  8 10  2  0  0  0  0
 10 11  1  0  0  0  0
 11 12  2  0  0  0  0
 15 23  1  0  0  0  0
 15 16  1  0  0  0  0
 16 19  1  0  0  0  0
 19 22  1  0  0  0  0
 22  2  1  1  0  0  0
 22 23  1  0  0  0  0
 23 24  1  6  0  0  0
 24 25  1  0  0  0  0
 25 26  1  0  0  0  0
M  CHG  2  13  -1  18  -1
M  END
>  <CHROM.1>
-56.69481490,87.59538893,97.82236758,-173.08150309,-89.71270152,-174.56004084
-179.85947339,-43.54061560,-23.20322614,-15.92179565,3.40426881,-0.33839475
1.14836364,-0.41371066

>  <Name>
ligand

>  <RI>
0

>  <Rbt.Current_Directory>
/home/itssahil/PROJECTS/Mol_Feturizer/New_Systems/rnas/2GDI

>  <Rbt.Executable>
rbdock ($Id: //depot/dev/client3/rdock/2013.1/src/exe/rbdock.cxx#4 $)

>  <Rbt.Library>
libRbt.so (2013.1, Build901 2013/11/27)

>  <Rbt.Parameter_File>
/export/apps/rDock/src/rDock_2013.1_src/data/scripts/dock_solv.prm

>  <Rbt.Receptor>
prm/pocket_docking_8.prm

>  <SCORE>
-10.8201

>  <SCORE.INTER>
-10.4822

>  <SCORE.INTER.CONST>
1

>  <SCORE.INTER.POLAR>
0

>  <SCORE.INTER.ROT>
8

>  <SCORE.INTER.SOLV>
11.9852

>  <SCORE.INTER.VDW>
-19.9165

>  <SCORE.INTER.norm>
-0.403161

>  <SCORE.INTRA>
-0.33793

>  <SCORE.INTRA.DIHEDRAL>
-2.77642

>  <SCORE.INTRA.DIHEDRAL.0>
8.13976

>  <SCORE.INTRA.POLAR>
0

>  <SCORE.INTRA.POLAR.0>
0

>  <SCORE.INTRA.REPUL>
0

>  <SCORE.INTRA.REPUL.0>
0

>  <SCORE.INTRA.SOLV>
2.97994

>  <SCORE.INTRA.SOLV.lig_0>
-82.9561

>  <SCORE.INTRA.VDW>
-0.439692

>  <SCORE.INTRA.VDW.0>
-3.29171

>  <SCORE.INTRA.norm>
-0.0129973

>  <SCORE.RESTR>
0

>  <SCORE.RESTR.CAVITY>
0

>  <SCORE.RESTR.norm>
0

>  <SCORE.SYSTEM>
0

>  <SCORE.SYSTEM.CONST>
0

>  <SCORE.SYSTEM.DIHEDRAL>
0

>  <SCORE.SYSTEM.SOLV>
0

>  <SCORE.SYSTEM.norm>
0

>  <SCORE.heavy>
26

>  <SCORE.norm>
-0.416158

>  <RMSD>
8.563

$$$$
ligand
 OpenBabel11021811433D
libRbt.so/2013.1/901 2013/11/27
 26 27  0  0  0  0  0  0  0  0999 V2000
  -22.9574  -17.8532    7.3857 C   0  0  0  0  0  0  0  0  0  0  0  0
  -22.6779  -10.9876    3.8466 C   0  0  0  0  0  0  0  0  0  0  0  0
  -23.8089  -13.4230    0.2514 P   0  0  1  0  0  0  0  0  0  0  0  0
  -24.2003  -16.2369    0.8739 P   0  0  1  0  0  0  0  0  0  0  0  0
  -23.2903  -12.1843    6.4992 C   0  0  0  0  0  0  0  0  0  0  0  0
  -23.1204  -14.5647    5.6654 C   0  0  0  0  0  0  0  0  0  0  0  0
  -23.2127  -13.6831    6.7351 C   0  0  0  0  0  0  0  0  0  0  0  0
  -23.2190  -14.1970    8.0215 C   0  0  0  0  0  0  0  0  0  0  0  0
  -23.3087  -13.3765    9.0963 N   0  0  0  0  0  0  0  0  0  0  0  0
  -23.1352  -15.5322    8.2076 N   0  0  0  0  0  0  0  0  0  0  0  0
  -23.0479  -16.3696    7.1511 C   0  0  0  0  0  0  0  0  0  0  0  0
  -23.0415  -15.8844    5.8854 N   0  0  0  0  0  0  0  0  0  0  0  0
  -22.3079  -13.5332    0.1931 O   0  5  0  0  0  0  0  0  0  0  0  0
  -24.8046  -16.5197   -0.4671 O   0  0  0  0  0  0  0  0  0  0  0  0
  -26.6450  -11.5970    4.4526 S   0  0  0  0  0  0  0  0  0  0  0  0
  -25.6662  -12.0914    5.7982 C   0  0  0  0  0  0  0  0  0  0  0  0
  -24.5431  -13.3111   -1.0537 O   0  0  0  0  0  0  0  0  0  0  0  0
  -22.7257  -16.4567    0.8080 O   0  5  0  0  0  0  0  0  0  0  0  0
  -24.3482  -11.8644    5.5407 N   0  0  0  0  0  0  0  0  0  0  0  0
  -24.3718  -14.6485    1.1503 O   0  0  0  0  0  0  0  0  0  0  0  0
  -24.8416  -16.9295    2.0454 O   0  0  0  0  0  0  0  0  0  0  0  0
  -24.0663  -11.3166    4.3266 C   0  0  1  0  0  0  0  0  0  0  0  0
  -25.2966  -11.0624    3.5290 C   0  0  1  0  0  0  0  0  0  0  0  0
  -25.5720  -10.4930    2.1626 C   0  0  0  0  0  0  0  0  0  0  0  0
  -25.5113  -11.6198    1.1435 C   0  0  0  0  0  0  0  0  0  0  0  0
  -24.1764  -12.1093    1.1020 O   0  0  0  0  0  0  0  0  0  0  0  0
  1 11  1  0  0  0  0
  3 13  1  6  0  0  0
  3 17  2  0  0  0  0
  3 20  1  0  0  0  0
  3 26  1  0  0  0  0
  4 14  1  6  0  0  0
  4 18  1  0  0  0  0
  4 21  2  0  0  0  0
  4 20  1  0  0  0  0
  5 19  1  0  0  0  0
  5  7  1  0  0  0  0
  6  7  2  0  0  0  0
  6 12  1  0  0  0  0
  7  8  1  0  0  0  0
  8  9  1  0  0  0  0
  8 10  2  0  0  0  0
 10 11  1  0  0  0  0
 11 12  2  0  0  0  0
 15 23  1  0  0  0  0
 15 16  1  0  0  0  0
 16 19  1  0  0  0  0
 19 22  1  0  0  0  0
 22  2  1  1  0  0  0
 22 23  1  0  0  0  0
 23 24  1  6  0  0  0
 24 25  1  0  0  0  0
 25 26  1  0  0  0  0
M  CHG  2  13  -1  18  -1
M  END
>  <CHROM.1>
-60.22840604,64.77169959,51.72232427,-58.70977612,-90.88240810,-65.34332000
172.64551237,169.53721312,-24.10604957,-13.80793190,3.44774599,-1.24344213
1.26891747,-1.88600657

>  <Name>
ligand

>  <RI>
0

>  <Rbt.Current_Directory>
/home/itssahil/PROJECTS/Mol_Feturizer/New_Systems/rnas/2GDI

>  <Rbt.Executable>
rbdock ($Id: //depot/dev/client3/rdock/2013.1/src/exe/rbdock.cxx#4 $)

>  <Rbt.Library>
libRbt.so (2013.1, Build901 2013/11/27)

>  <Rbt.Parameter_File>
/export/apps/rDock/src/rDock_2013.1_src/data/scripts/dock_solv.prm

>  <Rbt.Receptor>
prm/pocket_docking_7.prm

>  <SCORE>
-15.5781

>  <SCORE.INTER>
-13.7675

>  <SCORE.INTER.CONST>
1

>  <SCORE.INTER.POLAR>
0

>  <SCORE.INTER.ROT>
8

>  <SCORE.INTER.SOLV>
7.30505

>  <SCORE.INTER.VDW>
-20.5467

>  <SCORE.INTER.norm>
-0.52952

>  <SCORE.INTRA>
-1.81062

>  <SCORE.INTRA.DIHEDRAL>
-2.5914

>  <SCORE.INTRA.DIHEDRAL.0>
8.13976

>  <SCORE.INTRA.POLAR>
0

>  <SCORE.INTRA.POLAR.0>
0

>  <SCORE.INTRA.REPUL>
0

>  <SCORE.INTRA.REPUL.0>
0

>  <SCORE.INTRA.SOLV>
0.368346

>  <SCORE.INTRA.SOLV.lig_0>
-82.9561

>  <SCORE.INTRA.VDW>
-0.699095

>  <SCORE.INTRA.VDW.0>
-3.29171

>  <SCORE.INTRA.norm>
-0.0696393

>  <SCORE.RESTR>
0

>  <SCORE.RESTR.CAVITY>
0

>  <SCORE.RESTR.norm>
0

>  <SCORE.SYSTEM>
0

>  <SCORE.SYSTEM.CONST>
0

>  <SCORE.SYSTEM.DIHEDRAL>
0

>  <SCORE.SYSTEM.SOLV>
0

>  <SCORE.SYSTEM.norm>
0

>  <SCORE.heavy>
26

>  <SCORE.norm>
-0.599159

>  <RMSD>
8.568

$$$$
ligand
 OpenBabel11021811433D
libRbt.so/2013.1/901 2013/11/27
 26 27  0  0  0  0  0  0  0  0999 V2000
  -23.0520  -17.7978    7.6069 C   0  0  0  0  0  0  0  0  0  0  0  0
  -25.8445  -11.7740    5.5407 C   0  0  0  0  0  0  0  0  0  0  0  0
  -24.3409  -13.5765    0.7515 P   0  0  1  0  0  0  0  0  0  0  0  0
  -22.1501  -14.8773    2.1541 P   0  0  1  0  0  0  0  0  0  0  0  0
  -23.3329  -12.0794    7.1033 C   0  0  0  0  0  0  0  0  0  0  0  0
  -23.3040  -14.4055    6.1140 C   0  0  0  0  0  0  0  0  0  0  0  0
  -23.2688  -13.5913    7.2390 C   0  0  0  0  0  0  0  0  0  0  0  0
  -23.1606  -14.1845    8.4861 C   0  0  0  0  0  0  0  0  0  0  0  0
  -23.1238  -13.4316    9.6122 N   0  0  0  0  0  0  0  0  0  0  0  0
  -23.0913  -15.5302    8.5816 N   0  0  0  0  0  0  0  0  0  0  0  0
  -23.1291  -16.3011    7.4728 C   0  0  0  0  0  0  0  0  0  0  0  0
  -23.2358  -15.7377    6.2446 N   0  0  0  0  0  0  0  0  0  0  0  0
  -23.4133  -12.4215    0.4793 O   0  5  0  0  0  0  0  0  0  0  0  0
  -22.5520  -14.2061    3.4313 O   0  0  0  0  0  0  0  0  0  0  0  0
  -22.5031  -10.9920    3.3728 S   0  0  0  0  0  0  0  0  0  0  0  0
  -22.1613  -11.4334    5.0164 C   0  0  0  0  0  0  0  0  0  0  0  0
  -25.3363  -13.9278   -0.3164 O   0  0  0  0  0  0  0  0  0  0  0  0
  -21.8907  -16.3235    2.4159 O   0  5  0  0  0  0  0  0  0  0  0  0
  -23.3153  -11.6841    5.6949 N   0  0  0  0  0  0  0  0  0  0  0  0
  -23.4430  -14.8573    1.1760 O   0  0  0  0  0  0  0  0  0  0  0  0
  -21.0408  -14.2160    1.3824 O   0  0  0  0  0  0  0  0  0  0  0  0
  -24.4660  -11.5446    4.9808 C   0  0  1  0  0  0  0  0  0  0  0  0
  -24.2038  -11.1535    3.5692 C   0  0  1  0  0  0  0  0  0  0  0  0
  -25.0717  -10.8688    2.3722 C   0  0  0  0  0  0  0  0  0  0  0  0
  -25.9886  -12.0595    2.1405 C   0  0  0  0  0  0  0  0  0  0  0  0
  -25.1858  -13.2319    2.0750 O   0  0  0  0  0  0  0  0  0  0  0  0
  1 11  1  0  0  0  0
  3 13  1  6  0  0  0
  3 17  2  0  0  0  0
  3 20  1  0  0  0  0
  3 26  1  0  0  0  0
  4 14  1  1  0  0  0
  4 18  1  0  0  0  0
  4 21  2  0  0  0  0
  4 20  1  0  0  0  0
  5 19  1  0  0  0  0
  5  7  1  0  0  0  0
  6  7  2  0  0  0  0
  6 12  1  0  0  0  0
  7  8  1  0  0  0  0
  8  9  1  0  0  0  0
  8 10  2  0  0  0  0
 10 11  1  0  0  0  0
 11 12  2  0  0  0  0
 15 23  1  0  0  0  0
 15 16  1  0  0  0  0
 16 19  1  0  0  0  0
 19 22  1  0  0  0  0
 22  2  1  6  0  0  0
 22 23  1  0  0  0  0
 23 24  1  1  0  0  0
 24 25  1  0  0  0  0
 25 26  1  0  0  0  0
M  CHG  2  13  -1  18  -1
M  END
>  <CHROM.1>
41.63599393,-90.06147669,-4.77295800,52.68390514,126.90410427,-52.75380749
-77.03540051,57.96824071,-23.45748255,-13.52851209,3.98343976,-1.25917166
1.23466573,-1.66120482

>  <Name>
ligand

>  <RI>
0

>  <Rbt.Current_Directory>
/home/itssahil/PROJECTS/Mol_Feturizer/New_Systems/rnas/2GDI

>  <Rbt.Executable>
rbdock ($Id: //depot/dev/client3/rdock/2013.1/src/exe/rbdock.cxx#4 $)

>  <Rbt.Library>
libRbt.so (2013.1, Build901 2013/11/27)

>  <Rbt.Parameter_File>
/export/apps/rDock/src/rDock_2013.1_src/data/scripts/dock_solv.prm

>  <Rbt.Receptor>
prm/pocket_docking_8.prm

>  <SCORE>
-13.7119

>  <SCORE.INTER>
-11.0325

>  <SCORE.INTER.CONST>
1

>  <SCORE.INTER.POLAR>
0

>  <SCORE.INTER.ROT>
8

>  <SCORE.INTER.SOLV>
8.55148

>  <SCORE.INTER.VDW>
-19.1389

>  <SCORE.INTER.norm>
-0.424328

>  <SCORE.INTRA>
-2.6794

>  <SCORE.INTRA.DIHEDRAL>
-1.50591

>  <SCORE.INTRA.DIHEDRAL.0>
8.13976

>  <SCORE.INTRA.POLAR>
0

>  <SCORE.INTRA.POLAR.0>
0

>  <SCORE.INTRA.REPUL>
0

>  <SCORE.INTRA.REPUL.0>
0

>  <SCORE.INTRA.SOLV>
0.643885

>  <SCORE.INTRA.SOLV.lig_0>
-82.9561

>  <SCORE.INTRA.VDW>
-2.24839

>  <SCORE.INTRA.VDW.0>
-3.29171

>  <SCORE.INTRA.norm>
-0.103054

>  <SCORE.RESTR>
0

>  <SCORE.RESTR.CAVITY>
0

>  <SCORE.RESTR.norm>
0

>  <SCORE.SYSTEM>
0

>  <SCORE.SYSTEM.CONST>
0

>  <SCORE.SYSTEM.DIHEDRAL>
0

>  <SCORE.SYSTEM.SOLV>
0

>  <SCORE.SYSTEM.norm>
0

>  <SCORE.heavy>
26

>  <SCORE.norm>
-0.527382

>  <RMSD>
8.683

$$$$
ligand
 OpenBabel11021811433D
libRbt.so/2013.1/901 2013/11/27
 26 27  0  0  0  0  0  0  0  0999 V2000
  -20.9838  -19.1060    1.9521 C   0  0  0  0  0  0  0  0  0  0  0  0
  -21.6867  -12.5913   -1.3750 C   0  0  0  0  0  0  0  0  0  0  0  0
  -15.4974  -10.4427    0.3585 P   0  0  1  0  0  0  0  0  0  0  0  0
  -13.9775  -12.9131    0.1447 P   0  0  1  0  0  0  0  0  0  0  0  0
  -22.9798  -13.7983    1.0154 C   0  0  0  0  0  0  0  0  0  0  0  0
  -21.7080  -15.4898    2.3980 C   0  0  0  0  0  0  0  0  0  0  0  0
  -22.4442  -15.1995    1.2563 C   0  0  0  0  0  0  0  0  0  0  0  0
  -22.6919  -16.2161    0.3485 C   0  0  0  0  0  0  0  0  0  0  0  0
  -23.4042  -15.9808   -0.7801 N   0  0  0  0  0  0  0  0  0  0  0  0
  -22.2175  -17.4575    0.5904 N   0  0  0  0  0  0  0  0  0  0  0  0
  -21.5024  -17.7149    1.7073 C   0  0  0  0  0  0  0  0  0  0  0  0
  -21.2496  -16.7320    2.6059 N   0  0  0  0  0  0  0  0  0  0  0  0
  -15.7079  -10.7984    1.8068 O   0  5  0  0  0  0  0  0  0  0  0  0
  -12.7147  -12.2282    0.5689 O   0  0  0  0  0  0  0  0  0  0  0  0
  -20.1845  -11.2046    2.1317 S   0  0  0  0  0  0  0  0  0  0  0  0
  -21.4466  -12.3767    2.3470 C   0  0  0  0  0  0  0  0  0  0  0  0
  -14.6337   -9.2512    0.0597 O   0  0  0  0  0  0  0  0  0  0  0  0
  -14.6674  -13.4667    1.3467 O   0  5  0  0  0  0  0  0  0  0  0  0
  -21.9119  -12.8064    1.1413 N   0  0  0  0  0  0  0  0  0  0  0  0
  -14.9772  -11.7672   -0.4175 O   0  0  0  0  0  0  0  0  0  0  0  0
  -13.8409  -13.9198   -0.9648 O   0  0  0  0  0  0  0  0  0  0  0  0
  -21.3209  -12.2546    0.0460 C   0  0  1  0  0  0  0  0  0  0  0  0
  -20.2527  -11.2866    0.4153 C   0  0  1  0  0  0  0  0  0  0  0  0
  -19.3052  -10.4107   -0.3605 C   0  0  0  0  0  0  0  0  0  0  0  0
  -18.1047  -10.0936    0.5174 C   0  0  0  0  0  0  0  0  0  0  0  0
  -16.9367  -10.1445   -0.2926 O   0  0  0  0  0  0  0  0  0  0  0  0
  1 11  1  0  0  0  0
  3 13  1  1  0  0  0
  3 17  2  0  0  0  0
  3 20  1  0  0  0  0
  3 26  1  0  0  0  0
  4 14  1  1  0  0  0
  4 18  1  0  0  0  0
  4 21  2  0  0  0  0
  4 20  1  0  0  0  0
  5 19  1  0  0  0  0
  5  7  1  0  0  0  0
  6  7  2  0  0  0  0
  6 12  1  0  0  0  0
  7  8  1  0  0  0  0
  8  9  1  0  0  0  0
  8 10  2  0  0  0  0
 10 11  1  0  0  0  0
 11 12  2  0  0  0  0
 15 23  1  0  0  0  0
 15 16  1  0  0  0  0
 16 19  1  0  0  0  0
 19 22  1  0  0  0  0
 22  2  1  6  0  0  0
 22 23  1  0  0  0  0
 23 24  1  6  0  0  0
 24 25  1  0  0  0  0
 25 26  1  0  0  0  0
M  CHG  2  13  -1  18  -1
M  END
>  <CHROM.1>
-36.62799006,-78.20220705,51.88137343,-56.47702069,24.35439046,140.00211508
-155.39932291,7.03408653,-18.56725027,-12.99482467,0.70507959,-2.61546136
0.06489178,-0.08099955

>  <Name>
ligand

>  <RI>
0

>  <Rbt.Current_Directory>
/home/itssahil/PROJECTS/Mol_Feturizer/New_Systems/rnas/2GDI

>  <Rbt.Executable>
rbdock ($Id: //depot/dev/client3/rdock/2013.1/src/exe/rbdock.cxx#4 $)

>  <Rbt.Library>
libRbt.so (2013.1, Build901 2013/11/27)

>  <Rbt.Parameter_File>
/export/apps/rDock/src/rDock_2013.1_src/data/scripts/dock_solv.prm

>  <Rbt.Receptor>
prm/pocket_docking_3.prm

>  <SCORE>
-4.94173

>  <SCORE.INTER>
-11.5283

>  <SCORE.INTER.CONST>
1

>  <SCORE.INTER.POLAR>
0

>  <SCORE.INTER.ROT>
8

>  <SCORE.INTER.SOLV>
24.7116

>  <SCORE.INTER.VDW>
-24.8561

>  <SCORE.INTER.norm>
-0.443397

>  <SCORE.INTRA>
6.56772

>  <SCORE.INTRA.DIHEDRAL>
6.78016

>  <SCORE.INTRA.DIHEDRAL.0>
8.13976

>  <SCORE.INTRA.POLAR>
0

>  <SCORE.INTRA.POLAR.0>
0

>  <SCORE.INTRA.REPUL>
0

>  <SCORE.INTRA.REPUL.0>
0

>  <SCORE.INTRA.SOLV>
1.26079

>  <SCORE.INTRA.SOLV.lig_0>
-82.9561

>  <SCORE.INTRA.VDW>
2.54724

>  <SCORE.INTRA.VDW.0>
-3.29171

>  <SCORE.INTRA.norm>
0.252604

>  <SCORE.RESTR>
0.018859

>  <SCORE.RESTR.CAVITY>
0.018859

>  <SCORE.RESTR.norm>
0.000725346

>  <SCORE.SYSTEM>
0

>  <SCORE.SYSTEM.CONST>
0

>  <SCORE.SYSTEM.DIHEDRAL>
0

>  <SCORE.SYSTEM.SOLV>
0

>  <SCORE.SYSTEM.norm>
0

>  <SCORE.heavy>
26

>  <SCORE.norm>
-0.190067

>  <RMSD>
8.690

$$$$
ligand
 OpenBabel11021811433D
libRbt.so/2013.1/901 2013/11/27
 26 27  0  0  0  0  0  0  0  0999 V2000
  -26.5443  -14.2823   -6.5261 C   0  0  0  0  0  0  0  0  0  0  0  0
  -23.8363  -15.4423   -0.1761 C   0  0  0  0  0  0  0  0  0  0  0  0
  -23.0279  -13.8183    4.6671 P   0  0  1  0  0  0  0  0  0  0  0  0
  -23.2320  -11.0110    3.9347 P   0  0  1  0  0  0  0  0  0  0  0  0
  -23.6249  -12.9356   -1.7620 C   0  0  0  0  0  0  0  0  0  0  0  0
  -25.6113  -12.6841   -3.3050 C   0  0  0  0  0  0  0  0  0  0  0  0
  -24.4002  -13.3003   -3.0167 C   0  0  0  0  0  0  0  0  0  0  0  0
  -23.9069  -14.2441   -3.9026 C   0  0  0  0  0  0  0  0  0  0  0  0
  -22.7304  -14.8727   -3.6633 N   0  0  0  0  0  0  0  0  0  0  0  0
  -24.6068  -14.5424   -5.0187 N   0  0  0  0  0  0  0  0  0  0  0  0
  -25.7834  -13.9306   -5.2765 C   0  0  0  0  0  0  0  0  0  0  0  0
  -26.2817  -13.0055   -4.4203 N   0  0  0  0  0  0  0  0  0  0  0  0
  -21.9343  -14.2241    3.7143 O   0  5  0  0  0  0  0  0  0  0  0  0
  -22.6148   -9.7719    4.5068 O   0  0  0  0  0  0  0  0  0  0  0  0
  -26.1227  -12.4234    1.2852 S   0  0  0  0  0  0  0  0  0  0  0  0
  -25.2284  -11.9757   -0.1335 C   0  0  0  0  0  0  0  0  0  0  0  0
  -23.1541  -14.5981    5.9441 O   0  0  0  0  0  0  0  0  0  0  0  0
  -22.5384  -11.3666    2.6620 O   0  5  0  0  0  0  0  0  0  0  0  0
  -24.4815  -13.0236   -0.5793 N   0  0  0  0  0  0  0  0  0  0  0  0
  -22.8890  -12.2283    4.9492 O   0  0  0  0  0  0  0  0  0  0  0  0
  -24.7303  -10.9991    3.7989 O   0  0  0  0  0  0  0  0  0  0  0  0
  -24.5772  -14.1718    0.1458 C   0  0  1  0  0  0  0  0  0  0  0  0
  -25.5172  -14.0329    1.2910 C   0  0  1  0  0  0  0  0  0  0  0  0
  -25.9901  -14.9494    2.3880 C   0  0  0  0  0  0  0  0  0  0  0  0
  -24.8336  -15.2063    3.3412 C   0  0  0  0  0  0  0  0  0  0  0  0
  -24.4326  -13.9606    3.8984 O   0  0  0  0  0  0  0  0  0  0  0  0
  1 11  1  0  0  0  0
  3 13  1  6  0  0  0
  3 17  2  0  0  0  0
  3 20  1  0  0  0  0
  3 26  1  0  0  0  0
  4 14  1  1  0  0  0
  4 18  1  0  0  0  0
  4 21  2  0  0  0  0
  4 20  1  0  0  0  0
  5 19  1  0  0  0  0
  5  7  1  0  0  0  0
  6  7  2  0  0  0  0
  6 12  1  0  0  0  0
  7  8  1  0  0  0  0
  8  9  1  0  0  0  0
  8 10  2  0  0  0  0
 10 11  1  0  0  0  0
 11 12  2  0  0  0  0
 15 23  1  0  0  0  0
 15 16  1  0  0  0  0
 16 19  1  0  0  0  0
 19 22  1  0  0  0  0
 22  2  1  6  0  0  0
 22 23  1  0  0  0  0
 23 24  1  1  0  0  0
 24 25  1  0  0  0  0
 25 26  1  0  0  0  0
M  CHG  2  13  -1  18  -1
M  END
>  <CHROM.1>
72.20353177,-88.83436435,51.87449129,-165.54794370,-109.46892865,60.99797397
-165.31319330,57.72388849,-24.25529726,-13.20412858,0.88922853,2.86240445
1.35766781,-3.00090466

>  <Name>
ligand

>  <RI>
0

>  <Rbt.Current_Directory>
/home/itssahil/PROJECTS/Mol_Feturizer/New_Systems/rnas/2GDI

>  <Rbt.Executable>
rbdock ($Id: //depot/dev/client3/rdock/2013.1/src/exe/rbdock.cxx#4 $)

>  <Rbt.Library>
libRbt.so (2013.1, Build901 2013/11/27)

>  <Rbt.Parameter_File>
/export/apps/rDock/src/rDock_2013.1_src/data/scripts/dock_solv.prm

>  <Rbt.Receptor>
prm/pocket_docking_7.prm

>  <SCORE>
-11.309

>  <SCORE.INTER>
-9.90695

>  <SCORE.INTER.CONST>
1

>  <SCORE.INTER.POLAR>
0

>  <SCORE.INTER.ROT>
8

>  <SCORE.INTER.SOLV>
14.5788

>  <SCORE.INTER.VDW>
-20.3976

>  <SCORE.INTER.norm>
-0.381036

>  <SCORE.INTRA>
-1.4021

>  <SCORE.INTRA.DIHEDRAL>
-1.77897

>  <SCORE.INTRA.DIHEDRAL.0>
8.13976

>  <SCORE.INTRA.POLAR>
0

>  <SCORE.INTRA.POLAR.0>
0

>  <SCORE.INTRA.REPUL>
0

>  <SCORE.INTRA.REPUL.0>
0

>  <SCORE.INTRA.SOLV>
3.28932

>  <SCORE.INTRA.SOLV.lig_0>
-82.9561

>  <SCORE.INTRA.VDW>
-2.15727

>  <SCORE.INTRA.VDW.0>
-3.29171

>  <SCORE.INTRA.norm>
-0.0539268

>  <SCORE.RESTR>
0

>  <SCORE.RESTR.CAVITY>
0

>  <SCORE.RESTR.norm>
0

>  <SCORE.SYSTEM>
0

>  <SCORE.SYSTEM.CONST>
0

>  <SCORE.SYSTEM.DIHEDRAL>
0

>  <SCORE.SYSTEM.SOLV>
0

>  <SCORE.SYSTEM.norm>
0

>  <SCORE.heavy>
26

>  <SCORE.norm>
-0.434963

>  <RMSD>
8.702

$$$$
ligand
 OpenBabel11021811433D
libRbt.so/2013.1/901 2013/11/27
 26 27  0  0  0  0  0  0  0  0999 V2000
  -22.5757  -10.9798    5.7739 C   0  0  0  0  0  0  0  0  0  0  0  0
  -23.9193  -17.2208    2.6618 C   0  0  0  0  0  0  0  0  0  0  0  0
  -19.6221  -17.9140   -0.9995 P   0  0  1  0  0  0  0  0  0  0  0  0
  -17.9954  -15.9712    0.4281 P   0  0  1  0  0  0  0  0  0  0  0  0
  -24.2345  -16.4770    5.5237 C   0  0  0  0  0  0  0  0  0  0  0  0
  -23.4732  -14.3266    4.4345 C   0  0  0  0  0  0  0  0  0  0  0  0
  -23.7863  -15.0269    5.5927 C   0  0  0  0  0  0  0  0  0  0  0  0
  -23.6948  -14.3730    6.8104 C   0  0  0  0  0  0  0  0  0  0  0  0
  -23.9889  -15.0150    7.9670 N   0  0  0  0  0  0  0  0  0  0  0  0
  -23.3074  -13.0794    6.8462 N   0  0  0  0  0  0  0  0  0  0  0  0
  -23.0065  -12.4199    5.7062 C   0  0  0  0  0  0  0  0  0  0  0  0
  -23.0894  -13.0443    4.5060 N   0  0  0  0  0  0  0  0  0  0  0  0
  -20.5337  -16.7421   -1.2529 O   0  5  0  0  0  0  0  0  0  0  0  0
  -16.7621  -16.1549    1.2580 O   0  0  0  0  0  0  0  0  0  0  0  0
  -21.0594  -18.8197    5.0577 S   0  0  0  0  0  0  0  0  0  0  0  0
  -22.2068  -17.8459    5.9227 C   0  0  0  0  0  0  0  0  0  0  0  0
  -19.3854  -18.8624   -2.1393 O   0  0  0  0  0  0  0  0  0  0  0  0
  -17.7370  -14.9408   -0.6202 O   0  5  0  0  0  0  0  0  0  0  0  0
  -23.1405  -17.3368    5.0720 N   0  0  0  0  0  0  0  0  0  0  0  0
  -18.2292  -17.3497   -0.3927 O   0  0  0  0  0  0  0  0  0  0  0  0
  -19.2703  -15.7238    1.1875 O   0  0  0  0  0  0  0  0  0  0  0  0
  -22.9974  -17.6764    3.7614 C   0  0  1  0  0  0  0  0  0  0  0  0
  -21.8279  -18.5695    3.5399 C   0  0  1  0  0  0  0  0  0  0  0  0
  -21.2152  -19.2298    2.3335 C   0  0  0  0  0  0  0  0  0  0  0  0
  -20.7244  -18.1493    1.3828 C   0  0  0  0  0  0  0  0  0  0  0  0
  -20.2514  -18.7808    0.1993 O   0  0  0  0  0  0  0  0  0  0  0  0
  1 11  1  0  0  0  0
  3 13  1  6  0  0  0
  3 17  2  0  0  0  0
  3 20  1  0  0  0  0
  3 26  1  0  0  0  0
  4 14  1  1  0  0  0
  4 18  1  0  0  0  0
  4 21  2  0  0  0  0
  4 20  1  0  0  0  0
  5 19  1  0  0  0  0
  5  7  1  0  0  0  0
  6  7  2  0  0  0  0
  6 12  1  0  0  0  0
  7  8  1  0  0  0  0
  8  9  1  0  0  0  0
  8 10  2  0  0  0  0
 10 11  1  0  0  0  0
 11 12  2  0  0  0  0
 15 23  1  0  0  0  0
 15 16  1  0  0  0  0
 16 19  1  0  0  0  0
 19 22  1  0  0  0  0
 22  2  1  1  0  0  0
 22 23  1  0  0  0  0
 23 24  1  6  0  0  0
 24 25  1  0  0  0  0
 25 26  1  0  0  0  0
M  CHG  2  13  -1  18  -1
M  END
>  <CHROM.1>
25.57108128,85.26826844,67.30683505,156.10496897,-115.59483103,-175.15976186
-178.29640543,-46.36152894,-21.10155963,-16.43069963,2.73507758,-2.59787161
-0.89124766,-2.87760273

>  <Name>
ligand

>  <RI>
0

>  <Rbt.Current_Directory>
/home/itssahil/PROJECTS/Mol_Feturizer/New_Systems/rnas/2GDI

>  <Rbt.Executable>
rbdock ($Id: //depot/dev/client3/rdock/2013.1/src/exe/rbdock.cxx#4 $)

>  <Rbt.Library>
libRbt.so (2013.1, Build901 2013/11/27)

>  <Rbt.Parameter_File>
/export/apps/rDock/src/rDock_2013.1_src/data/scripts/dock_solv.prm

>  <Rbt.Receptor>
prm/pocket_docking_6.prm

>  <SCORE>
-11.0759

>  <SCORE.INTER>
-11.7076

>  <SCORE.INTER.CONST>
1

>  <SCORE.INTER.POLAR>
0

>  <SCORE.INTER.ROT>
8

>  <SCORE.INTER.SOLV>
11.4349

>  <SCORE.INTER.VDW>
-20.55

>  <SCORE.INTER.norm>
-0.450292

>  <SCORE.INTRA>
0.631699

>  <SCORE.INTRA.DIHEDRAL>
-1.17518

>  <SCORE.INTRA.DIHEDRAL.0>
8.13976

>  <SCORE.INTRA.POLAR>
0

>  <SCORE.INTRA.POLAR.0>
0

>  <SCORE.INTRA.REPUL>
0

>  <SCORE.INTRA.REPUL.0>
0

>  <SCORE.INTRA.SOLV>
2.77049

>  <SCORE.INTRA.SOLV.lig_0>
-82.9561

>  <SCORE.INTRA.VDW>
-0.16596

>  <SCORE.INTRA.VDW.0>
-3.29171

>  <SCORE.INTRA.norm>
0.0242961

>  <SCORE.RESTR>
0

>  <SCORE.RESTR.CAVITY>
0

>  <SCORE.RESTR.norm>
0

>  <SCORE.SYSTEM>
0

>  <SCORE.SYSTEM.CONST>
0

>  <SCORE.SYSTEM.DIHEDRAL>
0

>  <SCORE.SYSTEM.SOLV>
0

>  <SCORE.SYSTEM.norm>
0

>  <SCORE.heavy>
26

>  <SCORE.norm>
-0.425996

>  <RMSD>
8.703

$$$$
ligand
 OpenBabel11021811433D
libRbt.so/2013.1/901 2013/11/27
 26 27  0  0  0  0  0  0  0  0999 V2000
  -21.8112   -6.8573    5.6466 C   0  0  0  0  0  0  0  0  0  0  0  0
  -25.3590  -11.6408    6.3244 C   0  0  0  0  0  0  0  0  0  0  0  0
  -22.9662  -12.1057    2.8448 P   0  0  1  0  0  0  0  0  0  0  0  0
  -25.5447  -11.3498    1.7318 P   0  0  1  0  0  0  0  0  0  0  0  0
  -23.8106  -11.2078    8.8260 C   0  0  0  0  0  0  0  0  0  0  0  0
  -22.1486  -10.2145    7.2008 C   0  0  0  0  0  0  0  0  0  0  0  0
  -23.2775  -10.0536    7.9941 C   0  0  0  0  0  0  0  0  0  0  0  0
  -23.9155   -8.8240    8.0013 C   0  0  0  0  0  0  0  0  0  0  0  0
  -25.0193   -8.6190    8.7602 N   0  0  0  0  0  0  0  0  0  0  0  0
  -23.4316   -7.8163    7.2430 N   0  0  0  0  0  0  0  0  0  0  0  0
  -22.3308   -7.9967    6.4808 C   0  0  0  0  0  0  0  0  0  0  0  0
  -21.6933   -9.1927    6.4624 N   0  0  0  0  0  0  0  0  0  0  0  0
  -21.8120  -12.9404    2.3552 O   0  5  0  0  0  0  0  0  0  0  0  0
  -25.3308   -9.8696    1.6493 O   0  0  0  0  0  0  0  0  0  0  0  0
  -23.0842  -14.8344    7.3744 S   0  0  0  0  0  0  0  0  0  0  0  0
  -22.9454  -13.5052    8.4821 C   0  0  0  0  0  0  0  0  0  0  0  0
  -22.6507  -10.7371    3.3761 O   0  0  0  0  0  0  0  0  0  0  0  0
  -26.2436  -11.8179    0.4990 O   0  5  0  0  0  0  0  0  0  0  0  0
  -23.7278  -12.4647    8.0820 N   0  0  0  0  0  0  0  0  0  0  0  0
  -24.0827  -12.0483    1.6713 O   0  0  0  0  0  0  0  0  0  0  0  0
  -26.1889  -11.8536    2.9945 O   0  0  0  0  0  0  0  0  0  0  0  0
  -24.4372  -12.6614    6.9368 C   0  0  1  0  0  0  0  0  0  0  0  0
  -24.2096  -14.0160    6.3641 C   0  0  1  0  0  0  0  0  0  0  0  0
  -24.7151  -14.7493    5.1502 C   0  0  0  0  0  0  0  0  0  0  0  0
  -23.9016  -14.3115    3.9423 C   0  0  0  0  0  0  0  0  0  0  0  0
  -23.6877  -12.9085    4.0361 O   0  0  0  0  0  0  0  0  0  0  0  0
  1 11  1  0  0  0  0
  3 13  1  6  0  0  0
  3 17  2  0  0  0  0
  3 20  1  0  0  0  0
  3 26  1  0  0  0  0
  4 14  1  1  0  0  0
  4 18  1  0  0  0  0
  4 21  2  0  0  0  0
  4 20  1  0  0  0  0
  5 19  1  0  0  0  0
  5  7  1  0  0  0  0
  6  7  2  0  0  0  0
  6 12  1  0  0  0  0
  7  8  1  0  0  0  0
  8  9  1  0  0  0  0
  8 10  2  0  0  0  0
 10 11  1  0  0  0  0
 11 12  2  0  0  0  0
 15 23  1  0  0  0  0
 15 16  1  0  0  0  0
 16 19  1  0  0  0  0
 19 22  1  0  0  0  0
 22  2  1  1  0  0  0
 22 23  1  0  0  0  0
 23 24  1  6  0  0  0
 24 25  1  0  0  0  0
 25 26  1  0  0  0  0
M  CHG  2  13  -1  18  -1
M  END
>  <CHROM.1>
176.20004839,116.27346787,-39.95577117,74.44192795,-97.21776959,-40.51462577
-174.66042629,-41.71074846,-23.82125599,-11.52752277,5.07041793,-0.10346294
-1.34318791,-0.38858395

>  <Name>
ligand

>  <RI>
0

>  <Rbt.Current_Directory>
/home/itssahil/PROJECTS/Mol_Feturizer/New_Systems/rnas/2GDI

>  <Rbt.Executable>
rbdock ($Id: //depot/dev/client3/rdock/2013.1/src/exe/rbdock.cxx#4 $)

>  <Rbt.Library>
libRbt.so (2013.1, Build901 2013/11/27)

>  <Rbt.Parameter_File>
/export/apps/rDock/src/rDock_2013.1_src/data/scripts/dock_solv.prm

>  <Rbt.Receptor>
prm/blind_docking_60.prm

>  <SCORE>
-12.9957

>  <SCORE.INTER>
-12.7362

>  <SCORE.INTER.CONST>
1

>  <SCORE.INTER.POLAR>
0

>  <SCORE.INTER.ROT>
8

>  <SCORE.INTER.SOLV>
19.299

>  <SCORE.INTER.VDW>
-23.8572

>  <SCORE.INTER.norm>
-0.489856

>  <SCORE.INTRA>
-0.259444

>  <SCORE.INTRA.DIHEDRAL>
-1.39358

>  <SCORE.INTRA.DIHEDRAL.0>
8.13976

>  <SCORE.INTRA.POLAR>
0

>  <SCORE.INTRA.POLAR.0>
0

>  <SCORE.INTRA.REPUL>
0

>  <SCORE.INTRA.REPUL.0>
0

>  <SCORE.INTRA.SOLV>
3.09719

>  <SCORE.INTRA.SOLV.lig_0>
-82.9561

>  <SCORE.INTRA.VDW>
-1.11125

>  <SCORE.INTRA.VDW.0>
-3.29171

>  <SCORE.INTRA.norm>
-0.00997862

>  <SCORE.RESTR>
0

>  <SCORE.RESTR.CAVITY>
0

>  <SCORE.RESTR.norm>
0

>  <SCORE.SYSTEM>
0

>  <SCORE.SYSTEM.CONST>
0

>  <SCORE.SYSTEM.DIHEDRAL>
0

>  <SCORE.SYSTEM.SOLV>
0

>  <SCORE.SYSTEM.norm>
0

>  <SCORE.heavy>
26

>  <SCORE.norm>
-0.499834

>  <RMSD>
8.705

$$$$
ligand
 OpenBabel11021811433D
libRbt.so/2013.1/901 2013/11/27
 26 27  0  0  0  0  0  0  0  0999 V2000
  -25.1567  -12.5876   -1.4156 C   0  0  0  0  0  0  0  0  0  0  0  0
  -22.8508  -15.8635    4.3679 C   0  0  0  0  0  0  0  0  0  0  0  0
  -20.9700  -18.5633    0.1618 P   0  0  1  0  0  0  0  0  0  0  0  0
  -21.9280  -15.8277    0.4014 P   0  0  1  0  0  0  0  0  0  0  0  0
  -25.6773  -15.4497    3.5413 C   0  0  0  0  0  0  0  0  0  0  0  0
  -25.6668  -15.3499    1.0154 C   0  0  0  0  0  0  0  0  0  0  0  0
  -25.5292  -14.6935    2.2319 C   0  0  0  0  0  0  0  0  0  0  0  0
  -25.2676  -13.3331    2.2275 C   0  0  0  0  0  0  0  0  0  0  0  0
  -25.1241  -12.6500    3.3891 N   0  0  0  0  0  0  0  0  0  0  0  0
  -25.1537  -12.6789    1.0513 N   0  0  0  0  0  0  0  0  0  0  0  0
  -25.2900  -13.3397   -0.1192 C   0  0  0  0  0  0  0  0  0  0  0  0
  -25.5451  -14.6709   -0.1338 N   0  0  0  0  0  0  0  0  0  0  0  0
  -21.9653  -18.7825   -0.9472 O   0  5  0  0  0  0  0  0  0  0  0  0
  -23.0616  -16.3777    1.2112 O   0  0  0  0  0  0  0  0  0  0  0  0
  -24.6421  -19.2517    3.0307 S   0  0  0  0  0  0  0  0  0  0  0  0
  -25.6903  -17.8684    2.9987 C   0  0  0  0  0  0  0  0  0  0  0  0
  -19.6512  -19.2732    0.0548 O   0  0  0  0  0  0  0  0  0  0  0  0
  -21.3084  -14.6831    1.1317 O   0  5  0  0  0  0  0  0  0  0  0  0
  -25.0390  -16.7633    3.4563 N   0  0  0  0  0  0  0  0  0  0  0  0
  -20.7746  -16.9664    0.3581 O   0  0  0  0  0  0  0  0  0  0  0  0
  -22.2396  -15.5036   -1.0342 O   0  0  0  0  0  0  0  0  0  0  0  0
  -23.7450  -16.9512    3.8352 C   0  0  1  0  0  0  0  0  0  0  0  0
  -23.3062  -18.3605    3.6456 C   0  0  1  0  0  0  0  0  0  0  0  0
  -22.0239  -19.1107    3.8905 C   0  0  0  0  0  0  0  0  0  0  0  0
  -21.0359  -18.7601    2.7890 C   0  0  0  0  0  0  0  0  0  0  0  0
  -21.6459  -19.0493    1.5370 O   0  0  0  0  0  0  0  0  0  0  0  0
  1 11  1  0  0  0  0
  3 13  1  6  0  0  0
  3 17  2  0  0  0  0
  3 20  1  0  0  0  0
  3 26  1  0  0  0  0
  4 14  1  1  0  0  0
  4 18  1  0  0  0  0
  4 21  2  0  0  0  0
  4 20  1  0  0  0  0
  5 19  1  0  0  0  0
  5  7  1  0  0  0  0
  6  7  2  0  0  0  0
  6 12  1  0  0  0  0
  7  8  1  0  0  0  0
  8  9  1  0  0  0  0
  8 10  2  0  0  0  0
 10 11  1  0  0  0  0
 11 12  2  0  0  0  0
 15 23  1  0  0  0  0
 15 16  1  0  0  0  0
 16 19  1  0  0  0  0
 19 22  1  0  0  0  0
 22  2  1  6  0  0  0
 22 23  1  0  0  0  0
 23 24  1  1  0  0  0
 24 25  1  0  0  0  0
 25 26  1  0  0  0  0
M  CHG  2  13  -1  18  -1
M  END
>  <CHROM.1>
44.36218733,-87.79983020,40.39961839,41.50378603,104.98406513,-55.70287085
169.55539390,-169.35292266,-23.24774136,-16.50473891,1.52601020,-2.50587045
-0.72340074,2.42243700

>  <Name>
ligand

>  <RI>
0

>  <Rbt.Current_Directory>
/home/itssahil/PROJECTS/Mol_Feturizer/New_Systems/rnas/2GDI

>  <Rbt.Executable>
rbdock ($Id: //depot/dev/client3/rdock/2013.1/src/exe/rbdock.cxx#4 $)

>  <Rbt.Library>
libRbt.so (2013.1, Build901 2013/11/27)

>  <Rbt.Parameter_File>
/export/apps/rDock/src/rDock_2013.1_src/data/scripts/dock_solv.prm

>  <Rbt.Receptor>
prm/pocket_docking_7.prm

>  <SCORE>
-11.5957

>  <SCORE.INTER>
-7.48

>  <SCORE.INTER.CONST>
1

>  <SCORE.INTER.POLAR>
0

>  <SCORE.INTER.ROT>
8

>  <SCORE.INTER.SOLV>
9.73887

>  <SCORE.INTER.VDW>
-17.1663

>  <SCORE.INTER.norm>
-0.287692

>  <SCORE.INTRA>
-4.11572

>  <SCORE.INTRA.DIHEDRAL>
-1.91172

>  <SCORE.INTRA.DIHEDRAL.0>
8.13976

>  <SCORE.INTRA.POLAR>
0

>  <SCORE.INTRA.POLAR.0>
0

>  <SCORE.INTRA.REPUL>
0

>  <SCORE.INTRA.REPUL.0>
0

>  <SCORE.INTRA.SOLV>
1.34259

>  <SCORE.INTRA.SOLV.lig_0>
-82.9561

>  <SCORE.INTRA.VDW>
-3.83116

>  <SCORE.INTRA.VDW.0>
-3.29171

>  <SCORE.INTRA.norm>
-0.158297

>  <SCORE.RESTR>
0

>  <SCORE.RESTR.CAVITY>
0

>  <SCORE.RESTR.norm>
0

>  <SCORE.SYSTEM>
0

>  <SCORE.SYSTEM.CONST>
0

>  <SCORE.SYSTEM.DIHEDRAL>
0

>  <SCORE.SYSTEM.SOLV>
0

>  <SCORE.SYSTEM.norm>
0

>  <SCORE.heavy>
26

>  <SCORE.norm>
-0.445989

>  <RMSD>
8.707

$$$$
ligand
 OpenBabel11021811433D
libRbt.so/2013.1/901 2013/11/27
 26 27  0  0  0  0  0  0  0  0999 V2000
  -22.6357  -12.4229    7.9847 C   0  0  0  0  0  0  0  0  0  0  0  0
  -24.1552  -18.7664    2.9214 C   0  0  0  0  0  0  0  0  0  0  0  0
  -19.8929  -16.3222    0.3165 P   0  0  1  0  0  0  0  0  0  0  0  0
  -21.7965  -14.8651    1.9633 P   0  0  1  0  0  0  0  0  0  0  0  0
  -23.8299  -17.5135    5.5986 C   0  0  0  0  0  0  0  0  0  0  0  0
  -23.4552  -15.0176    5.4556 C   0  0  0  0  0  0  0  0  0  0  0  0
  -23.5039  -16.1703    6.2294 C   0  0  0  0  0  0  0  0  0  0  0  0
  -23.2627  -16.0686    7.5897 C   0  0  0  0  0  0  0  0  0  0  0  0
  -23.2980  -17.1654    8.3849 N   0  0  0  0  0  0  0  0  0  0  0  0
  -22.9885  -14.8618    8.1309 N   0  0  0  0  0  0  0  0  0  0  0  0
  -22.9451  -13.7551    7.3572 C   0  0  0  0  0  0  0  0  0  0  0  0
  -23.1775  -13.8361    6.0243 N   0  0  0  0  0  0  0  0  0  0  0  0
  -19.8093  -16.6575   -1.1495 O   0  5  0  0  0  0  0  0  0  0  0  0
  -21.2984  -15.7346    3.0765 O   0  0  0  0  0  0  0  0  0  0  0  0
  -20.2986  -18.6593    4.1829 S   0  0  0  0  0  0  0  0  0  0  0  0
  -21.4078  -17.9627    5.3220 C   0  0  0  0  0  0  0  0  0  0  0  0
  -18.7211  -15.6101    0.9287 O   0  0  0  0  0  0  0  0  0  0  0  0
  -21.1200  -13.5367    2.0329 O   0  5  0  0  0  0  0  0  0  0  0  0
  -22.6832  -18.0258    4.8484 N   0  0  0  0  0  0  0  0  0  0  0  0
  -21.2790  -15.5229    0.5746 O   0  0  0  0  0  0  0  0  0  0  0  0
  -23.2910  -14.7526    1.8328 O   0  0  0  0  0  0  0  0  0  0  0  0
  -22.8336  -18.5991    3.6228 C   0  0  1  0  0  0  0  0  0  0  0  0
  -21.5363  -19.0604    3.0585 C   0  0  1  0  0  0  0  0  0  0  0  0
  -21.1206  -19.7383    1.7800 C   0  0  0  0  0  0  0  0  0  0  0  0
  -20.9956  -18.6866    0.6888 C   0  0  0  0  0  0  0  0  0  0  0  0
  -20.0738  -17.6971    1.1296 O   0  0  0  0  0  0  0  0  0  0  0  0
  1 11  1  0  0  0  0
  3 13  1  6  0  0  0
  3 17  2  0  0  0  0
  3 20  1  0  0  0  0
  3 26  1  0  0  0  0
  4 14  1  1  0  0  0
  4 18  1  0  0  0  0
  4 21  2  0  0  0  0
  4 20  1  0  0  0  0
  5 19  1  0  0  0  0
  5  7  1  0  0  0  0
  6  7  2  0  0  0  0
  6 12  1  0  0  0  0
  7  8  1  0  0  0  0
  8  9  1  0  0  0  0
  8 10  2  0  0  0  0
 10 11  1  0  0  0  0
 11 12  2  0  0  0  0
 15 23  1  0  0  0  0
 15 16  1  0  0  0  0
 16 19  1  0  0  0  0
 19 22  1  0  0  0  0
 22  2  1  1  0  0  0
 22 23  1  0  0  0  0
 23 24  1  6  0  0  0
 24 25  1  0  0  0  0
 25 26  1  0  0  0  0
M  CHG  2  13  -1  18  -1
M  END
>  <CHROM.1>
-175.99991611,42.83264502,75.37306377,-33.44890765,-96.88006922,56.43588483
-170.02614021,-45.00522203,-21.75625060,-16.41489251,3.50099283,-2.93829860
-1.16881325,3.11580775

>  <Name>
ligand

>  <RI>
0

>  <Rbt.Current_Directory>
/home/itssahil/PROJECTS/Mol_Feturizer/New_Systems/rnas/2GDI

>  <Rbt.Executable>
rbdock ($Id: //depot/dev/client3/rdock/2013.1/src/exe/rbdock.cxx#4 $)

>  <Rbt.Library>
libRbt.so (2013.1, Build901 2013/11/27)

>  <Rbt.Parameter_File>
/export/apps/rDock/src/rDock_2013.1_src/data/scripts/dock_solv.prm

>  <Rbt.Receptor>
prm/pocket_docking_8.prm

>  <SCORE>
-14.56

>  <SCORE.INTER>
-10.6737

>  <SCORE.INTER.CONST>
1

>  <SCORE.INTER.POLAR>
0

>  <SCORE.INTER.ROT>
8

>  <SCORE.INTER.SOLV>
11.8511

>  <SCORE.INTER.VDW>
-19.9995

>  <SCORE.INTER.norm>
-0.410526

>  <SCORE.INTRA>
-3.88629

>  <SCORE.INTRA.DIHEDRAL>
-1.71803

>  <SCORE.INTRA.DIHEDRAL.0>
8.13976

>  <SCORE.INTRA.POLAR>
0

>  <SCORE.INTRA.POLAR.0>
0

>  <SCORE.INTRA.REPUL>
0

>  <SCORE.INTRA.REPUL.0>
0

>  <SCORE.INTRA.SOLV>
0.00085128

>  <SCORE.INTRA.SOLV.lig_0>
-82.9561

>  <SCORE.INTRA.VDW>
-3.0277

>  <SCORE.INTRA.VDW.0>
-3.29171

>  <SCORE.INTRA.norm>
-0.149473

>  <SCORE.RESTR>
0

>  <SCORE.RESTR.CAVITY>
0

>  <SCORE.RESTR.norm>
0

>  <SCORE.SYSTEM>
0

>  <SCORE.SYSTEM.CONST>
0

>  <SCORE.SYSTEM.DIHEDRAL>
0

>  <SCORE.SYSTEM.SOLV>
0

>  <SCORE.SYSTEM.norm>
0

>  <SCORE.heavy>
26

>  <SCORE.norm>
-0.559999

>  <RMSD>
8.715

$$$$
ligand
 OpenBabel11021811433D
libRbt.so/2013.1/901 2013/11/27
 26 27  0  0  0  0  0  0  0  0999 V2000
  -23.6081  -15.4660   -2.7370 C   0  0  0  0  0  0  0  0  0  0  0  0
  -26.3398  -16.2629    3.5438 C   0  0  0  0  0  0  0  0  0  0  0  0
  -22.8980  -11.7412    4.2513 P   0  0  1  0  0  0  0  0  0  0  0  0
  -24.0459  -12.4750    1.6817 P   0  0  1  0  0  0  0  0  0  0  0  0
  -24.5672  -18.2397    2.2047 C   0  0  0  0  0  0  0  0  0  0  0  0
  -25.0037  -16.3422    0.5924 C   0  0  0  0  0  0  0  0  0  0  0  0
  -24.3199  -17.5134    0.8933 C   0  0  0  0  0  0  0  0  0  0  0  0
  -23.3982  -17.9986   -0.0199 C   0  0  0  0  0  0  0  0  0  0  0  0
  -22.7079  -19.1379    0.2290 N   0  0  0  0  0  0  0  0  0  0  0  0
  -23.1847  -17.3286   -1.1732 N   0  0  0  0  0  0  0  0  0  0  0  0
  -23.8634  -16.1923   -1.4441 C   0  0  0  0  0  0  0  0  0  0  0  0
  -24.7697  -15.7037   -0.5625 N   0  0  0  0  0  0  0  0  0  0  0  0
  -21.5058  -11.8548    3.6881 O   0  5  0  0  0  0  0  0  0  0  0  0
  -22.6789  -12.5434    1.0735 O   0  0  0  0  0  0  0  0  0  0  0  0
  -22.6287  -16.4527    5.1772 S   0  0  0  0  0  0  0  0  0  0  0  0
  -22.8435  -17.5442    3.8447 C   0  0  0  0  0  0  0  0  0  0  0  0
  -23.1275  -10.7113    5.3197 O   0  0  0  0  0  0  0  0  0  0  0  0
  -24.4345  -13.8277    2.1782 O   0  5  0  0  0  0  0  0  0  0  0  0
  -24.1027  -17.4381    3.3369 N   0  0  0  0  0  0  0  0  0  0  0  0
  -23.9307  -11.5600    3.0153 O   0  0  0  0  0  0  0  0  0  0  0  0
  -25.1128  -11.8355    0.8356 O   0  0  0  0  0  0  0  0  0  0  0  0
  -24.9154  -16.5335    3.9490 C   0  0  1  0  0  0  0  0  0  0  0  0
  -24.2256  -15.8253    5.0612 C   0  0  1  0  0  0  0  0  0  0  0  0
  -24.6279  -14.7621    6.0485 C   0  0  0  0  0  0  0  0  0  0  0  0
  -24.6157  -13.4139    5.3452 C   0  0  0  0  0  0  0  0  0  0  0  0
  -23.2922  -13.1634    4.8886 O   0  0  0  0  0  0  0  0  0  0  0  0
  1 11  1  0  0  0  0
  3 13  1  6  0  0  0
  3 17  2  0  0  0  0
  3 20  1  0  0  0  0
  3 26  1  0  0  0  0
  4 14  1  6  0  0  0
  4 18  1  0  0  0  0
  4 21  2  0  0  0  0
  4 20  1  0  0  0  0
  5 19  1  0  0  0  0
  5  7  1  0  0  0  0
  6  7  2  0  0  0  0
  6 12  1  0  0  0  0
  7  8  1  0  0  0  0
  8  9  1  0  0  0  0
  8 10  2  0  0  0  0
 10 11  1  0  0  0  0
 11 12  2  0  0  0  0
 15 23  1  0  0  0  0
 15 16  1  0  0  0  0
 16 19  1  0  0  0  0
 19 22  1  0  0  0  0
 22  2  1  6  0  0  0
 22 23  1  0  0  0  0
 23 24  1  1  0  0  0
 24 25  1  0  0  0  0
 25 26  1  0  0  0  0
M  CHG  2  13  -1  18  -1
M  END
>  <CHROM.1>
50.92257925,-91.26670604,-66.66220445,-52.92394187,103.71738449,-61.10310209
-172.84159343,-171.86720876,-23.77257017,-14.74019829,2.55558009,-2.98565790
1.49407388,2.11169940

>  <Name>
ligand

>  <RI>
0

>  <Rbt.Current_Directory>
/home/itssahil/PROJECTS/Mol_Feturizer/New_Systems/rnas/2GDI

>  <Rbt.Executable>
rbdock ($Id: //depot/dev/client3/rdock/2013.1/src/exe/rbdock.cxx#4 $)

>  <Rbt.Library>
libRbt.so (2013.1, Build901 2013/11/27)

>  <Rbt.Parameter_File>
/export/apps/rDock/src/rDock_2013.1_src/data/scripts/dock_solv.prm

>  <Rbt.Receptor>
prm/pocket_docking_6.prm

>  <SCORE>
-6.93313

>  <SCORE.INTER>
-4.31231

>  <SCORE.INTER.CONST>
1

>  <SCORE.INTER.POLAR>
0

>  <SCORE.INTER.ROT>
8

>  <SCORE.INTER.SOLV>
13.4787

>  <SCORE.INTER.VDW>
-16.3011

>  <SCORE.INTER.norm>
-0.165858

>  <SCORE.INTRA>
-2.62082

>  <SCORE.INTRA.DIHEDRAL>
-3.04165

>  <SCORE.INTRA.DIHEDRAL.0>
8.13976

>  <SCORE.INTRA.POLAR>
0

>  <SCORE.INTRA.POLAR.0>
0

>  <SCORE.INTRA.REPUL>
0

>  <SCORE.INTRA.REPUL.0>
0

>  <SCORE.INTRA.SOLV>
2.65309

>  <SCORE.INTRA.SOLV.lig_0>
-82.9561

>  <SCORE.INTRA.VDW>
-2.42654

>  <SCORE.INTRA.VDW.0>
-3.29171

>  <SCORE.INTRA.norm>
-0.100801

>  <SCORE.RESTR>
0

>  <SCORE.RESTR.CAVITY>
0

>  <SCORE.RESTR.norm>
0

>  <SCORE.SYSTEM>
0

>  <SCORE.SYSTEM.CONST>
0

>  <SCORE.SYSTEM.DIHEDRAL>
0

>  <SCORE.SYSTEM.SOLV>
0

>  <SCORE.SYSTEM.norm>
0

>  <SCORE.heavy>
26

>  <SCORE.norm>
-0.266659

>  <RMSD>
8.716

$$$$
ligand
 OpenBabel11021811433D
libRbt.so/2013.1/901 2013/11/27
 26 27  0  0  0  0  0  0  0  0999 V2000
  -23.1192  -15.9428   -3.0341 C   0  0  0  0  0  0  0  0  0  0  0  0
  -21.9797  -17.5081    3.7499 C   0  0  0  0  0  0  0  0  0  0  0  0
  -22.5733  -12.5940    3.5977 P   0  0  1  0  0  0  0  0  0  0  0  0
  -25.1039  -11.3702    2.8514 P   0  0  1  0  0  0  0  0  0  0  0  0
  -23.9170  -18.7908    1.8939 C   0  0  0  0  0  0  0  0  0  0  0  0
  -24.6303  -17.0986    0.1566 C   0  0  0  0  0  0  0  0  0  0  0  0
  -23.7097  -18.0463    0.5858 C   0  0  0  0  0  0  0  0  0  0  0  0
  -22.5921  -18.2893   -0.1957 C   0  0  0  0  0  0  0  0  0  0  0  0
  -21.6672  -19.2053    0.1812 N   0  0  0  0  0  0  0  0  0  0  0  0
  -22.4216  -17.6054   -1.3480 N   0  0  0  0  0  0  0  0  0  0  0  0
  -23.3319  -16.6896   -1.7453 C   0  0  0  0  0  0  0  0  0  0  0  0
  -24.4319  -16.4398   -0.9936 N   0  0  0  0  0  0  0  0  0  0  0  0
  -21.4110  -12.7362    2.6504 O   0  5  0  0  0  0  0  0  0  0  0  0
  -24.4460  -10.0256    2.7993 O   0  0  0  0  0  0  0  0  0  0  0  0
  -25.8316  -16.4501    4.4713 S   0  0  0  0  0  0  0  0  0  0  0  0
  -25.6657  -17.5556    3.1434 C   0  0  0  0  0  0  0  0  0  0  0  0
  -22.4913  -11.5078    4.6314 O   0  0  0  0  0  0  0  0  0  0  0  0
  -25.9458  -11.5562    1.6333 O   0  5  0  0  0  0  0  0  0  0  0  0
  -24.3566  -17.8756    2.9472 N   0  0  0  0  0  0  0  0  0  0  0  0
  -23.9310  -12.4818    2.7197 O   0  0  0  0  0  0  0  0  0  0  0  0
  -25.8381  -11.6962    4.1234 O   0  0  0  0  0  0  0  0  0  0  0  0
  -23.4685  -17.2891    3.7961 C   0  0  1  0  0  0  0  0  0  0  0  0
  -24.1427  -16.4138    4.7930 C   0  0  1  0  0  0  0  0  0  0  0  0
  -23.6703  -15.5471    5.9300 C   0  0  0  0  0  0  0  0  0  0  0  0
  -23.6617  -14.0985    5.4678 C   0  0  0  0  0  0  0  0  0  0  0  0
  -22.7340  -13.9800    4.3961 O   0  0  0  0  0  0  0  0  0  0  0  0
  1 11  1  0  0  0  0
  3 13  1  6  0  0  0
  3 17  2  0  0  0  0
  3 20  1  0  0  0  0
  3 26  1  0  0  0  0
  4 14  1  1  0  0  0
  4 18  1  0  0  0  0
  4 21  2  0  0  0  0
  4 20  1  0  0  0  0
  5 19  1  0  0  0  0
  5  7  1  0  0  0  0
  6  7  2  0  0  0  0
  6 12  1  0  0  0  0
  7  8  1  0  0  0  0
  8  9  1  0  0  0  0
  8 10  2  0  0  0  0
 10 11  1  0  0  0  0
 11 12  2  0  0  0  0
 15 23  1  0  0  0  0
 15 16  1  0  0  0  0
 16 19  1  0  0  0  0
 19 22  1  0  0  0  0
 22  2  1  1  0  0  0
 22 23  1  0  0  0  0
 23 24  1  6  0  0  0
 24 25  1  0  0  0  0
 25 26  1  0  0  0  0
M  CHG  2  13  -1  18  -1
M  END
>  <CHROM.1>
-129.96534399,86.27997011,-43.44143340,51.97305545,-77.68644024,-62.43466453
174.94878695,173.15383549,-23.82324287,-14.94255972,2.49869011,-0.57789136
1.43080797,-0.46137144

>  <Name>
ligand

>  <RI>
0

>  <Rbt.Current_Directory>
/home/itssahil/PROJECTS/Mol_Feturizer/New_Systems/rnas/2GDI

>  <Rbt.Executable>
rbdock ($Id: //depot/dev/client3/rdock/2013.1/src/exe/rbdock.cxx#4 $)

>  <Rbt.Library>
libRbt.so (2013.1, Build901 2013/11/27)

>  <Rbt.Parameter_File>
/export/apps/rDock/src/rDock_2013.1_src/data/scripts/dock_solv.prm

>  <Rbt.Receptor>
prm/pocket_docking_7.prm

>  <SCORE>
-8.23579

>  <SCORE.INTER>
-7.77565

>  <SCORE.INTER.CONST>
1

>  <SCORE.INTER.POLAR>
0

>  <SCORE.INTER.ROT>
8

>  <SCORE.INTER.SOLV>
16.3394

>  <SCORE.INTER.VDW>
-19.5636

>  <SCORE.INTER.norm>
-0.299063

>  <SCORE.INTRA>
-0.460145

>  <SCORE.INTRA.DIHEDRAL>
-0.266102

>  <SCORE.INTRA.DIHEDRAL.0>
8.13976

>  <SCORE.INTRA.POLAR>
0

>  <SCORE.INTRA.POLAR.0>
0

>  <SCORE.INTRA.REPUL>
0

>  <SCORE.INTRA.REPUL.0>
0

>  <SCORE.INTRA.SOLV>
1.16842

>  <SCORE.INTRA.SOLV.lig_0>
-82.9561

>  <SCORE.INTRA.VDW>
-0.911304

>  <SCORE.INTRA.VDW.0>
-3.29171

>  <SCORE.INTRA.norm>
-0.0176979

>  <SCORE.RESTR>
0

>  <SCORE.RESTR.CAVITY>
0

>  <SCORE.RESTR.norm>
0

>  <SCORE.SYSTEM>
0

>  <SCORE.SYSTEM.CONST>
0

>  <SCORE.SYSTEM.DIHEDRAL>
0

>  <SCORE.SYSTEM.SOLV>
0

>  <SCORE.SYSTEM.norm>
0

>  <SCORE.heavy>
26

>  <SCORE.norm>
-0.316761

>  <RMSD>
8.726

$$$$
ligand
 OpenBabel11021811433D
libRbt.so/2013.1/901 2013/11/27
 26 27  0  0  0  0  0  0  0  0999 V2000
  -24.4486  -13.4357   -1.3385 C   0  0  0  0  0  0  0  0  0  0  0  0
  -25.8521  -16.4417    4.2213 C   0  0  0  0  0  0  0  0  0  0  0  0
  -24.0007  -12.5247    5.3856 P   0  0  1  0  0  0  0  0  0  0  0  0
  -22.3815  -13.2771    3.0898 P   0  0  1  0  0  0  0  0  0  0  0  0
  -24.5597  -18.0531    2.0821 C   0  0  0  0  0  0  0  0  0  0  0  0
  -25.5699  -15.9138    1.1917 C   0  0  0  0  0  0  0  0  0  0  0  0
  -24.5335  -16.8385    1.1697 C   0  0  0  0  0  0  0  0  0  0  0  0
  -23.4693  -16.6242    0.3093 C   0  0  0  0  0  0  0  0  0  0  0  0
  -22.4360  -17.4990    0.2517 N   0  0  0  0  0  0  0  0  0  0  0  0
  -23.4609  -15.5300   -0.4827 N   0  0  0  0  0  0  0  0  0  0  0  0
  -24.4815  -14.6457   -0.4446 C   0  0  0  0  0  0  0  0  0  0  0  0
  -25.5314  -14.8400    0.3905 N   0  0  0  0  0  0  0  0  0  0  0  0
  -23.7346  -11.7566    6.6536 O   0  5  0  0  0  0  0  0  0  0  0  0
  -22.4548  -14.7446    3.3810 O   0  0  0  0  0  0  0  0  0  0  0  0
  -22.1176  -17.6987    5.1962 S   0  0  0  0  0  0  0  0  0  0  0  0
  -22.6209  -18.2173    3.6180 C   0  0  0  0  0  0  0  0  0  0  0  0
  -25.2090  -12.1347    4.5840 O   0  0  0  0  0  0  0  0  0  0  0  0
  -23.5218  -12.8905    2.2081 O   0  5  0  0  0  0  0  0  0  0  0  0
  -23.8772  -17.7682    3.3443 N   0  0  0  0  0  0  0  0  0  0  0  0
  -22.6529  -12.4985    4.4858 O   0  0  0  0  0  0  0  0  0  0  0  0
  -21.0573  -12.7700    2.5871 O   0  0  0  0  0  0  0  0  0  0  0  0
  -24.4701  -17.0304    4.3228 C   0  0  1  0  0  0  0  0  0  0  0  0
  -23.5844  -16.8561    5.5057 C   0  0  1  0  0  0  0  0  0  0  0  0
  -23.7182  -16.1584    6.8333 C   0  0  0  0  0  0  0  0  0  0  0  0
  -23.2818  -14.7110    6.6696 C   0  0  0  0  0  0  0  0  0  0  0  0
  -24.1847  -14.0737    5.7742 O   0  0  0  0  0  0  0  0  0  0  0  0
  1 11  1  0  0  0  0
  3 13  1  1  0  0  0
  3 17  2  0  0  0  0
  3 20  1  0  0  0  0
  3 26  1  0  0  0  0
  4 14  1  1  0  0  0
  4 18  1  0  0  0  0
  4 21  2  0  0  0  0
  4 20  1  0  0  0  0
  5 19  1  0  0  0  0
  5  7  1  0  0  0  0
  6  7  2  0  0  0  0
  6 12  1  0  0  0  0
  7  8  1  0  0  0  0
  8  9  1  0  0  0  0
  8 10  2  0  0  0  0
 10 11  1  0  0  0  0
 11 12  2  0  0  0  0
 15 23  1  0  0  0  0
 15 16  1  0  0  0  0
 16 19  1  0  0  0  0
 19 22  1  0  0  0  0
 22  2  1  6  0  0  0
 22 23  1  0  0  0  0
 23 24  1  1  0  0  0
 24 25  1  0  0  0  0
 25 26  1  0  0  0  0
M  CHG  2  13  -1  18  -1
M  END
>  <CHROM.1>
174.64653186,-103.00820774,-91.71629921,-62.97783616,93.70481018,64.24140871
-179.97729615,-45.69383005,-23.60320734,-14.99080751,3.35473120,2.54424492
1.47114834,-3.00036273

>  <Name>
ligand

>  <RI>
0

>  <Rbt.Current_Directory>
/home/itssahil/PROJECTS/Mol_Feturizer/New_Systems/rnas/2GDI

>  <Rbt.Executable>
rbdock ($Id: //depot/dev/client3/rdock/2013.1/src/exe/rbdock.cxx#4 $)

>  <Rbt.Library>
libRbt.so (2013.1, Build901 2013/11/27)

>  <Rbt.Parameter_File>
/export/apps/rDock/src/rDock_2013.1_src/data/scripts/dock_solv.prm

>  <Rbt.Receptor>
prm/pocket_docking_6.prm

>  <SCORE>
-10.3439

>  <SCORE.INTER>
-6.36762

>  <SCORE.INTER.CONST>
1

>  <SCORE.INTER.POLAR>
0

>  <SCORE.INTER.ROT>
8

>  <SCORE.INTER.SOLV>
8.45034

>  <SCORE.INTER.VDW>
-15.9952

>  <SCORE.INTER.norm>
-0.244909

>  <SCORE.INTRA>
-3.97633

>  <SCORE.INTRA.DIHEDRAL>
-2.95102

>  <SCORE.INTRA.DIHEDRAL.0>
8.13976

>  <SCORE.INTRA.POLAR>
0

>  <SCORE.INTRA.POLAR.0>
0

>  <SCORE.INTRA.REPUL>
0

>  <SCORE.INTRA.REPUL.0>
0

>  <SCORE.INTRA.SOLV>
1.85975

>  <SCORE.INTRA.SOLV.lig_0>
-82.9561

>  <SCORE.INTRA.VDW>
-3.43069

>  <SCORE.INTRA.VDW.0>
-3.29171

>  <SCORE.INTRA.norm>
-0.152936

>  <SCORE.RESTR>
0

>  <SCORE.RESTR.CAVITY>
0

>  <SCORE.RESTR.norm>
0

>  <SCORE.SYSTEM>
0

>  <SCORE.SYSTEM.CONST>
0

>  <SCORE.SYSTEM.DIHEDRAL>
0

>  <SCORE.SYSTEM.SOLV>
0

>  <SCORE.SYSTEM.norm>
0

>  <SCORE.heavy>
26

>  <SCORE.norm>
-0.397844

>  <RMSD>
8.733

$$$$
ligand
 OpenBabel11021811433D
libRbt.so/2013.1/901 2013/11/27
 26 27  0  0  0  0  0  0  0  0999 V2000
  -22.9494  -11.6965    5.2528 C   0  0  0  0  0  0  0  0  0  0  0  0
  -20.5519  -18.2687    4.5088 C   0  0  0  0  0  0  0  0  0  0  0  0
  -19.3576  -18.3199   -1.3985 P   0  0  1  0  0  0  0  0  0  0  0  0
  -20.9436  -17.6673   -3.7475 P   0  0  1  0  0  0  0  0  0  0  0  0
  -23.0022  -17.4009    5.9531 C   0  0  0  0  0  0  0  0  0  0  0  0
  -22.6773  -15.3318    4.5378 C   0  0  0  0  0  0  0  0  0  0  0  0
  -22.9787  -15.8926    5.7725 C   0  0  0  0  0  0  0  0  0  0  0  0
  -23.2706  -15.0496    6.8322 C   0  0  0  0  0  0  0  0  0  0  0  0
  -23.5693  -15.5502    8.0556 N   0  0  0  0  0  0  0  0  0  0  0  0
  -23.2571  -13.7120    6.6447 N   0  0  0  0  0  0  0  0  0  0  0  0
  -22.9593  -13.1902    5.4346 C   0  0  0  0  0  0  0  0  0  0  0  0
  -22.6701  -14.0000    4.3868 N   0  0  0  0  0  0  0  0  0  0  0  0
  -18.6561  -19.2587   -2.3446 O   0  5  0  0  0  0  0  0  0  0  0  0
  -19.7417  -17.0397   -4.3840 O   0  0  0  0  0  0  0  0  0  0  0  0
  -23.9804  -19.1548    2.5247 S   0  0  0  0  0  0  0  0  0  0  0  0
  -24.2571  -18.3497    4.0374 C   0  0  0  0  0  0  0  0  0  0  0  0
  -18.5357  -17.2300   -0.7729 O   0  0  0  0  0  0  0  0  0  0  0  0
  -21.0387  -19.0951   -4.1715 O   0  5  0  0  0  0  0  0  0  0  0  0
  -23.0758  -18.0771    4.6579 N   0  0  0  0  0  0  0  0  0  0  0  0
  -20.6640  -17.7255   -2.1515 O   0  0  0  0  0  0  0  0  0  0  0  0
  -22.2406  -16.9227   -3.9106 O   0  0  0  0  0  0  0  0  0  0  0  0
  -21.9531  -18.4739    3.9979 C   0  0  1  0  0  0  0  0  0  0  0  0
  -22.2697  -19.1228    2.6967 C   0  0  1  0  0  0  0  0  0  0  0  0
  -21.4487  -19.7338    1.5923 C   0  0  0  0  0  0  0  0  0  0  0  0
  -20.8674  -18.6158    0.7412 C   0  0  0  0  0  0  0  0  0  0  0  0
  -19.9620  -19.1931   -0.1916 O   0  0  0  0  0  0  0  0  0  0  0  0
  1 11  1  0  0  0  0
  3 13  1  6  0  0  0
  3 17  2  0  0  0  0
  3 20  1  0  0  0  0
  3 26  1  0  0  0  0
  4 14  1  6  0  0  0
  4 18  1  0  0  0  0
  4 21  2  0  0  0  0
  4 20  1  0  0  0  0
  5 19  1  0  0  0  0
  5  7  1  0  0  0  0
  6  7  2  0  0  0  0
  6 12  1  0  0  0  0
  7  8  1  0  0  0  0
  8  9  1  0  0  0  0
  8 10  2  0  0  0  0
 10 11  1  0  0  0  0
 11 12  2  0  0  0  0
 15 23  1  0  0  0  0
 15 16  1  0  0  0  0
 16 19  1  0  0  0  0
 19 22  1  0  0  0  0
 22  2  1  6  0  0  0
 22 23  1  0  0  0  0
 23 24  1  1  0  0  0
 24 25  1  0  0  0  0
 25 26  1  0  0  0  0
M  CHG  2  13  -1  18  -1
M  END
>  <CHROM.1>
-20.40750912,-87.58186486,-16.81433486,-51.12869369,103.06848603,172.77667299
169.85640687,-169.47107568,-21.66955554,-17.28602350,1.50717019,-2.80838409
-1.24574853,-3.09539456

>  <Name>
ligand

>  <RI>
0

>  <Rbt.Current_Directory>
/home/itssahil/PROJECTS/Mol_Feturizer/New_Systems/rnas/2GDI

>  <Rbt.Executable>
rbdock ($Id: //depot/dev/client3/rdock/2013.1/src/exe/rbdock.cxx#4 $)

>  <Rbt.Library>
libRbt.so (2013.1, Build901 2013/11/27)

>  <Rbt.Parameter_File>
/export/apps/rDock/src/rDock_2013.1_src/data/scripts/dock_solv.prm

>  <Rbt.Receptor>
prm/pocket_docking_8.prm

>  <SCORE>
-10.7933

>  <SCORE.INTER>
-10.3854

>  <SCORE.INTER.CONST>
1

>  <SCORE.INTER.POLAR>
0

>  <SCORE.INTER.ROT>
8

>  <SCORE.INTER.SOLV>
12.0936

>  <SCORE.INTER.VDW>
-19.8881

>  <SCORE.INTER.norm>
-0.399437

>  <SCORE.INTRA>
-0.407924

>  <SCORE.INTRA.DIHEDRAL>
-0.522952

>  <SCORE.INTRA.DIHEDRAL.0>
8.13976

>  <SCORE.INTRA.POLAR>
0

>  <SCORE.INTRA.POLAR.0>
0

>  <SCORE.INTRA.REPUL>
0

>  <SCORE.INTRA.REPUL.0>
0

>  <SCORE.INTRA.SOLV>
-0.150186

>  <SCORE.INTRA.SOLV.lig_0>
-82.9561

>  <SCORE.INTRA.VDW>
-0.0713546

>  <SCORE.INTRA.VDW.0>
-3.29171

>  <SCORE.INTRA.norm>
-0.0156894

>  <SCORE.RESTR>
0

>  <SCORE.RESTR.CAVITY>
0

>  <SCORE.RESTR.norm>
0

>  <SCORE.SYSTEM>
0

>  <SCORE.SYSTEM.CONST>
0

>  <SCORE.SYSTEM.DIHEDRAL>
0

>  <SCORE.SYSTEM.SOLV>
0

>  <SCORE.SYSTEM.norm>
0

>  <SCORE.heavy>
26

>  <SCORE.norm>
-0.415126

>  <RMSD>
8.756

$$$$
ligand
 OpenBabel11021811433D
libRbt.so/2013.1/901 2013/11/27
 26 27  0  0  0  0  0  0  0  0999 V2000
  -24.4550  -19.0506    2.4122 C   0  0  0  0  0  0  0  0  0  0  0  0
  -23.2921  -13.3617   -1.0208 C   0  0  0  0  0  0  0  0  0  0  0  0
  -18.0178  -15.1328    0.1996 P   0  0  1  0  0  0  0  0  0  0  0  0
  -15.6719  -13.5569    0.8867 P   0  0  1  0  0  0  0  0  0  0  0  0
  -24.6364  -13.3593    1.6317 C   0  0  0  0  0  0  0  0  0  0  0  0
  -24.9279  -15.7322    0.8106 C   0  0  0  0  0  0  0  0  0  0  0  0
  -24.5978  -14.8634    1.8430 C   0  0  0  0  0  0  0  0  0  0  0  0
  -24.2196  -15.3956    3.0647 C   0  0  0  0  0  0  0  0  0  0  0  0
  -23.8898  -14.5878    4.1016 N   0  0  0  0  0  0  0  0  0  0  0  0
  -24.1792  -16.7362    3.2253 N   0  0  0  0  0  0  0  0  0  0  0  0
  -24.5065  -17.5609    2.2065 C   0  0  0  0  0  0  0  0  0  0  0  0
  -24.8799  -17.0576    1.0046 N   0  0  0  0  0  0  0  0  0  0  0  0
  -17.6708  -15.5599   -1.2024 O   0  5  0  0  0  0  0  0  0  0  0  0
  -16.0189  -12.6475    2.0251 O   0  0  0  0  0  0  0  0  0  0  0  0
  -21.0106  -11.7619    1.9308 S   0  0  0  0  0  0  0  0  0  0  0  0
  -22.5650  -12.2990    2.4862 C   0  0  0  0  0  0  0  0  0  0  0  0
  -18.9424  -16.0206    0.9819 O   0  0  0  0  0  0  0  0  0  0  0  0
  -14.2909  -14.0881    1.0814 O   0  5  0  0  0  0  0  0  0  0  0  0
  -23.2856  -12.8254    1.4574 N   0  0  0  0  0  0  0  0  0  0  0  0
  -16.6365  -14.8552    1.0006 O   0  0  0  0  0  0  0  0  0  0  0  0
  -15.8936  -13.0001   -0.4932 O   0  0  0  0  0  0  0  0  0  0  0  0
  -22.6714  -12.8271    0.2423 C   0  0  1  0  0  0  0  0  0  0  0  0
  -21.3005  -12.2521    0.3083 C   0  0  1  0  0  0  0  0  0  0  0  0
  -20.2058  -12.0105   -0.6968 C   0  0  0  0  0  0  0  0  0  0  0  0
  -19.5235  -13.3346   -1.0024 C   0  0  0  0  0  0  0  0  0  0  0  0
  -18.7224  -13.6902    0.1178 O   0  0  0  0  0  0  0  0  0  0  0  0
  1 11  1  0  0  0  0
  3 13  1  6  0  0  0
  3 17  2  0  0  0  0
  3 20  1  0  0  0  0
  3 26  1  0  0  0  0
  4 14  1  1  0  0  0
  4 18  1  0  0  0  0
  4 21  2  0  0  0  0
  4 20  1  0  0  0  0
  5 19  1  0  0  0  0
  5  7  1  0  0  0  0
  6  7  2  0  0  0  0
  6 12  1  0  0  0  0
  7  8  1  0  0  0  0
  8  9  1  0  0  0  0
  8 10  2  0  0  0  0
 10 11  1  0  0  0  0
 11 12  2  0  0  0  0
 15 23  1  0  0  0  0
 15 16  1  0  0  0  0
 16 19  1  0  0  0  0
 19 22  1  0  0  0  0
 22  2  1  1  0  0  0
 22 23  1  0  0  0  0
 23 24  1  6  0  0  0
 24 25  1  0  0  0  0
 25 26  1  0  0  0  0
M  CHG  2  13  -1  18  -1
M  END
>  <CHROM.1>
77.28678720,-95.31797707,-102.81636461,97.77351376,104.77158064,-73.44363987
171.88011234,32.44446749,-20.45569563,-14.25734224,1.05309845,-2.91154956
0.15650613,-0.12540912

>  <Name>
ligand

>  <RI>
0

>  <Rbt.Current_Directory>
/home/itssahil/PROJECTS/Mol_Feturizer/New_Systems/rnas/2GDI

>  <Rbt.Executable>
rbdock ($Id: //depot/dev/client3/rdock/2013.1/src/exe/rbdock.cxx#4 $)

>  <Rbt.Library>
libRbt.so (2013.1, Build901 2013/11/27)

>  <Rbt.Parameter_File>
/export/apps/rDock/src/rDock_2013.1_src/data/scripts/dock_solv.prm

>  <Rbt.Receptor>
prm/pocket_docking_3.prm

>  <SCORE>
-5.689

>  <SCORE.INTER>
-6.23892

>  <SCORE.INTER.CONST>
1

>  <SCORE.INTER.POLAR>
0

>  <SCORE.INTER.ROT>
8

>  <SCORE.INTER.SOLV>
11.1224

>  <SCORE.INTER.VDW>
-16.8001

>  <SCORE.INTER.norm>
-0.239959

>  <SCORE.INTRA>
0.548272

>  <SCORE.INTRA.DIHEDRAL>
1.08804

>  <SCORE.INTRA.DIHEDRAL.0>
8.13976

>  <SCORE.INTRA.POLAR>
0

>  <SCORE.INTRA.POLAR.0>
0

>  <SCORE.INTRA.REPUL>
0

>  <SCORE.INTRA.REPUL.0>
0

>  <SCORE.INTRA.SOLV>
2.21268

>  <SCORE.INTRA.SOLV.lig_0>
-82.9561

>  <SCORE.INTRA.VDW>
-1.10209

>  <SCORE.INTRA.VDW.0>
-3.29171

>  <SCORE.INTRA.norm>
0.0210874

>  <SCORE.RESTR>
0.00164583

>  <SCORE.RESTR.CAVITY>
0.00164583

>  <SCORE.RESTR.norm>
6.33012e-05

>  <SCORE.SYSTEM>
0

>  <SCORE.SYSTEM.CONST>
0

>  <SCORE.SYSTEM.DIHEDRAL>
0

>  <SCORE.SYSTEM.SOLV>
0

>  <SCORE.SYSTEM.norm>
0

>  <SCORE.heavy>
26

>  <SCORE.norm>
-0.218808

>  <RMSD>
8.757

$$$$
ligand
 OpenBabel11021811433D
libRbt.so/2013.1/901 2013/11/27
 26 27  0  0  0  0  0  0  0  0999 V2000
  -24.2413  -18.7912   -0.9647 C   0  0  0  0  0  0  0  0  0  0  0  0
  -21.1574  -11.6055    2.6467 C   0  0  0  0  0  0  0  0  0  0  0  0
  -16.7657  -12.1322    0.3430 P   0  0  1  0  0  0  0  0  0  0  0  0
  -14.1226  -13.3268    0.1296 P   0  0  1  0  0  0  0  0  0  0  0  0
  -22.7996  -13.8431    1.5793 C   0  0  0  0  0  0  0  0  0  0  0  0
  -24.2451  -15.2088    0.0185 C   0  0  0  0  0  0  0  0  0  0  0  0
  -23.1858  -15.1541    0.9156 C   0  0  0  0  0  0  0  0  0  0  0  0
  -22.4800  -16.3158    1.1826 C   0  0  0  0  0  0  0  0  0  0  0  0
  -21.4398  -16.3120    2.0512 N   0  0  0  0  0  0  0  0  0  0  0  0
  -22.8325  -17.4670    0.5702 N   0  0  0  0  0  0  0  0  0  0  0  0
  -23.8678  -17.4953   -0.2973 C   0  0  0  0  0  0  0  0  0  0  0  0
  -24.5702  -16.3684   -0.5696 N   0  0  0  0  0  0  0  0  0  0  0  0
  -17.4215  -12.3213   -0.9996 O   0  5  0  0  0  0  0  0  0  0  0  0
  -14.3757  -14.1035    1.3851 O   0  0  0  0  0  0  0  0  0  0  0  0
  -20.6413  -12.2160   -1.3330 S   0  0  0  0  0  0  0  0  0  0  0  0
  -21.7744  -13.3181   -0.6157 C   0  0  0  0  0  0  0  0  0  0  0  0
  -17.1427  -13.0909    1.4355 O   0  0  0  0  0  0  0  0  0  0  0  0
  -14.5074  -14.1553   -1.0505 O   0  5  0  0  0  0  0  0  0  0  0  0
  -21.9082  -13.0680    0.7163 N   0  0  0  0  0  0  0  0  0  0  0  0
  -15.1612  -12.0818    0.1199 O   0  0  0  0  0  0  0  0  0  0  0  0
  -12.7525  -12.7201   -0.0054 O   0  0  0  0  0  0  0  0  0  0  0  0
  -21.1569  -12.0439    1.2064 C   0  0  1  0  0  0  0  0  0  0  0  0
  -20.3421  -11.3912    0.1460 C   0  0  1  0  0  0  0  0  0  0  0  0
  -19.3608  -10.2496    0.1188 C   0  0  0  0  0  0  0  0  0  0  0  0
  -18.4491  -10.3613    1.3307 C   0  0  0  0  0  0  0  0  0  0  0  0
  -17.1362  -10.6602    0.8723 O   0  0  0  0  0  0  0  0  0  0  0  0
  1 11  1  0  0  0  0
  3 13  1  6  0  0  0
  3 17  2  0  0  0  0
  3 20  1  0  0  0  0
  3 26  1  0  0  0  0
  4 14  1  1  0  0  0
  4 18  1  0  0  0  0
  4 21  2  0  0  0  0
  4 20  1  0  0  0  0
  5 19  1  0  0  0  0
  5  7  1  0  0  0  0
  6  7  2  0  0  0  0
  6 12  1  0  0  0  0
  7  8  1  0  0  0  0
  8  9  1  0  0  0  0
  8 10  2  0  0  0  0
 10 11  1  0  0  0  0
 11 12  2  0  0  0  0
 15 23  1  0  0  0  0
 15 16  1  0  0  0  0
 16 19  1  0  0  0  0
 19 22  1  0  0  0  0
 22  2  1  6  0  0  0
 22 23  1  0  0  0  0
 23 24  1  1  0  0  0
 24 25  1  0  0  0  0
 25 26  1  0  0  0  0
M  CHG  2  13  -1  18  -1
M  END
>  <CHROM.1>
-89.81483725,17.24025791,-84.57226250,-50.81990436,-136.20062141,112.75183545
-74.62848140,72.50707467,-19.23351797,-13.49467992,0.32818880,-2.75944710
0.04221756,0.10375822

>  <Name>
ligand

>  <RI>
0

>  <Rbt.Current_Directory>
/home/itssahil/PROJECTS/Mol_Feturizer/New_Systems/rnas/2GDI

>  <Rbt.Executable>
rbdock ($Id: //depot/dev/client3/rdock/2013.1/src/exe/rbdock.cxx#4 $)

>  <Rbt.Library>
libRbt.so (2013.1, Build901 2013/11/27)

>  <Rbt.Parameter_File>
/export/apps/rDock/src/rDock_2013.1_src/data/scripts/dock_solv.prm

>  <Rbt.Receptor>
prm/pocket_docking_3.prm

>  <SCORE>
-3.89372

>  <SCORE.INTER>
-7.17988

>  <SCORE.INTER.CONST>
1

>  <SCORE.INTER.POLAR>
0

>  <SCORE.INTER.ROT>
8

>  <SCORE.INTER.SOLV>
21.044

>  <SCORE.INTER.VDW>
-20.7346

>  <SCORE.INTER.norm>
-0.276149

>  <SCORE.INTRA>
3.28268

>  <SCORE.INTRA.DIHEDRAL>
3.95406

>  <SCORE.INTRA.DIHEDRAL.0>
8.13976

>  <SCORE.INTRA.POLAR>
0

>  <SCORE.INTRA.POLAR.0>
0

>  <SCORE.INTRA.REPUL>
0

>  <SCORE.INTRA.REPUL.0>
0

>  <SCORE.INTRA.SOLV>
2.74448

>  <SCORE.INTRA.SOLV.lig_0>
-82.9561

>  <SCORE.INTRA.VDW>
-0.0665896

>  <SCORE.INTRA.VDW.0>
-3.29171

>  <SCORE.INTRA.norm>
0.126257

>  <SCORE.RESTR>
0.00347453

>  <SCORE.RESTR.CAVITY>
0.00347453

>  <SCORE.RESTR.norm>
0.000133636

>  <SCORE.SYSTEM>
0

>  <SCORE.SYSTEM.CONST>
0

>  <SCORE.SYSTEM.DIHEDRAL>
0

>  <SCORE.SYSTEM.SOLV>
0

>  <SCORE.SYSTEM.norm>
0

>  <SCORE.heavy>
26

>  <SCORE.norm>
-0.149759

>  <RMSD>
8.773

$$$$
ligand
 OpenBabel11021811433D
libRbt.so/2013.1/901 2013/11/27
 26 27  0  0  0  0  0  0  0  0999 V2000
  -24.3577  -18.5672    2.5844 C   0  0  0  0  0  0  0  0  0  0  0  0
  -21.3484  -11.9992    2.6913 C   0  0  0  0  0  0  0  0  0  0  0  0
  -17.5429  -15.0318    0.3494 P   0  0  1  0  0  0  0  0  0  0  0  0
  -14.6501  -15.3088    0.2343 P   0  0  1  0  0  0  0  0  0  0  0  0
  -23.9699  -12.9136    1.6259 C   0  0  0  0  0  0  0  0  0  0  0  0
  -24.1625  -15.3026    0.8225 C   0  0  0  0  0  0  0  0  0  0  0  0
  -24.0827  -14.4070    1.8814 C   0  0  0  0  0  0  0  0  0  0  0  0
  -24.0944  -14.9035    3.1746 C   0  0  0  0  0  0  0  0  0  0  0  0
  -24.0199  -14.0687    4.2394 N   0  0  0  0  0  0  0  0  0  0  0  0
  -24.1815  -16.2361    3.3773 N   0  0  0  0  0  0  0  0  0  0  0  0
  -24.2597  -17.0872    2.3311 C   0  0  0  0  0  0  0  0  0  0  0  0
  -24.2507  -16.6189    1.0591 N   0  0  0  0  0  0  0  0  0  0  0  0
  -17.6644  -15.4744   -1.0852 O   0  5  0  0  0  0  0  0  0  0  0  0
  -14.5845  -15.4195   -1.2580 O   0  0  0  0  0  0  0  0  0  0  0  0
  -21.4085  -12.3261   -1.3542 S   0  0  0  0  0  0  0  0  0  0  0  0
  -22.9199  -12.7508   -0.6136 C   0  0  0  0  0  0  0  0  0  0  0  0
  -17.9826  -16.0004    1.4093 O   0  0  0  0  0  0  0  0  0  0  0  0
  -13.5594  -14.4089    0.7117 O   0  5  0  0  0  0  0  0  0  0  0  0
  -22.8426  -12.6229    0.7400 N   0  0  0  0  0  0  0  0  0  0  0  0
  -16.0230  -14.5259    0.5959 O   0  0  0  0  0  0  0  0  0  0  0  0
  -14.7068  -16.6084    0.9900 O   0  0  0  0  0  0  0  0  0  0  0  0
  -21.6430  -12.2044    1.2292 C   0  0  1  0  0  0  0  0  0  0  0  0
  -20.6540  -11.9546    0.1458 C   0  0  1  0  0  0  0  0  0  0  0  0
  -19.2201  -11.4970    0.1079 C   0  0  0  0  0  0  0  0  0  0  0  0
  -18.3567  -12.6403   -0.4016 C   0  0  0  0  0  0  0  0  0  0  0  0
  -18.4342  -13.7070    0.5361 O   0  0  0  0  0  0  0  0  0  0  0  0
  1 11  1  0  0  0  0
  3 13  1  6  0  0  0
  3 17  2  0  0  0  0
  3 20  1  0  0  0  0
  3 26  1  0  0  0  0
  4 14  1  6  0  0  0
  4 18  1  0  0  0  0
  4 21  2  0  0  0  0
  4 20  1  0  0  0  0
  5 19  1  0  0  0  0
  5  7  1  0  0  0  0
  6  7  2  0  0  0  0
  6 12  1  0  0  0  0
  7  8  1  0  0  0  0
  8  9  1  0  0  0  0
  8 10  2  0  0  0  0
 10 11  1  0  0  0  0
 11 12  2  0  0  0  0
 15 23  1  0  0  0  0
 15 16  1  0  0  0  0
 16 19  1  0  0  0  0
 19 22  1  0  0  0  0
 22  2  1  6  0  0  0
 22 23  1  0  0  0  0
 23 24  1  1  0  0  0
 24 25  1  0  0  0  0
 25 26  1  0  0  0  0
M  CHG  2  13  -1  18  -1
M  END
>  <CHROM.1>
-50.77089691,81.18908534,-54.25977290,65.56600590,-65.11665356,-63.85728798
-175.33226774,-46.71048282,-19.89091014,-14.41915746,0.81936327,-3.08425084
0.20564798,-0.40817333

>  <Name>
ligand

>  <RI>
0

>  <Rbt.Current_Directory>
/home/itssahil/PROJECTS/Mol_Feturizer/New_Systems/rnas/2GDI

>  <Rbt.Executable>
rbdock ($Id: //depot/dev/client3/rdock/2013.1/src/exe/rbdock.cxx#4 $)

>  <Rbt.Library>
libRbt.so (2013.1, Build901 2013/11/27)

>  <Rbt.Parameter_File>
/export/apps/rDock/src/rDock_2013.1_src/data/scripts/dock_solv.prm

>  <Rbt.Receptor>
prm/pocket_docking_6.prm

>  <SCORE>
-9.07057

>  <SCORE.INTER>
-8.10448

>  <SCORE.INTER.CONST>
1

>  <SCORE.INTER.POLAR>
0

>  <SCORE.INTER.ROT>
8

>  <SCORE.INTER.SOLV>
17.1537

>  <SCORE.INTER.VDW>
-20.0542

>  <SCORE.INTER.norm>
-0.311711

>  <SCORE.INTRA>
-0.966084

>  <SCORE.INTRA.DIHEDRAL>
-2.31995

>  <SCORE.INTRA.DIHEDRAL.0>
8.13976

>  <SCORE.INTRA.POLAR>
0

>  <SCORE.INTRA.POLAR.0>
0

>  <SCORE.INTRA.REPUL>
0

>  <SCORE.INTRA.REPUL.0>
0

>  <SCORE.INTRA.SOLV>
1.16559

>  <SCORE.INTRA.SOLV.lig_0>
-82.9561

>  <SCORE.INTRA.VDW>
-0.388905

>  <SCORE.INTRA.VDW.0>
-3.29171

>  <SCORE.INTRA.norm>
-0.0371571

>  <SCORE.RESTR>
0

>  <SCORE.RESTR.CAVITY>
0

>  <SCORE.RESTR.norm>
0

>  <SCORE.SYSTEM>
0

>  <SCORE.SYSTEM.CONST>
0

>  <SCORE.SYSTEM.DIHEDRAL>
0

>  <SCORE.SYSTEM.SOLV>
0

>  <SCORE.SYSTEM.norm>
0

>  <SCORE.heavy>
26

>  <SCORE.norm>
-0.348868

>  <RMSD>
8.773

$$$$
ligand
 OpenBabel11021811433D
libRbt.so/2013.1/901 2013/11/27
 26 27  0  0  0  0  0  0  0  0999 V2000
  -26.8079  -16.3661    3.4394 C   0  0  0  0  0  0  0  0  0  0  0  0
  -21.3645  -13.3123   -1.4606 C   0  0  0  0  0  0  0  0  0  0  0  0
  -16.0067  -15.5301    0.6302 P   0  0  1  0  0  0  0  0  0  0  0  0
  -16.1963  -15.9283   -2.2446 P   0  0  1  0  0  0  0  0  0  0  0  0
  -23.8138  -12.7462    0.1280 C   0  0  0  0  0  0  0  0  0  0  0  0
  -24.7271  -15.0422    0.6613 C   0  0  0  0  0  0  0  0  0  0  0  0
  -24.6143  -13.6995    0.9991 C   0  0  0  0  0  0  0  0  0  0  0  0
  -25.2347  -13.2498    2.1532 C   0  0  0  0  0  0  0  0  0  0  0  0
  -25.1536  -11.9486    2.5230 N   0  0  0  0  0  0  0  0  0  0  0  0
  -25.9295  -14.1184    2.9196 N   0  0  0  0  0  0  0  0  0  0  0  0
  -26.0263  -15.4195    2.5691 C   0  0  0  0  0  0  0  0  0  0  0  0
  -25.4266  -15.8767    1.4428 N   0  0  0  0  0  0  0  0  0  0  0  0
  -16.5543  -16.2561    1.8308 O   0  5  0  0  0  0  0  0  0  0  0  0
  -14.7224  -15.7311   -2.4237 O   0  0  0  0  0  0  0  0  0  0  0  0
  -20.5698  -11.9449    2.2778 S   0  0  0  0  0  0  0  0  0  0  0  0
  -22.2688  -12.0743    1.9463 C   0  0  0  0  0  0  0  0  0  0  0  0
  -14.5403  -15.2068    0.6296 O   0  0  0  0  0  0  0  0  0  0  0  0
  -16.6370  -17.1121   -3.0393 O   0  5  0  0  0  0  0  0  0  0  0  0
  -22.4762  -12.5367    0.6822 N   0  0  0  0  0  0  0  0  0  0  0  0
  -16.4376  -16.3524   -0.6984 O   0  0  0  0  0  0  0  0  0  0  0  0
  -17.0567  -14.7163   -2.4774 O   0  0  0  0  0  0  0  0  0  0  0  0
  -21.3558  -12.7962   -0.0463 C   0  0  1  0  0  0  0  0  0  0  0  0
  -20.1124  -12.5262    0.7254 C   0  0  1  0  0  0  0  0  0  0  0  0
  -18.6400  -12.6313    0.4288 C   0  0  0  0  0  0  0  0  0  0  0  0
  -18.2024  -14.0726    0.6365 C   0  0  0  0  0  0  0  0  0  0  0  0
  -16.7880  -14.1313    0.4984 O   0  0  0  0  0  0  0  0  0  0  0  0
  1 11  1  0  0  0  0
  3 13  1  1  0  0  0
  3 17  2  0  0  0  0
  3 20  1  0  0  0  0
  3 26  1  0  0  0  0
  4 14  1  6  0  0  0
  4 18  1  0  0  0  0
  4 21  2  0  0  0  0
  4 20  1  0  0  0  0
  5 19  1  0  0  0  0
  5  7  1  0  0  0  0
  6  7  2  0  0  0  0
  6 12  1  0  0  0  0
  7  8  1  0  0  0  0
  8  9  1  0  0  0  0
  8 10  2  0  0  0  0
 10 11  1  0  0  0  0
 11 12  2  0  0  0  0
 15 23  1  0  0  0  0
 15 16  1  0  0  0  0
 16 19  1  0  0  0  0
 19 22  1  0  0  0  0
 22  2  1  1  0  0  0
 22 23  1  0  0  0  0
 23 24  1  6  0  0  0
 24 25  1  0  0  0  0
 25 26  1  0  0  0  0
M  CHG  2  13  -1  18  -1
M  END
>  <CHROM.1>
174.81548749,-56.89152429,-98.87973662,57.22168689,98.60464277,-173.66586079
-178.68835614,-45.15869970,-20.07387909,-14.37099486,0.46102265,2.83815537
0.20327063,0.47915667

>  <Name>
ligand

>  <RI>
0

>  <Rbt.Current_Directory>
/home/itssahil/PROJECTS/Mol_Feturizer/New_Systems/rnas/2GDI

>  <Rbt.Executable>
rbdock ($Id: //depot/dev/client3/rdock/2013.1/src/exe/rbdock.cxx#4 $)

>  <Rbt.Library>
libRbt.so (2013.1, Build901 2013/11/27)

>  <Rbt.Parameter_File>
/export/apps/rDock/src/rDock_2013.1_src/data/scripts/dock_solv.prm

>  <Rbt.Receptor>
prm/pocket_docking_5.prm

>  <SCORE>
-10.3004

>  <SCORE.INTER>
-9.16687

>  <SCORE.INTER.CONST>
1

>  <SCORE.INTER.POLAR>
0

>  <SCORE.INTER.ROT>
8

>  <SCORE.INTER.SOLV>
16.0227

>  <SCORE.INTER.VDW>
-20.3855

>  <SCORE.INTER.norm>
-0.352572

>  <SCORE.INTRA>
-1.13351

>  <SCORE.INTRA.DIHEDRAL>
-2.92167

>  <SCORE.INTRA.DIHEDRAL.0>
8.13976

>  <SCORE.INTRA.POLAR>
0

>  <SCORE.INTRA.POLAR.0>
0

>  <SCORE.INTRA.REPUL>
0

>  <SCORE.INTRA.REPUL.0>
0

>  <SCORE.INTRA.SOLV>
1.88335

>  <SCORE.INTRA.SOLV.lig_0>
-82.9561

>  <SCORE.INTRA.VDW>
-0.614354

>  <SCORE.INTRA.VDW.0>
-3.29171

>  <SCORE.INTRA.norm>
-0.0435966

>  <SCORE.RESTR>
0

>  <SCORE.RESTR.CAVITY>
0

>  <SCORE.RESTR.norm>
0

>  <SCORE.SYSTEM>
0

>  <SCORE.SYSTEM.CONST>
0

>  <SCORE.SYSTEM.DIHEDRAL>
0

>  <SCORE.SYSTEM.SOLV>
0

>  <SCORE.SYSTEM.norm>
0

>  <SCORE.heavy>
26

>  <SCORE.norm>
-0.396169

>  <RMSD>
8.784

$$$$
ligand
 OpenBabel11021811433D
libRbt.so/2013.1/901 2013/11/27
 26 27  0  0  0  0  0  0  0  0999 V2000
  -22.0961  -11.0453    8.5400 C   0  0  0  0  0  0  0  0  0  0  0  0
  -22.5982  -15.8559    3.4522 C   0  0  0  0  0  0  0  0  0  0  0  0
  -20.4792  -18.6285    0.5195 P   0  0  1  0  0  0  0  0  0  0  0  0
  -19.2303  -18.5107   -2.1044 P   0  0  1  0  0  0  0  0  0  0  0  0
  -24.2480  -15.6865    5.9205 C   0  0  0  0  0  0  0  0  0  0  0  0
  -23.0027  -14.5749    7.8189 C   0  0  0  0  0  0  0  0  0  0  0  0
  -23.6887  -14.4573    6.6167 C   0  0  0  0  0  0  0  0  0  0  0  0
  -23.8410  -13.1988    6.0584 C   0  0  0  0  0  0  0  0  0  0  0  0
  -24.5035  -13.0341    4.8877 N   0  0  0  0  0  0  0  0  0  0  0  0
  -23.3234  -12.1218    6.6883 N   0  0  0  0  0  0  0  0  0  0  0  0
  -22.6616  -12.2614    7.8577 C   0  0  0  0  0  0  0  0  0  0  0  0
  -22.5040  -13.4852    8.4190 N   0  0  0  0  0  0  0  0  0  0  0  0
  -19.9921  -17.2877    1.0029 O   0  5  0  0  0  0  0  0  0  0  0  0
  -18.5557  -17.1877   -1.9087 O   0  0  0  0  0  0  0  0  0  0  0  0
  -21.6611  -18.6890    6.2039 S   0  0  0  0  0  0  0  0  0  0  0  0
  -22.9405  -17.6352    6.7193 C   0  0  0  0  0  0  0  0  0  0  0  0
  -21.9122  -18.7243    0.0811 O   0  0  0  0  0  0  0  0  0  0  0  0
  -18.2896  -19.4496   -2.7832 O   0  5  0  0  0  0  0  0  0  0  0  0
  -23.2125  -16.7075    5.7600 N   0  0  0  0  0  0  0  0  0  0  0  0
  -19.4658  -19.1496   -0.6330 O   0  0  0  0  0  0  0  0  0  0  0  0
  -20.5854  -18.4697   -2.7564 O   0  0  0  0  0  0  0  0  0  0  0  0
  -22.4580  -16.7837    4.6295 C   0  0  1  0  0  0  0  0  0  0  0  0
  -21.4834  -17.9071    4.6827 C   0  0  1  0  0  0  0  0  0  0  0  0
  -20.4326  -18.4406    3.7455 C   0  0  0  0  0  0  0  0  0  0  0  0
  -21.0409  -19.5626    2.9189 C   0  0  0  0  0  0  0  0  0  0  0  0
  -20.2909  -19.6849    1.7165 O   0  0  0  0  0  0  0  0  0  0  0  0
  1 11  1  0  0  0  0
  3 13  1  1  0  0  0
  3 17  2  0  0  0  0
  3 20  1  0  0  0  0
  3 26  1  0  0  0  0
  4 14  1  1  0  0  0
  4 18  1  0  0  0  0
  4 21  2  0  0  0  0
  4 20  1  0  0  0  0
  5 19  1  0  0  0  0
  5  7  1  0  0  0  0
  6  7  2  0  0  0  0
  6 12  1  0  0  0  0
  7  8  1  0  0  0  0
  8  9  1  0  0  0  0
  8 10  2  0  0  0  0
 10 11  1  0  0  0  0
 11 12  2  0  0  0  0
 15 23  1  0  0  0  0
 15 16  1  0  0  0  0
 16 19  1  0  0  0  0
 19 22  1  0  0  0  0
 22  2  1  6  0  0  0
 22 23  1  0  0  0  0
 23 24  1  1  0  0  0
 24 25  1  0  0  0  0
 25 26  1  0  0  0  0
M  CHG  2  13  -1  18  -1
M  END
>  <CHROM.1>
-66.79046124,87.35200469,-52.08426954,68.70923775,87.00034008,156.38047026
-76.34247889,65.82781099,-21.46173679,-16.84248395,3.14629127,-3.04280013
-1.22374823,2.72060756

>  <Name>
ligand

>  <RI>
0

>  <Rbt.Current_Directory>
/home/itssahil/PROJECTS/Mol_Feturizer/New_Systems/rnas/2GDI

>  <Rbt.Executable>
rbdock ($Id: //depot/dev/client3/rdock/2013.1/src/exe/rbdock.cxx#4 $)

>  <Rbt.Library>
libRbt.so (2013.1, Build901 2013/11/27)

>  <Rbt.Parameter_File>
/export/apps/rDock/src/rDock_2013.1_src/data/scripts/dock_solv.prm

>  <Rbt.Receptor>
prm/pocket_docking_7.prm

>  <SCORE>
-12.5847

>  <SCORE.INTER>
-13.8585

>  <SCORE.INTER.CONST>
1

>  <SCORE.INTER.POLAR>
0

>  <SCORE.INTER.ROT>
8

>  <SCORE.INTER.SOLV>
9.94969

>  <SCORE.INTER.VDW>
-21.4889

>  <SCORE.INTER.norm>
-0.53302

>  <SCORE.INTRA>
1.26668

>  <SCORE.INTRA.DIHEDRAL>
0.065387

>  <SCORE.INTRA.DIHEDRAL.0>
8.13976

>  <SCORE.INTRA.POLAR>
0

>  <SCORE.INTRA.POLAR.0>
0

>  <SCORE.INTRA.REPUL>
0

>  <SCORE.INTRA.REPUL.0>
0

>  <SCORE.INTRA.SOLV>
3.35732

>  <SCORE.INTRA.SOLV.lig_0>
-82.9561

>  <SCORE.INTRA.VDW>
-0.444676

>  <SCORE.INTRA.VDW.0>
-3.29171

>  <SCORE.INTRA.norm>
0.0487184

>  <SCORE.RESTR>
0.00715054

>  <SCORE.RESTR.CAVITY>
0.00715054

>  <SCORE.RESTR.norm>
0.000275021

>  <SCORE.SYSTEM>
0

>  <SCORE.SYSTEM.CONST>
0

>  <SCORE.SYSTEM.DIHEDRAL>
0

>  <SCORE.SYSTEM.SOLV>
0

>  <SCORE.SYSTEM.norm>
0

>  <SCORE.heavy>
26

>  <SCORE.norm>
-0.484026

>  <RMSD>
8.814

$$$$
ligand
 OpenBabel11021811433D
libRbt.so/2013.1/901 2013/11/27
 26 27  0  0  0  0  0  0  0  0999 V2000
  -22.6760  -12.2357    4.0167 C   0  0  0  0  0  0  0  0  0  0  0  0
  -24.4381  -18.4289    3.1590 C   0  0  0  0  0  0  0  0  0  0  0  0
  -20.6670  -18.4625   -1.8878 P   0  0  1  0  0  0  0  0  0  0  0  0
  -18.1552  -19.0433   -3.2339 P   0  0  1  0  0  0  0  0  0  0  0  0
  -22.3347  -17.8537    5.1809 C   0  0  0  0  0  0  0  0  0  0  0  0
  -21.8625  -15.8479    3.7165 C   0  0  0  0  0  0  0  0  0  0  0  0
  -22.4169  -16.3668    4.8798 C   0  0  0  0  0  0  0  0  0  0  0  0
  -23.0580  -15.5036    5.7532 C   0  0  0  0  0  0  0  0  0  0  0  0
  -23.6130  -15.9631    6.9010 N   0  0  0  0  0  0  0  0  0  0  0  0
  -23.1309  -14.1875    5.4581 N   0  0  0  0  0  0  0  0  0  0  0  0
  -22.5824  -13.7064    4.3211 C   0  0  0  0  0  0  0  0  0  0  0  0
  -21.9504  -14.5362    3.4555 N   0  0  0  0  0  0  0  0  0  0  0  0
  -20.4915  -17.0070   -1.5429 O   0  5  0  0  0  0  0  0  0  0  0  0
  -17.0455  -20.0090   -2.9519 O   0  0  0  0  0  0  0  0  0  0  0  0
  -20.8064  -19.9487    2.1705 S   0  0  0  0  0  0  0  0  0  0  0  0
  -20.8008  -19.1001    3.6847 C   0  0  0  0  0  0  0  0  0  0  0  0
  -21.5159  -18.7905   -3.0822 O   0  0  0  0  0  0  0  0  0  0  0  0
  -18.9282  -19.5117   -4.4215 O   0  5  0  0  0  0  0  0  0  0  0  0
  -22.0413  -18.6132    3.9655 N   0  0  0  0  0  0  0  0  0  0  0  0
  -19.1976  -19.1378   -1.9957 O   0  0  0  0  0  0  0  0  0  0  0  0
  -17.7604  -17.5947   -3.3291 O   0  0  0  0  0  0  0  0  0  0  0  0
  -23.0053  -18.8757    3.0407 C   0  0  1  0  0  0  0  0  0  0  0  0
  -22.4823  -19.6749    1.8996 C   0  0  1  0  0  0  0  0  0  0  0  0
  -23.0817  -20.2303    0.6349 C   0  0  0  0  0  0  0  0  0  0  0  0
  -22.7589  -19.2868   -0.5130 C   0  0  0  0  0  0  0  0  0  0  0  0
  -21.3441  -19.1925   -0.6256 O   0  0  0  0  0  0  0  0  0  0  0  0
  1 11  1  0  0  0  0
  3 13  1  1  0  0  0
  3 17  2  0  0  0  0
  3 20  1  0  0  0  0
  3 26  1  0  0  0  0
  4 14  1  1  0  0  0
  4 18  1  0  0  0  0
  4 21  2  0  0  0  0
  4 20  1  0  0  0  0
  5 19  1  0  0  0  0
  5  7  1  0  0  0  0
  6  7  2  0  0  0  0
  6 12  1  0  0  0  0
  7  8  1  0  0  0  0
  8  9  1  0  0  0  0
  8 10  2  0  0  0  0
 10 11  1  0  0  0  0
 11 12  2  0  0  0  0
 15 23  1  0  0  0  0
 15 16  1  0  0  0  0
 16 19  1  0  0  0  0
 19 22  1  0  0  0  0
 22  2  1  1  0  0  0
 22 23  1  0  0  0  0
 23 24  1  6  0  0  0
 24 25  1  0  0  0  0
 25 26  1  0  0  0  0
M  CHG  2  13  -1  18  -1
M  END
>  <CHROM.1>
-78.76880868,102.25545523,-18.58494279,-170.90354936,-80.60769195,59.70363771
170.08356501,90.30725293,-21.18726319,-17.89250541,0.98249889,-2.51325633
-1.04186082,-2.84021759

>  <Name>
ligand

>  <RI>
0

>  <Rbt.Current_Directory>
/home/itssahil/PROJECTS/Mol_Feturizer/New_Systems/rnas/2GDI

>  <Rbt.Executable>
rbdock ($Id: //depot/dev/client3/rdock/2013.1/src/exe/rbdock.cxx#4 $)

>  <Rbt.Library>
libRbt.so (2013.1, Build901 2013/11/27)

>  <Rbt.Parameter_File>
/export/apps/rDock/src/rDock_2013.1_src/data/scripts/dock_solv.prm

>  <Rbt.Receptor>
prm/pocket_docking_8.prm

>  <SCORE>
-12.7567

>  <SCORE.INTER>
-13.0298

>  <SCORE.INTER.CONST>
1

>  <SCORE.INTER.POLAR>
0

>  <SCORE.INTER.ROT>
8

>  <SCORE.INTER.SOLV>
8.79532

>  <SCORE.INTER.VDW>
-20.5516

>  <SCORE.INTER.norm>
-0.501146

>  <SCORE.INTRA>
0.273056

>  <SCORE.INTRA.DIHEDRAL>
-1.35685

>  <SCORE.INTRA.DIHEDRAL.0>
8.13976

>  <SCORE.INTRA.POLAR>
0

>  <SCORE.INTRA.POLAR.0>
0

>  <SCORE.INTRA.REPUL>
0

>  <SCORE.INTRA.REPUL.0>
0

>  <SCORE.INTRA.SOLV>
2.09012

>  <SCORE.INTRA.SOLV.lig_0>
-82.9561

>  <SCORE.INTRA.VDW>
-0.0935791

>  <SCORE.INTRA.VDW.0>
-3.29171

>  <SCORE.INTRA.norm>
0.0105022

>  <SCORE.RESTR>
0

>  <SCORE.RESTR.CAVITY>
0

>  <SCORE.RESTR.norm>
0

>  <SCORE.SYSTEM>
0

>  <SCORE.SYSTEM.CONST>
0

>  <SCORE.SYSTEM.DIHEDRAL>
0

>  <SCORE.SYSTEM.SOLV>
0

>  <SCORE.SYSTEM.norm>
0

>  <SCORE.heavy>
26

>  <SCORE.norm>
-0.490644

>  <RMSD>
8.814

$$$$
ligand
 OpenBabel11021811433D
libRbt.so/2013.1/901 2013/11/27
 26 27  0  0  0  0  0  0  0  0999 V2000
  -26.3991  -16.4115    3.5688 C   0  0  0  0  0  0  0  0  0  0  0  0
  -25.6901  -13.7130   -2.8162 C   0  0  0  0  0  0  0  0  0  0  0  0
  -22.0959  -17.9898   -2.5849 P   0  0  1  0  0  0  0  0  0  0  0  0
  -19.7455  -18.2592   -0.8932 P   0  0  1  0  0  0  0  0  0  0  0  0
  -25.0043  -12.3578   -0.2595 C   0  0  0  0  0  0  0  0  0  0  0  0
  -25.5231  -14.7525    0.3624 C   0  0  0  0  0  0  0  0  0  0  0  0
  -25.3831  -13.4264    0.7519 C   0  0  0  0  0  0  0  0  0  0  0  0
  -25.5826  -13.0998    2.0833 C   0  0  0  0  0  0  0  0  0  0  0  0
  -25.4584  -11.8197    2.5102 N   0  0  0  0  0  0  0  0  0  0  0  0
  -25.9052  -14.0688    2.9674 N   0  0  0  0  0  0  0  0  0  0  0  0
  -26.0372  -15.3514    2.5641 C   0  0  0  0  0  0  0  0  0  0  0  0
  -25.8468  -15.6888    1.2651 N   0  0  0  0  0  0  0  0  0  0  0  0
  -21.6503  -18.8922   -3.7055 O   0  5  0  0  0  0  0  0  0  0  0  0
  -19.1665  -19.3547   -1.7347 O   0  0  0  0  0  0  0  0  0  0  0  0
  -21.6917  -13.4063   -2.1869 S   0  0  0  0  0  0  0  0  0  0  0  0
  -22.6382  -12.7173   -0.9052 C   0  0  0  0  0  0  0  0  0  0  0  0
  -23.0964  -18.5425   -1.6111 O   0  0  0  0  0  0  0  0  0  0  0  0
  -18.6719  -17.2825   -0.5460 O   0  5  0  0  0  0  0  0  0  0  0  0
  -23.9680  -12.8482   -1.1682 N   0  0  0  0  0  0  0  0  0  0  0  0
  -20.7752  -17.4292   -1.8310 O   0  0  0  0  0  0  0  0  0  0  0  0
  -20.5434  -18.6991    0.3040 O   0  0  0  0  0  0  0  0  0  0  0  0
  -24.2835  -13.4684   -2.3384 C   0  0  1  0  0  0  0  0  0  0  0  0
  -23.0716  -13.8955   -3.0890 C   0  0  1  0  0  0  0  0  0  0  0  0
  -22.8321  -14.5989   -4.3986 C   0  0  0  0  0  0  0  0  0  0  0  0
  -22.0235  -15.8592   -4.1343 C   0  0  0  0  0  0  0  0  0  0  0  0
  -22.7620  -16.6807   -3.2383 O   0  0  0  0  0  0  0  0  0  0  0  0
  1 11  1  0  0  0  0
  3 13  1  6  0  0  0
  3 17  2  0  0  0  0
  3 20  1  0  0  0  0
  3 26  1  0  0  0  0
  4 14  1  6  0  0  0
  4 18  1  0  0  0  0
  4 21  2  0  0  0  0
  4 20  1  0  0  0  0
  5 19  1  0  0  0  0
  5  7  1  0  0  0  0
  6  7  2  0  0  0  0
  6 12  1  0  0  0  0
  7  8  1  0  0  0  0
  8  9  1  0  0  0  0
  8 10  2  0  0  0  0
 10 11  1  0  0  0  0
 11 12  2  0  0  0  0
 15 23  1  0  0  0  0
 15 16  1  0  0  0  0
 16 19  1  0  0  0  0
 19 22  1  0  0  0  0
 22  2  1  1  0  0  0
 22 23  1  0  0  0  0
 23 24  1  6  0  0  0
 24 25  1  0  0  0  0
 25 26  1  0  0  0  0
M  CHG  2  13  -1  18  -1
M  END
>  <CHROM.1>
-70.24632516,-89.36902694,-41.39451052,59.97281504,59.20922006,59.20317863
-170.96775497,-57.95729829,-22.92930748,-15.68415231,-0.99563107,3.11164628
0.84129059,-0.90181470

>  <Name>
ligand

>  <RI>
0

>  <Rbt.Current_Directory>
/home/itssahil/PROJECTS/Mol_Feturizer/New_Systems/rnas/2GDI

>  <Rbt.Executable>
rbdock ($Id: //depot/dev/client3/rdock/2013.1/src/exe/rbdock.cxx#4 $)

>  <Rbt.Library>
libRbt.so (2013.1, Build901 2013/11/27)

>  <Rbt.Parameter_File>
/export/apps/rDock/src/rDock_2013.1_src/data/scripts/dock_solv.prm

>  <Rbt.Receptor>
prm/pocket_docking_6.prm

>  <SCORE>
-8.35482

>  <SCORE.INTER>
-6.8005

>  <SCORE.INTER.CONST>
1

>  <SCORE.INTER.POLAR>
0

>  <SCORE.INTER.ROT>
8

>  <SCORE.INTER.SOLV>
12.0639

>  <SCORE.INTER.VDW>
-17.4883

>  <SCORE.INTER.norm>
-0.261558

>  <SCORE.INTRA>
-1.55432

>  <SCORE.INTRA.DIHEDRAL>
-2.45537

>  <SCORE.INTRA.DIHEDRAL.0>
8.13976

>  <SCORE.INTRA.POLAR>
0

>  <SCORE.INTRA.POLAR.0>
0

>  <SCORE.INTRA.REPUL>
0

>  <SCORE.INTRA.REPUL.0>
0

>  <SCORE.INTRA.SOLV>
-0.241434

>  <SCORE.INTRA.SOLV.lig_0>
-82.9561

>  <SCORE.INTRA.VDW>
-0.205919

>  <SCORE.INTRA.VDW.0>
-3.29171

>  <SCORE.INTRA.norm>
-0.0597815

>  <SCORE.RESTR>
0

>  <SCORE.RESTR.CAVITY>
0

>  <SCORE.RESTR.norm>
0

>  <SCORE.SYSTEM>
0

>  <SCORE.SYSTEM.CONST>
0

>  <SCORE.SYSTEM.DIHEDRAL>
0

>  <SCORE.SYSTEM.SOLV>
0

>  <SCORE.SYSTEM.norm>
0

>  <SCORE.heavy>
26

>  <SCORE.norm>
-0.321339

>  <RMSD>
8.851

$$$$
ligand
 OpenBabel11021811433D
libRbt.so/2013.1/901 2013/11/27
 26 27  0  0  0  0  0  0  0  0999 V2000
  -25.6204  -12.2461    3.1289 C   0  0  0  0  0  0  0  0  0  0  0  0
  -24.1216  -19.2653    2.6047 C   0  0  0  0  0  0  0  0  0  0  0  0
  -21.7926  -17.4968   -0.8136 P   0  0  1  0  0  0  0  0  0  0  0  0
  -21.3590  -15.5116    1.2672 P   0  0  1  0  0  0  0  0  0  0  0  0
  -24.4242  -17.5435    5.0104 C   0  0  0  0  0  0  0  0  0  0  0  0
  -25.2952  -15.9445    3.2569 C   0  0  0  0  0  0  0  0  0  0  0  0
  -24.7303  -16.1418    4.5106 C   0  0  0  0  0  0  0  0  0  0  0  0
  -24.4640  -15.0361    5.3013 C   0  0  0  0  0  0  0  0  0  0  0  0
  -23.9122  -15.1785    6.5309 N   0  0  0  0  0  0  0  0  0  0  0  0
  -24.7572  -13.8002    4.8417 N   0  0  0  0  0  0  0  0  0  0  0  0
  -25.3049  -13.6337    3.6180 C   0  0  0  0  0  0  0  0  0  0  0  0
  -25.5713  -14.7042    2.8303 N   0  0  0  0  0  0  0  0  0  0  0  0
  -22.9776  -17.8101   -1.6889 O   0  5  0  0  0  0  0  0  0  0  0  0
  -19.9193  -15.9210    1.2122 O   0  0  0  0  0  0  0  0  0  0  0  0
  -20.5840  -18.3303    4.3620 S   0  0  0  0  0  0  0  0  0  0  0  0
  -21.9527  -17.6388    5.1753 C   0  0  0  0  0  0  0  0  0  0  0  0
  -20.4347  -17.5302   -1.4538 O   0  0  0  0  0  0  0  0  0  0  0  0
  -21.4557  -14.0270    1.1501 O   0  5  0  0  0  0  0  0  0  0  0  0
  -23.1093  -17.9844    4.5448 N   0  0  0  0  0  0  0  0  0  0  0  0
  -22.0697  -16.0815   -0.0741 O   0  0  0  0  0  0  0  0  0  0  0  0
  -22.1567  -16.0591    2.4192 O   0  0  0  0  0  0  0  0  0  0  0  0
  -22.9723  -18.7725    3.4432 C   0  0  1  0  0  0  0  0  0  0  0  0
  -21.5486  -19.1083    3.1698 C   0  0  1  0  0  0  0  0  0  0  0  0
  -20.8359  -19.9164    2.1181 C   0  0  0  0  0  0  0  0  0  0  0  0
  -20.5303  -19.0134    0.9334 C   0  0  0  0  0  0  0  0  0  0  0  0
  -21.7647  -18.5684    0.3845 O   0  0  0  0  0  0  0  0  0  0  0  0
  1 11  1  0  0  0  0
  3 13  1  6  0  0  0
  3 17  2  0  0  0  0
  3 20  1  0  0  0  0
  3 26  1  0  0  0  0
  4 14  1  1  0  0  0
  4 18  1  0  0  0  0
  4 21  2  0  0  0  0
  4 20  1  0  0  0  0
  5 19  1  0  0  0  0
  5  7  1  0  0  0  0
  6  7  2  0  0  0  0
  6 12  1  0  0  0  0
  7  8  1  0  0  0  0
  8  9  1  0  0  0  0
  8 10  2  0  0  0  0
 10 11  1  0  0  0  0
 11 12  2  0  0  0  0
 15 23  1  0  0  0  0
 15 16  1  0  0  0  0
 16 19  1  0  0  0  0
 19 22  1  0  0  0  0
 22  2  1  1  0  0  0
 22 23  1  0  0  0  0
 23 24  1  6  0  0  0
 24 25  1  0  0  0  0
 25 26  1  0  0  0  0
M  CHG  2  13  -1  18  -1
M  END
>  <CHROM.1>
160.14479748,82.56400792,85.75429582,37.68559440,-90.73223163,-62.95342363
174.99782151,146.84267419,-22.57018695,-16.71747398,2.36449480,2.77702872
-0.94883843,2.11383798

>  <Name>
ligand

>  <RI>
0

>  <Rbt.Current_Directory>
/home/itssahil/PROJECTS/Mol_Feturizer/New_Systems/rnas/2GDI

>  <Rbt.Executable>
rbdock ($Id: //depot/dev/client3/rdock/2013.1/src/exe/rbdock.cxx#4 $)

>  <Rbt.Library>
libRbt.so (2013.1, Build901 2013/11/27)

>  <Rbt.Parameter_File>
/export/apps/rDock/src/rDock_2013.1_src/data/scripts/dock_solv.prm

>  <Rbt.Receptor>
prm/pocket_docking_6.prm

>  <SCORE>
-10.4302

>  <SCORE.INTER>
-8.60557

>  <SCORE.INTER.CONST>
1

>  <SCORE.INTER.POLAR>
0

>  <SCORE.INTER.ROT>
8

>  <SCORE.INTER.SOLV>
7.42867

>  <SCORE.INTER.VDW>
-17.1466

>  <SCORE.INTER.norm>
-0.330983

>  <SCORE.INTRA>
-1.82465

>  <SCORE.INTRA.DIHEDRAL>
-0.299634

>  <SCORE.INTRA.DIHEDRAL.0>
8.13976

>  <SCORE.INTRA.POLAR>
0

>  <SCORE.INTRA.POLAR.0>
0

>  <SCORE.INTRA.REPUL>
0

>  <SCORE.INTRA.REPUL.0>
0

>  <SCORE.INTRA.SOLV>
3.8579

>  <SCORE.INTRA.SOLV.lig_0>
-82.9561

>  <SCORE.INTRA.VDW>
-3.60378

>  <SCORE.INTRA.VDW.0>
-3.29171

>  <SCORE.INTRA.norm>
-0.0701788

>  <SCORE.RESTR>
0

>  <SCORE.RESTR.CAVITY>
0

>  <SCORE.RESTR.norm>
0

>  <SCORE.SYSTEM>
0

>  <SCORE.SYSTEM.CONST>
0

>  <SCORE.SYSTEM.DIHEDRAL>
0

>  <SCORE.SYSTEM.SOLV>
0

>  <SCORE.SYSTEM.norm>
0

>  <SCORE.heavy>
26

>  <SCORE.norm>
-0.401162

>  <RMSD>
8.857

$$$$
ligand
 OpenBabel11021811433D
libRbt.so/2013.1/901 2013/11/27
 26 27  0  0  0  0  0  0  0  0999 V2000
  -18.1392  -15.7007    1.0859 C   0  0  0  0  0  0  0  0  0  0  0  0
  -23.8380  -17.4212   -0.3676 C   0  0  0  0  0  0  0  0  0  0  0  0
  -23.5188  -16.8911   -5.8443 P   0  0  1  0  0  0  0  0  0  0  0  0
  -25.0435  -14.4162   -5.7488 P   0  0  1  0  0  0  0  0  0  0  0  0
  -22.7067  -19.1160    1.7982 C   0  0  0  0  0  0  0  0  0  0  0  0
  -20.7502  -18.2639    0.4432 C   0  0  0  0  0  0  0  0  0  0  0  0
  -21.4935  -18.2197    1.6159 C   0  0  0  0  0  0  0  0  0  0  0  0
  -21.1148  -17.3327    2.6102 C   0  0  0  0  0  0  0  0  0  0  0  0
  -21.8082  -17.2546    3.7718 N   0  0  0  0  0  0  0  0  0  0  0  0
  -20.0408  -16.5357    2.4203 N   0  0  0  0  0  0  0  0  0  0  0  0
  -19.3326  -16.5982    1.2716 C   0  0  0  0  0  0  0  0  0  0  0  0
  -19.6882  -17.4610    0.2884 N   0  0  0  0  0  0  0  0  0  0  0  0
  -23.0783  -17.7444   -7.0046 O   0  5  0  0  0  0  0  0  0  0  0  0
  -23.9687  -13.4522   -6.1478 O   0  0  0  0  0  0  0  0  0  0  0  0
  -23.6117  -21.3507   -1.3600 S   0  0  0  0  0  0  0  0  0  0  0  0
  -23.0264  -21.0169    0.2397 C   0  0  0  0  0  0  0  0  0  0  0  0
  -22.4487  -16.1856   -5.0620 O   0  0  0  0  0  0  0  0  0  0  0  0
  -26.3200  -14.0411   -6.4248 O   0  5  0  0  0  0  0  0  0  0  0  0
  -23.1260  -19.6876    0.5185 N   0  0  0  0  0  0  0  0  0  0  0  0
  -24.6491  -15.8583   -6.3760 O   0  0  0  0  0  0  0  0  0  0  0  0
  -25.2106  -14.6426   -4.2709 O   0  0  0  0  0  0  0  0  0  0  0  0
  -23.6437  -18.9105   -0.4721 C   0  0  1  0  0  0  0  0  0  0  0  0
  -24.0142  -19.7083   -1.6724 C   0  0  1  0  0  0  0  0  0  0  0  0
  -24.6068  -19.3817   -3.0175 C   0  0  0  0  0  0  0  0  0  0  0  0
  -23.5989  -18.5627   -3.8085 C   0  0  0  0  0  0  0  0  0  0  0  0
  -24.3042  -17.8341   -4.8059 O   0  0  0  0  0  0  0  0  0  0  0  0
  1 11  1  0  0  0  0
  3 13  1  6  0  0  0
  3 17  2  0  0  0  0
  3 20  1  0  0  0  0
  3 26  1  0  0  0  0
  4 14  1  6  0  0  0
  4 18  1  0  0  0  0
  4 21  2  0  0  0  0
  4 20  1  0  0  0  0
  5 19  1  0  0  0  0
  5  7  1  0  0  0  0
  6  7  2  0  0  0  0
  6 12  1  0  0  0  0
  7  8  1  0  0  0  0
  8  9  1  0  0  0  0
  8 10  2  0  0  0  0
 10 11  1  0  0  0  0
 11 12  2  0  0  0  0
 15 23  1  0  0  0  0
 15 16  1  0  0  0  0
 16 19  1  0  0  0  0
 19 22  1  0  0  0  0
 22  2  1  1  0  0  0
 22 23  1  0  0  0  0
 23 24  1  6  0  0  0
 24 25  1  0  0  0  0
 25 26  1  0  0  0  0
M  CHG  2  13  -1  18  -1
M  END
>  <CHROM.1>
-155.03840065,112.52675141,-14.68023655,76.04807600,-111.33877667,-157.70610189
-178.44101890,86.31504904,-23.03501618,-17.36796830,-2.28891412,-0.85380899
-0.95444910,-0.60303779

>  <Name>
ligand

>  <RI>
0

>  <Rbt.Current_Directory>
/home/itssahil/PROJECTS/Mol_Feturizer/New_Systems/rnas/2GDI

>  <Rbt.Executable>
rbdock ($Id: //depot/dev/client3/rdock/2013.1/src/exe/rbdock.cxx#4 $)

>  <Rbt.Library>
libRbt.so (2013.1, Build901 2013/11/27)

>  <Rbt.Parameter_File>
/export/apps/rDock/src/rDock_2013.1_src/data/scripts/dock_solv.prm

>  <Rbt.Receptor>
prm/pocket_docking_7.prm

>  <SCORE>
-5.48362

>  <SCORE.INTER>
-6.0126

>  <SCORE.INTER.CONST>
1

>  <SCORE.INTER.POLAR>
0

>  <SCORE.INTER.ROT>
8

>  <SCORE.INTER.SOLV>
10.6781

>  <SCORE.INTER.VDW>
-16.5011

>  <SCORE.INTER.norm>
-0.231254

>  <SCORE.INTRA>
0.528978

>  <SCORE.INTRA.DIHEDRAL>
0.36153

>  <SCORE.INTRA.DIHEDRAL.0>
8.13976

>  <SCORE.INTRA.POLAR>
0

>  <SCORE.INTRA.POLAR.0>
0

>  <SCORE.INTRA.REPUL>
0

>  <SCORE.INTRA.REPUL.0>
0

>  <SCORE.INTRA.SOLV>
0.355163

>  <SCORE.INTRA.SOLV.lig_0>
-82.9561

>  <SCORE.INTRA.VDW>
0.170631

>  <SCORE.INTRA.VDW.0>
-3.29171

>  <SCORE.INTRA.norm>
0.0203453

>  <SCORE.RESTR>
0

>  <SCORE.RESTR.CAVITY>
0

>  <SCORE.RESTR.norm>
0

>  <SCORE.SYSTEM>
0

>  <SCORE.SYSTEM.CONST>
0

>  <SCORE.SYSTEM.DIHEDRAL>
0

>  <SCORE.SYSTEM.SOLV>
0

>  <SCORE.SYSTEM.norm>
0

>  <SCORE.heavy>
26

>  <SCORE.norm>
-0.210908

>  <RMSD>
8.863

$$$$
ligand
 OpenBabel11021811433D
libRbt.so/2013.1/901 2013/11/27
 26 27  0  0  0  0  0  0  0  0999 V2000
  -22.6164  -12.9395    8.4466 C   0  0  0  0  0  0  0  0  0  0  0  0
  -24.1264  -19.1014    2.7217 C   0  0  0  0  0  0  0  0  0  0  0  0
  -21.1633  -17.0738   -0.7528 P   0  0  1  0  0  0  0  0  0  0  0  0
  -21.6491  -18.9186   -2.9482 P   0  0  1  0  0  0  0  0  0  0  0  0
  -23.9625  -17.5051    5.2254 C   0  0  0  0  0  0  0  0  0  0  0  0
  -23.2119  -16.4532    7.3980 C   0  0  0  0  0  0  0  0  0  0  0  0
  -23.6170  -16.2963    6.0785 C   0  0  0  0  0  0  0  0  0  0  0  0
  -23.6865  -15.0170    5.5518 C   0  0  0  0  0  0  0  0  0  0  0  0
  -24.0773  -14.8141    4.2703 N   0  0  0  0  0  0  0  0  0  0  0  0
  -23.3612  -13.9581    6.3249 N   0  0  0  0  0  0  0  0  0  0  0  0
  -22.9716  -14.1360    7.6062 C   0  0  0  0  0  0  0  0  0  0  0  0
  -22.8989  -15.3806    8.1383 N   0  0  0  0  0  0  0  0  0  0  0  0
  -19.9739  -16.2723   -0.2928 O   0  5  0  0  0  0  0  0  0  0  0  0
  -22.3584  -19.8174   -1.9825 O   0  0  0  0  0  0  0  0  0  0  0  0
  -20.3287  -18.6258    4.0737 S   0  0  0  0  0  0  0  0  0  0  0  0
  -21.5124  -17.8528    5.0809 C   0  0  0  0  0  0  0  0  0  0  0  0
  -22.4536  -16.3347   -0.9616 O   0  0  0  0  0  0  0  0  0  0  0  0
  -22.6451  -18.0402   -3.6291 O   0  5  0  0  0  0  0  0  0  0  0  0
  -22.7649  -18.0446    4.5814 N   0  0  0  0  0  0  0  0  0  0  0  0
  -20.7316  -17.9070   -2.0743 O   0  0  0  0  0  0  0  0  0  0  0  0
  -20.7122  -19.5945   -3.9119 O   0  0  0  0  0  0  0  0  0  0  0  0
  -22.8414  -18.7751    3.4352 C   0  0  1  0  0  0  0  0  0  0  0  0
  -21.5027  -19.2325    2.9734 C   0  0  1  0  0  0  0  0  0  0  0  0
  -21.0070  -20.0424    1.8050 C   0  0  0  0  0  0  0  0  0  0  0  0
  -20.4243  -19.0956    0.7676 C   0  0  0  0  0  0  0  0  0  0  0  0
  -21.4534  -18.2070    0.3499 O   0  0  0  0  0  0  0  0  0  0  0  0
  1 11  1  0  0  0  0
  3 13  1  1  0  0  0
  3 17  2  0  0  0  0
  3 20  1  0  0  0  0
  3 26  1  0  0  0  0
  4 14  1  1  0  0  0
  4 18  1  0  0  0  0
  4 21  2  0  0  0  0
  4 20  1  0  0  0  0
  5 19  1  0  0  0  0
  5  7  1  0  0  0  0
  6  7  2  0  0  0  0
  6 12  1  0  0  0  0
  7  8  1  0  0  0  0
  8  9  1  0  0  0  0
  8 10  2  0  0  0  0
 10 11  1  0  0  0  0
 11 12  2  0  0  0  0
 15 23  1  0  0  0  0
 15 16  1  0  0  0  0
 16 19  1  0  0  0  0
 19 22  1  0  0  0  0
 22  2  1  1  0  0  0
 22 23  1  0  0  0  0
 23 24  1  6  0  0  0
 24 25  1  0  0  0  0
 25 26  1  0  0  0  0
M  CHG  2  13  -1  18  -1
M  END
>  <CHROM.1>
179.95815273,24.17664639,-86.94579378,-46.33968474,-76.73738883,-60.25506453
-179.85367304,-53.52526406,-22.04606240,-17.43553396,2.09846083,2.19425635
-1.28158992,1.83967186

>  <Name>
ligand

>  <RI>
0

>  <Rbt.Current_Directory>
/home/itssahil/PROJECTS/Mol_Feturizer/New_Systems/rnas/2GDI

>  <Rbt.Executable>
rbdock ($Id: //depot/dev/client3/rdock/2013.1/src/exe/rbdock.cxx#4 $)

>  <Rbt.Library>
libRbt.so (2013.1, Build901 2013/11/27)

>  <Rbt.Parameter_File>
/export/apps/rDock/src/rDock_2013.1_src/data/scripts/dock_solv.prm

>  <Rbt.Receptor>
prm/pocket_docking_8.prm

>  <SCORE>
-13.7162

>  <SCORE.INTER>
-11.5937

>  <SCORE.INTER.CONST>
1

>  <SCORE.INTER.POLAR>
0

>  <SCORE.INTER.ROT>
8

>  <SCORE.INTER.SOLV>
5.93441

>  <SCORE.INTER.VDW>
-18.6406

>  <SCORE.INTER.norm>
-0.44591

>  <SCORE.INTRA>
-2.12251

>  <SCORE.INTRA.DIHEDRAL>
-2.88235

>  <SCORE.INTRA.DIHEDRAL.0>
8.13976

>  <SCORE.INTRA.POLAR>
0

>  <SCORE.INTRA.POLAR.0>
0

>  <SCORE.INTRA.REPUL>
0

>  <SCORE.INTRA.REPUL.0>
0

>  <SCORE.INTRA.SOLV>
-0.118747

>  <SCORE.INTRA.SOLV.lig_0>
-82.9561

>  <SCORE.INTRA.VDW>
-0.621959

>  <SCORE.INTRA.VDW.0>
-3.29171

>  <SCORE.INTRA.norm>
-0.0816349

>  <SCORE.RESTR>
0

>  <SCORE.RESTR.CAVITY>
0

>  <SCORE.RESTR.norm>
0

>  <SCORE.SYSTEM>
0

>  <SCORE.SYSTEM.CONST>
0

>  <SCORE.SYSTEM.DIHEDRAL>
0

>  <SCORE.SYSTEM.SOLV>
0

>  <SCORE.SYSTEM.norm>
0

>  <SCORE.heavy>
26

>  <SCORE.norm>
-0.527545

>  <RMSD>
8.873

$$$$
ligand
 OpenBabel11021811433D
libRbt.so/2013.1/901 2013/11/27
 26 27  0  0  0  0  0  0  0  0999 V2000
  -23.0570  -17.9516    7.6994 C   0  0  0  0  0  0  0  0  0  0  0  0
  -22.6968  -10.8653    4.0308 C   0  0  0  0  0  0  0  0  0  0  0  0
  -24.9782  -13.5798    0.2488 P   0  0  1  0  0  0  0  0  0  0  0  0
  -24.8332  -13.2537   -2.6376 P   0  0  1  0  0  0  0  0  0  0  0  0
  -23.1699  -12.3145    6.5840 C   0  0  0  0  0  0  0  0  0  0  0  0
  -23.1442  -14.7325    5.8473 C   0  0  0  0  0  0  0  0  0  0  0  0
  -23.1504  -13.8044    6.8809 C   0  0  0  0  0  0  0  0  0  0  0  0
  -23.1247  -14.2641    8.1874 C   0  0  0  0  0  0  0  0  0  0  0  0
  -23.1307  -13.3968    9.2287 N   0  0  0  0  0  0  0  0  0  0  0  0
  -23.0936  -15.5930    8.4272 N   0  0  0  0  0  0  0  0  0  0  0  0
  -23.0900  -16.4763    7.4050 C   0  0  0  0  0  0  0  0  0  0  0  0
  -23.1159  -16.0444    6.1204 N   0  0  0  0  0  0  0  0  0  0  0  0
  -25.7483  -14.8558    0.4664 O   0  5  0  0  0  0  0  0  0  0  0  0
  -24.8309  -14.7416   -2.8101 O   0  0  0  0  0  0  0  0  0  0  0  0
  -26.6043  -11.7639    4.6635 S   0  0  0  0  0  0  0  0  0  0  0  0
  -25.5641  -12.3084    5.9420 C   0  0  0  0  0  0  0  0  0  0  0  0
  -23.4824  -13.6499    0.3599 O   0  0  0  0  0  0  0  0  0  0  0  0
  -25.8073  -12.6470   -3.5917 O   0  5  0  0  0  0  0  0  0  0  0  0
  -24.2689  -11.9808    5.6779 N   0  0  0  0  0  0  0  0  0  0  0  0
  -25.4429  -12.9437   -1.1676 O   0  0  0  0  0  0  0  0  0  0  0  0
  -23.4867  -12.5837   -2.6738 O   0  0  0  0  0  0  0  0  0  0  0  0
  -24.0507  -11.3173    4.5093 C   0  0  1  0  0  0  0  0  0  0  0  0
  -25.3137  -11.0728    3.7613 C   0  0  1  0  0  0  0  0  0  0  0  0
  -25.6569  -10.4090    2.4542 C   0  0  0  0  0  0  0  0  0  0  0  0
  -24.9829  -11.1749    1.3266 C   0  0  0  0  0  0  0  0  0  0  0  0
  -25.4729  -12.5102    1.3421 O   0  0  0  0  0  0  0  0  0  0  0  0
  1 11  1  0  0  0  0
  3 13  1  1  0  0  0
  3 17  2  0  0  0  0
  3 20  1  0  0  0  0
  3 26  1  0  0  0  0
  4 14  1  6  0  0  0
  4 18  1  0  0  0  0
  4 21  2  0  0  0  0
  4 20  1  0  0  0  0
  5 19  1  0  0  0  0
  5  7  1  0  0  0  0
  6  7  2  0  0  0  0
  6 12  1  0  0  0  0
  7  8  1  0  0  0  0
  8  9  1  0  0  0  0
  8 10  2  0  0  0  0
 10 11  1  0  0  0  0
 11 12  2  0  0  0  0
 15 23  1  0  0  0  0
 15 16  1  0  0  0  0
 16 19  1  0  0  0  0
 19 22  1  0  0  0  0
 22  2  1  1  0  0  0
 22 23  1  0  0  0  0
 23 24  1  6  0  0  0
 24 25  1  0  0  0  0
 25 26  1  0  0  0  0
M  CHG  2  13  -1  18  -1
M  END
>  <CHROM.1>
-87.79006144,54.89397730,52.85254515,51.70183136,-116.22034706,60.37422265
178.70841943,-175.81574570,-24.45741728,-13.26270098,2.84867916,-1.08743314
1.22517585,-1.89693322

>  <Name>
ligand

>  <RI>
0

>  <Rbt.Current_Directory>
/home/itssahil/PROJECTS/Mol_Feturizer/New_Systems/rnas/2GDI

>  <Rbt.Executable>
rbdock ($Id: //depot/dev/client3/rdock/2013.1/src/exe/rbdock.cxx#4 $)

>  <Rbt.Library>
libRbt.so (2013.1, Build901 2013/11/27)

>  <Rbt.Parameter_File>
/export/apps/rDock/src/rDock_2013.1_src/data/scripts/dock_solv.prm

>  <Rbt.Receptor>
prm/pocket_docking_8.prm

>  <SCORE>
-15.5124

>  <SCORE.INTER>
-13.6166

>  <SCORE.INTER.CONST>
1

>  <SCORE.INTER.POLAR>
0

>  <SCORE.INTER.ROT>
8

>  <SCORE.INTER.SOLV>
15.4384

>  <SCORE.INTER.VDW>
-23.1572

>  <SCORE.INTER.norm>
-0.523716

>  <SCORE.INTRA>
-1.89583

>  <SCORE.INTRA.DIHEDRAL>
-2.6219

>  <SCORE.INTRA.DIHEDRAL.0>
8.13976

>  <SCORE.INTRA.POLAR>
0

>  <SCORE.INTRA.POLAR.0>
0

>  <SCORE.INTRA.REPUL>
0

>  <SCORE.INTRA.REPUL.0>
0

>  <SCORE.INTRA.SOLV>
-0.171357

>  <SCORE.INTRA.SOLV.lig_0>
-82.9561

>  <SCORE.INTRA.VDW>
-0.499198

>  <SCORE.INTRA.VDW.0>
-3.29171

>  <SCORE.INTRA.norm>
-0.0729164

>  <SCORE.RESTR>
0

>  <SCORE.RESTR.CAVITY>
0

>  <SCORE.RESTR.norm>
0

>  <SCORE.SYSTEM>
0

>  <SCORE.SYSTEM.CONST>
0

>  <SCORE.SYSTEM.DIHEDRAL>
0

>  <SCORE.SYSTEM.SOLV>
0

>  <SCORE.SYSTEM.norm>
0

>  <SCORE.heavy>
26

>  <SCORE.norm>
-0.596632

>  <RMSD>
8.876

$$$$
ligand
 OpenBabel11021811433D
libRbt.so/2013.1/901 2013/11/27
 26 27  0  0  0  0  0  0  0  0999 V2000
  -19.5862  -12.5897    1.2622 C   0  0  0  0  0  0  0  0  0  0  0  0
  -26.1465  -11.7296    6.5429 C   0  0  0  0  0  0  0  0  0  0  0  0
  -23.3344  -15.5052    8.4286 P   0  0  1  0  0  0  0  0  0  0  0  0
  -23.5650  -17.1820   10.7938 P   0  0  1  0  0  0  0  0  0  0  0  0
  -23.9920  -11.0407    4.6124 C   0  0  0  0  0  0  0  0  0  0  0  0
  -21.7820  -10.5724    3.4780 C   0  0  0  0  0  0  0  0  0  0  0  0
  -22.8332  -11.4482    3.7182 C   0  0  0  0  0  0  0  0  0  0  0  0
  -22.7974  -12.7053    3.1373 C   0  0  0  0  0  0  0  0  0  0  0  0
  -23.8004  -13.5933    3.3416 N   0  0  0  0  0  0  0  0  0  0  0  0
  -21.7502  -13.0506    2.3571 N   0  0  0  0  0  0  0  0  0  0  0  0
  -20.7403  -12.1807    2.1369 C   0  0  0  0  0  0  0  0  0  0  0  0
  -20.7593  -10.9462    2.6964 N   0  0  0  0  0  0  0  0  0  0  0  0
  -22.2529  -14.5843    7.9278 O   0  5  0  0  0  0  0  0  0  0  0  0
  -24.6962  -17.8718   10.0951 O   0  0  0  0  0  0  0  0  0  0  0  0
  -22.4435  -11.7318    8.2057 S   0  0  0  0  0  0  0  0  0  0  0  0
  -22.4322  -11.3291    6.5173 C   0  0  0  0  0  0  0  0  0  0  0  0
  -24.0097  -16.3885    7.4194 O   0  0  0  0  0  0  0  0  0  0  0  0
  -22.6054  -18.2029   11.3079 O   0  5  0  0  0  0  0  0  0  0  0  0
  -23.6972  -11.3431    6.0130 N   0  0  0  0  0  0  0  0  0  0  0  0
  -22.7358  -16.3624    9.6671 O   0  0  0  0  0  0  0  0  0  0  0  0
  -23.9533  -16.1692   11.8362 O   0  0  0  0  0  0  0  0  0  0  0  0
  -24.6846  -11.6584    6.8957 C   0  0  1  0  0  0  0  0  0  0  0  0
  -24.1530  -11.9098    8.2627 C   0  0  1  0  0  0  0  0  0  0  0  0
  -24.7689  -12.2854    9.5842 C   0  0  0  0  0  0  0  0  0  0  0  0
  -24.1606  -13.5989   10.0500 C   0  0  0  0  0  0  0  0  0  0  0  0
  -24.4851  -14.6017    9.0948 O   0  0  0  0  0  0  0  0  0  0  0  0
  1 11  1  0  0  0  0
  3 13  1  6  0  0  0
  3 17  2  0  0  0  0
  3 20  1  0  0  0  0
  3 26  1  0  0  0  0
  4 14  1  6  0  0  0
  4 18  1  0  0  0  0
  4 21  2  0  0  0  0
  4 20  1  0  0  0  0
  5 19  1  0  0  0  0
  5  7  1  0  0  0  0
  6  7  2  0  0  0  0
  6 12  1  0  0  0  0
  7  8  1  0  0  0  0
  8  9  1  0  0  0  0
  8 10  2  0  0  0  0
 10 11  1  0  0  0  0
 11 12  2  0  0  0  0
 15 23  1  0  0  0  0
 15 16  1  0  0  0  0
 16 19  1  0  0  0  0
 19 22  1  0  0  0  0
 22  2  1  1  0  0  0
 22 23  1  0  0  0  0
 23 24  1  6  0  0  0
 24 25  1  0  0  0  0
 25 26  1  0  0  0  0
M  CHG  2  13  -1  18  -1
M  END
>  <CHROM.1>
162.19028336,30.42143704,-87.34473105,41.02154378,-57.93717426,-62.15679708
126.47371415,-49.67593759,-23.17681566,-13.78796740,7.18551693,-1.18438678
-1.01907275,2.49082075

>  <Name>
ligand

>  <RI>
0

>  <Rbt.Current_Directory>
/home/itssahil/PROJECTS/Mol_Feturizer/New_Systems/rnas/2GDI

>  <Rbt.Executable>
rbdock ($Id: //depot/dev/client3/rdock/2013.1/src/exe/rbdock.cxx#4 $)

>  <Rbt.Library>
libRbt.so (2013.1, Build901 2013/11/27)

>  <Rbt.Parameter_File>
/export/apps/rDock/src/rDock_2013.1_src/data/scripts/dock_solv.prm

>  <Rbt.Receptor>
prm/blind_docking_60.prm

>  <SCORE>
-7.07192

>  <SCORE.INTER>
-9.82675

>  <SCORE.INTER.CONST>
1

>  <SCORE.INTER.POLAR>
0

>  <SCORE.INTER.ROT>
8

>  <SCORE.INTER.SOLV>
15.9351

>  <SCORE.INTER.VDW>
-20.7962

>  <SCORE.INTER.norm>
-0.377952

>  <SCORE.INTRA>
2.75483

>  <SCORE.INTRA.DIHEDRAL>
5.05784

>  <SCORE.INTRA.DIHEDRAL.0>
8.13976

>  <SCORE.INTRA.POLAR>
0

>  <SCORE.INTRA.POLAR.0>
0

>  <SCORE.INTRA.REPUL>
0

>  <SCORE.INTRA.REPUL.0>
0

>  <SCORE.INTRA.SOLV>
2.1862

>  <SCORE.INTRA.SOLV.lig_0>
-82.9561

>  <SCORE.INTRA.VDW>
-0.86719

>  <SCORE.INTRA.VDW.0>
-3.29171

>  <SCORE.INTRA.norm>
0.105955

>  <SCORE.RESTR>
0

>  <SCORE.RESTR.CAVITY>
0

>  <SCORE.RESTR.norm>
0

>  <SCORE.SYSTEM>
0

>  <SCORE.SYSTEM.CONST>
0

>  <SCORE.SYSTEM.DIHEDRAL>
0

>  <SCORE.SYSTEM.SOLV>
0

>  <SCORE.SYSTEM.norm>
0

>  <SCORE.heavy>
26

>  <SCORE.norm>
-0.271997

>  <RMSD>
8.897

$$$$
ligand
 OpenBabel11021811433D
libRbt.so/2013.1/901 2013/11/27
 26 27  0  0  0  0  0  0  0  0999 V2000
  -21.5065  -19.3377    1.1878 C   0  0  0  0  0  0  0  0  0  0  0  0
  -21.8412  -12.7564   -1.5513 C   0  0  0  0  0  0  0  0  0  0  0  0
  -15.6366  -10.2879    0.3911 P   0  0  1  0  0  0  0  0  0  0  0  0
  -13.9026  -12.6043    0.0982 P   0  0  1  0  0  0  0  0  0  0  0  0
  -23.3856  -13.9277    0.7040 C   0  0  0  0  0  0  0  0  0  0  0  0
  -22.4548  -16.0607   -0.2829 C   0  0  0  0  0  0  0  0  0  0  0  0
  -22.8989  -15.3612    0.8321 C   0  0  0  0  0  0  0  0  0  0  0  0
  -22.8764  -15.9919    2.0653 C   0  0  0  0  0  0  0  0  0  0  0  0
  -23.3007  -15.3504    3.1810 N   0  0  0  0  0  0  0  0  0  0  0  0
  -22.4265  -17.2622    2.1574 N   0  0  0  0  0  0  0  0  0  0  0  0
  -22.0013  -17.9225    1.0581 C   0  0  0  0  0  0  0  0  0  0  0  0
  -22.0172  -17.3213   -0.1566 N   0  0  0  0  0  0  0  0  0  0  0  0
  -15.7182  -10.6890    1.8405 O   0  5  0  0  0  0  0  0  0  0  0  0
  -12.7039  -11.8438    0.5761 O   0  0  0  0  0  0  0  0  0  0  0  0
  -20.5854  -11.4725    2.0889 S   0  0  0  0  0  0  0  0  0  0  0  0
  -21.9113  -12.5891    2.1802 C   0  0  0  0  0  0  0  0  0  0  0  0
  -14.9658   -8.9825    0.0736 O   0  0  0  0  0  0  0  0  0  0  0  0
  -14.5688  -13.2593    1.2620 O   0  5  0  0  0  0  0  0  0  0  0  0
  -22.2901  -12.9857    0.9336 N   0  0  0  0  0  0  0  0  0  0  0  0
  -14.9776  -11.5152   -0.4373 O   0  0  0  0  0  0  0  0  0  0  0  0
  -13.6695  -13.5499   -1.0485 O   0  0  0  0  0  0  0  0  0  0  0  0
  -21.5840  -12.4502   -0.0999 C   0  0  1  0  0  0  0  0  0  0  0  0
  -20.5101  -11.5346    0.3720 C   0  0  1  0  0  0  0  0  0  0  0  0
  -19.4623  -10.6943   -0.3084 C   0  0  0  0  0  0  0  0  0  0  0  0
  -18.0887  -11.2071    0.0946 C   0  0  0  0  0  0  0  0  0  0  0  0
  -17.1360  -10.1873   -0.1801 O   0  0  0  0  0  0  0  0  0  0  0  0
  1 11  1  0  0  0  0
  3 13  1  1  0  0  0
  3 17  2  0  0  0  0
  3 20  1  0  0  0  0
  3 26  1  0  0  0  0
  4 14  1  1  0  0  0
  4 18  1  0  0  0  0
  4 21  2  0  0  0  0
  4 20  1  0  0  0  0
  5 19  1  0  0  0  0
  5  7  1  0  0  0  0
  6  7  2  0  0  0  0
  6 12  1  0  0  0  0
  7  8  1  0  0  0  0
  8  9  1  0  0  0  0
  8 10  2  0  0  0  0
 10 11  1  0  0  0  0
 11 12  2  0  0  0  0
 15 23  1  0  0  0  0
 15 16  1  0  0  0  0
 16 19  1  0  0  0  0
 19 22  1  0  0  0  0
 22  2  1  1  0  0  0
 22 23  1  0  0  0  0
 23 24  1  6  0  0  0
 24 25  1  0  0  0  0
 25 26  1  0  0  0  0
M  CHG  2  13  -1  18  -1
M  END
>  <CHROM.1>
-30.16648200,-83.97208173,-92.15135394,-57.95915239,64.56469198,-161.51504152
167.84810763,-45.74758819,-18.77974311,-13.02471929,0.66020980,-2.62596849
0.10723448,-0.01861639

>  <Name>
ligand

>  <RI>
0

>  <Rbt.Current_Directory>
/home/itssahil/PROJECTS/Mol_Feturizer/New_Systems/rnas/2GDI

>  <Rbt.Executable>
rbdock ($Id: //depot/dev/client3/rdock/2013.1/src/exe/rbdock.cxx#4 $)

>  <Rbt.Library>
libRbt.so (2013.1, Build901 2013/11/27)

>  <Rbt.Parameter_File>
/export/apps/rDock/src/rDock_2013.1_src/data/scripts/dock_solv.prm

>  <Rbt.Receptor>
prm/pocket_docking_3.prm

>  <SCORE>
-7.64372

>  <SCORE.INTER>
-8.56021

>  <SCORE.INTER.CONST>
1

>  <SCORE.INTER.POLAR>
0

>  <SCORE.INTER.ROT>
8

>  <SCORE.INTER.SOLV>
24.0119

>  <SCORE.INTER.VDW>
-22.6441

>  <SCORE.INTER.norm>
-0.329239

>  <SCORE.INTRA>
0.88694

>  <SCORE.INTRA.DIHEDRAL>
0.595501

>  <SCORE.INTRA.DIHEDRAL.0>
8.13976

>  <SCORE.INTRA.POLAR>
0

>  <SCORE.INTRA.POLAR.0>
0

>  <SCORE.INTRA.REPUL>
0

>  <SCORE.INTRA.REPUL.0>
0

>  <SCORE.INTRA.SOLV>
1.60773

>  <SCORE.INTRA.SOLV.lig_0>
-82.9561

>  <SCORE.INTRA.VDW>
-0.214677

>  <SCORE.INTRA.VDW.0>
-3.29171

>  <SCORE.INTRA.norm>
0.0341131

>  <SCORE.RESTR>
0.0295528

>  <SCORE.RESTR.CAVITY>
0.0295528

>  <SCORE.RESTR.norm>
0.00113665

>  <SCORE.SYSTEM>
0

>  <SCORE.SYSTEM.CONST>
0

>  <SCORE.SYSTEM.DIHEDRAL>
0

>  <SCORE.SYSTEM.SOLV>
0

>  <SCORE.SYSTEM.norm>
0

>  <SCORE.heavy>
26

>  <SCORE.norm>
-0.293989

>  <RMSD>
8.911

$$$$
ligand
 OpenBabel11021811433D
libRbt.so/2013.1/901 2013/11/27
 26 27  0  0  0  0  0  0  0  0999 V2000
  -24.2536  -19.0914    1.8229 C   0  0  0  0  0  0  0  0  0  0  0  0
  -19.7810  -15.4269    0.9548 C   0  0  0  0  0  0  0  0  0  0  0  0
  -16.0628  -12.9073    0.6549 P   0  0  1  0  0  0  0  0  0  0  0  0
  -15.4185  -10.0718    0.7174 P   0  0  1  0  0  0  0  0  0  0  0  0
  -21.9821  -13.8218    2.1472 C   0  0  0  0  0  0  0  0  0  0  0  0
  -21.9747  -16.2899    2.6937 C   0  0  0  0  0  0  0  0  0  0  0  0
  -22.5784  -15.2160    2.0519 C   0  0  0  0  0  0  0  0  0  0  0  0
  -23.7422  -15.4389    1.3344 C   0  0  0  0  0  0  0  0  0  0  0  0
  -24.3663  -14.4228    0.6907 N   0  0  0  0  0  0  0  0  0  0  0  0
  -24.2617  -16.6844    1.2750 N   0  0  0  0  0  0  0  0  0  0  0  0
  -23.6552  -17.7133    1.9064 C   0  0  0  0  0  0  0  0  0  0  0  0
  -22.5153  -17.5136    2.6120 N   0  0  0  0  0  0  0  0  0  0  0  0
  -14.7289  -13.5139    0.3069 O   0  5  0  0  0  0  0  0  0  0  0  0
  -13.9371  -10.2932    0.7205 O   0  0  0  0  0  0  0  0  0  0  0  0
  -20.7820  -12.1803   -1.2664 S   0  0  0  0  0  0  0  0  0  0  0  0
  -21.7313  -12.3366    0.1785 C   0  0  0  0  0  0  0  0  0  0  0  0
  -16.4881  -12.9564    2.0942 O   0  0  0  0  0  0  0  0  0  0  0  0
  -15.7516   -8.9695   -0.2318 O   0  5  0  0  0  0  0  0  0  0  0  0
  -21.3535  -13.4393    0.8828 N   0  0  0  0  0  0  0  0  0  0  0  0
  -16.0984  -11.3951    0.0727 O   0  0  0  0  0  0  0  0  0  0  0  0
  -16.0616   -9.8948    2.0659 O   0  0  0  0  0  0  0  0  0  0  0  0
  -20.3459  -14.1751    0.3381 C   0  0  1  0  0  0  0  0  0  0  0  0
  -19.8512  -13.5881   -0.9367 C   0  0  1  0  0  0  0  0  0  0  0  0
  -18.7898  -13.9688   -1.9344 C   0  0  0  0  0  0  0  0  0  0  0  0
  -17.4810  -13.3090   -1.5298 C   0  0  0  0  0  0  0  0  0  0  0  0
  -17.1933  -13.6801   -0.1872 O   0  0  0  0  0  0  0  0  0  0  0  0
  1 11  1  0  0  0  0
  3 13  1  6  0  0  0
  3 17  2  0  0  0  0
  3 20  1  0  0  0  0
  3 26  1  0  0  0  0
  4 14  1  1  0  0  0
  4 18  1  0  0  0  0
  4 21  2  0  0  0  0
  4 20  1  0  0  0  0
  5 19  1  0  0  0  0
  5  7  1  0  0  0  0
  6  7  2  0  0  0  0
  6 12  1  0  0  0  0
  7  8  1  0  0  0  0
  8  9  1  0  0  0  0
  8 10  2  0  0  0  0
 10 11  1  0  0  0  0
 11 12  2  0  0  0  0
 15 23  1  0  0  0  0
 15 16  1  0  0  0  0
 16 19  1  0  0  0  0
 19 22  1  0  0  0  0
 22  2  1  1  0  0  0
 22 23  1  0  0  0  0
 23 24  1  6  0  0  0
 24 25  1  0  0  0  0
 25 26  1  0  0  0  0
M  CHG  2  13  -1  18  -1
M  END
>  <CHROM.1>
-79.20431040,121.42228664,106.91826005,63.32389073,90.93126582,54.93523808
-166.43900969,-83.58360307,-19.19490897,-13.42815788,0.64556113,-2.55824588
-0.18811771,-0.46756896

>  <Name>
ligand

>  <RI>
0

>  <Rbt.Current_Directory>
/home/itssahil/PROJECTS/Mol_Feturizer/New_Systems/rnas/2GDI

>  <Rbt.Executable>
rbdock ($Id: //depot/dev/client3/rdock/2013.1/src/exe/rbdock.cxx#4 $)

>  <Rbt.Library>
libRbt.so (2013.1, Build901 2013/11/27)

>  <Rbt.Parameter_File>
/export/apps/rDock/src/rDock_2013.1_src/data/scripts/dock_solv.prm

>  <Rbt.Receptor>
prm/pocket_docking_2.prm

>  <SCORE>
-0.409253

>  <SCORE.INTER>
-2.31463

>  <SCORE.INTER.CONST>
1

>  <SCORE.INTER.POLAR>
0

>  <SCORE.INTER.ROT>
8

>  <SCORE.INTER.SOLV>
19.6896

>  <SCORE.INTER.VDW>
-17.0396

>  <SCORE.INTER.norm>
-0.0890241

>  <SCORE.INTRA>
0.861583

>  <SCORE.INTRA.DIHEDRAL>
-0.84588

>  <SCORE.INTRA.DIHEDRAL.0>
8.13976

>  <SCORE.INTRA.POLAR>
0

>  <SCORE.INTRA.POLAR.0>
0

>  <SCORE.INTRA.REPUL>
0

>  <SCORE.INTRA.REPUL.0>
0

>  <SCORE.INTRA.SOLV>
1.44413

>  <SCORE.INTRA.SOLV.lig_0>
-82.9561

>  <SCORE.INTRA.VDW>
0.562459

>  <SCORE.INTRA.VDW.0>
-3.29171

>  <SCORE.INTRA.norm>
0.0331378

>  <SCORE.RESTR>
1.04379

>  <SCORE.RESTR.CAVITY>
1.04379

>  <SCORE.RESTR.norm>
0.0401458

>  <SCORE.SYSTEM>
0

>  <SCORE.SYSTEM.CONST>
0

>  <SCORE.SYSTEM.DIHEDRAL>
0

>  <SCORE.SYSTEM.SOLV>
0

>  <SCORE.SYSTEM.norm>
0

>  <SCORE.heavy>
26

>  <SCORE.norm>
-0.0157405

>  <RMSD>
8.912

$$$$
ligand
 OpenBabel11021811433D
libRbt.so/2013.1/901 2013/11/27
 26 27  0  0  0  0  0  0  0  0999 V2000
  -25.0427  -16.1382    4.8246 C   0  0  0  0  0  0  0  0  0  0  0  0
  -23.9276  -15.9089   -1.2917 C   0  0  0  0  0  0  0  0  0  0  0  0
  -18.7778  -17.3560   -1.6070 P   0  0  1  0  0  0  0  0  0  0  0  0
  -17.1249  -15.9381    0.3209 P   0  0  1  0  0  0  0  0  0  0  0  0
  -25.8383  -13.8227   -0.3753 C   0  0  0  0  0  0  0  0  0  0  0  0
  -25.8920  -15.7779    1.2261 C   0  0  0  0  0  0  0  0  0  0  0  0
  -25.6372  -14.4308    1.0025 C   0  0  0  0  0  0  0  0  0  0  0  0
  -25.1833  -13.6558    2.0572 C   0  0  0  0  0  0  0  0  0  0  0  0
  -24.9224  -12.3369    1.8876 N   0  0  0  0  0  0  0  0  0  0  0  0
  -24.9987  -14.2211    3.2700 N   0  0  0  0  0  0  0  0  0  0  0  0
  -25.2550  -15.5334    3.4632 C   0  0  0  0  0  0  0  0  0  0  0  0
  -25.7007  -16.3064    2.4429 N   0  0  0  0  0  0  0  0  0  0  0  0
  -17.5184  -17.6249   -2.3880 O   0  5  0  0  0  0  0  0  0  0  0  0
  -15.8692  -16.5713   -0.1947 O   0  0  0  0  0  0  0  0  0  0  0  0
  -22.5842  -12.1270   -1.8992 S   0  0  0  0  0  0  0  0  0  0  0  0
  -24.1535  -12.1822   -1.1595 C   0  0  0  0  0  0  0  0  0  0  0  0
  -19.8191  -18.4376   -1.5841 O   0  0  0  0  0  0  0  0  0  0  0  0
  -17.3674  -14.6574   -0.4060 O   0  5  0  0  0  0  0  0  0  0  0  0
  -24.5531  -13.4717   -0.9796 N   0  0  0  0  0  0  0  0  0  0  0  0
  -18.3571  -16.9001   -0.1096 O   0  0  0  0  0  0  0  0  0  0  0  0
  -17.2228  -15.7886    1.8146 O   0  0  0  0  0  0  0  0  0  0  0  0
  -23.6794  -14.4279   -1.3988 C   0  0  1  0  0  0  0  0  0  0  0  0
  -22.4348  -13.8390   -1.9632 C   0  0  1  0  0  0  0  0  0  0  0  0
  -21.1726  -14.4047   -2.5579 C   0  0  0  0  0  0  0  0  0  0  0  0
  -20.6577  -15.5094   -1.6487 C   0  0  0  0  0  0  0  0  0  0  0  0
  -19.4799  -16.0523   -2.2329 O   0  0  0  0  0  0  0  0  0  0  0  0
  1 11  1  0  0  0  0
  3 13  1  6  0  0  0
  3 17  2  0  0  0  0
  3 20  1  0  0  0  0
  3 26  1  0  0  0  0
  4 14  1  6  0  0  0
  4 18  1  0  0  0  0
  4 21  2  0  0  0  0
  4 20  1  0  0  0  0
  5 19  1  0  0  0  0
  5  7  1  0  0  0  0
  6  7  2  0  0  0  0
  6 12  1  0  0  0  0
  7  8  1  0  0  0  0
  8  9  1  0  0  0  0
  8 10  2  0  0  0  0
 10 11  1  0  0  0  0
 11 12  2  0  0  0  0
 15 23  1  0  0  0  0
 15 16  1  0  0  0  0
 16 19  1  0  0  0  0
 19 22  1  0  0  0  0
 22  2  1  1  0  0  0
 22 23  1  0  0  0  0
 23 24  1  6  0  0  0
 24 25  1  0  0  0  0
 25 26  1  0  0  0  0
M  CHG  2  13  -1  18  -1
M  END
>  <CHROM.1>
39.38825432,-109.95648609,-110.33998282,-58.21825252,133.87593791,178.93959208
-172.93657736,-176.39360188,-21.52602820,-15.20629936,-0.14820092,-3.04320191
0.38596539,-1.09003724

>  <Name>
ligand

>  <RI>
0

>  <Rbt.Current_Directory>
/home/itssahil/PROJECTS/Mol_Feturizer/New_Systems/rnas/2GDI

>  <Rbt.Executable>
rbdock ($Id: //depot/dev/client3/rdock/2013.1/src/exe/rbdock.cxx#4 $)

>  <Rbt.Library>
libRbt.so (2013.1, Build901 2013/11/27)

>  <Rbt.Parameter_File>
/export/apps/rDock/src/rDock_2013.1_src/data/scripts/dock_solv.prm

>  <Rbt.Receptor>
prm/pocket_docking_5.prm

>  <SCORE>
-6.37712

>  <SCORE.INTER>
-5.58426

>  <SCORE.INTER.CONST>
1

>  <SCORE.INTER.POLAR>
0

>  <SCORE.INTER.ROT>
8

>  <SCORE.INTER.SOLV>
15.0481

>  <SCORE.INTER.VDW>
-17.6722

>  <SCORE.INTER.norm>
-0.214779

>  <SCORE.INTRA>
-0.792863

>  <SCORE.INTRA.DIHEDRAL>
-2.90974

>  <SCORE.INTRA.DIHEDRAL.0>
8.13976

>  <SCORE.INTRA.POLAR>
0

>  <SCORE.INTRA.POLAR.0>
0

>  <SCORE.INTRA.REPUL>
0

>  <SCORE.INTRA.REPUL.0>
0

>  <SCORE.INTRA.SOLV>
1.9556

>  <SCORE.INTRA.SOLV.lig_0>
-82.9561

>  <SCORE.INTRA.VDW>
-0.315794

>  <SCORE.INTRA.VDW.0>
-3.29171

>  <SCORE.INTRA.norm>
-0.0304947

>  <SCORE.RESTR>
0

>  <SCORE.RESTR.CAVITY>
0

>  <SCORE.RESTR.norm>
0

>  <SCORE.SYSTEM>
0

>  <SCORE.SYSTEM.CONST>
0

>  <SCORE.SYSTEM.DIHEDRAL>
0

>  <SCORE.SYSTEM.SOLV>
0

>  <SCORE.SYSTEM.norm>
0

>  <SCORE.heavy>
26

>  <SCORE.norm>
-0.245274

>  <RMSD>
8.917

$$$$
ligand
 OpenBabel11021811433D
libRbt.so/2013.1/901 2013/11/27
 26 27  0  0  0  0  0  0  0  0999 V2000
  -25.6364  -12.2417    3.2981 C   0  0  0  0  0  0  0  0  0  0  0  0
  -24.0683  -19.2883    2.4242 C   0  0  0  0  0  0  0  0  0  0  0  0
  -19.5483  -16.7122   -0.0128 P   0  0  1  0  0  0  0  0  0  0  0  0
  -21.2087  -15.1017   -1.7758 P   0  0  1  0  0  0  0  0  0  0  0  0
  -24.4518  -17.6415    4.8704 C   0  0  0  0  0  0  0  0  0  0  0  0
  -25.3131  -15.9414    3.2097 C   0  0  0  0  0  0  0  0  0  0  0  0
  -24.7547  -16.2125    4.4524 C   0  0  0  0  0  0  0  0  0  0  0  0
  -24.4922  -15.1554    5.3084 C   0  0  0  0  0  0  0  0  0  0  0  0
  -23.9469  -15.3705    6.5302 N   0  0  0  0  0  0  0  0  0  0  0  0
  -24.7827  -13.8945    4.9208 N   0  0  0  0  0  0  0  0  0  0  0  0
  -25.3240  -13.6559    3.7062 C   0  0  0  0  0  0  0  0  0  0  0  0
  -25.5865  -14.6779    2.8555 N   0  0  0  0  0  0  0  0  0  0  0  0
  -18.7782  -17.4280   -1.0912 O   0  5  0  0  0  0  0  0  0  0  0  0
  -20.5486  -13.8439   -1.3006 O   0  0  0  0  0  0  0  0  0  0  0  0
  -20.5845  -18.3321    4.2749 S   0  0  0  0  0  0  0  0  0  0  0  0
  -21.9823  -17.6915    5.0804 C   0  0  0  0  0  0  0  0  0  0  0  0
  -18.8504  -15.5935    0.7058 O   0  0  0  0  0  0  0  0  0  0  0  0
  -20.4909  -15.6120   -2.9805 O   0  5  0  0  0  0  0  0  0  0  0  0
  -23.1195  -18.0424    4.4183 N   0  0  0  0  0  0  0  0  0  0  0  0
  -20.9640  -16.2298   -0.6372 O   0  0  0  0  0  0  0  0  0  0  0  0
  -22.6988  -15.0312   -1.9709 O   0  0  0  0  0  0  0  0  0  0  0  0
  -22.9455  -18.7963    3.2981 C   0  0  1  0  0  0  0  0  0  0  0  0
  -21.5102  -19.0955    3.0431 C   0  0  1  0  0  0  0  0  0  0  0  0
  -20.7613  -19.8591    1.9834 C   0  0  0  0  0  0  0  0  0  0  0  0
  -20.6448  -18.9860    0.7439 C   0  0  0  0  0  0  0  0  0  0  0  0
  -19.9583  -17.7934    1.1039 O   0  0  0  0  0  0  0  0  0  0  0  0
  1 11  1  0  0  0  0
  3 13  1  6  0  0  0
  3 17  2  0  0  0  0
  3 20  1  0  0  0  0
  3 26  1  0  0  0  0
  4 14  1  1  0  0  0
  4 18  1  0  0  0  0
  4 21  2  0  0  0  0
  4 20  1  0  0  0  0
  5 19  1  0  0  0  0
  5  7  1  0  0  0  0
  6  7  2  0  0  0  0
  6 12  1  0  0  0  0
  7  8  1  0  0  0  0
  8  9  1  0  0  0  0
  8 10  2  0  0  0  0
 10 11  1  0  0  0  0
 11 12  2  0  0  0  0
 15 23  1  0  0  0  0
 15 16  1  0  0  0  0
 16 19  1  0  0  0  0
 19 22  1  0  0  0  0
 22  2  1  1  0  0  0
 22 23  1  0  0  0  0
 23 24  1  6  0  0  0
 24 25  1  0  0  0  0
 25 26  1  0  0  0  0
M  CHG  2  13  -1  18  -1
M  END
>  <CHROM.1>
-67.74608584,80.25482666,87.32220167,-54.77078893,-99.57400377,59.00909312
174.26150757,-53.13715582,-22.07349537,-16.47791609,1.85361016,2.51635461
-0.75547224,2.27603722

>  <Name>
ligand

>  <RI>
0

>  <Rbt.Current_Directory>
/home/itssahil/PROJECTS/Mol_Feturizer/New_Systems/rnas/2GDI

>  <Rbt.Executable>
rbdock ($Id: //depot/dev/client3/rdock/2013.1/src/exe/rbdock.cxx#4 $)

>  <Rbt.Library>
libRbt.so (2013.1, Build901 2013/11/27)

>  <Rbt.Parameter_File>
/export/apps/rDock/src/rDock_2013.1_src/data/scripts/dock_solv.prm

>  <Rbt.Receptor>
prm/pocket_docking_8.prm

>  <SCORE>
-11.415

>  <SCORE.INTER>
-9.478

>  <SCORE.INTER.CONST>
1

>  <SCORE.INTER.POLAR>
0

>  <SCORE.INTER.ROT>
8

>  <SCORE.INTER.SOLV>
9.77019

>  <SCORE.INTER.VDW>
-18.5087

>  <SCORE.INTER.norm>
-0.364538

>  <SCORE.INTRA>
-1.93704

>  <SCORE.INTRA.DIHEDRAL>
-3.21325

>  <SCORE.INTRA.DIHEDRAL.0>
8.13976

>  <SCORE.INTRA.POLAR>
0

>  <SCORE.INTRA.POLAR.0>
0

>  <SCORE.INTRA.REPUL>
0

>  <SCORE.INTRA.REPUL.0>
0

>  <SCORE.INTRA.SOLV>
0.987638

>  <SCORE.INTRA.SOLV.lig_0>
-82.9561

>  <SCORE.INTRA.VDW>
-0.824234

>  <SCORE.INTRA.VDW.0>
-3.29171

>  <SCORE.INTRA.norm>
-0.0745016

>  <SCORE.RESTR>
0

>  <SCORE.RESTR.CAVITY>
0

>  <SCORE.RESTR.norm>
0

>  <SCORE.SYSTEM>
0

>  <SCORE.SYSTEM.CONST>
0

>  <SCORE.SYSTEM.DIHEDRAL>
0

>  <SCORE.SYSTEM.SOLV>
0

>  <SCORE.SYSTEM.norm>
0

>  <SCORE.heavy>
26

>  <SCORE.norm>
-0.43904

>  <RMSD>
8.917

$$$$
ligand
 OpenBabel11021811433D
libRbt.so/2013.1/901 2013/11/27
 26 27  0  0  0  0  0  0  0  0999 V2000
  -20.4944  -12.5144   11.0917 C   0  0  0  0  0  0  0  0  0  0  0  0
  -22.4278   -9.7459    4.6255 C   0  0  0  0  0  0  0  0  0  0  0  0
  -17.8137  -11.3340    1.1259 P   0  0  1  0  0  0  0  0  0  0  0  0
  -16.4277  -13.8425    0.6308 P   0  0  1  0  0  0  0  0  0  0  0  0
  -23.9362  -11.3227    6.6458 C   0  0  0  0  0  0  0  0  0  0  0  0
  -22.2180  -10.6560    8.3760 C   0  0  0  0  0  0  0  0  0  0  0  0
  -23.0194  -11.6420    7.8144 C   0  0  0  0  0  0  0  0  0  0  0  0
  -22.9760  -12.9189    8.3498 C   0  0  0  0  0  0  0  0  0  0  0  0
  -23.7386  -13.9138    7.8349 N   0  0  0  0  0  0  0  0  0  0  0  0
  -22.1635  -13.1763    9.3977 N   0  0  0  0  0  0  0  0  0  0  0  0
  -21.3922  -12.2009    9.9256 C   0  0  0  0  0  0  0  0  0  0  0  0
  -21.4210  -10.9461    9.4138 N   0  0  0  0  0  0  0  0  0  0  0  0
  -17.4120  -10.3792    2.2192 O   0  5  0  0  0  0  0  0  0  0  0  0
  -14.9988  -13.4012    0.7148 O   0  0  0  0  0  0  0  0  0  0  0  0
  -22.9121  -13.6392    3.5844 S   0  0  0  0  0  0  0  0  0  0  0  0
  -23.6299  -13.2489    5.1159 C   0  0  0  0  0  0  0  0  0  0  0  0
  -17.4200  -10.9785   -0.2789 O   0  0  0  0  0  0  0  0  0  0  0  0
  -16.5769  -15.1658    1.3044 O   0  5  0  0  0  0  0  0  0  0  0  0
  -23.4377  -11.9339    5.4137 N   0  0  0  0  0  0  0  0  0  0  0  0
  -17.2991  -12.8158    1.5337 O   0  0  0  0  0  0  0  0  0  0  0  0
  -17.0476  -13.8123   -0.7397 O   0  0  0  0  0  0  0  0  0  0  0  0
  -22.7472  -11.2108    4.4897 C   0  0  1  0  0  0  0  0  0  0  0  0
  -22.3560  -12.0346    3.3138 C   0  0  1  0  0  0  0  0  0  0  0  0
  -21.6034  -11.7658    2.0378 C   0  0  0  0  0  0  0  0  0  0  0  0
  -20.1169  -11.7045    2.3521 C   0  0  0  0  0  0  0  0  0  0  0  0
  -19.4166  -11.4562    1.1392 O   0  0  0  0  0  0  0  0  0  0  0  0
  1 11  1  0  0  0  0
  3 13  1  1  0  0  0
  3 17  2  0  0  0  0
  3 20  1  0  0  0  0
  3 26  1  0  0  0  0
  4 14  1  6  0  0  0
  4 18  1  0  0  0  0
  4 21  2  0  0  0  0
  4 20  1  0  0  0  0
  5 19  1  0  0  0  0
  5  7  1  0  0  0  0
  6  7  2  0  0  0  0
  6 12  1  0  0  0  0
  7  8  1  0  0  0  0
  8  9  1  0  0  0  0
  8 10  2  0  0  0  0
 10 11  1  0  0  0  0
 11 12  2  0  0  0  0
 15 23  1  0  0  0  0
 15 16  1  0  0  0  0
 16 19  1  0  0  0  0
 19 22  1  0  0  0  0
 22  2  1  6  0  0  0
 22 23  1  0  0  0  0
 23 24  1  1  0  0  0
 24 25  1  0  0  0  0
 25 26  1  0  0  0  0
M  CHG  2  13  -1  18  -1
M  END
>  <CHROM.1>
-128.81165113,79.69656500,108.84095431,79.95972423,-101.89928157,179.74805040
-179.97220808,-49.17160309,-20.21996873,-12.32656602,3.99968317,-2.22707507
0.18673466,-1.50988172

>  <Name>
ligand

>  <RI>
0

>  <Rbt.Current_Directory>
/home/itssahil/PROJECTS/Mol_Feturizer/New_Systems/rnas/2GDI

>  <Rbt.Executable>
rbdock ($Id: //depot/dev/client3/rdock/2013.1/src/exe/rbdock.cxx#4 $)

>  <Rbt.Library>
libRbt.so (2013.1, Build901 2013/11/27)

>  <Rbt.Parameter_File>
/export/apps/rDock/src/rDock_2013.1_src/data/scripts/dock_solv.prm

>  <Rbt.Receptor>
prm/blind_docking_40.prm

>  <SCORE>
-8.68946

>  <SCORE.INTER>
-9.01537

>  <SCORE.INTER.CONST>
1

>  <SCORE.INTER.POLAR>
0

>  <SCORE.INTER.ROT>
8

>  <SCORE.INTER.SOLV>
14.9246

>  <SCORE.INTER.VDW>
-19.9185

>  <SCORE.INTER.norm>
-0.346745

>  <SCORE.INTRA>
0.325911

>  <SCORE.INTRA.DIHEDRAL>
-0.601796

>  <SCORE.INTRA.DIHEDRAL.0>
8.13976

>  <SCORE.INTRA.POLAR>
0

>  <SCORE.INTRA.POLAR.0>
0

>  <SCORE.INTRA.REPUL>
0

>  <SCORE.INTRA.REPUL.0>
0

>  <SCORE.INTRA.SOLV>
1.72499

>  <SCORE.INTRA.SOLV.lig_0>
-82.9561

>  <SCORE.INTRA.VDW>
-0.235687

>  <SCORE.INTRA.VDW.0>
-3.29171

>  <SCORE.INTRA.norm>
0.0125351

>  <SCORE.RESTR>
0

>  <SCORE.RESTR.CAVITY>
0

>  <SCORE.RESTR.norm>
0

>  <SCORE.SYSTEM>
0

>  <SCORE.SYSTEM.CONST>
0

>  <SCORE.SYSTEM.DIHEDRAL>
0

>  <SCORE.SYSTEM.SOLV>
0

>  <SCORE.SYSTEM.norm>
0

>  <SCORE.heavy>
26

>  <SCORE.norm>
-0.33421

>  <RMSD>
8.921

$$$$
ligand
 OpenBabel11021811433D
libRbt.so/2013.1/901 2013/11/27
 26 27  0  0  0  0  0  0  0  0999 V2000
  -22.5310  -13.1404    8.7957 C   0  0  0  0  0  0  0  0  0  0  0  0
  -24.1359  -18.9801    2.7784 C   0  0  0  0  0  0  0  0  0  0  0  0
  -19.9080  -16.7209   -0.2542 P   0  0  1  0  0  0  0  0  0  0  0  0
  -21.7499  -14.7768   -1.3885 P   0  0  1  0  0  0  0  0  0  0  0  0
  -23.9041  -17.5509    5.3759 C   0  0  0  0  0  0  0  0  0  0  0  0
  -23.5601  -15.0829    5.8011 C   0  0  0  0  0  0  0  0  0  0  0  0
  -23.5309  -16.3871    6.2785 C   0  0  0  0  0  0  0  0  0  0  0  0
  -23.1678  -16.6044    7.5975 C   0  0  0  0  0  0  0  0  0  0  0  0
  -23.1237  -17.8590    8.1078 N   0  0  0  0  0  0  0  0  0  0  0  0
  -22.8534  -15.5532    8.3854 N   0  0  0  0  0  0  0  0  0  0  0  0
  -22.8876  -14.2938    7.8976 C   0  0  0  0  0  0  0  0  0  0  0  0
  -23.2395  -14.0627    6.6091 N   0  0  0  0  0  0  0  0  0  0  0  0
  -19.5703  -17.3739   -1.5687 O   0  5  0  0  0  0  0  0  0  0  0  0
  -20.7548  -13.6817   -1.1555 O   0  0  0  0  0  0  0  0  0  0  0  0
  -20.3077  -18.6391    4.0841 S   0  0  0  0  0  0  0  0  0  0  0  0
  -21.4620  -17.9184    5.1617 C   0  0  0  0  0  0  0  0  0  0  0  0
  -18.8861  -15.7934    0.3376 O   0  0  0  0  0  0  0  0  0  0  0  0
  -21.5720  -15.3215   -2.7665 O   0  5  0  0  0  0  0  0  0  0  0  0
  -22.7260  -18.0622    4.6754 N   0  0  0  0  0  0  0  0  0  0  0  0
  -21.3527  -16.0014   -0.4029 O   0  0  0  0  0  0  0  0  0  0  0  0
  -23.1827  -14.4437   -1.0733 O   0  0  0  0  0  0  0  0  0  0  0  0
  -22.8336  -18.7163    3.4862 C   0  0  1  0  0  0  0  0  0  0  0  0
  -21.5100  -19.1591    2.9701 C   0  0  1  0  0  0  0  0  0  0  0  0
  -21.0471  -19.8979    1.7425 C   0  0  0  0  0  0  0  0  0  0  0  0
  -21.0700  -18.9417    0.5604 C   0  0  0  0  0  0  0  0  0  0  0  0
  -20.1569  -17.8842    0.8271 O   0  0  0  0  0  0  0  0  0  0  0  0
  1 11  1  0  0  0  0
  3 13  1  6  0  0  0
  3 17  2  0  0  0  0
  3 20  1  0  0  0  0
  3 26  1  0  0  0  0
  4 14  1  1  0  0  0
  4 18  1  0  0  0  0
  4 21  2  0  0  0  0
  4 20  1  0  0  0  0
  5 19  1  0  0  0  0
  5  7  1  0  0  0  0
  6  7  2  0  0  0  0
  6 12  1  0  0  0  0
  7  8  1  0  0  0  0
  8  9  1  0  0  0  0
  8 10  2  0  0  0  0
 10 11  1  0  0  0  0
 11 12  2  0  0  0  0
 15 23  1  0  0  0  0
 15 16  1  0  0  0  0
 16 19  1  0  0  0  0
 19 22  1  0  0  0  0
 22  2  1  1  0  0  0
 22 23  1  0  0  0  0
 23 24  1  6  0  0  0
 24 25  1  0  0  0  0
 25 26  1  0  0  0  0
M  CHG  2  13  -1  18  -1
M  END
>  <CHROM.1>
-63.29553493,25.23575465,89.98965357,-52.45888571,-102.09198124,62.15123758
178.05541816,-52.34193050,-21.74155671,-16.62185226,2.69871566,2.46539741
-1.24460903,2.44695164

>  <Name>
ligand

>  <RI>
0

>  <Rbt.Current_Directory>
/home/itssahil/PROJECTS/Mol_Feturizer/New_Systems/rnas/2GDI

>  <Rbt.Executable>
rbdock ($Id: //depot/dev/client3/rdock/2013.1/src/exe/rbdock.cxx#4 $)

>  <Rbt.Library>
libRbt.so (2013.1, Build901 2013/11/27)

>  <Rbt.Parameter_File>
/export/apps/rDock/src/rDock_2013.1_src/data/scripts/dock_solv.prm

>  <Rbt.Receptor>
prm/pocket_docking_7.prm

>  <SCORE>
-12.587

>  <SCORE.INTER>
-11.0814

>  <SCORE.INTER.CONST>
1

>  <SCORE.INTER.POLAR>
0

>  <SCORE.INTER.ROT>
8

>  <SCORE.INTER.SOLV>
10.528

>  <SCORE.INTER.VDW>
-19.8303

>  <SCORE.INTER.norm>
-0.426207

>  <SCORE.INTRA>
-1.5056

>  <SCORE.INTRA.DIHEDRAL>
-3.33636

>  <SCORE.INTRA.DIHEDRAL.0>
8.13976

>  <SCORE.INTRA.POLAR>
0

>  <SCORE.INTRA.POLAR.0>
0

>  <SCORE.INTRA.REPUL>
0

>  <SCORE.INTRA.REPUL.0>
0

>  <SCORE.INTRA.SOLV>
0.978238

>  <SCORE.INTRA.SOLV.lig_0>
-82.9561

>  <SCORE.INTRA.VDW>
-0.326542

>  <SCORE.INTRA.VDW.0>
-3.29171

>  <SCORE.INTRA.norm>
-0.0579079

>  <SCORE.RESTR>
0

>  <SCORE.RESTR.CAVITY>
0

>  <SCORE.RESTR.norm>
0

>  <SCORE.SYSTEM>
0

>  <SCORE.SYSTEM.CONST>
0

>  <SCORE.SYSTEM.DIHEDRAL>
0

>  <SCORE.SYSTEM.SOLV>
0

>  <SCORE.SYSTEM.norm>
0

>  <SCORE.heavy>
26

>  <SCORE.norm>
-0.484115

>  <RMSD>
8.923

$$$$
ligand
 OpenBabel11021811433D
libRbt.so/2013.1/901 2013/11/27
 26 27  0  0  0  0  0  0  0  0999 V2000
  -24.1966  -14.5853   -2.6334 C   0  0  0  0  0  0  0  0  0  0  0  0
  -24.5735  -18.9247    2.8507 C   0  0  0  0  0  0  0  0  0  0  0  0
  -23.6933  -15.4508    4.7367 P   0  0  1  0  0  0  0  0  0  0  0  0
  -22.5067  -13.0993    3.5033 P   0  0  1  0  0  0  0  0  0  0  0  0
  -23.7741  -19.6363    0.0762 C   0  0  0  0  0  0  0  0  0  0  0  0
  -24.4315  -17.1966   -0.0017 C   0  0  0  0  0  0  0  0  0  0  0  0
  -23.8944  -18.3045   -0.6450 C   0  0  0  0  0  0  0  0  0  0  0  0
  -23.4582  -18.1675   -1.9527 C   0  0  0  0  0  0  0  0  0  0  0  0
  -22.9283  -19.2201   -2.6217 N   0  0  0  0  0  0  0  0  0  0  0  0
  -23.5625  -16.9702   -2.5693 N   0  0  0  0  0  0  0  0  0  0  0  0
  -24.0901  -15.9075   -1.9231 C   0  0  0  0  0  0  0  0  0  0  0  0
  -24.5229  -16.0237   -0.6439 N   0  0  0  0  0  0  0  0  0  0  0  0
  -23.6940  -15.0555    6.1900 O   0  5  0  0  0  0  0  0  0  0  0  0
  -21.1753  -12.8299    2.8722 O   0  0  0  0  0  0  0  0  0  0  0  0
  -20.5917  -19.6066    2.4551 S   0  0  0  0  0  0  0  0  0  0  0  0
  -21.4662  -19.7932    0.9673 C   0  0  0  0  0  0  0  0  0  0  0  0
  -24.9903  -15.3320    3.9893 O   0  0  0  0  0  0  0  0  0  0  0  0
  -23.5711  -13.0340    2.4592 O   0  5  0  0  0  0  0  0  0  0  0  0
  -22.7931  -19.5530    1.1583 N   0  0  0  0  0  0  0  0  0  0  0  0
  -22.4996  -14.6447    3.9935 O   0  0  0  0  0  0  0  0  0  0  0  0
  -22.8354  -12.2826    4.7233 O   0  0  0  0  0  0  0  0  0  0  0  0
  -23.1606  -19.2272    2.4281 C   0  0  1  0  0  0  0  0  0  0  0  0
  -21.9963  -19.1869    3.3540 C   0  0  1  0  0  0  0  0  0  0  0  0
  -21.8214  -18.8958    4.8208 C   0  0  0  0  0  0  0  0  0  0  0  0
  -21.9403  -17.3954    5.0376 C   0  0  0  0  0  0  0  0  0  0  0  0
  -23.2458  -16.9919    4.6427 O   0  0  0  0  0  0  0  0  0  0  0  0
  1 11  1  0  0  0  0
  3 13  1  1  0  0  0
  3 17  2  0  0  0  0
  3 20  1  0  0  0  0
  3 26  1  0  0  0  0
  4 14  1  6  0  0  0
  4 18  1  0  0  0  0
  4 21  2  0  0  0  0
  4 20  1  0  0  0  0
  5 19  1  0  0  0  0
  5  7  1  0  0  0  0
  6  7  2  0  0  0  0
  6 12  1  0  0  0  0
  7  8  1  0  0  0  0
  8  9  1  0  0  0  0
  8 10  2  0  0  0  0
 10 11  1  0  0  0  0
 11 12  2  0  0  0  0
 15 23  1  0  0  0  0
 15 16  1  0  0  0  0
 16 19  1  0  0  0  0
 19 22  1  0  0  0  0
 22  2  1  6  0  0  0
 22 23  1  0  0  0  0
 23 24  1  1  0  0  0
 24 25  1  0  0  0  0
 25 26  1  0  0  0  0
M  CHG  2  13  -1  18  -1
M  END
>  <CHROM.1>
-78.61346367,-88.10807093,-67.38571097,-179.88488828,105.97381443,62.01169897
-179.49707702,-64.61223706,-23.02288698,-16.60193089,2.15108727,1.71123192
1.30683700,-2.38121290

>  <Name>
ligand

>  <RI>
0

>  <Rbt.Current_Directory>
/home/itssahil/PROJECTS/Mol_Feturizer/New_Systems/rnas/2GDI

>  <Rbt.Executable>
rbdock ($Id: //depot/dev/client3/rdock/2013.1/src/exe/rbdock.cxx#4 $)

>  <Rbt.Library>
libRbt.so (2013.1, Build901 2013/11/27)

>  <Rbt.Parameter_File>
/export/apps/rDock/src/rDock_2013.1_src/data/scripts/dock_solv.prm

>  <Rbt.Receptor>
prm/pocket_docking_5.prm

>  <SCORE>
-10.0705

>  <SCORE.INTER>
-9.22125

>  <SCORE.INTER.CONST>
1

>  <SCORE.INTER.POLAR>
0

>  <SCORE.INTER.ROT>
8

>  <SCORE.INTER.SOLV>
10.4585

>  <SCORE.INTER.VDW>
-18.567

>  <SCORE.INTER.norm>
-0.354664

>  <SCORE.INTRA>
-0.849209

>  <SCORE.INTRA.DIHEDRAL>
-2.98884

>  <SCORE.INTRA.DIHEDRAL.0>
8.13976

>  <SCORE.INTRA.POLAR>
0

>  <SCORE.INTRA.POLAR.0>
0

>  <SCORE.INTRA.REPUL>
0

>  <SCORE.INTRA.REPUL.0>
0

>  <SCORE.INTRA.SOLV>
2.4653

>  <SCORE.INTRA.SOLV.lig_0>
-82.9561

>  <SCORE.INTRA.VDW>
-0.58744

>  <SCORE.INTRA.VDW.0>
-3.29171

>  <SCORE.INTRA.norm>
-0.0326619

>  <SCORE.RESTR>
0

>  <SCORE.RESTR.CAVITY>
0

>  <SCORE.RESTR.norm>
0

>  <SCORE.SYSTEM>
0

>  <SCORE.SYSTEM.CONST>
0

>  <SCORE.SYSTEM.DIHEDRAL>
0

>  <SCORE.SYSTEM.SOLV>
0

>  <SCORE.SYSTEM.norm>
0

>  <SCORE.heavy>
26

>  <SCORE.norm>
-0.387325

>  <RMSD>
8.936

$$$$
ligand
 OpenBabel11021811433D
libRbt.so/2013.1/901 2013/11/27
 26 27  0  0  0  0  0  0  0  0999 V2000
  -25.3484  -13.5018    9.4958 C   0  0  0  0  0  0  0  0  0  0  0  0
  -23.5658  -13.8665    2.8937 C   0  0  0  0  0  0  0  0  0  0  0  0
  -24.9445  -12.9866   -3.1640 P   0  0  1  0  0  0  0  0  0  0  0  0
  -27.3757  -13.6734   -4.6050 P   0  0  1  0  0  0  0  0  0  0  0  0
  -22.6557  -11.7209    4.7407 C   0  0  0  0  0  0  0  0  0  0  0  0
  -23.7824  -13.5094    6.1272 C   0  0  0  0  0  0  0  0  0  0  0  0
  -23.3766  -12.1875    5.9942 C   0  0  0  0  0  0  0  0  0  0  0  0
  -23.6300  -11.3064    7.0326 C   0  0  0  0  0  0  0  0  0  0  0  0
  -23.2540  -10.0072    6.9481 N   0  0  0  0  0  0  0  0  0  0  0  0
  -24.2600  -11.7469    8.1433 N   0  0  0  0  0  0  0  0  0  0  0  0
  -24.6467  -13.0371    8.2486 C   0  0  0  0  0  0  0  0  0  0  0  0
  -24.4078  -13.9128    7.2419 N   0  0  0  0  0  0  0  0  0  0  0  0
  -24.4987  -14.4080   -3.3858 O   0  5  0  0  0  0  0  0  0  0  0  0
  -28.1283  -13.0064   -5.7150 O   0  0  0  0  0  0  0  0  0  0  0  0
  -25.2262  -10.2503    2.0917 S   0  0  0  0  0  0  0  0  0  0  0  0
  -24.1354  -10.2151    3.4415 C   0  0  0  0  0  0  0  0  0  0  0  0
  -23.8925  -11.9168   -3.2241 O   0  0  0  0  0  0  0  0  0  0  0  0
  -26.6954  -14.8928   -5.1318 O   0  5  0  0  0  0  0  0  0  0  0  0
  -23.6092  -11.4513    3.6644 N   0  0  0  0  0  0  0  0  0  0  0  0
  -26.1704  -12.6766   -4.1780 O   0  0  0  0  0  0  0  0  0  0  0  0
  -28.1554  -13.9384   -3.3459 O   0  0  0  0  0  0  0  0  0  0  0  0
  -24.0250  -12.4346    2.8196 C   0  0  1  0  0  0  0  0  0  0  0  0
  -24.9786  -11.9262    1.7966 C   0  0  1  0  0  0  0  0  0  0  0  0
  -25.7331  -12.5492    0.6522 C   0  0  0  0  0  0  0  0  0  0  0  0
  -24.8148  -12.6167   -0.5579 C   0  0  0  0  0  0  0  0  0  0  0  0
  -25.6098  -12.8983   -1.7032 O   0  0  0  0  0  0  0  0  0  0  0  0
  1 11  1  0  0  0  0
  3 13  1  6  0  0  0
  3 17  2  0  0  0  0
  3 20  1  0  0  0  0
  3 26  1  0  0  0  0
  4 14  1  6  0  0  0
  4 18  1  0  0  0  0
  4 21  2  0  0  0  0
  4 20  1  0  0  0  0
  5 19  1  0  0  0  0
  5  7  1  0  0  0  0
  6  7  2  0  0  0  0
  6 12  1  0  0  0  0
  7  8  1  0  0  0  0
  8  9  1  0  0  0  0
  8 10  2  0  0  0  0
 10 11  1  0  0  0  0
 11 12  2  0  0  0  0
 15 23  1  0  0  0  0
 15 16  1  0  0  0  0
 16 19  1  0  0  0  0
 19 22  1  0  0  0  0
 22  2  1  6  0  0  0
 22 23  1  0  0  0  0
 23 24  1  1  0  0  0
 24 25  1  0  0  0  0
 25 26  1  0  0  0  0
M  CHG  2  13  -1  18  -1
M  END
>  <CHROM.1>
38.52448590,92.85903110,81.04279329,-171.42185586,98.12097281,-166.21434365
177.92056234,88.77474478,-25.06749223,-12.57433498,1.06067215,1.17673160
0.98559935,1.78701056

>  <Name>
ligand

>  <RI>
0

>  <Rbt.Current_Directory>
/home/itssahil/PROJECTS/Mol_Feturizer/New_Systems/rnas/2GDI

>  <Rbt.Executable>
rbdock ($Id: //depot/dev/client3/rdock/2013.1/src/exe/rbdock.cxx#4 $)

>  <Rbt.Library>
libRbt.so (2013.1, Build901 2013/11/27)

>  <Rbt.Parameter_File>
/export/apps/rDock/src/rDock_2013.1_src/data/scripts/dock_solv.prm

>  <Rbt.Receptor>
prm/blind_docking_40.prm

>  <SCORE>
-14.4813

>  <SCORE.INTER>
-14.7155

>  <SCORE.INTER.CONST>
1

>  <SCORE.INTER.POLAR>
0

>  <SCORE.INTER.ROT>
8

>  <SCORE.INTER.SOLV>
16.769

>  <SCORE.INTER.VDW>
-24.3333

>  <SCORE.INTER.norm>
-0.565981

>  <SCORE.INTRA>
0.227915

>  <SCORE.INTRA.DIHEDRAL>
-1.23266

>  <SCORE.INTRA.DIHEDRAL.0>
8.13976

>  <SCORE.INTRA.POLAR>
0

>  <SCORE.INTRA.POLAR.0>
0

>  <SCORE.INTRA.REPUL>
0

>  <SCORE.INTRA.REPUL.0>
0

>  <SCORE.INTRA.SOLV>
2.07516

>  <SCORE.INTRA.SOLV.lig_0>
-82.9561

>  <SCORE.INTRA.VDW>
-0.193336

>  <SCORE.INTRA.VDW.0>
-3.29171

>  <SCORE.INTRA.norm>
0.00876597

>  <SCORE.RESTR>
0.00631716

>  <SCORE.RESTR.CAVITY>
0.00631716

>  <SCORE.RESTR.norm>
0.000242968

>  <SCORE.SYSTEM>
0

>  <SCORE.SYSTEM.CONST>
0

>  <SCORE.SYSTEM.DIHEDRAL>
0

>  <SCORE.SYSTEM.SOLV>
0

>  <SCORE.SYSTEM.norm>
0

>  <SCORE.heavy>
26

>  <SCORE.norm>
-0.556972

>  <RMSD>
8.945

$$$$
ligand
 OpenBabel11021811433D
libRbt.so/2013.1/901 2013/11/27
 26 27  0  0  0  0  0  0  0  0999 V2000
  -19.8271  -18.2046   -1.0183 C   0  0  0  0  0  0  0  0  0  0  0  0
  -22.5063  -17.8698    5.1682 C   0  0  0  0  0  0  0  0  0  0  0  0
  -25.8273  -12.0043    4.1014 P   0  0  1  0  0  0  0  0  0  0  0  0
  -25.4912  -11.7488    1.2238 P   0  0  1  0  0  0  0  0  0  0  0  0
  -23.8200  -19.3553    2.9523 C   0  0  0  0  0  0  0  0  0  0  0  0
  -21.5874  -18.4022    2.2470 C   0  0  0  0  0  0  0  0  0  0  0  0
  -22.7701  -19.0428    1.8995 C   0  0  0  0  0  0  0  0  0  0  0  0
  -22.9673  -19.4030    0.5765 C   0  0  0  0  0  0  0  0  0  0  0  0
  -24.1055  -20.0285    0.1896 N   0  0  0  0  0  0  0  0  0  0  0  0
  -22.0139  -19.1272   -0.3398 N   0  0  0  0  0  0  0  0  0  0  0  0
  -20.8725  -18.5018    0.0224 C   0  0  0  0  0  0  0  0  0  0  0  0
  -20.6632  -18.1412    1.3121 N   0  0  0  0  0  0  0  0  0  0  0  0
  -24.5814  -11.1639    4.2015 O   0  5  0  0  0  0  0  0  0  0  0  0
  -25.6656  -10.2807    1.4643 O   0  0  0  0  0  0  0  0  0  0  0  0
  -25.9429  -16.1297    3.8882 S   0  0  0  0  0  0  0  0  0  0  0  0
  -25.5524  -17.5837    3.0243 C   0  0  0  0  0  0  0  0  0  0  0  0
  -27.1068  -11.4034    4.6078 O   0  0  0  0  0  0  0  0  0  0  0  0
  -24.0366  -12.0609    1.1050 O   0  5  0  0  0  0  0  0  0  0  0  0
  -24.3936  -18.1234    3.4941 N   0  0  0  0  0  0  0  0  0  0  0  0
  -25.9719  -12.5143    2.5698 O   0  0  0  0  0  0  0  0  0  0  0  0
  -26.3070  -12.3350    0.1039 O   0  0  0  0  0  0  0  0  0  0  0  0
  -23.7910  -17.4443    4.5086 C   0  0  1  0  0  0  0  0  0  0  0  0
  -24.5607  -16.2343    4.9059 C   0  0  1  0  0  0  0  0  0  0  0  0
  -24.3697  -15.1495    5.9323 C   0  0  0  0  0  0  0  0  0  0  0  0
  -24.2668  -13.8125    5.2153 C   0  0  0  0  0  0  0  0  0  0  0  0
  -25.5849  -13.3518    4.9439 O   0  0  0  0  0  0  0  0  0  0  0  0
  1 11  1  0  0  0  0
  3 13  1  1  0  0  0
  3 17  2  0  0  0  0
  3 20  1  0  0  0  0
  3 26  1  0  0  0  0
  4 14  1  1  0  0  0
  4 18  1  0  0  0  0
  4 21  2  0  0  0  0
  4 20  1  0  0  0  0
  5 19  1  0  0  0  0
  5  7  1  0  0  0  0
  6  7  2  0  0  0  0
  6 12  1  0  0  0  0
  7  8  1  0  0  0  0
  8  9  1  0  0  0  0
  8 10  2  0  0  0  0
 10 11  1  0  0  0  0
 11 12  2  0  0  0  0
 15 23  1  0  0  0  0
 15 16  1  0  0  0  0
 16 19  1  0  0  0  0
 19 22  1  0  0  0  0
 22  2  1  1  0  0  0
 22 23  1  0  0  0  0
 23 24  1  6  0  0  0
 24 25  1  0  0  0  0
 25 26  1  0  0  0  0
M  CHG  2  13  -1  18  -1
M  END
>  <CHROM.1>
-31.26114009,95.55448301,65.95464349,-33.80201135,-59.52345753,82.70288265
-175.84612637,-22.39017200,-24.30587213,-15.25323492,2.69047239,-0.48042420
1.06269596,-0.78657246

>  <Name>
ligand

>  <RI>
0

>  <Rbt.Current_Directory>
/home/itssahil/PROJECTS/Mol_Feturizer/New_Systems/rnas/2GDI

>  <Rbt.Executable>
rbdock ($Id: //depot/dev/client3/rdock/2013.1/src/exe/rbdock.cxx#4 $)

>  <Rbt.Library>
libRbt.so (2013.1, Build901 2013/11/27)

>  <Rbt.Parameter_File>
/export/apps/rDock/src/rDock_2013.1_src/data/scripts/dock_solv.prm

>  <Rbt.Receptor>
prm/pocket_docking_7.prm

>  <SCORE>
-10.8009

>  <SCORE.INTER>
-12.2973

>  <SCORE.INTER.CONST>
1

>  <SCORE.INTER.POLAR>
0

>  <SCORE.INTER.ROT>
8

>  <SCORE.INTER.SOLV>
20.6551

>  <SCORE.INTER.VDW>
-24.0166

>  <SCORE.INTER.norm>
-0.472974

>  <SCORE.INTRA>
1.48872

>  <SCORE.INTRA.DIHEDRAL>
2.50794

>  <SCORE.INTRA.DIHEDRAL.0>
8.13976

>  <SCORE.INTRA.POLAR>
0

>  <SCORE.INTRA.POLAR.0>
0

>  <SCORE.INTRA.REPUL>
0

>  <SCORE.INTRA.REPUL.0>
0

>  <SCORE.INTRA.SOLV>
-0.0404563

>  <SCORE.INTRA.SOLV.lig_0>
-82.9561

>  <SCORE.INTRA.VDW>
0.254972

>  <SCORE.INTRA.VDW.0>
-3.29171

>  <SCORE.INTRA.norm>
0.0572583

>  <SCORE.RESTR>
0.0077708

>  <SCORE.RESTR.CAVITY>
0.0077708

>  <SCORE.RESTR.norm>
0.000298877

>  <SCORE.SYSTEM>
0

>  <SCORE.SYSTEM.CONST>
0

>  <SCORE.SYSTEM.DIHEDRAL>
0

>  <SCORE.SYSTEM.SOLV>
0

>  <SCORE.SYSTEM.norm>
0

>  <SCORE.heavy>
26

>  <SCORE.norm>
-0.415417

>  <RMSD>
8.960

$$$$
ligand
 OpenBabel11021811433D
libRbt.so/2013.1/901 2013/11/27
 26 27  0  0  0  0  0  0  0  0999 V2000
  -26.1951  -13.2149    1.3703 C   0  0  0  0  0  0  0  0  0  0  0  0
  -24.0168  -19.2500    2.2852 C   0  0  0  0  0  0  0  0  0  0  0  0
  -19.6768  -16.8463   -0.0703 P   0  0  1  0  0  0  0  0  0  0  0  0
  -21.4568  -15.3921   -1.8523 P   0  0  1  0  0  0  0  0  0  0  0  0
  -24.5502  -17.6004    4.7013 C   0  0  0  0  0  0  0  0  0  0  0  0
  -25.8272  -16.6493    2.7379 C   0  0  0  0  0  0  0  0  0  0  0  0
  -24.9758  -16.4415    3.8157 C   0  0  0  0  0  0  0  0  0  0  0  0
  -24.5333  -15.1547    4.0751 C   0  0  0  0  0  0  0  0  0  0  0  0
  -23.7008  -14.9032    5.1145 N   0  0  0  0  0  0  0  0  0  0  0  0
  -24.9358  -14.1377    3.2825 N   0  0  0  0  0  0  0  0  0  0  0  0
  -25.7630  -14.3652    2.2389 C   0  0  0  0  0  0  0  0  0  0  0  0
  -26.2050  -15.6179    1.9697 N   0  0  0  0  0  0  0  0  0  0  0  0
  -18.9678  -17.5972   -1.1665 O   0  5  0  0  0  0  0  0  0  0  0  0
  -20.5567  -14.2046   -1.6994 O   0  0  0  0  0  0  0  0  0  0  0  0
  -20.6716  -18.4187    4.4288 S   0  0  0  0  0  0  0  0  0  0  0  0
  -22.1103  -17.7344    5.1181 C   0  0  0  0  0  0  0  0  0  0  0  0
  -18.9470  -15.6956    0.5607 O   0  0  0  0  0  0  0  0  0  0  0  0
  -21.0717  -16.1496   -3.0791 O   0  5  0  0  0  0  0  0  0  0  0  0
  -23.1986  -18.0443    4.3602 N   0  0  0  0  0  0  0  0  0  0  0  0
  -21.1331  -16.3989   -0.6233 O   0  0  0  0  0  0  0  0  0  0  0  0
  -22.9334  -15.1141   -1.7778 O   0  0  0  0  0  0  0  0  0  0  0  0
  -22.9559  -18.7995    3.2537 C   0  0  1  0  0  0  0  0  0  0  0  0
  -21.5151  -19.1459    3.1185 C   0  0  1  0  0  0  0  0  0  0  0  0
  -20.7053  -19.9302    2.1205 C   0  0  0  0  0  0  0  0  0  0  0  0
  -20.6245  -19.1361    0.8263 C   0  0  0  0  0  0  0  0  0  0  0  0
  -20.0064  -17.8868    1.1099 O   0  0  0  0  0  0  0  0  0  0  0  0
  1 11  1  0  0  0  0
  3 13  1  6  0  0  0
  3 17  2  0  0  0  0
  3 20  1  0  0  0  0
  3 26  1  0  0  0  0
  4 14  1  1  0  0  0
  4 18  1  0  0  0  0
  4 21  2  0  0  0  0
  4 20  1  0  0  0  0
  5 19  1  0  0  0  0
  5  7  1  0  0  0  0
  6  7  2  0  0  0  0
  6 12  1  0  0  0  0
  7  8  1  0  0  0  0
  8  9  1  0  0  0  0
  8 10  2  0  0  0  0
 10 11  1  0  0  0  0
 11 12  2  0  0  0  0
 15 23  1  0  0  0  0
 15 16  1  0  0  0  0
 16 19  1  0  0  0  0
 19 22  1  0  0  0  0
 22  2  1  1  0  0  0
 22 23  1  0  0  0  0
 23 24  1  6  0  0  0
 24 25  1  0  0  0  0
 25 26  1  0  0  0  0
M  CHG  2  13  -1  18  -1
M  END
>  <CHROM.1>
-63.30138944,103.47083469,101.42552722,-44.99955898,-107.57149545,59.54738506
175.73626902,-49.03390703,-22.23705111,-16.68766074,1.52227326,2.40742913
-0.57084399,2.14589607

>  <Name>
ligand

>  <RI>
0

>  <Rbt.Current_Directory>
/home/itssahil/PROJECTS/Mol_Feturizer/New_Systems/rnas/2GDI

>  <Rbt.Executable>
rbdock ($Id: //depot/dev/client3/rdock/2013.1/src/exe/rbdock.cxx#4 $)

>  <Rbt.Library>
libRbt.so (2013.1, Build901 2013/11/27)

>  <Rbt.Parameter_File>
/export/apps/rDock/src/rDock_2013.1_src/data/scripts/dock_solv.prm

>  <Rbt.Receptor>
prm/pocket_docking_6.prm

>  <SCORE>
-11.656

>  <SCORE.INTER>
-9.92827

>  <SCORE.INTER.CONST>
1

>  <SCORE.INTER.POLAR>
0

>  <SCORE.INTER.ROT>
8

>  <SCORE.INTER.SOLV>
9.3372

>  <SCORE.INTER.VDW>
-18.6646

>  <SCORE.INTER.norm>
-0.381857

>  <SCORE.INTRA>
-1.72772

>  <SCORE.INTRA.DIHEDRAL>
-3.07696

>  <SCORE.INTRA.DIHEDRAL.0>
8.13976

>  <SCORE.INTRA.POLAR>
0

>  <SCORE.INTRA.POLAR.0>
0

>  <SCORE.INTRA.REPUL>
0

>  <SCORE.INTRA.REPUL.0>
0

>  <SCORE.INTRA.SOLV>
1.08639

>  <SCORE.INTRA.SOLV.lig_0>
-82.9561

>  <SCORE.INTRA.VDW>
-0.732437

>  <SCORE.INTRA.VDW.0>
-3.29171

>  <SCORE.INTRA.norm>
-0.066451

>  <SCORE.RESTR>
0

>  <SCORE.RESTR.CAVITY>
0

>  <SCORE.RESTR.norm>
0

>  <SCORE.SYSTEM>
0

>  <SCORE.SYSTEM.CONST>
0

>  <SCORE.SYSTEM.DIHEDRAL>
0

>  <SCORE.SYSTEM.SOLV>
0

>  <SCORE.SYSTEM.norm>
0

>  <SCORE.heavy>
26

>  <SCORE.norm>
-0.448307

>  <RMSD>
8.965

$$$$
ligand
 OpenBabel11021811433D
libRbt.so/2013.1/901 2013/11/27
 26 27  0  0  0  0  0  0  0  0999 V2000
  -23.7413  -21.0374   -0.1389 C   0  0  0  0  0  0  0  0  0  0  0  0
  -20.5679  -16.4658    2.4526 C   0  0  0  0  0  0  0  0  0  0  0  0
  -21.2449  -12.4276   -0.8746 P   0  0  1  0  0  0  0  0  0  0  0  0
  -18.8236  -14.0383   -0.8328 P   0  0  1  0  0  0  0  0  0  0  0  0
  -21.7719  -18.2629    4.4933 C   0  0  0  0  0  0  0  0  0  0  0  0
  -21.4243  -19.6736    2.4247 C   0  0  0  0  0  0  0  0  0  0  0  0
  -22.2931  -18.9871    3.2635 C   0  0  0  0  0  0  0  0  0  0  0  0
  -23.6456  -18.9874    2.9641 C   0  0  0  0  0  0  0  0  0  0  0  0
  -24.5312  -18.3308    3.7522 N   0  0  0  0  0  0  0  0  0  0  0  0
  -24.0878  -19.6498    1.8731 N   0  0  0  0  0  0  0  0  0  0  0  0
  -23.2230  -20.3089    1.0714 C   0  0  0  0  0  0  0  0  0  0  0  0
  -21.8962  -20.3184    1.3485 N   0  0  0  0  0  0  0  0  0  0  0  0
  -20.4596  -11.2070   -1.2770 O   0  5  0  0  0  0  0  0  0  0  0  0
  -18.7724  -14.1412    0.6606 O   0  0  0  0  0  0  0  0  0  0  0  0
  -23.1353  -14.5591    4.9525 S   0  0  0  0  0  0  0  0  0  0  0  0
  -22.9743  -16.2517    5.3023 C   0  0  0  0  0  0  0  0  0  0  0  0
  -22.6504  -12.5440   -1.3903 O   0  0  0  0  0  0  0  0  0  0  0  0
  -18.5228  -15.3721   -1.4309 O   0  5  0  0  0  0  0  0  0  0  0  0
  -22.1033  -16.8391    4.4356 N   0  0  0  0  0  0  0  0  0  0  0  0
  -20.3644  -13.7387   -1.2390 O   0  0  0  0  0  0  0  0  0  0  0  0
  -18.0138  -12.9283   -1.4454 O   0  0  0  0  0  0  0  0  0  0  0  0
  -21.5513  -16.0176    3.5007 C   0  0  1  0  0  0  0  0  0  0  0  0
  -22.0206  -14.6128    3.6442 C   0  0  1  0  0  0  0  0  0  0  0  0
  -21.7502  -13.3273    2.9085 C   0  0  0  0  0  0  0  0  0  0  0  0
  -21.8355  -13.5936    1.4138 C   0  0  0  0  0  0  0  0  0  0  0  0
  -21.3386  -12.4496    0.7301 O   0  0  0  0  0  0  0  0  0  0  0  0
  1 11  1  0  0  0  0
  3 13  1  6  0  0  0
  3 17  2  0  0  0  0
  3 20  1  0  0  0  0
  3 26  1  0  0  0  0
  4 14  1  1  0  0  0
  4 18  1  0  0  0  0
  4 21  2  0  0  0  0
  4 20  1  0  0  0  0
  5 19  1  0  0  0  0
  5  7  1  0  0  0  0
  6  7  2  0  0  0  0
  6 12  1  0  0  0  0
  7  8  1  0  0  0  0
  8  9  1  0  0  0  0
  8 10  2  0  0  0  0
 10 11  1  0  0  0  0
 11 12  2  0  0  0  0
 15 23  1  0  0  0  0
 15 16  1  0  0  0  0
 16 19  1  0  0  0  0
 19 22  1  0  0  0  0
 22  2  1  1  0  0  0
 22 23  1  0  0  0  0
 23 24  1  6  0  0  0
 24 25  1  0  0  0  0
 25 26  1  0  0  0  0
M  CHG  2  13  -1  18  -1
M  END
>  <CHROM.1>
51.47429901,113.19825265,121.31719218,64.19714718,-132.61592294,-169.31095925
177.90270876,-169.85228937,-21.49918289,-15.57430466,1.44447531,-2.56301517
1.08209661,0.35599196

>  <Name>
ligand

>  <RI>
0

>  <Rbt.Current_Directory>
/home/itssahil/PROJECTS/Mol_Feturizer/New_Systems/rnas/2GDI

>  <Rbt.Executable>
rbdock ($Id: //depot/dev/client3/rdock/2013.1/src/exe/rbdock.cxx#4 $)

>  <Rbt.Library>
libRbt.so (2013.1, Build901 2013/11/27)

>  <Rbt.Parameter_File>
/export/apps/rDock/src/rDock_2013.1_src/data/scripts/dock_solv.prm

>  <Rbt.Receptor>
prm/pocket_docking_5.prm

>  <SCORE>
-11.0501

>  <SCORE.INTER>
-9.76869

>  <SCORE.INTER.CONST>
1

>  <SCORE.INTER.POLAR>
0

>  <SCORE.INTER.ROT>
8

>  <SCORE.INTER.SOLV>
18.2395

>  <SCORE.INTER.VDW>
-21.5256

>  <SCORE.INTER.norm>
-0.375719

>  <SCORE.INTRA>
-1.28142

>  <SCORE.INTRA.DIHEDRAL>
-2.89506

>  <SCORE.INTRA.DIHEDRAL.0>
8.13976

>  <SCORE.INTRA.POLAR>
0

>  <SCORE.INTRA.POLAR.0>
0

>  <SCORE.INTRA.REPUL>
0

>  <SCORE.INTRA.REPUL.0>
0

>  <SCORE.INTRA.SOLV>
1.86881

>  <SCORE.INTRA.SOLV.lig_0>
-82.9561

>  <SCORE.INTRA.VDW>
-0.768288

>  <SCORE.INTRA.VDW.0>
-3.29171

>  <SCORE.INTRA.norm>
-0.0492852

>  <SCORE.RESTR>
0

>  <SCORE.RESTR.CAVITY>
0

>  <SCORE.RESTR.norm>
0

>  <SCORE.SYSTEM>
0

>  <SCORE.SYSTEM.CONST>
0

>  <SCORE.SYSTEM.DIHEDRAL>
0

>  <SCORE.SYSTEM.SOLV>
0

>  <SCORE.SYSTEM.norm>
0

>  <SCORE.heavy>
26

>  <SCORE.norm>
-0.425004

>  <RMSD>
8.992

$$$$
ligand
 OpenBabel11021811433D
libRbt.so/2013.1/901 2013/11/27
 26 27  0  0  0  0  0  0  0  0999 V2000
  -21.9023   -7.0439    7.0249 C   0  0  0  0  0  0  0  0  0  0  0  0
  -25.7332  -12.1166    4.6740 C   0  0  0  0  0  0  0  0  0  0  0  0
  -24.9569  -12.9444    8.6292 P   0  0  1  0  0  0  0  0  0  0  0  0
  -25.4934  -14.2059   11.1943 P   0  0  1  0  0  0  0  0  0  0  0  0
  -23.6148  -10.8165    3.0414 C   0  0  0  0  0  0  0  0  0  0  0  0
  -23.3414   -8.4565    3.9049 C   0  0  0  0  0  0  0  0  0  0  0  0
  -23.1522   -9.8201    4.0909 C   0  0  0  0  0  0  0  0  0  0  0  0
  -22.5457  -10.2541    5.2583 C   0  0  0  0  0  0  0  0  0  0  0  0
  -22.3388  -11.5743    5.4837 N   0  0  0  0  0  0  0  0  0  0  0  0
  -22.1551   -9.3508    6.1835 N   0  0  0  0  0  0  0  0  0  0  0  0
  -22.3484   -8.0295    5.9790 C   0  0  0  0  0  0  0  0  0  0  0  0
  -22.9392   -7.5869    4.8423 N   0  0  0  0  0  0  0  0  0  0  0  0
  -25.5853  -11.5781    8.5472 O   0  5  0  0  0  0  0  0  0  0  0  0
  -24.8136  -15.5406   11.1955 O   0  0  0  0  0  0  0  0  0  0  0  0
  -22.5305  -14.5173    3.9984 S   0  0  0  0  0  0  0  0  0  0  0  0
  -22.3720  -12.9489    3.2716 C   0  0  0  0  0  0  0  0  0  0  0  0
  -23.4919  -13.0113    8.9519 O   0  0  0  0  0  0  0  0  0  0  0  0
  -24.5240  -13.1569   11.6268 O   0  5  0  0  0  0  0  0  0  0  0  0
  -23.4716  -12.1880    3.5299 N   0  0  0  0  0  0  0  0  0  0  0  0
  -25.8354  -13.8449    9.6511 O   0  0  0  0  0  0  0  0  0  0  0  0
  -26.8016  -14.1316   11.9334 O   0  0  0  0  0  0  0  0  0  0  0  0
  -24.4423  -12.7819    4.2772 C   0  0  1  0  0  0  0  0  0  0  0  0
  -24.0724  -14.1675    4.6746 C   0  0  1  0  0  0  0  0  0  0  0  0
  -24.7433  -15.2530    5.4737 C   0  0  0  0  0  0  0  0  0  0  0  0
  -24.5780  -14.9425    6.9530 C   0  0  0  0  0  0  0  0  0  0  0  0
  -25.1492  -13.6644    7.2048 O   0  0  0  0  0  0  0  0  0  0  0  0
  1 11  1  0  0  0  0
  3 13  1  6  0  0  0
  3 17  2  0  0  0  0
  3 20  1  0  0  0  0
  3 26  1  0  0  0  0
  4 14  1  1  0  0  0
  4 18  1  0  0  0  0
  4 21  2  0  0  0  0
  4 20  1  0  0  0  0
  5 19  1  0  0  0  0
  5  7  1  0  0  0  0
  6  7  2  0  0  0  0
  6 12  1  0  0  0  0
  7  8  1  0  0  0  0
  8  9  1  0  0  0  0
  8 10  2  0  0  0  0
 10 11  1  0  0  0  0
 11 12  2  0  0  0  0
 15 23  1  0  0  0  0
 15 16  1  0  0  0  0
 16 19  1  0  0  0  0
 19 22  1  0  0  0  0
 22  2  1  1  0  0  0
 22 23  1  0  0  0  0
 23 24  1  6  0  0  0
 24 25  1  0  0  0  0
 25 26  1  0  0  0  0
M  CHG  2  13  -1  18  -1
M  END
>  <CHROM.1>
-101.60585933,-94.40192661,-172.52977050,-95.29344124,102.27519886,58.13442613
-171.22035063,175.89684769,-24.06575981,-12.37736092,6.93187257,-0.17879792
1.23152719,0.74632328

>  <Name>
ligand

>  <RI>
0

>  <Rbt.Current_Directory>
/home/itssahil/PROJECTS/Mol_Feturizer/New_Systems/rnas/2GDI

>  <Rbt.Executable>
rbdock ($Id: //depot/dev/client3/rdock/2013.1/src/exe/rbdock.cxx#4 $)

>  <Rbt.Library>
libRbt.so (2013.1, Build901 2013/11/27)

>  <Rbt.Parameter_File>
/export/apps/rDock/src/rDock_2013.1_src/data/scripts/dock_solv.prm

>  <Rbt.Receptor>
prm/blind_docking_60.prm

>  <SCORE>
-9.51561

>  <SCORE.INTER>
-15.8323

>  <SCORE.INTER.CONST>
1

>  <SCORE.INTER.POLAR>
0

>  <SCORE.INTER.ROT>
8

>  <SCORE.INTER.SOLV>
24.1876

>  <SCORE.INTER.VDW>
-27.5508

>  <SCORE.INTER.norm>
-0.608936

>  <SCORE.INTRA>
6.24861

>  <SCORE.INTRA.DIHEDRAL>
0.388783

>  <SCORE.INTRA.DIHEDRAL.0>
8.13976

>  <SCORE.INTRA.POLAR>
0

>  <SCORE.INTRA.POLAR.0>
0

>  <SCORE.INTRA.REPUL>
0

>  <SCORE.INTRA.REPUL.0>
0

>  <SCORE.INTRA.SOLV>
8.80722

>  <SCORE.INTRA.SOLV.lig_0>
-82.9561

>  <SCORE.INTRA.VDW>
1.65061

>  <SCORE.INTRA.VDW.0>
-3.29171

>  <SCORE.INTRA.norm>
0.240331

>  <SCORE.RESTR>
0.068121

>  <SCORE.RESTR.CAVITY>
0.068121

>  <SCORE.RESTR.norm>
0.00262004

>  <SCORE.SYSTEM>
0

>  <SCORE.SYSTEM.CONST>
0

>  <SCORE.SYSTEM.DIHEDRAL>
0

>  <SCORE.SYSTEM.SOLV>
0

>  <SCORE.SYSTEM.norm>
0

>  <SCORE.heavy>
26

>  <SCORE.norm>
-0.365985

>  <RMSD>
9.010

$$$$
ligand
 OpenBabel11021811433D
libRbt.so/2013.1/901 2013/11/27
 26 27  0  0  0  0  0  0  0  0999 V2000
  -25.6784  -11.6522    1.4588 C   0  0  0  0  0  0  0  0  0  0  0  0
  -22.7413  -16.7296    4.9471 C   0  0  0  0  0  0  0  0  0  0  0  0
  -20.2530  -16.1083    1.2084 P   0  0  1  0  0  0  0  0  0  0  0  0
  -20.6328  -13.2294    1.0456 P   0  0  1  0  0  0  0  0  0  0  0  0
  -25.6738  -16.5323    4.4949 C   0  0  0  0  0  0  0  0  0  0  0  0
  -26.1803  -15.2105    2.4004 C   0  0  0  0  0  0  0  0  0  0  0  0
  -25.6648  -15.2437    3.6900 C   0  0  0  0  0  0  0  0  0  0  0  0
  -25.1548  -14.0756    4.2325 C   0  0  0  0  0  0  0  0  0  0  0  0
  -24.6403  -14.0591    5.4861 N   0  0  0  0  0  0  0  0  0  0  0  0
  -25.1699  -12.9386    3.5034 N   0  0  0  0  0  0  0  0  0  0  0  0
  -25.6751  -12.9318    2.2505 C   0  0  0  0  0  0  0  0  0  0  0  0
  -26.1773  -14.0657    1.7034 N   0  0  0  0  0  0  0  0  0  0  0  0
  -20.8847  -16.4007   -0.1272 O   0  5  0  0  0  0  0  0  0  0  0  0
  -21.1480  -12.2109    2.0155 O   0  0  0  0  0  0  0  0  0  0  0  0
  -24.1615  -19.5436    2.3896 S   0  0  0  0  0  0  0  0  0  0  0  0
  -25.3966  -18.4805    2.9875 C   0  0  0  0  0  0  0  0  0  0  0  0
  -18.7550  -16.1721    1.2913 O   0  0  0  0  0  0  0  0  0  0  0  0
  -19.1572  -13.0653    0.8936 O   0  5  0  0  0  0  0  0  0  0  0  0
  -24.8651  -17.5594    3.8381 N   0  0  0  0  0  0  0  0  0  0  0  0
  -20.8203  -14.6845    1.7356 O   0  0  0  0  0  0  0  0  0  0  0  0
  -21.3504  -13.3050   -0.2745 O   0  0  0  0  0  0  0  0  0  0  0  0
  -23.5226  -17.6485    4.0462 C   0  0  1  0  0  0  0  0  0  0  0  0
  -22.9079  -18.7546    3.2632 C   0  0  1  0  0  0  0  0  0  0  0  0
  -21.5106  -19.2951    3.1141 C   0  0  0  0  0  0  0  0  0  0  0  0
  -20.8253  -18.5657    1.9693 C   0  0  0  0  0  0  0  0  0  0  0  0
  -20.8200  -17.1752    2.2688 O   0  0  0  0  0  0  0  0  0  0  0  0
  1 11  1  0  0  0  0
  3 13  1  6  0  0  0
  3 17  2  0  0  0  0
  3 20  1  0  0  0  0
  3 26  1  0  0  0  0
  4 14  1  1  0  0  0
  4 18  1  0  0  0  0
  4 21  2  0  0  0  0
  4 20  1  0  0  0  0
  5 19  1  0  0  0  0
  5  7  1  0  0  0  0
  6  7  2  0  0  0  0
  6 12  1  0  0  0  0
  7  8  1  0  0  0  0
  8  9  1  0  0  0  0
  8 10  2  0  0  0  0
 10 11  1  0  0  0  0
 11 12  2  0  0  0  0
 15 23  1  0  0  0  0
 15 16  1  0  0  0  0
 16 19  1  0  0  0  0
 19 22  1  0  0  0  0
 22  2  1  6  0  0  0
 22 23  1  0  0  0  0
 23 24  1  1  0  0  0
 24 25  1  0  0  0  0
 25 26  1  0  0  0  0
M  CHG  2  13  -1  18  -1
M  END
>  <CHROM.1>
-62.74586950,-93.92698158,62.17539811,-171.20022206,91.23821254,58.63786306
-175.85144676,49.07196412,-22.75723176,-15.64488529,2.34343108,2.63094939
-0.40105320,2.94804666

>  <Name>
ligand

>  <RI>
0

>  <Rbt.Current_Directory>
/home/itssahil/PROJECTS/Mol_Feturizer/New_Systems/rnas/2GDI

>  <Rbt.Executable>
rbdock ($Id: //depot/dev/client3/rdock/2013.1/src/exe/rbdock.cxx#4 $)

>  <Rbt.Library>
libRbt.so (2013.1, Build901 2013/11/27)

>  <Rbt.Parameter_File>
/export/apps/rDock/src/rDock_2013.1_src/data/scripts/dock_solv.prm

>  <Rbt.Receptor>
prm/pocket_docking_6.prm

>  <SCORE>
-11.7204

>  <SCORE.INTER>
-11.1231

>  <SCORE.INTER.CONST>
1

>  <SCORE.INTER.POLAR>
0

>  <SCORE.INTER.ROT>
8

>  <SCORE.INTER.SOLV>
9.60902

>  <SCORE.INTER.VDW>
-19.5518

>  <SCORE.INTER.norm>
-0.427813

>  <SCORE.INTRA>
-0.597248

>  <SCORE.INTRA.DIHEDRAL>
-2.66134

>  <SCORE.INTRA.DIHEDRAL.0>
8.13976

>  <SCORE.INTRA.POLAR>
0

>  <SCORE.INTRA.POLAR.0>
0

>  <SCORE.INTRA.REPUL>
0

>  <SCORE.INTRA.REPUL.0>
0

>  <SCORE.INTRA.SOLV>
3.68027

>  <SCORE.INTRA.SOLV.lig_0>
-82.9561

>  <SCORE.INTRA.VDW>
-1.10671

>  <SCORE.INTRA.VDW.0>
-3.29171

>  <SCORE.INTRA.norm>
-0.0229711

>  <SCORE.RESTR>
0

>  <SCORE.RESTR.CAVITY>
0

>  <SCORE.RESTR.norm>
0

>  <SCORE.SYSTEM>
0

>  <SCORE.SYSTEM.CONST>
0

>  <SCORE.SYSTEM.DIHEDRAL>
0

>  <SCORE.SYSTEM.SOLV>
0

>  <SCORE.SYSTEM.norm>
0

>  <SCORE.heavy>
26

>  <SCORE.norm>
-0.450784

>  <RMSD>
9.034

$$$$
ligand
 OpenBabel11021811433D
libRbt.so/2013.1/901 2013/11/27
 26 27  0  0  0  0  0  0  0  0999 V2000
  -24.1318  -20.3078    0.7401 C   0  0  0  0  0  0  0  0  0  0  0  0
  -26.0171  -13.4645    0.0562 C   0  0  0  0  0  0  0  0  0  0  0  0
  -23.7463  -14.5139   -5.3906 P   0  0  1  0  0  0  0  0  0  0  0  0
  -24.2190  -17.3800   -5.2470 P   0  0  1  0  0  0  0  0  0  0  0  0
  -23.9499  -14.6664    1.8241 C   0  0  0  0  0  0  0  0  0  0  0  0
  -24.2139  -16.6263    0.2496 C   0  0  0  0  0  0  0  0  0  0  0  0
  -24.0080  -16.1580    1.5411 C   0  0  0  0  0  0  0  0  0  0  0  0
  -23.8431  -17.0779    2.5636 C   0  0  0  0  0  0  0  0  0  0  0  0
  -23.6409  -16.6688    3.8396 N   0  0  0  0  0  0  0  0  0  0  0  0
  -23.8847  -18.3992    2.2861 N   0  0  0  0  0  0  0  0  0  0  0  0
  -24.0880  -18.8303    1.0220 C   0  0  0  0  0  0  0  0  0  0  0  0
  -24.2523  -17.9444    0.0094 N   0  0  0  0  0  0  0  0  0  0  0  0
  -22.3755  -14.6155   -6.0065 O   0  5  0  0  0  0  0  0  0  0  0  0
  -25.4062  -17.3368   -6.1592 O   0  0  0  0  0  0  0  0  0  0  0  0
  -22.2256  -12.8161   -1.2402 S   0  0  0  0  0  0  0  0  0  0  0  0
  -22.2951  -13.7364    0.2299 C   0  0  0  0  0  0  0  0  0  0  0  0
  -24.8810  -14.1259   -6.2943 O   0  0  0  0  0  0  0  0  0  0  0  0
  -22.9818  -17.5885   -6.0551 O   0  5  0  0  0  0  0  0  0  0  0  0
  -23.5873  -13.9235    0.6172 N   0  0  0  0  0  0  0  0  0  0  0  0
  -24.0532  -15.8993   -4.6075 O   0  0  0  0  0  0  0  0  0  0  0  0
  -24.3188  -18.3232   -4.0792 O   0  0  0  0  0  0  0  0  0  0  0  0
  -24.5348  -13.3737   -0.1912 C   0  0  1  0  0  0  0  0  0  0  0  0
  -23.9355  -12.6824   -1.3648 C   0  0  1  0  0  0  0  0  0  0  0  0
  -24.4893  -11.9238   -2.5416 C   0  0  0  0  0  0  0  0  0  0  0  0
  -24.8775  -12.9187   -3.6241 C   0  0  0  0  0  0  0  0  0  0  0  0
  -23.6851  -13.4081   -4.2254 O   0  0  0  0  0  0  0  0  0  0  0  0
  1 11  1  0  0  0  0
  3 13  1  6  0  0  0
  3 17  2  0  0  0  0
  3 20  1  0  0  0  0
  3 26  1  0  0  0  0
  4 14  1  6  0  0  0
  4 18  1  0  0  0  0
  4 21  2  0  0  0  0
  4 20  1  0  0  0  0
  5 19  1  0  0  0  0
  5  7  1  0  0  0  0
  6  7  2  0  0  0  0
  6 12  1  0  0  0  0
  7  8  1  0  0  0  0
  8  9  1  0  0  0  0
  8 10  2  0  0  0  0
 10 11  1  0  0  0  0
 11 12  2  0  0  0  0
 15 23  1  0  0  0  0
 15 16  1  0  0  0  0
 16 19  1  0  0  0  0
 19 22  1  0  0  0  0
 22  2  1  6  0  0  0
 22 23  1  0  0  0  0
 23 24  1  1  0  0  0
 24 25  1  0  0  0  0
 25 26  1  0  0  0  0
M  CHG  2  13  -1  18  -1
M  END
>  <CHROM.1>
-64.85229345,-84.67635131,-23.13460225,-62.60470057,97.28835376,-73.77722784
178.43368040,168.61508255,-23.91910208,-15.49754196,-2.08907585,1.43949938
1.48463284,1.85474469

>  <Name>
ligand

>  <RI>
0

>  <Rbt.Current_Directory>
/home/itssahil/PROJECTS/Mol_Feturizer/New_Systems/rnas/2GDI

>  <Rbt.Executable>
rbdock ($Id: //depot/dev/client3/rdock/2013.1/src/exe/rbdock.cxx#4 $)

>  <Rbt.Library>
libRbt.so (2013.1, Build901 2013/11/27)

>  <Rbt.Parameter_File>
/export/apps/rDock/src/rDock_2013.1_src/data/scripts/dock_solv.prm

>  <Rbt.Receptor>
prm/pocket_docking_7.prm

>  <SCORE>
-7.22305

>  <SCORE.INTER>
-5.74089

>  <SCORE.INTER.CONST>
1

>  <SCORE.INTER.POLAR>
0

>  <SCORE.INTER.ROT>
8

>  <SCORE.INTER.SOLV>
9.24653

>  <SCORE.INTER.VDW>
-15.8428

>  <SCORE.INTER.norm>
-0.220803

>  <SCORE.INTRA>
-1.48216

>  <SCORE.INTRA.DIHEDRAL>
-2.12853

>  <SCORE.INTRA.DIHEDRAL.0>
8.13976

>  <SCORE.INTRA.POLAR>
0

>  <SCORE.INTRA.POLAR.0>
0

>  <SCORE.INTRA.REPUL>
0

>  <SCORE.INTRA.REPUL.0>
0

>  <SCORE.INTRA.SOLV>
0.17199

>  <SCORE.INTRA.SOLV.lig_0>
-82.9561

>  <SCORE.INTRA.VDW>
-0.503892

>  <SCORE.INTRA.VDW.0>
-3.29171

>  <SCORE.INTRA.norm>
-0.0570063

>  <SCORE.RESTR>
0

>  <SCORE.RESTR.CAVITY>
0

>  <SCORE.RESTR.norm>
0

>  <SCORE.SYSTEM>
0

>  <SCORE.SYSTEM.CONST>
0

>  <SCORE.SYSTEM.DIHEDRAL>
0

>  <SCORE.SYSTEM.SOLV>
0

>  <SCORE.SYSTEM.norm>
0

>  <SCORE.heavy>
26

>  <SCORE.norm>
-0.27781

>  <RMSD>
9.077

$$$$
ligand
 OpenBabel11021811433D
libRbt.so/2013.1/901 2013/11/27
 26 27  0  0  0  0  0  0  0  0999 V2000
  -23.6036  -14.7254    6.6006 C   0  0  0  0  0  0  0  0  0  0  0  0
  -23.7002  -20.6836    0.6374 C   0  0  0  0  0  0  0  0  0  0  0  0
  -19.8317  -17.1788   -1.6482 P   0  0  1  0  0  0  0  0  0  0  0  0
  -21.1203  -14.6992   -0.8421 P   0  0  1  0  0  0  0  0  0  0  0  0
  -24.7069  -18.8401    2.7424 C   0  0  0  0  0  0  0  0  0  0  0  0
  -25.4420  -16.9891    4.2993 C   0  0  0  0  0  0  0  0  0  0  0  0
  -24.4123  -17.7459    3.7545 C   0  0  0  0  0  0  0  0  0  0  0  0
  -23.1130  -17.4923    4.1625 C   0  0  0  0  0  0  0  0  0  0  0  0
  -22.0756  -18.2036    3.6582 N   0  0  0  0  0  0  0  0  0  0  0  0
  -22.8763  -16.5238    5.0738 N   0  0  0  0  0  0  0  0  0  0  0  0
  -23.8945  -15.7999    5.5881 C   0  0  0  0  0  0  0  0  0  0  0  0
  -25.1719  -16.0337    5.1996 N   0  0  0  0  0  0  0  0  0  0  0  0
  -19.0155  -17.5844   -2.8473 O   0  5  0  0  0  0  0  0  0  0  0  0
  -21.6451  -15.5524    0.2715 O   0  0  0  0  0  0  0  0  0  0  0  0
  -24.2089  -16.8766   -0.6757 S   0  0  0  0  0  0  0  0  0  0  0  0
  -24.6262  -17.0822    0.9966 C   0  0  0  0  0  0  0  0  0  0  0  0
  -19.1761  -17.2816   -0.3012 O   0  0  0  0  0  0  0  0  0  0  0  0
  -20.0100  -13.8441   -0.3288 O   0  5  0  0  0  0  0  0  0  0  0  0
  -24.4365  -18.3745    1.3822 N   0  0  0  0  0  0  0  0  0  0  0  0
  -20.4185  -15.6917   -1.9150 O   0  0  0  0  0  0  0  0  0  0  0  0
  -22.1480  -13.9187   -1.6153 O   0  0  0  0  0  0  0  0  0  0  0  0
  -23.9757  -19.2197    0.4195 C   0  0  1  0  0  0  0  0  0  0  0  0
  -23.7575  -18.5236   -0.8775 C   0  0  1  0  0  0  0  0  0  0  0  0
  -23.2770  -18.9507   -2.2391 C   0  0  0  0  0  0  0  0  0  0  0  0
  -22.1046  -18.0696   -2.6409 C   0  0  0  0  0  0  0  0  0  0  0  0
  -21.1379  -18.1146   -1.5985 O   0  0  0  0  0  0  0  0  0  0  0  0
  1 11  1  0  0  0  0
  3 13  1  6  0  0  0
  3 17  2  0  0  0  0
  3 20  1  0  0  0  0
  3 26  1  0  0  0  0
  4 14  1  1  0  0  0
  4 18  1  0  0  0  0
  4 21  2  0  0  0  0
  4 20  1  0  0  0  0
  5 19  1  0  0  0  0
  5  7  1  0  0  0  0
  6  7  2  0  0  0  0
  6 12  1  0  0  0  0
  7  8  1  0  0  0  0
  8  9  1  0  0  0  0
  8 10  2  0  0  0  0
 10 11  1  0  0  0  0
 11 12  2  0  0  0  0
 15 23  1  0  0  0  0
 15 16  1  0  0  0  0
 16 19  1  0  0  0  0
 19 22  1  0  0  0  0
 22  2  1  1  0  0  0
 22 23  1  0  0  0  0
 23 24  1  6  0  0  0
 24 25  1  0  0  0  0
 25 26  1  0  0  0  0
M  CHG  2  13  -1  18  -1
M  END
>  <CHROM.1>
-167.71795985,-33.18386671,100.57177877,-22.88904571,56.03024298,53.36805763
-174.21196516,-63.55281932,-22.45654790,-16.92745118,0.67304481,-2.37167390
-0.82811671,-2.18719226

>  <Name>
ligand

>  <RI>
0

>  <Rbt.Current_Directory>
/home/itssahil/PROJECTS/Mol_Feturizer/New_Systems/rnas/2GDI

>  <Rbt.Executable>
rbdock ($Id: //depot/dev/client3/rdock/2013.1/src/exe/rbdock.cxx#4 $)

>  <Rbt.Library>
libRbt.so (2013.1, Build901 2013/11/27)

>  <Rbt.Parameter_File>
/export/apps/rDock/src/rDock_2013.1_src/data/scripts/dock_solv.prm

>  <Rbt.Receptor>
prm/pocket_docking_5.prm

>  <SCORE>
-4.8006

>  <SCORE.INTER>
-3.73027

>  <SCORE.INTER.CONST>
1

>  <SCORE.INTER.POLAR>
0

>  <SCORE.INTER.ROT>
8

>  <SCORE.INTER.SOLV>
7.34991

>  <SCORE.INTER.VDW>
-13.8702

>  <SCORE.INTER.norm>
-0.143472

>  <SCORE.INTRA>
-1.07096

>  <SCORE.INTRA.DIHEDRAL>
-0.58259

>  <SCORE.INTRA.DIHEDRAL.0>
8.13976

>  <SCORE.INTRA.POLAR>
0

>  <SCORE.INTRA.POLAR.0>
0

>  <SCORE.INTRA.REPUL>
0

>  <SCORE.INTRA.REPUL.0>
0

>  <SCORE.INTRA.SOLV>
0.800671

>  <SCORE.INTRA.SOLV.lig_0>
-82.9561

>  <SCORE.INTRA.VDW>
-1.18

>  <SCORE.INTRA.VDW.0>
-3.29171

>  <SCORE.INTRA.norm>
-0.0411907

>  <SCORE.RESTR>
0.00063214

>  <SCORE.RESTR.CAVITY>
0.00063214

>  <SCORE.RESTR.norm>
2.43131e-05

>  <SCORE.SYSTEM>
0

>  <SCORE.SYSTEM.CONST>
0

>  <SCORE.SYSTEM.DIHEDRAL>
0

>  <SCORE.SYSTEM.SOLV>
0

>  <SCORE.SYSTEM.norm>
0

>  <SCORE.heavy>
26

>  <SCORE.norm>
-0.184638

>  <RMSD>
9.078

$$$$
ligand
 OpenBabel11021811433D
libRbt.so/2013.1/901 2013/11/27
 26 27  0  0  0  0  0  0  0  0999 V2000
  -22.9690  -15.7711    5.6541 C   0  0  0  0  0  0  0  0  0  0  0  0
  -24.5997  -15.7838   -0.2144 C   0  0  0  0  0  0  0  0  0  0  0  0
  -19.8946  -12.4071   -0.8902 P   0  0  1  0  0  0  0  0  0  0  0  0
  -18.6068   -9.8228   -0.5414 P   0  0  1  0  0  0  0  0  0  0  0  0
  -26.2006  -13.8070    1.3260 C   0  0  0  0  0  0  0  0  0  0  0  0
  -24.0660  -13.8344    2.6799 C   0  0  0  0  0  0  0  0  0  0  0  0
  -25.3439  -14.3348    2.4643 C   0  0  0  0  0  0  0  0  0  0  0  0
  -25.8267  -15.3147    3.3162 C   0  0  0  0  0  0  0  0  0  0  0  0
  -27.0666  -15.8340    3.1449 N   0  0  0  0  0  0  0  0  0  0  0  0
  -25.0524  -15.7588    4.3300 N   0  0  0  0  0  0  0  0  0  0  0  0
  -23.8119  -15.2578    4.5182 C   0  0  0  0  0  0  0  0  0  0  0  0
  -23.3230  -14.2994    3.6938 N   0  0  0  0  0  0  0  0  0  0  0  0
  -18.6893  -12.8856   -1.6563 O   0  5  0  0  0  0  0  0  0  0  0  0
  -17.7112   -9.8469   -1.7417 O   0  0  0  0  0  0  0  0  0  0  0  0
  -24.2004  -11.9831   -1.5826 S   0  0  0  0  0  0  0  0  0  0  0  0
  -25.2708  -12.1087   -0.2219 C   0  0  0  0  0  0  0  0  0  0  0  0
  -20.1099  -12.9768    0.4823 O   0  0  0  0  0  0  0  0  0  0  0  0
  -19.1952   -8.4596   -0.3908 O   0  5  0  0  0  0  0  0  0  0  0  0
  -25.3666  -13.4019    0.1943 N   0  0  0  0  0  0  0  0  0  0  0  0
  -19.8692  -10.7867   -0.8672 O   0  0  0  0  0  0  0  0  0  0  0  0
  -18.0101  -10.3451    0.7371 O   0  0  0  0  0  0  0  0  0  0  0  0
  -24.6343  -14.3080   -0.5100 C   0  0  1  0  0  0  0  0  0  0  0  0
  -23.8530  -13.6671   -1.6024 C   0  0  1  0  0  0  0  0  0  0  0  0
  -22.9057  -14.1689   -2.6596 C   0  0  0  0  0  0  0  0  0  0  0  0
  -21.4888  -14.1145   -2.1104 C   0  0  0  0  0  0  0  0  0  0  0  0
  -21.2037  -12.7682   -1.7506 O   0  0  0  0  0  0  0  0  0  0  0  0
  1 11  1  0  0  0  0
  3 13  1  6  0  0  0
  3 17  2  0  0  0  0
  3 20  1  0  0  0  0
  3 26  1  0  0  0  0
  4 14  1  6  0  0  0
  4 18  1  0  0  0  0
  4 21  2  0  0  0  0
  4 20  1  0  0  0  0
  5 19  1  0  0  0  0
  5  7  1  0  0  0  0
  6  7  2  0  0  0  0
  6 12  1  0  0  0  0
  7  8  1  0  0  0  0
  8  9  1  0  0  0  0
  8 10  2  0  0  0  0
 10 11  1  0  0  0  0
 11 12  2  0  0  0  0
 15 23  1  0  0  0  0
 15 16  1  0  0  0  0
 16 19  1  0  0  0  0
 19 22  1  0  0  0  0
 22  2  1  1  0  0  0
 22 23  1  0  0  0  0
 23 24  1  6  0  0  0
 24 25  1  0  0  0  0
 25 26  1  0  0  0  0
M  CHG  2  13  -1  18  -1
M  END
>  <CHROM.1>
-46.09398229,-114.61647299,31.65064408,74.86226071,90.07142597,-58.73807381
168.66704800,58.56806798,-22.27795726,-12.92051786,0.34048229,-2.54799387
-0.46902068,-1.29672940

>  <Name>
ligand

>  <RI>
0

>  <Rbt.Current_Directory>
/home/itssahil/PROJECTS/Mol_Feturizer/New_Systems/rnas/2GDI

>  <Rbt.Executable>
rbdock ($Id: //depot/dev/client3/rdock/2013.1/src/exe/rbdock.cxx#4 $)

>  <Rbt.Library>
libRbt.so (2013.1, Build901 2013/11/27)

>  <Rbt.Parameter_File>
/export/apps/rDock/src/rDock_2013.1_src/data/scripts/dock_solv.prm

>  <Rbt.Receptor>
prm/pocket_docking_6.prm

>  <SCORE>
-6.69718

>  <SCORE.INTER>
-5.96107

>  <SCORE.INTER.CONST>
1

>  <SCORE.INTER.POLAR>
0

>  <SCORE.INTER.ROT>
8

>  <SCORE.INTER.SOLV>
28.1395

>  <SCORE.INTER.VDW>
-22.2872

>  <SCORE.INTER.norm>
-0.229272

>  <SCORE.INTRA>
-0.736113

>  <SCORE.INTRA.DIHEDRAL>
-1.7372

>  <SCORE.INTRA.DIHEDRAL.0>
8.13976

>  <SCORE.INTRA.POLAR>
0

>  <SCORE.INTRA.POLAR.0>
0

>  <SCORE.INTRA.REPUL>
0

>  <SCORE.INTRA.REPUL.0>
0

>  <SCORE.INTRA.SOLV>
1.11541

>  <SCORE.INTRA.SOLV.lig_0>
-82.9561

>  <SCORE.INTRA.VDW>
-0.425215

>  <SCORE.INTRA.VDW.0>
-3.29171

>  <SCORE.INTRA.norm>
-0.028312

>  <SCORE.RESTR>
0

>  <SCORE.RESTR.CAVITY>
0

>  <SCORE.RESTR.norm>
0

>  <SCORE.SYSTEM>
0

>  <SCORE.SYSTEM.CONST>
0

>  <SCORE.SYSTEM.DIHEDRAL>
0

>  <SCORE.SYSTEM.SOLV>
0

>  <SCORE.SYSTEM.norm>
0

>  <SCORE.heavy>
26

>  <SCORE.norm>
-0.257584

>  <RMSD>
9.103

$$$$
ligand
 OpenBabel11021811433D
libRbt.so/2013.1/901 2013/11/27
 26 27  0  0  0  0  0  0  0  0999 V2000
  -22.2602   -8.8141    5.6849 C   0  0  0  0  0  0  0  0  0  0  0  0
  -22.4017  -14.5418    4.0431 C   0  0  0  0  0  0  0  0  0  0  0  0
  -24.0002  -14.6701    8.5379 P   0  0  1  0  0  0  0  0  0  0  0  0
  -25.5029  -13.6272   10.7991 P   0  0  1  0  0  0  0  0  0  0  0  0
  -24.0500  -12.9650    2.1352 C   0  0  0  0  0  0  0  0  0  0  0  0
  -22.3066  -11.3241    2.9466 C   0  0  0  0  0  0  0  0  0  0  0  0
  -23.5748  -11.8749    3.0809 C   0  0  0  0  0  0  0  0  0  0  0  0
  -24.4025  -11.4013    4.0857 C   0  0  0  0  0  0  0  0  0  0  0  0
  -25.6474  -11.9086    4.2564 N   0  0  0  0  0  0  0  0  0  0  0  0
  -23.9637  -10.4220    4.9060 N   0  0  0  0  0  0  0  0  0  0  0  0
  -22.7253   -9.9031    4.7565 C   0  0  0  0  0  0  0  0  0  0  0  0
  -21.9017  -10.3552    3.7795 N   0  0  0  0  0  0  0  0  0  0  0  0
  -23.5402  -13.3284    8.0311 O   0  5  0  0  0  0  0  0  0  0  0  0
  -25.7852  -12.2003   10.4419 O   0  0  0  0  0  0  0  0  0  0  0  0
  -26.2362  -15.8471    3.7788 S   0  0  0  0  0  0  0  0  0  0  0  0
  -25.9075  -14.4856    2.7534 C   0  0  0  0  0  0  0  0  0  0  0  0
  -22.9973  -15.5090    9.2762 O   0  0  0  0  0  0  0  0  0  0  0  0
  -26.7032  -14.2180   11.4605 O   0  5  0  0  0  0  0  0  0  0  0  0
  -24.6103  -14.0912    2.8820 N   0  0  0  0  0  0  0  0  0  0  0  0
  -25.3488  -14.4468    9.4087 O   0  0  0  0  0  0  0  0  0  0  0  0
  -24.2326  -13.8761   11.5658 O   0  0  0  0  0  0  0  0  0  0  0  0
  -23.8545  -14.8121    3.7552 C   0  0  1  0  0  0  0  0  0  0  0  0
  -24.6283  -15.9165    4.3846 C   0  0  1  0  0  0  0  0  0  0  0  0
  -24.3109  -16.9897    5.3918 C   0  0  0  0  0  0  0  0  0  0  0  0
  -23.5705  -16.3582    6.5603 C   0  0  0  0  0  0  0  0  0  0  0  0
  -24.4863  -15.5368    7.2743 O   0  0  0  0  0  0  0  0  0  0  0  0
  1 11  1  0  0  0  0
  3 13  1  6  0  0  0
  3 17  2  0  0  0  0
  3 20  1  0  0  0  0
  3 26  1  0  0  0  0
  4 14  1  6  0  0  0
  4 18  1  0  0  0  0
  4 21  2  0  0  0  0
  4 20  1  0  0  0  0
  5 19  1  0  0  0  0
  5  7  1  0  0  0  0
  6  7  2  0  0  0  0
  6 12  1  0  0  0  0
  7  8  1  0  0  0  0
  8  9  1  0  0  0  0
  8 10  2  0  0  0  0
 10 11  1  0  0  0  0
 11 12  2  0  0  0  0
 15 23  1  0  0  0  0
 15 16  1  0  0  0  0
 16 19  1  0  0  0  0
 19 22  1  0  0  0  0
 22  2  1  6  0  0  0
 22 23  1  0  0  0  0
 23 24  1  1  0  0  0
 24 25  1  0  0  0  0
 25 26  1  0  0  0  0
M  CHG  2  13  -1  18  -1
M  END
>  <CHROM.1>
-64.60882395,118.29868320,130.61333117,88.49922430,-131.90609416,69.73835433
-177.30087965,89.39293259,-24.34215813,-13.63725637,6.39399514,-1.04202073
1.23804221,1.28202093

>  <Name>
ligand

>  <RI>
0

>  <Rbt.Current_Directory>
/home/itssahil/PROJECTS/Mol_Feturizer/New_Systems/rnas/2GDI

>  <Rbt.Executable>
rbdock ($Id: //depot/dev/client3/rdock/2013.1/src/exe/rbdock.cxx#4 $)

>  <Rbt.Library>
libRbt.so (2013.1, Build901 2013/11/27)

>  <Rbt.Parameter_File>
/export/apps/rDock/src/rDock_2013.1_src/data/scripts/dock_solv.prm

>  <Rbt.Receptor>
prm/blind_docking_40.prm

>  <SCORE>
-12.6276

>  <SCORE.INTER>
-13.8381

>  <SCORE.INTER.CONST>
1

>  <SCORE.INTER.POLAR>
0

>  <SCORE.INTER.ROT>
8

>  <SCORE.INTER.SOLV>
20.9215

>  <SCORE.INTER.VDW>
-25.1325

>  <SCORE.INTER.norm>
-0.532234

>  <SCORE.INTRA>
1.11021

>  <SCORE.INTRA.DIHEDRAL>
-1.22157

>  <SCORE.INTRA.DIHEDRAL.0>
8.13976

>  <SCORE.INTRA.POLAR>
0

>  <SCORE.INTRA.POLAR.0>
0

>  <SCORE.INTRA.REPUL>
0

>  <SCORE.INTRA.REPUL.0>
0

>  <SCORE.INTRA.SOLV>
3.83113

>  <SCORE.INTRA.SOLV.lig_0>
-82.9561

>  <SCORE.INTRA.VDW>
-0.194572

>  <SCORE.INTRA.VDW.0>
-3.29171

>  <SCORE.INTRA.norm>
0.0427003

>  <SCORE.RESTR>
0.100314

>  <SCORE.RESTR.CAVITY>
0.100314

>  <SCORE.RESTR.norm>
0.00385821

>  <SCORE.SYSTEM>
0

>  <SCORE.SYSTEM.CONST>
0

>  <SCORE.SYSTEM.DIHEDRAL>
0

>  <SCORE.SYSTEM.SOLV>
0

>  <SCORE.SYSTEM.norm>
0

>  <SCORE.heavy>
26

>  <SCORE.norm>
-0.485675

>  <RMSD>
9.104

$$$$
ligand
 OpenBabel11021811433D
libRbt.so/2013.1/901 2013/11/27
 26 27  0  0  0  0  0  0  0  0999 V2000
  -23.0641  -16.9202    8.5500 C   0  0  0  0  0  0  0  0  0  0  0  0
  -25.7919  -11.8242    6.2098 C   0  0  0  0  0  0  0  0  0  0  0  0
  -26.1234  -13.2407   -0.3269 P   0  0  1  0  0  0  0  0  0  0  0  0
  -24.8189  -12.5404   -2.8302 P   0  0  1  0  0  0  0  0  0  0  0  0
  -23.1246  -11.2873    7.4100 C   0  0  0  0  0  0  0  0  0  0  0  0
  -23.0893  -13.7083    6.6836 C   0  0  0  0  0  0  0  0  0  0  0  0
  -23.1190  -12.7760    7.7131 C   0  0  0  0  0  0  0  0  0  0  0  0
  -23.1297  -13.2305    9.0216 C   0  0  0  0  0  0  0  0  0  0  0  0
  -23.1598  -12.3590   10.0590 N   0  0  0  0  0  0  0  0  0  0  0  0
  -23.1104  -14.5586    9.2674 N   0  0  0  0  0  0  0  0  0  0  0  0
  -23.0833  -15.4460    8.2491 C   0  0  0  0  0  0  0  0  0  0  0  0
  -23.0735  -15.0192    6.9626 N   0  0  0  0  0  0  0  0  0  0  0  0
  -27.4544  -13.3324   -1.0259 O   0  5  0  0  0  0  0  0  0  0  0  0
  -23.6296  -11.6882   -3.1510 O   0  0  0  0  0  0  0  0  0  0  0  0
  -23.0872  -10.4063    3.5357 S   0  0  0  0  0  0  0  0  0  0  0  0
  -22.4400  -10.5698    5.1381 C   0  0  0  0  0  0  0  0  0  0  0  0
  -25.4809  -14.5277    0.1040 O   0  0  0  0  0  0  0  0  0  0  0  0
  -24.4519  -13.9789   -2.9826 O   0  5  0  0  0  0  0  0  0  0  0  0
  -23.3880  -11.0481    5.9909 N   0  0  0  0  0  0  0  0  0  0  0  0
  -25.1274  -12.3553   -1.2493 O   0  0  0  0  0  0  0  0  0  0  0  0
  -26.0957  -12.1855   -3.5424 O   0  0  0  0  0  0  0  0  0  0  0  0
  -24.6096  -11.2944    5.4429 C   0  0  1  0  0  0  0  0  0  0  0  0
  -24.6392  -10.9944    3.9857 C   0  0  1  0  0  0  0  0  0  0  0  0
  -25.6901  -11.0755    2.9105 C   0  0  0  0  0  0  0  0  0  0  0  0
  -25.2133  -12.0382    1.8343 C   0  0  0  0  0  0  0  0  0  0  0  0
  -26.3211  -12.3562    1.0008 O   0  0  0  0  0  0  0  0  0  0  0  0
  1 11  1  0  0  0  0
  3 13  1  6  0  0  0
  3 17  2  0  0  0  0
  3 20  1  0  0  0  0
  3 26  1  0  0  0  0
  4 14  1  6  0  0  0
  4 18  1  0  0  0  0
  4 21  2  0  0  0  0
  4 20  1  0  0  0  0
  5 19  1  0  0  0  0
  5  7  1  0  0  0  0
  6  7  2  0  0  0  0
  6 12  1  0  0  0  0
  7  8  1  0  0  0  0
  8  9  1  0  0  0  0
  8 10  2  0  0  0  0
 10 11  1  0  0  0  0
 11 12  2  0  0  0  0
 15 23  1  0  0  0  0
 15 16  1  0  0  0  0
 16 19  1  0  0  0  0
 19 22  1  0  0  0  0
 22  2  1  6  0  0  0
 22 23  1  0  0  0  0
 23 24  1  1  0  0  0
 24 25  1  0  0  0  0
 25 26  1  0  0  0  0
M  CHG  2  13  -1  18  -1
M  END
>  <CHROM.1>
-50.24658270,-110.47378450,12.31970243,-167.96719911,61.59459920,166.24197125
173.89428776,-176.75346814,-24.42954704,-12.65476380,2.96915417,0.59015105
1.31915226,2.59842122

>  <Name>
ligand

>  <RI>
0

>  <Rbt.Current_Directory>
/home/itssahil/PROJECTS/Mol_Feturizer/New_Systems/rnas/2GDI

>  <Rbt.Executable>
rbdock ($Id: //depot/dev/client3/rdock/2013.1/src/exe/rbdock.cxx#4 $)

>  <Rbt.Library>
libRbt.so (2013.1, Build901 2013/11/27)

>  <Rbt.Parameter_File>
/export/apps/rDock/src/rDock_2013.1_src/data/scripts/dock_solv.prm

>  <Rbt.Receptor>
prm/blind_docking_100.prm

>  <SCORE>
-15.0789

>  <SCORE.INTER>
-15.7148

>  <SCORE.INTER.CONST>
1

>  <SCORE.INTER.POLAR>
0

>  <SCORE.INTER.ROT>
8

>  <SCORE.INTER.SOLV>
19.8418

>  <SCORE.INTER.VDW>
-26.0238

>  <SCORE.INTER.norm>
-0.604416

>  <SCORE.INTRA>
0.635882

>  <SCORE.INTRA.DIHEDRAL>
-1.59097

>  <SCORE.INTRA.DIHEDRAL.0>
8.13976

>  <SCORE.INTRA.POLAR>
0

>  <SCORE.INTRA.POLAR.0>
0

>  <SCORE.INTRA.REPUL>
0

>  <SCORE.INTRA.REPUL.0>
0

>  <SCORE.INTRA.SOLV>
1.69491

>  <SCORE.INTRA.SOLV.lig_0>
-82.9561

>  <SCORE.INTRA.VDW>
0.583909

>  <SCORE.INTRA.VDW.0>
-3.29171

>  <SCORE.INTRA.norm>
0.024457

>  <SCORE.RESTR>
0

>  <SCORE.RESTR.CAVITY>
0

>  <SCORE.RESTR.norm>
0

>  <SCORE.SYSTEM>
0

>  <SCORE.SYSTEM.CONST>
0

>  <SCORE.SYSTEM.DIHEDRAL>
0

>  <SCORE.SYSTEM.SOLV>
0

>  <SCORE.SYSTEM.norm>
0

>  <SCORE.heavy>
26

>  <SCORE.norm>
-0.579959

>  <RMSD>
9.113

$$$$
ligand
 OpenBabel11021811433D
libRbt.so/2013.1/901 2013/11/27
 26 27  0  0  0  0  0  0  0  0999 V2000
  -25.8687  -12.2346    2.7872 C   0  0  0  0  0  0  0  0  0  0  0  0
  -21.8427  -17.7303    4.0452 C   0  0  0  0  0  0  0  0  0  0  0  0
  -21.8400  -18.2739   -1.1925 P   0  0  1  0  0  0  0  0  0  0  0  0
  -21.8223  -15.4654   -1.9479 P   0  0  1  0  0  0  0  0  0  0  0  0
  -24.7007  -17.4792    4.8278 C   0  0  0  0  0  0  0  0  0  0  0  0
  -25.6300  -15.9319    3.0578 C   0  0  0  0  0  0  0  0  0  0  0  0
  -24.9994  -16.0918    4.2853 C   0  0  0  0  0  0  0  0  0  0  0  0
  -24.6605  -14.9615    5.0109 C   0  0  0  0  0  0  0  0  0  0  0  0
  -24.0431  -15.0673    6.2126 N   0  0  0  0  0  0  0  0  0  0  0  0
  -24.9484  -13.7385    4.5150 N   0  0  0  0  0  0  0  0  0  0  0  0
  -25.5608  -13.6086    3.3179 C   0  0  0  0  0  0  0  0  0  0  0  0
  -25.8986  -14.7035    2.5938 N   0  0  0  0  0  0  0  0  0  0  0  0
  -22.9009  -19.3417   -1.1407 O   0  5  0  0  0  0  0  0  0  0  0  0
  -20.6792  -15.6027   -2.9060 O   0  0  0  0  0  0  0  0  0  0  0  0
  -24.3177  -20.0845    1.8524 S   0  0  0  0  0  0  0  0  0  0  0  0
  -25.1537  -19.1450    3.0489 C   0  0  0  0  0  0  0  0  0  0  0  0
  -20.5501  -18.6165   -1.8806 O   0  0  0  0  0  0  0  0  0  0  0  0
  -22.8796  -14.6078   -2.5593 O   0  5  0  0  0  0  0  0  0  0  0  0
  -24.2771  -18.3761    3.7525 N   0  0  0  0  0  0  0  0  0  0  0  0
  -22.5052  -16.9290   -1.8054 O   0  0  0  0  0  0  0  0  0  0  0  0
  -21.4634  -15.0414   -0.5498 O   0  0  0  0  0  0  0  0  0  0  0  0
  -22.9683  -18.4901    3.3954 C   0  0  1  0  0  0  0  0  0  0  0  0
  -22.7771  -19.4451    2.2703 C   0  0  1  0  0  0  0  0  0  0  0  0
  -21.5849  -19.9436    1.4975 C   0  0  0  0  0  0  0  0  0  0  0  0
  -20.7061  -18.7561    1.1371 C   0  0  0  0  0  0  0  0  0  0  0  0
  -21.4652  -17.8744    0.3189 O   0  0  0  0  0  0  0  0  0  0  0  0
  1 11  1  0  0  0  0
  3 13  1  6  0  0  0
  3 17  2  0  0  0  0
  3 20  1  0  0  0  0
  3 26  1  0  0  0  0
  4 14  1  6  0  0  0
  4 18  1  0  0  0  0
  4 21  2  0  0  0  0
  4 20  1  0  0  0  0
  5 19  1  0  0  0  0
  5  7  1  0  0  0  0
  6  7  2  0  0  0  0
  6 12  1  0  0  0  0
  7  8  1  0  0  0  0
  8  9  1  0  0  0  0
  8 10  2  0  0  0  0
 10 11  1  0  0  0  0
 11 12  2  0  0  0  0
 15 23  1  0  0  0  0
 15 16  1  0  0  0  0
 16 19  1  0  0  0  0
 19 22  1  0  0  0  0
 22  2  1  6  0  0  0
 22 23  1  0  0  0  0
 23 24  1  1  0  0  0
 24 25  1  0  0  0  0
 25 26  1  0  0  0  0
M  CHG  2  13  -1  18  -1
M  END
>  <CHROM.1>
174.26182174,-90.96844574,38.66871141,64.41586284,135.81698251,-61.26656384
-71.02330048,72.86545513,-23.14344969,-16.96517185,1.27481672,2.95914004
-1.06103856,2.65657973

>  <Name>
ligand

>  <RI>
0

>  <Rbt.Current_Directory>
/home/itssahil/PROJECTS/Mol_Feturizer/New_Systems/rnas/2GDI

>  <Rbt.Executable>
rbdock ($Id: //depot/dev/client3/rdock/2013.1/src/exe/rbdock.cxx#4 $)

>  <Rbt.Library>
libRbt.so (2013.1, Build901 2013/11/27)

>  <Rbt.Parameter_File>
/export/apps/rDock/src/rDock_2013.1_src/data/scripts/dock_solv.prm

>  <Rbt.Receptor>
prm/pocket_docking_5.prm

>  <SCORE>
-9.0363

>  <SCORE.INTER>
-8.29183

>  <SCORE.INTER.CONST>
1

>  <SCORE.INTER.POLAR>
0

>  <SCORE.INTER.ROT>
8

>  <SCORE.INTER.SOLV>
6.95891

>  <SCORE.INTER.VDW>
-16.7809

>  <SCORE.INTER.norm>
-0.318916

>  <SCORE.INTRA>
-0.744471

>  <SCORE.INTRA.DIHEDRAL>
-2.79391

>  <SCORE.INTRA.DIHEDRAL.0>
8.13976

>  <SCORE.INTRA.POLAR>
0

>  <SCORE.INTRA.POLAR.0>
0

>  <SCORE.INTRA.REPUL>
0

>  <SCORE.INTRA.REPUL.0>
0

>  <SCORE.INTRA.SOLV>
2.27675

>  <SCORE.INTRA.SOLV.lig_0>
-82.9561

>  <SCORE.INTRA.VDW>
-0.485889

>  <SCORE.INTRA.VDW.0>
-3.29171

>  <SCORE.INTRA.norm>
-0.0286335

>  <SCORE.RESTR>
0

>  <SCORE.RESTR.CAVITY>
0

>  <SCORE.RESTR.norm>
0

>  <SCORE.SYSTEM>
0

>  <SCORE.SYSTEM.CONST>
0

>  <SCORE.SYSTEM.DIHEDRAL>
0

>  <SCORE.SYSTEM.SOLV>
0

>  <SCORE.SYSTEM.norm>
0

>  <SCORE.heavy>
26

>  <SCORE.norm>
-0.34755

>  <RMSD>
9.142

$$$$
ligand
 OpenBabel11021811433D
libRbt.so/2013.1/901 2013/11/27
 26 27  0  0  0  0  0  0  0  0999 V2000
  -24.0032  -14.0458    7.0493 C   0  0  0  0  0  0  0  0  0  0  0  0
  -23.9987  -16.1142   -0.5147 C   0  0  0  0  0  0  0  0  0  0  0  0
  -20.7643  -12.2692   -0.7588 P   0  0  1  0  0  0  0  0  0  0  0  0
  -18.9644  -10.0284   -0.3142 P   0  0  1  0  0  0  0  0  0  0  0  0
  -25.7473  -15.8392    1.8748 C   0  0  0  0  0  0  0  0  0  0  0  0
  -25.5930  -14.0887    3.6921 C   0  0  0  0  0  0  0  0  0  0  0  0
  -25.2766  -15.3632    3.2387 C   0  0  0  0  0  0  0  0  0  0  0  0
  -24.5352  -16.1962    4.0604 C   0  0  0  0  0  0  0  0  0  0  0  0
  -24.2013  -17.4474    3.6611 N   0  0  0  0  0  0  0  0  0  0  0  0
  -24.1394  -15.7564    5.2747 N   0  0  0  0  0  0  0  0  0  0  0  0
  -24.4580  -14.5119    5.6928 C   0  0  0  0  0  0  0  0  0  0  0  0
  -25.1819  -13.6830    4.9015 N   0  0  0  0  0  0  0  0  0  0  0  0
  -19.8561  -12.9822   -1.7259 O   0  5  0  0  0  0  0  0  0  0  0  0
  -19.1320   -8.5427   -0.4049 O   0  0  0  0  0  0  0  0  0  0  0  0
  -25.9398  -12.5530   -0.3503 S   0  0  0  0  0  0  0  0  0  0  0  0
  -26.3079  -13.5924    0.9903 C   0  0  0  0  0  0  0  0  0  0  0  0
  -20.8500  -12.8156    0.6373 O   0  0  0  0  0  0  0  0  0  0  0  0
  -18.7922  -10.4202    1.1155 O   0  5  0  0  0  0  0  0  0  0  0  0
  -25.6310  -14.7693    0.8838 N   0  0  0  0  0  0  0  0  0  0  0  0
  -20.3722  -10.6966   -0.7617 O   0  0  0  0  0  0  0  0  0  0  0  0
  -17.9195  -10.6302   -1.2139 O   0  0  0  0  0  0  0  0  0  0  0  0
  -24.8301  -14.8967   -0.2097 C   0  0  1  0  0  0  0  0  0  0  0  0
  -24.8566  -13.6803   -1.0666 C   0  0  1  0  0  0  0  0  0  0  0  0
  -24.1894  -13.2803   -2.3557 C   0  0  0  0  0  0  0  0  0  0  0  0
  -22.6829  -13.3868   -2.1784 C   0  0  0  0  0  0  0  0  0  0  0  0
  -22.2545  -12.3047   -1.3608 O   0  0  0  0  0  0  0  0  0  0  0  0
  1 11  1  0  0  0  0
  3 13  1  6  0  0  0
  3 17  2  0  0  0  0
  3 20  1  0  0  0  0
  3 26  1  0  0  0  0
  4 14  1  6  0  0  0
  4 18  1  0  0  0  0
  4 21  2  0  0  0  0
  4 20  1  0  0  0  0
  5 19  1  0  0  0  0
  5  7  1  0  0  0  0
  6  7  2  0  0  0  0
  6 12  1  0  0  0  0
  7  8  1  0  0  0  0
  8  9  1  0  0  0  0
  8 10  2  0  0  0  0
 10 11  1  0  0  0  0
 11 12  2  0  0  0  0
 15 23  1  0  0  0  0
 15 16  1  0  0  0  0
 16 19  1  0  0  0  0
 19 22  1  0  0  0  0
 22  2  1  1  0  0  0
 22 23  1  0  0  0  0
 23 24  1  6  0  0  0
 24 25  1  0  0  0  0
 25 26  1  0  0  0  0
M  CHG  2  13  -1  18  -1
M  END
>  <CHROM.1>
-63.02775928,-61.30059012,40.42143313,-175.99687191,124.29068828,-73.43306747
168.78381138,30.41006488,-22.78566056,-13.12510301,0.86118806,-2.50010089
-0.57251762,-1.40274641

>  <Name>
ligand

>  <RI>
0

>  <Rbt.Current_Directory>
/home/itssahil/PROJECTS/Mol_Feturizer/New_Systems/rnas/2GDI

>  <Rbt.Executable>
rbdock ($Id: //depot/dev/client3/rdock/2013.1/src/exe/rbdock.cxx#4 $)

>  <Rbt.Library>
libRbt.so (2013.1, Build901 2013/11/27)

>  <Rbt.Parameter_File>
/export/apps/rDock/src/rDock_2013.1_src/data/scripts/dock_solv.prm

>  <Rbt.Receptor>
prm/pocket_docking_5.prm

>  <SCORE>
-12.0963

>  <SCORE.INTER>
-13.0953

>  <SCORE.INTER.CONST>
1

>  <SCORE.INTER.POLAR>
0

>  <SCORE.INTER.ROT>
8

>  <SCORE.INTER.SOLV>
18.9869

>  <SCORE.INTER.VDW>
-23.9925

>  <SCORE.INTER.norm>
-0.503664

>  <SCORE.INTRA>
0.998964

>  <SCORE.INTRA.DIHEDRAL>
-0.88259

>  <SCORE.INTRA.DIHEDRAL.0>
8.13976

>  <SCORE.INTRA.POLAR>
0

>  <SCORE.INTRA.POLAR.0>
0

>  <SCORE.INTRA.REPUL>
0

>  <SCORE.INTRA.REPUL.0>
0

>  <SCORE.INTRA.SOLV>
2.4179

>  <SCORE.INTRA.SOLV.lig_0>
-82.9561

>  <SCORE.INTRA.VDW>
0.231312

>  <SCORE.INTRA.VDW.0>
-3.29171

>  <SCORE.INTRA.norm>
0.0384217

>  <SCORE.RESTR>
0

>  <SCORE.RESTR.CAVITY>
0

>  <SCORE.RESTR.norm>
0

>  <SCORE.SYSTEM>
0

>  <SCORE.SYSTEM.CONST>
0

>  <SCORE.SYSTEM.DIHEDRAL>
0

>  <SCORE.SYSTEM.SOLV>
0

>  <SCORE.SYSTEM.norm>
0

>  <SCORE.heavy>
26

>  <SCORE.norm>
-0.465242

>  <RMSD>
9.156

$$$$
ligand
 OpenBabel11021811433D
libRbt.so/2013.1/901 2013/11/27
 26 27  0  0  0  0  0  0  0  0999 V2000
  -20.1406  -18.2203    3.8977 C   0  0  0  0  0  0  0  0  0  0  0  0
  -20.8782  -11.9980    2.8218 C   0  0  0  0  0  0  0  0  0  0  0  0
  -15.7953   -9.8661    0.2347 P   0  0  1  0  0  0  0  0  0  0  0  0
  -13.2542   -8.4521    0.1909 P   0  0  1  0  0  0  0  0  0  0  0  0
  -22.8882  -13.7646    1.5249 C   0  0  0  0  0  0  0  0  0  0  0  0
  -22.2275  -15.1704    3.5192 C   0  0  0  0  0  0  0  0  0  0  0  0
  -22.1529  -14.9370    2.1518 C   0  0  0  0  0  0  0  0  0  0  0  0
  -21.4057  -15.8022    1.3694 C   0  0  0  0  0  0  0  0  0  0  0  0
  -21.3025  -15.6144    0.0313 N   0  0  0  0  0  0  0  0  0  0  0  0
  -20.7717  -16.8459    1.9467 N   0  0  0  0  0  0  0  0  0  0  0  0
  -20.8580  -17.0512    3.2792 C   0  0  0  0  0  0  0  0  0  0  0  0
  -21.5837  -16.2141    4.0603 N   0  0  0  0  0  0  0  0  0  0  0  0
  -15.2456  -11.2338   -0.0747 O   0  5  0  0  0  0  0  0  0  0  0  0
  -13.3850   -7.6830    1.4695 O   0  0  0  0  0  0  0  0  0  0  0  0
  -20.7703  -11.8421   -1.2329 S   0  0  0  0  0  0  0  0  0  0  0  0
  -21.9808  -12.9273   -0.6246 C   0  0  0  0  0  0  0  0  0  0  0  0
  -16.1768   -9.5824    1.6590 O   0  0  0  0  0  0  0  0  0  0  0  0
  -12.6656   -9.7930    0.4785 O   0  5  0  0  0  0  0  0  0  0  0  0
  -21.9723  -12.9395    0.7372 N   0  0  0  0  0  0  0  0  0  0  0  0
  -14.7557   -8.7617   -0.3366 O   0  0  0  0  0  0  0  0  0  0  0  0
  -12.5604   -7.7405   -0.9385 O   0  0  0  0  0  0  0  0  0  0  0  0
  -21.0525  -12.1313    1.3324 C   0  0  1  0  0  0  0  0  0  0  0  0
  -20.2446  -11.3761    0.3367 C   0  0  1  0  0  0  0  0  0  0  0  0
  -19.1233  -10.3752    0.4253 C   0  0  0  0  0  0  0  0  0  0  0  0
  -18.1328  -10.6522   -0.6946 C   0  0  0  0  0  0  0  0  0  0  0  0
  -17.1210   -9.6535   -0.6495 O   0  0  0  0  0  0  0  0  0  0  0  0
  1 11  1  0  0  0  0
  3 13  1  6  0  0  0
  3 17  2  0  0  0  0
  3 20  1  0  0  0  0
  3 26  1  0  0  0  0
  4 14  1  1  0  0  0
  4 18  1  0  0  0  0
  4 21  2  0  0  0  0
  4 20  1  0  0  0  0
  5 19  1  0  0  0  0
  5  7  1  0  0  0  0
  6  7  2  0  0  0  0
  6 12  1  0  0  0  0
  7  8  1  0  0  0  0
  8  9  1  0  0  0  0
  8 10  2  0  0  0  0
 10 11  1  0  0  0  0
 11 12  2  0  0  0  0
 15 23  1  0  0  0  0
 15 16  1  0  0  0  0
 16 19  1  0  0  0  0
 19 22  1  0  0  0  0
 22  2  1  1  0  0  0
 22 23  1  0  0  0  0
 23 24  1  6  0  0  0
 24 25  1  0  0  0  0
 25 26  1  0  0  0  0
M  CHG  2  13  -1  18  -1
M  END
>  <CHROM.1>
-67.50980998,107.08850422,126.43005843,-75.72580450,-37.06162498,176.60065565
89.76558130,48.48187035,-18.30597623,-11.90022006,0.83540511,-2.46074908
-0.29265355,-0.63185555

>  <Name>
ligand

>  <RI>
0

>  <Rbt.Current_Directory>
/home/itssahil/PROJECTS/Mol_Feturizer/New_Systems/rnas/2GDI

>  <Rbt.Executable>
rbdock ($Id: //depot/dev/client3/rdock/2013.1/src/exe/rbdock.cxx#4 $)

>  <Rbt.Library>
libRbt.so (2013.1, Build901 2013/11/27)

>  <Rbt.Parameter_File>
/export/apps/rDock/src/rDock_2013.1_src/data/scripts/dock_solv.prm

>  <Rbt.Receptor>
prm/pocket_docking_4.prm

>  <SCORE>
-13.8189

>  <SCORE.INTER>
-17.7702

>  <SCORE.INTER.CONST>
1

>  <SCORE.INTER.POLAR>
0

>  <SCORE.INTER.ROT>
8

>  <SCORE.INTER.SOLV>
29.1877

>  <SCORE.INTER.VDW>
-30.5094

>  <SCORE.INTER.norm>
-0.68347

>  <SCORE.INTRA>
3.95134

>  <SCORE.INTRA.DIHEDRAL>
1.43607

>  <SCORE.INTRA.DIHEDRAL.0>
8.13976

>  <SCORE.INTRA.POLAR>
0

>  <SCORE.INTRA.POLAR.0>
0

>  <SCORE.INTRA.REPUL>
0

>  <SCORE.INTRA.REPUL.0>
0

>  <SCORE.INTRA.SOLV>
3.99139

>  <SCORE.INTRA.SOLV.lig_0>
-82.9561

>  <SCORE.INTRA.VDW>
1.23761

>  <SCORE.INTRA.VDW.0>
-3.29171

>  <SCORE.INTRA.norm>
0.151975

>  <SCORE.RESTR>
0

>  <SCORE.RESTR.CAVITY>
0

>  <SCORE.RESTR.norm>
0

>  <SCORE.SYSTEM>
0

>  <SCORE.SYSTEM.CONST>
0

>  <SCORE.SYSTEM.DIHEDRAL>
0

>  <SCORE.SYSTEM.SOLV>
0

>  <SCORE.SYSTEM.norm>
0

>  <SCORE.heavy>
26

>  <SCORE.norm>
-0.531496

>  <RMSD>
9.171

$$$$
ligand
 OpenBabel11021811433D
libRbt.so/2013.1/901 2013/11/27
 26 27  0  0  0  0  0  0  0  0999 V2000
  -22.5307  -13.0819    8.6684 C   0  0  0  0  0  0  0  0  0  0  0  0
  -24.2199  -19.0602    2.8154 C   0  0  0  0  0  0  0  0  0  0  0  0
  -19.6379  -16.8818   -0.2895 P   0  0  1  0  0  0  0  0  0  0  0  0
  -17.3380  -15.1077   -0.4379 P   0  0  1  0  0  0  0  0  0  0  0  0
  -23.9535  -17.5737    5.3772 C   0  0  0  0  0  0  0  0  0  0  0  0
  -23.2102  -16.5660    7.5731 C   0  0  0  0  0  0  0  0  0  0  0  0
  -23.5876  -16.3842    6.2486 C   0  0  0  0  0  0  0  0  0  0  0  0
  -23.6108  -15.0981    5.7343 C   0  0  0  0  0  0  0  0  0  0  0  0
  -23.9734  -14.8711    4.4485 N   0  0  0  0  0  0  0  0  0  0  0  0
  -23.2681  -14.0570    6.5239 N   0  0  0  0  0  0  0  0  0  0  0  0
  -22.9061  -14.2591    7.8096 C   0  0  0  0  0  0  0  0  0  0  0  0
  -22.8788  -15.5104    8.3298 N   0  0  0  0  0  0  0  0  0  0  0  0
  -20.7012  -15.8177   -0.2151 O   0  5  0  0  0  0  0  0  0  0  0  0
  -18.1504  -13.8496   -0.4666 O   0  0  0  0  0  0  0  0  0  0  0  0
  -20.3663  -18.5817    3.9977 S   0  0  0  0  0  0  0  0  0  0  0  0
  -21.5090  -17.8739    5.0960 C   0  0  0  0  0  0  0  0  0  0  0  0
  -19.4455  -17.5731   -1.6085 O   0  0  0  0  0  0  0  0  0  0  0  0
  -16.1784  -14.9265    0.4839 O   0  5  0  0  0  0  0  0  0  0  0  0
  -22.7820  -18.0642    4.6511 N   0  0  0  0  0  0  0  0  0  0  0  0
  -18.2508  -16.2504    0.2620 O   0  0  0  0  0  0  0  0  0  0  0  0
  -16.9375  -15.6646   -1.7768 O   0  0  0  0  0  0  0  0  0  0  0  0
  -22.9055  -18.7445    3.4783 C   0  0  1  0  0  0  0  0  0  0  0  0
  -21.5853  -19.1586    2.9307 C   0  0  1  0  0  0  0  0  0  0  0  0
  -21.1373  -19.9077    1.7039 C   0  0  0  0  0  0  0  0  0  0  0  0
  -21.0682  -18.9352    0.5369 C   0  0  0  0  0  0  0  0  0  0  0  0
  -20.0041  -18.0236    0.7813 O   0  0  0  0  0  0  0  0  0  0  0  0
  1 11  1  0  0  0  0
  3 13  1  6  0  0  0
  3 17  2  0  0  0  0
  3 20  1  0  0  0  0
  3 26  1  0  0  0  0
  4 14  1  6  0  0  0
  4 18  1  0  0  0  0
  4 21  2  0  0  0  0
  4 20  1  0  0  0  0
  5 19  1  0  0  0  0
  5  7  1  0  0  0  0
  6  7  2  0  0  0  0
  6 12  1  0  0  0  0
  7  8  1  0  0  0  0
  8  9  1  0  0  0  0
  8 10  2  0  0  0  0
 10 11  1  0  0  0  0
 11 12  2  0  0  0  0
 15 23  1  0  0  0  0
 15 16  1  0  0  0  0
 16 19  1  0  0  0  0
 19 22  1  0  0  0  0
 22  2  1  1  0  0  0
 22 23  1  0  0  0  0
 23 24  1  6  0  0  0
 24 25  1  0  0  0  0
 25 26  1  0  0  0  0
M  CHG  2  13  -1  18  -1
M  END
>  <CHROM.1>
-69.03593899,25.08700767,-92.21720259,64.73853621,-95.56119190,68.05312593
178.38671127,74.07364598,-20.84481804,-16.61309609,2.74205924,-2.56438908
-0.82726825,-2.44833079

>  <Name>
ligand

>  <RI>
0

>  <Rbt.Current_Directory>
/home/itssahil/PROJECTS/Mol_Feturizer/New_Systems/rnas/2GDI

>  <Rbt.Executable>
rbdock ($Id: //depot/dev/client3/rdock/2013.1/src/exe/rbdock.cxx#4 $)

>  <Rbt.Library>
libRbt.so (2013.1, Build901 2013/11/27)

>  <Rbt.Parameter_File>
/export/apps/rDock/src/rDock_2013.1_src/data/scripts/dock_solv.prm

>  <Rbt.Receptor>
prm/pocket_docking_7.prm

>  <SCORE>
-14.3586

>  <SCORE.INTER>
-13.2108

>  <SCORE.INTER.CONST>
1

>  <SCORE.INTER.POLAR>
0

>  <SCORE.INTER.ROT>
8

>  <SCORE.INTER.SOLV>
7.54167

>  <SCORE.INTER.VDW>
-20.2544

>  <SCORE.INTER.norm>
-0.508108

>  <SCORE.INTRA>
-1.14779

>  <SCORE.INTRA.DIHEDRAL>
-2.97273

>  <SCORE.INTRA.DIHEDRAL.0>
8.13976

>  <SCORE.INTRA.POLAR>
0

>  <SCORE.INTRA.POLAR.0>
0

>  <SCORE.INTRA.REPUL>
0

>  <SCORE.INTRA.REPUL.0>
0

>  <SCORE.INTRA.SOLV>
1.11617

>  <SCORE.INTRA.SOLV.lig_0>
-82.9561

>  <SCORE.INTRA.VDW>
-0.219504

>  <SCORE.INTRA.VDW.0>
-3.29171

>  <SCORE.INTRA.norm>
-0.0441456

>  <SCORE.RESTR>
0

>  <SCORE.RESTR.CAVITY>
0

>  <SCORE.RESTR.norm>
0

>  <SCORE.SYSTEM>
0

>  <SCORE.SYSTEM.CONST>
0

>  <SCORE.SYSTEM.DIHEDRAL>
0

>  <SCORE.SYSTEM.SOLV>
0

>  <SCORE.SYSTEM.norm>
0

>  <SCORE.heavy>
26

>  <SCORE.norm>
-0.552254

>  <RMSD>
9.196

$$$$
ligand
 OpenBabel11021811433D
libRbt.so/2013.1/901 2013/11/27
 26 27  0  0  0  0  0  0  0  0999 V2000
  -21.8123  -17.6373   -4.5114 C   0  0  0  0  0  0  0  0  0  0  0  0
  -24.5840  -19.1181    2.3942 C   0  0  0  0  0  0  0  0  0  0  0  0
  -22.7699  -14.6460    2.9528 P   0  0  1  0  0  0  0  0  0  0  0  0
  -22.6753  -12.1012    4.3578 P   0  0  1  0  0  0  0  0  0  0  0  0
  -23.1343  -20.5776    0.2468 C   0  0  0  0  0  0  0  0  0  0  0  0
  -21.7795  -18.8440   -0.9981 C   0  0  0  0  0  0  0  0  0  0  0  0
  -22.7931  -19.7940   -1.0094 C   0  0  0  0  0  0  0  0  0  0  0  0
  -23.4774  -20.0222   -2.1920 C   0  0  0  0  0  0  0  0  0  0  0  0
  -24.4745  -20.9380   -2.2514 N   0  0  0  0  0  0  0  0  0  0  0  0
  -23.1475  -19.3234   -3.2999 N   0  0  0  0  0  0  0  0  0  0  0  0
  -22.1589  -18.4034   -3.2635 C   0  0  0  0  0  0  0  0  0  0  0  0
  -21.4795  -18.1663   -2.1148 N   0  0  0  0  0  0  0  0  0  0  0  0
  -24.0254  -14.3030    2.1947 O   0  5  0  0  0  0  0  0  0  0  0  0
  -21.4510  -11.6526    3.6206 O   0  0  0  0  0  0  0  0  0  0  0  0
  -20.5876  -19.3842    3.0535 S   0  0  0  0  0  0  0  0  0  0  0  0
  -21.0871  -20.1479    1.5769 C   0  0  0  0  0  0  0  0  0  0  0  0
  -21.4743  -14.6067    2.1948 O   0  0  0  0  0  0  0  0  0  0  0  0
  -23.8906  -11.6553    3.6153 O   0  5  0  0  0  0  0  0  0  0  0  0
  -22.4330  -20.0280    1.4071 N   0  0  0  0  0  0  0  0  0  0  0  0
  -22.7127  -13.7204    4.2821 O   0  0  0  0  0  0  0  0  0  0  0  0
  -22.7268  -11.7570    5.8214 O   0  0  0  0  0  0  0  0  0  0  0  0
  -23.0981  -19.3601    2.3895 C   0  0  1  0  0  0  0  0  0  0  0  0
  -22.1806  -18.8780    3.4574 C   0  0  1  0  0  0  0  0  0  0  0  0
  -22.3618  -18.1110    4.7403 C   0  0  0  0  0  0  0  0  0  0  0  0
  -22.0179  -16.6514    4.4885 C   0  0  0  0  0  0  0  0  0  0  0  0
  -22.9273  -16.1416    3.5209 O   0  0  0  0  0  0  0  0  0  0  0  0
  1 11  1  0  0  0  0
  3 13  1  6  0  0  0
  3 17  2  0  0  0  0
  3 20  1  0  0  0  0
  3 26  1  0  0  0  0
  4 14  1  6  0  0  0
  4 18  1  0  0  0  0
  4 21  2  0  0  0  0
  4 20  1  0  0  0  0
  5 19  1  0  0  0  0
  5  7  1  0  0  0  0
  6  7  2  0  0  0  0
  6 12  1  0  0  0  0
  7  8  1  0  0  0  0
  8  9  1  0  0  0  0
  8 10  2  0  0  0  0
 10 11  1  0  0  0  0
 11 12  2  0  0  0  0
 15 23  1  0  0  0  0
 15 16  1  0  0  0  0
 16 19  1  0  0  0  0
 19 22  1  0  0  0  0
 22  2  1  6  0  0  0
 22 23  1  0  0  0  0
 23 24  1  1  0  0  0
 24 25  1  0  0  0  0
 25 26  1  0  0  0  0
M  CHG  2  13  -1  18  -1
M  END
>  <CHROM.1>
-60.14368162,-70.35848087,9.36967871,-59.58996726,82.21122300,62.16829244
-175.64765241,-167.89420214,-22.52720420,-16.75018406,1.77226243,1.51857306
1.45830258,-2.40025329

>  <Name>
ligand

>  <RI>
0

>  <Rbt.Current_Directory>
/home/itssahil/PROJECTS/Mol_Feturizer/New_Systems/rnas/2GDI

>  <Rbt.Executable>
rbdock ($Id: //depot/dev/client3/rdock/2013.1/src/exe/rbdock.cxx#4 $)

>  <Rbt.Library>
libRbt.so (2013.1, Build901 2013/11/27)

>  <Rbt.Parameter_File>
/export/apps/rDock/src/rDock_2013.1_src/data/scripts/dock_solv.prm

>  <Rbt.Receptor>
prm/pocket_docking_6.prm

>  <SCORE>
-10.1261

>  <SCORE.INTER>
-8.5733

>  <SCORE.INTER.CONST>
1

>  <SCORE.INTER.POLAR>
0

>  <SCORE.INTER.ROT>
8

>  <SCORE.INTER.SOLV>
11.7336

>  <SCORE.INTER.VDW>
-18.5601

>  <SCORE.INTER.norm>
-0.329742

>  <SCORE.INTRA>
-1.55278

>  <SCORE.INTRA.DIHEDRAL>
-2.78716

>  <SCORE.INTRA.DIHEDRAL.0>
8.13976

>  <SCORE.INTRA.POLAR>
0

>  <SCORE.INTRA.POLAR.0>
0

>  <SCORE.INTRA.REPUL>
0

>  <SCORE.INTRA.REPUL.0>
0

>  <SCORE.INTRA.SOLV>
0.110792

>  <SCORE.INTRA.SOLV.lig_0>
-82.9561

>  <SCORE.INTRA.VDW>
-0.214594

>  <SCORE.INTRA.VDW.0>
-3.29171

>  <SCORE.INTRA.norm>
-0.0597223

>  <SCORE.RESTR>
0

>  <SCORE.RESTR.CAVITY>
0

>  <SCORE.RESTR.norm>
0

>  <SCORE.SYSTEM>
0

>  <SCORE.SYSTEM.CONST>
0

>  <SCORE.SYSTEM.DIHEDRAL>
0

>  <SCORE.SYSTEM.SOLV>
0

>  <SCORE.SYSTEM.norm>
0

>  <SCORE.heavy>
26

>  <SCORE.norm>
-0.389465

>  <RMSD>
9.233

$$$$
ligand
 OpenBabel11021811433D
libRbt.so/2013.1/901 2013/11/27
 26 27  0  0  0  0  0  0  0  0999 V2000
  -22.5072  -13.0884    8.7771 C   0  0  0  0  0  0  0  0  0  0  0  0
  -24.1388  -19.0141    2.8507 C   0  0  0  0  0  0  0  0  0  0  0  0
  -19.5312  -16.8671   -0.0567 P   0  0  1  0  0  0  0  0  0  0  0  0
  -18.0873  -17.2735   -2.5485 P   0  0  1  0  0  0  0  0  0  0  0  0
  -23.8961  -17.5459    5.4253 C   0  0  0  0  0  0  0  0  0  0  0  0
  -23.5518  -15.0721    5.8150 C   0  0  0  0  0  0  0  0  0  0  0  0
  -23.5187  -16.3697    6.3099 C   0  0  0  0  0  0  0  0  0  0  0  0
  -23.1479  -16.5688    7.6297 C   0  0  0  0  0  0  0  0  0  0  0  0
  -23.0997  -17.8164    8.1566 N   0  0  0  0  0  0  0  0  0  0  0  0
  -22.8299  -15.5067    8.4013 N   0  0  0  0  0  0  0  0  0  0  0  0
  -22.8680  -14.2541    7.8967 C   0  0  0  0  0  0  0  0  0  0  0  0
  -23.2275  -14.0408    6.6073 N   0  0  0  0  0  0  0  0  0  0  0  0
  -18.4288  -16.0609    0.5783 O   0  5  0  0  0  0  0  0  0  0  0  0
  -16.8191  -16.6276   -2.0815 O   0  0  0  0  0  0  0  0  0  0  0  0
  -20.3052  -18.6542    4.1353 S   0  0  0  0  0  0  0  0  0  0  0  0
  -21.4550  -17.9171    5.2066 C   0  0  0  0  0  0  0  0  0  0  0  0
  -20.7392  -16.1198   -0.5436 O   0  0  0  0  0  0  0  0  0  0  0  0
  -17.7594  -18.5211   -3.2990 O   0  5  0  0  0  0  0  0  0  0  0  0
  -22.7209  -18.0680    4.7278 N   0  0  0  0  0  0  0  0  0  0  0  0
  -18.8808  -17.7792   -1.2281 O   0  0  0  0  0  0  0  0  0  0  0  0
  -19.0472  -16.3826   -3.2888 O   0  0  0  0  0  0  0  0  0  0  0  0
  -22.8336  -18.7399    3.5491 C   0  0  1  0  0  0  0  0  0  0  0  0
  -21.5122  -19.1907    3.0342 C   0  0  1  0  0  0  0  0  0  0  0  0
  -21.0544  -19.9480    1.8161 C   0  0  0  0  0  0  0  0  0  0  0  0
  -20.9430  -18.9767    0.6514 C   0  0  0  0  0  0  0  0  0  0  0  0
  -20.0535  -17.9326    1.0278 O   0  0  0  0  0  0  0  0  0  0  0  0
  1 11  1  0  0  0  0
  3 13  1  1  0  0  0
  3 17  2  0  0  0  0
  3 20  1  0  0  0  0
  3 26  1  0  0  0  0
  4 14  1  1  0  0  0
  4 18  1  0  0  0  0
  4 21  2  0  0  0  0
  4 20  1  0  0  0  0
  5 19  1  0  0  0  0
  5  7  1  0  0  0  0
  6  7  2  0  0  0  0
  6 12  1  0  0  0  0
  7  8  1  0  0  0  0
  8  9  1  0  0  0  0
  8 10  2  0  0  0  0
 10 11  1  0  0  0  0
 11 12  2  0  0  0  0
 15 23  1  0  0  0  0
 15 16  1  0  0  0  0
 16 19  1  0  0  0  0
 19 22  1  0  0  0  0
 22  2  1  1  0  0  0
 22 23  1  0  0  0  0
 23 24  1  6  0  0  0
 24 25  1  0  0  0  0
 25 26  1  0  0  0  0
M  CHG  2  13  -1  18  -1
M  END
>  <CHROM.1>
-60.40093700,25.17170852,90.14047911,66.01319012,-96.26454348,56.76283266
170.09281341,-169.80119710,-20.90729682,-17.15719529,2.53544886,-2.52330995
-0.99237628,-2.58510296

>  <Name>
ligand

>  <RI>
0

>  <Rbt.Current_Directory>
/home/itssahil/PROJECTS/Mol_Feturizer/New_Systems/rnas/2GDI

>  <Rbt.Executable>
rbdock ($Id: //depot/dev/client3/rdock/2013.1/src/exe/rbdock.cxx#4 $)

>  <Rbt.Library>
libRbt.so (2013.1, Build901 2013/11/27)

>  <Rbt.Parameter_File>
/export/apps/rDock/src/rDock_2013.1_src/data/scripts/dock_solv.prm

>  <Rbt.Receptor>
prm/pocket_docking_7.prm

>  <SCORE>
-12.9991

>  <SCORE.INTER>
-11.8564

>  <SCORE.INTER.CONST>
1

>  <SCORE.INTER.POLAR>
0

>  <SCORE.INTER.ROT>
8

>  <SCORE.INTER.SOLV>
13.0333

>  <SCORE.INTER.VDW>
-21.182

>  <SCORE.INTER.norm>
-0.456016

>  <SCORE.INTRA>
-1.14264

>  <SCORE.INTRA.DIHEDRAL>
-2.73827

>  <SCORE.INTRA.DIHEDRAL.0>
8.13976

>  <SCORE.INTRA.POLAR>
0

>  <SCORE.INTRA.POLAR.0>
0

>  <SCORE.INTRA.REPUL>
0

>  <SCORE.INTRA.REPUL.0>
0

>  <SCORE.INTRA.SOLV>
0.910982

>  <SCORE.INTRA.SOLV.lig_0>
-82.9561

>  <SCORE.INTRA.VDW>
-0.228993

>  <SCORE.INTRA.VDW.0>
-3.29171

>  <SCORE.INTRA.norm>
-0.0439476

>  <SCORE.RESTR>
0

>  <SCORE.RESTR.CAVITY>
0

>  <SCORE.RESTR.norm>
0

>  <SCORE.SYSTEM>
0

>  <SCORE.SYSTEM.CONST>
0

>  <SCORE.SYSTEM.DIHEDRAL>
0

>  <SCORE.SYSTEM.SOLV>
0

>  <SCORE.SYSTEM.norm>
0

>  <SCORE.heavy>
26

>  <SCORE.norm>
-0.499964

>  <RMSD>
9.279

$$$$
ligand
 OpenBabel11021811433D
libRbt.so/2013.1/901 2013/11/27
 26 27  0  0  0  0  0  0  0  0999 V2000
  -26.7583   -7.6718    9.4354 C   0  0  0  0  0  0  0  0  0  0  0  0
  -22.8234  -13.6314    8.1560 C   0  0  0  0  0  0  0  0  0  0  0  0
  -25.8393  -14.8819    2.9092 P   0  0  1  0  0  0  0  0  0  0  0  0
  -25.4515  -12.1899    1.8789 P   0  0  1  0  0  0  0  0  0  0  0  0
  -22.1202  -10.7463    7.9970 C   0  0  0  0  0  0  0  0  0  0  0  0
  -23.6382   -8.7430    7.7273 C   0  0  0  0  0  0  0  0  0  0  0  0
  -23.3411   -9.9297    8.3856 C   0  0  0  0  0  0  0  0  0  0  0  0
  -24.1874  -10.3605    9.3940 C   0  0  0  0  0  0  0  0  0  0  0  0
  -23.9381  -11.5111   10.0653 N   0  0  0  0  0  0  0  0  0  0  0  0
  -25.2746   -9.6251    9.7130 N   0  0  0  0  0  0  0  0  0  0  0  0
  -25.5416   -8.4733    9.0594 C   0  0  0  0  0  0  0  0  0  0  0  0
  -24.7238   -8.0360    8.0708 N   0  0  0  0  0  0  0  0  0  0  0  0
  -27.0325  -15.7947    3.0171 O   0  5  0  0  0  0  0  0  0  0  0  0
  -26.2199  -11.3394    0.9147 O   0  0  0  0  0  0  0  0  0  0  0  0
  -22.6985  -12.2193    4.3524 S   0  0  0  0  0  0  0  0  0  0  0  0
  -22.3302  -11.0091    5.5411 C   0  0  0  0  0  0  0  0  0  0  0  0
  -24.5624  -15.4752    2.3875 O   0  0  0  0  0  0  0  0  0  0  0  0
  -25.4715  -11.5503    3.2271 O   0  5  0  0  0  0  0  0  0  0  0  0
  -22.3864  -11.5370    6.7953 N   0  0  0  0  0  0  0  0  0  0  0  0
  -26.2792  -13.5720    2.0622 O   0  0  0  0  0  0  0  0  0  0  0  0
  -24.0687  -12.5935    1.4451 O   0  0  0  0  0  0  0  0  0  0  0  0
  -22.7083  -12.8577    6.8696 C   0  0  1  0  0  0  0  0  0  0  0  0
  -22.9183  -13.4584    5.5244 C   0  0  1  0  0  0  0  0  0  0  0  0
  -23.2821  -14.8312    5.0245 C   0  0  0  0  0  0  0  0  0  0  0  0
  -24.7565  -15.0770    5.3039 C   0  0  0  0  0  0  0  0  0  0  0  0
  -25.5175  -14.3118    4.3774 O   0  0  0  0  0  0  0  0  0  0  0  0
  1 11  1  0  0  0  0
  3 13  1  1  0  0  0
  3 17  2  0  0  0  0
  3 20  1  0  0  0  0
  3 26  1  0  0  0  0
  4 14  1  6  0  0  0
  4 18  1  0  0  0  0
  4 21  2  0  0  0  0
  4 20  1  0  0  0  0
  5 19  1  0  0  0  0
  5  7  1  0  0  0  0
  6  7  2  0  0  0  0
  6 12  1  0  0  0  0
  7  8  1  0  0  0  0
  8  9  1  0  0  0  0
  8 10  2  0  0  0  0
 10 11  1  0  0  0  0
 11 12  2  0  0  0  0
 15 23  1  0  0  0  0
 15 16  1  0  0  0  0
 16 19  1  0  0  0  0
 19 22  1  0  0  0  0
 22  2  1  6  0  0  0
 22 23  1  0  0  0  0
 23 24  1  1  0  0  0
 24 25  1  0  0  0  0
 25 26  1  0  0  0  0
M  CHG  2  13  -1  18  -1
M  END
>  <CHROM.1>
168.79676289,80.43372402,-79.45951870,175.15412067,-105.01417887,74.20009266
84.66224399,82.52381122,-24.48068599,-12.20290441,5.26972120,1.29663819,-0.97692126
0.75334197

>  <Name>
ligand

>  <RI>
0

>  <Rbt.Current_Directory>
/home/itssahil/PROJECTS/Mol_Feturizer/New_Systems/rnas/2GDI

>  <Rbt.Executable>
rbdock ($Id: //depot/dev/client3/rdock/2013.1/src/exe/rbdock.cxx#4 $)

>  <Rbt.Library>
libRbt.so (2013.1, Build901 2013/11/27)

>  <Rbt.Parameter_File>
/export/apps/rDock/src/rDock_2013.1_src/data/scripts/dock_solv.prm

>  <Rbt.Receptor>
prm/blind_docking_40.prm

>  <SCORE>
-10.6618

>  <SCORE.INTER>
-12.4822

>  <SCORE.INTER.CONST>
1

>  <SCORE.INTER.POLAR>
0

>  <SCORE.INTER.ROT>
8

>  <SCORE.INTER.SOLV>
13.8221

>  <SCORE.INTER.VDW>
-21.8622

>  <SCORE.INTER.norm>
-0.480085

>  <SCORE.INTRA>
1.42792

>  <SCORE.INTRA.DIHEDRAL>
0.478661

>  <SCORE.INTRA.DIHEDRAL.0>
8.13976

>  <SCORE.INTRA.POLAR>
0

>  <SCORE.INTRA.POLAR.0>
0

>  <SCORE.INTRA.REPUL>
0

>  <SCORE.INTRA.REPUL.0>
0

>  <SCORE.INTRA.SOLV>
6.08929

>  <SCORE.INTRA.SOLV.lig_0>
-82.9561

>  <SCORE.INTRA.VDW>
-1.85606

>  <SCORE.INTRA.VDW.0>
-3.29171

>  <SCORE.INTRA.norm>
0.0549198

>  <SCORE.RESTR>
0.392473

>  <SCORE.RESTR.CAVITY>
0.392473

>  <SCORE.RESTR.norm>
0.0150951

>  <SCORE.SYSTEM>
0

>  <SCORE.SYSTEM.CONST>
0

>  <SCORE.SYSTEM.DIHEDRAL>
0

>  <SCORE.SYSTEM.SOLV>
0

>  <SCORE.SYSTEM.norm>
0

>  <SCORE.heavy>
26

>  <SCORE.norm>
-0.41007

>  <RMSD>
9.284

$$$$
ligand
 OpenBabel11021811433D
libRbt.so/2013.1/901 2013/11/27
 26 27  0  0  0  0  0  0  0  0999 V2000
  -23.2776  -16.4851    3.9146 C   0  0  0  0  0  0  0  0  0  0  0  0
  -24.9140  -11.2749    6.3410 C   0  0  0  0  0  0  0  0  0  0  0  0
  -22.5517  -13.0481    9.4851 P   0  0  1  0  0  0  0  0  0  0  0  0
  -23.4630  -15.4289    8.0851 P   0  0  1  0  0  0  0  0  0  0  0  0
  -24.1390  -10.8172    3.5067 C   0  0  0  0  0  0  0  0  0  0  0  0
  -22.9391  -12.8265    4.4624 C   0  0  0  0  0  0  0  0  0  0  0  0
  -23.9057  -12.3153    3.6056 C   0  0  0  0  0  0  0  0  0  0  0  0
  -24.6618  -13.1991    2.8532 C   0  0  0  0  0  0  0  0  0  0  0  0
  -25.6154  -12.7474    2.0029 N   0  0  0  0  0  0  0  0  0  0  0  0
  -24.4462  -14.5276    2.9678 N   0  0  0  0  0  0  0  0  0  0  0  0
  -23.4990  -15.0006    3.8070 C   0  0  0  0  0  0  0  0  0  0  0  0
  -22.7491  -14.1504    4.5499 N   0  0  0  0  0  0  0  0  0  0  0  0
  -23.5849  -13.4959   10.4853 O   0  5  0  0  0  0  0  0  0  0  0  0
  -22.9265  -16.1805    6.9058 O   0  0  0  0  0  0  0  0  0  0  0  0
  -21.9123   -8.5757    5.9160 S   0  0  0  0  0  0  0  0  0  0  0  0
  -22.4704   -9.2181    4.4031 C   0  0  0  0  0  0  0  0  0  0  0  0
  -21.1549  -12.8256    9.9895 O   0  0  0  0  0  0  0  0  0  0  0  0
  -23.1909  -16.2042    9.3310 O   0  5  0  0  0  0  0  0  0  0  0  0
  -23.4747  -10.1155    4.6052 N   0  0  0  0  0  0  0  0  0  0  0  0
  -22.5782  -14.0785    8.2344 O   0  0  0  0  0  0  0  0  0  0  0  0
  -24.8932  -14.9738    7.9819 O   0  0  0  0  0  0  0  0  0  0  0  0
  -23.8306  -10.3261    5.9022 C   0  0  1  0  0  0  0  0  0  0  0  0
  -23.0330   -9.4934    6.8429 C   0  0  1  0  0  0  0  0  0  0  0  0
  -22.9996   -9.3255    8.3388 C   0  0  0  0  0  0  0  0  0  0  0  0
  -22.2295  -10.4892    8.9429 C   0  0  0  0  0  0  0  0  0  0  0  0
  -23.0432  -11.6526    8.8563 O   0  0  0  0  0  0  0  0  0  0  0  0
  1 11  1  0  0  0  0
  3 13  1  1  0  0  0
  3 17  2  0  0  0  0
  3 20  1  0  0  0  0
  3 26  1  0  0  0  0
  4 14  1  6  0  0  0
  4 18  1  0  0  0  0
  4 21  2  0  0  0  0
  4 20  1  0  0  0  0
  5 19  1  0  0  0  0
  5  7  1  0  0  0  0
  6  7  2  0  0  0  0
  6 12  1  0  0  0  0
  7  8  1  0  0  0  0
  8  9  1  0  0  0  0
  8 10  2  0  0  0  0
 10 11  1  0  0  0  0
 11 12  2  0  0  0  0
 15 23  1  0  0  0  0
 15 16  1  0  0  0  0
 16 19  1  0  0  0  0
 19 22  1  0  0  0  0
 22  2  1  6  0  0  0
 22 23  1  0  0  0  0
 23 24  1  1  0  0  0
 24 25  1  0  0  0  0
 25 26  1  0  0  0  0
M  CHG  2  13  -1  18  -1
M  END
>  <CHROM.1>
-4.16026239,116.79369742,-13.20022246,-168.00884947,-99.90359406,-72.90879393
-176.54925525,122.36371721,-23.26247647,-12.68574806,6.57230188,1.98784073
-1.30704510,-0.56088520

>  <Name>
ligand

>  <RI>
0

>  <Rbt.Current_Directory>
/home/itssahil/PROJECTS/Mol_Feturizer/New_Systems/rnas/2GDI

>  <Rbt.Executable>
rbdock ($Id: //depot/dev/client3/rdock/2013.1/src/exe/rbdock.cxx#4 $)

>  <Rbt.Library>
libRbt.so (2013.1, Build901 2013/11/27)

>  <Rbt.Parameter_File>
/export/apps/rDock/src/rDock_2013.1_src/data/scripts/dock_solv.prm

>  <Rbt.Receptor>
prm/blind_docking_100.prm

>  <SCORE>
-6.6917

>  <SCORE.INTER>
-9.32137

>  <SCORE.INTER.CONST>
1

>  <SCORE.INTER.POLAR>
0

>  <SCORE.INTER.ROT>
8

>  <SCORE.INTER.SOLV>
16.4827

>  <SCORE.INTER.VDW>
-20.6418

>  <SCORE.INTER.norm>
-0.358514

>  <SCORE.INTRA>
2.03145

>  <SCORE.INTRA.DIHEDRAL>
2.08263

>  <SCORE.INTRA.DIHEDRAL.0>
8.13976

>  <SCORE.INTRA.POLAR>
0

>  <SCORE.INTRA.POLAR.0>
0

>  <SCORE.INTRA.REPUL>
0

>  <SCORE.INTRA.REPUL.0>
0

>  <SCORE.INTRA.SOLV>
2.68027

>  <SCORE.INTRA.SOLV.lig_0>
-82.9561

>  <SCORE.INTRA.VDW>
-0.350001

>  <SCORE.INTRA.VDW.0>
-3.29171

>  <SCORE.INTRA.norm>
0.0781326

>  <SCORE.RESTR>
0.598216

>  <SCORE.RESTR.CAVITY>
0.598216

>  <SCORE.RESTR.norm>
0.0230083

>  <SCORE.SYSTEM>
0

>  <SCORE.SYSTEM.CONST>
0

>  <SCORE.SYSTEM.DIHEDRAL>
0

>  <SCORE.SYSTEM.SOLV>
0

>  <SCORE.SYSTEM.norm>
0

>  <SCORE.heavy>
26

>  <SCORE.norm>
-0.257373

>  <RMSD>
9.287

$$$$
ligand
 OpenBabel11021811433D
libRbt.so/2013.1/901 2013/11/27
 26 27  0  0  0  0  0  0  0  0999 V2000
  -26.2228  -16.4686    3.8520 C   0  0  0  0  0  0  0  0  0  0  0  0
  -23.5654  -12.0577   -2.4848 C   0  0  0  0  0  0  0  0  0  0  0  0
  -22.3560  -15.8919   -4.1571 P   0  0  1  0  0  0  0  0  0  0  0  0
  -23.4643  -18.4850   -3.4457 P   0  0  1  0  0  0  0  0  0  0  0  0
  -25.3178  -12.4017   -0.1071 C   0  0  0  0  0  0  0  0  0  0  0  0
  -25.6674  -14.8108    0.5743 C   0  0  0  0  0  0  0  0  0  0  0  0
  -25.5673  -13.4743    0.9397 C   0  0  0  0  0  0  0  0  0  0  0  0
  -25.6859  -13.1404    2.2788 C   0  0  0  0  0  0  0  0  0  0  0  0
  -25.5965  -11.8500    2.6831 N   0  0  0  0  0  0  0  0  0  0  0  0
  -25.8938  -14.1124    3.1935 N   0  0  0  0  0  0  0  0  0  0  0  0
  -25.9893  -15.4053    2.8133 C   0  0  0  0  0  0  0  0  0  0  0  0
  -25.8767  -15.7501    1.5073 N   0  0  0  0  0  0  0  0  0  0  0  0
  -21.4153  -14.9474   -3.4561 O   0  5  0  0  0  0  0  0  0  0  0  0
  -24.5062  -18.2409   -4.4936 O   0  0  0  0  0  0  0  0  0  0  0  0
  -27.0817  -13.8974   -3.3380 S   0  0  0  0  0  0  0  0  0  0  0  0
  -26.9207  -13.4791   -1.6610 C   0  0  0  0  0  0  0  0  0  0  0  0
  -21.9054  -16.4663   -5.4693 O   0  0  0  0  0  0  0  0  0  0  0  0
  -22.3637  -19.3095   -4.0254 O   0  5  0  0  0  0  0  0  0  0  0  0
  -25.7260  -12.8662   -1.4328 N   0  0  0  0  0  0  0  0  0  0  0  0
  -22.7793  -17.0544   -3.1100 O   0  0  0  0  0  0  0  0  0  0  0  0
  -23.9637  -19.0201   -2.1313 O   0  0  0  0  0  0  0  0  0  0  0  0
  -24.9226  -12.7081   -2.5205 C   0  0  1  0  0  0  0  0  0  0  0  0
  -25.5501  -13.2396   -3.7608 C   0  0  1  0  0  0  0  0  0  0  0  0
  -25.1292  -13.3301   -5.2036 C   0  0  0  0  0  0  0  0  0  0  0  0
  -23.7393  -13.9434   -5.2685 C   0  0  0  0  0  0  0  0  0  0  0  0
  -23.7268  -15.1029   -4.4448 O   0  0  0  0  0  0  0  0  0  0  0  0
  1 11  1  0  0  0  0
  3 13  1  1  0  0  0
  3 17  2  0  0  0  0
  3 20  1  0  0  0  0
  3 26  1  0  0  0  0
  4 14  1  6  0  0  0
  4 18  1  0  0  0  0
  4 21  2  0  0  0  0
  4 20  1  0  0  0  0
  5 19  1  0  0  0  0
  5  7  1  0  0  0  0
  6  7  2  0  0  0  0
  6 12  1  0  0  0  0
  7  8  1  0  0  0  0
  8  9  1  0  0  0  0
  8 10  2  0  0  0  0
 10 11  1  0  0  0  0
 11 12  2  0  0  0  0
 15 23  1  0  0  0  0
 15 16  1  0  0  0  0
 16 19  1  0  0  0  0
 19 22  1  0  0  0  0
 22  2  1  6  0  0  0
 22 23  1  0  0  0  0
 23 24  1  1  0  0  0
 24 25  1  0  0  0  0
 25 26  1  0  0  0  0
M  CHG  2  13  -1  18  -1
M  END
>  <CHROM.1>
-163.81180205,46.95072963,22.23294250,-41.54406697,-128.43755446,47.87917874
-172.85422755,61.21278855,-24.52247065,-15.15467436,-2.00142077,-2.78826344
1.13552772,-0.84959490

>  <Name>
ligand

>  <RI>
0

>  <Rbt.Current_Directory>
/home/itssahil/PROJECTS/Mol_Feturizer/New_Systems/rnas/2GDI

>  <Rbt.Executable>
rbdock ($Id: //depot/dev/client3/rdock/2013.1/src/exe/rbdock.cxx#4 $)

>  <Rbt.Library>
libRbt.so (2013.1, Build901 2013/11/27)

>  <Rbt.Parameter_File>
/export/apps/rDock/src/rDock_2013.1_src/data/scripts/dock_solv.prm

>  <Rbt.Receptor>
prm/pocket_docking_6.prm

>  <SCORE>
-10.9707

>  <SCORE.INTER>
-10.294

>  <SCORE.INTER.CONST>
1

>  <SCORE.INTER.POLAR>
0

>  <SCORE.INTER.ROT>
8

>  <SCORE.INTER.SOLV>
10.2961

>  <SCORE.INTER.VDW>
-19.228

>  <SCORE.INTER.norm>
-0.395922

>  <SCORE.INTRA>
-0.676701

>  <SCORE.INTRA.DIHEDRAL>
-1.64508

>  <SCORE.INTRA.DIHEDRAL.0>
8.13976

>  <SCORE.INTRA.POLAR>
0

>  <SCORE.INTRA.POLAR.0>
0

>  <SCORE.INTRA.REPUL>
0

>  <SCORE.INTRA.REPUL.0>
0

>  <SCORE.INTRA.SOLV>
0.0693434

>  <SCORE.INTRA.SOLV.lig_0>
-82.9561

>  <SCORE.INTRA.VDW>
0.111167

>  <SCORE.INTRA.VDW.0>
-3.29171

>  <SCORE.INTRA.norm>
-0.026027

>  <SCORE.RESTR>
0

>  <SCORE.RESTR.CAVITY>
0

>  <SCORE.RESTR.norm>
0

>  <SCORE.SYSTEM>
0

>  <SCORE.SYSTEM.CONST>
0

>  <SCORE.SYSTEM.DIHEDRAL>
0

>  <SCORE.SYSTEM.SOLV>
0

>  <SCORE.SYSTEM.norm>
0

>  <SCORE.heavy>
26

>  <SCORE.norm>
-0.421949

>  <RMSD>
9.301

$$$$
ligand
 OpenBabel11021811433D
libRbt.so/2013.1/901 2013/11/27
 26 27  0  0  0  0  0  0  0  0999 V2000
  -24.6564   -8.3314    8.5537 C   0  0  0  0  0  0  0  0  0  0  0  0
  -25.6969  -14.5422    2.8122 C   0  0  0  0  0  0  0  0  0  0  0  0
  -25.4381  -13.3999   -3.2599 P   0  0  1  0  0  0  0  0  0  0  0  0
  -28.1251  -13.9944   -4.2008 P   0  0  1  0  0  0  0  0  0  0  0  0
  -26.2113  -12.4769    4.8890 C   0  0  0  0  0  0  0  0  0  0  0  0
  -26.7472  -10.7271    6.6329 C   0  0  0  0  0  0  0  0  0  0  0  0
  -25.7998  -11.3742    5.8497 C   0  0  0  0  0  0  0  0  0  0  0  0
  -24.4706  -11.0035    5.9720 C   0  0  0  0  0  0  0  0  0  0  0  0
  -23.5109  -11.6054    5.2282 N   0  0  0  0  0  0  0  0  0  0  0  0
  -24.1263  -10.0300    6.8428 N   0  0  0  0  0  0  0  0  0  0  0  0
  -25.0663   -9.4140    7.5925 C   0  0  0  0  0  0  0  0  0  0  0  0
  -26.3717   -9.7632    7.4851 N   0  0  0  0  0  0  0  0  0  0  0  0
  -24.0981  -13.9396   -3.6863 O   0  5  0  0  0  0  0  0  0  0  0  0
  -28.3892  -14.0544   -2.7276 O   0  0  0  0  0  0  0  0  0  0  0  0
  -25.3933  -10.7460    1.4074 S   0  0  0  0  0  0  0  0  0  0  0  0
  -25.7968  -10.8182    3.0941 C   0  0  0  0  0  0  0  0  0  0  0  0
  -25.5136  -11.9425   -2.9065 O   0  0  0  0  0  0  0  0  0  0  0  0
  -28.7339  -12.7528   -4.7621 O   0  5  0  0  0  0  0  0  0  0  0  0
  -25.8849  -12.1119    3.5105 N   0  0  0  0  0  0  0  0  0  0  0  0
  -26.5273  -13.7972   -4.3925 O   0  0  0  0  0  0  0  0  0  0  0  0
  -28.4842  -15.2266   -4.9857 O   0  0  0  0  0  0  0  0  0  0  0  0
  -25.6497  -13.0586    2.5607 C   0  0  1  0  0  0  0  0  0  0  0  0
  -25.3216  -12.4560    1.2402 C   0  0  1  0  0  0  0  0  0  0  0  0
  -24.9869  -13.0078   -0.1201 C   0  0  0  0  0  0  0  0  0  0  0  0
  -26.2620  -13.5336   -0.7602 C   0  0  0  0  0  0  0  0  0  0  0  0
  -25.9090  -14.2159   -1.9573 O   0  0  0  0  0  0  0  0  0  0  0  0
  1 11  1  0  0  0  0
  3 13  1  6  0  0  0
  3 17  2  0  0  0  0
  3 20  1  0  0  0  0
  3 26  1  0  0  0  0
  4 14  1  1  0  0  0
  4 18  1  0  0  0  0
  4 21  2  0  0  0  0
  4 20  1  0  0  0  0
  5 19  1  0  0  0  0
  5  7  1  0  0  0  0
  6  7  2  0  0  0  0
  6 12  1  0  0  0  0
  7  8  1  0  0  0  0
  8  9  1  0  0  0  0
  8 10  2  0  0  0  0
 10 11  1  0  0  0  0
 11 12  2  0  0  0  0
 15 23  1  0  0  0  0
 15 16  1  0  0  0  0
 16 19  1  0  0  0  0
 19 22  1  0  0  0  0
 22  2  1  1  0  0  0
 22 23  1  0  0  0  0
 23 24  1  6  0  0  0
 24 25  1  0  0  0  0
 25 26  1  0  0  0  0
M  CHG  2  13  -1  18  -1
M  END
>  <CHROM.1>
153.89538734,-26.46321184,118.71768829,-12.79969399,-103.89277990,-172.07101638
-72.93966763,125.37785245,-25.98039238,-12.37410949,0.84449225,-1.40222546
-0.15878024,-1.86523917

>  <Name>
ligand

>  <RI>
0

>  <Rbt.Current_Directory>
/home/itssahil/PROJECTS/Mol_Feturizer/New_Systems/rnas/2GDI

>  <Rbt.Executable>
rbdock ($Id: //depot/dev/client3/rdock/2013.1/src/exe/rbdock.cxx#4 $)

>  <Rbt.Library>
libRbt.so (2013.1, Build901 2013/11/27)

>  <Rbt.Parameter_File>
/export/apps/rDock/src/rDock_2013.1_src/data/scripts/dock_solv.prm

>  <Rbt.Receptor>
prm/blind_docking_100.prm

>  <SCORE>
-12.1405

>  <SCORE.INTER>
-15.4903

>  <SCORE.INTER.CONST>
1

>  <SCORE.INTER.POLAR>
0

>  <SCORE.INTER.ROT>
8

>  <SCORE.INTER.SOLV>
19.253

>  <SCORE.INTER.VDW>
-25.6779

>  <SCORE.INTER.norm>
-0.595781

>  <SCORE.INTRA>
3.3498

>  <SCORE.INTRA.DIHEDRAL>
2.55822

>  <SCORE.INTRA.DIHEDRAL.0>
8.13976

>  <SCORE.INTRA.POLAR>
0

>  <SCORE.INTRA.POLAR.0>
0

>  <SCORE.INTRA.REPUL>
0

>  <SCORE.INTRA.REPUL.0>
0

>  <SCORE.INTRA.SOLV>
2.28825

>  <SCORE.INTRA.SOLV.lig_0>
-82.9561

>  <SCORE.INTRA.VDW>
0.926562

>  <SCORE.INTRA.VDW.0>
-3.29171

>  <SCORE.INTRA.norm>
0.128838

>  <SCORE.RESTR>
0

>  <SCORE.RESTR.CAVITY>
0

>  <SCORE.RESTR.norm>
0

>  <SCORE.SYSTEM>
0

>  <SCORE.SYSTEM.CONST>
0

>  <SCORE.SYSTEM.DIHEDRAL>
0

>  <SCORE.SYSTEM.SOLV>
0

>  <SCORE.SYSTEM.norm>
0

>  <SCORE.heavy>
26

>  <SCORE.norm>
-0.466943

>  <RMSD>
9.307

$$$$
ligand
 OpenBabel11021811433D
libRbt.so/2013.1/901 2013/11/27
 26 27  0  0  0  0  0  0  0  0999 V2000
  -24.4004  -13.4374   -4.8109 C   0  0  0  0  0  0  0  0  0  0  0  0
  -23.1252  -12.2727    2.2371 C   0  0  0  0  0  0  0  0  0  0  0  0
  -23.1152  -12.1434    6.6044 P   0  0  1  0  0  0  0  0  0  0  0  0
  -22.3808   -9.3370    6.8141 P   0  0  1  0  0  0  0  0  0  0  0  0
  -25.5771  -11.8914    0.5982 C   0  0  0  0  0  0  0  0  0  0  0  0
  -24.0708  -11.9302   -1.4316 C   0  0  0  0  0  0  0  0  0  0  0  0
  -25.2721  -12.2922   -0.8352 C   0  0  0  0  0  0  0  0  0  0  0  0
  -26.1807  -13.0374   -1.5688 C   0  0  0  0  0  0  0  0  0  0  0  0
  -27.3661  -13.4129   -1.0302 N   0  0  0  0  0  0  0  0  0  0  0  0
  -25.8822  -13.3941   -2.8370 N   0  0  0  0  0  0  0  0  0  0  0  0
  -24.7077  -13.0286   -3.3958 C   0  0  0  0  0  0  0  0  0  0  0  0
  -23.8074  -12.2985   -2.6931 N   0  0  0  0  0  0  0  0  0  0  0  0
  -22.1967  -12.7555    7.6291 O   0  5  0  0  0  0  0  0  0  0  0  0
  -21.4863   -9.4907    8.0056 O   0  0  0  0  0  0  0  0  0  0  0  0
  -25.8899  -15.1936    2.7856 S   0  0  0  0  0  0  0  0  0  0  0  0
  -26.3913  -13.9864    1.6435 C   0  0  0  0  0  0  0  0  0  0  0  0
  -24.5470  -11.9287    7.0027 O   0  0  0  0  0  0  0  0  0  0  0  0
  -21.7392   -8.4172    5.8296 O   0  5  0  0  0  0  0  0  0  0  0  0
  -25.4282  -13.0345    1.4990 N   0  0  0  0  0  0  0  0  0  0  0  0
  -22.4331  -10.7749    6.0668 O   0  0  0  0  0  0  0  0  0  0  0  0
  -23.8112   -8.9733    7.1061 O   0  0  0  0  0  0  0  0  0  0  0  0
  -24.3051  -13.2077    2.2487 C   0  0  1  0  0  0  0  0  0  0  0  0
  -24.3694  -14.4441    3.0742 C   0  0  1  0  0  0  0  0  0  0  0  0
  -23.4433  -15.1076    4.0587 C   0  0  0  0  0  0  0  0  0  0  0  0
  -23.6147  -14.4413    5.4147 C   0  0  0  0  0  0  0  0  0  0  0  0
  -23.1333  -13.1064    5.3174 O   0  0  0  0  0  0  0  0  0  0  0  0
  1 11  1  0  0  0  0
  3 13  1  1  0  0  0
  3 17  2  0  0  0  0
  3 20  1  0  0  0  0
  3 26  1  0  0  0  0
  4 14  1  1  0  0  0
  4 18  1  0  0  0  0
  4 21  2  0  0  0  0
  4 20  1  0  0  0  0
  5 19  1  0  0  0  0
  5  7  1  0  0  0  0
  6  7  2  0  0  0  0
  6 12  1  0  0  0  0
  7  8  1  0  0  0  0
  8  9  1  0  0  0  0
  8 10  2  0  0  0  0
 10 11  1  0  0  0  0
 11 12  2  0  0  0  0
 15 23  1  0  0  0  0
 15 16  1  0  0  0  0
 16 19  1  0  0  0  0
 19 22  1  0  0  0  0
 22  2  1  6  0  0  0
 22 23  1  0  0  0  0
 23 24  1  1  0  0  0
 24 25  1  0  0  0  0
 25 26  1  0  0  0  0
M  CHG  2  13  -1  18  -1
M  END
>  <CHROM.1>
-77.49268318,-80.24007824,-104.33876542,68.39490840,-96.35664545,-67.09520683
-177.39944893,62.37141593,-24.05934709,-12.34119792,3.07162725,-2.27247662
1.11980578,1.93790410

>  <Name>
ligand

>  <RI>
0

>  <Rbt.Current_Directory>
/home/itssahil/PROJECTS/Mol_Feturizer/New_Systems/rnas/2GDI

>  <Rbt.Executable>
rbdock ($Id: //depot/dev/client3/rdock/2013.1/src/exe/rbdock.cxx#4 $)

>  <Rbt.Library>
libRbt.so (2013.1, Build901 2013/11/27)

>  <Rbt.Parameter_File>
/export/apps/rDock/src/rDock_2013.1_src/data/scripts/dock_solv.prm

>  <Rbt.Receptor>
prm/blind_docking_40.prm

>  <SCORE>
-9.81045

>  <SCORE.INTER>
-8.49443

>  <SCORE.INTER.CONST>
1

>  <SCORE.INTER.POLAR>
0

>  <SCORE.INTER.ROT>
8

>  <SCORE.INTER.SOLV>
24.7548

>  <SCORE.INTER.VDW>
-22.8479

>  <SCORE.INTER.norm>
-0.326709

>  <SCORE.INTRA>
-1.33204

>  <SCORE.INTRA.DIHEDRAL>
-2.9107

>  <SCORE.INTRA.DIHEDRAL.0>
8.13976

>  <SCORE.INTRA.POLAR>
0

>  <SCORE.INTRA.POLAR.0>
0

>  <SCORE.INTRA.REPUL>
0

>  <SCORE.INTRA.REPUL.0>
0

>  <SCORE.INTRA.SOLV>
1.98333

>  <SCORE.INTRA.SOLV.lig_0>
-82.9561

>  <SCORE.INTRA.VDW>
-0.86836

>  <SCORE.INTRA.VDW.0>
-3.29171

>  <SCORE.INTRA.norm>
-0.0512324

>  <SCORE.RESTR>
0.016018

>  <SCORE.RESTR.CAVITY>
0.016018

>  <SCORE.RESTR.norm>
0.000616078

>  <SCORE.SYSTEM>
0

>  <SCORE.SYSTEM.CONST>
0

>  <SCORE.SYSTEM.DIHEDRAL>
0

>  <SCORE.SYSTEM.SOLV>
0

>  <SCORE.SYSTEM.norm>
0

>  <SCORE.heavy>
26

>  <SCORE.norm>
-0.377325

>  <RMSD>
9.309

$$$$
ligand
 OpenBabel11021811433D
libRbt.so/2013.1/901 2013/11/27
 26 27  0  0  0  0  0  0  0  0999 V2000
  -23.4783  -18.0150   -8.4832 C   0  0  0  0  0  0  0  0  0  0  0  0
  -23.6051  -12.6211   -2.7133 C   0  0  0  0  0  0  0  0  0  0  0  0
  -25.3282  -13.4227    2.3635 P   0  0  1  0  0  0  0  0  0  0  0  0
  -25.6281  -15.8398    3.9530 P   0  0  1  0  0  0  0  0  0  0  0  0
  -24.2676  -13.1250   -5.5682 C   0  0  0  0  0  0  0  0  0  0  0  0
  -25.0109  -14.8666   -7.2428 C   0  0  0  0  0  0  0  0  0  0  0  0
  -24.0620  -14.4231   -6.3303 C   0  0  0  0  0  0  0  0  0  0  0  0
  -22.9184  -15.1811   -6.1389 C   0  0  0  0  0  0  0  0  0  0  0  0
  -21.9654  -14.7896   -5.2587 N   0  0  0  0  0  0  0  0  0  0  0  0
  -22.7507  -16.3248   -6.8378 N   0  0  0  0  0  0  0  0  0  0  0  0
  -23.6887  -16.7362   -7.7187 C   0  0  0  0  0  0  0  0  0  0  0  0
  -24.8143  -16.0077   -7.9178 N   0  0  0  0  0  0  0  0  0  0  0  0
  -26.1642  -12.1700    2.3848 O   0  5  0  0  0  0  0  0  0  0  0  0
  -26.9982  -16.3076    3.5689 O   0  0  0  0  0  0  0  0  0  0  0  0
  -27.4481  -13.7973   -3.2835 S   0  0  0  0  0  0  0  0  0  0  0  0
  -26.5405  -13.6949   -4.7596 C   0  0  0  0  0  0  0  0  0  0  0  0
  -23.8603  -13.2673    2.0880 O   0  0  0  0  0  0  0  0  0  0  0  0
  -24.6320  -16.3743    2.9788 O   0  5  0  0  0  0  0  0  0  0  0  0
  -25.2622  -13.2974   -4.5093 N   0  0  0  0  0  0  0  0  0  0  0  0
  -25.5949  -14.2326    3.7419 O   0  0  0  0  0  0  0  0  0  0  0  0
  -25.2284  -16.0746    5.3842 O   0  0  0  0  0  0  0  0  0  0  0  0
  -24.9575  -13.0662   -3.2027 C   0  0  1  0  0  0  0  0  0  0  0  0
  -26.1164  -13.3218   -2.3049 C   0  0  1  0  0  0  0  0  0  0  0  0
  -26.3434  -13.2301   -0.8193 C   0  0  0  0  0  0  0  0  0  0  0  0
  -25.4742  -14.2688   -0.1281 C   0  0  0  0  0  0  0  0  0  0  0  0
  -25.9130  -14.3890    1.2195 O   0  0  0  0  0  0  0  0  0  0  0  0
  1 11  1  0  0  0  0
  3 13  1  1  0  0  0
  3 17  2  0  0  0  0
  3 20  1  0  0  0  0
  3 26  1  0  0  0  0
  4 14  1  6  0  0  0
  4 18  1  0  0  0  0
  4 21  2  0  0  0  0
  4 20  1  0  0  0  0
  5 19  1  0  0  0  0
  5  7  1  0  0  0  0
  6  7  2  0  0  0  0
  6 12  1  0  0  0  0
  7  8  1  0  0  0  0
  8  9  1  0  0  0  0
  8 10  2  0  0  0  0
 10 11  1  0  0  0  0
 11 12  2  0  0  0  0
 15 23  1  0  0  0  0
 15 16  1  0  0  0  0
 16 19  1  0  0  0  0
 19 22  1  0  0  0  0
 22  2  1  1  0  0  0
 22 23  1  0  0  0  0
 23 24  1  6  0  0  0
 24 25  1  0  0  0  0
 25 26  1  0  0  0  0
M  CHG  2  13  -1  18  -1
M  END
>  <CHROM.1>
145.52862458,-58.97668108,75.07169947,-83.07998732,115.70722231,-166.81091717
-87.27988472,86.97428817,-25.09637492,-14.55324613,-1.49136102,-1.26689680
-1.07226278,1.79119993

>  <Name>
ligand

>  <RI>
0

>  <Rbt.Current_Directory>
/home/itssahil/PROJECTS/Mol_Feturizer/New_Systems/rnas/2GDI

>  <Rbt.Executable>
rbdock ($Id: //depot/dev/client3/rdock/2013.1/src/exe/rbdock.cxx#4 $)

>  <Rbt.Library>
libRbt.so (2013.1, Build901 2013/11/27)

>  <Rbt.Parameter_File>
/export/apps/rDock/src/rDock_2013.1_src/data/scripts/dock_solv.prm

>  <Rbt.Receptor>
prm/pocket_docking_8.prm

>  <SCORE>
-10.9626

>  <SCORE.INTER>
-13.8984

>  <SCORE.INTER.CONST>
1

>  <SCORE.INTER.POLAR>
0

>  <SCORE.INTER.ROT>
8

>  <SCORE.INTER.SOLV>
14.2877

>  <SCORE.INTER.VDW>
-22.9615

>  <SCORE.INTER.norm>
-0.534552

>  <SCORE.INTRA>
2.53674

>  <SCORE.INTRA.DIHEDRAL>
3.05143

>  <SCORE.INTRA.DIHEDRAL.0>
8.13976

>  <SCORE.INTRA.POLAR>
0

>  <SCORE.INTRA.POLAR.0>
0

>  <SCORE.INTRA.REPUL>
0

>  <SCORE.INTRA.REPUL.0>
0

>  <SCORE.INTRA.SOLV>
2.69044

>  <SCORE.INTRA.SOLV.lig_0>
-82.9561

>  <SCORE.INTRA.VDW>
-0.334195

>  <SCORE.INTRA.VDW.0>
-3.29171

>  <SCORE.INTRA.norm>
0.097567

>  <SCORE.RESTR>
0.399055

>  <SCORE.RESTR.CAVITY>
0.399055

>  <SCORE.RESTR.norm>
0.0153483

>  <SCORE.SYSTEM>
0

>  <SCORE.SYSTEM.CONST>
0

>  <SCORE.SYSTEM.DIHEDRAL>
0

>  <SCORE.SYSTEM.SOLV>
0

>  <SCORE.SYSTEM.norm>
0

>  <SCORE.heavy>
26

>  <SCORE.norm>
-0.421637

>  <RMSD>
9.317

$$$$
ligand
 OpenBabel11021811433D
libRbt.so/2013.1/901 2013/11/27
 26 27  0  0  0  0  0  0  0  0999 V2000
  -25.8480  -16.2241   -7.4884 C   0  0  0  0  0  0  0  0  0  0  0  0
  -22.5309  -12.6451   -0.8635 C   0  0  0  0  0  0  0  0  0  0  0  0
  -22.8426  -12.2658    4.0329 P   0  0  1  0  0  0  0  0  0  0  0  0
  -22.5786  -10.1999    6.0629 P   0  0  1  0  0  0  0  0  0  0  0  0
  -23.9812  -12.5759   -3.4587 C   0  0  0  0  0  0  0  0  0  0  0  0
  -25.6266  -13.2690   -5.2482 C   0  0  0  0  0  0  0  0  0  0  0  0
  -24.4789  -13.5464   -4.5164 C   0  0  0  0  0  0  0  0  0  0  0  0
  -23.7896  -14.7188   -4.7796 C   0  0  0  0  0  0  0  0  0  0  0  0
  -22.6657  -15.0329   -4.0908 N   0  0  0  0  0  0  0  0  0  0  0  0
  -24.2432  -15.5601   -5.7342 N   0  0  0  0  0  0  0  0  0  0  0  0
  -25.3631  -15.2691   -6.4315 C   0  0  0  0  0  0  0  0  0  0  0  0
  -26.0506  -14.1270   -6.1866 N   0  0  0  0  0  0  0  0  0  0  0  0
  -22.0753  -12.6061    2.7823 O   0  5  0  0  0  0  0  0  0  0  0  0
  -21.8787  -11.0165    7.1055 O   0  0  0  0  0  0  0  0  0  0  0  0
  -26.5368  -13.1731   -0.4755 S   0  0  0  0  0  0  0  0  0  0  0  0
  -26.0346  -12.9542   -2.1226 C   0  0  0  0  0  0  0  0  0  0  0  0
  -22.9377  -13.3249    5.0931 O   0  0  0  0  0  0  0  0  0  0  0  0
  -21.9566   -8.8449    5.9964 O   0  5  0  0  0  0  0  0  0  0  0  0
  -24.6854  -12.7825   -2.1932 N   0  0  0  0  0  0  0  0  0  0  0  0
  -22.2530  -10.8777    4.6265 O   0  0  0  0  0  0  0  0  0  0  0  0
  -24.0788  -10.1489    6.1627 O   0  0  0  0  0  0  0  0  0  0  0  0
  -24.0201  -12.8138   -1.0058 C   0  0  1  0  0  0  0  0  0  0  0  0
  -24.9364  -13.0526    0.1421 C   0  0  1  0  0  0  0  0  0  0  0  0
  -24.7552  -13.1767    1.6317 C   0  0  0  0  0  0  0  0  0  0  0  0
  -24.7077  -11.7817    2.2350 C   0  0  0  0  0  0  0  0  0  0  0  0
  -24.3495  -11.9031    3.6061 O   0  0  0  0  0  0  0  0  0  0  0  0
  1 11  1  0  0  0  0
  3 13  1  6  0  0  0
  3 17  2  0  0  0  0
  3 20  1  0  0  0  0
  3 26  1  0  0  0  0
  4 14  1  1  0  0  0
  4 18  1  0  0  0  0
  4 21  2  0  0  0  0
  4 20  1  0  0  0  0
  5 19  1  0  0  0  0
  5  7  1  0  0  0  0
  6  7  2  0  0  0  0
  6 12  1  0  0  0  0
  7  8  1  0  0  0  0
  8  9  1  0  0  0  0
  8 10  2  0  0  0  0
 10 11  1  0  0  0  0
 11 12  2  0  0  0  0
 15 23  1  0  0  0  0
 15 16  1  0  0  0  0
 16 19  1  0  0  0  0
 19 22  1  0  0  0  0
 22  2  1  6  0  0  0
 22 23  1  0  0  0  0
 23 24  1  1  0  0  0
 24 25  1  0  0  0  0
 25 26  1  0  0  0  0
M  CHG  2  13  -1  18  -1
M  END
>  <CHROM.1>
-170.14213185,-44.64252537,83.25483893,72.97636392,-96.00431124,-171.92311789
73.50068724,-7.66020360,-23.97604480,-12.65290393,0.48001846,-1.77263117
-0.12863828,1.21895999

>  <Name>
ligand

>  <RI>
0

>  <Rbt.Current_Directory>
/home/itssahil/PROJECTS/Mol_Feturizer/New_Systems/rnas/2GDI

>  <Rbt.Executable>
rbdock ($Id: //depot/dev/client3/rdock/2013.1/src/exe/rbdock.cxx#4 $)

>  <Rbt.Library>
libRbt.so (2013.1, Build901 2013/11/27)

>  <Rbt.Parameter_File>
/export/apps/rDock/src/rDock_2013.1_src/data/scripts/dock_solv.prm

>  <Rbt.Receptor>
prm/pocket_docking_8.prm

>  <SCORE>
-12.1407

>  <SCORE.INTER>
-14.059

>  <SCORE.INTER.CONST>
1

>  <SCORE.INTER.POLAR>
0

>  <SCORE.INTER.ROT>
8

>  <SCORE.INTER.SOLV>
14.4299

>  <SCORE.INTER.VDW>
-23.1159

>  <SCORE.INTER.norm>
-0.54073

>  <SCORE.INTRA>
1.91831

>  <SCORE.INTRA.DIHEDRAL>
0.411117

>  <SCORE.INTRA.DIHEDRAL.0>
8.13976

>  <SCORE.INTRA.POLAR>
0

>  <SCORE.INTRA.POLAR.0>
0

>  <SCORE.INTRA.REPUL>
0

>  <SCORE.INTRA.REPUL.0>
0

>  <SCORE.INTRA.SOLV>
2.89165

>  <SCORE.INTRA.SOLV.lig_0>
-82.9561

>  <SCORE.INTRA.VDW>
0.266928

>  <SCORE.INTRA.VDW.0>
-3.29171

>  <SCORE.INTRA.norm>
0.0737811

>  <SCORE.RESTR>
0

>  <SCORE.RESTR.CAVITY>
0

>  <SCORE.RESTR.norm>
0

>  <SCORE.SYSTEM>
0

>  <SCORE.SYSTEM.CONST>
0

>  <SCORE.SYSTEM.DIHEDRAL>
0

>  <SCORE.SYSTEM.SOLV>
0

>  <SCORE.SYSTEM.norm>
0

>  <SCORE.heavy>
26

>  <SCORE.norm>
-0.466949

>  <RMSD>
9.322

$$$$
ligand
 OpenBabel11021811433D
libRbt.so/2013.1/901 2013/11/27
 26 27  0  0  0  0  0  0  0  0999 V2000
  -21.2067  -12.5637   10.6573 C   0  0  0  0  0  0  0  0  0  0  0  0
  -22.6208  -14.6712    4.4076 C   0  0  0  0  0  0  0  0  0  0  0  0
  -20.4216  -11.7661    0.0969 P   0  0  1  0  0  0  0  0  0  0  0  0
  -18.0208  -10.4803   -0.9237 P   0  0  1  0  0  0  0  0  0  0  0  0
  -24.7155  -14.4275    6.5042 C   0  0  0  0  0  0  0  0  0  0  0  0
  -23.1233  -12.7231    7.4790 C   0  0  0  0  0  0  0  0  0  0  0  0
  -23.7804  -13.9412    7.5985 C   0  0  0  0  0  0  0  0  0  0  0  0
  -23.5766  -14.6974    8.7411 C   0  0  0  0  0  0  0  0  0  0  0  0
  -24.1946  -15.8926    8.9020 N   0  0  0  0  0  0  0  0  0  0  0  0
  -22.7514  -14.2385    9.7071 N   0  0  0  0  0  0  0  0  0  0  0  0
  -22.1222  -13.0512    9.5672 C   0  0  0  0  0  0  0  0  0  0  0  0
  -22.3091  -12.2986    8.4554 N   0  0  0  0  0  0  0  0  0  0  0  0
  -21.5436  -12.0629   -0.8631 O   0  5  0  0  0  0  0  0  0  0  0  0
  -17.8844   -9.4471   -1.9996 O   0  0  0  0  0  0  0  0  0  0  0  0
  -25.2487  -11.6583    3.7051 S   0  0  0  0  0  0  0  0  0  0  0  0
  -25.5876  -12.5314    5.1667 C   0  0  0  0  0  0  0  0  0  0  0  0
  -19.5208  -12.9053    0.4781 O   0  0  0  0  0  0  0  0  0  0  0  0
  -17.2858  -10.0267    0.2934 O   0  5  0  0  0  0  0  0  0  0  0  0
  -24.6772  -13.5272    5.3517 N   0  0  0  0  0  0  0  0  0  0  0  0
  -19.5805  -10.5072   -0.4816 O   0  0  0  0  0  0  0  0  0  0  0  0
  -17.6811  -11.8917   -1.3182 O   0  0  0  0  0  0  0  0  0  0  0  0
  -23.7177  -13.6401    4.3925 C   0  0  1  0  0  0  0  0  0  0  0  0
  -23.8670  -12.6103    3.3288 C   0  0  1  0  0  0  0  0  0  0  0  0
  -23.1158  -12.2765    2.0673 C   0  0  0  0  0  0  0  0  0  0  0  0
  -21.6434  -12.1069    2.4069 C   0  0  0  0  0  0  0  0  0  0  0  0
  -21.0696  -11.2136    1.4604 O   0  0  0  0  0  0  0  0  0  0  0  0
  1 11  1  0  0  0  0
  3 13  1  6  0  0  0
  3 17  2  0  0  0  0
  3 20  1  0  0  0  0
  3 26  1  0  0  0  0
  4 14  1  6  0  0  0
  4 18  1  0  0  0  0
  4 21  2  0  0  0  0
  4 20  1  0  0  0  0
  5 19  1  0  0  0  0
  5  7  1  0  0  0  0
  6  7  2  0  0  0  0
  6 12  1  0  0  0  0
  7  8  1  0  0  0  0
  8  9  1  0  0  0  0
  8 10  2  0  0  0  0
 10 11  1  0  0  0  0
 11 12  2  0  0  0  0
 15 23  1  0  0  0  0
 15 16  1  0  0  0  0
 16 19  1  0  0  0  0
 19 22  1  0  0  0  0
 22  2  1  1  0  0  0
 22 23  1  0  0  0  0
 23 24  1  6  0  0  0
 24 25  1  0  0  0  0
 25 26  1  0  0  0  0
M  CHG  2  13  -1  18  -1
M  END
>  <CHROM.1>
-118.18377435,-96.13046874,5.77752555,150.54268729,128.18221096,-152.46341605
-90.20743795,78.88185195,-21.74115183,-12.35756814,3.45386015,-2.05473938
-0.21450726,-1.37114909

>  <Name>
ligand

>  <RI>
0

>  <Rbt.Current_Directory>
/home/itssahil/PROJECTS/Mol_Feturizer/New_Systems/rnas/2GDI

>  <Rbt.Executable>
rbdock ($Id: //depot/dev/client3/rdock/2013.1/src/exe/rbdock.cxx#4 $)

>  <Rbt.Library>
libRbt.so (2013.1, Build901 2013/11/27)

>  <Rbt.Parameter_File>
/export/apps/rDock/src/rDock_2013.1_src/data/scripts/dock_solv.prm

>  <Rbt.Receptor>
prm/blind_docking_80.prm

>  <SCORE>
-3.51276

>  <SCORE.INTER>
-8.24424

>  <SCORE.INTER.CONST>
1

>  <SCORE.INTER.POLAR>
0

>  <SCORE.INTER.ROT>
8

>  <SCORE.INTER.SOLV>
20.2889

>  <SCORE.INTER.VDW>
-21.1925

>  <SCORE.INTER.norm>
-0.317086

>  <SCORE.INTRA>
4.6667

>  <SCORE.INTRA.DIHEDRAL>
6.43577

>  <SCORE.INTRA.DIHEDRAL.0>
8.13976

>  <SCORE.INTRA.POLAR>
0

>  <SCORE.INTRA.POLAR.0>
0

>  <SCORE.INTRA.REPUL>
0

>  <SCORE.INTRA.REPUL.0>
0

>  <SCORE.INTRA.SOLV>
2.38296

>  <SCORE.INTRA.SOLV.lig_0>
-82.9561

>  <SCORE.INTRA.VDW>
0.257335

>  <SCORE.INTRA.VDW.0>
-3.29171

>  <SCORE.INTRA.norm>
0.179488

>  <SCORE.RESTR>
0.0647874

>  <SCORE.RESTR.CAVITY>
0.0647874

>  <SCORE.RESTR.norm>
0.00249182

>  <SCORE.SYSTEM>
0

>  <SCORE.SYSTEM.CONST>
0

>  <SCORE.SYSTEM.DIHEDRAL>
0

>  <SCORE.SYSTEM.SOLV>
0

>  <SCORE.SYSTEM.norm>
0

>  <SCORE.heavy>
26

>  <SCORE.norm>
-0.135106

>  <RMSD>
9.325

$$$$
ligand
 OpenBabel11021811433D
libRbt.so/2013.1/901 2013/11/27
 26 27  0  0  0  0  0  0  0  0999 V2000
  -25.7002  -12.1305    3.5406 C   0  0  0  0  0  0  0  0  0  0  0  0
  -21.6979  -17.7769    4.3515 C   0  0  0  0  0  0  0  0  0  0  0  0
  -19.5168  -18.2613   -1.4463 P   0  0  1  0  0  0  0  0  0  0  0  0
  -21.6437  -19.3462   -3.1071 P   0  0  1  0  0  0  0  0  0  0  0  0
  -24.5600  -17.5370    5.1225 C   0  0  0  0  0  0  0  0  0  0  0  0
  -25.4793  -15.8384    3.4916 C   0  0  0  0  0  0  0  0  0  0  0  0
  -24.8513  -16.1066    4.7013 C   0  0  0  0  0  0  0  0  0  0  0  0
  -24.5082  -15.0448    5.5221 C   0  0  0  0  0  0  0  0  0  0  0  0
  -23.8931  -15.2568    6.7109 N   0  0  0  0  0  0  0  0  0  0  0  0
  -24.7895  -13.7821    5.1332 N   0  0  0  0  0  0  0  0  0  0  0  0
  -25.3996  -13.5465    3.9511 C   0  0  0  0  0  0  0  0  0  0  0  0
  -25.7415  -14.5733    3.1349 N   0  0  0  0  0  0  0  0  0  0  0  0
  -18.4784  -19.0718   -2.1767 O   0  5  0  0  0  0  0  0  0  0  0  0
  -22.3596  -20.0933   -2.0241 O   0  0  0  0  0  0  0  0  0  0  0  0
  -24.1922  -19.8661    1.9245 S   0  0  0  0  0  0  0  0  0  0  0  0
  -25.0241  -19.0224    3.1930 C   0  0  0  0  0  0  0  0  0  0  0  0
  -19.0961  -16.9227   -0.9118 O   0  0  0  0  0  0  0  0  0  0  0  0
  -22.6430  -18.6656   -3.9820 O   0  5  0  0  0  0  0  0  0  0  0  0
  -24.1410  -18.3405    3.9740 N   0  0  0  0  0  0  0  0  0  0  0  0
  -20.8248  -18.1411   -2.3958 O   0  0  0  0  0  0  0  0  0  0  0  0
  -20.6246  -20.1314   -3.8869 O   0  0  0  0  0  0  0  0  0  0  0  0
  -22.8304  -18.4494    3.6223 C   0  0  1  0  0  0  0  0  0  0  0  0
  -22.6443  -19.3010    2.4162 C   0  0  1  0  0  0  0  0  0  0  0  0
  -21.4527  -19.7522    1.6139 C   0  0  0  0  0  0  0  0  0  0  0  0
  -21.0581  -18.6374    0.6581 C   0  0  0  0  0  0  0  0  0  0  0  0
  -20.0223  -19.1233   -0.1870 O   0  0  0  0  0  0  0  0  0  0  0  0
  1 11  1  0  0  0  0
  3 13  1  6  0  0  0
  3 17  2  0  0  0  0
  3 20  1  0  0  0  0
  3 26  1  0  0  0  0
  4 14  1  1  0  0  0
  4 18  1  0  0  0  0
  4 21  2  0  0  0  0
  4 20  1  0  0  0  0
  5 19  1  0  0  0  0
  5  7  1  0  0  0  0
  6  7  2  0  0  0  0
  6 12  1  0  0  0  0
  7  8  1  0  0  0  0
  8  9  1  0  0  0  0
  8 10  2  0  0  0  0
 10 11  1  0  0  0  0
 11 12  2  0  0  0  0
 15 23  1  0  0  0  0
 15 16  1  0  0  0  0
 16 19  1  0  0  0  0
 19 22  1  0  0  0  0
 22  2  1  6  0  0  0
 22 23  1  0  0  0  0
 23 24  1  1  0  0  0
 24 25  1  0  0  0  0
 25 26  1  0  0  0  0
M  CHG  2  13  -1  18  -1
M  END
>  <CHROM.1>
52.85923059,-89.77899621,38.57968418,70.36077649,100.05949917,-174.13301822
171.51680058,-176.93429060,-22.56959555,-17.75688073,1.15370546,-3.00997096
-1.07800616,2.80575977

>  <Name>
ligand

>  <RI>
0

>  <Rbt.Current_Directory>
/home/itssahil/PROJECTS/Mol_Feturizer/New_Systems/rnas/2GDI

>  <Rbt.Executable>
rbdock ($Id: //depot/dev/client3/rdock/2013.1/src/exe/rbdock.cxx#4 $)

>  <Rbt.Library>
libRbt.so (2013.1, Build901 2013/11/27)

>  <Rbt.Parameter_File>
/export/apps/rDock/src/rDock_2013.1_src/data/scripts/dock_solv.prm

>  <Rbt.Receptor>
prm/pocket_docking_7.prm

>  <SCORE>
-12.532

>  <SCORE.INTER>
-10.4998

>  <SCORE.INTER.CONST>
1

>  <SCORE.INTER.POLAR>
0

>  <SCORE.INTER.ROT>
8

>  <SCORE.INTER.SOLV>
13.3809

>  <SCORE.INTER.VDW>
-20.3935

>  <SCORE.INTER.norm>
-0.403838

>  <SCORE.INTRA>
-2.03218

>  <SCORE.INTRA.DIHEDRAL>
-2.7588

>  <SCORE.INTRA.DIHEDRAL.0>
8.13976

>  <SCORE.INTRA.POLAR>
0

>  <SCORE.INTRA.POLAR.0>
0

>  <SCORE.INTRA.REPUL>
0

>  <SCORE.INTRA.REPUL.0>
0

>  <SCORE.INTRA.SOLV>
0.350984

>  <SCORE.INTRA.SOLV.lig_0>
-82.9561

>  <SCORE.INTRA.VDW>
-0.828265

>  <SCORE.INTRA.VDW.0>
-3.29171

>  <SCORE.INTRA.norm>
-0.0781606

>  <SCORE.RESTR>
0

>  <SCORE.RESTR.CAVITY>
0

>  <SCORE.RESTR.norm>
0

>  <SCORE.SYSTEM>
0

>  <SCORE.SYSTEM.CONST>
0

>  <SCORE.SYSTEM.DIHEDRAL>
0

>  <SCORE.SYSTEM.SOLV>
0

>  <SCORE.SYSTEM.norm>
0

>  <SCORE.heavy>
26

>  <SCORE.norm>
-0.481999

>  <RMSD>
9.339

$$$$
ligand
 OpenBabel11021811433D
libRbt.so/2013.1/901 2013/11/27
 26 27  0  0  0  0  0  0  0  0999 V2000
  -26.0194  -12.7441    0.1670 C   0  0  0  0  0  0  0  0  0  0  0  0
  -22.3231   -8.3084    6.4782 C   0  0  0  0  0  0  0  0  0  0  0  0
  -24.7518  -13.1615   10.2355 P   0  0  1  0  0  0  0  0  0  0  0  0
  -23.5204  -15.6403    9.3422 P   0  0  1  0  0  0  0  0  0  0  0  0
  -22.8892   -9.7291    3.9278 C   0  0  0  0  0  0  0  0  0  0  0  0
  -25.0287  -10.1705    2.6559 C   0  0  0  0  0  0  0  0  0  0  0  0
  -23.7185  -10.5334    2.9411 C   0  0  0  0  0  0  0  0  0  0  0  0
  -23.1786  -11.6350    2.2978 C   0  0  0  0  0  0  0  0  0  0  0  0
  -21.9054  -12.0280    2.5443 N   0  0  0  0  0  0  0  0  0  0  0  0
  -23.9303  -12.3268    1.4140 N   0  0  0  0  0  0  0  0  0  0  0  0
  -25.2029  -11.9553    1.1545 C   0  0  0  0  0  0  0  0  0  0  0  0
  -25.7477  -10.8806    1.7755 N   0  0  0  0  0  0  0  0  0  0  0  0
  -25.9956  -12.4193    9.8226 O   0  5  0  0  0  0  0  0  0  0  0  0
  -23.1392  -16.0949   10.7175 O   0  0  0  0  0  0  0  0  0  0  0  0
  -22.6187  -12.3329    6.9168 S   0  0  0  0  0  0  0  0  0  0  0  0
  -22.8504  -11.8070    5.2789 C   0  0  0  0  0  0  0  0  0  0  0  0
  -24.4791  -13.2849   11.7069 O   0  0  0  0  0  0  0  0  0  0  0  0
  -24.0802  -16.7934    8.5778 O   0  5  0  0  0  0  0  0  0  0  0  0
  -22.7405  -10.4524    5.1907 N   0  0  0  0  0  0  0  0  0  0  0  0
  -24.7606  -14.6089    9.5061 O   0  0  0  0  0  0  0  0  0  0  0  0
  -22.4621  -14.8925    8.5779 O   0  0  0  0  0  0  0  0  0  0  0  0
  -22.4814   -9.8006    6.3575 C   0  0  1  0  0  0  0  0  0  0  0  0
  -22.3545  -10.7389    7.5055 C   0  0  1  0  0  0  0  0  0  0  0  0
  -22.0839  -10.5779    8.9779 C   0  0  0  0  0  0  0  0  0  0  0  0
  -23.3234  -11.0005    9.7506 C   0  0  0  0  0  0  0  0  0  0  0  0
  -23.4872  -12.4046    9.5934 O   0  0  0  0  0  0  0  0  0  0  0  0
  1 11  1  0  0  0  0
  3 13  1  6  0  0  0
  3 17  2  0  0  0  0
  3 20  1  0  0  0  0
  3 26  1  0  0  0  0
  4 14  1  1  0  0  0
  4 18  1  0  0  0  0
  4 21  2  0  0  0  0
  4 20  1  0  0  0  0
  5 19  1  0  0  0  0
  5  7  1  0  0  0  0
  6  7  2  0  0  0  0
  6 12  1  0  0  0  0
  7  8  1  0  0  0  0
  8  9  1  0  0  0  0
  8 10  2  0  0  0  0
 10 11  1  0  0  0  0
 11 12  2  0  0  0  0
 15 23  1  0  0  0  0
 15 16  1  0  0  0  0
 16 19  1  0  0  0  0
 19 22  1  0  0  0  0
 22  2  1  6  0  0  0
 22 23  1  0  0  0  0
 23 24  1  1  0  0  0
 24 25  1  0  0  0  0
 25 26  1  0  0  0  0
M  CHG  2  13  -1  18  -1
M  END
>  <CHROM.1>
164.89912246,23.91524241,105.98882021,64.73397493,-64.86689545,68.18243246
-177.17778319,50.63312489,-23.67025972,-12.46014676,6.77448660,1.63242643
-1.24899981,-1.13944624

>  <Name>
ligand

>  <RI>
0

>  <Rbt.Current_Directory>
/home/itssahil/PROJECTS/Mol_Feturizer/New_Systems/rnas/2GDI

>  <Rbt.Executable>
rbdock ($Id: //depot/dev/client3/rdock/2013.1/src/exe/rbdock.cxx#4 $)

>  <Rbt.Library>
libRbt.so (2013.1, Build901 2013/11/27)

>  <Rbt.Parameter_File>
/export/apps/rDock/src/rDock_2013.1_src/data/scripts/dock_solv.prm

>  <Rbt.Receptor>
prm/blind_docking_100.prm

>  <SCORE>
-16.4171

>  <SCORE.INTER>
-16.2468

>  <SCORE.INTER.CONST>
1

>  <SCORE.INTER.POLAR>
0

>  <SCORE.INTER.ROT>
8

>  <SCORE.INTER.SOLV>
22.7801

>  <SCORE.INTER.VDW>
-27.3579

>  <SCORE.INTER.norm>
-0.624875

>  <SCORE.INTRA>
-0.170295

>  <SCORE.INTRA.DIHEDRAL>
-2.21433

>  <SCORE.INTRA.DIHEDRAL.0>
8.13976

>  <SCORE.INTRA.POLAR>
0

>  <SCORE.INTRA.POLAR.0>
0

>  <SCORE.INTRA.REPUL>
0

>  <SCORE.INTRA.REPUL.0>
0

>  <SCORE.INTRA.SOLV>
1.85933

>  <SCORE.INTRA.SOLV.lig_0>
-82.9561

>  <SCORE.INTRA.VDW>
0.00720368

>  <SCORE.INTRA.VDW.0>
-3.29171

>  <SCORE.INTRA.norm>
-0.00654982

>  <SCORE.RESTR>
0

>  <SCORE.RESTR.CAVITY>
0

>  <SCORE.RESTR.norm>
0

>  <SCORE.SYSTEM>
0

>  <SCORE.SYSTEM.CONST>
0

>  <SCORE.SYSTEM.DIHEDRAL>
0

>  <SCORE.SYSTEM.SOLV>
0

>  <SCORE.SYSTEM.norm>
0

>  <SCORE.heavy>
26

>  <SCORE.norm>
-0.631425

>  <RMSD>
9.360

$$$$
ligand
 OpenBabel11021811433D
libRbt.so/2013.1/901 2013/11/27
 26 27  0  0  0  0  0  0  0  0999 V2000
  -26.0918  -16.6549    3.9328 C   0  0  0  0  0  0  0  0  0  0  0  0
  -22.7541  -12.9167    1.0249 C   0  0  0  0  0  0  0  0  0  0  0  0
  -17.7090  -12.7213   -0.5498 P   0  0  1  0  0  0  0  0  0  0  0  0
  -17.9973   -9.8472   -0.2106 P   0  0  1  0  0  0  0  0  0  0  0  0
  -25.5486  -11.9751    0.6407 C   0  0  0  0  0  0  0  0  0  0  0  0
  -25.8563  -14.4663    0.9404 C   0  0  0  0  0  0  0  0  0  0  0  0
  -25.7023  -13.2098    1.5126 C   0  0  0  0  0  0  0  0  0  0  0  0
  -25.6782  -13.1067    2.8938 C   0  0  0  0  0  0  0  0  0  0  0  0
  -25.5313  -11.9024    3.4975 N   0  0  0  0  0  0  0  0  0  0  0  0
  -25.8029  -14.2198    3.6488 N   0  0  0  0  0  0  0  0  0  0  0  0
  -25.9532  -15.4307    3.0689 C   0  0  0  0  0  0  0  0  0  0  0  0
  -25.9802  -15.5502    1.7190 N   0  0  0  0  0  0  0  0  0  0  0  0
  -16.5280  -13.5167   -1.0409 O   0  5  0  0  0  0  0  0  0  0  0  0
  -17.8231   -8.6916   -1.1475 O   0  0  0  0  0  0  0  0  0  0  0  0
  -23.7838  -12.5042   -2.8797 S   0  0  0  0  0  0  0  0  0  0  0  0
  -25.0700  -12.0935   -1.7886 C   0  0  0  0  0  0  0  0  0  0  0  0
  -18.0605  -12.8363    0.9056 O   0  0  0  0  0  0  0  0  0  0  0  0
  -19.4525  -10.0704    0.0338 O   0  5  0  0  0  0  0  0  0  0  0  0
  -24.6698  -12.2496   -0.4962 N   0  0  0  0  0  0  0  0  0  0  0  0
  -17.4986  -11.1767   -0.9933 O   0  0  0  0  0  0  0  0  0  0  0  0
  -17.1940   -9.7927    1.0601 O   0  0  0  0  0  0  0  0  0  0  0  0
  -23.3907  -12.6807   -0.3188 C   0  0  1  0  0  0  0  0  0  0  0  0
  -22.6825  -12.8771   -1.6127 C   0  0  1  0  0  0  0  0  0  0  0  0
  -21.3002  -13.3280   -2.0038 C   0  0  0  0  0  0  0  0  0  0  0  0
  -20.2927  -12.6795   -1.0676 C   0  0  0  0  0  0  0  0  0  0  0  0
  -19.0037  -13.1955   -1.3764 O   0  0  0  0  0  0  0  0  0  0  0  0
  1 11  1  0  0  0  0
  3 13  1  6  0  0  0
  3 17  2  0  0  0  0
  3 20  1  0  0  0  0
  3 26  1  0  0  0  0
  4 14  1  6  0  0  0
  4 18  1  0  0  0  0
  4 21  2  0  0  0  0
  4 20  1  0  0  0  0
  5 19  1  0  0  0  0
  5  7  1  0  0  0  0
  6  7  2  0  0  0  0
  6 12  1  0  0  0  0
  7  8  1  0  0  0  0
  8  9  1  0  0  0  0
  8 10  2  0  0  0  0
 10 11  1  0  0  0  0
 11 12  2  0  0  0  0
 15 23  1  0  0  0  0
 15 16  1  0  0  0  0
 16 19  1  0  0  0  0
 19 22  1  0  0  0  0
 22  2  1  1  0  0  0
 22 23  1  0  0  0  0
 23 24  1  6  0  0  0
 24 25  1  0  0  0  0
 25 26  1  0  0  0  0
M  CHG  2  13  -1  18  -1
M  END
>  <CHROM.1>
-148.36920119,121.96207799,-41.35259949,-168.28923265,139.34449047,175.36411323
-179.29810557,175.80050071,-21.69932784,-12.50044624,0.13689345,-2.76426294
-0.23720634,-1.23082888

>  <Name>
ligand

>  <RI>
0

>  <Rbt.Current_Directory>
/home/itssahil/PROJECTS/Mol_Feturizer/New_Systems/rnas/2GDI

>  <Rbt.Executable>
rbdock ($Id: //depot/dev/client3/rdock/2013.1/src/exe/rbdock.cxx#4 $)

>  <Rbt.Library>
libRbt.so (2013.1, Build901 2013/11/27)

>  <Rbt.Parameter_File>
/export/apps/rDock/src/rDock_2013.1_src/data/scripts/dock_solv.prm

>  <Rbt.Receptor>
prm/pocket_docking_6.prm

>  <SCORE>
-9.83902

>  <SCORE.INTER>
-11.4981

>  <SCORE.INTER.CONST>
1

>  <SCORE.INTER.POLAR>
0

>  <SCORE.INTER.ROT>
8

>  <SCORE.INTER.SOLV>
16.6611

>  <SCORE.INTER.VDW>
-22.1524

>  <SCORE.INTER.norm>
-0.442234

>  <SCORE.INTRA>
1.65906

>  <SCORE.INTRA.DIHEDRAL>
-1.52251

>  <SCORE.INTRA.DIHEDRAL.0>
8.13976

>  <SCORE.INTRA.POLAR>
0

>  <SCORE.INTRA.POLAR.0>
0

>  <SCORE.INTRA.REPUL>
0

>  <SCORE.INTRA.REPUL.0>
0

>  <SCORE.INTRA.SOLV>
3.74027

>  <SCORE.INTRA.SOLV.lig_0>
-82.9561

>  <SCORE.INTRA.VDW>
0.550177

>  <SCORE.INTRA.VDW.0>
-3.29171

>  <SCORE.INTRA.norm>
0.0638099

>  <SCORE.RESTR>
0

>  <SCORE.RESTR.CAVITY>
0

>  <SCORE.RESTR.norm>
0

>  <SCORE.SYSTEM>
0

>  <SCORE.SYSTEM.CONST>
0

>  <SCORE.SYSTEM.DIHEDRAL>
0

>  <SCORE.SYSTEM.SOLV>
0

>  <SCORE.SYSTEM.norm>
0

>  <SCORE.heavy>
26

>  <SCORE.norm>
-0.378424

>  <RMSD>
9.361

$$$$
ligand
 OpenBabel11021811433D
libRbt.so/2013.1/901 2013/11/27
 26 27  0  0  0  0  0  0  0  0999 V2000
  -26.5490  -16.0410    3.0953 C   0  0  0  0  0  0  0  0  0  0  0  0
  -19.8256  -15.5926   -0.7872 C   0  0  0  0  0  0  0  0  0  0  0  0
  -16.4982  -11.6441    1.8225 P   0  0  1  0  0  0  0  0  0  0  0  0
  -14.8729   -9.6018    0.5393 P   0  0  1  0  0  0  0  0  0  0  0  0
  -22.7515  -15.9047   -1.2168 C   0  0  0  0  0  0  0  0  0  0  0  0
  -24.7634  -14.9914    0.0114 C   0  0  0  0  0  0  0  0  0  0  0  0
  -23.7483  -15.9362   -0.0706 C   0  0  0  0  0  0  0  0  0  0  0  0
  -23.6710  -16.9156    0.9060 C   0  0  0  0  0  0  0  0  0  0  0  0
  -22.6977  -17.8577    0.8689 N   0  0  0  0  0  0  0  0  0  0  0  0
  -24.5766  -16.9321    1.9082 N   0  0  0  0  0  0  0  0  0  0  0  0
  -25.5539  -16.0013    1.9673 C   0  0  0  0  0  0  0  0  0  0  0  0
  -25.6440  -15.0350    1.0209 N   0  0  0  0  0  0  0  0  0  0  0  0
  -15.5277  -12.7832    1.6524 O   0  5  0  0  0  0  0  0  0  0  0  0
  -14.0467  -10.6874   -0.0790 O   0  0  0  0  0  0  0  0  0  0  0  0
  -21.7084  -12.0903   -1.6031 S   0  0  0  0  0  0  0  0  0  0  0  0
  -22.7837  -13.4528   -1.5798 C   0  0  0  0  0  0  0  0  0  0  0  0
  -17.4326  -11.7039    2.9965 O   0  0  0  0  0  0  0  0  0  0  0  0
  -15.9464   -9.1938   -0.4137 O   0  5  0  0  0  0  0  0  0  0  0  0
  -22.1003  -14.5975   -1.3017 N   0  0  0  0  0  0  0  0  0  0  0  0
  -15.6601  -10.2570    1.7963 O   0  0  0  0  0  0  0  0  0  0  0  0
  -14.1115   -8.4302    1.0968 O   0  0  0  0  0  0  0  0  0  0  0  0
  -20.7606  -14.4562   -1.1049 C   0  0  1  0  0  0  0  0  0  0  0  0
  -20.3248  -13.0382   -1.2233 C   0  0  1  0  0  0  0  0  0  0  0  0
  -19.0039  -12.3248   -1.1082 C   0  0  0  0  0  0  0  0  0  0  0  0
  -18.4751  -12.5032    0.3063 C   0  0  0  0  0  0  0  0  0  0  0  0
  -17.4162  -11.5745    0.5047 O   0  0  0  0  0  0  0  0  0  0  0  0
  1 11  1  0  0  0  0
  3 13  1  6  0  0  0
  3 17  2  0  0  0  0
  3 20  1  0  0  0  0
  3 26  1  0  0  0  0
  4 14  1  6  0  0  0
  4 18  1  0  0  0  0
  4 21  2  0  0  0  0
  4 20  1  0  0  0  0
  5 19  1  0  0  0  0
  5  7  1  0  0  0  0
  6  7  2  0  0  0  0
  6 12  1  0  0  0  0
  7  8  1  0  0  0  0
  8  9  1  0  0  0  0
  8 10  2  0  0  0  0
 10 11  1  0  0  0  0
 11 12  2  0  0  0  0
 15 23  1  0  0  0  0
 15 16  1  0  0  0  0
 16 19  1  0  0  0  0
 19 22  1  0  0  0  0
 22  2  1  1  0  0  0
 22 23  1  0  0  0  0
 23 24  1  6  0  0  0
 24 25  1  0  0  0  0
 25 26  1  0  0  0  0
M  CHG  2  13  -1  18  -1
M  END
>  <CHROM.1>
67.76353668,-63.69236146,55.15469751,-47.88114614,118.57854736,-165.97733587
-171.09795695,76.74572319,-19.71000971,-13.02466074,0.40843607,-2.93968575
-0.52384944,-1.14054100

>  <Name>
ligand

>  <RI>
0

>  <Rbt.Current_Directory>
/home/itssahil/PROJECTS/Mol_Feturizer/New_Systems/rnas/2GDI

>  <Rbt.Executable>
rbdock ($Id: //depot/dev/client3/rdock/2013.1/src/exe/rbdock.cxx#4 $)

>  <Rbt.Library>
libRbt.so (2013.1, Build901 2013/11/27)

>  <Rbt.Parameter_File>
/export/apps/rDock/src/rDock_2013.1_src/data/scripts/dock_solv.prm

>  <Rbt.Receptor>
prm/pocket_docking_3.prm

>  <SCORE>
-7.5027

>  <SCORE.INTER>
-6.86937

>  <SCORE.INTER.CONST>
1

>  <SCORE.INTER.POLAR>
0

>  <SCORE.INTER.ROT>
8

>  <SCORE.INTER.SOLV>
25.023

>  <SCORE.INTER.VDW>
-21.8539

>  <SCORE.INTER.norm>
-0.264207

>  <SCORE.INTRA>
-0.705212

>  <SCORE.INTRA.DIHEDRAL>
-1.77548

>  <SCORE.INTRA.DIHEDRAL.0>
8.13976

>  <SCORE.INTRA.POLAR>
0

>  <SCORE.INTRA.POLAR.0>
0

>  <SCORE.INTRA.REPUL>
0

>  <SCORE.INTRA.REPUL.0>
0

>  <SCORE.INTRA.SOLV>
0.67396

>  <SCORE.INTRA.SOLV.lig_0>
-82.9561

>  <SCORE.INTRA.VDW>
-0.15445

>  <SCORE.INTRA.VDW.0>
-3.29171

>  <SCORE.INTRA.norm>
-0.0271236

>  <SCORE.RESTR>
0.0718767

>  <SCORE.RESTR.CAVITY>
0.0718767

>  <SCORE.RESTR.norm>
0.00276449

>  <SCORE.SYSTEM>
0

>  <SCORE.SYSTEM.CONST>
0

>  <SCORE.SYSTEM.DIHEDRAL>
0

>  <SCORE.SYSTEM.SOLV>
0

>  <SCORE.SYSTEM.norm>
0

>  <SCORE.heavy>
26

>  <SCORE.norm>
-0.288566

>  <RMSD>
9.367

$$$$
ligand
 OpenBabel11021811433D
libRbt.so/2013.1/901 2013/11/27
 26 27  0  0  0  0  0  0  0  0999 V2000
  -26.0687  -11.7778    5.3573 C   0  0  0  0  0  0  0  0  0  0  0  0
  -22.7717  -14.3245    0.5873 C   0  0  0  0  0  0  0  0  0  0  0  0
  -18.1549   -9.8653   -0.0907 P   0  0  1  0  0  0  0  0  0  0  0  0
  -15.7662  -11.4789    0.2960 P   0  0  1  0  0  0  0  0  0  0  0  0
  -25.6257  -13.7529   -0.0219 C   0  0  0  0  0  0  0  0  0  0  0  0
  -25.9608  -11.8827    1.6455 C   0  0  0  0  0  0  0  0  0  0  0  0
  -25.7323  -13.2309    1.4009 C   0  0  0  0  0  0  0  0  0  0  0  0
  -25.6170  -14.0922    2.4798 C   0  0  0  0  0  0  0  0  0  0  0  0
  -25.3928  -15.4152    2.2910 N   0  0  0  0  0  0  0  0  0  0  0  0
  -25.7290  -13.6078    3.7357 N   0  0  0  0  0  0  0  0  0  0  0  0
  -25.9497  -12.2920    3.9482 C   0  0  0  0  0  0  0  0  0  0  0  0
  -26.0640  -11.4347    2.9045 N   0  0  0  0  0  0  0  0  0  0  0  0
  -18.4351   -9.9285    1.3878 O   0  5  0  0  0  0  0  0  0  0  0  0
  -16.1950  -12.7070   -0.4466 O   0  0  0  0  0  0  0  0  0  0  0  0
  -23.2623  -11.5739   -2.3572 S   0  0  0  0  0  0  0  0  0  0  0  0
  -24.7647  -12.1671   -1.7215 C   0  0  0  0  0  0  0  0  0  0  0  0
  -18.5437   -8.6075   -0.8129 O   0  0  0  0  0  0  0  0  0  0  0  0
  -14.3371  -11.1851   -0.0179 O   0  5  0  0  0  0  0  0  0  0  0  0
  -24.5406  -13.0839   -0.7396 N   0  0  0  0  0  0  0  0  0  0  0  0
  -16.5935  -10.2308   -0.3260 O   0  0  0  0  0  0  0  0  0  0  0  0
  -16.0535  -11.4673    1.7727 O   0  0  0  0  0  0  0  0  0  0  0  0
  -23.2345  -13.3466   -0.4597 C   0  0  1  0  0  0  0  0  0  0  0  0
  -22.3093  -12.5391   -1.3002 C   0  0  1  0  0  0  0  0  0  0  0  0
  -20.8124  -12.4261   -1.4161 C   0  0  0  0  0  0  0  0  0  0  0  0
  -20.3464  -11.2451   -0.5792 C   0  0  0  0  0  0  0  0  0  0  0  0
  -18.9520  -11.0690   -0.7979 O   0  0  0  0  0  0  0  0  0  0  0  0
  1 11  1  0  0  0  0
  3 13  1  1  0  0  0
  3 17  2  0  0  0  0
  3 20  1  0  0  0  0
  3 26  1  0  0  0  0
  4 14  1  6  0  0  0
  4 18  1  0  0  0  0
  4 21  2  0  0  0  0
  4 20  1  0  0  0  0
  5 19  1  0  0  0  0
  5  7  1  0  0  0  0
  6  7  2  0  0  0  0
  6 12  1  0  0  0  0
  7  8  1  0  0  0  0
  8  9  1  0  0  0  0
  8 10  2  0  0  0  0
 10 11  1  0  0  0  0
 11 12  2  0  0  0  0
 15 23  1  0  0  0  0
 15 16  1  0  0  0  0
 16 19  1  0  0  0  0
 19 22  1  0  0  0  0
 22  2  1  1  0  0  0
 22 23  1  0  0  0  0
 23 24  1  6  0  0  0
 24 25  1  0  0  0  0
 25 26  1  0  0  0  0
M  CHG  2  13  -1  18  -1
M  END
>  <CHROM.1>
47.97329862,-107.83809842,58.84712889,74.79897838,84.82506619,-174.46876158
178.03142420,52.65639519,-21.23761690,-11.90215336,0.45600906,-2.93725333
-0.23360568,-1.54031878

>  <Name>
ligand

>  <RI>
0

>  <Rbt.Current_Directory>
/home/itssahil/PROJECTS/Mol_Feturizer/New_Systems/rnas/2GDI

>  <Rbt.Executable>
rbdock ($Id: //depot/dev/client3/rdock/2013.1/src/exe/rbdock.cxx#4 $)

>  <Rbt.Library>
libRbt.so (2013.1, Build901 2013/11/27)

>  <Rbt.Parameter_File>
/export/apps/rDock/src/rDock_2013.1_src/data/scripts/dock_solv.prm

>  <Rbt.Receptor>
prm/pocket_docking_7.prm

>  <SCORE>
-15.3189

>  <SCORE.INTER>
-14.4975

>  <SCORE.INTER.CONST>
1

>  <SCORE.INTER.POLAR>
0

>  <SCORE.INTER.ROT>
8

>  <SCORE.INTER.SOLV>
25.0009

>  <SCORE.INTER.VDW>
-26.932

>  <SCORE.INTER.norm>
-0.557596

>  <SCORE.INTRA>
-0.821363

>  <SCORE.INTRA.DIHEDRAL>
-2.43712

>  <SCORE.INTRA.DIHEDRAL.0>
8.13976

>  <SCORE.INTRA.POLAR>
0

>  <SCORE.INTRA.POLAR.0>
0

>  <SCORE.INTRA.REPUL>
0

>  <SCORE.INTRA.REPUL.0>
0

>  <SCORE.INTRA.SOLV>
1.59471

>  <SCORE.INTRA.SOLV.lig_0>
-82.9561

>  <SCORE.INTRA.VDW>
-0.400159

>  <SCORE.INTRA.VDW.0>
-3.29171

>  <SCORE.INTRA.norm>
-0.0315909

>  <SCORE.RESTR>
0

>  <SCORE.RESTR.CAVITY>
0

>  <SCORE.RESTR.norm>
0

>  <SCORE.SYSTEM>
0

>  <SCORE.SYSTEM.CONST>
0

>  <SCORE.SYSTEM.DIHEDRAL>
0

>  <SCORE.SYSTEM.SOLV>
0

>  <SCORE.SYSTEM.norm>
0

>  <SCORE.heavy>
26

>  <SCORE.norm>
-0.589187

>  <RMSD>
9.369

$$$$
ligand
 OpenBabel11021811433D
libRbt.so/2013.1/901 2013/11/27
 26 27  0  0  0  0  0  0  0  0999 V2000
  -22.2933   -7.3770    4.3597 C   0  0  0  0  0  0  0  0  0  0  0  0
  -21.7391  -12.8131   10.6423 C   0  0  0  0  0  0  0  0  0  0  0  0
  -23.8163  -15.9140    8.1764 P   0  0  1  0  0  0  0  0  0  0  0  0
  -23.2721  -15.8209    5.3209 P   0  0  1  0  0  0  0  0  0  0  0  0
  -22.0181  -10.1258    9.3997 C   0  0  0  0  0  0  0  0  0  0  0  0
  -21.8721   -8.0311    7.9922 C   0  0  0  0  0  0  0  0  0  0  0  0
  -22.1014   -9.3991    8.0680 C   0  0  0  0  0  0  0  0  0  0  0  0
  -22.3941  -10.0898    6.9035 C   0  0  0  0  0  0  0  0  0  0  0  0
  -22.6264  -11.4247    6.9278 N   0  0  0  0  0  0  0  0  0  0  0  0
  -22.4493   -9.4251    5.7289 N   0  0  0  0  0  0  0  0  0  0  0  0
  -22.2241   -8.0939    5.6809 C   0  0  0  0  0  0  0  0  0  0  0  0
  -21.9373   -7.4019    6.8105 N   0  0  0  0  0  0  0  0  0  0  0  0
  -25.1339  -15.1996    8.0280 O   0  5  0  0  0  0  0  0  0  0  0  0
  -22.3992  -14.9124    4.5108 O   0  0  0  0  0  0  0  0  0  0  0  0
  -25.5512  -11.9366    9.5580 S   0  0  0  0  0  0  0  0  0  0  0  0
  -24.4299  -10.6614    9.1978 C   0  0  0  0  0  0  0  0  0  0  0  0
  -23.8592  -17.3904    8.4473 O   0  0  0  0  0  0  0  0  0  0  0  0
  -22.8868  -17.2389    5.0600 O   0  5  0  0  0  0  0  0  0  0  0  0
  -23.1702  -11.0089    9.5813 N   0  0  0  0  0  0  0  0  0  0  0  0
  -22.9056  -15.5708    6.8804 O   0  0  0  0  0  0  0  0  0  0  0  0
  -24.7538  -15.5881    5.2045 O   0  0  0  0  0  0  0  0  0  0  0  0
  -23.0409  -12.2388   10.1504 C   0  0  1  0  0  0  0  0  0  0  0  0
  -24.3390  -12.9635   10.2161 C   0  0  1  0  0  0  0  0  0  0  0  0
  -24.7731  -14.3107   10.7294 C   0  0  0  0  0  0  0  0  0  0  0  0
  -23.5752  -15.2473   10.7147 C   0  0  0  0  0  0  0  0  0  0  0  0
  -23.0241  -15.2423    9.4034 O   0  0  0  0  0  0  0  0  0  0  0  0
  1 11  1  0  0  0  0
  3 13  1  6  0  0  0
  3 17  2  0  0  0  0
  3 20  1  0  0  0  0
  3 26  1  0  0  0  0
  4 14  1  6  0  0  0
  4 18  1  0  0  0  0
  4 21  2  0  0  0  0
  4 20  1  0  0  0  0
  5 19  1  0  0  0  0
  5  7  1  0  0  0  0
  6  7  2  0  0  0  0
  6 12  1  0  0  0  0
  7  8  1  0  0  0  0
  8  9  1  0  0  0  0
  8 10  2  0  0  0  0
 10 11  1  0  0  0  0
 11 12  2  0  0  0  0
 15 23  1  0  0  0  0
 15 16  1  0  0  0  0
 16 19  1  0  0  0  0
 19 22  1  0  0  0  0
 22  2  1  6  0  0  0
 22 23  1  0  0  0  0
 23 24  1  1  0  0  0
 24 25  1  0  0  0  0
 25 26  1  0  0  0  0
M  CHG  2  13  -1  18  -1
M  END
>  <CHROM.1>
-57.05127740,-39.12866531,133.18518448,159.29925719,156.64446291,-53.98404889
-69.72164153,60.39012561,-23.32480455,-12.94054633,7.76848612,-0.87480095
-1.29788575,-2.49663919

>  <Name>
ligand

>  <RI>
0

>  <Rbt.Current_Directory>
/home/itssahil/PROJECTS/Mol_Feturizer/New_Systems/rnas/2GDI

>  <Rbt.Executable>
rbdock ($Id: //depot/dev/client3/rdock/2013.1/src/exe/rbdock.cxx#4 $)

>  <Rbt.Library>
libRbt.so (2013.1, Build901 2013/11/27)

>  <Rbt.Parameter_File>
/export/apps/rDock/src/rDock_2013.1_src/data/scripts/dock_solv.prm

>  <Rbt.Receptor>
prm/blind_docking_100.prm

>  <SCORE>
-6.82669

>  <SCORE.INTER>
-11.3722

>  <SCORE.INTER.CONST>
1

>  <SCORE.INTER.POLAR>
0

>  <SCORE.INTER.ROT>
8

>  <SCORE.INTER.SOLV>
19.5828

>  <SCORE.INTER.VDW>
-23.0424

>  <SCORE.INTER.norm>
-0.43739

>  <SCORE.INTRA>
3.80515

>  <SCORE.INTRA.DIHEDRAL>
-1.70522

>  <SCORE.INTRA.DIHEDRAL.0>
8.13976

>  <SCORE.INTRA.POLAR>
0

>  <SCORE.INTRA.POLAR.0>
0

>  <SCORE.INTRA.REPUL>
0

>  <SCORE.INTRA.REPUL.0>
0

>  <SCORE.INTRA.SOLV>
6.88786

>  <SCORE.INTRA.SOLV.lig_0>
-82.9561

>  <SCORE.INTRA.VDW>
1.21383

>  <SCORE.INTRA.VDW.0>
-3.29171

>  <SCORE.INTRA.norm>
0.146352

>  <SCORE.RESTR>
0.740316

>  <SCORE.RESTR.CAVITY>
0.740316

>  <SCORE.RESTR.norm>
0.0284737

>  <SCORE.SYSTEM>
0

>  <SCORE.SYSTEM.CONST>
0

>  <SCORE.SYSTEM.DIHEDRAL>
0

>  <SCORE.SYSTEM.SOLV>
0

>  <SCORE.SYSTEM.norm>
0

>  <SCORE.heavy>
26

>  <SCORE.norm>
-0.262565

>  <RMSD>
9.370

$$$$
ligand
 OpenBabel11021811433D
libRbt.so/2013.1/901 2013/11/27
 26 27  0  0  0  0  0  0  0  0999 V2000
  -21.7496  -18.4281    3.5523 C   0  0  0  0  0  0  0  0  0  0  0  0
  -20.1869  -11.8588    2.3643 C   0  0  0  0  0  0  0  0  0  0  0  0
  -16.0869   -9.9007    0.3470 P   0  0  1  0  0  0  0  0  0  0  0  0
  -13.3648   -8.8911    0.1755 P   0  0  1  0  0  0  0  0  0  0  0  0
  -22.9022  -13.0155    2.0002 C   0  0  0  0  0  0  0  0  0  0  0  0
  -21.7278  -14.7145    3.4578 C   0  0  0  0  0  0  0  0  0  0  0  0
  -22.5907  -14.4471    2.4025 C   0  0  0  0  0  0  0  0  0  0  0  0
  -23.1721  -15.5114    1.7329 C   0  0  0  0  0  0  0  0  0  0  0  0
  -24.0193  -15.3002    0.6966 N   0  0  0  0  0  0  0  0  0  0  0  0
  -22.8911  -16.7756    2.1170 N   0  0  0  0  0  0  0  0  0  0  0  0
  -22.0472  -17.0103    3.1456 C   0  0  0  0  0  0  0  0  0  0  0  0
  -21.4686  -15.9811    3.8113 N   0  0  0  0  0  0  0  0  0  0  0  0
  -15.9811  -11.3333   -0.1056 O   0  5  0  0  0  0  0  0  0  0  0  0
  -12.8861  -10.2497    0.5863 O   0  0  0  0  0  0  0  0  0  0  0  0
  -21.2943  -12.1544   -1.5297 S   0  0  0  0  0  0  0  0  0  0  0  0
  -22.5076  -12.7312   -0.4305 C   0  0  0  0  0  0  0  0  0  0  0  0
  -16.1528   -9.6479    1.8257 O   0  0  0  0  0  0  0  0  0  0  0  0
  -12.5960   -8.4367   -1.0202 O   0  5  0  0  0  0  0  0  0  0  0  0
  -22.0839  -12.6083    0.8580 N   0  0  0  0  0  0  0  0  0  0  0  0
  -14.8893   -9.0600   -0.3500 O   0  0  0  0  0  0  0  0  0  0  0  0
  -13.4177   -7.8538    1.2638 O   0  0  0  0  0  0  0  0  0  0  0  0
  -20.8409  -12.0789    1.0262 C   0  0  1  0  0  0  0  0  0  0  0  0
  -20.2043  -11.7241   -0.2712 C   0  0  1  0  0  0  0  0  0  0  0  0
  -18.8808  -11.1283   -0.6716 C   0  0  0  0  0  0  0  0  0  0  0  0
  -18.7040   -9.8027    0.0522 C   0  0  0  0  0  0  0  0  0  0  0  0
  -17.4263   -9.2783   -0.2879 O   0  0  0  0  0  0  0  0  0  0  0  0
  1 11  1  0  0  0  0
  3 13  1  6  0  0  0
  3 17  2  0  0  0  0
  3 20  1  0  0  0  0
  3 26  1  0  0  0  0
  4 14  1  1  0  0  0
  4 18  1  0  0  0  0
  4 21  2  0  0  0  0
  4 20  1  0  0  0  0
  5 19  1  0  0  0  0
  5  7  1  0  0  0  0
  6  7  2  0  0  0  0
  6 12  1  0  0  0  0
  7  8  1  0  0  0  0
  8  9  1  0  0  0  0
  8 10  2  0  0  0  0
 10 11  1  0  0  0  0
 11 12  2  0  0  0  0
 15 23  1  0  0  0  0
 15 16  1  0  0  0  0
 16 19  1  0  0  0  0
 19 22  1  0  0  0  0
 22  2  1  1  0  0  0
 22 23  1  0  0  0  0
 23 24  1  6  0  0  0
 24 25  1  0  0  0  0
 25 26  1  0  0  0  0
M  CHG  2  13  -1  18  -1
M  END
>  <CHROM.1>
-85.43892815,92.76956169,98.47796972,45.39577227,125.85329260,177.47724550
-74.94128048,62.84083465,-18.72829533,-11.92175605,0.82187155,-2.55068290
-0.31708520,-0.72374470

>  <Name>
ligand

>  <RI>
0

>  <Rbt.Current_Directory>
/home/itssahil/PROJECTS/Mol_Feturizer/New_Systems/rnas/2GDI

>  <Rbt.Executable>
rbdock ($Id: //depot/dev/client3/rdock/2013.1/src/exe/rbdock.cxx#4 $)

>  <Rbt.Library>
libRbt.so (2013.1, Build901 2013/11/27)

>  <Rbt.Parameter_File>
/export/apps/rDock/src/rDock_2013.1_src/data/scripts/dock_solv.prm

>  <Rbt.Receptor>
prm/pocket_docking_3.prm

>  <SCORE>
-15.1087

>  <SCORE.INTER>
-15.4387

>  <SCORE.INTER.CONST>
1

>  <SCORE.INTER.POLAR>
0

>  <SCORE.INTER.ROT>
8

>  <SCORE.INTER.SOLV>
29.0729

>  <SCORE.INTER.VDW>
-28.9168

>  <SCORE.INTER.norm>
-0.593798

>  <SCORE.INTRA>
0.330015

>  <SCORE.INTRA.DIHEDRAL>
-1.38455

>  <SCORE.INTRA.DIHEDRAL.0>
8.13976

>  <SCORE.INTRA.POLAR>
0

>  <SCORE.INTRA.POLAR.0>
0

>  <SCORE.INTRA.REPUL>
0

>  <SCORE.INTRA.REPUL.0>
0

>  <SCORE.INTRA.SOLV>
2.3267

>  <SCORE.INTRA.SOLV.lig_0>
-82.9561

>  <SCORE.INTRA.VDW>
-0.141055

>  <SCORE.INTRA.VDW.0>
-3.29171

>  <SCORE.INTRA.norm>
0.0126929

>  <SCORE.RESTR>
0

>  <SCORE.RESTR.CAVITY>
0

>  <SCORE.RESTR.norm>
0

>  <SCORE.SYSTEM>
0

>  <SCORE.SYSTEM.CONST>
0

>  <SCORE.SYSTEM.DIHEDRAL>
0

>  <SCORE.SYSTEM.SOLV>
0

>  <SCORE.SYSTEM.norm>
0

>  <SCORE.heavy>
26

>  <SCORE.norm>
-0.581105

>  <RMSD>
9.370

$$$$
ligand
 OpenBabel11021811433D
libRbt.so/2013.1/901 2013/11/27
 26 27  0  0  0  0  0  0  0  0999 V2000
  -21.5167  -18.7949    1.5330 C   0  0  0  0  0  0  0  0  0  0  0  0
  -21.1976  -12.4824    2.4987 C   0  0  0  0  0  0  0  0  0  0  0  0
  -15.4530  -10.4754    0.5054 P   0  0  1  0  0  0  0  0  0  0  0  0
  -13.6393   -8.2152    0.2597 P   0  0  1  0  0  0  0  0  0  0  0  0
  -22.7927  -13.3645    0.1491 C   0  0  0  0  0  0  0  0  0  0  0  0
  -21.2517  -15.3682    0.1232 C   0  0  0  0  0  0  0  0  0  0  0  0
  -22.4615  -14.8034    0.5070 C   0  0  0  0  0  0  0  0  0  0  0  0
  -23.3540  -15.5738    1.2341 C   0  0  0  0  0  0  0  0  0  0  0  0
  -24.5469  -15.0668    1.6297 N   0  0  0  0  0  0  0  0  0  0  0  0
  -23.0322  -16.8464    1.5527 N   0  0  0  0  0  0  0  0  0  0  0  0
  -21.8500  -17.3741    1.1666 C   0  0  0  0  0  0  0  0  0  0  0  0
  -20.9651  -16.6351    0.4537 N   0  0  0  0  0  0  0  0  0  0  0  0
  -16.4653   -9.7543   -0.3452 O   0  5  0  0  0  0  0  0  0  0  0  0
  -12.7575   -7.4937    1.2321 O   0  0  0  0  0  0  0  0  0  0  0  0
  -19.6319  -11.2744   -1.0461 S   0  0  0  0  0  0  0  0  0  0  0  0
  -21.0912  -12.1973   -1.2248 C   0  0  0  0  0  0  0  0  0  0  0  0
  -14.7439  -11.6468   -0.1109 O   0  0  0  0  0  0  0  0  0  0  0  0
  -12.7921   -8.9416   -0.7311 O   0  5  0  0  0  0  0  0  0  0  0  0
  -21.5712  -12.5748   -0.0075 N   0  0  0  0  0  0  0  0  0  0  0  0
  -14.4070   -9.3811    1.0843 O   0  0  0  0  0  0  0  0  0  0  0  0
  -14.7185   -7.3914   -0.3884 O   0  0  0  0  0  0  0  0  0  0  0  0
  -20.8419  -12.1718    1.0692 C   0  0  1  0  0  0  0  0  0  0  0  0
  -19.6539  -11.3690    0.6707 C   0  0  1  0  0  0  0  0  0  0  0  0
  -18.5356  -10.6927    1.4184 C   0  0  0  0  0  0  0  0  0  0  0  0
  -17.4475  -11.7170    1.6994 C   0  0  0  0  0  0  0  0  0  0  0  0
  -16.2081  -11.0283    1.8124 O   0  0  0  0  0  0  0  0  0  0  0  0
  1 11  1  0  0  0  0
  3 13  1  6  0  0  0
  3 17  2  0  0  0  0
  3 20  1  0  0  0  0
  3 26  1  0  0  0  0
  4 14  1  1  0  0  0
  4 18  1  0  0  0  0
  4 21  2  0  0  0  0
  4 20  1  0  0  0  0
  5 19  1  0  0  0  0
  5  7  1  0  0  0  0
  6  7  2  0  0  0  0
  6 12  1  0  0  0  0
  7  8  1  0  0  0  0
  8  9  1  0  0  0  0
  8 10  2  0  0  0  0
 10 11  1  0  0  0  0
 11 12  2  0  0  0  0
 15 23  1  0  0  0  0
 15 16  1  0  0  0  0
 16 19  1  0  0  0  0
 19 22  1  0  0  0  0
 22  2  1  1  0  0  0
 22 23  1  0  0  0  0
 23 24  1  6  0  0  0
 24 25  1  0  0  0  0
 25 26  1  0  0  0  0
M  CHG  2  13  -1  18  -1
M  END
>  <CHROM.1>
-48.03747608,105.09922375,-26.81690541,-178.48161451,-94.39807116,153.31865442
-75.43581964,47.13226606,-18.41084654,-11.96891896,0.55196509,-2.46355339
-0.11652282,-0.23728328

>  <Name>
ligand

>  <RI>
0

>  <Rbt.Current_Directory>
/home/itssahil/PROJECTS/Mol_Feturizer/New_Systems/rnas/2GDI

>  <Rbt.Executable>
rbdock ($Id: //depot/dev/client3/rdock/2013.1/src/exe/rbdock.cxx#4 $)

>  <Rbt.Library>
libRbt.so (2013.1, Build901 2013/11/27)

>  <Rbt.Parameter_File>
/export/apps/rDock/src/rDock_2013.1_src/data/scripts/dock_solv.prm

>  <Rbt.Receptor>
prm/pocket_docking_2.prm

>  <SCORE>
-10.337

>  <SCORE.INTER>
-13.4004

>  <SCORE.INTER.CONST>
1

>  <SCORE.INTER.POLAR>
0

>  <SCORE.INTER.ROT>
8

>  <SCORE.INTER.SOLV>
27.2164

>  <SCORE.INTER.VDW>
-26.9391

>  <SCORE.INTER.norm>
-0.515402

>  <SCORE.INTRA>
2.29336

>  <SCORE.INTRA.DIHEDRAL>
0.935698

>  <SCORE.INTRA.DIHEDRAL.0>
8.13976

>  <SCORE.INTRA.POLAR>
0

>  <SCORE.INTRA.POLAR.0>
0

>  <SCORE.INTRA.REPUL>
0

>  <SCORE.INTRA.REPUL.0>
0

>  <SCORE.INTRA.SOLV>
3.69189

>  <SCORE.INTRA.SOLV.lig_0>
-82.9561

>  <SCORE.INTRA.VDW>
-0.0204351

>  <SCORE.INTRA.VDW.0>
-3.29171

>  <SCORE.INTRA.norm>
0.0882062

>  <SCORE.RESTR>
0.77011

>  <SCORE.RESTR.CAVITY>
0.77011

>  <SCORE.RESTR.norm>
0.0296196

>  <SCORE.SYSTEM>
0

>  <SCORE.SYSTEM.CONST>
0

>  <SCORE.SYSTEM.DIHEDRAL>
0

>  <SCORE.SYSTEM.SOLV>
0

>  <SCORE.SYSTEM.norm>
0

>  <SCORE.heavy>
26

>  <SCORE.norm>
-0.397576

>  <RMSD>
9.376

$$$$
ligand
 OpenBabel11021811433D
libRbt.so/2013.1/901 2013/11/27
 26 27  0  0  0  0  0  0  0  0999 V2000
  -22.6482  -13.2763    8.8460 C   0  0  0  0  0  0  0  0  0  0  0  0
  -23.9002  -18.8357    2.5682 C   0  0  0  0  0  0  0  0  0  0  0  0
  -19.1812  -18.2100   -1.6515 P   0  0  1  0  0  0  0  0  0  0  0  0
  -17.2067  -16.0749   -1.6126 P   0  0  1  0  0  0  0  0  0  0  0  0
  -23.8221  -17.6342    5.2873 C   0  0  0  0  0  0  0  0  0  0  0  0
  -23.1055  -16.7212    7.5330 C   0  0  0  0  0  0  0  0  0  0  0  0
  -23.5221  -16.4809    6.2297 C   0  0  0  0  0  0  0  0  0  0  0  0
  -23.6455  -15.1690    5.8023 C   0  0  0  0  0  0  0  0  0  0  0  0
  -24.0497  -14.8851    4.5404 N   0  0  0  0  0  0  0  0  0  0  0  0
  -23.3601  -14.1598    6.6536 N   0  0  0  0  0  0  0  0  0  0  0  0
  -22.9583  -14.4188    7.9171 C   0  0  0  0  0  0  0  0  0  0  0  0
  -22.8330  -15.6963    8.3526 N   0  0  0  0  0  0  0  0  0  0  0  0
  -20.3275  -17.3885   -2.1804 O   0  5  0  0  0  0  0  0  0  0  0  0
  -18.1147  -15.1763   -2.3948 O   0  0  0  0  0  0  0  0  0  0  0  0
  -20.1531  -18.6061    4.1120 S   0  0  0  0  0  0  0  0  0  0  0  0
  -21.3699  -17.9809    5.1804 C   0  0  0  0  0  0  0  0  0  0  0  0
  -18.4869  -19.1268   -2.6170 O   0  0  0  0  0  0  0  0  0  0  0  0
  -16.6203  -15.3129   -0.4712 O   0  5  0  0  0  0  0  0  0  0  0  0
  -22.6038  -18.0831    4.6131 N   0  0  0  0  0  0  0  0  0  0  0  0
  -18.1362  -17.2093   -0.9212 O   0  0  0  0  0  0  0  0  0  0  0  0
  -16.1715  -16.8212   -2.4091 O   0  0  0  0  0  0  0  0  0  0  0  0
  -22.6411  -18.6329    3.3682 C   0  0  1  0  0  0  0  0  0  0  0  0
  -21.2883  -19.0293    2.8916 C   0  0  1  0  0  0  0  0  0  0  0  0
  -20.7533  -19.6600    1.6334 C   0  0  0  0  0  0  0  0  0  0  0  0
  -20.4702  -18.5623    0.6200 C   0  0  0  0  0  0  0  0  0  0  0  0
  -19.7413  -19.1325   -0.4601 O   0  0  0  0  0  0  0  0  0  0  0  0
  1 11  1  0  0  0  0
  3 13  1  6  0  0  0
  3 17  2  0  0  0  0
  3 20  1  0  0  0  0
  3 26  1  0  0  0  0
  4 14  1  6  0  0  0
  4 18  1  0  0  0  0
  4 21  2  0  0  0  0
  4 20  1  0  0  0  0
  5 19  1  0  0  0  0
  5  7  1  0  0  0  0
  6  7  2  0  0  0  0
  6 12  1  0  0  0  0
  7  8  1  0  0  0  0
  8  9  1  0  0  0  0
  8 10  2  0  0  0  0
 10 11  1  0  0  0  0
 11 12  2  0  0  0  0
 15 23  1  0  0  0  0
 15 16  1  0  0  0  0
 16 19  1  0  0  0  0
 19 22  1  0  0  0  0
 22  2  1  1  0  0  0
 22 23  1  0  0  0  0
 23 24  1  6  0  0  0
 24 25  1  0  0  0  0
 25 26  1  0  0  0  0
M  CHG  2  13  -1  18  -1
M  END
>  <CHROM.1>
-67.74002785,29.47469309,-86.35220048,54.91055372,-91.66541816,169.39373714
-175.12297152,-52.33920717,-20.63678650,-17.09425823,2.22526993,-2.44360142
-0.85051678,-2.46359882

>  <Name>
ligand

>  <RI>
0

>  <Rbt.Current_Directory>
/home/itssahil/PROJECTS/Mol_Feturizer/New_Systems/rnas/2GDI

>  <Rbt.Executable>
rbdock ($Id: //depot/dev/client3/rdock/2013.1/src/exe/rbdock.cxx#4 $)

>  <Rbt.Library>
libRbt.so (2013.1, Build901 2013/11/27)

>  <Rbt.Parameter_File>
/export/apps/rDock/src/rDock_2013.1_src/data/scripts/dock_solv.prm

>  <Rbt.Receptor>
prm/pocket_docking_8.prm

>  <SCORE>
-14.5638

>  <SCORE.INTER>
-13.6392

>  <SCORE.INTER.CONST>
1

>  <SCORE.INTER.POLAR>
0

>  <SCORE.INTER.ROT>
8

>  <SCORE.INTER.SOLV>
10.0586

>  <SCORE.INTER.VDW>
-21.379

>  <SCORE.INTER.norm>
-0.524585

>  <SCORE.INTRA>
-0.924578

>  <SCORE.INTRA.DIHEDRAL>
-2.69817

>  <SCORE.INTRA.DIHEDRAL.0>
8.13976

>  <SCORE.INTRA.POLAR>
0

>  <SCORE.INTRA.POLAR.0>
0

>  <SCORE.INTRA.REPUL>
0

>  <SCORE.INTRA.REPUL.0>
0

>  <SCORE.INTRA.SOLV>
0.643724

>  <SCORE.INTRA.SOLV.lig_0>
-82.9561

>  <SCORE.INTRA.VDW>
0.102645

>  <SCORE.INTRA.VDW.0>
-3.29171

>  <SCORE.INTRA.norm>
-0.0355607

>  <SCORE.RESTR>
0

>  <SCORE.RESTR.CAVITY>
0

>  <SCORE.RESTR.norm>
0

>  <SCORE.SYSTEM>
0

>  <SCORE.SYSTEM.CONST>
0

>  <SCORE.SYSTEM.DIHEDRAL>
0

>  <SCORE.SYSTEM.SOLV>
0

>  <SCORE.SYSTEM.norm>
0

>  <SCORE.heavy>
26

>  <SCORE.norm>
-0.560146

>  <RMSD>
9.384

$$$$
ligand
 OpenBabel11021811433D
libRbt.so/2013.1/901 2013/11/27
 26 27  0  0  0  0  0  0  0  0999 V2000
  -24.5444  -18.4347    2.9142 C   0  0  0  0  0  0  0  0  0  0  0  0
  -20.6302  -16.0925   -1.2623 C   0  0  0  0  0  0  0  0  0  0  0  0
  -17.0559  -11.0234    1.9402 P   0  0  1  0  0  0  0  0  0  0  0  0
  -14.6317  -10.5337    0.4098 P   0  0  1  0  0  0  0  0  0  0  0  0
  -23.4632  -15.4040   -1.8480 C   0  0  0  0  0  0  0  0  0  0  0  0
  -23.3544  -17.5314   -0.4870 C   0  0  0  0  0  0  0  0  0  0  0  0
  -23.7590  -16.2067   -0.5924 C   0  0  0  0  0  0  0  0  0  0  0  0
  -24.4254  -15.6280    0.4753 C   0  0  0  0  0  0  0  0  0  0  0  0
  -24.8404  -14.3392    0.4184 N   0  0  0  0  0  0  0  0  0  0  0  0
  -24.6652  -16.3568    1.5870 N   0  0  0  0  0  0  0  0  0  0  0  0
  -24.2633  -17.6443    1.6651 C   0  0  0  0  0  0  0  0  0  0  0  0
  -23.6109  -18.2270    0.6296 N   0  0  0  0  0  0  0  0  0  0  0  0
  -17.3127  -11.7243    3.2484 O   0  5  0  0  0  0  0  0  0  0  0  0
  -13.1883  -10.3970    0.7857 O   0  0  0  0  0  0  0  0  0  0  0  0
  -21.3498  -12.0978   -1.2237 S   0  0  0  0  0  0  0  0  0  0  0  0
  -22.7627  -13.0414   -1.5795 C   0  0  0  0  0  0  0  0  0  0  0  0
  -17.7954   -9.7410    1.6884 O   0  0  0  0  0  0  0  0  0  0  0  0
  -14.8121  -11.7595   -0.4220 O   0  5  0  0  0  0  0  0  0  0  0  0
  -22.4638  -14.3701   -1.5790 N   0  0  0  0  0  0  0  0  0  0  0  0
  -15.4550  -10.8323    1.7742 O   0  0  0  0  0  0  0  0  0  0  0  0
  -15.2727   -9.3162   -0.1988 O   0  0  0  0  0  0  0  0  0  0  0  0
  -21.1671  -14.6868   -1.3110 C   0  0  1  0  0  0  0  0  0  0  0  0
  -20.3384  -13.4780   -1.0531 C   0  0  1  0  0  0  0  0  0  0  0  0
  -18.8894  -13.2409   -0.7200 C   0  0  0  0  0  0  0  0  0  0  0  0
  -18.8107  -12.4236    0.5599 C   0  0  0  0  0  0  0  0  0  0  0  0
  -17.4578  -12.0291    0.7522 O   0  0  0  0  0  0  0  0  0  0  0  0
  1 11  1  0  0  0  0
  3 13  1  1  0  0  0
  3 17  2  0  0  0  0
  3 20  1  0  0  0  0
  3 26  1  0  0  0  0
  4 14  1  1  0  0  0
  4 18  1  0  0  0  0
  4 21  2  0  0  0  0
  4 20  1  0  0  0  0
  5 19  1  0  0  0  0
  5  7  1  0  0  0  0
  6  7  2  0  0  0  0
  6 12  1  0  0  0  0
  7  8  1  0  0  0  0
  8  9  1  0  0  0  0
  8 10  2  0  0  0  0
 10 11  1  0  0  0  0
 11 12  2  0  0  0  0
 15 23  1  0  0  0  0
 15 16  1  0  0  0  0
 16 19  1  0  0  0  0
 19 22  1  0  0  0  0
 22  2  1  1  0  0  0
 22 23  1  0  0  0  0
 23 24  1  6  0  0  0
 24 25  1  0  0  0  0
 25 26  1  0  0  0  0
M  CHG  2  13  -1  18  -1
M  END
>  <CHROM.1>
161.18814552,-110.97600838,-110.39921139,178.16130217,56.36031385,-171.07175431
173.73575892,66.09236415,-19.71292870,-13.26882916,0.31665520,-2.92000026
-0.56703800,-1.06075057

>  <Name>
ligand

>  <RI>
0

>  <Rbt.Current_Directory>
/home/itssahil/PROJECTS/Mol_Feturizer/New_Systems/rnas/2GDI

>  <Rbt.Executable>
rbdock ($Id: //depot/dev/client3/rdock/2013.1/src/exe/rbdock.cxx#4 $)

>  <Rbt.Library>
libRbt.so (2013.1, Build901 2013/11/27)

>  <Rbt.Parameter_File>
/export/apps/rDock/src/rDock_2013.1_src/data/scripts/dock_solv.prm

>  <Rbt.Receptor>
prm/pocket_docking_3.prm

>  <SCORE>
-3.45324

>  <SCORE.INTER>
-3.94208

>  <SCORE.INTER.CONST>
1

>  <SCORE.INTER.POLAR>
0

>  <SCORE.INTER.ROT>
8

>  <SCORE.INTER.SOLV>
24.3007

>  <SCORE.INTER.VDW>
-19.6616

>  <SCORE.INTER.norm>
-0.151619

>  <SCORE.INTRA>
0.488841

>  <SCORE.INTRA.DIHEDRAL>
-2.15471

>  <SCORE.INTRA.DIHEDRAL.0>
8.13976

>  <SCORE.INTRA.POLAR>
0

>  <SCORE.INTRA.POLAR.0>
0

>  <SCORE.INTRA.REPUL>
0

>  <SCORE.INTRA.REPUL.0>
0

>  <SCORE.INTRA.SOLV>
2.94576

>  <SCORE.INTRA.SOLV.lig_0>
-82.9561

>  <SCORE.INTRA.VDW>
0.0933179

>  <SCORE.INTRA.VDW.0>
-3.29171

>  <SCORE.INTRA.norm>
0.0188016

>  <SCORE.RESTR>
0

>  <SCORE.RESTR.CAVITY>
0

>  <SCORE.RESTR.norm>
0

>  <SCORE.SYSTEM>
0

>  <SCORE.SYSTEM.CONST>
0

>  <SCORE.SYSTEM.DIHEDRAL>
0

>  <SCORE.SYSTEM.SOLV>
0

>  <SCORE.SYSTEM.norm>
0

>  <SCORE.heavy>
26

>  <SCORE.norm>
-0.132817

>  <RMSD>
9.402

$$$$
ligand
 OpenBabel11021811433D
libRbt.so/2013.1/901 2013/11/27
 26 27  0  0  0  0  0  0  0  0999 V2000
  -26.0034  -12.4967    0.2699 C   0  0  0  0  0  0  0  0  0  0  0  0
  -22.0442   -8.7313    6.8137 C   0  0  0  0  0  0  0  0  0  0  0  0
  -23.9241  -14.1563   10.9301 P   0  0  1  0  0  0  0  0  0  0  0  0
  -23.5018  -16.7382    9.6597 P   0  0  1  0  0  0  0  0  0  0  0  0
  -22.6102  -10.0337    4.2009 C   0  0  0  0  0  0  0  0  0  0  0  0
  -24.7282  -10.1192    2.8236 C   0  0  0  0  0  0  0  0  0  0  0  0
  -23.5105  -10.6917    3.1690 C   0  0  0  0  0  0  0  0  0  0  0  0
  -23.1273  -11.8671    2.5442 C   0  0  0  0  0  0  0  0  0  0  0  0
  -21.9491  -12.4632    2.8490 N   0  0  0  0  0  0  0  0  0  0  0  0
  -23.9377  -12.4267    1.6197 N   0  0  0  0  0  0  0  0  0  0  0  0
  -25.1182  -11.8519    1.3018 C   0  0  0  0  0  0  0  0  0  0  0  0
  -25.5097  -10.7023    1.9040 N   0  0  0  0  0  0  0  0  0  0  0  0
  -25.2732  -14.2345   10.2652 O   0  5  0  0  0  0  0  0  0  0  0  0
  -24.6546  -17.5486   10.1674 O   0  0  0  0  0  0  0  0  0  0  0  0
  -22.7968  -12.7071    7.1344 S   0  0  0  0  0  0  0  0  0  0  0  0
  -22.8745  -12.1285    5.4997 C   0  0  0  0  0  0  0  0  0  0  0  0
  -23.8827  -13.6720   12.3509 O   0  0  0  0  0  0  0  0  0  0  0  0
  -23.9242  -15.9867    8.4415 O   0  5  0  0  0  0  0  0  0  0  0  0
  -22.6142  -10.7925    5.4516 N   0  0  0  0  0  0  0  0  0  0  0  0
  -23.1958  -15.5952   10.7681 O   0  0  0  0  0  0  0  0  0  0  0  0
  -22.2077  -17.4810    9.4673 O   0  0  0  0  0  0  0  0  0  0  0  0
  -22.3550  -10.1949    6.6471 C   0  0  1  0  0  0  0  0  0  0  0  0
  -22.3972  -11.1628    7.7766 C   0  0  1  0  0  0  0  0  0  0  0  0
  -22.1972  -11.0598    9.2654 C   0  0  0  0  0  0  0  0  0  0  0  0
  -23.3443  -11.7747    9.9620 C   0  0  0  0  0  0  0  0  0  0  0  0
  -23.0069  -13.1520   10.0730 O   0  0  0  0  0  0  0  0  0  0  0  0
  1 11  1  0  0  0  0
  3 13  1  6  0  0  0
  3 17  2  0  0  0  0
  3 20  1  0  0  0  0
  3 26  1  0  0  0  0
  4 14  1  1  0  0  0
  4 18  1  0  0  0  0
  4 21  2  0  0  0  0
  4 20  1  0  0  0  0
  5 19  1  0  0  0  0
  5  7  1  0  0  0  0
  6  7  2  0  0  0  0
  6 12  1  0  0  0  0
  7  8  1  0  0  0  0
  8  9  1  0  0  0  0
  8 10  2  0  0  0  0
 10 11  1  0  0  0  0
 11 12  2  0  0  0  0
 15 23  1  0  0  0  0
 15 16  1  0  0  0  0
 16 19  1  0  0  0  0
 19 22  1  0  0  0  0
 22  2  1  6  0  0  0
 22 23  1  0  0  0  0
 23 24  1  1  0  0  0
 24 25  1  0  0  0  0
 25 26  1  0  0  0  0
M  CHG  2  13  -1  18  -1
M  END
>  <CHROM.1>
22.12373483,26.38988297,107.60098737,-84.00372786,-46.87794687,86.33050702
172.11088054,64.33320883,-23.48866070,-13.03962145,7.09895550,1.68554863
-1.25213852,-0.97988293

>  <Name>
ligand

>  <RI>
0

>  <Rbt.Current_Directory>
/home/itssahil/PROJECTS/Mol_Feturizer/New_Systems/rnas/2GDI

>  <Rbt.Executable>
rbdock ($Id: //depot/dev/client3/rdock/2013.1/src/exe/rbdock.cxx#4 $)

>  <Rbt.Library>
libRbt.so (2013.1, Build901 2013/11/27)

>  <Rbt.Parameter_File>
/export/apps/rDock/src/rDock_2013.1_src/data/scripts/dock_solv.prm

>  <Rbt.Receptor>
prm/blind_docking_60.prm

>  <SCORE>
-13.685

>  <SCORE.INTER>
-16.6282

>  <SCORE.INTER.CONST>
1

>  <SCORE.INTER.POLAR>
0

>  <SCORE.INTER.ROT>
8

>  <SCORE.INTER.SOLV>
18.9354

>  <SCORE.INTER.VDW>
-26.3306

>  <SCORE.INTER.norm>
-0.639546

>  <SCORE.INTRA>
2.94321

>  <SCORE.INTRA.DIHEDRAL>
1.92268

>  <SCORE.INTRA.DIHEDRAL.0>
8.13976

>  <SCORE.INTRA.POLAR>
0

>  <SCORE.INTRA.POLAR.0>
0

>  <SCORE.INTRA.REPUL>
0

>  <SCORE.INTRA.REPUL.0>
0

>  <SCORE.INTRA.SOLV>
2.33567

>  <SCORE.INTRA.SOLV.lig_0>
-82.9561

>  <SCORE.INTRA.VDW>
0.814033

>  <SCORE.INTRA.VDW.0>
-3.29171

>  <SCORE.INTRA.norm>
0.1132

>  <SCORE.RESTR>
0

>  <SCORE.RESTR.CAVITY>
0

>  <SCORE.RESTR.norm>
0

>  <SCORE.SYSTEM>
0

>  <SCORE.SYSTEM.CONST>
0

>  <SCORE.SYSTEM.DIHEDRAL>
0

>  <SCORE.SYSTEM.SOLV>
0

>  <SCORE.SYSTEM.norm>
0

>  <SCORE.heavy>
26

>  <SCORE.norm>
-0.526346

>  <RMSD>
9.437

$$$$
ligand
 OpenBabel11021811433D
libRbt.so/2013.1/901 2013/11/27
 26 27  0  0  0  0  0  0  0  0999 V2000
  -23.9260  -18.5672    1.5195 C   0  0  0  0  0  0  0  0  0  0  0  0
  -18.3495  -13.7285   -0.0731 C   0  0  0  0  0  0  0  0  0  0  0  0
  -14.4806  -11.3153    0.6858 P   0  0  1  0  0  0  0  0  0  0  0  0
  -13.5104   -8.6180    0.1942 P   0  0  1  0  0  0  0  0  0  0  0  0
  -21.2768  -13.9115   -0.5636 C   0  0  0  0  0  0  0  0  0  0  0  0
  -21.2778  -16.0859    0.7257 C   0  0  0  0  0  0  0  0  0  0  0  0
  -21.9765  -15.1468   -0.0225 C   0  0  0  0  0  0  0  0  0  0  0  0
  -23.3267  -15.3521   -0.2539 C   0  0  0  0  0  0  0  0  0  0  0  0
  -24.0497  -14.4644   -0.9790 N   0  0  0  0  0  0  0  0  0  0  0  0
  -23.9308  -16.4507    0.2489 N   0  0  0  0  0  0  0  0  0  0  0  0
  -23.2295  -17.3508    0.9722 C   0  0  0  0  0  0  0  0  0  0  0  0
  -21.9074  -17.1665    1.2075 N   0  0  0  0  0  0  0  0  0  0  0  0
  -15.1984  -11.0750   -0.6163 O   0  5  0  0  0  0  0  0  0  0  0  0
  -12.6589   -8.8166   -1.0219 O   0  0  0  0  0  0  0  0  0  0  0  0
  -20.5534  -11.5530    2.5511 S   0  0  0  0  0  0  0  0  0  0  0  0
  -21.5213  -12.3925    1.3800 C   0  0  0  0  0  0  0  0  0  0  0  0
  -13.7190  -12.6018    0.8260 O   0  0  0  0  0  0  0  0  0  0  0  0
  -14.9234   -8.3829   -0.2247 O   0  5  0  0  0  0  0  0  0  0  0  0
  -20.7322  -13.1041    0.5280 N   0  0  0  0  0  0  0  0  0  0  0  0
  -13.5425  -10.0295    0.9913 O   0  0  0  0  0  0  0  0  0  0  0  0
  -13.0182   -7.5979    1.1843 O   0  0  0  0  0  0  0  0  0  0  0  0
  -19.3918  -13.0212    0.7513 C   0  0  1  0  0  0  0  0  0  0  0  0
  -19.0725  -12.1596    1.9218 C   0  0  1  0  0  0  0  0  0  0  0  0
  -17.7999  -11.7264    2.6000 C   0  0  0  0  0  0  0  0  0  0  0  0
  -16.9349  -10.9901    1.5891 C   0  0  0  0  0  0  0  0  0  0  0  0
  -15.5732  -11.2948    1.8649 O   0  0  0  0  0  0  0  0  0  0  0  0
  1 11  1  0  0  0  0
  3 13  1  6  0  0  0
  3 17  2  0  0  0  0
  3 20  1  0  0  0  0
  3 26  1  0  0  0  0
  4 14  1  6  0  0  0
  4 18  1  0  0  0  0
  4 21  2  0  0  0  0
  4 20  1  0  0  0  0
  5 19  1  0  0  0  0
  5  7  1  0  0  0  0
  6  7  2  0  0  0  0
  6 12  1  0  0  0  0
  7  8  1  0  0  0  0
  8  9  1  0  0  0  0
  8 10  2  0  0  0  0
 10 11  1  0  0  0  0
 11 12  2  0  0  0  0
 15 23  1  0  0  0  0
 15 16  1  0  0  0  0
 16 19  1  0  0  0  0
 19 22  1  0  0  0  0
 22  2  1  1  0  0  0
 22 23  1  0  0  0  0
 23 24  1  6  0  0  0
 24 25  1  0  0  0  0
 25 26  1  0  0  0  0
M  CHG  2  13  -1  18  -1
M  END
>  <CHROM.1>
8.54935827,-71.02741971,-60.45603682,-81.73005750,-119.54893388,-144.73798680
150.18981494,-4.08494951,-18.15569689,-12.38495686,0.74006496,-2.54759966
0.16465694,0.20689331

>  <Name>
ligand

>  <RI>
0

>  <Rbt.Current_Directory>
/home/itssahil/PROJECTS/Mol_Feturizer/New_Systems/rnas/2GDI

>  <Rbt.Executable>
rbdock ($Id: //depot/dev/client3/rdock/2013.1/src/exe/rbdock.cxx#4 $)

>  <Rbt.Library>
libRbt.so (2013.1, Build901 2013/11/27)

>  <Rbt.Parameter_File>
/export/apps/rDock/src/rDock_2013.1_src/data/scripts/dock_solv.prm

>  <Rbt.Receptor>
prm/pocket_docking_2.prm

>  <SCORE>
-1.00594

>  <SCORE.INTER>
-6.23295

>  <SCORE.INTER.CONST>
1

>  <SCORE.INTER.POLAR>
0

>  <SCORE.INTER.ROT>
8

>  <SCORE.INTER.SOLV>
29.4662

>  <SCORE.INTER.VDW>
-22.9107

>  <SCORE.INTER.norm>
-0.239729

>  <SCORE.INTRA>
5.14396

>  <SCORE.INTRA.DIHEDRAL>
8.71053

>  <SCORE.INTRA.DIHEDRAL.0>
8.13976

>  <SCORE.INTRA.POLAR>
0

>  <SCORE.INTRA.POLAR.0>
0

>  <SCORE.INTRA.REPUL>
0

>  <SCORE.INTRA.REPUL.0>
0

>  <SCORE.INTRA.SOLV>
1.69371

>  <SCORE.INTRA.SOLV.lig_0>
-82.9561

>  <SCORE.INTRA.VDW>
-0.058168

>  <SCORE.INTRA.VDW.0>
-3.29171

>  <SCORE.INTRA.norm>
0.197844

>  <SCORE.RESTR>
0.0830539

>  <SCORE.RESTR.CAVITY>
0.0830539

>  <SCORE.RESTR.norm>
0.00319438

>  <SCORE.SYSTEM>
0

>  <SCORE.SYSTEM.CONST>
0

>  <SCORE.SYSTEM.DIHEDRAL>
0

>  <SCORE.SYSTEM.SOLV>
0

>  <SCORE.SYSTEM.norm>
0

>  <SCORE.heavy>
26

>  <SCORE.norm>
-0.0386899

>  <RMSD>
9.439

$$$$
ligand
 OpenBabel11021811433D
libRbt.so/2013.1/901 2013/11/27
 26 27  0  0  0  0  0  0  0  0999 V2000
  -26.1298  -13.2553   -0.3173 C   0  0  0  0  0  0  0  0  0  0  0  0
  -25.8786  -11.6308    4.9967 C   0  0  0  0  0  0  0  0  0  0  0  0
  -23.0825  -15.7884    8.7490 P   0  0  1  0  0  0  0  0  0  0  0  0
  -23.5457  -17.3918   11.1309 P   0  0  1  0  0  0  0  0  0  0  0  0
  -23.7090  -10.0130    3.7643 C   0  0  0  0  0  0  0  0  0  0  0  0
  -25.4666  -10.4242    1.9946 C   0  0  0  0  0  0  0  0  0  0  0  0
  -24.3538  -10.8758    2.6928 C   0  0  0  0  0  0  0  0  0  0  0  0
  -23.8355  -12.1227    2.3834 C   0  0  0  0  0  0  0  0  0  0  0  0
  -22.7521  -12.6061    3.0382 N   0  0  0  0  0  0  0  0  0  0  0  0
  -24.4171  -12.8664    1.4173 N   0  0  0  0  0  0  0  0  0  0  0  0
  -25.4998  -12.4062    0.7532 C   0  0  0  0  0  0  0  0  0  0  0  0
  -26.0208  -11.1890    1.0436 N   0  0  0  0  0  0  0  0  0  0  0  0
  -22.2373  -14.5609    8.5310 O   0  5  0  0  0  0  0  0  0  0  0  0
  -24.8147  -17.9619   10.5759 O   0  0  0  0  0  0  0  0  0  0  0  0
  -22.3786  -11.8194    7.0437 S   0  0  0  0  0  0  0  0  0  0  0  0
  -22.2899  -10.8110    5.6336 C   0  0  0  0  0  0  0  0  0  0  0  0
  -22.6492  -17.0539    8.0667 O   0  0  0  0  0  0  0  0  0  0  0  0
  -22.4030  -18.2787   10.7635 O   0  5  0  0  0  0  0  0  0  0  0  0
  -23.4886  -10.7843    4.9878 N   0  0  0  0  0  0  0  0  0  0  0  0
  -23.2623  -16.0019   10.3456 O   0  0  0  0  0  0  0  0  0  0  0  0
  -23.5649  -17.0408   12.5936 O   0  0  0  0  0  0  0  0  0  0  0  0
  -24.4829  -11.5245    5.5508 C   0  0  1  0  0  0  0  0  0  0  0  0
  -24.0350  -12.2080    6.7944 C   0  0  1  0  0  0  0  0  0  0  0  0
  -24.6915  -13.1250    7.7920 C   0  0  0  0  0  0  0  0  0  0  0  0
  -24.7831  -14.5174    7.1877 C   0  0  0  0  0  0  0  0  0  0  0  0
  -24.5677  -15.4665    8.2250 O   0  0  0  0  0  0  0  0  0  0  0  0
  1 11  1  0  0  0  0
  3 13  1  6  0  0  0
  3 17  2  0  0  0  0
  3 20  1  0  0  0  0
  3 26  1  0  0  0  0
  4 14  1  6  0  0  0
  4 18  1  0  0  0  0
  4 21  2  0  0  0  0
  4 20  1  0  0  0  0
  5 19  1  0  0  0  0
  5  7  1  0  0  0  0
  6  7  2  0  0  0  0
  6 12  1  0  0  0  0
  7  8  1  0  0  0  0
  8  9  1  0  0  0  0
  8 10  2  0  0  0  0
 10 11  1  0  0  0  0
 11 12  2  0  0  0  0
 15 23  1  0  0  0  0
 15 16  1  0  0  0  0
 16 19  1  0  0  0  0
 19 22  1  0  0  0  0
 22  2  1  1  0  0  0
 22 23  1  0  0  0  0
 23 24  1  6  0  0  0
 24 25  1  0  0  0  0
 25 26  1  0  0  0  0
M  CHG  2  13  -1  18  -1
M  END
>  <CHROM.1>
-153.92215842,129.96121838,131.37535234,-58.07711462,-101.99220187,143.51358460
-78.59816267,28.00321142,-23.86483478,-13.86868041,6.54440077,1.86918979
-1.09149071,-0.72230544

>  <Name>
ligand

>  <RI>
0

>  <Rbt.Current_Directory>
/home/itssahil/PROJECTS/Mol_Feturizer/New_Systems/rnas/2GDI

>  <Rbt.Executable>
rbdock ($Id: //depot/dev/client3/rdock/2013.1/src/exe/rbdock.cxx#4 $)

>  <Rbt.Library>
libRbt.so (2013.1, Build901 2013/11/27)

>  <Rbt.Parameter_File>
/export/apps/rDock/src/rDock_2013.1_src/data/scripts/dock_solv.prm

>  <Rbt.Receptor>
prm/blind_docking_60.prm

>  <SCORE>
-10.3052

>  <SCORE.INTER>
-15.6735

>  <SCORE.INTER.CONST>
1

>  <SCORE.INTER.POLAR>
0

>  <SCORE.INTER.ROT>
8

>  <SCORE.INTER.SOLV>
17.8063

>  <SCORE.INTER.VDW>
-25.3178

>  <SCORE.INTER.norm>
-0.602827

>  <SCORE.INTRA>
5.36827

>  <SCORE.INTRA.DIHEDRAL>
4.58273

>  <SCORE.INTRA.DIHEDRAL.0>
8.13976

>  <SCORE.INTRA.POLAR>
0

>  <SCORE.INTRA.POLAR.0>
0

>  <SCORE.INTRA.REPUL>
0

>  <SCORE.INTRA.REPUL.0>
0

>  <SCORE.INTRA.SOLV>
4.51047

>  <SCORE.INTRA.SOLV.lig_0>
-82.9561

>  <SCORE.INTRA.VDW>
0.821675

>  <SCORE.INTRA.VDW.0>
-3.29171

>  <SCORE.INTRA.norm>
0.206472

>  <SCORE.RESTR>
0

>  <SCORE.RESTR.CAVITY>
0

>  <SCORE.RESTR.norm>
0

>  <SCORE.SYSTEM>
0

>  <SCORE.SYSTEM.CONST>
0

>  <SCORE.SYSTEM.DIHEDRAL>
0

>  <SCORE.SYSTEM.SOLV>
0

>  <SCORE.SYSTEM.norm>
0

>  <SCORE.heavy>
26

>  <SCORE.norm>
-0.396355

>  <RMSD>
9.481

$$$$
ligand
 OpenBabel11021811433D
libRbt.so/2013.1/901 2013/11/27
 26 27  0  0  0  0  0  0  0  0999 V2000
  -24.2148  -14.4792   11.3311 C   0  0  0  0  0  0  0  0  0  0  0  0
  -22.8277  -11.4632    4.0867 C   0  0  0  0  0  0  0  0  0  0  0  0
  -25.8109  -15.1972    3.5196 P   0  0  1  0  0  0  0  0  0  0  0  0
  -23.2911  -16.0489    4.6961 P   0  0  1  0  0  0  0  0  0  0  0  0
  -23.6467  -10.8809    6.8855 C   0  0  0  0  0  0  0  0  0  0  0  0
  -23.4891  -13.1785    7.9279 C   0  0  0  0  0  0  0  0  0  0  0  0
  -23.8073  -11.8326    8.0589 C   0  0  0  0  0  0  0  0  0  0  0  0
  -24.2611  -11.3728    9.2843 C   0  0  0  0  0  0  0  0  0  0  0  0
  -24.5849  -10.0687    9.4599 N   0  0  0  0  0  0  0  0  0  0  0  0
  -24.3828  -12.2346   10.3173 N   0  0  0  0  0  0  0  0  0  0  0  0
  -24.0686  -13.5397   10.1648 C   0  0  0  0  0  0  0  0  0  0  0  0
  -23.6241  -14.0071    8.9727 N   0  0  0  0  0  0  0  0  0  0  0  0
  -26.9468  -16.1844    3.4598 O   0  5  0  0  0  0  0  0  0  0  0  0
  -22.5982  -14.7214    4.6645 O   0  0  0  0  0  0  0  0  0  0  0  0
  -26.8482  -11.5687    4.6351 S   0  0  0  0  0  0  0  0  0  0  0  0
  -25.9722  -11.1934    6.0859 C   0  0  0  0  0  0  0  0  0  0  0  0
  -25.8499  -14.1666    4.6110 O   0  0  0  0  0  0  0  0  0  0  0  0
  -24.0586  -16.1758    5.9697 O   0  5  0  0  0  0  0  0  0  0  0  0
  -24.6321  -11.1712    5.8439 N   0  0  0  0  0  0  0  0  0  0  0  0
  -24.4190  -16.0275    3.5315 O   0  0  0  0  0  0  0  0  0  0  0  0
  -22.4298  -17.2492    4.4120 O   0  0  0  0  0  0  0  0  0  0  0  0
  -24.2556  -11.4377    4.5631 C   0  0  1  0  0  0  0  0  0  0  0  0
  -25.4251  -11.6860    3.6770 C   0  0  1  0  0  0  0  0  0  0  0  0
  -25.5948  -12.0188    2.2184 C   0  0  0  0  0  0  0  0  0  0  0  0
  -24.8663  -13.3214    1.9275 C   0  0  0  0  0  0  0  0  0  0  0  0
  -25.7786  -14.3943    2.1273 O   0  0  0  0  0  0  0  0  0  0  0  0
  1 11  1  0  0  0  0
  3 13  1  1  0  0  0
  3 17  2  0  0  0  0
  3 20  1  0  0  0  0
  3 26  1  0  0  0  0
  4 14  1  6  0  0  0
  4 18  1  0  0  0  0
  4 21  2  0  0  0  0
  4 20  1  0  0  0  0
  5 19  1  0  0  0  0
  5  7  1  0  0  0  0
  6  7  2  0  0  0  0
  6 12  1  0  0  0  0
  7  8  1  0  0  0  0
  8  9  1  0  0  0  0
  8 10  2  0  0  0  0
 10 11  1  0  0  0  0
 11 12  2  0  0  0  0
 15 23  1  0  0  0  0
 15 16  1  0  0  0  0
 16 19  1  0  0  0  0
 19 22  1  0  0  0  0
 22  2  1  6  0  0  0
 22 23  1  0  0  0  0
 23 24  1  1  0  0  0
 24 25  1  0  0  0  0
 25 26  1  0  0  0  0
M  CHG  2  13  -1  18  -1
M  END
>  <CHROM.1>
-118.05283073,55.79731500,69.19113738,-71.79944283,-119.47564812,90.18693362
-96.54398276,175.40806333,-24.62744540,-13.52357678,5.57609295,-1.21850217
1.17546018,-2.30140063

>  <Name>
ligand

>  <RI>
0

>  <Rbt.Current_Directory>
/home/itssahil/PROJECTS/Mol_Feturizer/New_Systems/rnas/2GDI

>  <Rbt.Executable>
rbdock ($Id: //depot/dev/client3/rdock/2013.1/src/exe/rbdock.cxx#4 $)

>  <Rbt.Library>
libRbt.so (2013.1, Build901 2013/11/27)

>  <Rbt.Parameter_File>
/export/apps/rDock/src/rDock_2013.1_src/data/scripts/dock_solv.prm

>  <Rbt.Receptor>
prm/blind_docking_40.prm

>  <SCORE>
-4.3468

>  <SCORE.INTER>
-7.8632

>  <SCORE.INTER.CONST>
1

>  <SCORE.INTER.POLAR>
0

>  <SCORE.INTER.ROT>
8

>  <SCORE.INTER.SOLV>
14.6466

>  <SCORE.INTER.VDW>
-19.0577

>  <SCORE.INTER.norm>
-0.302431

>  <SCORE.INTRA>
3.5164

>  <SCORE.INTRA.DIHEDRAL>
6.78602

>  <SCORE.INTRA.DIHEDRAL.0>
8.13976

>  <SCORE.INTRA.POLAR>
0

>  <SCORE.INTRA.POLAR.0>
0

>  <SCORE.INTRA.REPUL>
0

>  <SCORE.INTRA.REPUL.0>
0

>  <SCORE.INTRA.SOLV>
3.68827

>  <SCORE.INTRA.SOLV.lig_0>
-82.9561

>  <SCORE.INTRA.VDW>
-1.72075

>  <SCORE.INTRA.VDW.0>
-3.29171

>  <SCORE.INTRA.norm>
0.135246

>  <SCORE.RESTR>
0

>  <SCORE.RESTR.CAVITY>
0

>  <SCORE.RESTR.norm>
0

>  <SCORE.SYSTEM>
0

>  <SCORE.SYSTEM.CONST>
0

>  <SCORE.SYSTEM.DIHEDRAL>
0

>  <SCORE.SYSTEM.SOLV>
0

>  <SCORE.SYSTEM.norm>
0

>  <SCORE.heavy>
26

>  <SCORE.norm>
-0.167185

>  <RMSD>
9.484

$$$$
ligand
 OpenBabel11021811433D
libRbt.so/2013.1/901 2013/11/27
 26 27  0  0  0  0  0  0  0  0999 V2000
  -27.1585  -13.1738   -4.3049 C   0  0  0  0  0  0  0  0  0  0  0  0
  -22.0198  -12.2129    2.4701 C   0  0  0  0  0  0  0  0  0  0  0  0
  -23.1146   -9.6260    7.8789 P   0  0  1  0  0  0  0  0  0  0  0  0
  -24.6162  -11.7720    9.1433 P   0  0  1  0  0  0  0  0  0  0  0  0
  -23.9861  -13.2356    0.4874 C   0  0  0  0  0  0  0  0  0  0  0  0
  -26.1450  -13.6455   -0.7622 C   0  0  0  0  0  0  0  0  0  0  0  0
  -24.8201  -13.2282   -0.7825 C   0  0  0  0  0  0  0  0  0  0  0  0
  -24.2785  -12.7926   -1.9808 C   0  0  0  0  0  0  0  0  0  0  0  0
  -22.9905  -12.3772   -2.0502 N   0  0  0  0  0  0  0  0  0  0  0  0
  -25.0431  -12.7817   -3.0943 N   0  0  0  0  0  0  0  0  0  0  0  0
  -26.3288  -13.1940   -3.0497 C   0  0  0  0  0  0  0  0  0  0  0  0
  -26.8749  -13.6246   -1.8861 N   0  0  0  0  0  0  0  0  0  0  0  0
  -24.0491   -8.5692    8.4065 O   0  5  0  0  0  0  0  0  0  0  0  0
  -25.5666  -10.7821    9.7435 O   0  0  0  0  0  0  0  0  0  0  0  0
  -25.4147   -9.9952    2.2890 S   0  0  0  0  0  0  0  0  0  0  0  0
  -25.4196  -11.3396    1.1911 C   0  0  0  0  0  0  0  0  0  0  0  0
  -21.7646   -9.7382    8.5269 O   0  0  0  0  0  0  0  0  0  0  0  0
  -25.3894  -12.8991    8.5442 O   0  5  0  0  0  0  0  0  0  0  0  0
  -24.2602  -12.0466    1.2945 N   0  0  0  0  0  0  0  0  0  0  0  0
  -23.8995  -11.0440    7.8843 O   0  0  0  0  0  0  0  0  0  0  0  0
  -23.5003  -12.2402   10.0371 O   0  0  0  0  0  0  0  0  0  0  0  0
  -23.3590  -11.5795    2.2017 C   0  0  1  0  0  0  0  0  0  0  0  0
  -23.8585  -10.3731    2.9155 C   0  0  1  0  0  0  0  0  0  0  0  0
  -23.3011   -9.4697    3.9833 C   0  0  0  0  0  0  0  0  0  0  0  0
  -23.3646  -10.1955    5.3180 C   0  0  0  0  0  0  0  0  0  0  0  0
  -22.8555   -9.3251    6.3212 O   0  0  0  0  0  0  0  0  0  0  0  0
  1 11  1  0  0  0  0
  3 13  1  1  0  0  0
  3 17  2  0  0  0  0
  3 20  1  0  0  0  0
  3 26  1  0  0  0  0
  4 14  1  1  0  0  0
  4 18  1  0  0  0  0
  4 21  2  0  0  0  0
  4 20  1  0  0  0  0
  5 19  1  0  0  0  0
  5  7  1  0  0  0  0
  6  7  2  0  0  0  0
  6 12  1  0  0  0  0
  7  8  1  0  0  0  0
  8  9  1  0  0  0  0
  8 10  2  0  0  0  0
 10 11  1  0  0  0  0
 11 12  2  0  0  0  0
 15 23  1  0  0  0  0
 15 16  1  0  0  0  0
 16 19  1  0  0  0  0
 19 22  1  0  0  0  0
 22  2  1  1  0  0  0
 22 23  1  0  0  0  0
 23 24  1  6  0  0  0
 24 25  1  0  0  0  0
 25 26  1  0  0  0  0
M  CHG  2  13  -1  18  -1
M  END
>  <CHROM.1>
-55.96818576,23.05281907,-81.18270801,53.61756829,106.51425644,-179.09061446
164.56635769,-111.28137788,-24.33277646,-11.39647919,3.77326296,1.77041355
-0.78975138,-1.63166200

>  <Name>
ligand

>  <RI>
0

>  <Rbt.Current_Directory>
/home/itssahil/PROJECTS/Mol_Feturizer/New_Systems/rnas/2GDI

>  <Rbt.Executable>
rbdock ($Id: //depot/dev/client3/rdock/2013.1/src/exe/rbdock.cxx#4 $)

>  <Rbt.Library>
libRbt.so (2013.1, Build901 2013/11/27)

>  <Rbt.Parameter_File>
/export/apps/rDock/src/rDock_2013.1_src/data/scripts/dock_solv.prm

>  <Rbt.Receptor>
prm/blind_docking_100.prm

>  <SCORE>
-14.1339

>  <SCORE.INTER>
-15.5453

>  <SCORE.INTER.CONST>
1

>  <SCORE.INTER.POLAR>
0

>  <SCORE.INTER.ROT>
8

>  <SCORE.INTER.SOLV>
15.9857

>  <SCORE.INTER.VDW>
-24.6254

>  <SCORE.INTER.norm>
-0.597896

>  <SCORE.INTRA>
1.11881

>  <SCORE.INTRA.DIHEDRAL>
0.291244

>  <SCORE.INTRA.DIHEDRAL.0>
8.13976

>  <SCORE.INTRA.POLAR>
0

>  <SCORE.INTRA.POLAR.0>
0

>  <SCORE.INTRA.REPUL>
0

>  <SCORE.INTRA.REPUL.0>
0

>  <SCORE.INTRA.SOLV>
0.435521

>  <SCORE.INTRA.SOLV.lig_0>
-82.9561

>  <SCORE.INTRA.VDW>
0.755429

>  <SCORE.INTRA.VDW.0>
-3.29171

>  <SCORE.INTRA.norm>
0.0430312

>  <SCORE.RESTR>
0.292623

>  <SCORE.RESTR.CAVITY>
0.292623

>  <SCORE.RESTR.norm>
0.0112547

>  <SCORE.SYSTEM>
0

>  <SCORE.SYSTEM.CONST>
0

>  <SCORE.SYSTEM.DIHEDRAL>
0

>  <SCORE.SYSTEM.SOLV>
0

>  <SCORE.SYSTEM.norm>
0

>  <SCORE.heavy>
26

>  <SCORE.norm>
-0.543611

>  <RMSD>
9.496

$$$$
ligand
 OpenBabel11021811433D
libRbt.so/2013.1/901 2013/11/27
 26 27  0  0  0  0  0  0  0  0999 V2000
  -23.5577  -21.1686   -1.8210 C   0  0  0  0  0  0  0  0  0  0  0  0
  -22.7948  -16.1301    4.3991 C   0  0  0  0  0  0  0  0  0  0  0  0
  -25.6463  -12.4772    0.5935 P   0  0  1  0  0  0  0  0  0  0  0  0
  -23.6095  -12.7053   -1.4701 P   0  0  1  0  0  0  0  0  0  0  0  0
  -23.6562  -18.8009    3.4152 C   0  0  0  0  0  0  0  0  0  0  0  0
  -24.5116  -20.4445    1.6956 C   0  0  0  0  0  0  0  0  0  0  0  0
  -23.6219  -19.4327    2.0339 C   0  0  0  0  0  0  0  0  0  0  0  0
  -22.7118  -19.0019    1.0825 C   0  0  0  0  0  0  0  0  0  0  0  0
  -21.8236  -18.0186    1.3666 N   0  0  0  0  0  0  0  0  0  0  0  0
  -22.7089  -19.5688   -0.1436 N   0  0  0  0  0  0  0  0  0  0  0  0
  -23.5831  -20.5526   -0.4484 C   0  0  0  0  0  0  0  0  0  0  0  0
  -24.4798  -20.9873    0.4705 N   0  0  0  0  0  0  0  0  0  0  0  0
  -25.6212  -11.0190    0.9695 O   0  5  0  0  0  0  0  0  0  0  0  0
  -22.1159  -12.7848   -1.3907 O   0  0  0  0  0  0  0  0  0  0  0  0
  -26.6689  -16.2201    3.1906 S   0  0  0  0  0  0  0  0  0  0  0  0
  -25.8667  -17.7503    3.0223 C   0  0  0  0  0  0  0  0  0  0  0  0
  -26.7345  -12.9307   -0.3366 O   0  0  0  0  0  0  0  0  0  0  0  0
  -24.1287  -13.8891   -2.2160 O   0  5  0  0  0  0  0  0  0  0  0  0
  -24.5740  -17.6620    3.4417 N   0  0  0  0  0  0  0  0  0  0  0  0
  -24.1785  -12.8819    0.0378 O   0  0  0  0  0  0  0  0  0  0  0  0
  -24.1748  -11.4050   -1.9730 O   0  0  0  0  0  0  0  0  0  0  0  0
  -24.1782  -16.4399    3.8923 C   0  0  1  0  0  0  0  0  0  0  0  0
  -25.2810  -15.4419    3.8428 C   0  0  1  0  0  0  0  0  0  0  0  0
  -25.4058  -13.9852    4.2026 C   0  0  0  0  0  0  0  0  0  0  0  0
  -24.9098  -13.1499    3.0328 C   0  0  0  0  0  0  0  0  0  0  0  0
  -25.8063  -13.3343    1.9440 O   0  0  0  0  0  0  0  0  0  0  0  0
  1 11  1  0  0  0  0
  3 13  1  1  0  0  0
  3 17  2  0  0  0  0
  3 20  1  0  0  0  0
  3 26  1  0  0  0  0
  4 14  1  6  0  0  0
  4 18  1  0  0  0  0
  4 21  2  0  0  0  0
  4 20  1  0  0  0  0
  5 19  1  0  0  0  0
  5  7  1  0  0  0  0
  6  7  2  0  0  0  0
  6 12  1  0  0  0  0
  7  8  1  0  0  0  0
  8  9  1  0  0  0  0
  8 10  2  0  0  0  0
 10 11  1  0  0  0  0
 11 12  2  0  0  0  0
 15 23  1  0  0  0  0
 15 16  1  0  0  0  0
 16 19  1  0  0  0  0
 19 22  1  0  0  0  0
 22  2  1  1  0  0  0
 22 23  1  0  0  0  0
 23 24  1  6  0  0  0
 24 25  1  0  0  0  0
 25 26  1  0  0  0  0
M  CHG  2  13  -1  18  -1
M  END
>  <CHROM.1>
-84.71521030,52.74553909,-89.21290834,161.49980253,-94.91927244,66.68268559
174.05766572,-53.64036645,-24.45609350,-15.62434663,1.12226906,-1.24035372
1.16181695,-0.51106289

>  <Name>
ligand

>  <RI>
0

>  <Rbt.Current_Directory>
/home/itssahil/PROJECTS/Mol_Feturizer/New_Systems/rnas/2GDI

>  <Rbt.Executable>
rbdock ($Id: //depot/dev/client3/rdock/2013.1/src/exe/rbdock.cxx#4 $)

>  <Rbt.Library>
libRbt.so (2013.1, Build901 2013/11/27)

>  <Rbt.Parameter_File>
/export/apps/rDock/src/rDock_2013.1_src/data/scripts/dock_solv.prm

>  <Rbt.Receptor>
prm/pocket_docking_7.prm

>  <SCORE>
-15.1685

>  <SCORE.INTER>
-15.24

>  <SCORE.INTER.CONST>
1

>  <SCORE.INTER.POLAR>
0

>  <SCORE.INTER.ROT>
8

>  <SCORE.INTER.SOLV>
18.5742

>  <SCORE.INTER.VDW>
-25.2848

>  <SCORE.INTER.norm>
-0.586155

>  <SCORE.INTRA>
0.0714944

>  <SCORE.INTRA.DIHEDRAL>
-1.83904

>  <SCORE.INTRA.DIHEDRAL.0>
8.13976

>  <SCORE.INTRA.POLAR>
0

>  <SCORE.INTRA.POLAR.0>
0

>  <SCORE.INTRA.REPUL>
0

>  <SCORE.INTRA.REPUL.0>
0

>  <SCORE.INTRA.SOLV>
3.18063

>  <SCORE.INTRA.SOLV.lig_0>
-82.9561

>  <SCORE.INTRA.VDW>
-0.599298

>  <SCORE.INTRA.VDW.0>
-3.29171

>  <SCORE.INTRA.norm>
0.00274978

>  <SCORE.RESTR>
0

>  <SCORE.RESTR.CAVITY>
0

>  <SCORE.RESTR.norm>
0

>  <SCORE.SYSTEM>
0

>  <SCORE.SYSTEM.CONST>
0

>  <SCORE.SYSTEM.DIHEDRAL>
0

>  <SCORE.SYSTEM.SOLV>
0

>  <SCORE.SYSTEM.norm>
0

>  <SCORE.heavy>
26

>  <SCORE.norm>
-0.583406

>  <RMSD>
9.532

$$$$
ligand
 OpenBabel11021811433D
libRbt.so/2013.1/901 2013/11/27
 26 27  0  0  0  0  0  0  0  0999 V2000
  -24.0827  -13.9147   11.9264 C   0  0  0  0  0  0  0  0  0  0  0  0
  -22.3320   -9.4239    4.7712 C   0  0  0  0  0  0  0  0  0  0  0  0
  -19.1068  -11.2783    1.2929 P   0  0  1  0  0  0  0  0  0  0  0  0
  -17.1841  -13.4338    0.9521 P   0  0  1  0  0  0  0  0  0  0  0  0
  -22.3794  -10.7961    7.4090 C   0  0  0  0  0  0  0  0  0  0  0  0
  -22.0292  -12.6356    9.1073 C   0  0  0  0  0  0  0  0  0  0  0  0
  -22.8358  -11.6263    8.5968 C   0  0  0  0  0  0  0  0  0  0  0  0
  -24.0585  -11.3828    9.2007 C   0  0  0  0  0  0  0  0  0  0  0  0
  -24.8800  -10.4096    8.7375 N   0  0  0  0  0  0  0  0  0  0  0  0
  -24.4374  -12.1244   10.2642 N   0  0  0  0  0  0  0  0  0  0  0  0
  -23.6362  -13.1018   10.7415 C   0  0  0  0  0  0  0  0  0  0  0  0
  -22.4370  -13.3546   10.1624 N   0  0  0  0  0  0  0  0  0  0  0  0
  -18.1550  -10.3961    2.0572 O   0  5  0  0  0  0  0  0  0  0  0  0
  -16.9609  -12.9807   -0.4580 O   0  0  0  0  0  0  0  0  0  0  0  0
  -22.9545  -13.4249    4.4856 S   0  0  0  0  0  0  0  0  0  0  0  0
  -22.7719  -12.8787    6.1232 C   0  0  0  0  0  0  0  0  0  0  0  0
  -19.3827  -10.9176   -0.1384 O   0  0  0  0  0  0  0  0  0  0  0  0
  -16.1655  -12.8023    1.8414 O   0  5  0  0  0  0  0  0  0  0  0  0
  -22.5665  -11.5329    6.1591 N   0  0  0  0  0  0  0  0  0  0  0  0
  -18.6011  -12.8115    1.4357 O   0  0  0  0  0  0  0  0  0  0  0  0
  -17.2965  -14.9199    1.1571 O   0  0  0  0  0  0  0  0  0  0  0  0
  -22.5444  -10.9033    4.9522 C   0  0  1  0  0  0  0  0  0  0  0  0
  -22.7729  -11.8476    3.8250 C   0  0  1  0  0  0  0  0  0  0  0  0
  -22.8474  -11.7086    2.3276 C   0  0  0  0  0  0  0  0  0  0  0  0
  -21.5385  -12.1968    1.7270 C   0  0  0  0  0  0  0  0  0  0  0  0
  -20.5219  -11.2577    2.0553 O   0  0  0  0  0  0  0  0  0  0  0  0
  1 11  1  0  0  0  0
  3 13  1  1  0  0  0
  3 17  2  0  0  0  0
  3 20  1  0  0  0  0
  3 26  1  0  0  0  0
  4 14  1  6  0  0  0
  4 18  1  0  0  0  0
  4 21  2  0  0  0  0
  4 20  1  0  0  0  0
  5 19  1  0  0  0  0
  5  7  1  0  0  0  0
  6  7  2  0  0  0  0
  6 12  1  0  0  0  0
  7  8  1  0  0  0  0
  8  9  1  0  0  0  0
  8 10  2  0  0  0  0
 10 11  1  0  0  0  0
 11 12  2  0  0  0  0
 15 23  1  0  0  0  0
 15 16  1  0  0  0  0
 16 19  1  0  0  0  0
 19 22  1  0  0  0  0
 22  2  1  1  0  0  0
 22 23  1  0  0  0  0
 23 24  1  6  0  0  0
 24 25  1  0  0  0  0
 25 26  1  0  0  0  0
M  CHG  2  13  -1  18  -1
M  END
>  <CHROM.1>
-60.88970812,-16.26433245,78.64682339,-48.46209715,-76.24229527,-70.25469356
-165.25096276,-167.42937696,-20.98770611,-12.16584847,4.49072331,-2.30101969
0.60147473,-1.12727735

>  <Name>
ligand

>  <RI>
0

>  <Rbt.Current_Directory>
/home/itssahil/PROJECTS/Mol_Feturizer/New_Systems/rnas/2GDI

>  <Rbt.Executable>
rbdock ($Id: //depot/dev/client3/rdock/2013.1/src/exe/rbdock.cxx#4 $)

>  <Rbt.Library>
libRbt.so (2013.1, Build901 2013/11/27)

>  <Rbt.Parameter_File>
/export/apps/rDock/src/rDock_2013.1_src/data/scripts/dock_solv.prm

>  <Rbt.Receptor>
prm/blind_docking_80.prm

>  <SCORE>
-9.95103

>  <SCORE.INTER>
-9.53874

>  <SCORE.INTER.CONST>
1

>  <SCORE.INTER.POLAR>
0

>  <SCORE.INTER.ROT>
8

>  <SCORE.INTER.SOLV>
18.5647

>  <SCORE.INTER.VDW>
-21.4807

>  <SCORE.INTER.norm>
-0.366875

>  <SCORE.INTRA>
-0.412289

>  <SCORE.INTRA.DIHEDRAL>
-1.38573

>  <SCORE.INTRA.DIHEDRAL.0>
8.13976

>  <SCORE.INTRA.POLAR>
0

>  <SCORE.INTRA.POLAR.0>
0

>  <SCORE.INTRA.REPUL>
0

>  <SCORE.INTRA.REPUL.0>
0

>  <SCORE.INTRA.SOLV>
0.218841

>  <SCORE.INTRA.SOLV.lig_0>
-82.9561

>  <SCORE.INTRA.VDW>
0.171158

>  <SCORE.INTRA.VDW.0>
-3.29171

>  <SCORE.INTRA.norm>
-0.0158573

>  <SCORE.RESTR>
0

>  <SCORE.RESTR.CAVITY>
0

>  <SCORE.RESTR.norm>
0

>  <SCORE.SYSTEM>
0

>  <SCORE.SYSTEM.CONST>
0

>  <SCORE.SYSTEM.DIHEDRAL>
0

>  <SCORE.SYSTEM.SOLV>
0

>  <SCORE.SYSTEM.norm>
0

>  <SCORE.heavy>
26

>  <SCORE.norm>
-0.382732

>  <RMSD>
9.546

$$$$
ligand
 OpenBabel11021811433D
libRbt.so/2013.1/901 2013/11/27
 26 27  0  0  0  0  0  0  0  0999 V2000
  -21.0493  -18.7704    4.3836 C   0  0  0  0  0  0  0  0  0  0  0  0
  -21.3719  -13.2034   -1.1758 C   0  0  0  0  0  0  0  0  0  0  0  0
  -15.6925   -9.8491    0.5282 P   0  0  1  0  0  0  0  0  0  0  0  0
  -13.5045   -8.0306   -0.0749 P   0  0  1  0  0  0  0  0  0  0  0  0
  -22.8156  -14.3561    1.1544 C   0  0  0  0  0  0  0  0  0  0  0  0
  -21.0149  -15.9050    2.0196 C   0  0  0  0  0  0  0  0  0  0  0  0
  -22.3523  -15.5298    2.0007 C   0  0  0  0  0  0  0  0  0  0  0  0
  -23.2527  -16.2383    2.7793 C   0  0  0  0  0  0  0  0  0  0  0  0
  -24.5674  -15.9101    2.7926 N   0  0  0  0  0  0  0  0  0  0  0  0
  -22.8156  -17.2694    3.5344 N   0  0  0  0  0  0  0  0  0  0  0  0
  -21.5100  -17.6165    3.5348 C   0  0  0  0  0  0  0  0  0  0  0  0
  -20.6152  -16.9351    2.7783 N   0  0  0  0  0  0  0  0  0  0  0  0
  -14.8928  -11.0417    0.0736 O   0  5  0  0  0  0  0  0  0  0  0  0
  -13.3901   -6.8130   -0.9398 O   0  0  0  0  0  0  0  0  0  0  0  0
  -20.5426  -11.3123    2.3188 S   0  0  0  0  0  0  0  0  0  0  0  0
  -21.6661  -12.6226    2.5029 C   0  0  0  0  0  0  0  0  0  0  0  0
  -15.8967   -9.6788    2.0061 O   0  0  0  0  0  0  0  0  0  0  0  0
  -13.2875   -7.6464    1.3508 O   0  5  0  0  0  0  0  0  0  0  0  0
  -21.9067  -13.2194    1.3026 N   0  0  0  0  0  0  0  0  0  0  0  0
  -15.0481   -8.5220   -0.1427 O   0  0  0  0  0  0  0  0  0  0  0  0
  -12.6772   -9.2158   -0.4922 O   0  0  0  0  0  0  0  0  0  0  0  0
  -21.2465  -12.6927    0.2348 C   0  0  1  0  0  0  0  0  0  0  0  0
  -20.3674  -11.5575    0.6258 C   0  0  1  0  0  0  0  0  0  0  0  0
  -19.4404  -10.6331   -0.1180 C   0  0  0  0  0  0  0  0  0  0  0  0
  -18.0059  -11.0558    0.1574 C   0  0  0  0  0  0  0  0  0  0  0  0
  -17.1551   -9.9531   -0.1309 O   0  0  0  0  0  0  0  0  0  0  0  0
  1 11  1  0  0  0  0
  3 13  1  6  0  0  0
  3 17  2  0  0  0  0
  3 20  1  0  0  0  0
  3 26  1  0  0  0  0
  4 14  1  6  0  0  0
  4 18  1  0  0  0  0
  4 21  2  0  0  0  0
  4 20  1  0  0  0  0
  5 19  1  0  0  0  0
  5  7  1  0  0  0  0
  6  7  2  0  0  0  0
  6 12  1  0  0  0  0
  7  8  1  0  0  0  0
  8  9  1  0  0  0  0
  8 10  2  0  0  0  0
 10 11  1  0  0  0  0
 11 12  2  0  0  0  0
 15 23  1  0  0  0  0
 15 16  1  0  0  0  0
 16 19  1  0  0  0  0
 19 22  1  0  0  0  0
 22  2  1  1  0  0  0
 22 23  1  0  0  0  0
 23 24  1  6  0  0  0
 24 25  1  0  0  0  0
 25 26  1  0  0  0  0
M  CHG  2  13  -1  18  -1
M  END
>  <CHROM.1>
-53.95181088,-59.67423318,-44.85737771,175.54237551,76.89198849,-159.76212134
157.61685036,61.30802303,-18.55641834,-12.00899544,1.17452791,-2.38553365
-0.14619847,-0.48051658

>  <Name>
ligand

>  <RI>
0

>  <Rbt.Current_Directory>
/home/itssahil/PROJECTS/Mol_Feturizer/New_Systems/rnas/2GDI

>  <Rbt.Executable>
rbdock ($Id: //depot/dev/client3/rdock/2013.1/src/exe/rbdock.cxx#4 $)

>  <Rbt.Library>
libRbt.so (2013.1, Build901 2013/11/27)

>  <Rbt.Parameter_File>
/export/apps/rDock/src/rDock_2013.1_src/data/scripts/dock_solv.prm

>  <Rbt.Receptor>
prm/pocket_docking_4.prm

>  <SCORE>
-13.0699

>  <SCORE.INTER>
-14.5494

>  <SCORE.INTER.CONST>
1

>  <SCORE.INTER.POLAR>
0

>  <SCORE.INTER.ROT>
8

>  <SCORE.INTER.SOLV>
29.2028

>  <SCORE.INTER.VDW>
-28.3672

>  <SCORE.INTER.norm>
-0.559591

>  <SCORE.INTRA>
1.4795

>  <SCORE.INTRA.DIHEDRAL>
0.947213

>  <SCORE.INTRA.DIHEDRAL.0>
8.13976

>  <SCORE.INTRA.POLAR>
0

>  <SCORE.INTRA.POLAR.0>
0

>  <SCORE.INTRA.REPUL>
0

>  <SCORE.INTRA.REPUL.0>
0

>  <SCORE.INTRA.SOLV>
2.03347

>  <SCORE.INTRA.SOLV.lig_0>
-82.9561

>  <SCORE.INTRA.VDW>
-0.0108444

>  <SCORE.INTRA.VDW.0>
-3.29171

>  <SCORE.INTRA.norm>
0.0569038

>  <SCORE.RESTR>
0

>  <SCORE.RESTR.CAVITY>
0

>  <SCORE.RESTR.norm>
0

>  <SCORE.SYSTEM>
0

>  <SCORE.SYSTEM.CONST>
0

>  <SCORE.SYSTEM.DIHEDRAL>
0

>  <SCORE.SYSTEM.SOLV>
0

>  <SCORE.SYSTEM.norm>
0

>  <SCORE.heavy>
26

>  <SCORE.norm>
-0.502687

>  <RMSD>
9.548

$$$$
ligand
 OpenBabel11021811433D
libRbt.so/2013.1/901 2013/11/27
 26 27  0  0  0  0  0  0  0  0999 V2000
  -24.1804  -13.1127   -2.0210 C   0  0  0  0  0  0  0  0  0  0  0  0
  -25.0532  -12.9975    5.8038 C   0  0  0  0  0  0  0  0  0  0  0  0
  -23.0471  -13.4459   10.4249 P   0  0  1  0  0  0  0  0  0  0  0  0
  -23.8374  -16.2446   10.4637 P   0  0  1  0  0  0  0  0  0  0  0  0
  -25.8185  -11.6198    3.2819 C   0  0  0  0  0  0  0  0  0  0  0  0
  -26.2357  -11.8368    0.7982 C   0  0  0  0  0  0  0  0  0  0  0  0
  -25.3877  -12.0246    1.8823 C   0  0  0  0  0  0  0  0  0  0  0  0
  -24.1364  -12.5756    1.6601 C   0  0  0  0  0  0  0  0  0  0  0  0
  -23.2751  -12.7789    2.6864 N   0  0  0  0  0  0  0  0  0  0  0  0
  -23.7696  -12.9151    0.4051 N   0  0  0  0  0  0  0  0  0  0  0  0
  -24.6127  -12.7242   -0.6330 C   0  0  0  0  0  0  0  0  0  0  0  0
  -25.8413  -12.1873   -0.4339 N   0  0  0  0  0  0  0  0  0  0  0  0
  -24.4115  -12.9010   10.7564 O   0  5  0  0  0  0  0  0  0  0  0  0
  -24.0840  -17.2442    9.3758 O   0  0  0  0  0  0  0  0  0  0  0  0
  -22.6119   -9.8921    4.8694 S   0  0  0  0  0  0  0  0  0  0  0  0
  -23.8813  -10.1337    3.7104 C   0  0  0  0  0  0  0  0  0  0  0  0
  -22.0255  -13.4630   11.5253 O   0  0  0  0  0  0  0  0  0  0  0  0
  -22.7428  -16.7382   11.3499 O   0  5  0  0  0  0  0  0  0  0  0  0
  -24.6674  -11.1850    4.0732 N   0  0  0  0  0  0  0  0  0  0  0  0
  -23.2354  -14.9128    9.7618 O   0  0  0  0  0  0  0  0  0  0  0  0
  -25.0500  -15.7925   11.2309 O   0  0  0  0  0  0  0  0  0  0  0  0
  -24.3183  -11.8167    5.2275 C   0  0  1  0  0  0  0  0  0  0  0  0
  -23.1292  -11.1925    5.8686 C   0  0  1  0  0  0  0  0  0  0  0  0
  -22.3333  -11.4694    7.1163 C   0  0  0  0  0  0  0  0  0  0  0  0
  -23.2245  -12.1945    8.1124 C   0  0  0  0  0  0  0  0  0  0  0  0
  -22.4322  -12.5531    9.2379 O   0  0  0  0  0  0  0  0  0  0  0  0
  1 11  1  0  0  0  0
  3 13  1  1  0  0  0
  3 17  2  0  0  0  0
  3 20  1  0  0  0  0
  3 26  1  0  0  0  0
  4 14  1  6  0  0  0
  4 18  1  0  0  0  0
  4 21  2  0  0  0  0
  4 20  1  0  0  0  0
  5 19  1  0  0  0  0
  5  7  1  0  0  0  0
  6  7  2  0  0  0  0
  6 12  1  0  0  0  0
  7  8  1  0  0  0  0
  8  9  1  0  0  0  0
  8 10  2  0  0  0  0
 10 11  1  0  0  0  0
 11 12  2  0  0  0  0
 15 23  1  0  0  0  0
 15 16  1  0  0  0  0
 16 19  1  0  0  0  0
 19 22  1  0  0  0  0
 22  2  1  1  0  0  0
 22 23  1  0  0  0  0
 23 24  1  6  0  0  0
 24 25  1  0  0  0  0
 25 26  1  0  0  0  0
M  CHG  2  13  -1  18  -1
M  END
>  <CHROM.1>
-64.45812712,59.91388928,-147.91627508,167.83822415,156.32451731,175.02762244
-174.81216759,-44.89617149,-23.83900562,-13.04861856,6.23553365,1.90417198
-1.20953335,-0.96395511

>  <Name>
ligand

>  <RI>
0

>  <Rbt.Current_Directory>
/home/itssahil/PROJECTS/Mol_Feturizer/New_Systems/rnas/2GDI

>  <Rbt.Executable>
rbdock ($Id: //depot/dev/client3/rdock/2013.1/src/exe/rbdock.cxx#4 $)

>  <Rbt.Library>
libRbt.so (2013.1, Build901 2013/11/27)

>  <Rbt.Parameter_File>
/export/apps/rDock/src/rDock_2013.1_src/data/scripts/dock_solv.prm

>  <Rbt.Receptor>
prm/blind_docking_100.prm

>  <SCORE>
-8.82231

>  <SCORE.INTER>
-12.3602

>  <SCORE.INTER.CONST>
1

>  <SCORE.INTER.POLAR>
0

>  <SCORE.INTER.ROT>
8

>  <SCORE.INTER.SOLV>
10.7436

>  <SCORE.INTER.VDW>
-20.7547

>  <SCORE.INTER.norm>
-0.475393

>  <SCORE.INTRA>
3.4075

>  <SCORE.INTRA.DIHEDRAL>
-2.4108

>  <SCORE.INTRA.DIHEDRAL.0>
8.13976

>  <SCORE.INTRA.POLAR>
0

>  <SCORE.INTRA.POLAR.0>
0

>  <SCORE.INTRA.REPUL>
0

>  <SCORE.INTRA.REPUL.0>
0

>  <SCORE.INTRA.SOLV>
6.20695

>  <SCORE.INTRA.SOLV.lig_0>
-82.9561

>  <SCORE.INTRA.VDW>
1.50943

>  <SCORE.INTRA.VDW.0>
-3.29171

>  <SCORE.INTRA.norm>
0.131058

>  <SCORE.RESTR>
0.130402

>  <SCORE.RESTR.CAVITY>
0.130402

>  <SCORE.RESTR.norm>
0.00501547

>  <SCORE.SYSTEM>
0

>  <SCORE.SYSTEM.CONST>
0

>  <SCORE.SYSTEM.DIHEDRAL>
0

>  <SCORE.SYSTEM.SOLV>
0

>  <SCORE.SYSTEM.norm>
0

>  <SCORE.heavy>
26

>  <SCORE.norm>
-0.339319

>  <RMSD>
9.553

$$$$
ligand
 OpenBabel11021811433D
libRbt.so/2013.1/901 2013/11/27
 26 27  0  0  0  0  0  0  0  0999 V2000
  -23.5639  -21.1759   -1.7928 C   0  0  0  0  0  0  0  0  0  0  0  0
  -22.8583  -16.0740    4.3691 C   0  0  0  0  0  0  0  0  0  0  0  0
  -25.6103  -12.3668    0.5622 P   0  0  1  0  0  0  0  0  0  0  0  0
  -23.6130  -12.6085   -1.5381 P   0  0  1  0  0  0  0  0  0  0  0  0
  -23.7082  -18.7613    3.4208 C   0  0  0  0  0  0  0  0  0  0  0  0
  -24.5264  -20.4424    1.7194 C   0  0  0  0  0  0  0  0  0  0  0  0
  -23.6617  -19.4053    2.0455 C   0  0  0  0  0  0  0  0  0  0  0  0
  -22.7653  -18.9607    1.0874 C   0  0  0  0  0  0  0  0  0  0  0  0
  -21.9016  -17.9526    1.3595 N   0  0  0  0  0  0  0  0  0  0  0  0
  -22.7514  -19.5391   -0.1332 N   0  0  0  0  0  0  0  0  0  0  0  0
  -23.6012  -20.5476   -0.4261 C   0  0  0  0  0  0  0  0  0  0  0  0
  -24.4841  -20.9960    0.4995 N   0  0  0  0  0  0  0  0  0  0  0  0
  -25.6186  -10.9324    1.0214 O   0  5  0  0  0  0  0  0  0  0  0  0
  -23.9731  -11.2433   -2.0382 O   0  0  0  0  0  0  0  0  0  0  0  0
  -26.7304  -16.1953    3.1571 S   0  0  0  0  0  0  0  0  0  0  0  0
  -25.9223  -17.7246    3.0109 C   0  0  0  0  0  0  0  0  0  0  0  0
  -26.6829  -12.7887   -0.4003 O   0  0  0  0  0  0  0  0  0  0  0  0
  -22.1280  -12.7266   -1.4488 O   0  5  0  0  0  0  0  0  0  0  0  0
  -24.6304  -17.6257    3.4305 N   0  0  0  0  0  0  0  0  0  0  0  0
  -24.1309  -12.7081   -0.0049 O   0  0  0  0  0  0  0  0  0  0  0  0
  -24.2476  -13.7645   -2.2621 O   0  0  0  0  0  0  0  0  0  0  0  0
  -24.2398  -16.3959    3.8649 C   0  0  1  0  0  0  0  0  0  0  0  0
  -25.3463  -15.4030    3.8003 C   0  0  1  0  0  0  0  0  0  0  0  0
  -25.4770  -13.9419    4.1399 C   0  0  0  0  0  0  0  0  0  0  0  0
  -24.9148  -13.1218    2.9894 C   0  0  0  0  0  0  0  0  0  0  0  0
  -25.7603  -13.3033    1.8602 O   0  0  0  0  0  0  0  0  0  0  0  0
  1 11  1  0  0  0  0
  3 13  1  1  0  0  0
  3 17  2  0  0  0  0
  3 20  1  0  0  0  0
  3 26  1  0  0  0  0
  4 14  1  6  0  0  0
  4 18  1  0  0  0  0
  4 21  2  0  0  0  0
  4 20  1  0  0  0  0
  5 19  1  0  0  0  0
  5  7  1  0  0  0  0
  6  7  2  0  0  0  0
  6 12  1  0  0  0  0
  7  8  1  0  0  0  0
  8  9  1  0  0  0  0
  8 10  2  0  0  0  0
 10 11  1  0  0  0  0
 11 12  2  0  0  0  0
 15 23  1  0  0  0  0
 15 16  1  0  0  0  0
 16 19  1  0  0  0  0
 19 22  1  0  0  0  0
 22  2  1  1  0  0  0
 22 23  1  0  0  0  0
 23 24  1  6  0  0  0
 24 25  1  0  0  0  0
 25 26  1  0  0  0  0
M  CHG  2  13  -1  18  -1
M  END
>  <CHROM.1>
-93.14485220,53.18319219,-90.57694105,51.23796584,-97.87452628,67.01867926
168.46550766,-50.69799373,-24.47179285,-15.56243548,1.09731951,-1.28724974
1.15380903,-0.47870959

>  <Name>
ligand

>  <RI>
0

>  <Rbt.Current_Directory>
/home/itssahil/PROJECTS/Mol_Feturizer/New_Systems/rnas/2GDI

>  <Rbt.Executable>
rbdock ($Id: //depot/dev/client3/rdock/2013.1/src/exe/rbdock.cxx#4 $)

>  <Rbt.Library>
libRbt.so (2013.1, Build901 2013/11/27)

>  <Rbt.Parameter_File>
/export/apps/rDock/src/rDock_2013.1_src/data/scripts/dock_solv.prm

>  <Rbt.Receptor>
prm/pocket_docking_6.prm

>  <SCORE>
-17.3747

>  <SCORE.INTER>
-16.8104

>  <SCORE.INTER.CONST>
1

>  <SCORE.INTER.POLAR>
0

>  <SCORE.INTER.ROT>
8

>  <SCORE.INTER.SOLV>
16.8139

>  <SCORE.INTER.VDW>
-25.7449

>  <SCORE.INTER.norm>
-0.646555

>  <SCORE.INTRA>
-0.564232

>  <SCORE.INTRA.DIHEDRAL>
-1.33282

>  <SCORE.INTRA.DIHEDRAL.0>
8.13976

>  <SCORE.INTRA.POLAR>
0

>  <SCORE.INTRA.POLAR.0>
0

>  <SCORE.INTRA.REPUL>
0

>  <SCORE.INTRA.REPUL.0>
0

>  <SCORE.INTRA.SOLV>
1.42316

>  <SCORE.INTRA.SOLV.lig_0>
-82.9561

>  <SCORE.INTRA.VDW>
-0.609402

>  <SCORE.INTRA.VDW.0>
-3.29171

>  <SCORE.INTRA.norm>
-0.0217012

>  <SCORE.RESTR>
0

>  <SCORE.RESTR.CAVITY>
0

>  <SCORE.RESTR.norm>
0

>  <SCORE.SYSTEM>
0

>  <SCORE.SYSTEM.CONST>
0

>  <SCORE.SYSTEM.DIHEDRAL>
0

>  <SCORE.SYSTEM.SOLV>
0

>  <SCORE.SYSTEM.norm>
0

>  <SCORE.heavy>
26

>  <SCORE.norm>
-0.668256

>  <RMSD>
9.557

$$$$
ligand
 OpenBabel11021811433D
libRbt.so/2013.1/901 2013/11/27
 26 27  0  0  0  0  0  0  0  0999 V2000
  -23.6158  -21.1499   -1.8685 C   0  0  0  0  0  0  0  0  0  0  0  0
  -22.7450  -16.2177    4.3280 C   0  0  0  0  0  0  0  0  0  0  0  0
  -25.0399  -12.6269    0.4394 P   0  0  1  0  0  0  0  0  0  0  0  0
  -23.2630  -12.4073   -1.8526 P   0  0  1  0  0  0  0  0  0  0  0  0
  -23.7519  -18.8574    3.4001 C   0  0  0  0  0  0  0  0  0  0  0  0
  -24.5899  -20.4813    1.6534 C   0  0  0  0  0  0  0  0  0  0  0  0
  -23.7076  -19.4693    2.0102 C   0  0  0  0  0  0  0  0  0  0  0  0
  -22.7957  -19.0199    1.0693 C   0  0  0  0  0  0  0  0  0  0  0  0
  -21.9145  -18.0357    1.3714 N   0  0  0  0  0  0  0  0  0  0  0  0
  -22.7839  -19.5693   -0.1647 N   0  0  0  0  0  0  0  0  0  0  0  0
  -23.6510  -20.5536   -0.4875 C   0  0  0  0  0  0  0  0  0  0  0  0
  -24.5494  -21.0064    0.4209 N   0  0  0  0  0  0  0  0  0  0  0  0
  -25.3068  -11.1651    0.6846 O   0  5  0  0  0  0  0  0  0  0  0  0
  -23.8584  -11.0635   -2.1413 O   0  0  0  0  0  0  0  0  0  0  0  0
  -26.6338  -16.1320    3.1677 S   0  0  0  0  0  0  0  0  0  0  0  0
  -25.9118  -17.7032    3.0159 C   0  0  0  0  0  0  0  0  0  0  0  0
  -26.1079  -13.4142   -0.2638 O   0  0  0  0  0  0  0  0  0  0  0  0
  -21.7746  -12.3088   -1.8988 O   0  5  0  0  0  0  0  0  0  0  0  0
  -24.6110  -17.6734    3.4182 N   0  0  0  0  0  0  0  0  0  0  0  0
  -23.6083  -12.7615   -0.3085 O   0  0  0  0  0  0  0  0  0  0  0  0
  -23.7973  -13.5540   -2.6667 O   0  0  0  0  0  0  0  0  0  0  0  0
  -24.1485  -16.4655    3.8432 C   0  0  1  0  0  0  0  0  0  0  0  0
  -25.2004  -15.4142    3.7899 C   0  0  1  0  0  0  0  0  0  0  0  0
  -25.2472  -13.9473    4.1262 C   0  0  0  0  0  0  0  0  0  0  0  0
  -25.7569  -13.1850    2.9132 C   0  0  0  0  0  0  0  0  0  0  0  0
  -24.8078  -13.3339    1.8644 O   0  0  0  0  0  0  0  0  0  0  0  0
  1 11  1  0  0  0  0
  3 13  1  1  0  0  0
  3 17  2  0  0  0  0
  3 20  1  0  0  0  0
  3 26  1  0  0  0  0
  4 14  1  6  0  0  0
  4 18  1  0  0  0  0
  4 21  2  0  0  0  0
  4 20  1  0  0  0  0
  5 19  1  0  0  0  0
  5  7  1  0  0  0  0
  6  7  2  0  0  0  0
  6 12  1  0  0  0  0
  7  8  1  0  0  0  0
  8  9  1  0  0  0  0
  8 10  2  0  0  0  0
 10 11  1  0  0  0  0
 11 12  2  0  0  0  0
 15 23  1  0  0  0  0
 15 16  1  0  0  0  0
 16 19  1  0  0  0  0
 19 22  1  0  0  0  0
 22  2  1  1  0  0  0
 22 23  1  0  0  0  0
 23 24  1  6  0  0  0
 24 25  1  0  0  0  0
 25 26  1  0  0  0  0
M  CHG  2  13  -1  18  -1
M  END
>  <CHROM.1>
-73.84605064,55.81514413,-92.78541856,47.02803613,-52.90789852,-64.49175149
-179.16276259,52.52625390,-24.29191684,-15.58911287,0.99240821,-1.50963971
1.15753694,-0.34779380

>  <Name>
ligand

>  <RI>
0

>  <Rbt.Current_Directory>
/home/itssahil/PROJECTS/Mol_Feturizer/New_Systems/rnas/2GDI

>  <Rbt.Executable>
rbdock ($Id: //depot/dev/client3/rdock/2013.1/src/exe/rbdock.cxx#4 $)

>  <Rbt.Library>
libRbt.so (2013.1, Build901 2013/11/27)

>  <Rbt.Parameter_File>
/export/apps/rDock/src/rDock_2013.1_src/data/scripts/dock_solv.prm

>  <Rbt.Receptor>
prm/pocket_docking_6.prm

>  <SCORE>
-16.1552

>  <SCORE.INTER>
-16.037

>  <SCORE.INTER.CONST>
1

>  <SCORE.INTER.POLAR>
0

>  <SCORE.INTER.ROT>
8

>  <SCORE.INTER.SOLV>
16.3998

>  <SCORE.INTER.VDW>
-25.0913

>  <SCORE.INTER.norm>
-0.616808

>  <SCORE.INTRA>
-0.118137

>  <SCORE.INTRA.DIHEDRAL>
-2.16698

>  <SCORE.INTRA.DIHEDRAL.0>
8.13976

>  <SCORE.INTRA.POLAR>
0

>  <SCORE.INTRA.POLAR.0>
0

>  <SCORE.INTRA.REPUL>
0

>  <SCORE.INTRA.REPUL.0>
0

>  <SCORE.INTRA.SOLV>
2.01344

>  <SCORE.INTRA.SOLV.lig_0>
-82.9561

>  <SCORE.INTRA.VDW>
-0.0413699

>  <SCORE.INTRA.VDW.0>
-3.29171

>  <SCORE.INTRA.norm>
-0.00454373

>  <SCORE.RESTR>
0

>  <SCORE.RESTR.CAVITY>
0

>  <SCORE.RESTR.norm>
0

>  <SCORE.SYSTEM>
0

>  <SCORE.SYSTEM.CONST>
0

>  <SCORE.SYSTEM.DIHEDRAL>
0

>  <SCORE.SYSTEM.SOLV>
0

>  <SCORE.SYSTEM.norm>
0

>  <SCORE.heavy>
26

>  <SCORE.norm>
-0.621352

>  <RMSD>
9.561

$$$$
ligand
 OpenBabel11021811433D
libRbt.so/2013.1/901 2013/11/27
 26 27  0  0  0  0  0  0  0  0999 V2000
  -22.4029  -20.4836   -4.7718 C   0  0  0  0  0  0  0  0  0  0  0  0
  -24.6073  -18.8195    3.1826 C   0  0  0  0  0  0  0  0  0  0  0  0
  -22.4150  -14.5331    3.4305 P   0  0  1  0  0  0  0  0  0  0  0  0
  -24.8757  -13.7994    2.0648 P   0  0  1  0  0  0  0  0  0  0  0  0
  -24.0865  -20.4078    0.7230 C   0  0  0  0  0  0  0  0  0  0  0  0
  -23.5880  -21.6189   -1.4391 C   0  0  0  0  0  0  0  0  0  0  0  0
  -23.6314  -20.4273   -0.7264 C   0  0  0  0  0  0  0  0  0  0  0  0
  -23.2644  -19.2554   -1.3674 C   0  0  0  0  0  0  0  0  0  0  0  0
  -23.2894  -18.0690   -0.7130 N   0  0  0  0  0  0  0  0  0  0  0  0
  -22.8763  -19.2950   -2.6606 N   0  0  0  0  0  0  0  0  0  0  0  0
  -22.8407  -20.4666   -3.3323 C   0  0  0  0  0  0  0  0  0  0  0  0
  -23.1953  -21.6231   -2.7206 N   0  0  0  0  0  0  0  0  0  0  0  0
  -21.5140  -13.8589    2.4294 O   0  5  0  0  0  0  0  0  0  0  0  0
  -24.1045  -12.9250    1.1244 O   0  0  0  0  0  0  0  0  0  0  0  0
  -20.6709  -19.6153    2.5921 S   0  0  0  0  0  0  0  0  0  0  0  0
  -21.6929  -20.2757    1.3541 C   0  0  0  0  0  0  0  0  0  0  0  0
  -22.6178  -13.8441    4.7492 O   0  0  0  0  0  0  0  0  0  0  0  0
  -25.8369  -14.6351    1.2870 O   0  5  0  0  0  0  0  0  0  0  0  0
  -22.9987  -19.9788    1.6022 N   0  0  0  0  0  0  0  0  0  0  0  0
  -23.8264  -14.8579    2.7029 O   0  0  0  0  0  0  0  0  0  0  0  0
  -25.5199  -13.1041    3.2331 O   0  0  0  0  0  0  0  0  0  0  0  0
  -23.2387  -19.2518    2.7280 C   0  0  1  0  0  0  0  0  0  0  0  0
  -21.9841  -18.9158    3.4543 C   0  0  1  0  0  0  0  0  0  0  0  0
  -21.6629  -18.1596    4.7161 C   0  0  0  0  0  0  0  0  0  0  0  0
  -22.4214  -16.8418    4.7013 C   0  0  0  0  0  0  0  0  0  0  0  0
  -21.7975  -15.9811    3.7564 O   0  0  0  0  0  0  0  0  0  0  0  0
  1 11  1  0  0  0  0
  3 13  1  6  0  0  0
  3 17  2  0  0  0  0
  3 20  1  0  0  0  0
  3 26  1  0  0  0  0
  4 14  1  6  0  0  0
  4 18  1  0  0  0  0
  4 21  2  0  0  0  0
  4 20  1  0  0  0  0
  5 19  1  0  0  0  0
  5  7  1  0  0  0  0
  6  7  2  0  0  0  0
  6 12  1  0  0  0  0
  7  8  1  0  0  0  0
  8  9  1  0  0  0  0
  8 10  2  0  0  0  0
 10 11  1  0  0  0  0
 11 12  2  0  0  0  0
 15 23  1  0  0  0  0
 15 16  1  0  0  0  0
 16 19  1  0  0  0  0
 19 22  1  0  0  0  0
 22  2  1  6  0  0  0
 22 23  1  0  0  0  0
 23 24  1  1  0  0  0
 24 25  1  0  0  0  0
 25 26  1  0  0  0  0
M  CHG  2  13  -1  18  -1
M  END
>  <CHROM.1>
-61.71086891,-33.70570976,116.26280681,52.30101389,133.70519595,-73.25265865
176.15361506,178.49448335,-23.07710574,-17.33841366,1.49504506,1.39703005
1.06468383,-2.34114507

>  <Name>
ligand

>  <RI>
0

>  <Rbt.Current_Directory>
/home/itssahil/PROJECTS/Mol_Feturizer/New_Systems/rnas/2GDI

>  <Rbt.Executable>
rbdock ($Id: //depot/dev/client3/rdock/2013.1/src/exe/rbdock.cxx#4 $)

>  <Rbt.Library>
libRbt.so (2013.1, Build901 2013/11/27)

>  <Rbt.Parameter_File>
/export/apps/rDock/src/rDock_2013.1_src/data/scripts/dock_solv.prm

>  <Rbt.Receptor>
prm/pocket_docking_7.prm

>  <SCORE>
-13.1004

>  <SCORE.INTER>
-12.5227

>  <SCORE.INTER.CONST>
1

>  <SCORE.INTER.POLAR>
0

>  <SCORE.INTER.ROT>
8

>  <SCORE.INTER.SOLV>
13.1504

>  <SCORE.INTER.VDW>
-21.6653

>  <SCORE.INTER.norm>
-0.481644

>  <SCORE.INTRA>
-0.577639

>  <SCORE.INTRA.DIHEDRAL>
-2.54269

>  <SCORE.INTRA.DIHEDRAL.0>
8.13976

>  <SCORE.INTRA.POLAR>
0

>  <SCORE.INTRA.POLAR.0>
0

>  <SCORE.INTRA.REPUL>
0

>  <SCORE.INTRA.REPUL.0>
0

>  <SCORE.INTRA.SOLV>
2.07849

>  <SCORE.INTRA.SOLV.lig_0>
-82.9561

>  <SCORE.INTRA.VDW>
-0.345539

>  <SCORE.INTRA.VDW.0>
-3.29171

>  <SCORE.INTRA.norm>
-0.0222169

>  <SCORE.RESTR>
0

>  <SCORE.RESTR.CAVITY>
0

>  <SCORE.RESTR.norm>
0

>  <SCORE.SYSTEM>
0

>  <SCORE.SYSTEM.CONST>
0

>  <SCORE.SYSTEM.DIHEDRAL>
0

>  <SCORE.SYSTEM.SOLV>
0

>  <SCORE.SYSTEM.norm>
0

>  <SCORE.heavy>
26

>  <SCORE.norm>
-0.503861

>  <RMSD>
9.562

$$$$
ligand
 OpenBabel11021811433D
libRbt.so/2013.1/901 2013/11/27
 26 27  0  0  0  0  0  0  0  0999 V2000
  -23.9653  -20.3876    0.6296 C   0  0  0  0  0  0  0  0  0  0  0  0
  -21.9817  -14.4628    1.1469 C   0  0  0  0  0  0  0  0  0  0  0  0
  -18.4774  -10.3679   -0.4091 P   0  0  1  0  0  0  0  0  0  0  0  0
  -16.3384  -11.3958    1.2721 P   0  0  1  0  0  0  0  0  0  0  0  0
  -24.8816  -14.8161    1.7027 C   0  0  0  0  0  0  0  0  0  0  0  0
  -24.4732  -16.7433    0.1187 C   0  0  0  0  0  0  0  0  0  0  0  0
  -24.6497  -16.2908    1.4201 C   0  0  0  0  0  0  0  0  0  0  0  0
  -24.5967  -17.2087    2.4562 C   0  0  0  0  0  0  0  0  0  0  0  0
  -24.7643  -16.8148    3.7420 N   0  0  0  0  0  0  0  0  0  0  0  0
  -24.3756  -18.5128    2.1822 N   0  0  0  0  0  0  0  0  0  0  0  0
  -24.2085  -18.9290    0.9079 C   0  0  0  0  0  0  0  0  0  0  0  0
  -24.2583  -18.0449   -0.1184 N   0  0  0  0  0  0  0  0  0  0  0  0
  -19.1339   -9.5034    0.6350 O   0  5  0  0  0  0  0  0  0  0  0  0
  -15.9480  -12.7733    1.7123 O   0  0  0  0  0  0  0  0  0  0  0  0
  -24.3682  -12.4661   -1.4597 S   0  0  0  0  0  0  0  0  0  0  0  0
  -25.2586  -13.3457   -0.2570 C   0  0  0  0  0  0  0  0  0  0  0  0
  -17.6269   -9.6803   -1.4381 O   0  0  0  0  0  0  0  0  0  0  0  0
  -15.2924  -10.8546    0.3556 O   0  5  0  0  0  0  0  0  0  0  0  0
  -24.4101  -13.9942    0.5881 N   0  0  0  0  0  0  0  0  0  0  0  0
  -17.6626  -11.5462    0.3488 O   0  0  0  0  0  0  0  0  0  0  0  0
  -16.7085  -10.4336    2.3678 O   0  0  0  0  0  0  0  0  0  0  0  0
  -23.0821  -13.8335    0.3348 C   0  0  1  0  0  0  0  0  0  0  0  0
  -22.8397  -12.9449   -0.8340 C   0  0  1  0  0  0  0  0  0  0  0  0
  -21.6101  -12.4384   -1.5401 C   0  0  0  0  0  0  0  0  0  0  0  0
  -20.6855  -11.8027   -0.5137 C   0  0  0  0  0  0  0  0  0  0  0  0
  -19.6358  -11.1426   -1.2105 O   0  0  0  0  0  0  0  0  0  0  0  0
  1 11  1  0  0  0  0
  3 13  1  1  0  0  0
  3 17  2  0  0  0  0
  3 20  1  0  0  0  0
  3 26  1  0  0  0  0
  4 14  1  1  0  0  0
  4 18  1  0  0  0  0
  4 21  2  0  0  0  0
  4 20  1  0  0  0  0
  5 19  1  0  0  0  0
  5  7  1  0  0  0  0
  6  7  2  0  0  0  0
  6 12  1  0  0  0  0
  7  8  1  0  0  0  0
  8  9  1  0  0  0  0
  8 10  2  0  0  0  0
 10 11  1  0  0  0  0
 11 12  2  0  0  0  0
 15 23  1  0  0  0  0
 15 16  1  0  0  0  0
 16 19  1  0  0  0  0
 19 22  1  0  0  0  0
 22  2  1  1  0  0  0
 22 23  1  0  0  0  0
 23 24  1  6  0  0  0
 24 25  1  0  0  0  0
 25 26  1  0  0  0  0
M  CHG  2  13  -1  18  -1
M  END
>  <CHROM.1>
-67.98234796,108.56716591,-20.70969313,-178.56569890,128.37535207,-170.86253809
-179.80499892,-47.49379570,-21.14939496,-13.42909539,0.44330698,-2.49700571
-0.30992637,-0.48738730

>  <Name>
ligand

>  <RI>
0

>  <Rbt.Current_Directory>
/home/itssahil/PROJECTS/Mol_Feturizer/New_Systems/rnas/2GDI

>  <Rbt.Executable>
rbdock ($Id: //depot/dev/client3/rdock/2013.1/src/exe/rbdock.cxx#4 $)

>  <Rbt.Library>
libRbt.so (2013.1, Build901 2013/11/27)

>  <Rbt.Parameter_File>
/export/apps/rDock/src/rDock_2013.1_src/data/scripts/dock_solv.prm

>  <Rbt.Receptor>
prm/pocket_docking_4.prm

>  <SCORE>
-9.67858

>  <SCORE.INTER>
-9.2413

>  <SCORE.INTER.CONST>
1

>  <SCORE.INTER.POLAR>
0

>  <SCORE.INTER.ROT>
8

>  <SCORE.INTER.SOLV>
22.0786

>  <SCORE.INTER.VDW>
-22.4537

>  <SCORE.INTER.norm>
-0.355435

>  <SCORE.INTRA>
-0.437273

>  <SCORE.INTRA.DIHEDRAL>
-3.06595

>  <SCORE.INTRA.DIHEDRAL.0>
8.13976

>  <SCORE.INTRA.POLAR>
0

>  <SCORE.INTRA.POLAR.0>
0

>  <SCORE.INTRA.REPUL>
0

>  <SCORE.INTRA.REPUL.0>
0

>  <SCORE.INTRA.SOLV>
1.99242

>  <SCORE.INTRA.SOLV.lig_0>
-82.9561

>  <SCORE.INTRA.VDW>
0.0994953

>  <SCORE.INTRA.VDW.0>
-3.29171

>  <SCORE.INTRA.norm>
-0.0168182

>  <SCORE.RESTR>
0

>  <SCORE.RESTR.CAVITY>
0

>  <SCORE.RESTR.norm>
0

>  <SCORE.SYSTEM>
0

>  <SCORE.SYSTEM.CONST>
0

>  <SCORE.SYSTEM.DIHEDRAL>
0

>  <SCORE.SYSTEM.SOLV>
0

>  <SCORE.SYSTEM.norm>
0

>  <SCORE.heavy>
26

>  <SCORE.norm>
-0.372253

>  <RMSD>
9.565

$$$$
ligand
 OpenBabel11021811433D
libRbt.so/2013.1/901 2013/11/27
 26 27  0  0  0  0  0  0  0  0999 V2000
  -22.6937  -17.0288   -6.6278 C   0  0  0  0  0  0  0  0  0  0  0  0
  -23.6545  -11.6519   -2.5535 C   0  0  0  0  0  0  0  0  0  0  0  0
  -25.3342  -11.8289    4.4219 P   0  0  1  0  0  0  0  0  0  0  0  0
  -23.0325  -10.1280    4.9396 P   0  0  1  0  0  0  0  0  0  0  0  0
  -25.7977  -12.8120   -4.2577 C   0  0  0  0  0  0  0  0  0  0  0  0
  -23.6524  -14.1230   -4.5213 C   0  0  0  0  0  0  0  0  0  0  0  0
  -24.9756  -13.9207   -4.8928 C   0  0  0  0  0  0  0  0  0  0  0  0
  -25.5348  -14.7585   -5.8438 C   0  0  0  0  0  0  0  0  0  0  0  0
  -26.8212  -14.5993   -6.2389 N   0  0  0  0  0  0  0  0  0  0  0  0
  -24.7889  -15.7462   -6.3848 N   0  0  0  0  0  0  0  0  0  0  0  0
  -23.5034  -15.9220   -6.0084 C   0  0  0  0  0  0  0  0  0  0  0  0
  -22.9397  -15.1110   -5.0801 N   0  0  0  0  0  0  0  0  0  0  0  0
  -25.2948  -13.2517    4.9145 O   0  5  0  0  0  0  0  0  0  0  0  0
  -23.4237   -9.1800    3.8479 O   0  0  0  0  0  0  0  0  0  0  0  0
  -26.5210  -13.5867   -0.4284 S   0  0  0  0  0  0  0  0  0  0  0  0
  -26.8078  -13.6122   -2.1401 C   0  0  0  0  0  0  0  0  0  0  0  0
  -26.6848  -11.1945    4.2545 O   0  0  0  0  0  0  0  0  0  0  0  0
  -22.6466   -9.3514    6.1541 O   0  5  0  0  0  0  0  0  0  0  0  0
  -25.8179  -12.9508   -2.8015 N   0  0  0  0  0  0  0  0  0  0  0  0
  -24.3691  -10.9378    5.3714 O   0  0  0  0  0  0  0  0  0  0  0  0
  -22.0182  -11.1761    4.5707 O   0  0  0  0  0  0  0  0  0  0  0  0
  -24.8361  -12.4190   -2.0226 C   0  0  1  0  0  0  0  0  0  0  0  0
  -25.0559  -12.6989   -0.5777 C   0  0  1  0  0  0  0  0  0  0  0  0
  -24.3151  -12.3621    0.6892 C   0  0  0  0  0  0  0  0  0  0  0  0
  -25.3261  -12.1699    1.8087 C   0  0  0  0  0  0  0  0  0  0  0  0
  -24.6210  -11.7834    2.9819 O   0  0  0  0  0  0  0  0  0  0  0  0
  1 11  1  0  0  0  0
  3 13  1  1  0  0  0
  3 17  2  0  0  0  0
  3 20  1  0  0  0  0
  3 26  1  0  0  0  0
  4 14  1  6  0  0  0
  4 18  1  0  0  0  0
  4 21  2  0  0  0  0
  4 20  1  0  0  0  0
  5 19  1  0  0  0  0
  5  7  1  0  0  0  0
  6  7  2  0  0  0  0
  6 12  1  0  0  0  0
  7  8  1  0  0  0  0
  8  9  1  0  0  0  0
  8 10  2  0  0  0  0
 10 11  1  0  0  0  0
 11 12  2  0  0  0  0
 15 23  1  0  0  0  0
 15 16  1  0  0  0  0
 16 19  1  0  0  0  0
 19 22  1  0  0  0  0
 22  2  1  6  0  0  0
 22 23  1  0  0  0  0
 23 24  1  1  0  0  0
 24 25  1  0  0  0  0
 25 26  1  0  0  0  0
M  CHG  2  13  -1  18  -1
M  END
>  <CHROM.1>
117.43709853,-93.68986278,-56.20431509,56.85339998,-31.93319399,-176.96585193
-165.72308513,80.74300988,-24.64589264,-12.64597715,0.06560639,-1.63118913
0.17870608,1.20315875

>  <Name>
ligand

>  <RI>
0

>  <Rbt.Current_Directory>
/home/itssahil/PROJECTS/Mol_Feturizer/New_Systems/rnas/2GDI

>  <Rbt.Executable>
rbdock ($Id: //depot/dev/client3/rdock/2013.1/src/exe/rbdock.cxx#4 $)

>  <Rbt.Library>
libRbt.so (2013.1, Build901 2013/11/27)

>  <Rbt.Parameter_File>
/export/apps/rDock/src/rDock_2013.1_src/data/scripts/dock_solv.prm

>  <Rbt.Receptor>
prm/pocket_docking_8.prm

>  <SCORE>
-10.0363

>  <SCORE.INTER>
-11.9192

>  <SCORE.INTER.CONST>
1

>  <SCORE.INTER.POLAR>
0

>  <SCORE.INTER.ROT>
8

>  <SCORE.INTER.SOLV>
18.2918

>  <SCORE.INTER.VDW>
-22.9768

>  <SCORE.INTER.norm>
-0.458433

>  <SCORE.INTRA>
1.88295

>  <SCORE.INTRA.DIHEDRAL>
0.687048

>  <SCORE.INTRA.DIHEDRAL.0>
8.13976

>  <SCORE.INTRA.POLAR>
0

>  <SCORE.INTRA.POLAR.0>
0

>  <SCORE.INTRA.REPUL>
0

>  <SCORE.INTRA.REPUL.0>
0

>  <SCORE.INTRA.SOLV>
-0.513802

>  <SCORE.INTRA.SOLV.lig_0>
-82.9561

>  <SCORE.INTRA.VDW>
1.79633

>  <SCORE.INTRA.VDW.0>
-3.29171

>  <SCORE.INTRA.norm>
0.0724212

>  <SCORE.RESTR>
0

>  <SCORE.RESTR.CAVITY>
0

>  <SCORE.RESTR.norm>
0

>  <SCORE.SYSTEM>
0

>  <SCORE.SYSTEM.CONST>
0

>  <SCORE.SYSTEM.DIHEDRAL>
0

>  <SCORE.SYSTEM.SOLV>
0

>  <SCORE.SYSTEM.norm>
0

>  <SCORE.heavy>
26

>  <SCORE.norm>
-0.386011

>  <RMSD>
9.574

$$$$
ligand
 OpenBabel11021811433D
libRbt.so/2013.1/901 2013/11/27
 26 27  0  0  0  0  0  0  0  0999 V2000
  -27.2057  -14.4086   -4.5849 C   0  0  0  0  0  0  0  0  0  0  0  0
  -22.9895  -12.4363    2.1590 C   0  0  0  0  0  0  0  0  0  0  0  0
  -23.7460  -11.6055    6.4720 P   0  0  1  0  0  0  0  0  0  0  0  0
  -22.7712  -13.0108    8.8243 P   0  0  1  0  0  0  0  0  0  0  0  0
  -25.3208  -12.1221    0.3398 C   0  0  0  0  0  0  0  0  0  0  0  0
  -27.0845  -13.2895   -1.0447 C   0  0  0  0  0  0  0  0  0  0  0  0
  -25.8135  -12.7353   -0.9601 C   0  0  0  0  0  0  0  0  0  0  0  0
  -25.0094  -12.7407   -2.0880 C   0  0  0  0  0  0  0  0  0  0  0  0
  -23.7618  -12.2127   -2.0536 N   0  0  0  0  0  0  0  0  0  0  0  0
  -25.4737  -13.2790   -3.2365 N   0  0  0  0  0  0  0  0  0  0  0  0
  -26.7131  -13.8136   -3.2936 C   0  0  0  0  0  0  0  0  0  0  0  0
  -27.5132  -13.8180   -2.1994 N   0  0  0  0  0  0  0  0  0  0  0  0
  -24.9893  -11.1830    7.2096 O   0  5  0  0  0  0  0  0  0  0  0  0
  -21.4146  -13.1566    9.4423 O   0  0  0  0  0  0  0  0  0  0  0  0
  -26.0253  -15.0005    2.9866 S   0  0  0  0  0  0  0  0  0  0  0  0
  -26.3649  -13.9526    1.6451 C   0  0  0  0  0  0  0  0  0  0  0  0
  -23.2061  -10.6634    5.4347 O   0  0  0  0  0  0  0  0  0  0  0  0
  -23.6749  -12.3020    9.7771 O   0  5  0  0  0  0  0  0  0  0  0  0
  -25.3153  -13.1166    1.4127 N   0  0  0  0  0  0  0  0  0  0  0  0
  -22.6174  -11.9993    7.5665 O   0  0  0  0  0  0  0  0  0  0  0  0
  -23.3809  -14.2686    8.2680 O   0  0  0  0  0  0  0  0  0  0  0  0
  -24.2473  -13.2592    2.2449 C   0  0  1  0  0  0  0  0  0  0  0  0
  -24.4588  -14.3402    3.2454 C   0  0  1  0  0  0  0  0  0  0  0  0
  -23.6411  -14.9122    4.3729 C   0  0  0  0  0  0  0  0  0  0  0  0
  -23.0150  -13.7659    5.1516 C   0  0  0  0  0  0  0  0  0  0  0  0
  -24.0634  -12.9894    5.7181 O   0  0  0  0  0  0  0  0  0  0  0  0
  1 11  1  0  0  0  0
  3 13  1  1  0  0  0
  3 17  2  0  0  0  0
  3 20  1  0  0  0  0
  3 26  1  0  0  0  0
  4 14  1  1  0  0  0
  4 18  1  0  0  0  0
  4 21  2  0  0  0  0
  4 20  1  0  0  0  0
  5 19  1  0  0  0  0
  5  7  1  0  0  0  0
  6  7  2  0  0  0  0
  6 12  1  0  0  0  0
  7  8  1  0  0  0  0
  8  9  1  0  0  0  0
  8 10  2  0  0  0  0
 10 11  1  0  0  0  0
 11 12  2  0  0  0  0
 15 23  1  0  0  0  0
 15 16  1  0  0  0  0
 16 19  1  0  0  0  0
 19 22  1  0  0  0  0
 22  2  1  6  0  0  0
 22 23  1  0  0  0  0
 23 24  1  1  0  0  0
 24 25  1  0  0  0  0
 25 26  1  0  0  0  0
M  CHG  2  13  -1  18  -1
M  END
>  <CHROM.1>
51.04775608,-46.40380866,59.87570340,173.86749354,-134.94825399,62.93058174
-173.24000405,-167.79769780,-24.48437345,-13.07605282,3.43792002,2.09091171
-0.96315599,-1.21385205

>  <Name>
ligand

>  <RI>
0

>  <Rbt.Current_Directory>
/home/itssahil/PROJECTS/Mol_Feturizer/New_Systems/rnas/2GDI

>  <Rbt.Executable>
rbdock ($Id: //depot/dev/client3/rdock/2013.1/src/exe/rbdock.cxx#4 $)

>  <Rbt.Library>
libRbt.so (2013.1, Build901 2013/11/27)

>  <Rbt.Parameter_File>
/export/apps/rDock/src/rDock_2013.1_src/data/scripts/dock_solv.prm

>  <Rbt.Receptor>
prm/blind_docking_100.prm

>  <SCORE>
-8.60385

>  <SCORE.INTER>
-8.72488

>  <SCORE.INTER.CONST>
1

>  <SCORE.INTER.POLAR>
0

>  <SCORE.INTER.ROT>
8

>  <SCORE.INTER.SOLV>
12.4807

>  <SCORE.INTER.VDW>
-18.9102

>  <SCORE.INTER.norm>
-0.335572

>  <SCORE.INTRA>
0.0900368

>  <SCORE.INTRA.DIHEDRAL>
-2.87609

>  <SCORE.INTRA.DIHEDRAL.0>
8.13976

>  <SCORE.INTRA.POLAR>
0

>  <SCORE.INTRA.POLAR.0>
0

>  <SCORE.INTRA.REPUL>
0

>  <SCORE.INTRA.REPUL.0>
0

>  <SCORE.INTRA.SOLV>
3.46013

>  <SCORE.INTRA.SOLV.lig_0>
-82.9561

>  <SCORE.INTRA.VDW>
-0.201985

>  <SCORE.INTRA.VDW.0>
-3.29171

>  <SCORE.INTRA.norm>
0.00346295

>  <SCORE.RESTR>
0.0309932

>  <SCORE.RESTR.CAVITY>
0.0309932

>  <SCORE.RESTR.norm>
0.00119205

>  <SCORE.SYSTEM>
0

>  <SCORE.SYSTEM.CONST>
0

>  <SCORE.SYSTEM.DIHEDRAL>
0

>  <SCORE.SYSTEM.SOLV>
0

>  <SCORE.SYSTEM.norm>
0

>  <SCORE.heavy>
26

>  <SCORE.norm>
-0.330917

>  <RMSD>
9.582

$$$$
ligand
 OpenBabel11021811433D
libRbt.so/2013.1/901 2013/11/27
 26 27  0  0  0  0  0  0  0  0999 V2000
  -23.7301  -13.1959   -2.8566 C   0  0  0  0  0  0  0  0  0  0  0  0
  -24.2416  -10.2764    3.1906 C   0  0  0  0  0  0  0  0  0  0  0  0
  -24.8806  -10.7802    8.6778 P   0  0  1  0  0  0  0  0  0  0  0  0
  -25.1608  -13.3386   10.0324 P   0  0  1  0  0  0  0  0  0  0  0  0
  -26.2726  -12.2109    2.2029 C   0  0  0  0  0  0  0  0  0  0  0  0
  -25.0320  -11.4324    0.1426 C   0  0  0  0  0  0  0  0  0  0  0  0
  -25.6100  -12.4716    0.8608 C   0  0  0  0  0  0  0  0  0  0  0  0
  -25.5582  -13.7523    0.3354 C   0  0  0  0  0  0  0  0  0  0  0  0
  -26.1091  -14.7976    0.9989 N   0  0  0  0  0  0  0  0  0  0  0  0
  -24.9517  -13.9624   -0.8531 N   0  0  0  0  0  0  0  0  0  0  0  0
  -24.3982  -12.9351   -1.5338 C   0  0  0  0  0  0  0  0  0  0  0  0
  -24.4404  -11.6753   -1.0353 N   0  0  0  0  0  0  0  0  0  0  0  0
  -25.8449   -9.8442    7.9977 O   0  5  0  0  0  0  0  0  0  0  0  0
  -24.7222  -14.2399    8.9193 O   0  0  0  0  0  0  0  0  0  0  0  0
  -24.1909  -13.8115    5.1849 S   0  0  0  0  0  0  0  0  0  0  0  0
  -25.3952  -13.7506    3.9362 C   0  0  0  0  0  0  0  0  0  0  0  0
  -23.9063  -10.1795    9.6498 O   0  0  0  0  0  0  0  0  0  0  0  0
  -23.9669  -12.9007   10.8135 O   0  5  0  0  0  0  0  0  0  0  0  0
  -25.3669  -12.5458    3.3019 N   0  0  0  0  0  0  0  0  0  0  0  0
  -25.7329  -11.9825    9.3523 O   0  0  0  0  0  0  0  0  0  0  0  0
  -26.2697  -13.8601   10.9050 O   0  0  0  0  0  0  0  0  0  0  0  0
  -24.4376  -11.6590    3.7531 C   0  0  1  0  0  0  0  0  0  0  0  0
  -23.6202  -12.2218    4.8620 C   0  0  1  0  0  0  0  0  0  0  0  0
  -22.4903  -11.7032    5.7112 C   0  0  0  0  0  0  0  0  0  0  0  0
  -23.0627  -10.7737    6.7698 C   0  0  0  0  0  0  0  0  0  0  0  0
  -24.0085  -11.5063    7.5391 O   0  0  0  0  0  0  0  0  0  0  0  0
  1 11  1  0  0  0  0
  3 13  1  6  0  0  0
  3 17  2  0  0  0  0
  3 20  1  0  0  0  0
  3 26  1  0  0  0  0
  4 14  1  6  0  0  0
  4 18  1  0  0  0  0
  4 21  2  0  0  0  0
  4 20  1  0  0  0  0
  5 19  1  0  0  0  0
  5  7  1  0  0  0  0
  6  7  2  0  0  0  0
  6 12  1  0  0  0  0
  7  8  1  0  0  0  0
  8  9  1  0  0  0  0
  8 10  2  0  0  0  0
 10 11  1  0  0  0  0
 11 12  2  0  0  0  0
 15 23  1  0  0  0  0
 15 16  1  0  0  0  0
 16 19  1  0  0  0  0
 19 22  1  0  0  0  0
 22  2  1  6  0  0  0
 22 23  1  0  0  0  0
 23 24  1  1  0  0  0
 24 25  1  0  0  0  0
 25 26  1  0  0  0  0
M  CHG  2  13  -1  18  -1
M  END
>  <CHROM.1>
171.43797183,-95.65007621,-98.67805609,-74.95932934,-101.07629533,58.40939136
-175.38544414,68.76835625,-24.74252440,-12.39237515,5.21627053,-1.56384195
1.26223841,1.49619487

>  <Name>
ligand

>  <RI>
0

>  <Rbt.Current_Directory>
/home/itssahil/PROJECTS/Mol_Feturizer/New_Systems/rnas/2GDI

>  <Rbt.Executable>
rbdock ($Id: //depot/dev/client3/rdock/2013.1/src/exe/rbdock.cxx#4 $)

>  <Rbt.Library>
libRbt.so (2013.1, Build901 2013/11/27)

>  <Rbt.Parameter_File>
/export/apps/rDock/src/rDock_2013.1_src/data/scripts/dock_solv.prm

>  <Rbt.Receptor>
prm/blind_docking_100.prm

>  <SCORE>
-6.41809

>  <SCORE.INTER>
-4.8477

>  <SCORE.INTER.CONST>
1

>  <SCORE.INTER.POLAR>
0

>  <SCORE.INTER.ROT>
8

>  <SCORE.INTER.SOLV>
19.718

>  <SCORE.INTER.VDW>
-18.7378

>  <SCORE.INTER.norm>
-0.18645

>  <SCORE.INTRA>
-2.23228

>  <SCORE.INTRA.DIHEDRAL>
-2.83704

>  <SCORE.INTRA.DIHEDRAL.0>
8.13976

>  <SCORE.INTRA.POLAR>
0

>  <SCORE.INTRA.POLAR.0>
0

>  <SCORE.INTRA.REPUL>
0

>  <SCORE.INTRA.REPUL.0>
0

>  <SCORE.INTRA.SOLV>
1.13175

>  <SCORE.INTRA.SOLV.lig_0>
-82.9561

>  <SCORE.INTRA.VDW>
-1.37963

>  <SCORE.INTRA.VDW.0>
-3.29171

>  <SCORE.INTRA.norm>
-0.0858569

>  <SCORE.RESTR>
0.661887

>  <SCORE.RESTR.CAVITY>
0.661887

>  <SCORE.RESTR.norm>
0.0254572

>  <SCORE.SYSTEM>
0

>  <SCORE.SYSTEM.CONST>
0

>  <SCORE.SYSTEM.DIHEDRAL>
0

>  <SCORE.SYSTEM.SOLV>
0

>  <SCORE.SYSTEM.norm>
0

>  <SCORE.heavy>
26

>  <SCORE.norm>
-0.24685

>  <RMSD>
9.621

$$$$
ligand
 OpenBabel11021811433D
libRbt.so/2013.1/901 2013/11/27
 26 27  0  0  0  0  0  0  0  0999 V2000
  -23.5827  -14.4036   10.0049 C   0  0  0  0  0  0  0  0  0  0  0  0
  -24.3339  -19.0093    3.0954 C   0  0  0  0  0  0  0  0  0  0  0  0
  -19.6436  -17.9263   -0.8238 P   0  0  1  0  0  0  0  0  0  0  0  0
  -18.5227  -19.5429   -2.9661 P   0  0  1  0  0  0  0  0  0  0  0  0
  -24.3557  -16.5158    4.7158 C   0  0  0  0  0  0  0  0  0  0  0  0
  -23.7150  -16.7739    7.1475 C   0  0  0  0  0  0  0  0  0  0  0  0
  -24.1618  -15.9581    6.1157 C   0  0  0  0  0  0  0  0  0  0  0  0
  -24.4140  -14.6229    6.3853 C   0  0  0  0  0  0  0  0  0  0  0  0
  -24.8523  -13.7888    5.4114 N   0  0  0  0  0  0  0  0  0  0  0  0
  -24.2212  -14.1460    7.6343 N   0  0  0  0  0  0  0  0  0  0  0  0
  -23.7876  -14.9596    8.6217 C   0  0  0  0  0  0  0  0  0  0  0  0
  -23.5369  -16.2689    8.3762 N   0  0  0  0  0  0  0  0  0  0  0  0
  -18.4628  -17.0055   -0.6618 O   0  5  0  0  0  0  0  0  0  0  0  0
  -17.2409  -18.7729   -3.0532 O   0  0  0  0  0  0  0  0  0  0  0  0
  -20.6318  -17.4585    3.7004 S   0  0  0  0  0  0  0  0  0  0  0  0
  -21.8919  -16.5237    4.4429 C   0  0  0  0  0  0  0  0  0  0  0  0
  -20.8406  -17.3904   -1.5552 O   0  0  0  0  0  0  0  0  0  0  0  0
  -18.2278  -21.0039   -3.0403 O   0  5  0  0  0  0  0  0  0  0  0  0
  -23.1088  -17.0886    4.2086 N   0  0  0  0  0  0  0  0  0  0  0  0
  -19.1176  -19.3141   -1.4753 O   0  0  0  0  0  0  0  0  0  0  0  0
  -19.6123  -19.1188   -3.9128 O   0  0  0  0  0  0  0  0  0  0  0  0
  -23.1004  -18.2302    3.4669 C   0  0  1  0  0  0  0  0  0  0  0  0
  -21.7220  -18.6329    3.0765 C   0  0  1  0  0  0  0  0  0  0  0  0
  -21.1380  -19.7699    2.2807 C   0  0  0  0  0  0  0  0  0  0  0  0
  -21.1156  -19.3762    0.8121 C   0  0  0  0  0  0  0  0  0  0  0  0
  -20.1490  -18.3466    0.6432 O   0  0  0  0  0  0  0  0  0  0  0  0
  1 11  1  0  0  0  0
  3 13  1  1  0  0  0
  3 17  2  0  0  0  0
  3 20  1  0  0  0  0
  3 26  1  0  0  0  0
  4 14  1  6  0  0  0
  4 18  1  0  0  0  0
  4 21  2  0  0  0  0
  4 20  1  0  0  0  0
  5 19  1  0  0  0  0
  5  7  1  0  0  0  0
  6  7  2  0  0  0  0
  6 12  1  0  0  0  0
  7  8  1  0  0  0  0
  8  9  1  0  0  0  0
  8 10  2  0  0  0  0
 10 11  1  0  0  0  0
 11 12  2  0  0  0  0
 15 23  1  0  0  0  0
 15 16  1  0  0  0  0
 16 19  1  0  0  0  0
 19 22  1  0  0  0  0
 22  2  1  1  0  0  0
 22 23  1  0  0  0  0
 23 24  1  6  0  0  0
 24 25  1  0  0  0  0
 25 26  1  0  0  0  0
M  CHG  2  13  -1  18  -1
M  END
>  <CHROM.1>
-67.12634347,-38.52062757,-57.92014176,65.11632948,-91.11077185,69.14655891
166.55839082,-169.95582170,-21.35692457,-17.56514938,2.22196399,-2.30513245
-0.84825303,-2.53359199

>  <Name>
ligand

>  <RI>
0

>  <Rbt.Current_Directory>
/home/itssahil/PROJECTS/Mol_Feturizer/New_Systems/rnas/2GDI

>  <Rbt.Executable>
rbdock ($Id: //depot/dev/client3/rdock/2013.1/src/exe/rbdock.cxx#4 $)

>  <Rbt.Library>
libRbt.so (2013.1, Build901 2013/11/27)

>  <Rbt.Parameter_File>
/export/apps/rDock/src/rDock_2013.1_src/data/scripts/dock_solv.prm

>  <Rbt.Receptor>
prm/pocket_docking_8.prm

>  <SCORE>
-11.8179

>  <SCORE.INTER>
-10.5098

>  <SCORE.INTER.CONST>
1

>  <SCORE.INTER.POLAR>
0

>  <SCORE.INTER.ROT>
8

>  <SCORE.INTER.SOLV>
14.3206

>  <SCORE.INTER.VDW>
-20.7134

>  <SCORE.INTER.norm>
-0.404222

>  <SCORE.INTRA>
-1.31567

>  <SCORE.INTRA.DIHEDRAL>
-2.08187

>  <SCORE.INTRA.DIHEDRAL.0>
8.13976

>  <SCORE.INTRA.POLAR>
0

>  <SCORE.INTRA.POLAR.0>
0

>  <SCORE.INTRA.REPUL>
0

>  <SCORE.INTRA.REPUL.0>
0

>  <SCORE.INTRA.SOLV>
-0.0254832

>  <SCORE.INTRA.SOLV.lig_0>
-82.9561

>  <SCORE.INTRA.VDW>
-0.261993

>  <SCORE.INTRA.VDW.0>
-3.29171

>  <SCORE.INTRA.norm>
-0.0506026

>  <SCORE.RESTR>
0.00749075

>  <SCORE.RESTR.CAVITY>
0.00749075

>  <SCORE.RESTR.norm>
0.000288106

>  <SCORE.SYSTEM>
0

>  <SCORE.SYSTEM.CONST>
0

>  <SCORE.SYSTEM.DIHEDRAL>
0

>  <SCORE.SYSTEM.SOLV>
0

>  <SCORE.SYSTEM.norm>
0

>  <SCORE.heavy>
26

>  <SCORE.norm>
-0.454536

>  <RMSD>
9.642

$$$$
ligand
 OpenBabel11021811433D
libRbt.so/2013.1/901 2013/11/27
 26 27  0  0  0  0  0  0  0  0999 V2000
  -21.9565  -20.8591   -4.6971 C   0  0  0  0  0  0  0  0  0  0  0  0
  -24.5708  -18.8842    3.2327 C   0  0  0  0  0  0  0  0  0  0  0  0
  -22.6246  -14.7746    3.7766 P   0  0  1  0  0  0  0  0  0  0  0  0
  -21.5643  -12.3268    2.6179 P   0  0  1  0  0  0  0  0  0  0  0  0
  -24.0058  -20.2142    0.6337 C   0  0  0  0  0  0  0  0  0  0  0  0
  -23.5373  -21.6109   -1.4206 C   0  0  0  0  0  0  0  0  0  0  0  0
  -23.4543  -20.3854   -0.7716 C   0  0  0  0  0  0  0  0  0  0  0  0
  -22.8708  -19.3192   -1.4363 C   0  0  0  0  0  0  0  0  0  0  0  0
  -22.7662  -18.1051   -0.8436 N   0  0  0  0  0  0  0  0  0  0  0  0
  -22.3998  -19.4914   -2.6905 N   0  0  0  0  0  0  0  0  0  0  0  0
  -22.4906  -20.6935   -3.3002 C   0  0  0  0  0  0  0  0  0  0  0  0
  -23.0574  -21.7480   -2.6645 N   0  0  0  0  0  0  0  0  0  0  0  0
  -22.8890  -14.1423    5.1178 O   0  5  0  0  0  0  0  0  0  0  0  0
  -21.6507  -11.5494    3.8953 O   0  0  0  0  0  0  0  0  0  0  0  0
  -20.6266  -19.6412    2.6437 S   0  0  0  0  0  0  0  0  0  0  0  0
  -21.6254  -20.1638    1.3237 C   0  0  0  0  0  0  0  0  0  0  0  0
  -23.8095  -15.0351    2.8917 O   0  0  0  0  0  0  0  0  0  0  0  0
  -20.2589  -12.0419    1.9531 O   0  5  0  0  0  0  0  0  0  0  0  0
  -22.9348  -19.8853    1.5744 N   0  0  0  0  0  0  0  0  0  0  0  0
  -21.4935  -13.8966    3.0173 O   0  0  0  0  0  0  0  0  0  0  0  0
  -22.7361  -12.1928    1.6840 O   0  0  0  0  0  0  0  0  0  0  0  0
  -23.1950  -19.2765    2.7640 C   0  0  1  0  0  0  0  0  0  0  0  0
  -21.9544  -19.0255    3.5465 C   0  0  1  0  0  0  0  0  0  0  0  0
  -21.6563  -18.4055    4.8858 C   0  0  0  0  0  0  0  0  0  0  0  0
  -22.4272  -17.0999    5.0011 C   0  0  0  0  0  0  0  0  0  0  0  0
  -21.9162  -16.1953    4.0297 O   0  0  0  0  0  0  0  0  0  0  0  0
  1 11  1  0  0  0  0
  3 13  1  1  0  0  0
  3 17  2  0  0  0  0
  3 20  1  0  0  0  0
  3 26  1  0  0  0  0
  4 14  1  1  0  0  0
  4 18  1  0  0  0  0
  4 21  2  0  0  0  0
  4 20  1  0  0  0  0
  5 19  1  0  0  0  0
  5  7  1  0  0  0  0
  6  7  2  0  0  0  0
  6 12  1  0  0  0  0
  7  8  1  0  0  0  0
  8  9  1  0  0  0  0
  8 10  2  0  0  0  0
 10 11  1  0  0  0  0
 11 12  2  0  0  0  0
 15 23  1  0  0  0  0
 15 16  1  0  0  0  0
 16 19  1  0  0  0  0
 19 22  1  0  0  0  0
 22  2  1  6  0  0  0
 22 23  1  0  0  0  0
 23 24  1  1  0  0  0
 24 25  1  0  0  0  0
 25 26  1  0  0  0  0
M  CHG  2  13  -1  18  -1
M  END
>  <CHROM.1>
-59.25390907,-21.31432116,116.72830579,63.47014874,134.67094752,-65.40680511
173.16905034,46.60325782,-22.35149105,-17.13300957,1.70585323,-2.45654575
1.46252945,1.47399826

>  <Name>
ligand

>  <RI>
0

>  <Rbt.Current_Directory>
/home/itssahil/PROJECTS/Mol_Feturizer/New_Systems/rnas/2GDI

>  <Rbt.Executable>
rbdock ($Id: //depot/dev/client3/rdock/2013.1/src/exe/rbdock.cxx#4 $)

>  <Rbt.Library>
libRbt.so (2013.1, Build901 2013/11/27)

>  <Rbt.Parameter_File>
/export/apps/rDock/src/rDock_2013.1_src/data/scripts/dock_solv.prm

>  <Rbt.Receptor>
prm/pocket_docking_8.prm

>  <SCORE>
-16.985

>  <SCORE.INTER>
-16.9385

>  <SCORE.INTER.CONST>
1

>  <SCORE.INTER.POLAR>
0

>  <SCORE.INTER.ROT>
8

>  <SCORE.INTER.SOLV>
14.7813

>  <SCORE.INTER.VDW>
-25.1528

>  <SCORE.INTER.norm>
-0.651482

>  <SCORE.INTRA>
-0.0465087

>  <SCORE.INTRA.DIHEDRAL>
-2.63411

>  <SCORE.INTRA.DIHEDRAL.0>
8.13976

>  <SCORE.INTRA.POLAR>
0

>  <SCORE.INTRA.POLAR.0>
0

>  <SCORE.INTRA.REPUL>
0

>  <SCORE.INTRA.REPUL.0>
0

>  <SCORE.INTRA.SOLV>
2.67864

>  <SCORE.INTRA.SOLV.lig_0>
-82.9561

>  <SCORE.INTRA.VDW>
-0.0687727

>  <SCORE.INTRA.VDW.0>
-3.29171

>  <SCORE.INTRA.norm>
-0.0017888

>  <SCORE.RESTR>
0

>  <SCORE.RESTR.CAVITY>
0

>  <SCORE.RESTR.norm>
0

>  <SCORE.SYSTEM>
0

>  <SCORE.SYSTEM.CONST>
0

>  <SCORE.SYSTEM.DIHEDRAL>
0

>  <SCORE.SYSTEM.SOLV>
0

>  <SCORE.SYSTEM.norm>
0

>  <SCORE.heavy>
26

>  <SCORE.norm>
-0.65327

>  <RMSD>
9.697

$$$$
ligand
 OpenBabel11021811433D
libRbt.so/2013.1/901 2013/11/27
 26 27  0  0  0  0  0  0  0  0999 V2000
  -23.9041  -19.6237    1.4828 C   0  0  0  0  0  0  0  0  0  0  0  0
  -22.9459  -14.5161    4.4234 C   0  0  0  0  0  0  0  0  0  0  0  0
  -19.1359  -11.0766    0.3213 P   0  0  1  0  0  0  0  0  0  0  0  0
  -16.5631  -10.7105    1.6273 P   0  0  1  0  0  0  0  0  0  0  0  0
  -25.8578  -14.7795    3.8807 C   0  0  0  0  0  0  0  0  0  0  0  0
  -25.0881  -17.1833    4.0210 C   0  0  0  0  0  0  0  0  0  0  0  0
  -25.3316  -16.0560    3.2466 C   0  0  0  0  0  0  0  0  0  0  0  0
  -25.0981  -16.1230    1.8828 C   0  0  0  0  0  0  0  0  0  0  0  0
  -25.3198  -15.0489    1.0869 N   0  0  0  0  0  0  0  0  0  0  0  0
  -24.6433  -17.2728    1.3390 N   0  0  0  0  0  0  0  0  0  0  0  0
  -24.4123  -18.3555    2.1133 C   0  0  0  0  0  0  0  0  0  0  0  0
  -24.6343  -18.3076    3.4496 N   0  0  0  0  0  0  0  0  0  0  0  0
  -19.9583  -10.2517   -0.6335 O   0  5  0  0  0  0  0  0  0  0  0  0
  -16.1415  -12.0578    1.1268 O   0  0  0  0  0  0  0  0  0  0  0  0
  -24.4765  -11.3895    2.3357 S   0  0  0  0  0  0  0  0  0  0  0  0
  -25.6622  -12.5971    2.7215 C   0  0  0  0  0  0  0  0  0  0  0  0
  -18.7935  -12.4776   -0.0966 O   0  0  0  0  0  0  0  0  0  0  0  0
  -15.4811   -9.7201    1.3522 O   0  5  0  0  0  0  0  0  0  0  0  0
  -25.0949  -13.6193    3.4202 N   0  0  0  0  0  0  0  0  0  0  0  0
  -17.8106  -10.2286    0.7106 O   0  0  0  0  0  0  0  0  0  0  0  0
  -17.0536  -10.6589    3.0486 O   0  0  0  0  0  0  0  0  0  0  0  0
  -23.7618  -13.5001    3.6694 C   0  0  1  0  0  0  0  0  0  0  0  0
  -23.2021  -12.2343    3.1227 C   0  0  1  0  0  0  0  0  0  0  0  0
  -21.8347  -11.6042    3.1032 C   0  0  0  0  0  0  0  0  0  0  0  0
  -21.1769  -11.9080    1.7663 C   0  0  0  0  0  0  0  0  0  0  0  0
  -19.9492  -11.1925    1.7031 O   0  0  0  0  0  0  0  0  0  0  0  0
  1 11  1  0  0  0  0
  3 13  1  6  0  0  0
  3 17  2  0  0  0  0
  3 20  1  0  0  0  0
  3 26  1  0  0  0  0
  4 14  1  6  0  0  0
  4 18  1  0  0  0  0
  4 21  2  0  0  0  0
  4 20  1  0  0  0  0
  5 19  1  0  0  0  0
  5  7  1  0  0  0  0
  6  7  2  0  0  0  0
  6 12  1  0  0  0  0
  7  8  1  0  0  0  0
  8  9  1  0  0  0  0
  8 10  2  0  0  0  0
 10 11  1  0  0  0  0
 11 12  2  0  0  0  0
 15 23  1  0  0  0  0
 15 16  1  0  0  0  0
 16 19  1  0  0  0  0
 19 22  1  0  0  0  0
 22  2  1  1  0  0  0
 22 23  1  0  0  0  0
 23 24  1  6  0  0  0
 24 25  1  0  0  0  0
 25 26  1  0  0  0  0
M  CHG  2  13  -1  18  -1
M  END
>  <CHROM.1>
-175.68161158,117.99212430,132.83762795,48.65123511,-80.98863081,173.93130627
-168.67486628,66.56600268,-21.59604329,-13.12441898,2.01289625,-2.53239585
0.24809486,0.05492884

>  <Name>
ligand

>  <RI>
0

>  <Rbt.Current_Directory>
/home/itssahil/PROJECTS/Mol_Feturizer/New_Systems/rnas/2GDI

>  <Rbt.Executable>
rbdock ($Id: //depot/dev/client3/rdock/2013.1/src/exe/rbdock.cxx#4 $)

>  <Rbt.Library>
libRbt.so (2013.1, Build901 2013/11/27)

>  <Rbt.Parameter_File>
/export/apps/rDock/src/rDock_2013.1_src/data/scripts/dock_solv.prm

>  <Rbt.Receptor>
prm/pocket_docking_6.prm

>  <SCORE>
-9.38743

>  <SCORE.INTER>
-9.43864

>  <SCORE.INTER.CONST>
1

>  <SCORE.INTER.POLAR>
0

>  <SCORE.INTER.ROT>
8

>  <SCORE.INTER.SOLV>
23.7553

>  <SCORE.INTER.VDW>
-23.1442

>  <SCORE.INTER.norm>
-0.363025

>  <SCORE.INTRA>
0.0512116

>  <SCORE.INTRA.DIHEDRAL>
-1.96123

>  <SCORE.INTRA.DIHEDRAL.0>
8.13976

>  <SCORE.INTRA.POLAR>
0

>  <SCORE.INTRA.POLAR.0>
0

>  <SCORE.INTRA.REPUL>
0

>  <SCORE.INTRA.REPUL.0>
0

>  <SCORE.INTRA.SOLV>
2.56223

>  <SCORE.INTRA.SOLV.lig_0>
-82.9561

>  <SCORE.INTRA.VDW>
-0.249286

>  <SCORE.INTRA.VDW.0>
-3.29171

>  <SCORE.INTRA.norm>
0.00196968

>  <SCORE.RESTR>
0

>  <SCORE.RESTR.CAVITY>
0

>  <SCORE.RESTR.norm>
0

>  <SCORE.SYSTEM>
0

>  <SCORE.SYSTEM.CONST>
0

>  <SCORE.SYSTEM.DIHEDRAL>
0

>  <SCORE.SYSTEM.SOLV>
0

>  <SCORE.SYSTEM.norm>
0

>  <SCORE.heavy>
26

>  <SCORE.norm>
-0.361055

>  <RMSD>
9.703

$$$$
ligand
 OpenBabel11021811433D
libRbt.so/2013.1/901 2013/11/27
 26 27  0  0  0  0  0  0  0  0999 V2000
  -24.0306  -19.3897   -2.9059 C   0  0  0  0  0  0  0  0  0  0  0  0
  -22.6444  -17.8110    4.7631 C   0  0  0  0  0  0  0  0  0  0  0  0
  -23.1581  -12.5415    2.7432 P   0  0  1  0  0  0  0  0  0  0  0  0
  -20.8954  -13.0583    0.9905 P   0  0  1  0  0  0  0  0  0  0  0  0
  -24.2331  -19.4273    2.8378 C   0  0  0  0  0  0  0  0  0  0  0  0
  -23.8624  -18.2570    0.6280 C   0  0  0  0  0  0  0  0  0  0  0  0
  -24.1901  -19.4167    1.3191 C   0  0  0  0  0  0  0  0  0  0  0  0
  -24.4636  -20.5665    0.5967 C   0  0  0  0  0  0  0  0  0  0  0  0
  -24.7890  -21.7213    1.2267 N   0  0  0  0  0  0  0  0  0  0  0  0
  -24.4057  -20.5369   -0.7525 N   0  0  0  0  0  0  0  0  0  0  0  0
  -24.0863  -19.3963   -1.4023 C   0  0  0  0  0  0  0  0  0  0  0  0
  -23.8167  -18.2616   -0.7115 N   0  0  0  0  0  0  0  0  0  0  0  0
  -22.6118  -11.4308    3.6013 O   0  5  0  0  0  0  0  0  0  0  0  0
  -19.8242  -14.1052    0.9819 O   0  0  0  0  0  0  0  0  0  0  0  0
  -26.1921  -16.1014    3.7796 S   0  0  0  0  0  0  0  0  0  0  0  0
  -25.9249  -17.6216    2.9855 C   0  0  0  0  0  0  0  0  0  0  0  0
  -24.0898  -12.1579    1.6298 O   0  0  0  0  0  0  0  0  0  0  0  0
  -21.7177  -13.1821   -0.2486 O   0  5  0  0  0  0  0  0  0  0  0  0
  -24.7235  -18.1484    3.3515 N   0  0  0  0  0  0  0  0  0  0  0  0
  -21.9104  -13.4226    2.2012 O   0  0  0  0  0  0  0  0  0  0  0  0
  -20.4375  -11.6486    1.2483 O   0  0  0  0  0  0  0  0  0  0  0  0
  -23.9950  -17.4094    4.2329 C   0  0  1  0  0  0  0  0  0  0  0  0
  -24.6979  -16.1590    4.6287 C   0  0  1  0  0  0  0  0  0  0  0  0
  -24.3722  -15.0064    5.5412 C   0  0  0  0  0  0  0  0  0  0  0  0
  -23.3555  -14.1105    4.8513 C   0  0  0  0  0  0  0  0  0  0  0  0
  -23.9686  -13.5509    3.6963 O   0  0  0  0  0  0  0  0  0  0  0  0
  1 11  1  0  0  0  0
  3 13  1  1  0  0  0
  3 17  2  0  0  0  0
  3 20  1  0  0  0  0
  3 26  1  0  0  0  0
  4 14  1  6  0  0  0
  4 18  1  0  0  0  0
  4 21  2  0  0  0  0
  4 20  1  0  0  0  0
  5 19  1  0  0  0  0
  5  7  1  0  0  0  0
  6  7  2  0  0  0  0
  6 12  1  0  0  0  0
  7  8  1  0  0  0  0
  8  9  1  0  0  0  0
  8 10  2  0  0  0  0
 10 11  1  0  0  0  0
 11 12  2  0  0  0  0
 15 23  1  0  0  0  0
 15 16  1  0  0  0  0
 16 19  1  0  0  0  0
 19 22  1  0  0  0  0
 22  2  1  1  0  0  0
 22 23  1  0  0  0  0
 23 24  1  6  0  0  0
 24 25  1  0  0  0  0
 25 26  1  0  0  0  0
M  CHG  2  13  -1  18  -1
M  END
>  <CHROM.1>
-77.91773557,56.23731303,35.28297915,173.50789139,-103.01439021,64.72377021
179.58062938,-53.49718887,-23.46327979,-15.85264671,2.05544743,-2.15105970
0.97196707,0.71839211

>  <Name>
ligand

>  <RI>
0

>  <Rbt.Current_Directory>
/home/itssahil/PROJECTS/Mol_Feturizer/New_Systems/rnas/2GDI

>  <Rbt.Executable>
rbdock ($Id: //depot/dev/client3/rdock/2013.1/src/exe/rbdock.cxx#4 $)

>  <Rbt.Library>
libRbt.so (2013.1, Build901 2013/11/27)

>  <Rbt.Parameter_File>
/export/apps/rDock/src/rDock_2013.1_src/data/scripts/dock_solv.prm

>  <Rbt.Receptor>
prm/pocket_docking_5.prm

>  <SCORE>
-7.30976

>  <SCORE.INTER>
-6.14885

>  <SCORE.INTER.CONST>
1

>  <SCORE.INTER.POLAR>
0

>  <SCORE.INTER.ROT>
8

>  <SCORE.INTER.SOLV>
22.6886

>  <SCORE.INTER.VDW>
-20.5954

>  <SCORE.INTER.norm>
-0.236494

>  <SCORE.INTRA>
-1.1609

>  <SCORE.INTRA.DIHEDRAL>
-3.02585

>  <SCORE.INTRA.DIHEDRAL.0>
8.13976

>  <SCORE.INTRA.POLAR>
0

>  <SCORE.INTRA.POLAR.0>
0

>  <SCORE.INTRA.REPUL>
0

>  <SCORE.INTRA.REPUL.0>
0

>  <SCORE.INTRA.SOLV>
1.50918

>  <SCORE.INTRA.SOLV.lig_0>
-82.9561

>  <SCORE.INTRA.VDW>
-0.402565

>  <SCORE.INTRA.VDW.0>
-3.29171

>  <SCORE.INTRA.norm>
-0.0446501

>  <SCORE.RESTR>
0

>  <SCORE.RESTR.CAVITY>
0

>  <SCORE.RESTR.norm>
0

>  <SCORE.SYSTEM>
0

>  <SCORE.SYSTEM.CONST>
0

>  <SCORE.SYSTEM.DIHEDRAL>
0

>  <SCORE.SYSTEM.SOLV>
0

>  <SCORE.SYSTEM.norm>
0

>  <SCORE.heavy>
26

>  <SCORE.norm>
-0.281144

>  <RMSD>
9.728

$$$$
ligand
 OpenBabel11021811433D
libRbt.so/2013.1/901 2013/11/27
 26 27  0  0  0  0  0  0  0  0999 V2000
  -26.1535  -12.7764   -0.3233 C   0  0  0  0  0  0  0  0  0  0  0  0
  -22.7081   -8.7932    6.5381 C   0  0  0  0  0  0  0  0  0  0  0  0
  -24.9579  -13.3354   10.4210 P   0  0  1  0  0  0  0  0  0  0  0  0
  -23.8181  -15.4012    8.7203 P   0  0  1  0  0  0  0  0  0  0  0  0
  -23.3980  -10.3308    4.0880 C   0  0  0  0  0  0  0  0  0  0  0  0
  -25.1865  -10.3319    2.3015 C   0  0  0  0  0  0  0  0  0  0  0  0
  -24.1319  -10.9833    2.9287 C   0  0  0  0  0  0  0  0  0  0  0  0
  -23.7540  -12.2336    2.4674 C   0  0  0  0  0  0  0  0  0  0  0  0
  -22.7320  -12.9080    3.0480 N   0  0  0  0  0  0  0  0  0  0  0  0
  -24.4120  -12.7882    1.4262 N   0  0  0  0  0  0  0  0  0  0  0  0
  -25.4358  -12.1356    0.8336 C   0  0  0  0  0  0  0  0  0  0  0  0
  -25.8198  -10.9120    1.2725 N   0  0  0  0  0  0  0  0  0  0  0  0
  -26.2225  -14.1520   10.3724 O   0  5  0  0  0  0  0  0  0  0  0  0
  -24.4111  -16.3019    9.7598 O   0  0  0  0  0  0  0  0  0  0  0  0
  -25.8361  -11.3262    7.0633 S   0  0  0  0  0  0  0  0  0  0  0  0
  -25.1857  -11.3708    5.4545 C   0  0  0  0  0  0  0  0  0  0  0  0
  -24.2628  -13.2193   11.7470 O   0  0  0  0  0  0  0  0  0  0  0  0
  -24.6617  -15.4435    7.4900 O   0  5  0  0  0  0  0  0  0  0  0  0
  -24.1417  -10.5044    5.3358 N   0  0  0  0  0  0  0  0  0  0  0  0
  -23.9581  -13.8816    9.2682 O   0  0  0  0  0  0  0  0  0  0  0  0
  -22.3552  -15.6009    8.4318 O   0  0  0  0  0  0  0  0  0  0  0  0
  -23.8248   -9.7996    6.4566 C   0  0  1  0  0  0  0  0  0  0  0  0
  -24.7027  -10.1520    7.6053 C   0  0  1  0  0  0  0  0  0  0  0  0
  -24.8026   -9.6990    9.0378 C   0  0  0  0  0  0  0  0  0  0  0  0
  -24.3200  -10.8241    9.9397 C   0  0  0  0  0  0  0  0  0  0  0  0
  -25.3162  -11.8392    9.9550 O   0  0  0  0  0  0  0  0  0  0  0  0
  1 11  1  0  0  0  0
  3 13  1  1  0  0  0
  3 17  2  0  0  0  0
  3 20  1  0  0  0  0
  3 26  1  0  0  0  0
  4 14  1  1  0  0  0
  4 18  1  0  0  0  0
  4 21  2  0  0  0  0
  4 20  1  0  0  0  0
  5 19  1  0  0  0  0
  5  7  1  0  0  0  0
  6  7  2  0  0  0  0
  6 12  1  0  0  0  0
  7  8  1  0  0  0  0
  8  9  1  0  0  0  0
  8 10  2  0  0  0  0
 10 11  1  0  0  0  0
 11 12  2  0  0  0  0
 15 23  1  0  0  0  0
 15 16  1  0  0  0  0
 16 19  1  0  0  0  0
 19 22  1  0  0  0  0
 22  2  1  1  0  0  0
 22 23  1  0  0  0  0
 23 24  1  6  0  0  0
 24 25  1  0  0  0  0
 25 26  1  0  0  0  0
M  CHG  2  13  -1  18  -1
M  END
>  <CHROM.1>
-32.26526444,12.68024108,80.99712398,-19.32015076,72.19039898,-73.33363359
160.94919697,178.05390193,-24.52681414,-12.43746099,6.69627533,-2.08879213
-1.51396202,1.33650798

>  <Name>
ligand

>  <RI>
0

>  <Rbt.Current_Directory>
/home/itssahil/PROJECTS/Mol_Feturizer/New_Systems/rnas/2GDI

>  <Rbt.Executable>
rbdock ($Id: //depot/dev/client3/rdock/2013.1/src/exe/rbdock.cxx#4 $)

>  <Rbt.Library>
libRbt.so (2013.1, Build901 2013/11/27)

>  <Rbt.Parameter_File>
/export/apps/rDock/src/rDock_2013.1_src/data/scripts/dock_solv.prm

>  <Rbt.Receptor>
prm/blind_docking_100.prm

>  <SCORE>
-14.2124

>  <SCORE.INTER>
-15.3708

>  <SCORE.INTER.CONST>
1

>  <SCORE.INTER.POLAR>
0

>  <SCORE.INTER.ROT>
8

>  <SCORE.INTER.SOLV>
19.6312

>  <SCORE.INTER.VDW>
-25.7243

>  <SCORE.INTER.norm>
-0.591185

>  <SCORE.INTRA>
1.11976

>  <SCORE.INTRA.DIHEDRAL>
2.46201

>  <SCORE.INTRA.DIHEDRAL.0>
8.13976

>  <SCORE.INTRA.POLAR>
0

>  <SCORE.INTRA.POLAR.0>
0

>  <SCORE.INTRA.REPUL>
0

>  <SCORE.INTRA.REPUL.0>
0

>  <SCORE.INTRA.SOLV>
-0.0279319

>  <SCORE.INTRA.SOLV.lig_0>
-82.9561

>  <SCORE.INTRA.VDW>
-0.0972855

>  <SCORE.INTRA.VDW.0>
-3.29171

>  <SCORE.INTRA.norm>
0.0430675

>  <SCORE.RESTR>
0.038653

>  <SCORE.RESTR.CAVITY>
0.038653

>  <SCORE.RESTR.norm>
0.00148665

>  <SCORE.SYSTEM>
0

>  <SCORE.SYSTEM.CONST>
0

>  <SCORE.SYSTEM.DIHEDRAL>
0

>  <SCORE.SYSTEM.SOLV>
0

>  <SCORE.SYSTEM.norm>
0

>  <SCORE.heavy>
26

>  <SCORE.norm>
-0.54663

>  <RMSD>
9.739

$$$$
ligand
 OpenBabel11021811433D
libRbt.so/2013.1/901 2013/11/27
 26 27  0  0  0  0  0  0  0  0999 V2000
  -26.0979  -15.9735    2.9351 C   0  0  0  0  0  0  0  0  0  0  0  0
  -18.9144  -14.7082   -1.7783 C   0  0  0  0  0  0  0  0  0  0  0  0
  -14.6994  -10.5463    0.4187 P   0  0  1  0  0  0  0  0  0  0  0  0
  -13.1646   -8.1773   -0.2818 P   0  0  1  0  0  0  0  0  0  0  0  0
  -21.4420  -15.4379   -0.3919 C   0  0  0  0  0  0  0  0  0  0  0  0
  -23.9278  -15.2239    0.0147 C   0  0  0  0  0  0  0  0  0  0  0  0
  -22.6703  -15.5705    0.4925 C   0  0  0  0  0  0  0  0  0  0  0  0
  -22.5602  -16.0521    1.7866 C   0  0  0  0  0  0  0  0  0  0  0  0
  -21.3545  -16.4020    2.2970 N   0  0  0  0  0  0  0  0  0  0  0  0
  -23.6678  -16.1745    2.5500 N   0  0  0  0  0  0  0  0  0  0  0  0
  -24.8799  -15.8292    2.0634 C   0  0  0  0  0  0  0  0  0  0  0  0
  -25.0061  -15.3552    0.7998 N   0  0  0  0  0  0  0  0  0  0  0  0
  -14.0424  -11.8610    0.7479 O   0  5  0  0  0  0  0  0  0  0  0  0
  -12.6023   -8.1130    1.1050 O   0  0  0  0  0  0  0  0  0  0  0  0
  -20.5343  -11.6363    0.3232 S   0  0  0  0  0  0  0  0  0  0  0  0
  -21.4658  -13.0975    0.4248 C   0  0  0  0  0  0  0  0  0  0  0  0
  -15.2147   -9.7265    1.5664 O   0  0  0  0  0  0  0  0  0  0  0  0
  -12.0623   -7.9943   -1.2711 O   0  5  0  0  0  0  0  0  0  0  0  0
  -20.8773  -14.0917   -0.2964 N   0  0  0  0  0  0  0  0  0  0  0  0
  -13.6862   -9.6944   -0.5165 O   0  0  0  0  0  0  0  0  0  0  0  0
  -14.3475   -7.2890   -0.5555 O   0  0  0  0  0  0  0  0  0  0  0  0
  -19.7201  -13.7591   -0.9318 C   0  0  1  0  0  0  0  0  0  0  0  0
  -19.3301  -12.3454   -0.6788 C   0  0  1  0  0  0  0  0  0  0  0  0
  -18.1850  -11.4703   -1.1147 C   0  0  0  0  0  0  0  0  0  0  0  0
  -17.1285  -11.4691   -0.0211 C   0  0  0  0  0  0  0  0  0  0  0  0
  -15.9577  -10.8467   -0.5358 O   0  0  0  0  0  0  0  0  0  0  0  0
  1 11  1  0  0  0  0
  3 13  1  1  0  0  0
  3 17  2  0  0  0  0
  3 20  1  0  0  0  0
  3 26  1  0  0  0  0
  4 14  1  1  0  0  0
  4 18  1  0  0  0  0
  4 21  2  0  0  0  0
  4 20  1  0  0  0  0
  5 19  1  0  0  0  0
  5  7  1  0  0  0  0
  6  7  2  0  0  0  0
  6 12  1  0  0  0  0
  7  8  1  0  0  0  0
  8  9  1  0  0  0  0
  8 10  2  0  0  0  0
 10 11  1  0  0  0  0
 11 12  2  0  0  0  0
 15 23  1  0  0  0  0
 15 16  1  0  0  0  0
 16 19  1  0  0  0  0
 19 22  1  0  0  0  0
 22  2  1  1  0  0  0
 22 23  1  0  0  0  0
 23 24  1  6  0  0  0
 24 25  1  0  0  0  0
 25 26  1  0  0  0  0
M  CHG  2  13  -1  18  -1
M  END
>  <CHROM.1>
-127.11239205,-4.39158855,87.26361708,52.92094738,84.47993839,169.57103463
173.58762616,71.49936075,-18.38679568,-12.17755928,0.31617771,2.83303045
-0.51520435,-2.34328244

>  <Name>
ligand

>  <RI>
0

>  <Rbt.Current_Directory>
/home/itssahil/PROJECTS/Mol_Feturizer/New_Systems/rnas/2GDI

>  <Rbt.Executable>
rbdock ($Id: //depot/dev/client3/rdock/2013.1/src/exe/rbdock.cxx#4 $)

>  <Rbt.Library>
libRbt.so (2013.1, Build901 2013/11/27)

>  <Rbt.Parameter_File>
/export/apps/rDock/src/rDock_2013.1_src/data/scripts/dock_solv.prm

>  <Rbt.Receptor>
prm/pocket_docking_2.prm

>  <SCORE>
-4.9173

>  <SCORE.INTER>
-6.7462

>  <SCORE.INTER.CONST>
1

>  <SCORE.INTER.POLAR>
0

>  <SCORE.INTER.ROT>
8

>  <SCORE.INTER.SOLV>
32.5408

>  <SCORE.INTER.VDW>
-24.2777

>  <SCORE.INTER.norm>
-0.259469

>  <SCORE.INTRA>
0.740088

>  <SCORE.INTRA.DIHEDRAL>
0.138214

>  <SCORE.INTRA.DIHEDRAL.0>
8.13976

>  <SCORE.INTRA.POLAR>
0

>  <SCORE.INTRA.POLAR.0>
0

>  <SCORE.INTRA.REPUL>
0

>  <SCORE.INTRA.REPUL.0>
0

>  <SCORE.INTRA.SOLV>
0.452065

>  <SCORE.INTRA.SOLV.lig_0>
-82.9561

>  <SCORE.INTRA.VDW>
0.444948

>  <SCORE.INTRA.VDW.0>
-3.29171

>  <SCORE.INTRA.norm>
0.0284649

>  <SCORE.RESTR>
1.08881

>  <SCORE.RESTR.CAVITY>
1.08881

>  <SCORE.RESTR.norm>
0.0418773

>  <SCORE.SYSTEM>
0

>  <SCORE.SYSTEM.CONST>
0

>  <SCORE.SYSTEM.DIHEDRAL>
0

>  <SCORE.SYSTEM.SOLV>
0

>  <SCORE.SYSTEM.norm>
0

>  <SCORE.heavy>
26

>  <SCORE.norm>
-0.189127

>  <RMSD>
9.744

$$$$
ligand
 OpenBabel11021811433D
libRbt.so/2013.1/901 2013/11/27
 26 27  0  0  0  0  0  0  0  0999 V2000
  -23.3168  -17.2763   12.3041 C   0  0  0  0  0  0  0  0  0  0  0  0
  -23.0464  -15.3561    3.9046 C   0  0  0  0  0  0  0  0  0  0  0  0
  -25.1236  -12.3868    0.9974 P   0  0  1  0  0  0  0  0  0  0  0  0
  -24.7604  -12.6310   -1.8778 P   0  0  1  0  0  0  0  0  0  0  0  0
  -23.6997  -16.2677    6.6588 C   0  0  0  0  0  0  0  0  0  0  0  0
  -24.2655  -15.7288    9.0629 C   0  0  0  0  0  0  0  0  0  0  0  0
  -23.5891  -16.5296    8.1513 C   0  0  0  0  0  0  0  0  0  0  0  0
  -22.8226  -17.5797    8.6293 C   0  0  0  0  0  0  0  0  0  0  0  0
  -22.1438  -18.3872    7.7786 N   0  0  0  0  0  0  0  0  0  0  0  0
  -22.7500  -17.8020    9.9597 N   0  0  0  0  0  0  0  0  0  0  0  0
  -23.4158  -17.0082   10.8268 C   0  0  0  0  0  0  0  0  0  0  0  0
  -24.1697  -15.9755   10.3768 N   0  0  0  0  0  0  0  0  0  0  0  0
  -25.3232  -10.9271    0.6844 O   0  5  0  0  0  0  0  0  0  0  0  0
  -26.2223  -12.6928   -2.1982 O   0  0  0  0  0  0  0  0  0  0  0  0
  -23.1327  -12.3353    6.6146 S   0  0  0  0  0  0  0  0  0  0  0  0
  -23.4859  -13.8857    7.3108 C   0  0  0  0  0  0  0  0  0  0  0  0
  -26.2795  -13.1251    1.6087 O   0  0  0  0  0  0  0  0  0  0  0  0
  -24.3144  -11.2068   -1.8763 O   0  5  0  0  0  0  0  0  0  0  0  0
  -23.4429  -14.8590    6.3592 N   0  0  0  0  0  0  0  0  0  0  0  0
  -24.5861  -13.1229   -0.3428 O   0  0  0  0  0  0  0  0  0  0  0  0
  -23.8674  -13.5211   -2.6985 O   0  0  0  0  0  0  0  0  0  0  0  0
  -23.1440  -14.4432    5.0977 C   0  0  1  0  0  0  0  0  0  0  0  0
  -22.9060  -12.9756    5.0348 C   0  0  1  0  0  0  0  0  0  0  0  0
  -22.5550  -12.0075    3.9364 C   0  0  0  0  0  0  0  0  0  0  0  0
  -23.8214  -11.6593    3.1701 C   0  0  0  0  0  0  0  0  0  0  0  0
  -23.8990  -12.5087    2.0318 O   0  0  0  0  0  0  0  0  0  0  0  0
  1 11  1  0  0  0  0
  3 13  1  6  0  0  0
  3 17  2  0  0  0  0
  3 20  1  0  0  0  0
  3 26  1  0  0  0  0
  4 14  1  6  0  0  0
  4 18  1  0  0  0  0
  4 21  2  0  0  0  0
  4 20  1  0  0  0  0
  5 19  1  0  0  0  0
  5  7  1  0  0  0  0
  6  7  2  0  0  0  0
  6 12  1  0  0  0  0
  7  8  1  0  0  0  0
  8  9  1  0  0  0  0
  8 10  2  0  0  0  0
 10 11  1  0  0  0  0
 11 12  2  0  0  0  0
 15 23  1  0  0  0  0
 15 16  1  0  0  0  0
 16 19  1  0  0  0  0
 19 22  1  0  0  0  0
 22  2  1  1  0  0  0
 22 23  1  0  0  0  0
 23 24  1  6  0  0  0
 24 25  1  0  0  0  0
 25 26  1  0  0  0  0
M  CHG  2  13  -1  18  -1
M  END
>  <CHROM.1>
-22.60412270,-17.20380483,50.12072360,-66.02303148,-98.20827774,-95.55518971
-179.46293241,46.51648232,-23.95550176,-13.99268637,4.08775320,-0.16357280
-1.42567750,0.21684766

>  <Name>
ligand

>  <RI>
0

>  <Rbt.Current_Directory>
/home/itssahil/PROJECTS/Mol_Feturizer/New_Systems/rnas/2GDI

>  <Rbt.Executable>
rbdock ($Id: //depot/dev/client3/rdock/2013.1/src/exe/rbdock.cxx#4 $)

>  <Rbt.Library>
libRbt.so (2013.1, Build901 2013/11/27)

>  <Rbt.Parameter_File>
/export/apps/rDock/src/rDock_2013.1_src/data/scripts/dock_solv.prm

>  <Rbt.Receptor>
prm/blind_docking_60.prm

>  <SCORE>
-5.34017

>  <SCORE.INTER>
-8.34693

>  <SCORE.INTER.CONST>
1

>  <SCORE.INTER.POLAR>
0

>  <SCORE.INTER.ROT>
8

>  <SCORE.INTER.SOLV>
22.6947

>  <SCORE.INTER.VDW>
-22.0629

>  <SCORE.INTER.norm>
-0.321036

>  <SCORE.INTRA>
2.99053

>  <SCORE.INTRA.DIHEDRAL>
2.59431

>  <SCORE.INTRA.DIHEDRAL.0>
8.13976

>  <SCORE.INTRA.POLAR>
0

>  <SCORE.INTRA.POLAR.0>
0

>  <SCORE.INTRA.REPUL>
0

>  <SCORE.INTRA.REPUL.0>
0

>  <SCORE.INTRA.SOLV>
0.699936

>  <SCORE.INTRA.SOLV.lig_0>
-82.9561

>  <SCORE.INTRA.VDW>
1.34341

>  <SCORE.INTRA.VDW.0>
-3.29171

>  <SCORE.INTRA.norm>
0.11502

>  <SCORE.RESTR>
0.0162301

>  <SCORE.RESTR.CAVITY>
0.0162301

>  <SCORE.RESTR.norm>
0.000624236

>  <SCORE.SYSTEM>
0

>  <SCORE.SYSTEM.CONST>
0

>  <SCORE.SYSTEM.DIHEDRAL>
0

>  <SCORE.SYSTEM.SOLV>
0

>  <SCORE.SYSTEM.norm>
0

>  <SCORE.heavy>
26

>  <SCORE.norm>
-0.205391

>  <RMSD>
9.756

$$$$
ligand
 OpenBabel11021811433D
libRbt.so/2013.1/901 2013/11/27
 26 27  0  0  0  0  0  0  0  0999 V2000
  -21.2064  -18.6817    4.7210 C   0  0  0  0  0  0  0  0  0  0  0  0
  -25.2390  -12.2667    6.7968 C   0  0  0  0  0  0  0  0  0  0  0  0
  -22.6162   -9.5733    4.2390 P   0  0  1  0  0  0  0  0  0  0  0  0
  -24.7792  -10.7439    2.6866 P   0  0  1  0  0  0  0  0  0  0  0  0
  -24.5155  -15.0177    7.6636 C   0  0  0  0  0  0  0  0  0  0  0  0
  -23.3059  -15.7349    5.5629 C   0  0  0  0  0  0  0  0  0  0  0  0
  -23.6491  -15.9925    6.8841 C   0  0  0  0  0  0  0  0  0  0  0  0
  -23.1746  -17.1490    7.4810 C   0  0  0  0  0  0  0  0  0  0  0  0
  -23.4837  -17.4436    8.7671 N   0  0  0  0  0  0  0  0  0  0  0  0
  -22.3945  -17.9942    6.7727 N   0  0  0  0  0  0  0  0  0  0  0  0
  -22.0757  -17.7227    5.4883 C   0  0  0  0  0  0  0  0  0  0  0  0
  -22.5320  -16.5963    4.8880 N   0  0  0  0  0  0  0  0  0  0  0  0
  -21.7999  -10.7379    3.7431 O   0  5  0  0  0  0  0  0  0  0  0  0
  -23.7621  -11.5865    1.9802 O   0  0  0  0  0  0  0  0  0  0  0  0
  -21.9601  -12.3838    9.1868 S   0  0  0  0  0  0  0  0  0  0  0  0
  -22.6424  -13.9518    8.8884 C   0  0  0  0  0  0  0  0  0  0  0  0
  -21.9386   -8.2349    4.3051 O   0  0  0  0  0  0  0  0  0  0  0  0
  -25.3498  -11.5132    3.8311 O   0  5  0  0  0  0  0  0  0  0  0  0
  -23.7363  -13.8528    8.0832 N   0  0  0  0  0  0  0  0  0  0  0  0
  -23.9839   -9.5082    3.3718 O   0  0  0  0  0  0  0  0  0  0  0  0
  -25.8372  -10.1203    1.8176 O   0  0  0  0  0  0  0  0  0  0  0  0
  -24.0688  -12.5939    7.6856 C   0  0  1  0  0  0  0  0  0  0  0  0
  -23.1275  -11.5724    8.2193 C   0  0  1  0  0  0  0  0  0  0  0  0
  -23.0173  -10.0750    8.1071 C   0  0  0  0  0  0  0  0  0  0  0  0
  -22.2432   -9.7364    6.8427 C   0  0  0  0  0  0  0  0  0  0  0  0
  -23.1111   -9.9144    5.7300 O   0  0  0  0  0  0  0  0  0  0  0  0
  1 11  1  0  0  0  0
  3 13  1  6  0  0  0
  3 17  2  0  0  0  0
  3 20  1  0  0  0  0
  3 26  1  0  0  0  0
  4 14  1  6  0  0  0
  4 18  1  0  0  0  0
  4 21  2  0  0  0  0
  4 20  1  0  0  0  0
  5 19  1  0  0  0  0
  5  7  1  0  0  0  0
  6  7  2  0  0  0  0
  6 12  1  0  0  0  0
  7  8  1  0  0  0  0
  8  9  1  0  0  0  0
  8 10  2  0  0  0  0
 10 11  1  0  0  0  0
 11 12  2  0  0  0  0
 15 23  1  0  0  0  0
 15 16  1  0  0  0  0
 16 19  1  0  0  0  0
 19 22  1  0  0  0  0
 22  2  1  6  0  0  0
 22 23  1  0  0  0  0
 23 24  1  1  0  0  0
 24 25  1  0  0  0  0
 25 26  1  0  0  0  0
M  CHG  2  13  -1  18  -1
M  END
>  <CHROM.1>
29.91463766,-60.09886803,-76.55270613,-46.33951184,95.41450565,76.44885317
177.21913256,80.57913536,-23.28349076,-12.68737647,5.73391999,0.96340490
1.36455070,-3.00715636

>  <Name>
ligand

>  <RI>
0

>  <Rbt.Current_Directory>
/home/itssahil/PROJECTS/Mol_Feturizer/New_Systems/rnas/2GDI

>  <Rbt.Executable>
rbdock ($Id: //depot/dev/client3/rdock/2013.1/src/exe/rbdock.cxx#4 $)

>  <Rbt.Library>
libRbt.so (2013.1, Build901 2013/11/27)

>  <Rbt.Parameter_File>
/export/apps/rDock/src/rDock_2013.1_src/data/scripts/dock_solv.prm

>  <Rbt.Receptor>
prm/blind_docking_60.prm

>  <SCORE>
-15.6028

>  <SCORE.INTER>
-15.2416

>  <SCORE.INTER.CONST>
1

>  <SCORE.INTER.POLAR>
0

>  <SCORE.INTER.ROT>
8

>  <SCORE.INTER.SOLV>
30.2086

>  <SCORE.INTER.VDW>
-29.1639

>  <SCORE.INTER.norm>
-0.586214

>  <SCORE.INTRA>
-0.361236

>  <SCORE.INTRA.DIHEDRAL>
-0.798449

>  <SCORE.INTRA.DIHEDRAL.0>
8.13976

>  <SCORE.INTRA.POLAR>
0

>  <SCORE.INTRA.POLAR.0>
0

>  <SCORE.INTRA.REPUL>
0

>  <SCORE.INTRA.REPUL.0>
0

>  <SCORE.INTRA.SOLV>
1.59046

>  <SCORE.INTRA.SOLV.lig_0>
-82.9561

>  <SCORE.INTRA.VDW>
-0.75724

>  <SCORE.INTRA.VDW.0>
-3.29171

>  <SCORE.INTRA.norm>
-0.0138937

>  <SCORE.RESTR>
0

>  <SCORE.RESTR.CAVITY>
0

>  <SCORE.RESTR.norm>
0

>  <SCORE.SYSTEM>
0

>  <SCORE.SYSTEM.CONST>
0

>  <SCORE.SYSTEM.DIHEDRAL>
0

>  <SCORE.SYSTEM.SOLV>
0

>  <SCORE.SYSTEM.norm>
0

>  <SCORE.heavy>
26

>  <SCORE.norm>
-0.600108

>  <RMSD>
9.767

$$$$
ligand
 OpenBabel11021811433D
libRbt.so/2013.1/901 2013/11/27
 26 27  0  0  0  0  0  0  0  0999 V2000
  -24.4419  -11.1168    3.2441 C   0  0  0  0  0  0  0  0  0  0  0  0
  -22.4479  -12.7069    8.8824 C   0  0  0  0  0  0  0  0  0  0  0  0
  -23.4479  -15.8038    6.6491 P   0  0  1  0  0  0  0  0  0  0  0  0
  -22.9485  -14.3203    4.1979 P   0  0  1  0  0  0  0  0  0  0  0  0
  -24.5455  -10.6007    8.9674 C   0  0  0  0  0  0  0  0  0  0  0  0
  -25.3928  -11.5949    6.8032 C   0  0  0  0  0  0  0  0  0  0  0  0
  -24.5098  -10.7435    7.4552 C   0  0  0  0  0  0  0  0  0  0  0  0
  -23.6051  -10.0173    6.6983 C   0  0  0  0  0  0  0  0  0  0  0  0
  -22.7234   -9.1750    7.2897 N   0  0  0  0  0  0  0  0  0  0  0  0
  -23.6009  -10.1500    5.3541 N   0  0  0  0  0  0  0  0  0  0  0  0
  -24.4686  -10.9859    4.7429 C   0  0  0  0  0  0  0  0  0  0  0  0
  -25.3600  -11.7051    5.4679 N   0  0  0  0  0  0  0  0  0  0  0  0
  -24.9412  -15.8367    6.4554 O   0  5  0  0  0  0  0  0  0  0  0  0
  -22.1367  -13.1012    3.8839 O   0  0  0  0  0  0  0  0  0  0  0  0
  -25.7786  -13.8426   10.9055 S   0  0  0  0  0  0  0  0  0  0  0  0
  -25.8818  -12.2291   10.2740 C   0  0  0  0  0  0  0  0  0  0  0  0
  -22.6893  -17.0708    6.3768 O   0  0  0  0  0  0  0  0  0  0  0  0
  -22.2949  -15.5184    3.5943 O   0  5  0  0  0  0  0  0  0  0  0  0
  -24.7406  -11.9020    9.6066 N   0  0  0  0  0  0  0  0  0  0  0  0
  -22.8546  -14.5579    5.7990 O   0  0  0  0  0  0  0  0  0  0  0  0
  -24.4165  -14.2346    3.8805 O   0  0  0  0  0  0  0  0  0  0  0  0
  -23.7794  -12.8653    9.5669 C   0  0  1  0  0  0  0  0  0  0  0  0
  -24.2039  -14.1077   10.2674 C   0  0  1  0  0  0  0  0  0  0  0  0
  -23.5641  -15.4453   10.5291 C   0  0  0  0  0  0  0  0  0  0  0  0
  -23.5829  -16.2550    9.2421 C   0  0  0  0  0  0  0  0  0  0  0  0
  -23.1556  -15.4106    8.1802 O   0  0  0  0  0  0  0  0  0  0  0  0
  1 11  1  0  0  0  0
  3 13  1  6  0  0  0
  3 17  2  0  0  0  0
  3 20  1  0  0  0  0
  3 26  1  0  0  0  0
  4 14  1  6  0  0  0
  4 18  1  0  0  0  0
  4 21  2  0  0  0  0
  4 20  1  0  0  0  0
  5 19  1  0  0  0  0
  5  7  1  0  0  0  0
  6  7  2  0  0  0  0
  6 12  1  0  0  0  0
  7  8  1  0  0  0  0
  8  9  1  0  0  0  0
  8 10  2  0  0  0  0
 10 11  1  0  0  0  0
 11 12  2  0  0  0  0
 15 23  1  0  0  0  0
 15 16  1  0  0  0  0
 16 19  1  0  0  0  0
 19 22  1  0  0  0  0
 22  2  1  6  0  0  0
 22 23  1  0  0  0  0
 23 24  1  1  0  0  0
 24 25  1  0  0  0  0
 25 26  1  0  0  0  0
M  CHG  2  13  -1  18  -1
M  END
>  <CHROM.1>
-60.44558443,-111.90176402,41.16981808,-174.59328285,106.37071204,45.60829844
-162.57425369,62.91529881,-23.88107308,-13.41943713,7.02983217,0.61418455
1.28968014,-0.62943575

>  <Name>
ligand

>  <RI>
0

>  <Rbt.Current_Directory>
/home/itssahil/PROJECTS/Mol_Feturizer/New_Systems/rnas/2GDI

>  <Rbt.Executable>
rbdock ($Id: //depot/dev/client3/rdock/2013.1/src/exe/rbdock.cxx#4 $)

>  <Rbt.Library>
libRbt.so (2013.1, Build901 2013/11/27)

>  <Rbt.Parameter_File>
/export/apps/rDock/src/rDock_2013.1_src/data/scripts/dock_solv.prm

>  <Rbt.Receptor>
prm/blind_docking_60.prm

>  <SCORE>
-11.0948

>  <SCORE.INTER>
-11.4944

>  <SCORE.INTER.CONST>
1

>  <SCORE.INTER.POLAR>
0

>  <SCORE.INTER.ROT>
8

>  <SCORE.INTER.SOLV>
13.3639

>  <SCORE.INTER.VDW>
-21.0509

>  <SCORE.INTER.norm>
-0.442091

>  <SCORE.INTRA>
-0.0273987

>  <SCORE.INTRA.DIHEDRAL>
-1.23212

>  <SCORE.INTRA.DIHEDRAL.0>
8.13976

>  <SCORE.INTRA.POLAR>
0

>  <SCORE.INTRA.POLAR.0>
0

>  <SCORE.INTRA.REPUL>
0

>  <SCORE.INTRA.REPUL.0>
0

>  <SCORE.INTRA.SOLV>
5.24297

>  <SCORE.INTRA.SOLV.lig_0>
-82.9561

>  <SCORE.INTRA.VDW>
-2.03282

>  <SCORE.INTRA.VDW.0>
-3.29171

>  <SCORE.INTRA.norm>
-0.0010538

>  <SCORE.RESTR>
0.426964

>  <SCORE.RESTR.CAVITY>
0.426964

>  <SCORE.RESTR.norm>
0.0164217

>  <SCORE.SYSTEM>
0

>  <SCORE.SYSTEM.CONST>
0

>  <SCORE.SYSTEM.DIHEDRAL>
0

>  <SCORE.SYSTEM.SOLV>
0

>  <SCORE.SYSTEM.norm>
0

>  <SCORE.heavy>
26

>  <SCORE.norm>
-0.426723

>  <RMSD>
9.779

$$$$
ligand
 OpenBabel11021811433D
libRbt.so/2013.1/901 2013/11/27
 26 27  0  0  0  0  0  0  0  0999 V2000
  -22.5809  -20.9834   -4.7110 C   0  0  0  0  0  0  0  0  0  0  0  0
  -24.6659  -18.7194    3.0831 C   0  0  0  0  0  0  0  0  0  0  0  0
  -22.1918  -14.3705    2.4771 P   0  0  1  0  0  0  0  0  0  0  0  0
  -20.9594  -12.6359    0.4945 P   0  0  1  0  0  0  0  0  0  0  0  0
  -24.0945  -20.5586    0.8173 C   0  0  0  0  0  0  0  0  0  0  0  0
  -23.5593  -21.9120   -1.2497 C   0  0  0  0  0  0  0  0  0  0  0  0
  -23.6843  -20.6693   -0.6414 C   0  0  0  0  0  0  0  0  0  0  0  0
  -23.4407  -19.5327   -1.3949 C   0  0  0  0  0  0  0  0  0  0  0  0
  -23.5487  -18.2989   -0.8449 N   0  0  0  0  0  0  0  0  0  0  0  0
  -23.0907  -19.6550   -2.6938 N   0  0  0  0  0  0  0  0  0  0  0  0
  -22.9740  -20.8748   -3.2626 C   0  0  0  0  0  0  0  0  0  0  0  0
  -23.2075  -21.9976   -2.5402 N   0  0  0  0  0  0  0  0  0  0  0  0
  -22.2090  -13.3536    3.5880 O   0  5  0  0  0  0  0  0  0  0  0  0
  -22.2019  -12.6253   -0.3419 O   0  0  0  0  0  0  0  0  0  0  0  0
  -20.7005  -19.3630    2.5021 S   0  0  0  0  0  0  0  0  0  0  0  0
  -21.7027  -20.2213    1.3742 C   0  0  0  0  0  0  0  0  0  0  0  0
  -23.4905  -14.6477    1.7761 O   0  0  0  0  0  0  0  0  0  0  0  0
  -20.9957  -11.4888    1.4484 O   0  5  0  0  0  0  0  0  0  0  0  0
  -23.0192  -19.9690    1.6149 N   0  0  0  0  0  0  0  0  0  0  0  0
  -21.0246  -13.9577    1.4311 O   0  0  0  0  0  0  0  0  0  0  0  0
  -19.6595  -12.7286   -0.2571 O   0  0  0  0  0  0  0  0  0  0  0  0
  -23.2823  -19.1272    2.6520 C   0  0  1  0  0  0  0  0  0  0  0  0
  -22.0376  -18.6387    3.3050 C   0  0  1  0  0  0  0  0  0  0  0  0
  -21.7401  -17.7211    4.4611 C   0  0  0  0  0  0  0  0  0  0  0  0
  -22.3772  -16.3681    4.1861 C   0  0  0  0  0  0  0  0  0  0  0  0
  -21.6921  -15.7687    3.0932 O   0  0  0  0  0  0  0  0  0  0  0  0
  1 11  1  0  0  0  0
  3 13  1  1  0  0  0
  3 17  2  0  0  0  0
  3 20  1  0  0  0  0
  3 26  1  0  0  0  0
  4 14  1  6  0  0  0
  4 18  1  0  0  0  0
  4 21  2  0  0  0  0
  4 20  1  0  0  0  0
  5 19  1  0  0  0  0
  5  7  1  0  0  0  0
  6  7  2  0  0  0  0
  6 12  1  0  0  0  0
  7  8  1  0  0  0  0
  8  9  1  0  0  0  0
  8 10  2  0  0  0  0
 10 11  1  0  0  0  0
 11 12  2  0  0  0  0
 15 23  1  0  0  0  0
 15 16  1  0  0  0  0
 16 19  1  0  0  0  0
 19 22  1  0  0  0  0
 22  2  1  6  0  0  0
 22 23  1  0  0  0  0
 23 24  1  1  0  0  0
 24 25  1  0  0  0  0
 25 26  1  0  0  0  0
M  CHG  2  13  -1  18  -1
M  END
>  <CHROM.1>
-65.34568619,-36.20289103,115.98892764,-56.77971096,123.85531544,-67.93615445
175.43365632,57.00636504,-22.27892048,-17.08630731,0.95447035,-2.78602868
1.35390402,1.57455609

>  <Name>
ligand

>  <RI>
0

>  <Rbt.Current_Directory>
/home/itssahil/PROJECTS/Mol_Feturizer/New_Systems/rnas/2GDI

>  <Rbt.Executable>
rbdock ($Id: //depot/dev/client3/rdock/2013.1/src/exe/rbdock.cxx#4 $)

>  <Rbt.Library>
libRbt.so (2013.1, Build901 2013/11/27)

>  <Rbt.Parameter_File>
/export/apps/rDock/src/rDock_2013.1_src/data/scripts/dock_solv.prm

>  <Rbt.Receptor>
prm/pocket_docking_8.prm

>  <SCORE>
-13.4381

>  <SCORE.INTER>
-12.7358

>  <SCORE.INTER.CONST>
1

>  <SCORE.INTER.POLAR>
0

>  <SCORE.INTER.ROT>
8

>  <SCORE.INTER.SOLV>
12.0892

>  <SCORE.INTER.VDW>
-21.4536

>  <SCORE.INTER.norm>
-0.489838

>  <SCORE.INTRA>
-0.702309

>  <SCORE.INTRA.DIHEDRAL>
-3.11252

>  <SCORE.INTRA.DIHEDRAL.0>
8.13976

>  <SCORE.INTRA.POLAR>
0

>  <SCORE.INTRA.POLAR.0>
0

>  <SCORE.INTRA.REPUL>
0

>  <SCORE.INTRA.REPUL.0>
0

>  <SCORE.INTRA.SOLV>
2.85049

>  <SCORE.INTRA.SOLV.lig_0>
-82.9561

>  <SCORE.INTRA.VDW>
-0.571294

>  <SCORE.INTRA.VDW.0>
-3.29171

>  <SCORE.INTRA.norm>
-0.0270119

>  <SCORE.RESTR>
0

>  <SCORE.RESTR.CAVITY>
0

>  <SCORE.RESTR.norm>
0

>  <SCORE.SYSTEM>
0

>  <SCORE.SYSTEM.CONST>
0

>  <SCORE.SYSTEM.DIHEDRAL>
0

>  <SCORE.SYSTEM.SOLV>
0

>  <SCORE.SYSTEM.norm>
0

>  <SCORE.heavy>
26

>  <SCORE.norm>
-0.51685

>  <RMSD>
9.790

$$$$
ligand
 OpenBabel11021811433D
libRbt.so/2013.1/901 2013/11/27
 26 27  0  0  0  0  0  0  0  0999 V2000
  -22.4476   -6.4215    4.6793 C   0  0  0  0  0  0  0  0  0  0  0  0
  -21.9398  -12.8923    9.6564 C   0  0  0  0  0  0  0  0  0  0  0  0
  -24.0813  -16.9821   11.0929 P   0  0  1  0  0  0  0  0  0  0  0  0
  -23.0865  -17.3801    8.3891 P   0  0  1  0  0  0  0  0  0  0  0  0
  -22.2712  -11.6968    6.9538 C   0  0  0  0  0  0  0  0  0  0  0  0
  -21.7541   -9.2232    7.0181 C   0  0  0  0  0  0  0  0  0  0  0  0
  -22.3278  -10.3012    6.3559 C   0  0  0  0  0  0  0  0  0  0  0  0
  -22.9405  -10.0809    5.1332 C   0  0  0  0  0  0  0  0  0  0  0  0
  -23.5148  -11.1011    4.4507 N   0  0  0  0  0  0  0  0  0  0  0  0
  -22.9666   -8.8340    4.6145 N   0  0  0  0  0  0  0  0  0  0  0  0
  -22.4032   -7.8011    5.2784 C   0  0  0  0  0  0  0  0  0  0  0  0
  -21.8003   -7.9981    6.4763 N   0  0  0  0  0  0  0  0  0  0  0  0
  -25.3182  -17.4326   11.8247 O   0  5  0  0  0  0  0  0  0  0  0  0
  -23.7599  -17.6772    7.0846 O   0  0  0  0  0  0  0  0  0  0  0  0
  -25.8005  -12.0275    8.7488 S   0  0  0  0  0  0  0  0  0  0  0  0
  -24.6933  -11.6198    7.4756 C   0  0  0  0  0  0  0  0  0  0  0  0
  -22.7549  -17.4062   11.6547 O   0  0  0  0  0  0  0  0  0  0  0  0
  -22.5858  -15.9743    8.3781 O   0  5  0  0  0  0  0  0  0  0  0  0
  -23.4165  -11.9307    7.8334 N   0  0  0  0  0  0  0  0  0  0  0  0
  -24.2328  -17.4041    9.5354 O   0  0  0  0  0  0  0  0  0  0  0  0
  -22.0418  -18.3680    8.8318 O   0  0  0  0  0  0  0  0  0  0  0  0
  -23.2632  -12.4781    9.0705 C   0  0  1  0  0  0  0  0  0  0  0  0
  -24.5637  -12.6375    9.7761 C   0  0  1  0  0  0  0  0  0  0  0  0
  -24.9776  -13.1669   11.1235 C   0  0  0  0  0  0  0  0  0  0  0  0
  -25.2987  -14.6470   10.9882 C   0  0  0  0  0  0  0  0  0  0  0  0
  -24.0791  -15.3747   11.0669 O   0  0  0  0  0  0  0  0  0  0  0  0
  1 11  1  0  0  0  0
  3 13  1  1  0  0  0
  3 17  2  0  0  0  0
  3 20  1  0  0  0  0
  3 26  1  0  0  0  0
  4 14  1  6  0  0  0
  4 18  1  0  0  0  0
  4 21  2  0  0  0  0
  4 20  1  0  0  0  0
  5 19  1  0  0  0  0
  5  7  1  0  0  0  0
  6  7  2  0  0  0  0
  6 12  1  0  0  0  0
  7  8  1  0  0  0  0
  8  9  1  0  0  0  0
  8 10  2  0  0  0  0
 10 11  1  0  0  0  0
 11 12  2  0  0  0  0
 15 23  1  0  0  0  0
 15 16  1  0  0  0  0
 16 19  1  0  0  0  0
 19 22  1  0  0  0  0
 22  2  1  6  0  0  0
 22 23  1  0  0  0  0
 23 24  1  1  0  0  0
 24 25  1  0  0  0  0
 25 26  1  0  0  0  0
M  CHG  2  13  -1  18  -1
M  END
>  <CHROM.1>
-168.59462947,46.77445121,88.58641185,-172.38101652,89.47446467,83.21032667
174.38023869,-33.51186095,-23.52349878,-13.52642338,8.44069134,-1.35122615
-1.03238085,2.83366548

>  <Name>
ligand

>  <RI>
0

>  <Rbt.Current_Directory>
/home/itssahil/PROJECTS/Mol_Feturizer/New_Systems/rnas/2GDI

>  <Rbt.Executable>
rbdock ($Id: //depot/dev/client3/rdock/2013.1/src/exe/rbdock.cxx#4 $)

>  <Rbt.Library>
libRbt.so (2013.1, Build901 2013/11/27)

>  <Rbt.Parameter_File>
/export/apps/rDock/src/rDock_2013.1_src/data/scripts/dock_solv.prm

>  <Rbt.Receptor>
prm/blind_docking_40.prm

>  <SCORE>
-15.209

>  <SCORE.INTER>
-15.8357

>  <SCORE.INTER.CONST>
1

>  <SCORE.INTER.POLAR>
0

>  <SCORE.INTER.ROT>
8

>  <SCORE.INTER.SOLV>
21.3724

>  <SCORE.INTER.VDW>
-26.6146

>  <SCORE.INTER.norm>
-0.609065

>  <SCORE.INTRA>
0.625714

>  <SCORE.INTRA.DIHEDRAL>
0.0265026

>  <SCORE.INTRA.DIHEDRAL.0>
8.13976

>  <SCORE.INTRA.POLAR>
0

>  <SCORE.INTRA.POLAR.0>
0

>  <SCORE.INTRA.REPUL>
0

>  <SCORE.INTRA.REPUL.0>
0

>  <SCORE.INTRA.SOLV>
3.47036

>  <SCORE.INTRA.SOLV.lig_0>
-82.9561

>  <SCORE.INTRA.VDW>
-1.12272

>  <SCORE.INTRA.VDW.0>
-3.29171

>  <SCORE.INTRA.norm>
0.0240659

>  <SCORE.RESTR>
0.000997212

>  <SCORE.RESTR.CAVITY>
0.000997212

>  <SCORE.RESTR.norm>
3.83543e-05

>  <SCORE.SYSTEM>
0

>  <SCORE.SYSTEM.CONST>
0

>  <SCORE.SYSTEM.DIHEDRAL>
0

>  <SCORE.SYSTEM.SOLV>
0

>  <SCORE.SYSTEM.norm>
0

>  <SCORE.heavy>
26

>  <SCORE.norm>
-0.584961

>  <RMSD>
9.818

$$$$
ligand
 OpenBabel11021811433D
libRbt.so/2013.1/901 2013/11/27
 26 27  0  0  0  0  0  0  0  0999 V2000
  -26.1023  -12.9071   -0.5484 C   0  0  0  0  0  0  0  0  0  0  0  0
  -22.8635   -9.2185    6.6048 C   0  0  0  0  0  0  0  0  0  0  0  0
  -22.4287  -12.8693    9.8537 P   0  0  1  0  0  0  0  0  0  0  0  0
  -24.3865  -14.9543   10.3817 P   0  0  1  0  0  0  0  0  0  0  0  0
  -23.5706  -10.5312    4.0319 C   0  0  0  0  0  0  0  0  0  0  0  0
  -25.2955  -10.5230    2.1839 C   0  0  0  0  0  0  0  0  0  0  0  0
  -24.2454  -11.1656    2.8275 C   0  0  0  0  0  0  0  0  0  0  0  0
  -23.8168  -12.3899    2.3412 C   0  0  0  0  0  0  0  0  0  0  0  0
  -22.7971  -13.0548    2.9363 N   0  0  0  0  0  0  0  0  0  0  0  0
  -24.4227  -12.9282    1.2606 N   0  0  0  0  0  0  0  0  0  0  0  0
  -25.4433  -12.2847    0.6527 C   0  0  0  0  0  0  0  0  0  0  0  0
  -25.8764  -11.0866    1.1156 N   0  0  0  0  0  0  0  0  0  0  0  0
  -21.6147  -11.9683   10.7448 O   0  5  0  0  0  0  0  0  0  0  0  0
  -24.4611  -16.0263   11.4250 O   0  0  0  0  0  0  0  0  0  0  0  0
  -26.1762  -11.5511    6.8529 S   0  0  0  0  0  0  0  0  0  0  0  0
  -25.4736  -11.5318    5.2658 C   0  0  0  0  0  0  0  0  0  0  0  0
  -21.7274  -13.4997    8.6852 O   0  0  0  0  0  0  0  0  0  0  0  0
  -25.6015  -14.0923   10.4708 O   0  5  0  0  0  0  0  0  0  0  0  0
  -24.3685  -10.7362    5.2408 N   0  0  0  0  0  0  0  0  0  0  0  0
  -23.1550  -13.9797   10.7845 O   0  0  0  0  0  0  0  0  0  0  0  0
  -24.1018  -15.4179    8.9791 O   0  0  0  0  0  0  0  0  0  0  0  0
  -24.0436  -10.1345    6.4180 C   0  0  1  0  0  0  0  0  0  0  0  0
  -24.9842  -10.5011    7.5114 C   0  0  1  0  0  0  0  0  0  0  0  0
  -25.1034  -10.1414    8.9686 C   0  0  0  0  0  0  0  0  0  0  0  0
  -23.8861  -10.6786    9.7046 C   0  0  0  0  0  0  0  0  0  0  0  0
  -23.6431  -12.0048    9.2518 O   0  0  0  0  0  0  0  0  0  0  0  0
  1 11  1  0  0  0  0
  3 13  1  1  0  0  0
  3 17  2  0  0  0  0
  3 20  1  0  0  0  0
  3 26  1  0  0  0  0
  4 14  1  1  0  0  0
  4 18  1  0  0  0  0
  4 21  2  0  0  0  0
  4 20  1  0  0  0  0
  5 19  1  0  0  0  0
  5  7  1  0  0  0  0
  6  7  2  0  0  0  0
  6 12  1  0  0  0  0
  7  8  1  0  0  0  0
  8  9  1  0  0  0  0
  8 10  2  0  0  0  0
 10 11  1  0  0  0  0
 11 12  2  0  0  0  0
 15 23  1  0  0  0  0
 15 16  1  0  0  0  0
 16 19  1  0  0  0  0
 19 22  1  0  0  0  0
 22  2  1  1  0  0  0
 22 23  1  0  0  0  0
 23 24  1  6  0  0  0
 24 25  1  0  0  0  0
 25 26  1  0  0  0  0
M  CHG  2  13  -1  18  -1
M  END
>  <CHROM.1>
164.79407298,7.29189096,79.59527709,165.36759010,116.62450365,-44.26338109
-179.11980121,-7.09184512,-24.19252658,-12.35877639,6.82822333,2.24905817
-1.32762331,-0.67892994

>  <Name>
ligand

>  <RI>
0

>  <Rbt.Current_Directory>
/home/itssahil/PROJECTS/Mol_Feturizer/New_Systems/rnas/2GDI

>  <Rbt.Executable>
rbdock ($Id: //depot/dev/client3/rdock/2013.1/src/exe/rbdock.cxx#4 $)

>  <Rbt.Library>
libRbt.so (2013.1, Build901 2013/11/27)

>  <Rbt.Parameter_File>
/export/apps/rDock/src/rDock_2013.1_src/data/scripts/dock_solv.prm

>  <Rbt.Receptor>
prm/blind_docking_80.prm

>  <SCORE>
-12.9317

>  <SCORE.INTER>
-14.0531

>  <SCORE.INTER.CONST>
1

>  <SCORE.INTER.POLAR>
0

>  <SCORE.INTER.ROT>
8

>  <SCORE.INTER.SOLV>
15.3897

>  <SCORE.INTER.VDW>
-23.4319

>  <SCORE.INTER.norm>
-0.540503

>  <SCORE.INTRA>
1.12138

>  <SCORE.INTRA.DIHEDRAL>
0.196378

>  <SCORE.INTRA.DIHEDRAL.0>
8.13976

>  <SCORE.INTRA.POLAR>
0

>  <SCORE.INTRA.POLAR.0>
0

>  <SCORE.INTRA.REPUL>
0

>  <SCORE.INTRA.REPUL.0>
0

>  <SCORE.INTRA.SOLV>
1.85555

>  <SCORE.INTRA.SOLV.lig_0>
-82.9561

>  <SCORE.INTRA.VDW>
0.0954131

>  <SCORE.INTRA.VDW.0>
-3.29171

>  <SCORE.INTRA.norm>
0.0431299

>  <SCORE.RESTR>
0

>  <SCORE.RESTR.CAVITY>
0

>  <SCORE.RESTR.norm>
0

>  <SCORE.SYSTEM>
0

>  <SCORE.SYSTEM.CONST>
0

>  <SCORE.SYSTEM.DIHEDRAL>
0

>  <SCORE.SYSTEM.SOLV>
0

>  <SCORE.SYSTEM.norm>
0

>  <SCORE.heavy>
26

>  <SCORE.norm>
-0.497373

>  <RMSD>
9.824

$$$$
ligand
 OpenBabel11021811433D
libRbt.so/2013.1/901 2013/11/27
 26 27  0  0  0  0  0  0  0  0999 V2000
  -22.6887  -18.2340    8.0409 C   0  0  0  0  0  0  0  0  0  0  0  0
  -25.5376  -11.6180    6.1139 C   0  0  0  0  0  0  0  0  0  0  0  0
  -23.2114  -12.3696    2.9035 P   0  0  1  0  0  0  0  0  0  0  0  0
  -25.3093  -11.7569    0.9847 P   0  0  1  0  0  0  0  0  0  0  0  0
  -24.9590  -12.9935    8.6862 C   0  0  0  0  0  0  0  0  0  0  0  0
  -23.8711  -14.7944    7.2850 C   0  0  0  0  0  0  0  0  0  0  0  0
  -24.3686  -14.3829    8.5150 C   0  0  0  0  0  0  0  0  0  0  0  0
  -24.3034  -15.2595    9.5856 C   0  0  0  0  0  0  0  0  0  0  0  0
  -24.7769  -14.9033   10.8044 N   0  0  0  0  0  0  0  0  0  0  0  0
  -23.7616  -16.4848    9.4133 N   0  0  0  0  0  0  0  0  0  0  0  0
  -23.2858  -16.8627    8.2067 C   0  0  0  0  0  0  0  0  0  0  0  0
  -23.3424  -16.0183    7.1478 N   0  0  0  0  0  0  0  0  0  0  0  0
  -22.9062  -13.5497    3.7883 O   0  5  0  0  0  0  0  0  0  0  0  0
  -24.4659  -11.8556   -0.2492 O   0  0  0  0  0  0  0  0  0  0  0  0
  -22.0860  -10.3782    7.8536 S   0  0  0  0  0  0  0  0  0  0  0  0
  -22.9112  -11.5993    8.7708 C   0  0  0  0  0  0  0  0  0  0  0  0
  -22.1331  -11.9171    1.9616 O   0  0  0  0  0  0  0  0  0  0  0  0
  -26.6271  -12.4119    0.7365 O   0  5  0  0  0  0  0  0  0  0  0  0
  -24.0587  -11.9769    8.1420 N   0  0  0  0  0  0  0  0  0  0  0  0
  -24.6000  -12.6681    2.1228 O   0  0  0  0  0  0  0  0  0  0  0  0
  -25.4441  -10.3832    1.5830 O   0  0  0  0  0  0  0  0  0  0  0  0
  -24.3249  -11.3480    6.9643 C   0  0  1  0  0  0  0  0  0  0  0  0
  -23.2649  -10.3686    6.6017 C   0  0  1  0  0  0  0  0  0  0  0  0
  -23.0485   -9.4224    5.4506 C   0  0  0  0  0  0  0  0  0  0  0  0
  -22.5327  -10.2139    4.2591 C   0  0  0  0  0  0  0  0  0  0  0  0
  -23.5534  -11.1162    3.8502 O   0  0  0  0  0  0  0  0  0  0  0  0
  1 11  1  0  0  0  0
  3 13  1  1  0  0  0
  3 17  2  0  0  0  0
  3 20  1  0  0  0  0
  3 26  1  0  0  0  0
  4 14  1  6  0  0  0
  4 18  1  0  0  0  0
  4 21  2  0  0  0  0
  4 20  1  0  0  0  0
  5 19  1  0  0  0  0
  5  7  1  0  0  0  0
  6  7  2  0  0  0  0
  6 12  1  0  0  0  0
  7  8  1  0  0  0  0
  8  9  1  0  0  0  0
  8 10  2  0  0  0  0
 10 11  1  0  0  0  0
 11 12  2  0  0  0  0
 15 23  1  0  0  0  0
 15 16  1  0  0  0  0
 16 19  1  0  0  0  0
 19 22  1  0  0  0  0
 22  2  1  6  0  0  0
 22 23  1  0  0  0  0
 23 24  1  1  0  0  0
 24 25  1  0  0  0  0
 25 26  1  0  0  0  0
M  CHG  2  13  -1  18  -1
M  END
>  <CHROM.1>
-175.66060766,-74.30495060,-49.29530521,70.47417281,102.85790814,64.87873988
-162.78249696,91.76851746,-23.86721267,-12.66469303,5.33846243,1.11669784
1.34033854,2.42572492

>  <Name>
ligand

>  <RI>
0

>  <Rbt.Current_Directory>
/home/itssahil/PROJECTS/Mol_Feturizer/New_Systems/rnas/2GDI

>  <Rbt.Executable>
rbdock ($Id: //depot/dev/client3/rdock/2013.1/src/exe/rbdock.cxx#4 $)

>  <Rbt.Library>
libRbt.so (2013.1, Build901 2013/11/27)

>  <Rbt.Parameter_File>
/export/apps/rDock/src/rDock_2013.1_src/data/scripts/dock_solv.prm

>  <Rbt.Receptor>
prm/blind_docking_100.prm

>  <SCORE>
-12.7851

>  <SCORE.INTER>
-12.0329

>  <SCORE.INTER.CONST>
1

>  <SCORE.INTER.POLAR>
0

>  <SCORE.INTER.ROT>
8

>  <SCORE.INTER.SOLV>
21.9396

>  <SCORE.INTER.VDW>
-24.2685

>  <SCORE.INTER.norm>
-0.462804

>  <SCORE.INTRA>
-0.752203

>  <SCORE.INTRA.DIHEDRAL>
-0.595537

>  <SCORE.INTRA.DIHEDRAL.0>
8.13976

>  <SCORE.INTRA.POLAR>
0

>  <SCORE.INTRA.POLAR.0>
0

>  <SCORE.INTRA.REPUL>
0

>  <SCORE.INTRA.REPUL.0>
0

>  <SCORE.INTRA.SOLV>
1.00602

>  <SCORE.INTRA.SOLV.lig_0>
-82.9561

>  <SCORE.INTRA.VDW>
-0.957444

>  <SCORE.INTRA.VDW.0>
-3.29171

>  <SCORE.INTRA.norm>
-0.0289309

>  <SCORE.RESTR>
0

>  <SCORE.RESTR.CAVITY>
0

>  <SCORE.RESTR.norm>
0

>  <SCORE.SYSTEM>
0

>  <SCORE.SYSTEM.CONST>
0

>  <SCORE.SYSTEM.DIHEDRAL>
0

>  <SCORE.SYSTEM.SOLV>
0

>  <SCORE.SYSTEM.norm>
0

>  <SCORE.heavy>
26

>  <SCORE.norm>
-0.491735

>  <RMSD>
9.834

$$$$
ligand
 OpenBabel11021811433D
libRbt.so/2013.1/901 2013/11/27
 26 27  0  0  0  0  0  0  0  0999 V2000
  -24.5077  -14.0228   11.7038 C   0  0  0  0  0  0  0  0  0  0  0  0
  -25.4012  -12.4156    5.6968 C   0  0  0  0  0  0  0  0  0  0  0  0
  -25.1393  -12.2840    0.4270 P   0  0  1  0  0  0  0  0  0  0  0  0
  -24.5056  -12.2175   -2.4107 P   0  0  1  0  0  0  0  0  0  0  0  0
  -25.3951  -10.1162    7.5826 C   0  0  0  0  0  0  0  0  0  0  0  0
  -25.9831  -12.2605    8.7853 C   0  0  0  0  0  0  0  0  0  0  0  0
  -25.1653  -11.1426    8.6790 C   0  0  0  0  0  0  0  0  0  0  0  0
  -24.1279  -10.9892    9.5840 C   0  0  0  0  0  0  0  0  0  0  0  0
  -23.3046   -9.9146    9.5208 N   0  0  0  0  0  0  0  0  0  0  0  0
  -23.9342  -11.9216   10.5420 N   0  0  0  0  0  0  0  0  0  0  0  0
  -24.7441  -12.9996   10.6261 C   0  0  0  0  0  0  0  0  0  0  0  0
  -25.7647  -13.1653    9.7497 N   0  0  0  0  0  0  0  0  0  0  0  0
  -26.2797  -11.4704    0.9804 O   0  5  0  0  0  0  0  0  0  0  0  0
  -25.7977  -11.9382   -3.1150 O   0  0  0  0  0  0  0  0  0  0  0  0
  -22.3758   -9.7954    5.0197 S   0  0  0  0  0  0  0  0  0  0  0  0
  -23.3919   -9.3344    6.3494 C   0  0  0  0  0  0  0  0  0  0  0  0
  -25.3762  -13.7524    0.2212 O   0  0  0  0  0  0  0  0  0  0  0  0
  -23.4053  -11.4617   -3.0781 O   0  5  0  0  0  0  0  0  0  0  0  0
  -24.3866  -10.2467    6.5308 N   0  0  0  0  0  0  0  0  0  0  0  0
  -24.6179  -11.5670   -0.9298 O   0  0  0  0  0  0  0  0  0  0  0  0
  -24.1709  -13.6687   -2.1979 O   0  0  0  0  0  0  0  0  0  0  0  0
  -24.3908  -11.2999    5.6681 C   0  0  1  0  0  0  0  0  0  0  0  0
  -23.2650  -11.2316    4.6974 C   0  0  1  0  0  0  0  0  0  0  0  0
  -22.7986  -12.0964    3.5565 C   0  0  0  0  0  0  0  0  0  0  0  0
  -24.0155  -12.5916    2.7909 C   0  0  0  0  0  0  0  0  0  0  0  0
  -23.8998  -12.1541    1.4424 O   0  0  0  0  0  0  0  0  0  0  0  0
  1 11  1  0  0  0  0
  3 13  1  1  0  0  0
  3 17  2  0  0  0  0
  3 20  1  0  0  0  0
  3 26  1  0  0  0  0
  4 14  1  6  0  0  0
  4 18  1  0  0  0  0
  4 21  2  0  0  0  0
  4 20  1  0  0  0  0
  5 19  1  0  0  0  0
  5  7  1  0  0  0  0
  6  7  2  0  0  0  0
  6 12  1  0  0  0  0
  7  8  1  0  0  0  0
  8  9  1  0  0  0  0
  8 10  2  0  0  0  0
 10 11  1  0  0  0  0
 11 12  2  0  0  0  0
 15 23  1  0  0  0  0
 15 16  1  0  0  0  0
 16 19  1  0  0  0  0
 19 22  1  0  0  0  0
 22  2  1  1  0  0  0
 22 23  1  0  0  0  0
 23 24  1  6  0  0  0
 24 25  1  0  0  0  0
 25 26  1  0  0  0  0
M  CHG  2  13  -1  18  -1
M  END
>  <CHROM.1>
-123.38177923,-108.28479038,-105.01414187,91.42381190,-138.79009957,121.25127274
-169.11972620,60.60435367,-24.41981474,-11.76434437,3.85402848,1.53979740
0.93539479,1.54497126

>  <Name>
ligand

>  <RI>
0

>  <Rbt.Current_Directory>
/home/itssahil/PROJECTS/Mol_Feturizer/New_Systems/rnas/2GDI

>  <Rbt.Executable>
rbdock ($Id: //depot/dev/client3/rdock/2013.1/src/exe/rbdock.cxx#4 $)

>  <Rbt.Library>
libRbt.so (2013.1, Build901 2013/11/27)

>  <Rbt.Parameter_File>
/export/apps/rDock/src/rDock_2013.1_src/data/scripts/dock_solv.prm

>  <Rbt.Receptor>
prm/blind_docking_60.prm

>  <SCORE>
-7.77118

>  <SCORE.INTER>
-12.4511

>  <SCORE.INTER.CONST>
1

>  <SCORE.INTER.POLAR>
0

>  <SCORE.INTER.ROT>
8

>  <SCORE.INTER.SOLV>
17.1011

>  <SCORE.INTER.VDW>
-22.9344

>  <SCORE.INTER.norm>
-0.478888

>  <SCORE.INTRA>
4.45147

>  <SCORE.INTRA.DIHEDRAL>
6.19681

>  <SCORE.INTRA.DIHEDRAL.0>
8.13976

>  <SCORE.INTRA.POLAR>
0

>  <SCORE.INTRA.POLAR.0>
0

>  <SCORE.INTRA.REPUL>
0

>  <SCORE.INTRA.REPUL.0>
0

>  <SCORE.INTRA.SOLV>
1.87609

>  <SCORE.INTRA.SOLV.lig_0>
-82.9561

>  <SCORE.INTRA.VDW>
0.415022

>  <SCORE.INTRA.VDW.0>
-3.29171

>  <SCORE.INTRA.norm>
0.171211

>  <SCORE.RESTR>
0.228438

>  <SCORE.RESTR.CAVITY>
0.228438

>  <SCORE.RESTR.norm>
0.00878607

>  <SCORE.SYSTEM>
0

>  <SCORE.SYSTEM.CONST>
0

>  <SCORE.SYSTEM.DIHEDRAL>
0

>  <SCORE.SYSTEM.SOLV>
0

>  <SCORE.SYSTEM.norm>
0

>  <SCORE.heavy>
26

>  <SCORE.norm>
-0.298892

>  <RMSD>
9.857

$$$$
ligand
 OpenBabel11021811433D
libRbt.so/2013.1/901 2013/11/27
 26 27  0  0  0  0  0  0  0  0999 V2000
  -26.2742  -13.0251   -0.6308 C   0  0  0  0  0  0  0  0  0  0  0  0
  -22.7489   -9.3393    6.3974 C   0  0  0  0  0  0  0  0  0  0  0  0
  -22.6675  -13.1869    9.1928 P   0  0  1  0  0  0  0  0  0  0  0  0
  -24.0839  -15.0168   10.9545 P   0  0  1  0  0  0  0  0  0  0  0  0
  -23.6047  -10.5892    3.8384 C   0  0  0  0  0  0  0  0  0  0  0  0
  -25.3929  -10.6111    2.0518 C   0  0  0  0  0  0  0  0  0  0  0  0
  -24.3156  -11.2395    2.6636 C   0  0  0  0  0  0  0  0  0  0  0  0
  -23.8939  -12.4643    2.1728 C   0  0  0  0  0  0  0  0  0  0  0  0
  -22.8484  -13.1157    2.7376 N   0  0  0  0  0  0  0  0  0  0  0  0
  -24.5325  -13.0169    1.1186 N   0  0  0  0  0  0  0  0  0  0  0  0
  -25.5790  -12.3871    0.5413 C   0  0  0  0  0  0  0  0  0  0  0  0
  -26.0059  -11.1886    1.0091 N   0  0  0  0  0  0  0  0  0  0  0  0
  -21.5672  -12.7513   10.1245 O   0  5  0  0  0  0  0  0  0  0  0  0
  -23.5156  -14.2650   12.1187 O   0  0  0  0  0  0  0  0  0  0  0  0
  -26.1689  -11.4996    6.7338 S   0  0  0  0  0  0  0  0  0  0  0  0
  -25.5170  -11.5016    5.1251 C   0  0  0  0  0  0  0  0  0  0  0  0
  -22.3801  -13.1455    7.7195 O   0  0  0  0  0  0  0  0  0  0  0  0
  -25.4395  -14.4810   10.6341 O   0  5  0  0  0  0  0  0  0  0  0  0
  -24.3734  -10.7641    5.0708 N   0  0  0  0  0  0  0  0  0  0  0  0
  -23.1766  -14.6526    9.6611 O   0  0  0  0  0  0  0  0  0  0  0  0
  -24.0605  -16.5171   11.0637 O   0  0  0  0  0  0  0  0  0  0  0  0
  -23.9804  -10.1911    6.2416 C   0  0  1  0  0  0  0  0  0  0  0  0
  -24.9036  -10.5189    7.3617 C   0  0  1  0  0  0  0  0  0  0  0  0
  -24.9576  -10.1673    8.8248 C   0  0  0  0  0  0  0  0  0  0  0  0
  -23.7773  -10.8200    9.5270 C   0  0  0  0  0  0  0  0  0  0  0  0
  -23.9357  -12.2310    9.4428 O   0  0  0  0  0  0  0  0  0  0  0  0
  1 11  1  0  0  0  0
  3 13  1  1  0  0  0
  3 17  2  0  0  0  0
  3 20  1  0  0  0  0
  3 26  1  0  0  0  0
  4 14  1  1  0  0  0
  4 18  1  0  0  0  0
  4 21  2  0  0  0  0
  4 20  1  0  0  0  0
  5 19  1  0  0  0  0
  5  7  1  0  0  0  0
  6  7  2  0  0  0  0
  6 12  1  0  0  0  0
  7  8  1  0  0  0  0
  8  9  1  0  0  0  0
  8 10  2  0  0  0  0
 10 11  1  0  0  0  0
 11 12  2  0  0  0  0
 15 23  1  0  0  0  0
 15 16  1  0  0  0  0
 16 19  1  0  0  0  0
 19 22  1  0  0  0  0
 22  2  1  1  0  0  0
 22 23  1  0  0  0  0
 23 24  1  6  0  0  0
 24 25  1  0  0  0  0
 25 26  1  0  0  0  0
M  CHG  2  13  -1  18  -1
M  END
>  <CHROM.1>
73.80900246,4.36355896,78.30594303,-45.78564418,114.38960007,-64.65496332
141.17847202,46.54588838,-24.19106783,-12.45980050,6.75047437,2.64635075
-1.39688907,-0.25027231

>  <Name>
ligand

>  <RI>
0

>  <Rbt.Current_Directory>
/home/itssahil/PROJECTS/Mol_Feturizer/New_Systems/rnas/2GDI

>  <Rbt.Executable>
rbdock ($Id: //depot/dev/client3/rdock/2013.1/src/exe/rbdock.cxx#4 $)

>  <Rbt.Library>
libRbt.so (2013.1, Build901 2013/11/27)

>  <Rbt.Parameter_File>
/export/apps/rDock/src/rDock_2013.1_src/data/scripts/dock_solv.prm

>  <Rbt.Receptor>
prm/blind_docking_60.prm

>  <SCORE>
-13.279

>  <SCORE.INTER>
-14.4566

>  <SCORE.INTER.CONST>
1

>  <SCORE.INTER.POLAR>
0

>  <SCORE.INTER.ROT>
8

>  <SCORE.INTER.SOLV>
14.6949

>  <SCORE.INTER.VDW>
-23.4694

>  <SCORE.INTER.norm>
-0.556024

>  <SCORE.INTRA>
1.15311

>  <SCORE.INTRA.DIHEDRAL>
3.028

>  <SCORE.INTRA.DIHEDRAL.0>
8.13976

>  <SCORE.INTRA.POLAR>
0

>  <SCORE.INTRA.POLAR.0>
0

>  <SCORE.INTRA.REPUL>
0

>  <SCORE.INTRA.REPUL.0>
0

>  <SCORE.INTRA.SOLV>
0.988175

>  <SCORE.INTRA.SOLV.lig_0>
-82.9561

>  <SCORE.INTRA.VDW>
-0.854974

>  <SCORE.INTRA.VDW.0>
-3.29171

>  <SCORE.INTRA.norm>
0.0443505

>  <SCORE.RESTR>
0.0244837

>  <SCORE.RESTR.CAVITY>
0.0244837

>  <SCORE.RESTR.norm>
0.000941681

>  <SCORE.SYSTEM>
0

>  <SCORE.SYSTEM.CONST>
0

>  <SCORE.SYSTEM.DIHEDRAL>
0

>  <SCORE.SYSTEM.SOLV>
0

>  <SCORE.SYSTEM.norm>
0

>  <SCORE.heavy>
26

>  <SCORE.norm>
-0.510732

>  <RMSD>
9.878

$$$$
ligand
 OpenBabel11021811433D
libRbt.so/2013.1/901 2013/11/27
 26 27  0  0  0  0  0  0  0  0999 V2000
  -26.0630  -12.9141   -0.7769 C   0  0  0  0  0  0  0  0  0  0  0  0
  -22.8948   -9.6115    6.6079 C   0  0  0  0  0  0  0  0  0  0  0  0
  -22.7979  -13.2072    9.4908 P   0  0  1  0  0  0  0  0  0  0  0  0
  -23.6627  -15.5719   10.9464 P   0  0  1  0  0  0  0  0  0  0  0  0
  -23.6550  -10.6726    3.9359 C   0  0  0  0  0  0  0  0  0  0  0  0
  -25.3505  -10.6258    2.0615 C   0  0  0  0  0  0  0  0  0  0  0  0
  -24.2970  -11.2718    2.6961 C   0  0  0  0  0  0  0  0  0  0  0  0
  -23.8347  -12.4662    2.1684 C   0  0  0  0  0  0  0  0  0  0  0  0
  -22.8103  -13.1332    2.7533 N   0  0  0  0  0  0  0  0  0  0  0  0
  -24.4119  -12.9731    1.0573 N   0  0  0  0  0  0  0  0  0  0  0  0
  -25.4364  -12.3271    0.4588 C   0  0  0  0  0  0  0  0  0  0  0  0
  -25.9023  -11.1579    0.9620 N   0  0  0  0  0  0  0  0  0  0  0  0
  -21.3893  -13.0331    9.9949 O   0  5  0  0  0  0  0  0  0  0  0  0
  -22.7693  -15.7942   12.1279 O   0  0  0  0  0  0  0  0  0  0  0  0
  -26.4856  -11.5043    6.5973 S   0  0  0  0  0  0  0  0  0  0  0  0
  -25.7202  -11.4861    5.0395 C   0  0  0  0  0  0  0  0  0  0  0  0
  -22.9737  -13.8415    8.1412 O   0  0  0  0  0  0  0  0  0  0  0  0
  -25.0729  -15.8757   11.3289 O   0  5  0  0  0  0  0  0  0  0  0  0
  -24.5226  -10.8407    5.1018 N   0  0  0  0  0  0  0  0  0  0  0  0
  -23.6511  -13.9817   10.6306 O   0  0  0  0  0  0  0  0  0  0  0  0
  -23.2464  -16.2478    9.6685 O   0  0  0  0  0  0  0  0  0  0  0  0
  -24.1733  -10.3542    6.3244 C   0  0  1  0  0  0  0  0  0  0  0  0
  -25.1980  -10.6572    7.3600 C   0  0  1  0  0  0  0  0  0  0  0  0
  -25.3315  -10.3686    8.8317 C   0  0  0  0  0  0  0  0  0  0  0  0
  -24.8769  -11.5922    9.6117 C   0  0  0  0  0  0  0  0  0  0  0  0
  -23.4782  -11.7529    9.4097 O   0  0  0  0  0  0  0  0  0  0  0  0
  1 11  1  0  0  0  0
  3 13  1  1  0  0  0
  3 17  2  0  0  0  0
  3 20  1  0  0  0  0
  3 26  1  0  0  0  0
  4 14  1  1  0  0  0
  4 18  1  0  0  0  0
  4 21  2  0  0  0  0
  4 20  1  0  0  0  0
  5 19  1  0  0  0  0
  5  7  1  0  0  0  0
  6  7  2  0  0  0  0
  6 12  1  0  0  0  0
  7  8  1  0  0  0  0
  8  9  1  0  0  0  0
  8 10  2  0  0  0  0
 10 11  1  0  0  0  0
 11 12  2  0  0  0  0
 15 23  1  0  0  0  0
 15 16  1  0  0  0  0
 16 19  1  0  0  0  0
 19 22  1  0  0  0  0
 22  2  1  1  0  0  0
 22 23  1  0  0  0  0
 23 24  1  6  0  0  0
 24 25  1  0  0  0  0
 25 26  1  0  0  0  0
M  CHG  2  13  -1  18  -1
M  END
>  <CHROM.1>
-79.64568245,1.57510584,74.65417921,100.02337374,83.64056223,67.26913693
-151.97990101,-149.09972565,-24.19388542,-12.64756343,6.78721694,-2.36586131
-1.33068413,1.09392905

>  <Name>
ligand

>  <RI>
0

>  <Rbt.Current_Directory>
/home/itssahil/PROJECTS/Mol_Feturizer/New_Systems/rnas/2GDI

>  <Rbt.Executable>
rbdock ($Id: //depot/dev/client3/rdock/2013.1/src/exe/rbdock.cxx#4 $)

>  <Rbt.Library>
libRbt.so (2013.1, Build901 2013/11/27)

>  <Rbt.Parameter_File>
/export/apps/rDock/src/rDock_2013.1_src/data/scripts/dock_solv.prm

>  <Rbt.Receptor>
prm/blind_docking_60.prm

>  <SCORE>
-10.3705

>  <SCORE.INTER>
-12.7355

>  <SCORE.INTER.CONST>
1

>  <SCORE.INTER.POLAR>
0

>  <SCORE.INTER.ROT>
8

>  <SCORE.INTER.SOLV>
15.3691

>  <SCORE.INTER.VDW>
-22.5467

>  <SCORE.INTER.norm>
-0.489828

>  <SCORE.INTRA>
2.3447

>  <SCORE.INTRA.DIHEDRAL>
3.33065

>  <SCORE.INTRA.DIHEDRAL.0>
8.13976

>  <SCORE.INTRA.POLAR>
0

>  <SCORE.INTRA.POLAR.0>
0

>  <SCORE.INTRA.REPUL>
0

>  <SCORE.INTRA.REPUL.0>
0

>  <SCORE.INTRA.SOLV>
1.39697

>  <SCORE.INTRA.SOLV.lig_0>
-82.9561

>  <SCORE.INTRA.VDW>
-0.019103

>  <SCORE.INTRA.VDW.0>
-3.29171

>  <SCORE.INTRA.norm>
0.0901809

>  <SCORE.RESTR>
0.020375

>  <SCORE.RESTR.CAVITY>
0.020375

>  <SCORE.RESTR.norm>
0.000783655

>  <SCORE.SYSTEM>
0

>  <SCORE.SYSTEM.CONST>
0

>  <SCORE.SYSTEM.DIHEDRAL>
0

>  <SCORE.SYSTEM.SOLV>
0

>  <SCORE.SYSTEM.norm>
0

>  <SCORE.heavy>
26

>  <SCORE.norm>
-0.398864

>  <RMSD>
9.878

$$$$
ligand
 OpenBabel11021811433D
libRbt.so/2013.1/901 2013/11/27
 26 27  0  0  0  0  0  0  0  0999 V2000
  -24.3180  -14.5068   11.4125 C   0  0  0  0  0  0  0  0  0  0  0  0
  -26.8521  -11.6636    5.4369 C   0  0  0  0  0  0  0  0  0  0  0  0
  -25.4907  -15.8700    4.1246 P   0  0  1  0  0  0  0  0  0  0  0  0
  -23.6896  -15.5394    6.3842 P   0  0  1  0  0  0  0  0  0  0  0  0
  -25.2250  -10.3484    7.5501 C   0  0  0  0  0  0  0  0  0  0  0  0
  -25.8080  -12.5639    8.6187 C   0  0  0  0  0  0  0  0  0  0  0  0
  -24.9900  -11.4418    8.5785 C   0  0  0  0  0  0  0  0  0  0  0  0
  -23.9476  -11.3460    9.4858 C   0  0  0  0  0  0  0  0  0  0  0  0
  -23.1240  -10.2698    9.4858 N   0  0  0  0  0  0  0  0  0  0  0  0
  -23.7493  -12.3369   10.3821 N   0  0  0  0  0  0  0  0  0  0  0  0
  -24.5595  -13.4177   10.4027 C   0  0  0  0  0  0  0  0  0  0  0  0
  -25.5850  -13.5277    9.5231 N   0  0  0  0  0  0  0  0  0  0  0  0
  -24.3166  -16.4798    3.4046 O   0  5  0  0  0  0  0  0  0  0  0  0
  -23.8577  -15.7069    7.8631 O   0  0  0  0  0  0  0  0  0  0  0  0
  -22.9926  -11.0506    4.3391 S   0  0  0  0  0  0  0  0  0  0  0  0
  -23.3423  -10.4881    5.9436 C   0  0  0  0  0  0  0  0  0  0  0  0
  -26.8407  -16.4816    3.8833 O   0  0  0  0  0  0  0  0  0  0  0  0
  -22.8144  -16.6284    5.8596 O   0  5  0  0  0  0  0  0  0  0  0  0
  -24.6472  -10.7189    6.2582 N   0  0  0  0  0  0  0  0  0  0  0  0
  -25.1376  -15.8063    5.7051 O   0  0  0  0  0  0  0  0  0  0  0  0
  -23.2633  -14.1735    5.9195 O   0  0  0  0  0  0  0  0  0  0  0  0
  -25.3933  -11.3209    5.2917 C   0  0  1  0  0  0  0  0  0  0  0  0
  -24.5934  -11.6195    4.0729 C   0  0  1  0  0  0  0  0  0  0  0  0
  -24.8930  -12.2536    2.7406 C   0  0  0  0  0  0  0  0  0  0  0  0
  -24.6127  -13.7451    2.8364 C   0  0  0  0  0  0  0  0  0  0  0  0
  -25.5965  -14.3281    3.6822 O   0  0  0  0  0  0  0  0  0  0  0  0
  1 11  1  0  0  0  0
  3 13  1  6  0  0  0
  3 17  2  0  0  0  0
  3 20  1  0  0  0  0
  3 26  1  0  0  0  0
  4 14  1  1  0  0  0
  4 18  1  0  0  0  0
  4 21  2  0  0  0  0
  4 20  1  0  0  0  0
  5 19  1  0  0  0  0
  5  7  1  0  0  0  0
  6  7  2  0  0  0  0
  6 12  1  0  0  0  0
  7  8  1  0  0  0  0
  8  9  1  0  0  0  0
  8 10  2  0  0  0  0
 10 11  1  0  0  0  0
 11 12  2  0  0  0  0
 15 23  1  0  0  0  0
 15 16  1  0  0  0  0
 16 19  1  0  0  0  0
 19 22  1  0  0  0  0
 22  2  1  1  0  0  0
 22 23  1  0  0  0  0
 23 24  1  6  0  0  0
 24 25  1  0  0  0  0
 25 26  1  0  0  0  0
M  CHG  2  13  -1  18  -1
M  END
>  <CHROM.1>
34.65658243,-85.55371841,-80.90997823,-174.67952961,89.66911444,69.44212161
-173.16083980,-4.64742357,-24.53221220,-13.45490507,6.24437416,0.10338644
1.46843908,2.50644280

>  <Name>
ligand

>  <RI>
0

>  <Rbt.Current_Directory>
/home/itssahil/PROJECTS/Mol_Feturizer/New_Systems/rnas/2GDI

>  <Rbt.Executable>
rbdock ($Id: //depot/dev/client3/rdock/2013.1/src/exe/rbdock.cxx#4 $)

>  <Rbt.Library>
libRbt.so (2013.1, Build901 2013/11/27)

>  <Rbt.Parameter_File>
/export/apps/rDock/src/rDock_2013.1_src/data/scripts/dock_solv.prm

>  <Rbt.Receptor>
prm/blind_docking_40.prm

>  <SCORE>
-9.21929

>  <SCORE.INTER>
-8.54695

>  <SCORE.INTER.CONST>
1

>  <SCORE.INTER.POLAR>
0

>  <SCORE.INTER.ROT>
8

>  <SCORE.INTER.SOLV>
13.6668

>  <SCORE.INTER.VDW>
-19.1869

>  <SCORE.INTER.norm>
-0.328729

>  <SCORE.INTRA>
-0.674282

>  <SCORE.INTRA.DIHEDRAL>
0.235854

>  <SCORE.INTRA.DIHEDRAL.0>
8.13976

>  <SCORE.INTRA.POLAR>
0

>  <SCORE.INTRA.POLAR.0>
0

>  <SCORE.INTRA.REPUL>
0

>  <SCORE.INTRA.REPUL.0>
0

>  <SCORE.INTRA.SOLV>
4.0463

>  <SCORE.INTRA.SOLV.lig_0>
-82.9561

>  <SCORE.INTRA.VDW>
-2.81536

>  <SCORE.INTRA.VDW.0>
-3.29171

>  <SCORE.INTRA.norm>
-0.0259339

>  <SCORE.RESTR>
0.00193928

>  <SCORE.RESTR.CAVITY>
0.00193928

>  <SCORE.RESTR.norm>
7.45876e-05

>  <SCORE.SYSTEM>
0

>  <SCORE.SYSTEM.CONST>
0

>  <SCORE.SYSTEM.DIHEDRAL>
0

>  <SCORE.SYSTEM.SOLV>
0

>  <SCORE.SYSTEM.norm>
0

>  <SCORE.heavy>
26

>  <SCORE.norm>
-0.354588

>  <RMSD>
9.885

$$$$
ligand
 OpenBabel11021811433D
libRbt.so/2013.1/901 2013/11/27
 26 27  0  0  0  0  0  0  0  0999 V2000
  -26.9281  -11.4804    5.2687 C   0  0  0  0  0  0  0  0  0  0  0  0
  -23.4202  -11.9154   -2.4513 C   0  0  0  0  0  0  0  0  0  0  0  0
  -27.9510  -15.2495   -6.8300 P   0  0  1  0  0  0  0  0  0  0  0  0
  -30.2017  -15.4413   -4.9979 P   0  0  1  0  0  0  0  0  0  0  0  0
  -24.0675  -12.5062    0.3904 C   0  0  0  0  0  0  0  0  0  0  0  0
  -25.3315  -10.9731    1.9530 C   0  0  0  0  0  0  0  0  0  0  0  0
  -24.8145  -12.2343    1.6851 C   0  0  0  0  0  0  0  0  0  0  0  0
  -25.0053  -13.2425    2.6157 C   0  0  0  0  0  0  0  0  0  0  0  0
  -24.5184  -14.4885    2.3990 N   0  0  0  0  0  0  0  0  0  0  0  0
  -25.6846  -12.9811    3.7536 N   0  0  0  0  0  0  0  0  0  0  0  0
  -26.1765  -11.7458    3.9923 C   0  0  0  0  0  0  0  0  0  0  0  0
  -25.9984  -10.7470    3.0934 N   0  0  0  0  0  0  0  0  0  0  0  0
  -27.0164  -16.2983   -7.3730 O   0  5  0  0  0  0  0  0  0  0  0  0
  -30.0273  -15.1602   -3.5370 O   0  0  0  0  0  0  0  0  0  0  0  0
  -27.0617  -13.6407   -1.9622 S   0  0  0  0  0  0  0  0  0  0  0  0
  -26.2128  -13.4051   -0.4666 C   0  0  0  0  0  0  0  0  0  0  0  0
  -28.8824  -14.5857   -7.8029 O   0  0  0  0  0  0  0  0  0  0  0  0
  -30.5223  -14.1702   -5.7111 O   0  5  0  0  0  0  0  0  0  0  0  0
  -25.0012  -12.8245   -0.6899 N   0  0  0  0  0  0  0  0  0  0  0  0
  -28.7538  -15.8879   -5.5751 O   0  0  0  0  0  0  0  0  0  0  0  0
  -31.1457  -16.5597   -5.3461 O   0  0  0  0  0  0  0  0  0  0  0  0
  -24.7035  -12.5535   -1.9904 C   0  0  1  0  0  0  0  0  0  0  0  0
  -25.8056  -12.9468   -2.9097 C   0  0  1  0  0  0  0  0  0  0  0  0
  -26.0130  -12.8836   -4.3997 C   0  0  0  0  0  0  0  0  0  0  0  0
  -26.4832  -14.2459   -4.8848 C   0  0  0  0  0  0  0  0  0  0  0  0
  -27.0596  -14.0830   -6.1749 O   0  0  0  0  0  0  0  0  0  0  0  0
  1 11  1  0  0  0  0
  3 13  1  6  0  0  0
  3 17  2  0  0  0  0
  3 20  1  0  0  0  0
  3 26  1  0  0  0  0
  4 14  1  1  0  0  0
  4 18  1  0  0  0  0
  4 21  2  0  0  0  0
  4 20  1  0  0  0  0
  5 19  1  0  0  0  0
  5  7  1  0  0  0  0
  6  7  2  0  0  0  0
  6 12  1  0  0  0  0
  7  8  1  0  0  0  0
  8  9  1  0  0  0  0
  8 10  2  0  0  0  0
 10 11  1  0  0  0  0
 11 12  2  0  0  0  0
 15 23  1  0  0  0  0
 15 16  1  0  0  0  0
 16 19  1  0  0  0  0
 19 22  1  0  0  0  0
 22  2  1  1  0  0  0
 22 23  1  0  0  0  0
 23 24  1  6  0  0  0
 24 25  1  0  0  0  0
 25 26  1  0  0  0  0
M  CHG  2  13  -1  18  -1
M  END
>  <CHROM.1>
-155.25052480,-28.49177612,-84.41535619,-125.86299068,-48.24345188,162.47647809
-165.91010832,-78.59372924,-27.04124978,-13.78242028,-2.38493304,1.18655746
0.34929097,1.37132425

>  <Name>
ligand

>  <RI>
0

>  <Rbt.Current_Directory>
/home/itssahil/PROJECTS/Mol_Feturizer/New_Systems/rnas/2GDI

>  <Rbt.Executable>
rbdock ($Id: //depot/dev/client3/rdock/2013.1/src/exe/rbdock.cxx#4 $)

>  <Rbt.Library>
libRbt.so (2013.1, Build901 2013/11/27)

>  <Rbt.Parameter_File>
/export/apps/rDock/src/rDock_2013.1_src/data/scripts/dock_solv.prm

>  <Rbt.Receptor>
prm/blind_docking_40.prm

>  <SCORE>
-12.7741

>  <SCORE.INTER>
-16.1457

>  <SCORE.INTER.CONST>
1

>  <SCORE.INTER.POLAR>
0

>  <SCORE.INTER.ROT>
8

>  <SCORE.INTER.SOLV>
17.4711

>  <SCORE.INTER.VDW>
-25.5208

>  <SCORE.INTER.norm>
-0.620987

>  <SCORE.INTRA>
3.37151

>  <SCORE.INTRA.DIHEDRAL>
3.22842

>  <SCORE.INTRA.DIHEDRAL.0>
8.13976

>  <SCORE.INTRA.POLAR>
0

>  <SCORE.INTRA.POLAR.0>
0

>  <SCORE.INTRA.REPUL>
0

>  <SCORE.INTRA.REPUL.0>
0

>  <SCORE.INTRA.SOLV>
1.95925

>  <SCORE.INTRA.SOLV.lig_0>
-82.9561

>  <SCORE.INTRA.VDW>
0.777678

>  <SCORE.INTRA.VDW.0>
-3.29171

>  <SCORE.INTRA.norm>
0.129673

>  <SCORE.RESTR>
0

>  <SCORE.RESTR.CAVITY>
0

>  <SCORE.RESTR.norm>
0

>  <SCORE.SYSTEM>
0

>  <SCORE.SYSTEM.CONST>
0

>  <SCORE.SYSTEM.DIHEDRAL>
0

>  <SCORE.SYSTEM.SOLV>
0

>  <SCORE.SYSTEM.norm>
0

>  <SCORE.heavy>
26

>  <SCORE.norm>
-0.491313

>  <RMSD>
9.887

$$$$
ligand
 OpenBabel11021811433D
libRbt.so/2013.1/901 2013/11/27
 26 27  0  0  0  0  0  0  0  0999 V2000
  -24.4775  -18.4775    2.2140 C   0  0  0  0  0  0  0  0  0  0  0  0
  -20.5306  -11.7479    2.4405 C   0  0  0  0  0  0  0  0  0  0  0  0
  -15.0351  -10.3038    0.5072 P   0  0  1  0  0  0  0  0  0  0  0  0
  -13.3293   -8.0065   -0.0138 P   0  0  1  0  0  0  0  0  0  0  0  0
  -22.5621  -13.2318    0.8548 C   0  0  0  0  0  0  0  0  0  0  0  0
  -22.5991  -15.2751    2.3426 C   0  0  0  0  0  0  0  0  0  0  0  0
  -23.0619  -14.6227    1.2069 C   0  0  0  0  0  0  0  0  0  0  0  0
  -23.9983  -15.2597    0.4092 C   0  0  0  0  0  0  0  0  0  0  0  0
  -24.4782  -14.6636   -0.7091 N   0  0  0  0  0  0  0  0  0  0  0  0
  -24.4385  -16.4906    0.7495 N   0  0  0  0  0  0  0  0  0  0  0  0
  -23.9721  -17.1055    1.8583 C   0  0  0  0  0  0  0  0  0  0  0  0
  -23.0549  -16.4975    2.6498 N   0  0  0  0  0  0  0  0  0  0  0  0
  -13.9870  -11.3013    0.9253 O   0  5  0  0  0  0  0  0  0  0  0  0
  -12.3641   -8.5800    0.9777 O   0  0  0  0  0  0  0  0  0  0  0  0
  -18.9435  -13.7889   -0.6888 S   0  0  0  0  0  0  0  0  0  0  0  0
  -20.6652  -13.9687   -0.5607 C   0  0  0  0  0  0  0  0  0  0  0  0
  -15.8423   -9.6553    1.5946 O   0  0  0  0  0  0  0  0  0  0  0  0
  -12.5977   -7.6433   -1.2628 O   0  5  0  0  0  0  0  0  0  0  0  0
  -21.1425  -13.2647    0.5030 N   0  0  0  0  0  0  0  0  0  0  0  0
  -14.3318   -9.2029   -0.4522 O   0  0  0  0  0  0  0  0  0  0  0  0
  -14.2103   -6.8960    0.4901 O   0  0  0  0  0  0  0  0  0  0  0  0
  -20.2136  -12.5849    1.2299 C   0  0  1  0  0  0  0  0  0  0  0  0
  -18.8415  -12.7504    0.6781 C   0  0  1  0  0  0  0  0  0  0  0  0
  -17.4776  -12.2443    1.0661 C   0  0  0  0  0  0  0  0  0  0  0  0
  -16.5548  -12.3583   -0.1371 C   0  0  0  0  0  0  0  0  0  0  0  0
  -16.0789  -11.0565   -0.4563 O   0  0  0  0  0  0  0  0  0  0  0  0
  1 11  1  0  0  0  0
  3 13  1  1  0  0  0
  3 17  2  0  0  0  0
  3 20  1  0  0  0  0
  3 26  1  0  0  0  0
  4 14  1  1  0  0  0
  4 18  1  0  0  0  0
  4 21  2  0  0  0  0
  4 20  1  0  0  0  0
  5 19  1  0  0  0  0
  5  7  1  0  0  0  0
  6  7  2  0  0  0  0
  6 12  1  0  0  0  0
  7  8  1  0  0  0  0
  8  9  1  0  0  0  0
  8 10  2  0  0  0  0
 10 11  1  0  0  0  0
 11 12  2  0  0  0  0
 15 23  1  0  0  0  0
 15 16  1  0  0  0  0
 16 19  1  0  0  0  0
 19 22  1  0  0  0  0
 22  2  1  6  0  0  0
 22 23  1  0  0  0  0
 23 24  1  1  0  0  0
 24 25  1  0  0  0  0
 25 26  1  0  0  0  0
M  CHG  2  13  -1  18  -1
M  END
>  <CHROM.1>
-74.05262940,62.12471725,66.71843472,43.22367712,20.66320541,120.21309204
70.33237492,43.49206636,-18.39313155,-12.18584094,0.59301602,-2.51778724
-0.11223812,-0.30191620

>  <Name>
ligand

>  <RI>
0

>  <Rbt.Current_Directory>
/home/itssahil/PROJECTS/Mol_Feturizer/New_Systems/rnas/2GDI

>  <Rbt.Executable>
rbdock ($Id: //depot/dev/client3/rdock/2013.1/src/exe/rbdock.cxx#4 $)

>  <Rbt.Library>
libRbt.so (2013.1, Build901 2013/11/27)

>  <Rbt.Parameter_File>
/export/apps/rDock/src/rDock_2013.1_src/data/scripts/dock_solv.prm

>  <Rbt.Receptor>
prm/pocket_docking_2.prm

>  <SCORE>
1.57584

>  <SCORE.INTER>
-4.09756

>  <SCORE.INTER.CONST>
1

>  <SCORE.INTER.POLAR>
0

>  <SCORE.INTER.ROT>
8

>  <SCORE.INTER.SOLV>
32.3655

>  <SCORE.INTER.VDW>
-22.4536

>  <SCORE.INTER.norm>
-0.157599

>  <SCORE.INTRA>
5.51148

>  <SCORE.INTRA.DIHEDRAL>
3.92116

>  <SCORE.INTRA.DIHEDRAL.0>
8.13976

>  <SCORE.INTRA.POLAR>
0

>  <SCORE.INTRA.POLAR.0>
0

>  <SCORE.INTRA.REPUL>
0

>  <SCORE.INTRA.REPUL.0>
0

>  <SCORE.INTRA.SOLV>
1.39625

>  <SCORE.INTRA.SOLV.lig_0>
-82.9561

>  <SCORE.INTRA.VDW>
2.85277

>  <SCORE.INTRA.VDW.0>
-3.29171

>  <SCORE.INTRA.norm>
0.21198

>  <SCORE.RESTR>
0.161923

>  <SCORE.RESTR.CAVITY>
0.161923

>  <SCORE.RESTR.norm>
0.00622782

>  <SCORE.SYSTEM>
0

>  <SCORE.SYSTEM.CONST>
0

>  <SCORE.SYSTEM.DIHEDRAL>
0

>  <SCORE.SYSTEM.SOLV>
0

>  <SCORE.SYSTEM.norm>
0

>  <SCORE.heavy>
26

>  <SCORE.norm>
0.0606092

>  <RMSD>
9.890

$$$$
ligand
 OpenBabel11021811433D
libRbt.so/2013.1/901 2013/11/27
 26 27  0  0  0  0  0  0  0  0999 V2000
  -22.1623   -7.6299    4.7400 C   0  0  0  0  0  0  0  0  0  0  0  0
  -25.8264  -13.4273   10.0127 C   0  0  0  0  0  0  0  0  0  0  0  0
  -23.0195  -17.1663    8.9711 P   0  0  1  0  0  0  0  0  0  0  0  0
  -22.8851  -17.3705    6.0730 P   0  0  1  0  0  0  0  0  0  0  0  0
  -24.9821  -11.1341    8.3181 C   0  0  0  0  0  0  0  0  0  0  0  0
  -24.1619   -8.8456    7.6252 C   0  0  0  0  0  0  0  0  0  0  0  0
  -24.2450  -10.2078    7.3658 C   0  0  0  0  0  0  0  0  0  0  0  0
  -23.6311  -10.7068    6.2287 C   0  0  0  0  0  0  0  0  0  0  0  0
  -23.6861  -12.0282    5.9331 N   0  0  0  0  0  0  0  0  0  0  0  0
  -22.9696   -9.8664    5.4036 N   0  0  0  0  0  0  0  0  0  0  0  0
  -22.9040   -8.5449    5.6765 C   0  0  0  0  0  0  0  0  0  0  0  0
  -23.4998   -8.0391    6.7840 N   0  0  0  0  0  0  0  0  0  0  0  0
  -24.4271  -17.6767    9.1341 O   0  5  0  0  0  0  0  0  0  0  0  0
  -21.9456  -18.5274    6.2234 O   0  0  0  0  0  0  0  0  0  0  0  0
  -21.9126  -12.4523   10.4694 S   0  0  0  0  0  0  0  0  0  0  0  0
  -22.7378  -11.4412    9.3249 C   0  0  0  0  0  0  0  0  0  0  0  0
  -21.9007  -18.1135    9.2963 O   0  0  0  0  0  0  0  0  0  0  0  0
  -24.2810  -17.8813    5.9399 O   0  5  0  0  0  0  0  0  0  0  0  0
  -24.0434  -11.8120    9.2123 N   0  0  0  0  0  0  0  0  0  0  0  0
  -22.8717  -16.5581    7.4760 O   0  0  0  0  0  0  0  0  0  0  0  0
  -22.5282  -16.3649    5.0124 O   0  0  0  0  0  0  0  0  0  0  0  0
  -24.4313  -12.8618    9.9874 C   0  0  1  0  0  0  0  0  0  0  0  0
  -23.3162  -13.3798   10.8256 C   0  0  1  0  0  0  0  0  0  0  0  0
  -23.1783  -14.4901   11.8332 C   0  0  0  0  0  0  0  0  0  0  0  0
  -23.5489  -15.8044   11.1643 C   0  0  0  0  0  0  0  0  0  0  0  0
  -22.8401  -15.8917    9.9342 O   0  0  0  0  0  0  0  0  0  0  0  0
  1 11  1  0  0  0  0
  3 13  1  1  0  0  0
  3 17  2  0  0  0  0
  3 20  1  0  0  0  0
  3 26  1  0  0  0  0
  4 14  1  1  0  0  0
  4 18  1  0  0  0  0
  4 21  2  0  0  0  0
  4 20  1  0  0  0  0
  5 19  1  0  0  0  0
  5  7  1  0  0  0  0
  6  7  2  0  0  0  0
  6 12  1  0  0  0  0
  7  8  1  0  0  0  0
  8  9  1  0  0  0  0
  8 10  2  0  0  0  0
 10 11  1  0  0  0  0
 11 12  2  0  0  0  0
 15 23  1  0  0  0  0
 15 16  1  0  0  0  0
 16 19  1  0  0  0  0
 19 22  1  0  0  0  0
 22  2  1  1  0  0  0
 22 23  1  0  0  0  0
 23 24  1  6  0  0  0
 24 25  1  0  0  0  0
 25 26  1  0  0  0  0
M  CHG  2  13  -1  18  -1
M  END
>  <CHROM.1>
-68.65877358,11.90672940,-98.66369563,-48.19023647,-120.46152259,49.21694942
-179.54338851,31.64594616,-23.26483975,-13.86759215,8.07825955,-2.00917298
-1.46472449,2.56453452

>  <Name>
ligand

>  <RI>
0

>  <Rbt.Current_Directory>
/home/itssahil/PROJECTS/Mol_Feturizer/New_Systems/rnas/2GDI

>  <Rbt.Executable>
rbdock ($Id: //depot/dev/client3/rdock/2013.1/src/exe/rbdock.cxx#4 $)

>  <Rbt.Library>
libRbt.so (2013.1, Build901 2013/11/27)

>  <Rbt.Parameter_File>
/export/apps/rDock/src/rDock_2013.1_src/data/scripts/dock_solv.prm

>  <Rbt.Receptor>
prm/blind_docking_40.prm

>  <SCORE>
-7.23353

>  <SCORE.INTER>
-7.40029

>  <SCORE.INTER.CONST>
1

>  <SCORE.INTER.POLAR>
0

>  <SCORE.INTER.ROT>
8

>  <SCORE.INTER.SOLV>
21.8605

>  <SCORE.INTER.VDW>
-21.1537

>  <SCORE.INTER.norm>
-0.284627

>  <SCORE.INTRA>
-0.0591176

>  <SCORE.INTRA.DIHEDRAL>
-1.63691

>  <SCORE.INTRA.DIHEDRAL.0>
8.13976

>  <SCORE.INTRA.POLAR>
0

>  <SCORE.INTRA.POLAR.0>
0

>  <SCORE.INTRA.REPUL>
0

>  <SCORE.INTRA.REPUL.0>
0

>  <SCORE.INTRA.SOLV>
1.3018

>  <SCORE.INTRA.SOLV.lig_0>
-82.9561

>  <SCORE.INTRA.VDW>
0.10844

>  <SCORE.INTRA.VDW.0>
-3.29171

>  <SCORE.INTRA.norm>
-0.00227375

>  <SCORE.RESTR>
0.225876

>  <SCORE.RESTR.CAVITY>
0.225876

>  <SCORE.RESTR.norm>
0.00868755

>  <SCORE.SYSTEM>
0

>  <SCORE.SYSTEM.CONST>
0

>  <SCORE.SYSTEM.DIHEDRAL>
0

>  <SCORE.SYSTEM.SOLV>
0

>  <SCORE.SYSTEM.norm>
0

>  <SCORE.heavy>
26

>  <SCORE.norm>
-0.278213

>  <RMSD>
9.903

$$$$
ligand
 OpenBabel11021811433D
libRbt.so/2013.1/901 2013/11/27
 26 27  0  0  0  0  0  0  0  0999 V2000
  -26.1298  -12.9659   -0.7809 C   0  0  0  0  0  0  0  0  0  0  0  0
  -22.8764   -9.6283    6.5514 C   0  0  0  0  0  0  0  0  0  0  0  0
  -22.8319  -13.3735    9.5867 P   0  0  1  0  0  0  0  0  0  0  0  0
  -24.2867  -15.4862   10.9574 P   0  0  1  0  0  0  0  0  0  0  0  0
  -23.6774  -10.6817    3.8883 C   0  0  0  0  0  0  0  0  0  0  0  0
  -25.3989  -10.6586    2.0373 C   0  0  0  0  0  0  0  0  0  0  0  0
  -24.3310  -11.2922    2.6601 C   0  0  0  0  0  0  0  0  0  0  0  0
  -23.8653  -12.4849    2.1313 C   0  0  0  0  0  0  0  0  0  0  0  0
  -22.8270  -13.1401    2.7050 N   0  0  0  0  0  0  0  0  0  0  0  0
  -24.4531  -13.0019    1.0305 N   0  0  0  0  0  0  0  0  0  0  0  0
  -25.4915  -12.3677    0.4434 C   0  0  0  0  0  0  0  0  0  0  0  0
  -25.9610  -11.2005    0.9479 N   0  0  0  0  0  0  0  0  0  0  0  0
  -22.2484  -12.9776   10.9176 O   0  5  0  0  0  0  0  0  0  0  0  0
  -24.4749  -16.9463   10.6815 O   0  0  0  0  0  0  0  0  0  0  0  0
  -26.4487  -11.5553    6.5983 S   0  0  0  0  0  0  0  0  0  0  0  0
  -25.7134  -11.5211    5.0263 C   0  0  0  0  0  0  0  0  0  0  0  0
  -21.9492  -13.2389    8.3795 O   0  0  0  0  0  0  0  0  0  0  0  0
  -23.4079  -15.3180   12.1519 O   0  5  0  0  0  0  0  0  0  0  0  0
  -24.5210  -10.8646    5.0695 N   0  0  0  0  0  0  0  0  0  0  0  0
  -23.4326  -14.8726    9.7234 O   0  0  0  0  0  0  0  0  0  0  0  0
  -25.5433  -14.6629   11.0371 O   0  0  0  0  0  0  0  0  0  0  0  0
  -24.1530  -10.3817    6.2880 C   0  0  1  0  0  0  0  0  0  0  0  0
  -25.1549  -10.7002    7.3412 C   0  0  1  0  0  0  0  0  0  0  0  0
  -25.2629  -10.4212    8.8168 C   0  0  0  0  0  0  0  0  0  0  0  0
  -24.0691  -11.0475    9.5202 C   0  0  0  0  0  0  0  0  0  0  0  0
  -24.1235  -12.4545    9.3191 O   0  0  0  0  0  0  0  0  0  0  0  0
  1 11  1  0  0  0  0
  3 13  1  1  0  0  0
  3 17  2  0  0  0  0
  3 20  1  0  0  0  0
  3 26  1  0  0  0  0
  4 14  1  6  0  0  0
  4 18  1  0  0  0  0
  4 21  2  0  0  0  0
  4 20  1  0  0  0  0
  5 19  1  0  0  0  0
  5  7  1  0  0  0  0
  6  7  2  0  0  0  0
  6 12  1  0  0  0  0
  7  8  1  0  0  0  0
  8  9  1  0  0  0  0
  8 10  2  0  0  0  0
 10 11  1  0  0  0  0
 11 12  2  0  0  0  0
 15 23  1  0  0  0  0
 15 16  1  0  0  0  0
 16 19  1  0  0  0  0
 19 22  1  0  0  0  0
 22  2  1  1  0  0  0
 22 23  1  0  0  0  0
 23 24  1  6  0  0  0
 24 25  1  0  0  0  0
 25 26  1  0  0  0  0
M  CHG  2  13  -1  18  -1
M  END
>  <CHROM.1>
42.04789119,1.01399423,75.24721473,-173.68421943,121.39236716,-62.23286603
163.70210866,47.03000386,-24.31896842,-12.65124384,6.81334350,2.88824997
-1.43398044,0.03320530

>  <Name>
ligand

>  <RI>
0

>  <Rbt.Current_Directory>
/home/itssahil/PROJECTS/Mol_Feturizer/New_Systems/rnas/2GDI

>  <Rbt.Executable>
rbdock ($Id: //depot/dev/client3/rdock/2013.1/src/exe/rbdock.cxx#4 $)

>  <Rbt.Library>
libRbt.so (2013.1, Build901 2013/11/27)

>  <Rbt.Parameter_File>
/export/apps/rDock/src/rDock_2013.1_src/data/scripts/dock_solv.prm

>  <Rbt.Receptor>
prm/blind_docking_40.prm

>  <SCORE>
-13.8431

>  <SCORE.INTER>
-14.0099

>  <SCORE.INTER.CONST>
1

>  <SCORE.INTER.POLAR>
0

>  <SCORE.INTER.ROT>
8

>  <SCORE.INTER.SOLV>
14.5897

>  <SCORE.INTER.VDW>
-23.1365

>  <SCORE.INTER.norm>
-0.538841

>  <SCORE.INTRA>
0.164202

>  <SCORE.INTRA.DIHEDRAL>
-1.55057

>  <SCORE.INTRA.DIHEDRAL.0>
8.13976

>  <SCORE.INTRA.POLAR>
0

>  <SCORE.INTRA.POLAR.0>
0

>  <SCORE.INTRA.REPUL>
0

>  <SCORE.INTRA.REPUL.0>
0

>  <SCORE.INTRA.SOLV>
2.22785

>  <SCORE.INTRA.SOLV.lig_0>
-82.9561

>  <SCORE.INTRA.VDW>
-0.174435

>  <SCORE.INTRA.VDW.0>
-3.29171

>  <SCORE.INTRA.norm>
0.00631545

>  <SCORE.RESTR>
0.00253628

>  <SCORE.RESTR.CAVITY>
0.00253628

>  <SCORE.RESTR.norm>
9.75493e-05

>  <SCORE.SYSTEM>
0

>  <SCORE.SYSTEM.CONST>
0

>  <SCORE.SYSTEM.DIHEDRAL>
0

>  <SCORE.SYSTEM.SOLV>
0

>  <SCORE.SYSTEM.norm>
0

>  <SCORE.heavy>
26

>  <SCORE.norm>
-0.532428

>  <RMSD>
9.917

$$$$
ligand
 OpenBabel11021811433D
libRbt.so/2013.1/901 2013/11/27
 26 27  0  0  0  0  0  0  0  0999 V2000
  -26.6571  -13.2909   -1.0491 C   0  0  0  0  0  0  0  0  0  0  0  0
  -23.0919  -12.3880    6.6127 C   0  0  0  0  0  0  0  0  0  0  0  0
  -24.4507  -14.2615   10.5651 P   0  0  1  0  0  0  0  0  0  0  0  0
  -23.7300  -16.1508    8.4747 P   0  0  1  0  0  0  0  0  0  0  0  0
  -23.9516  -11.8593    3.8155 C   0  0  0  0  0  0  0  0  0  0  0  0
  -25.1203  -11.2602    1.6555 C   0  0  0  0  0  0  0  0  0  0  0  0
  -24.6757  -12.2393    2.5350 C   0  0  0  0  0  0  0  0  0  0  0  0
  -24.8936  -13.5693    2.2148 C   0  0  0  0  0  0  0  0  0  0  0  0
  -24.4792  -14.5594    3.0421 N   0  0  0  0  0  0  0  0  0  0  0  0
  -25.5274  -13.8839    1.0642 N   0  0  0  0  0  0  0  0  0  0  0  0
  -25.9521  -12.9136    0.2256 C   0  0  0  0  0  0  0  0  0  0  0  0
  -25.7483  -11.6070    0.5233 N   0  0  0  0  0  0  0  0  0  0  0  0
  -25.8772  -13.8632   10.8388 O   0  5  0  0  0  0  0  0  0  0  0  0
  -24.5279  -15.5626    7.3518 O   0  0  0  0  0  0  0  0  0  0  0  0
  -27.0239  -11.4304    6.2982 S   0  0  0  0  0  0  0  0  0  0  0  0
  -26.2013  -11.4435    4.7697 C   0  0  0  0  0  0  0  0  0  0  0  0
  -23.4878  -14.2111   11.7162 O   0  0  0  0  0  0  0  0  0  0  0  0
  -22.3912  -15.4935    8.5271 O   0  5  0  0  0  0  0  0  0  0  0  0
  -24.8895  -11.7704    4.9346 N   0  0  0  0  0  0  0  0  0  0  0  0
  -24.4594  -15.7194    9.8569 O   0  0  0  0  0  0  0  0  0  0  0  0
  -23.6442  -17.6525    8.5066 O   0  0  0  0  0  0  0  0  0  0  0  0
  -24.4945  -12.0126    6.2147 C   0  0  1  0  0  0  0  0  0  0  0  0
  -25.6184  -11.8801    7.1810 C   0  0  1  0  0  0  0  0  0  0  0  0
  -25.7528  -12.0279    8.6733 C   0  0  0  0  0  0  0  0  0  0  0  0
  -24.3683  -11.9524    9.2975 C   0  0  0  0  0  0  0  0  0  0  0  0
  -23.8701  -13.2777    9.4340 O   0  0  0  0  0  0  0  0  0  0  0  0
  1 11  1  0  0  0  0
  3 13  1  1  0  0  0
  3 17  2  0  0  0  0
  3 20  1  0  0  0  0
  3 26  1  0  0  0  0
  4 14  1  6  0  0  0
  4 18  1  0  0  0  0
  4 21  2  0  0  0  0
  4 20  1  0  0  0  0
  5 19  1  0  0  0  0
  5  7  1  0  0  0  0
  6  7  2  0  0  0  0
  6 12  1  0  0  0  0
  7  8  1  0  0  0  0
  8  9  1  0  0  0  0
  8 10  2  0  0  0  0
 10 11  1  0  0  0  0
 11 12  2  0  0  0  0
 15 23  1  0  0  0  0
 15 16  1  0  0  0  0
 16 19  1  0  0  0  0
 19 22  1  0  0  0  0
 22  2  1  6  0  0  0
 22 23  1  0  0  0  0
 23 24  1  1  0  0  0
 24 25  1  0  0  0  0
 25 26  1  0  0  0  0
M  CHG  2  13  -1  18  -1
M  END
>  <CHROM.1>
127.75055237,-28.44930835,93.96607555,-74.48978353,-160.88730267,-93.52133741
-73.64073604,28.55286878,-24.80012774,-13.48513803,6.38926186,-2.00088485
-1.16579938,1.42422192

>  <Name>
ligand

>  <RI>
0

>  <Rbt.Current_Directory>
/home/itssahil/PROJECTS/Mol_Feturizer/New_Systems/rnas/2GDI

>  <Rbt.Executable>
rbdock ($Id: //depot/dev/client3/rdock/2013.1/src/exe/rbdock.cxx#4 $)

>  <Rbt.Library>
libRbt.so (2013.1, Build901 2013/11/27)

>  <Rbt.Parameter_File>
/export/apps/rDock/src/rDock_2013.1_src/data/scripts/dock_solv.prm

>  <Rbt.Receptor>
prm/blind_docking_80.prm

>  <SCORE>
-6.7534

>  <SCORE.INTER>
-12.2652

>  <SCORE.INTER.CONST>
1

>  <SCORE.INTER.POLAR>
0

>  <SCORE.INTER.ROT>
8

>  <SCORE.INTER.SOLV>
16.8523

>  <SCORE.INTER.VDW>
-22.7275

>  <SCORE.INTER.norm>
-0.471738

>  <SCORE.INTRA>
5.51177

>  <SCORE.INTRA.DIHEDRAL>
5.22249

>  <SCORE.INTRA.DIHEDRAL.0>
8.13976

>  <SCORE.INTRA.POLAR>
0

>  <SCORE.INTRA.POLAR.0>
0

>  <SCORE.INTRA.REPUL>
0.0151546

>  <SCORE.INTRA.REPUL.0>
0

>  <SCORE.INTRA.SOLV>
2.70861

>  <SCORE.INTRA.SOLV.lig_0>
-82.9561

>  <SCORE.INTRA.VDW>
1.47045

>  <SCORE.INTRA.VDW.0>
-3.29171

>  <SCORE.INTRA.norm>
0.211991

>  <SCORE.RESTR>
0

>  <SCORE.RESTR.CAVITY>
0

>  <SCORE.RESTR.norm>
0

>  <SCORE.SYSTEM>
0

>  <SCORE.SYSTEM.CONST>
0

>  <SCORE.SYSTEM.DIHEDRAL>
0

>  <SCORE.SYSTEM.SOLV>
0

>  <SCORE.SYSTEM.norm>
0

>  <SCORE.heavy>
26

>  <SCORE.norm>
-0.259746

>  <RMSD>
9.923

$$$$
ligand
 OpenBabel11021811433D
libRbt.so/2013.1/901 2013/11/27
 26 27  0  0  0  0  0  0  0  0999 V2000
  -24.1985  -15.8875   10.9993 C   0  0  0  0  0  0  0  0  0  0  0  0
  -26.6106  -11.7018    5.0028 C   0  0  0  0  0  0  0  0  0  0  0  0
  -25.4300  -12.4592    0.5160 P   0  0  1  0  0  0  0  0  0  0  0  0
  -25.2606  -12.8190   -2.3650 P   0  0  1  0  0  0  0  0  0  0  0  0
  -25.7130  -11.3483    7.8158 C   0  0  0  0  0  0  0  0  0  0  0  0
  -25.3752  -12.4963   10.0424 C   0  0  0  0  0  0  0  0  0  0  0  0
  -25.3025  -12.5457    8.6561 C   0  0  0  0  0  0  0  0  0  0  0  0
  -24.8612  -13.7129    8.0545 C   0  0  0  0  0  0  0  0  0  0  0  0
  -24.7723  -13.8079    6.7056 N   0  0  0  0  0  0  0  0  0  0  0  0
  -24.5146  -14.7695    8.8213 N   0  0  0  0  0  0  0  0  0  0  0  0
  -24.5923  -14.6967   10.1680 C   0  0  0  0  0  0  0  0  0  0  0  0
  -25.0209  -13.5623   10.7737 N   0  0  0  0  0  0  0  0  0  0  0  0
  -26.4645  -13.1115    1.3951 O   0  5  0  0  0  0  0  0  0  0  0  0
  -23.9993  -12.0146   -2.4405 O   0  0  0  0  0  0  0  0  0  0  0  0
  -22.6916  -10.6933    5.3199 S   0  0  0  0  0  0  0  0  0  0  0  0
  -23.4876  -10.8260    6.8567 C   0  0  0  0  0  0  0  0  0  0  0  0
  -24.0407  -13.0280    0.5475 O   0  0  0  0  0  0  0  0  0  0  0  0
  -24.9178  -14.2602   -2.1847 O   0  5  0  0  0  0  0  0  0  0  0  0
  -24.7960  -11.1657    6.6906 N   0  0  0  0  0  0  0  0  0  0  0  0
  -26.0158  -12.3966   -0.9939 O   0  0  0  0  0  0  0  0  0  0  0  0
  -26.2558  -12.5898   -3.4697 O   0  0  0  0  0  0  0  0  0  0  0  0
  -25.2084  -11.3278    5.4034 C   0  0  1  0  0  0  0  0  0  0  0  0
  -24.1037  -11.1086    4.4307 C   0  0  1  0  0  0  0  0  0  0  0  0
  -23.9921  -11.1520    2.9299 C   0  0  0  0  0  0  0  0  0  0  0  0
  -25.2552  -10.5550    2.3295 C   0  0  0  0  0  0  0  0  0  0  0  0
  -25.3077  -10.9176    0.9552 O   0  0  0  0  0  0  0  0  0  0  0  0
  1 11  1  0  0  0  0
  3 13  1  1  0  0  0
  3 17  2  0  0  0  0
  3 20  1  0  0  0  0
  3 26  1  0  0  0  0
  4 14  1  6  0  0  0
  4 18  1  0  0  0  0
  4 21  2  0  0  0  0
  4 20  1  0  0  0  0
  5 19  1  0  0  0  0
  5  7  1  0  0  0  0
  6  7  2  0  0  0  0
  6 12  1  0  0  0  0
  7  8  1  0  0  0  0
  8  9  1  0  0  0  0
  8 10  2  0  0  0  0
 10 11  1  0  0  0  0
 11 12  2  0  0  0  0
 15 23  1  0  0  0  0
 15 16  1  0  0  0  0
 16 19  1  0  0  0  0
 19 22  1  0  0  0  0
 22  2  1  1  0  0  0
 22 23  1  0  0  0  0
 23 24  1  6  0  0  0
 24 25  1  0  0  0  0
 25 26  1  0  0  0  0
M  CHG  2  13  -1  18  -1
M  END
>  <CHROM.1>
-132.66249810,-65.88999638,139.88980415,-56.65159882,-139.97328855,-164.63953359
63.44598035,44.24472508,-24.88908550,-12.44555385,3.69208775,1.37620046,1.27429538
1.82148506

>  <Name>
ligand

>  <RI>
0

>  <Rbt.Current_Directory>
/home/itssahil/PROJECTS/Mol_Feturizer/New_Systems/rnas/2GDI

>  <Rbt.Executable>
rbdock ($Id: //depot/dev/client3/rdock/2013.1/src/exe/rbdock.cxx#4 $)

>  <Rbt.Library>
libRbt.so (2013.1, Build901 2013/11/27)

>  <Rbt.Parameter_File>
/export/apps/rDock/src/rDock_2013.1_src/data/scripts/dock_solv.prm

>  <Rbt.Receptor>
prm/blind_docking_100.prm

>  <SCORE>
-13.1494

>  <SCORE.INTER>
-17.321

>  <SCORE.INTER.CONST>
1

>  <SCORE.INTER.POLAR>
0

>  <SCORE.INTER.ROT>
8

>  <SCORE.INTER.SOLV>
16.9726

>  <SCORE.INTER.VDW>
-26.1382

>  <SCORE.INTER.norm>
-0.666193

>  <SCORE.INTRA>
4.1716

>  <SCORE.INTRA.DIHEDRAL>
0.403255

>  <SCORE.INTRA.DIHEDRAL.0>
8.13976

>  <SCORE.INTRA.POLAR>
0

>  <SCORE.INTRA.POLAR.0>
0

>  <SCORE.INTRA.REPUL>
0

>  <SCORE.INTRA.REPUL.0>
0

>  <SCORE.INTRA.SOLV>
6.32998

>  <SCORE.INTRA.SOLV.lig_0>
-82.9561

>  <SCORE.INTRA.VDW>
0.804983

>  <SCORE.INTRA.VDW.0>
-3.29171

>  <SCORE.INTRA.norm>
0.160446

>  <SCORE.RESTR>
0

>  <SCORE.RESTR.CAVITY>
0

>  <SCORE.RESTR.norm>
0

>  <SCORE.SYSTEM>
0

>  <SCORE.SYSTEM.CONST>
0

>  <SCORE.SYSTEM.DIHEDRAL>
0

>  <SCORE.SYSTEM.SOLV>
0

>  <SCORE.SYSTEM.norm>
0

>  <SCORE.heavy>
26

>  <SCORE.norm>
-0.505747

>  <RMSD>
9.926

$$$$
ligand
 OpenBabel11021811433D
libRbt.so/2013.1/901 2013/11/27
 26 27  0  0  0  0  0  0  0  0999 V2000
  -25.5344  -13.6322   -1.7893 C   0  0  0  0  0  0  0  0  0  0  0  0
  -25.7643  -11.7411    6.5836 C   0  0  0  0  0  0  0  0  0  0  0  0
  -23.7855  -14.6984    8.4286 P   0  0  1  0  0  0  0  0  0  0  0  0
  -23.9481  -14.9770   11.3191 P   0  0  1  0  0  0  0  0  0  0  0  0
  -26.0965  -11.7993    3.6290 C   0  0  0  0  0  0  0  0  0  0  0  0
  -26.2234  -13.6016    1.8610 C   0  0  0  0  0  0  0  0  0  0  0  0
  -25.9375  -12.2847    2.1981 C   0  0  0  0  0  0  0  0  0  0  0  0
  -25.5175  -11.4193    1.2013 C   0  0  0  0  0  0  0  0  0  0  0  0
  -25.2259  -10.1260    1.4821 N   0  0  0  0  0  0  0  0  0  0  0  0
  -25.3966  -11.8695   -0.0665 N   0  0  0  0  0  0  0  0  0  0  0  0
  -25.6790  -13.1554   -0.3694 C   0  0  0  0  0  0  0  0  0  0  0  0
  -26.0902  -14.0163    0.5934 N   0  0  0  0  0  0  0  0  0  0  0  0
  -22.9108  -15.5633    7.5596 O   0  5  0  0  0  0  0  0  0  0  0  0
  -24.5846  -16.3280   11.2037 O   0  0  0  0  0  0  0  0  0  0  0  0
  -22.2916  -11.1453    4.5682 S   0  0  0  0  0  0  0  0  0  0  0  0
  -23.6557  -11.3806    3.5208 C   0  0  0  0  0  0  0  0  0  0  0  0
  -25.2573  -14.9960    8.4383 O   0  0  0  0  0  0  0  0  0  0  0  0
  -22.8766  -15.0223   12.3568 O   0  5  0  0  0  0  0  0  0  0  0  0
  -24.7903  -11.5749    4.2485 N   0  0  0  0  0  0  0  0  0  0  0  0
  -23.1665  -14.6962    9.9265 O   0  0  0  0  0  0  0  0  0  0  0  0
  -24.8896  -13.8181   11.5028 O   0  0  0  0  0  0  0  0  0  0  0  0
  -24.6398  -11.5486    5.6013 C   0  0  1  0  0  0  0  0  0  0  0  0
  -23.2303  -11.2891    6.0018 C   0  0  1  0  0  0  0  0  0  0  0  0
  -22.5118  -11.1605    7.3188 C   0  0  0  0  0  0  0  0  0  0  0  0
  -22.3505  -12.5464    7.9235 C   0  0  0  0  0  0  0  0  0  0  0  0
  -23.6253  -13.1771    7.9342 O   0  0  0  0  0  0  0  0  0  0  0  0
  1 11  1  0  0  0  0
  3 13  1  6  0  0  0
  3 17  2  0  0  0  0
  3 20  1  0  0  0  0
  3 26  1  0  0  0  0
  4 14  1  6  0  0  0
  4 18  1  0  0  0  0
  4 21  2  0  0  0  0
  4 20  1  0  0  0  0
  5 19  1  0  0  0  0
  5  7  1  0  0  0  0
  6  7  2  0  0  0  0
  6 12  1  0  0  0  0
  7  8  1  0  0  0  0
  8  9  1  0  0  0  0
  8 10  2  0  0  0  0
 10 11  1  0  0  0  0
 11 12  2  0  0  0  0
 15 23  1  0  0  0  0
 15 16  1  0  0  0  0
 16 19  1  0  0  0  0
 19 22  1  0  0  0  0
 22  2  1  1  0  0  0
 22 23  1  0  0  0  0
 23 24  1  1  0  0  0
 24 25  1  0  0  0  0
 25 26  1  0  0  0  0
M  CHG  2  13  -1  18  -1
M  END
>  <CHROM.1>
-130.16172321,20.79852694,108.20309498,56.84116526,-103.89601891,-51.59562846
176.10669608,-58.45892901,-24.28856261,-13.14305452,6.03855673,1.85762341
-0.99026620,-1.06736430

>  <Name>
ligand

>  <RI>
0

>  <Rbt.Current_Directory>
/home/itssahil/PROJECTS/Mol_Feturizer/New_Systems/rnas/2GDI

>  <Rbt.Executable>
rbdock ($Id: //depot/dev/client3/rdock/2013.1/src/exe/rbdock.cxx#4 $)

>  <Rbt.Library>
libRbt.so (2013.1, Build901 2013/11/27)

>  <Rbt.Parameter_File>
/export/apps/rDock/src/rDock_2013.1_src/data/scripts/dock_solv.prm

>  <Rbt.Receptor>
prm/blind_docking_100.prm

>  <SCORE>
-10.2372

>  <SCORE.INTER>
-11.3262

>  <SCORE.INTER.CONST>
1

>  <SCORE.INTER.POLAR>
0

>  <SCORE.INTER.ROT>
8

>  <SCORE.INTER.SOLV>
25.0609

>  <SCORE.INTER.VDW>
-24.8377

>  <SCORE.INTER.norm>
-0.435622

>  <SCORE.INTRA>
1.08892

>  <SCORE.INTRA.DIHEDRAL>
-0.7611

>  <SCORE.INTRA.DIHEDRAL.0>
8.13976

>  <SCORE.INTRA.POLAR>
0

>  <SCORE.INTRA.POLAR.0>
0

>  <SCORE.INTRA.REPUL>
0

>  <SCORE.INTRA.REPUL.0>
0

>  <SCORE.INTRA.SOLV>
2.07869

>  <SCORE.INTRA.SOLV.lig_0>
-82.9561

>  <SCORE.INTRA.VDW>
0.430131

>  <SCORE.INTRA.VDW.0>
-3.29171

>  <SCORE.INTRA.norm>
0.0418817

>  <SCORE.RESTR>
0

>  <SCORE.RESTR.CAVITY>
0

>  <SCORE.RESTR.norm>
0

>  <SCORE.SYSTEM>
0

>  <SCORE.SYSTEM.CONST>
0

>  <SCORE.SYSTEM.DIHEDRAL>
0

>  <SCORE.SYSTEM.SOLV>
0

>  <SCORE.SYSTEM.norm>
0

>  <SCORE.heavy>
26

>  <SCORE.norm>
-0.39374

>  <RMSD>
9.932

$$$$
ligand
 OpenBabel11021811433D
libRbt.so/2013.1/901 2013/11/27
 26 27  0  0  0  0  0  0  0  0999 V2000
  -25.5571  -11.6959    1.0511 C   0  0  0  0  0  0  0  0  0  0  0  0
  -22.4517  -12.2434    8.2552 C   0  0  0  0  0  0  0  0  0  0  0  0
  -24.2666  -14.7258   11.0118 P   0  0  1  0  0  0  0  0  0  0  0  0
  -23.6594  -17.0650    9.3937 P   0  0  1  0  0  0  0  0  0  0  0  0
  -22.4309  -10.6328    5.7554 C   0  0  0  0  0  0  0  0  0  0  0  0
  -23.7137   -9.8751    3.7132 C   0  0  0  0  0  0  0  0  0  0  0  0
  -23.2659  -10.9152    4.5178 C   0  0  0  0  0  0  0  0  0  0  0  0
  -23.5842  -12.2156    4.1621 C   0  0  0  0  0  0  0  0  0  0  0  0
  -23.1707  -13.2627    4.9164 N   0  0  0  0  0  0  0  0  0  0  0  0
  -24.3161  -12.4434    3.0498 N   0  0  0  0  0  0  0  0  0  0  0  0
  -24.7417  -11.4150    2.2841 C   0  0  0  0  0  0  0  0  0  0  0  0
  -24.4405  -10.1362    2.6177 N   0  0  0  0  0  0  0  0  0  0  0  0
  -25.7281  -14.9296   11.3133 O   0  5  0  0  0  0  0  0  0  0  0  0
  -23.6740  -17.3096    7.9160 O   0  0  0  0  0  0  0  0  0  0  0  0
  -24.9838   -9.0729    8.3700 S   0  0  0  0  0  0  0  0  0  0  0  0
  -24.1181   -9.1997    6.8708 C   0  0  0  0  0  0  0  0  0  0  0  0
  -23.2840  -15.0833   12.0894 O   0  0  0  0  0  0  0  0  0  0  0  0
  -22.2826  -17.2990    9.9199 O   0  5  0  0  0  0  0  0  0  0  0  0
  -23.2862  -10.2779    6.8879 N   0  0  0  0  0  0  0  0  0  0  0  0
  -23.9270  -15.4818    9.6189 O   0  0  0  0  0  0  0  0  0  0  0  0
  -24.7176  -17.7781   10.1906 O   0  0  0  0  0  0  0  0  0  0  0  0
  -23.2946  -11.0161    8.0318 C   0  0  1  0  0  0  0  0  0  0  0  0
  -24.2510  -10.4783    9.0370 C   0  0  1  0  0  0  0  0  0  0  0  0
  -24.6567  -10.8788   10.4306 C   0  0  0  0  0  0  0  0  0  0  0  0
  -25.1468  -12.3180   10.4011 C   0  0  0  0  0  0  0  0  0  0  0  0
  -24.0418  -13.1690   10.6798 O   0  0  0  0  0  0  0  0  0  0  0  0
  1 11  1  0  0  0  0
  3 13  1  1  0  0  0
  3 17  2  0  0  0  0
  3 20  1  0  0  0  0
  3 26  1  0  0  0  0
  4 14  1  6  0  0  0
  4 18  1  0  0  0  0
  4 21  2  0  0  0  0
  4 20  1  0  0  0  0
  5 19  1  0  0  0  0
  5  7  1  0  0  0  0
  6  7  2  0  0  0  0
  6 12  1  0  0  0  0
  7  8  1  0  0  0  0
  8  9  1  0  0  0  0
  8 10  2  0  0  0  0
 10 11  1  0  0  0  0
 11 12  2  0  0  0  0
 15 23  1  0  0  0  0
 15 16  1  0  0  0  0
 16 19  1  0  0  0  0
 19 22  1  0  0  0  0
 22  2  1  6  0  0  0
 22 23  1  0  0  0  0
 23 24  1  1  0  0  0
 24 25  1  0  0  0  0
 25 26  1  0  0  0  0
M  CHG  2  13  -1  18  -1
M  END
>  <CHROM.1>
-79.71529198,-60.30857239,82.68516199,168.43469769,124.88821820,91.98435390
167.79535937,-14.61042000,-24.00896871,-12.99427231,7.81668559,-1.84518536
-1.48120572,1.98288406

>  <Name>
ligand

>  <RI>
0

>  <Rbt.Current_Directory>
/home/itssahil/PROJECTS/Mol_Feturizer/New_Systems/rnas/2GDI

>  <Rbt.Executable>
rbdock ($Id: //depot/dev/client3/rdock/2013.1/src/exe/rbdock.cxx#4 $)

>  <Rbt.Library>
libRbt.so (2013.1, Build901 2013/11/27)

>  <Rbt.Parameter_File>
/export/apps/rDock/src/rDock_2013.1_src/data/scripts/dock_solv.prm

>  <Rbt.Receptor>
prm/blind_docking_80.prm

>  <SCORE>
-9.22983

>  <SCORE.INTER>
-12.2234

>  <SCORE.INTER.CONST>
1

>  <SCORE.INTER.POLAR>
0

>  <SCORE.INTER.ROT>
8

>  <SCORE.INTER.SOLV>
21.3222

>  <SCORE.INTER.VDW>
-24.1896

>  <SCORE.INTER.norm>
-0.47013

>  <SCORE.INTRA>
2.99356

>  <SCORE.INTRA.DIHEDRAL>
2.73491

>  <SCORE.INTRA.DIHEDRAL.0>
8.13976

>  <SCORE.INTRA.POLAR>
0

>  <SCORE.INTRA.POLAR.0>
0

>  <SCORE.INTRA.REPUL>
0

>  <SCORE.INTRA.REPUL.0>
0

>  <SCORE.INTRA.SOLV>
3.67561

>  <SCORE.INTRA.SOLV.lig_0>
-82.9561

>  <SCORE.INTRA.VDW>
-0.211706

>  <SCORE.INTRA.VDW.0>
-3.29171

>  <SCORE.INTRA.norm>
0.115137

>  <SCORE.RESTR>
0

>  <SCORE.RESTR.CAVITY>
0

>  <SCORE.RESTR.norm>
0

>  <SCORE.SYSTEM>
0

>  <SCORE.SYSTEM.CONST>
0

>  <SCORE.SYSTEM.DIHEDRAL>
0

>  <SCORE.SYSTEM.SOLV>
0

>  <SCORE.SYSTEM.norm>
0

>  <SCORE.heavy>
26

>  <SCORE.norm>
-0.354993

>  <RMSD>
9.932

$$$$
ligand
 OpenBabel11021811433D
libRbt.so/2013.1/901 2013/11/27
 26 27  0  0  0  0  0  0  0  0999 V2000
  -23.9702  -15.9507   10.5182 C   0  0  0  0  0  0  0  0  0  0  0  0
  -25.9587  -15.6139    3.4651 C   0  0  0  0  0  0  0  0  0  0  0  0
  -25.0115  -11.4323    5.4522 P   0  0  1  0  0  0  0  0  0  0  0  0
  -23.1792  -10.4018    7.4621 P   0  0  1  0  0  0  0  0  0  0  0  0
  -23.5445  -16.6829    4.8334 C   0  0  0  0  0  0  0  0  0  0  0  0
  -24.4121  -15.4516    6.8636 C   0  0  0  0  0  0  0  0  0  0  0  0
  -23.6476  -16.4846    6.3363 C   0  0  0  0  0  0  0  0  0  0  0  0
  -22.9920  -17.3386    7.2080 C   0  0  0  0  0  0  0  0  0  0  0  0
  -22.2338  -18.3598    6.7405 N   0  0  0  0  0  0  0  0  0  0  0  0
  -23.1093  -17.1515    8.5406 N   0  0  0  0  0  0  0  0  0  0  0  0
  -23.8575  -16.1383    9.0295 C   0  0  0  0  0  0  0  0  0  0  0  0
  -24.5049  -15.2925    8.1912 N   0  0  0  0  0  0  0  0  0  0  0  0
  -24.3730  -12.7872    5.6106 O   0  5  0  0  0  0  0  0  0  0  0  0
  -22.1250  -11.4524    7.2930 O   0  0  0  0  0  0  0  0  0  0  0  0
  -22.7380  -13.1593    3.1839 S   0  0  0  0  0  0  0  0  0  0  0  0
  -22.4127  -14.6107    4.0787 C   0  0  0  0  0  0  0  0  0  0  0  0
  -26.4083  -11.2628    5.9766 O   0  0  0  0  0  0  0  0  0  0  0  0
  -22.5284   -9.0658    7.5982 O   0  5  0  0  0  0  0  0  0  0  0  0
  -23.5247  -15.3945    4.1408 N   0  0  0  0  0  0  0  0  0  0  0  0
  -24.0034  -10.3227    6.0680 O   0  0  0  0  0  0  0  0  0  0  0  0
  -24.2046  -10.6629    8.5315 O   0  0  0  0  0  0  0  0  0  0  0  0
  -24.6307  -14.9063    3.5148 C   0  0  1  0  0  0  0  0  0  0  0  0
  -24.3716  -13.5924    2.8660 C   0  0  1  0  0  0  0  0  0  0  0  0
  -25.2034  -12.6264    2.0648 C   0  0  0  0  0  0  0  0  0  0  0  0
  -25.9883  -11.7461    3.0247 C   0  0  0  0  0  0  0  0  0  0  0  0
  -25.0629  -11.0895    3.8824 O   0  0  0  0  0  0  0  0  0  0  0  0
  1 11  1  0  0  0  0
  3 13  1  1  0  0  0
  3 17  2  0  0  0  0
  3 20  1  0  0  0  0
  3 26  1  0  0  0  0
  4 14  1  6  0  0  0
  4 18  1  0  0  0  0
  4 21  2  0  0  0  0
  4 20  1  0  0  0  0
  5 19  1  0  0  0  0
  5  7  1  0  0  0  0
  6  7  2  0  0  0  0
  6 12  1  0  0  0  0
  7  8  1  0  0  0  0
  8  9  1  0  0  0  0
  8 10  2  0  0  0  0
 10 11  1  0  0  0  0
 11 12  2  0  0  0  0
 15 23  1  0  0  0  0
 15 16  1  0  0  0  0
 16 19  1  0  0  0  0
 19 22  1  0  0  0  0
 22  2  1  6  0  0  0
 22 23  1  0  0  0  0
 23 24  1  1  0  0  0
 24 25  1  0  0  0  0
 25 26  1  0  0  0  0
M  CHG  2  13  -1  18  -1
M  END
>  <CHROM.1>
-44.17993761,77.84505409,36.29269628,69.51970372,-95.45427556,57.44878605
-112.83743173,73.40235567,-23.96937347,-13.40212827,5.82610434,-0.95679343
-1.35835664,0.34888357

>  <Name>
ligand

>  <RI>
0

>  <Rbt.Current_Directory>
/home/itssahil/PROJECTS/Mol_Feturizer/New_Systems/rnas/2GDI

>  <Rbt.Executable>
rbdock ($Id: //depot/dev/client3/rdock/2013.1/src/exe/rbdock.cxx#4 $)

>  <Rbt.Library>
libRbt.so (2013.1, Build901 2013/11/27)

>  <Rbt.Parameter_File>
/export/apps/rDock/src/rDock_2013.1_src/data/scripts/dock_solv.prm

>  <Rbt.Receptor>
prm/blind_docking_80.prm

>  <SCORE>
-6.45629

>  <SCORE.INTER>
-8.33085

>  <SCORE.INTER.CONST>
1

>  <SCORE.INTER.POLAR>
0

>  <SCORE.INTER.ROT>
8

>  <SCORE.INTER.SOLV>
13.0313

>  <SCORE.INTER.VDW>
-18.831

>  <SCORE.INTER.norm>
-0.320417

>  <SCORE.INTRA>
1.87456

>  <SCORE.INTRA.DIHEDRAL>
4.41903

>  <SCORE.INTRA.DIHEDRAL.0>
8.13976

>  <SCORE.INTRA.POLAR>
0

>  <SCORE.INTRA.POLAR.0>
0

>  <SCORE.INTRA.REPUL>
0

>  <SCORE.INTRA.REPUL.0>
0

>  <SCORE.INTRA.SOLV>
3.92127

>  <SCORE.INTRA.SOLV.lig_0>
-82.9561

>  <SCORE.INTRA.VDW>
-2.29559

>  <SCORE.INTRA.VDW.0>
-3.29171

>  <SCORE.INTRA.norm>
0.0720985

>  <SCORE.RESTR>
0

>  <SCORE.RESTR.CAVITY>
0

>  <SCORE.RESTR.norm>
0

>  <SCORE.SYSTEM>
0

>  <SCORE.SYSTEM.CONST>
0

>  <SCORE.SYSTEM.DIHEDRAL>
0

>  <SCORE.SYSTEM.SOLV>
0

>  <SCORE.SYSTEM.norm>
0

>  <SCORE.heavy>
26

>  <SCORE.norm>
-0.248319

>  <RMSD>
9.951

$$$$
ligand
 OpenBabel11021811433D
libRbt.so/2013.1/901 2013/11/27
 26 27  0  0  0  0  0  0  0  0999 V2000
  -22.9433   -8.9500   11.4581 C   0  0  0  0  0  0  0  0  0  0  0  0
  -25.8823  -11.8829    6.6420 C   0  0  0  0  0  0  0  0  0  0  0  0
  -25.2787  -11.2273    2.0878 P   0  0  1  0  0  0  0  0  0  0  0  0
  -25.4104  -13.0093   -0.2069 P   0  0  1  0  0  0  0  0  0  0  0  0
  -25.6361  -13.4700    9.1447 C   0  0  0  0  0  0  0  0  0  0  0  0
  -25.4392  -10.9944    9.6166 C   0  0  0  0  0  0  0  0  0  0  0  0
  -24.9175  -12.2751    9.7481 C   0  0  0  0  0  0  0  0  0  0  0  0
  -23.7362  -12.4428   10.4520 C   0  0  0  0  0  0  0  0  0  0  0  0
  -23.1883  -13.6727   10.6058 N   0  0  0  0  0  0  0  0  0  0  0  0
  -23.1221  -11.3675   10.9916 N   0  0  0  0  0  0  0  0  0  0  0  0
  -23.6482  -10.1315   10.8486 C   0  0  0  0  0  0  0  0  0  0  0  0
  -24.8027   -9.9487   10.1623 N   0  0  0  0  0  0  0  0  0  0  0  0
  -23.8028  -11.5241    2.0419 O   0  5  0  0  0  0  0  0  0  0  0  0
  -23.9456  -12.7793   -0.4187 O   0  0  0  0  0  0  0  0  0  0  0  0
  -23.6200  -15.2247    6.2047 S   0  0  0  0  0  0  0  0  0  0  0  0
  -24.2379  -15.0259    7.8146 C   0  0  0  0  0  0  0  0  0  0  0  0
  -25.6884   -9.8065    2.3493 O   0  0  0  0  0  0  0  0  0  0  0  0
  -25.6042  -14.2448    0.6076 O   0  5  0  0  0  0  0  0  0  0  0  0
  -24.9875  -13.8923    7.9033 N   0  0  0  0  0  0  0  0  0  0  0  0
  -25.9531  -11.8035    0.7314 O   0  0  0  0  0  0  0  0  0  0  0  0
  -26.2672  -12.9854   -1.4433 O   0  0  0  0  0  0  0  0  0  0  0  0
  -25.1010  -13.1646    6.7583 C   0  0  1  0  0  0  0  0  0  0  0  0
  -24.3742  -13.7933    5.6221 C   0  0  1  0  0  0  0  0  0  0  0  0
  -24.1642  -13.4370    4.1743 C   0  0  0  0  0  0  0  0  0  0  0  0
  -25.5096  -13.4616    3.4661 C   0  0  0  0  0  0  0  0  0  0  0  0
  -25.9268  -12.1177    3.2589 O   0  0  0  0  0  0  0  0  0  0  0  0
  1 11  1  0  0  0  0
  3 13  1  6  0  0  0
  3 17  2  0  0  0  0
  3 20  1  0  0  0  0
  3 26  1  0  0  0  0
  4 14  1  6  0  0  0
  4 18  1  0  0  0  0
  4 21  2  0  0  0  0
  4 20  1  0  0  0  0
  5 19  1  0  0  0  0
  5  7  1  0  0  0  0
  6  7  2  0  0  0  0
  6 12  1  0  0  0  0
  7  8  1  0  0  0  0
  8  9  1  0  0  0  0
  8 10  2  0  0  0  0
 10 11  1  0  0  0  0
 11 12  2  0  0  0  0
 15 23  1  0  0  0  0
 15 16  1  0  0  0  0
 16 19  1  0  0  0  0
 19 22  1  0  0  0  0
 22  2  1  6  0  0  0
 22 23  1  0  0  0  0
 23 24  1  1  0  0  0
 24 25  1  0  0  0  0
 25 26  1  0  0  0  0
M  CHG  2  13  -1  18  -1
M  END
>  <CHROM.1>
25.03366363,106.90870611,102.31429997,-46.34439933,117.22109089,104.32653997
76.84039784,-39.96636820,-24.76472775,-12.48502892,5.17697916,0.70175122
-1.39460630,0.63382635

>  <Name>
ligand

>  <RI>
0

>  <Rbt.Current_Directory>
/home/itssahil/PROJECTS/Mol_Feturizer/New_Systems/rnas/2GDI

>  <Rbt.Executable>
rbdock ($Id: //depot/dev/client3/rdock/2013.1/src/exe/rbdock.cxx#4 $)

>  <Rbt.Library>
libRbt.so (2013.1, Build901 2013/11/27)

>  <Rbt.Parameter_File>
/export/apps/rDock/src/rDock_2013.1_src/data/scripts/dock_solv.prm

>  <Rbt.Receptor>
prm/blind_docking_80.prm

>  <SCORE>
-6.61883

>  <SCORE.INTER>
-10.9561

>  <SCORE.INTER.CONST>
1

>  <SCORE.INTER.POLAR>
0

>  <SCORE.INTER.ROT>
8

>  <SCORE.INTER.SOLV>
19.901

>  <SCORE.INTER.VDW>
-22.871

>  <SCORE.INTER.norm>
-0.421387

>  <SCORE.INTRA>
3.6878

>  <SCORE.INTRA.DIHEDRAL>
4.19553

>  <SCORE.INTRA.DIHEDRAL.0>
8.13976

>  <SCORE.INTRA.POLAR>
0

>  <SCORE.INTRA.POLAR.0>
0

>  <SCORE.INTRA.REPUL>
0

>  <SCORE.INTRA.REPUL.0>
0

>  <SCORE.INTRA.SOLV>
3.58405

>  <SCORE.INTRA.SOLV.lig_0>
-82.9561

>  <SCORE.INTRA.VDW>
-0.201993

>  <SCORE.INTRA.VDW.0>
-3.29171

>  <SCORE.INTRA.norm>
0.141838

>  <SCORE.RESTR>
0.649434

>  <SCORE.RESTR.CAVITY>
0.649434

>  <SCORE.RESTR.norm>
0.0249782

>  <SCORE.SYSTEM>
0

>  <SCORE.SYSTEM.CONST>
0

>  <SCORE.SYSTEM.DIHEDRAL>
0

>  <SCORE.SYSTEM.SOLV>
0

>  <SCORE.SYSTEM.norm>
0

>  <SCORE.heavy>
26

>  <SCORE.norm>
-0.25457

>  <RMSD>
9.964

$$$$
ligand
 OpenBabel11021811433D
libRbt.so/2013.1/901 2013/11/27
 26 27  0  0  0  0  0  0  0  0999 V2000
  -25.0484  -12.8359   -1.3366 C   0  0  0  0  0  0  0  0  0  0  0  0
  -25.8793  -11.5785    7.1870 C   0  0  0  0  0  0  0  0  0  0  0  0
  -24.7213  -13.2587   10.5160 P   0  0  1  0  0  0  0  0  0  0  0  0
  -23.6373  -15.7951    9.5941 P   0  0  1  0  0  0  0  0  0  0  0  0
  -26.0177  -11.7353    4.2206 C   0  0  0  0  0  0  0  0  0  0  0  0
  -25.6381  -10.9926    1.8343 C   0  0  0  0  0  0  0  0  0  0  0  0
  -25.7717  -12.0284    2.7503 C   0  0  0  0  0  0  0  0  0  0  0  0
  -25.6627  -13.3335    2.2987 C   0  0  0  0  0  0  0  0  0  0  0  0
  -25.7870  -14.3768    3.1545 N   0  0  0  0  0  0  0  0  0  0  0  0
  -25.4301  -13.5697    0.9893 N   0  0  0  0  0  0  0  0  0  0  0  0
  -25.3055  -12.5454    0.1173 C   0  0  0  0  0  0  0  0  0  0  0  0
  -25.4104  -11.2623    0.5413 N   0  0  0  0  0  0  0  0  0  0  0  0
  -26.1154  -12.8812   10.9434 O   0  5  0  0  0  0  0  0  0  0  0  0
  -24.2770  -17.0290    9.0356 O   0  0  0  0  0  0  0  0  0  0  0  0
  -22.2877  -11.0114    5.3827 S   0  0  0  0  0  0  0  0  0  0  0  0
  -23.5786  -11.2946    4.2573 C   0  0  0  0  0  0  0  0  0  0  0  0
  -23.6560  -13.2735   11.5741 O   0  0  0  0  0  0  0  0  0  0  0  0
  -22.6800  -15.2385    8.5936 O   0  5  0  0  0  0  0  0  0  0  0  0
  -24.7566  -11.4773    4.9158 N   0  0  0  0  0  0  0  0  0  0  0  0
  -24.7993  -14.6723    9.7270 O   0  0  0  0  0  0  0  0  0  0  0  0
  -23.0353  -15.9280   10.9664 O   0  0  0  0  0  0  0  0  0  0  0  0
  -24.6947  -11.4059    6.2739 C   0  0  1  0  0  0  0  0  0  0  0  0
  -23.3166  -11.1188    6.7563 C   0  0  1  0  0  0  0  0  0  0  0  0
  -22.6866  -10.9404    8.1121 C   0  0  0  0  0  0  0  0  0  0  0  0
  -22.9042  -12.2091    8.9217 C   0  0  0  0  0  0  0  0  0  0  0  0
  -24.2452  -12.2083    9.3960 O   0  0  0  0  0  0  0  0  0  0  0  0
  1 11  1  0  0  0  0
  3 13  1  1  0  0  0
  3 17  2  0  0  0  0
  3 20  1  0  0  0  0
  3 26  1  0  0  0  0
  4 14  1  6  0  0  0
  4 18  1  0  0  0  0
  4 21  2  0  0  0  0
  4 20  1  0  0  0  0
  5 19  1  0  0  0  0
  5  7  1  0  0  0  0
  6  7  2  0  0  0  0
  6 12  1  0  0  0  0
  7  8  1  0  0  0  0
  8  9  1  0  0  0  0
  8 10  2  0  0  0  0
 10 11  1  0  0  0  0
 11 12  2  0  0  0  0
 15 23  1  0  0  0  0
 15 16  1  0  0  0  0
 16 19  1  0  0  0  0
 19 22  1  0  0  0  0
 22  2  1  6  0  0  0
 22 23  1  0  0  0  0
 23 24  1  1  0  0  0
 24 25  1  0  0  0  0
 25 26  1  0  0  0  0
M  CHG  2  13  -1  18  -1
M  END
>  <CHROM.1>
-152.80122344,10.84424061,-84.16802354,167.91738647,-119.59970285,-77.53683629
-168.06814895,172.07364513,-24.37001207,-12.98828379,6.53064267,2.14737068
-1.33221427,-0.77432817

>  <Name>
ligand

>  <RI>
0

>  <Rbt.Current_Directory>
/home/itssahil/PROJECTS/Mol_Feturizer/New_Systems/rnas/2GDI

>  <Rbt.Executable>
rbdock ($Id: //depot/dev/client3/rdock/2013.1/src/exe/rbdock.cxx#4 $)

>  <Rbt.Library>
libRbt.so (2013.1, Build901 2013/11/27)

>  <Rbt.Parameter_File>
/export/apps/rDock/src/rDock_2013.1_src/data/scripts/dock_solv.prm

>  <Rbt.Receptor>
prm/blind_docking_40.prm

>  <SCORE>
-9.98065

>  <SCORE.INTER>
-12.3327

>  <SCORE.INTER.CONST>
1

>  <SCORE.INTER.POLAR>
0

>  <SCORE.INTER.ROT>
8

>  <SCORE.INTER.SOLV>
18.602

>  <SCORE.INTER.VDW>
-23.3558

>  <SCORE.INTER.norm>
-0.474333

>  <SCORE.INTRA>
2.35201

>  <SCORE.INTRA.DIHEDRAL>
0.0973073

>  <SCORE.INTRA.DIHEDRAL.0>
8.13976

>  <SCORE.INTRA.POLAR>
0

>  <SCORE.INTRA.POLAR.0>
0

>  <SCORE.INTRA.REPUL>
0

>  <SCORE.INTRA.REPUL.0>
0

>  <SCORE.INTRA.SOLV>
3.78385

>  <SCORE.INTRA.SOLV.lig_0>
-82.9561

>  <SCORE.INTRA.VDW>
0.411428

>  <SCORE.INTRA.VDW.0>
-3.29171

>  <SCORE.INTRA.norm>
0.0904618

>  <SCORE.RESTR>
0

>  <SCORE.RESTR.CAVITY>
0

>  <SCORE.RESTR.norm>
0

>  <SCORE.SYSTEM>
0

>  <SCORE.SYSTEM.CONST>
0

>  <SCORE.SYSTEM.DIHEDRAL>
0

>  <SCORE.SYSTEM.SOLV>
0

>  <SCORE.SYSTEM.norm>
0

>  <SCORE.heavy>
26

>  <SCORE.norm>
-0.383871

>  <RMSD>
10.012

$$$$
ligand
 OpenBabel11021811433D
libRbt.so/2013.1/901 2013/11/27
 26 27  0  0  0  0  0  0  0  0999 V2000
  -25.9118  -11.8288    0.7915 C   0  0  0  0  0  0  0  0  0  0  0  0
  -24.4558  -12.7732    6.6564 C   0  0  0  0  0  0  0  0  0  0  0  0
  -24.9528  -13.9620   11.3052 P   0  0  1  0  0  0  0  0  0  0  0  0
  -23.9409  -16.5883   10.5722 P   0  0  1  0  0  0  0  0  0  0  0  0
  -22.2200  -11.4801    5.1826 C   0  0  0  0  0  0  0  0  0  0  0  0
  -23.5295  -12.8012    3.4709 C   0  0  0  0  0  0  0  0  0  0  0  0
  -23.1882  -11.5695    4.0152 C   0  0  0  0  0  0  0  0  0  0  0  0
  -23.7585  -10.4256    3.4813 C   0  0  0  0  0  0  0  0  0  0  0  0
  -23.4553   -9.2019    3.9782 N   0  0  0  0  0  0  0  0  0  0  0  0
  -24.6275  -10.5305    2.4525 N   0  0  0  0  0  0  0  0  0  0  0  0
  -24.9424  -11.7397    1.9389 C   0  0  0  0  0  0  0  0  0  0  0  0
  -24.3931  -12.8694    2.4482 N   0  0  0  0  0  0  0  0  0  0  0  0
  -26.4226  -14.1176   11.5947 O   0  5  0  0  0  0  0  0  0  0  0  0
  -22.7120  -16.4054   11.4087 O   0  0  0  0  0  0  0  0  0  0  0  0
  -23.4230   -9.1504    8.1680 S   0  0  0  0  0  0  0  0  0  0  0  0
  -22.4642   -9.6157    6.7979 C   0  0  0  0  0  0  0  0  0  0  0  0
  -24.0197  -13.9151   12.4808 O   0  0  0  0  0  0  0  0  0  0  0  0
  -25.0028  -17.2443   11.3904 O   0  5  0  0  0  0  0  0  0  0  0  0
  -22.8532  -10.8352    6.3330 N   0  0  0  0  0  0  0  0  0  0  0  0
  -24.5214  -15.1101   10.2456 O   0  0  0  0  0  0  0  0  0  0  0  0
  -23.7376  -17.2539    9.2384 O   0  0  0  0  0  0  0  0  0  0  0  0
  -23.8766  -11.4285    7.0068 C   0  0  1  0  0  0  0  0  0  0  0  0
  -24.3729  -10.5833    8.1265 C   0  0  1  0  0  0  0  0  0  0  0  0
  -25.4484  -10.7345    9.1693 C   0  0  0  0  0  0  0  0  0  0  0  0
  -25.6437  -12.2148    9.4572 C   0  0  0  0  0  0  0  0  0  0  0  0
  -24.7496  -12.5860   10.4993 O   0  0  0  0  0  0  0  0  0  0  0  0
  1 11  1  0  0  0  0
  3 13  1  1  0  0  0
  3 17  2  0  0  0  0
  3 20  1  0  0  0  0
  3 26  1  0  0  0  0
  4 14  1  1  0  0  0
  4 18  1  0  0  0  0
  4 21  2  0  0  0  0
  4 20  1  0  0  0  0
  5 19  1  0  0  0  0
  5  7  1  0  0  0  0
  6  7  2  0  0  0  0
  6 12  1  0  0  0  0
  7  8  1  0  0  0  0
  8  9  1  0  0  0  0
  8 10  2  0  0  0  0
 10 11  1  0  0  0  0
 11 12  2  0  0  0  0
 15 23  1  0  0  0  0
 15 16  1  0  0  0  0
 16 19  1  0  0  0  0
 19 22  1  0  0  0  0
 22  2  1  6  0  0  0
 22 23  1  0  0  0  0
 23 24  1  1  0  0  0
 24 25  1  0  0  0  0
 25 26  1  0  0  0  0
M  CHG  2  13  -1  18  -1
M  END
>  <CHROM.1>
-91.99782452,-112.85663909,-120.80434379,-56.96308799,-150.25011336,89.01336470
164.00159619,-42.46232216,-24.19605483,-12.78097749,7.76227931,0.90993138
-1.49318199,-1.70121518

>  <Name>
ligand

>  <RI>
0

>  <Rbt.Current_Directory>
/home/itssahil/PROJECTS/Mol_Feturizer/New_Systems/rnas/2GDI

>  <Rbt.Executable>
rbdock ($Id: //depot/dev/client3/rdock/2013.1/src/exe/rbdock.cxx#4 $)

>  <Rbt.Library>
libRbt.so (2013.1, Build901 2013/11/27)

>  <Rbt.Parameter_File>
/export/apps/rDock/src/rDock_2013.1_src/data/scripts/dock_solv.prm

>  <Rbt.Receptor>
prm/blind_docking_60.prm

>  <SCORE>
-7.73122

>  <SCORE.INTER>
-10.2191

>  <SCORE.INTER.CONST>
1

>  <SCORE.INTER.POLAR>
0

>  <SCORE.INTER.ROT>
8

>  <SCORE.INTER.SOLV>
28.3205

>  <SCORE.INTER.VDW>
-25.1863

>  <SCORE.INTER.norm>
-0.393043

>  <SCORE.INTRA>
2.48561

>  <SCORE.INTRA.DIHEDRAL>
1.91531

>  <SCORE.INTRA.DIHEDRAL.0>
8.13976

>  <SCORE.INTRA.POLAR>
0

>  <SCORE.INTRA.POLAR.0>
0

>  <SCORE.INTRA.REPUL>
0

>  <SCORE.INTRA.REPUL.0>
0

>  <SCORE.INTRA.SOLV>
2.18764

>  <SCORE.INTRA.SOLV.lig_0>
-82.9561

>  <SCORE.INTRA.VDW>
0.434139

>  <SCORE.INTRA.VDW.0>
-3.29171

>  <SCORE.INTRA.norm>
0.0956004

>  <SCORE.RESTR>
0.00229099

>  <SCORE.RESTR.CAVITY>
0.00229099

>  <SCORE.RESTR.norm>
8.81148e-05

>  <SCORE.SYSTEM>
0

>  <SCORE.SYSTEM.CONST>
0

>  <SCORE.SYSTEM.DIHEDRAL>
0

>  <SCORE.SYSTEM.SOLV>
0

>  <SCORE.SYSTEM.norm>
0

>  <SCORE.heavy>
26

>  <SCORE.norm>
-0.297355

>  <RMSD>
10.017

$$$$
ligand
 OpenBabel11021811433D
libRbt.so/2013.1/901 2013/11/27
 26 27  0  0  0  0  0  0  0  0999 V2000
  -29.2908  -14.2974   -7.7031 C   0  0  0  0  0  0  0  0  0  0  0  0
  -23.5147  -11.6228   -2.2468 C   0  0  0  0  0  0  0  0  0  0  0  0
  -22.3063  -11.7499    3.4334 P   0  0  1  0  0  0  0  0  0  0  0  0
  -23.7292  -13.0235    5.6270 P   0  0  1  0  0  0  0  0  0  0  0  0
  -24.8953  -13.5093   -4.0848 C   0  0  0  0  0  0  0  0  0  0  0  0
  -27.2946  -13.1419   -4.7910 C   0  0  0  0  0  0  0  0  0  0  0  0
  -26.0590  -13.7271   -5.0371 C   0  0  0  0  0  0  0  0  0  0  0  0
  -25.9051  -14.5022   -6.1748 C   0  0  0  0  0  0  0  0  0  0  0  0
  -24.7191  -15.0942   -6.4564 N   0  0  0  0  0  0  0  0  0  0  0  0
  -26.9498  -14.6706   -7.0143 N   0  0  0  0  0  0  0  0  0  0  0  0
  -28.1424  -14.0924   -6.7526 C   0  0  0  0  0  0  0  0  0  0  0  0
  -28.3113  -13.3317   -5.6435 N   0  0  0  0  0  0  0  0  0  0  0  0
  -22.0793  -10.6072    4.3880 O   0  5  0  0  0  0  0  0  0  0  0  0
  -23.8962  -14.4493    6.0545 O   0  0  0  0  0  0  0  0  0  0  0  0
  -26.7614  -13.3985   -0.5787 S   0  0  0  0  0  0  0  0  0  0  0  0
  -26.4746  -13.9021   -2.2150 C   0  0  0  0  0  0  0  0  0  0  0  0
  -21.1777  -12.1130    2.5119 O   0  0  0  0  0  0  0  0  0  0  0  0
  -22.9145  -12.2949    6.6432 O   0  5  0  0  0  0  0  0  0  0  0  0
  -25.3764  -13.2770   -2.7229 N   0  0  0  0  0  0  0  0  0  0  0  0
  -22.8151  -13.0296    4.2880 O   0  0  0  0  0  0  0  0  0  0  0  0
  -24.9921  -12.2933    5.2592 O   0  0  0  0  0  0  0  0  0  0  0  0
  -24.7433  -12.4130   -1.8826 C   0  0  1  0  0  0  0  0  0  0  0  0
  -25.3983  -12.3506   -0.5478 C   0  0  1  0  0  0  0  0  0  0  0  0
  -25.1362  -11.5886    0.7240 C   0  0  0  0  0  0  0  0  0  0  0  0
  -23.9759  -12.2450    1.4554 C   0  0  0  0  0  0  0  0  0  0  0  0
  -23.5611  -11.3748    2.5012 O   0  0  0  0  0  0  0  0  0  0  0  0
  1 11  1  0  0  0  0
  3 13  1  1  0  0  0
  3 17  2  0  0  0  0
  3 20  1  0  0  0  0
  3 26  1  0  0  0  0
  4 14  1  1  0  0  0
  4 18  1  0  0  0  0
  4 21  2  0  0  0  0
  4 20  1  0  0  0  0
  5 19  1  0  0  0  0
  5  7  1  0  0  0  0
  6  7  2  0  0  0  0
  6 12  1  0  0  0  0
  7  8  1  0  0  0  0
  8  9  1  0  0  0  0
  8 10  2  0  0  0  0
 10 11  1  0  0  0  0
 11 12  2  0  0  0  0
 15 23  1  0  0  0  0
 15 16  1  0  0  0  0
 16 19  1  0  0  0  0
 19 22  1  0  0  0  0
 22  2  1  1  0  0  0
 22 23  1  0  0  0  0
 23 24  1  6  0  0  0
 24 25  1  0  0  0  0
 25 26  1  0  0  0  0
M  CHG  2  13  -1  18  -1
M  END
>  <CHROM.1>
33.01244161,35.52069039,28.79989952,-178.61749823,103.94219991,168.37622813
-177.50612318,177.15042949,-24.82845166,-12.93252349,-0.10253689,1.94333442
-0.36898630,-1.58152850

>  <Name>
ligand

>  <RI>
0

>  <Rbt.Current_Directory>
/home/itssahil/PROJECTS/Mol_Feturizer/New_Systems/rnas/2GDI

>  <Rbt.Executable>
rbdock ($Id: //depot/dev/client3/rdock/2013.1/src/exe/rbdock.cxx#4 $)

>  <Rbt.Library>
libRbt.so (2013.1, Build901 2013/11/27)

>  <Rbt.Parameter_File>
/export/apps/rDock/src/rDock_2013.1_src/data/scripts/dock_solv.prm

>  <Rbt.Receptor>
prm/blind_docking_100.prm

>  <SCORE>
-12.8371

>  <SCORE.INTER>
-13.2708

>  <SCORE.INTER.CONST>
1

>  <SCORE.INTER.POLAR>
0

>  <SCORE.INTER.ROT>
8

>  <SCORE.INTER.SOLV>
18.5845

>  <SCORE.INTER.VDW>
-23.9754

>  <SCORE.INTER.norm>
-0.510417

>  <SCORE.INTRA>
0.422536

>  <SCORE.INTRA.DIHEDRAL>
-2.11623

>  <SCORE.INTRA.DIHEDRAL.0>
8.13976

>  <SCORE.INTRA.POLAR>
0

>  <SCORE.INTRA.POLAR.0>
0

>  <SCORE.INTRA.REPUL>
0

>  <SCORE.INTRA.REPUL.0>
0

>  <SCORE.INTRA.SOLV>
1.75457

>  <SCORE.INTRA.SOLV.lig_0>
-82.9561

>  <SCORE.INTRA.VDW>
0.603365

>  <SCORE.INTRA.VDW.0>
-3.29171

>  <SCORE.INTRA.norm>
0.0162514

>  <SCORE.RESTR>
0.0111727

>  <SCORE.RESTR.CAVITY>
0.0111727

>  <SCORE.RESTR.norm>
0.00042972

>  <SCORE.SYSTEM>
0

>  <SCORE.SYSTEM.CONST>
0

>  <SCORE.SYSTEM.DIHEDRAL>
0

>  <SCORE.SYSTEM.SOLV>
0

>  <SCORE.SYSTEM.norm>
0

>  <SCORE.heavy>
26

>  <SCORE.norm>
-0.493736

>  <RMSD>
10.042

$$$$
ligand
 OpenBabel11021811433D
libRbt.so/2013.1/901 2013/11/27
 26 27  0  0  0  0  0  0  0  0999 V2000
  -22.7128  -18.1391    7.5548 C   0  0  0  0  0  0  0  0  0  0  0  0
  -25.2374  -12.1503    7.8221 C   0  0  0  0  0  0  0  0  0  0  0  0
  -22.9003  -11.7809    4.1082 P   0  0  1  0  0  0  0  0  0  0  0  0
  -25.2270  -11.1047    2.4994 P   0  0  1  0  0  0  0  0  0  0  0  0
  -23.5796  -13.0666   10.1145 C   0  0  0  0  0  0  0  0  0  0  0  0
  -22.9156  -14.4733    8.1219 C   0  0  0  0  0  0  0  0  0  0  0  0
  -23.3609  -14.4084    9.4362 C   0  0  0  0  0  0  0  0  0  0  0  0
  -23.5885  -15.5912   10.1204 C   0  0  0  0  0  0  0  0  0  0  0  0
  -24.0243  -15.5782   11.4035 N   0  0  0  0  0  0  0  0  0  0  0  0
  -23.3740  -16.7725    9.5014 N   0  0  0  0  0  0  0  0  0  0  0  0
  -22.9423  -16.8099    8.2218 C   0  0  0  0  0  0  0  0  0  0  0  0
  -22.7154  -15.6625    7.5368 N   0  0  0  0  0  0  0  0  0  0  0  0
  -23.7921  -12.5681    5.0320 O   0  5  0  0  0  0  0  0  0  0  0  0
  -26.2394  -11.3993    3.5632 O   0  0  0  0  0  0  0  0  0  0  0  0
  -21.7745  -10.0716    8.2279 S   0  0  0  0  0  0  0  0  0  0  0  0
  -21.9728  -11.3070    9.4310 C   0  0  0  0  0  0  0  0  0  0  0  0
  -21.9651  -12.5567    3.2259 O   0  0  0  0  0  0  0  0  0  0  0  0
  -25.5995   -9.8406    1.7989 O   0  5  0  0  0  0  0  0  0  0  0  0
  -23.1478  -11.9706    9.2470 N   0  0  0  0  0  0  0  0  0  0  0  0
  -23.8295  -10.7680    3.2493 O   0  0  0  0  0  0  0  0  0  0  0  0
  -24.9225  -12.2304    1.5490 O   0  0  0  0  0  0  0  0  0  0  0  0
  -23.9079  -11.5522    8.1979 C   0  0  1  0  0  0  0  0  0  0  0  0
  -23.2628  -10.4398    7.4490 C   0  0  1  0  0  0  0  0  0  0  0  0
  -23.6395   -9.6168    6.2457 C   0  0  0  0  0  0  0  0  0  0  0  0
  -22.4262   -9.4982    5.3368 C   0  0  0  0  0  0  0  0  0  0  0  0
  -21.9877  -10.8107    5.0083 O   0  0  0  0  0  0  0  0  0  0  0  0
  1 11  1  0  0  0  0
  3 13  1  1  0  0  0
  3 17  2  0  0  0  0
  3 20  1  0  0  0  0
  3 26  1  0  0  0  0
  4 14  1  1  0  0  0
  4 18  1  0  0  0  0
  4 21  2  0  0  0  0
  4 20  1  0  0  0  0
  5 19  1  0  0  0  0
  5  7  1  0  0  0  0
  6  7  2  0  0  0  0
  6 12  1  0  0  0  0
  7  8  1  0  0  0  0
  8  9  1  0  0  0  0
  8 10  2  0  0  0  0
 10 11  1  0  0  0  0
 11 12  2  0  0  0  0
 15 23  1  0  0  0  0
 15 16  1  0  0  0  0
 16 19  1  0  0  0  0
 19 22  1  0  0  0  0
 22  2  1  6  0  0  0
 22 23  1  0  0  0  0
 23 24  1  1  0  0  0
 24 25  1  0  0  0  0
 25 26  1  0  0  0  0
M  CHG  2  13  -1  18  -1
M  END
>  <CHROM.1>
-45.76168616,-102.86170622,-5.09244462,67.36474608,45.92238631,56.47728510
66.55007836,-90.03987599,-23.50551198,-12.42650980,6.30971290,1.02501606
1.27782364,2.67322923

>  <Name>
ligand

>  <RI>
0

>  <Rbt.Current_Directory>
/home/itssahil/PROJECTS/Mol_Feturizer/New_Systems/rnas/2GDI

>  <Rbt.Executable>
rbdock ($Id: //depot/dev/client3/rdock/2013.1/src/exe/rbdock.cxx#4 $)

>  <Rbt.Library>
libRbt.so (2013.1, Build901 2013/11/27)

>  <Rbt.Parameter_File>
/export/apps/rDock/src/rDock_2013.1_src/data/scripts/dock_solv.prm

>  <Rbt.Receptor>
prm/blind_docking_60.prm

>  <SCORE>
-12.9068

>  <SCORE.INTER>
-14.2822

>  <SCORE.INTER.CONST>
1

>  <SCORE.INTER.POLAR>
0

>  <SCORE.INTER.ROT>
8

>  <SCORE.INTER.SOLV>
20.1561

>  <SCORE.INTER.VDW>
-25.1735

>  <SCORE.INTER.norm>
-0.549316

>  <SCORE.INTRA>
1.37537

>  <SCORE.INTRA.DIHEDRAL>
-0.763927

>  <SCORE.INTRA.DIHEDRAL.0>
8.13976

>  <SCORE.INTRA.POLAR>
0

>  <SCORE.INTRA.POLAR.0>
0

>  <SCORE.INTRA.REPUL>
0

>  <SCORE.INTRA.REPUL.0>
0

>  <SCORE.INTRA.SOLV>
2.64989

>  <SCORE.INTRA.SOLV.lig_0>
-82.9561

>  <SCORE.INTRA.VDW>
0.432389

>  <SCORE.INTRA.VDW.0>
-3.29171

>  <SCORE.INTRA.norm>
0.0528989

>  <SCORE.RESTR>
0

>  <SCORE.RESTR.CAVITY>
0

>  <SCORE.RESTR.norm>
0

>  <SCORE.SYSTEM>
0

>  <SCORE.SYSTEM.CONST>
0

>  <SCORE.SYSTEM.DIHEDRAL>
0

>  <SCORE.SYSTEM.SOLV>
0

>  <SCORE.SYSTEM.norm>
0

>  <SCORE.heavy>
26

>  <SCORE.norm>
-0.496417

>  <RMSD>
10.048

$$$$
ligand
 OpenBabel11021811433D
libRbt.so/2013.1/901 2013/11/27
 26 27  0  0  0  0  0  0  0  0999 V2000
  -25.2284  -12.6271   -0.9044 C   0  0  0  0  0  0  0  0  0  0  0  0
  -25.7155  -11.8751    7.6829 C   0  0  0  0  0  0  0  0  0  0  0  0
  -23.7914  -14.3046   10.3845 P   0  0  1  0  0  0  0  0  0  0  0  0
  -23.0598  -17.0585    9.8016 P   0  0  1  0  0  0  0  0  0  0  0  0
  -26.0057  -11.7691    4.7252 C   0  0  0  0  0  0  0  0  0  0  0  0
  -25.8263  -10.9321    2.3467 C   0  0  0  0  0  0  0  0  0  0  0  0
  -25.8103  -11.9990    3.2362 C   0  0  0  0  0  0  0  0  0  0  0  0
  -25.5991  -13.2751    2.7402 C   0  0  0  0  0  0  0  0  0  0  0  0
  -25.5762  -14.3470    3.5690 N   0  0  0  0  0  0  0  0  0  0  0  0
  -25.4139  -13.4539    1.4142 N   0  0  0  0  0  0  0  0  0  0  0  0
  -25.4355  -12.4005    0.5687 C   0  0  0  0  0  0  0  0  0  0  0  0
  -25.6419  -11.1451    1.0363 N   0  0  0  0  0  0  0  0  0  0  0  0
  -25.2601  -14.6038   10.5322 O   0  5  0  0  0  0  0  0  0  0  0  0
  -22.1556  -17.6803    8.7822 O   0  0  0  0  0  0  0  0  0  0  0  0
  -22.2687  -10.9118    5.7677 S   0  0  0  0  0  0  0  0  0  0  0  0
  -23.5995  -11.1749    4.6847 C   0  0  0  0  0  0  0  0  0  0  0  0
  -23.0065  -14.0661   11.6422 O   0  0  0  0  0  0  0  0  0  0  0  0
  -22.4222  -17.1476   11.1480 O   0  5  0  0  0  0  0  0  0  0  0  0
  -24.7266  -11.4937    5.3795 N   0  0  0  0  0  0  0  0  0  0  0  0
  -23.1260  -15.4713    9.4773 O   0  0  0  0  0  0  0  0  0  0  0  0
  -24.4856  -17.5384    9.7985 O   0  0  0  0  0  0  0  0  0  0  0  0
  -24.5952  -11.5427    6.7337 C   0  0  1  0  0  0  0  0  0  0  0  0
  -23.2127  -11.2113    7.1735 C   0  0  1  0  0  0  0  0  0  0  0  0
  -22.5217  -11.1166    8.5078 C   0  0  0  0  0  0  0  0  0  0  0  0
  -22.3629  -12.5184    9.0752 C   0  0  0  0  0  0  0  0  0  0  0  0
  -23.6438  -12.9774    9.4895 O   0  0  0  0  0  0  0  0  0  0  0  0
  1 11  1  0  0  0  0
  3 13  1  1  0  0  0
  3 17  2  0  0  0  0
  3 20  1  0  0  0  0
  3 26  1  0  0  0  0
  4 14  1  6  0  0  0
  4 18  1  0  0  0  0
  4 21  2  0  0  0  0
  4 20  1  0  0  0  0
  5 19  1  0  0  0  0
  5  7  1  0  0  0  0
  6  7  2  0  0  0  0
  6 12  1  0  0  0  0
  7  8  1  0  0  0  0
  8  9  1  0  0  0  0
  8 10  2  0  0  0  0
 10 11  1  0  0  0  0
 11 12  2  0  0  0  0
 15 23  1  0  0  0  0
 15 16  1  0  0  0  0
 16 19  1  0  0  0  0
 19 22  1  0  0  0  0
 22  2  1  1  0  0  0
 22 23  1  0  0  0  0
 23 24  1  6  0  0  0
 24 25  1  0  0  0  0
 25 26  1  0  0  0  0
M  CHG  2  13  -1  18  -1
M  END
>  <CHROM.1>
-61.05453349,14.50908410,-87.95097151,-170.83736288,-108.04134617,-72.17093071
-168.35430497,-174.12978498,-24.05564371,-13.47444879,6.81072975,2.37879807
-1.27198575,-0.36472368

>  <Name>
ligand

>  <RI>
0

>  <Rbt.Current_Directory>
/home/itssahil/PROJECTS/Mol_Feturizer/New_Systems/rnas/2GDI

>  <Rbt.Executable>
rbdock ($Id: //depot/dev/client3/rdock/2013.1/src/exe/rbdock.cxx#4 $)

>  <Rbt.Library>
libRbt.so (2013.1, Build901 2013/11/27)

>  <Rbt.Parameter_File>
/export/apps/rDock/src/rDock_2013.1_src/data/scripts/dock_solv.prm

>  <Rbt.Receptor>
prm/blind_docking_100.prm

>  <SCORE>
-11.5862

>  <SCORE.INTER>
-11.9267

>  <SCORE.INTER.CONST>
1

>  <SCORE.INTER.POLAR>
0

>  <SCORE.INTER.ROT>
8

>  <SCORE.INTER.SOLV>
17.0339

>  <SCORE.INTER.VDW>
-22.5624

>  <SCORE.INTER.norm>
-0.458719

>  <SCORE.INTRA>
0.340548

>  <SCORE.INTRA.DIHEDRAL>
-2.25216

>  <SCORE.INTRA.DIHEDRAL.0>
8.13976

>  <SCORE.INTRA.POLAR>
0

>  <SCORE.INTRA.POLAR.0>
0

>  <SCORE.INTRA.REPUL>
0

>  <SCORE.INTRA.REPUL.0>
0

>  <SCORE.INTRA.SOLV>
2.79009

>  <SCORE.INTRA.SOLV.lig_0>
-82.9561

>  <SCORE.INTRA.VDW>
0.0715796

>  <SCORE.INTRA.VDW.0>
-3.29171

>  <SCORE.INTRA.norm>
0.013098

>  <SCORE.RESTR>
0

>  <SCORE.RESTR.CAVITY>
0

>  <SCORE.RESTR.norm>
0

>  <SCORE.SYSTEM>
0

>  <SCORE.SYSTEM.CONST>
0

>  <SCORE.SYSTEM.DIHEDRAL>
0

>  <SCORE.SYSTEM.SOLV>
0

>  <SCORE.SYSTEM.norm>
0

>  <SCORE.heavy>
26

>  <SCORE.norm>
-0.445621

>  <RMSD>
10.069

$$$$
ligand
 OpenBabel11021811433D
libRbt.so/2013.1/901 2013/11/27
 26 27  0  0  0  0  0  0  0  0999 V2000
  -22.9083  -15.4925   13.1967 C   0  0  0  0  0  0  0  0  0  0  0  0
  -26.2408  -11.7209    6.6454 C   0  0  0  0  0  0  0  0  0  0  0  0
  -25.3241  -12.6047    0.4074 P   0  0  1  0  0  0  0  0  0  0  0  0
  -26.1189  -13.3317   -2.2942 P   0  0  1  0  0  0  0  0  0  0  0  0
  -24.1282  -12.1301    8.6979 C   0  0  0  0  0  0  0  0  0  0  0  0
  -24.8002  -13.7590   10.5104 C   0  0  0  0  0  0  0  0  0  0  0  0
  -23.8058  -13.0105    9.8934 C   0  0  0  0  0  0  0  0  0  0  0  0
  -22.5120  -13.0931   10.3813 C   0  0  0  0  0  0  0  0  0  0  0  0
  -21.5089  -12.3807    9.8131 N   0  0  0  0  0  0  0  0  0  0  0  0
  -22.2462  -13.8931   11.4368 N   0  0  0  0  0  0  0  0  0  0  0  0
  -23.2307  -14.6102   12.0211 C   0  0  0  0  0  0  0  0  0  0  0  0
  -24.5026  -14.5408   11.5577 N   0  0  0  0  0  0  0  0  0  0  0  0
  -23.9400  -13.0627    0.0292 O   0  5  0  0  0  0  0  0  0  0  0  0
  -27.4642  -13.4826   -2.9351 O   0  0  0  0  0  0  0  0  0  0  0  0
  -23.5797  -14.6201    5.6505 S   0  0  0  0  0  0  0  0  0  0  0  0
  -23.2415  -13.8820    7.1848 C   0  0  0  0  0  0  0  0  0  0  0  0
  -25.5212  -11.1366    0.6537 O   0  0  0  0  0  0  0  0  0  0  0  0
  -25.5102  -12.0376   -2.7211 O   0  5  0  0  0  0  0  0  0  0  0  0
  -24.1632  -12.9199    7.4669 N   0  0  0  0  0  0  0  0  0  0  0  0
  -26.3643  -13.1696   -0.6997 O   0  0  0  0  0  0  0  0  0  0  0  0
  -25.1802  -14.4971   -2.4492 O   0  0  0  0  0  0  0  0  0  0  0  0
  -25.1310  -12.7314    6.5281 C   0  0  1  0  0  0  0  0  0  0  0  0
  -24.9762  -13.6559    5.3724 C   0  0  1  0  0  0  0  0  0  0  0  0
  -25.7320  -13.8811    4.0898 C   0  0  0  0  0  0  0  0  0  0  0  0
  -25.0063  -13.1620    2.9635 C   0  0  0  0  0  0  0  0  0  0  0  0
  -25.7428  -13.3606    1.7630 O   0  0  0  0  0  0  0  0  0  0  0  0
  1 11  1  0  0  0  0
  3 13  1  6  0  0  0
  3 17  2  0  0  0  0
  3 20  1  0  0  0  0
  3 26  1  0  0  0  0
  4 14  1  6  0  0  0
  4 18  1  0  0  0  0
  4 21  2  0  0  0  0
  4 20  1  0  0  0  0
  5 19  1  0  0  0  0
  5  7  1  0  0  0  0
  6  7  2  0  0  0  0
  6 12  1  0  0  0  0
  7  8  1  0  0  0  0
  8  9  1  0  0  0  0
  8 10  2  0  0  0  0
 10 11  1  0  0  0  0
 11 12  2  0  0  0  0
 15 23  1  0  0  0  0
 15 16  1  0  0  0  0
 16 19  1  0  0  0  0
 19 22  1  0  0  0  0
 22  2  1  1  0  0  0
 22 23  1  0  0  0  0
 23 24  1  6  0  0  0
 24 25  1  0  0  0  0
 25 26  1  0  0  0  0
M  CHG  2  13  -1  18  -1
M  END
>  <CHROM.1>
-36.33300374,-42.43280185,-81.78329660,-162.91645604,-79.67821259,-178.91048932
173.77634127,62.39557293,-24.68007427,-13.32475213,4.41763880,-1.22105209
0.94152208,-1.79402824

>  <Name>
ligand

>  <RI>
0

>  <Rbt.Current_Directory>
/home/itssahil/PROJECTS/Mol_Feturizer/New_Systems/rnas/2GDI

>  <Rbt.Executable>
rbdock ($Id: //depot/dev/client3/rdock/2013.1/src/exe/rbdock.cxx#4 $)

>  <Rbt.Library>
libRbt.so (2013.1, Build901 2013/11/27)

>  <Rbt.Parameter_File>
/export/apps/rDock/src/rDock_2013.1_src/data/scripts/dock_solv.prm

>  <Rbt.Receptor>
prm/blind_docking_60.prm

>  <SCORE>
-2.14496

>  <SCORE.INTER>
-3.04504

>  <SCORE.INTER.CONST>
1

>  <SCORE.INTER.POLAR>
0

>  <SCORE.INTER.ROT>
8

>  <SCORE.INTER.SOLV>
21.1362

>  <SCORE.INTER.VDW>
-18.0088

>  <SCORE.INTER.norm>
-0.117117

>  <SCORE.INTRA>
0.63009

>  <SCORE.INTRA.DIHEDRAL>
-1.54342

>  <SCORE.INTRA.DIHEDRAL.0>
8.13976

>  <SCORE.INTRA.POLAR>
0

>  <SCORE.INTRA.POLAR.0>
0

>  <SCORE.INTRA.REPUL>
0

>  <SCORE.INTRA.REPUL.0>
0

>  <SCORE.INTRA.SOLV>
2.65593

>  <SCORE.INTRA.SOLV.lig_0>
-82.9561

>  <SCORE.INTRA.VDW>
0.0738353

>  <SCORE.INTRA.VDW.0>
-3.29171

>  <SCORE.INTRA.norm>
0.0242342

>  <SCORE.RESTR>
0.269984

>  <SCORE.RESTR.CAVITY>
0.269984

>  <SCORE.RESTR.norm>
0.010384

>  <SCORE.SYSTEM>
0

>  <SCORE.SYSTEM.CONST>
0

>  <SCORE.SYSTEM.DIHEDRAL>
0

>  <SCORE.SYSTEM.SOLV>
0

>  <SCORE.SYSTEM.norm>
0

>  <SCORE.heavy>
26

>  <SCORE.norm>
-0.0824985

>  <RMSD>
10.110

$$$$
ligand
 OpenBabel11021811433D
libRbt.so/2013.1/901 2013/11/27
 26 27  0  0  0  0  0  0  0  0999 V2000
  -24.7870  -12.6805   -2.4320 C   0  0  0  0  0  0  0  0  0  0  0  0
  -24.0700  -12.3374    5.8235 C   0  0  0  0  0  0  0  0  0  0  0  0
  -24.3808  -15.0902   10.6785 P   0  0  1  0  0  0  0  0  0  0  0  0
  -23.4264  -17.5812   11.8373 P   0  0  1  0  0  0  0  0  0  0  0  0
  -25.5349  -12.1531    3.2421 C   0  0  0  0  0  0  0  0  0  0  0  0
  -26.4265  -12.3442    0.8845 C   0  0  0  0  0  0  0  0  0  0  0  0
  -25.3355  -12.3029    1.7434 C   0  0  0  0  0  0  0  0  0  0  0  0
  -24.0619  -12.3872    1.2051 C   0  0  0  0  0  0  0  0  0  0  0  0
  -22.9673  -12.3524    2.0032 N   0  0  0  0  0  0  0  0  0  0  0  0
  -23.9085  -12.5061   -0.1316 N   0  0  0  0  0  0  0  0  0  0  0  0
  -24.9853  -12.5458   -0.9465 C   0  0  0  0  0  0  0  0  0  0  0  0
  -26.2389  -12.4656   -0.4371 N   0  0  0  0  0  0  0  0  0  0  0  0
  -25.7058  -14.3743   10.6644 O   0  5  0  0  0  0  0  0  0  0  0  0
  -22.6790  -17.7860   10.5555 O   0  0  0  0  0  0  0  0  0  0  0  0
  -25.4016  -15.9275    4.4763 S   0  0  0  0  0  0  0  0  0  0  0  0
  -25.8094  -14.6101    3.4221 C   0  0  0  0  0  0  0  0  0  0  0  0
  -23.1741  -14.2990   11.0941 O   0  0  0  0  0  0  0  0  0  0  0  0
  -22.5109  -16.9838   12.8533 O   0  5  0  0  0  0  0  0  0  0  0  0
  -25.3390  -13.4337    3.9217 N   0  0  0  0  0  0  0  0  0  0  0  0
  -24.5438  -16.4392   11.5620 O   0  0  0  0  0  0  0  0  0  0  0  0
  -24.1785  -18.7747   12.3599 O   0  0  0  0  0  0  0  0  0  0  0  0
  -24.6682  -13.5165    5.1035 C   0  0  1  0  0  0  0  0  0  0  0  0
  -24.5779  -14.9172    5.5979 C   0  0  1  0  0  0  0  0  0  0  0  0
  -23.9725  -15.5737    6.8101 C   0  0  0  0  0  0  0  0  0  0  0  0
  -24.4849  -14.8663    8.0547 C   0  0  0  0  0  0  0  0  0  0  0  0
  -24.0915  -15.6263    9.1909 O   0  0  0  0  0  0  0  0  0  0  0  0
  1 11  1  0  0  0  0
  3 13  1  1  0  0  0
  3 17  2  0  0  0  0
  3 20  1  0  0  0  0
  3 26  1  0  0  0  0
  4 14  1  6  0  0  0
  4 18  1  0  0  0  0
  4 21  2  0  0  0  0
  4 20  1  0  0  0  0
  5 19  1  0  0  0  0
  5  7  1  0  0  0  0
  6  7  2  0  0  0  0
  6 12  1  0  0  0  0
  7  8  1  0  0  0  0
  8  9  1  0  0  0  0
  8 10  2  0  0  0  0
 10 11  1  0  0  0  0
 11 12  2  0  0  0  0
 15 23  1  0  0  0  0
 15 16  1  0  0  0  0
 16 19  1  0  0  0  0
 19 22  1  0  0  0  0
 22  2  1  6  0  0  0
 22 23  1  0  0  0  0
 23 24  1  1  0  0  0
 24 25  1  0  0  0  0
 25 26  1  0  0  0  0
M  CHG  2  13  -1  18  -1
M  END
>  <CHROM.1>
177.50173752,-41.14589013,103.34020994,-39.72916487,-126.32691895,170.36576500
175.27243285,35.89960255,-24.45608501,-14.69932351,6.40194786,-3.10672939
-1.46147790,0.38322045

>  <Name>
ligand

>  <RI>
0

>  <Rbt.Current_Directory>
/home/itssahil/PROJECTS/Mol_Feturizer/New_Systems/rnas/2GDI

>  <Rbt.Executable>
rbdock ($Id: //depot/dev/client3/rdock/2013.1/src/exe/rbdock.cxx#4 $)

>  <Rbt.Library>
libRbt.so (2013.1, Build901 2013/11/27)

>  <Rbt.Parameter_File>
/export/apps/rDock/src/rDock_2013.1_src/data/scripts/dock_solv.prm

>  <Rbt.Receptor>
prm/blind_docking_40.prm

>  <SCORE>
-12.0077

>  <SCORE.INTER>
-11.6912

>  <SCORE.INTER.CONST>
1

>  <SCORE.INTER.POLAR>
0

>  <SCORE.INTER.ROT>
8

>  <SCORE.INTER.SOLV>
12.2826

>  <SCORE.INTER.VDW>
-20.8217

>  <SCORE.INTER.norm>
-0.449663

>  <SCORE.INTRA>
-0.316455

>  <SCORE.INTRA.DIHEDRAL>
-1.45851

>  <SCORE.INTRA.DIHEDRAL.0>
8.13976

>  <SCORE.INTRA.POLAR>
0

>  <SCORE.INTRA.POLAR.0>
0

>  <SCORE.INTRA.REPUL>
0

>  <SCORE.INTRA.REPUL.0>
0

>  <SCORE.INTRA.SOLV>
1.08041

>  <SCORE.INTRA.SOLV.lig_0>
-82.9561

>  <SCORE.INTRA.VDW>
-0.127404

>  <SCORE.INTRA.VDW.0>
-3.29171

>  <SCORE.INTRA.norm>
-0.0121713

>  <SCORE.RESTR>
0

>  <SCORE.RESTR.CAVITY>
0

>  <SCORE.RESTR.norm>
0

>  <SCORE.SYSTEM>
0

>  <SCORE.SYSTEM.CONST>
0

>  <SCORE.SYSTEM.DIHEDRAL>
0

>  <SCORE.SYSTEM.SOLV>
0

>  <SCORE.SYSTEM.norm>
0

>  <SCORE.heavy>
26

>  <SCORE.norm>
-0.461835

>  <RMSD>
10.112

$$$$
ligand
 OpenBabel11021811433D
libRbt.so/2013.1/901 2013/11/27
 26 27  0  0  0  0  0  0  0  0999 V2000
  -21.6623  -18.3218    5.1926 C   0  0  0  0  0  0  0  0  0  0  0  0
  -25.5476  -11.5493    7.1695 C   0  0  0  0  0  0  0  0  0  0  0  0
  -22.6456   -8.4976    5.0676 P   0  0  1  0  0  0  0  0  0  0  0  0
  -23.0514  -11.1200    3.8770 P   0  0  1  0  0  0  0  0  0  0  0  0
  -24.7134  -14.2983    7.9378 C   0  0  0  0  0  0  0  0  0  0  0  0
  -23.5651  -15.2054    5.8765 C   0  0  0  0  0  0  0  0  0  0  0  0
  -23.9156  -15.3677    7.2109 C   0  0  0  0  0  0  0  0  0  0  0  0
  -23.5118  -16.5176    7.8693 C   0  0  0  0  0  0  0  0  0  0  0  0
  -23.8308  -16.7208    9.1706 N   0  0  0  0  0  0  0  0  0  0  0  0
  -22.7913  -17.4484    7.2066 N   0  0  0  0  0  0  0  0  0  0  0  0
  -22.4641  -17.2686    5.9083 C   0  0  0  0  0  0  0  0  0  0  0  0
  -22.8517  -16.1501    5.2480 N   0  0  0  0  0  0  0  0  0  0  0  0
  -21.6516   -7.8342    4.1509 O   0  5  0  0  0  0  0  0  0  0  0  0
  -22.9876  -11.8519    5.1823 O   0  0  0  0  0  0  0  0  0  0  0  0
  -21.9494  -11.6673    9.0446 S   0  0  0  0  0  0  0  0  0  0  0  0
  -22.6745  -13.2338    8.8622 C   0  0  0  0  0  0  0  0  0  0  0  0
  -23.5586   -7.6042    5.8570 O   0  0  0  0  0  0  0  0  0  0  0  0
  -24.1765  -11.6626    3.0604 O   0  5  0  0  0  0  0  0  0  0  0  0
  -23.8759  -13.1346    8.2285 N   0  0  0  0  0  0  0  0  0  0  0  0
  -23.4770   -9.5906    4.2067 O   0  0  0  0  0  0  0  0  0  0  0  0
  -21.7619  -11.0309    3.1074 O   0  0  0  0  0  0  0  0  0  0  0  0
  -24.2591  -11.8766    7.8762 C   0  0  1  0  0  0  0  0  0  0  0  0
  -23.2448  -10.8563    8.2564 C   0  0  1  0  0  0  0  0  0  0  0  0
  -23.1469   -9.3602    8.1186 C   0  0  0  0  0  0  0  0  0  0  0  0
  -21.7976   -9.0140    7.5089 C   0  0  0  0  0  0  0  0  0  0  0  0
  -21.8254   -9.3776    6.1341 O   0  0  0  0  0  0  0  0  0  0  0  0
  1 11  1  0  0  0  0
  3 13  1  6  0  0  0
  3 17  2  0  0  0  0
  3 20  1  0  0  0  0
  3 26  1  0  0  0  0
  4 14  1  1  0  0  0
  4 18  1  0  0  0  0
  4 21  2  0  0  0  0
  4 20  1  0  0  0  0
  5 19  1  0  0  0  0
  5  7  1  0  0  0  0
  6  7  2  0  0  0  0
  6 12  1  0  0  0  0
  7  8  1  0  0  0  0
  8  9  1  0  0  0  0
  8 10  2  0  0  0  0
 10 11  1  0  0  0  0
 11 12  2  0  0  0  0
 15 23  1  0  0  0  0
 15 16  1  0  0  0  0
 16 19  1  0  0  0  0
 19 22  1  0  0  0  0
 22  2  1  6  0  0  0
 22 23  1  0  0  0  0
 23 24  1  1  0  0  0
 24 25  1  0  0  0  0
 25 26  1  0  0  0  0
M  CHG  2  13  -1  18  -1
M  END
>  <CHROM.1>
84.53166867,-52.16008777,-73.59546690,63.75711018,51.30464799,72.74782330
74.24787880,111.92410140,-23.02372667,-12.16013599,6.29187805,-2.18718426
1.47464345,0.37203696

>  <Name>
ligand

>  <RI>
0

>  <Rbt.Current_Directory>
/home/itssahil/PROJECTS/Mol_Feturizer/New_Systems/rnas/2GDI

>  <Rbt.Executable>
rbdock ($Id: //depot/dev/client3/rdock/2013.1/src/exe/rbdock.cxx#4 $)

>  <Rbt.Library>
libRbt.so (2013.1, Build901 2013/11/27)

>  <Rbt.Parameter_File>
/export/apps/rDock/src/rDock_2013.1_src/data/scripts/dock_solv.prm

>  <Rbt.Receptor>
prm/blind_docking_80.prm

>  <SCORE>
-10.5006

>  <SCORE.INTER>
-11.3211

>  <SCORE.INTER.CONST>
1

>  <SCORE.INTER.POLAR>
0

>  <SCORE.INTER.ROT>
8

>  <SCORE.INTER.SOLV>
24.9621

>  <SCORE.INTER.VDW>
-24.8014

>  <SCORE.INTER.norm>
-0.435425

>  <SCORE.INTRA>
0.812931

>  <SCORE.INTRA.DIHEDRAL>
1.83513

>  <SCORE.INTRA.DIHEDRAL.0>
8.13976

>  <SCORE.INTRA.POLAR>
0

>  <SCORE.INTRA.POLAR.0>
0

>  <SCORE.INTRA.REPUL>
0

>  <SCORE.INTRA.REPUL.0>
0

>  <SCORE.INTRA.SOLV>
1.37788

>  <SCORE.INTRA.SOLV.lig_0>
-82.9561

>  <SCORE.INTRA.VDW>
-0.793574

>  <SCORE.INTRA.VDW.0>
-3.29171

>  <SCORE.INTRA.norm>
0.0312666

>  <SCORE.RESTR>
0.00755828

>  <SCORE.RESTR.CAVITY>
0.00755828

>  <SCORE.RESTR.norm>
0.000290703

>  <SCORE.SYSTEM>
0

>  <SCORE.SYSTEM.CONST>
0

>  <SCORE.SYSTEM.DIHEDRAL>
0

>  <SCORE.SYSTEM.SOLV>
0

>  <SCORE.SYSTEM.norm>
0

>  <SCORE.heavy>
26

>  <SCORE.norm>
-0.403868

>  <RMSD>
10.113

$$$$
ligand
 OpenBabel11021811433D
libRbt.so/2013.1/901 2013/11/27
 26 27  0  0  0  0  0  0  0  0999 V2000
  -24.8261  -12.7397   -2.1210 C   0  0  0  0  0  0  0  0  0  0  0  0
  -24.0184  -11.9924    6.1256 C   0  0  0  0  0  0  0  0  0  0  0  0
  -24.4560  -15.0532   11.0194 P   0  0  1  0  0  0  0  0  0  0  0  0
  -23.9636  -17.8534   11.6314 P   0  0  1  0  0  0  0  0  0  0  0  0
  -25.4999  -12.0809    3.5487 C   0  0  0  0  0  0  0  0  0  0  0  0
  -26.4164  -12.2314    1.1976 C   0  0  0  0  0  0  0  0  0  0  0  0
  -25.3210  -12.2655    2.0513 C   0  0  0  0  0  0  0  0  0  0  0  0
  -24.0609  -12.4576    1.5088 C   0  0  0  0  0  0  0  0  0  0  0  0
  -22.9628  -12.4993    2.3017 N   0  0  0  0  0  0  0  0  0  0  0  0
  -23.9245  -12.6056    0.1731 N   0  0  0  0  0  0  0  0  0  0  0  0
  -25.0053  -12.5704   -0.6366 C   0  0  0  0  0  0  0  0  0  0  0  0
  -26.2459  -12.3845   -0.1230 N   0  0  0  0  0  0  0  0  0  0  0  0
  -25.6947  -14.2135   10.8484 O   0  5  0  0  0  0  0  0  0  0  0  0
  -24.8598  -18.9988   11.9898 O   0  0  0  0  0  0  0  0  0  0  0  0
  -24.8850  -15.7651    4.9037 S   0  0  0  0  0  0  0  0  0  0  0  0
  -25.4592  -14.5456    3.8099 C   0  0  0  0  0  0  0  0  0  0  0  0
  -23.4232  -14.5675   11.9952 O   0  0  0  0  0  0  0  0  0  0  0  0
  -23.2975  -18.1364   10.3262 O   0  5  0  0  0  0  0  0  0  0  0  0
  -25.1414  -13.3032    4.2682 N   0  0  0  0  0  0  0  0  0  0  0  0
  -24.9158  -16.5732   11.3433 O   0  0  0  0  0  0  0  0  0  0  0  0
  -22.9963  -17.4147   12.6969 O   0  0  0  0  0  0  0  0  0  0  0  0
  -24.4631  -13.2611    5.4479 C   0  0  1  0  0  0  0  0  0  0  0  0
  -24.1943  -14.6219    5.9869 C   0  0  1  0  0  0  0  0  0  0  0  0
  -23.5078  -15.1558    7.2160 C   0  0  0  0  0  0  0  0  0  0  0  0
  -24.4788  -15.0896    8.3843 C   0  0  0  0  0  0  0  0  0  0  0  0
  -23.7275  -15.1581    9.5902 O   0  0  0  0  0  0  0  0  0  0  0  0
  1 11  1  0  0  0  0
  3 13  1  6  0  0  0
  3 17  2  0  0  0  0
  3 20  1  0  0  0  0
  3 26  1  0  0  0  0
  4 14  1  1  0  0  0
  4 18  1  0  0  0  0
  4 21  2  0  0  0  0
  4 20  1  0  0  0  0
  5 19  1  0  0  0  0
  5  7  1  0  0  0  0
  6  7  2  0  0  0  0
  6 12  1  0  0  0  0
  7  8  1  0  0  0  0
  8  9  1  0  0  0  0
  8 10  2  0  0  0  0
 10 11  1  0  0  0  0
 11 12  2  0  0  0  0
 15 23  1  0  0  0  0
 15 16  1  0  0  0  0
 16 19  1  0  0  0  0
 19 22  1  0  0  0  0
 22  2  1  6  0  0  0
 22 23  1  0  0  0  0
 23 24  1  1  0  0  0
 24 25  1  0  0  0  0
 25 26  1  0  0  0  0
M  CHG  2  13  -1  18  -1
M  END
>  <CHROM.1>
-179.02101510,-39.65369442,114.63727278,175.27671332,-97.41541547,-160.80916154
177.52459171,-29.01699459,-24.48901065,-14.69678904,6.63117842,-2.76718664
-1.48986539,0.74472887

>  <Name>
ligand

>  <RI>
0

>  <Rbt.Current_Directory>
/home/itssahil/PROJECTS/Mol_Feturizer/New_Systems/rnas/2GDI

>  <Rbt.Executable>
rbdock ($Id: //depot/dev/client3/rdock/2013.1/src/exe/rbdock.cxx#4 $)

>  <Rbt.Library>
libRbt.so (2013.1, Build901 2013/11/27)

>  <Rbt.Parameter_File>
/export/apps/rDock/src/rDock_2013.1_src/data/scripts/dock_solv.prm

>  <Rbt.Receptor>
prm/blind_docking_40.prm

>  <SCORE>
-11.6093

>  <SCORE.INTER>
-12.7559

>  <SCORE.INTER.CONST>
1

>  <SCORE.INTER.POLAR>
0

>  <SCORE.INTER.ROT>
8

>  <SCORE.INTER.SOLV>
12.0901

>  <SCORE.INTER.VDW>
-21.4673

>  <SCORE.INTER.norm>
-0.490613

>  <SCORE.INTRA>
1.14664

>  <SCORE.INTRA.DIHEDRAL>
-0.944459

>  <SCORE.INTRA.DIHEDRAL.0>
8.13976

>  <SCORE.INTRA.POLAR>
0

>  <SCORE.INTRA.POLAR.0>
0

>  <SCORE.INTRA.REPUL>
0

>  <SCORE.INTRA.REPUL.0>
0

>  <SCORE.INTRA.SOLV>
3.98809

>  <SCORE.INTRA.SOLV.lig_0>
-82.9561

>  <SCORE.INTRA.VDW>
-0.375175

>  <SCORE.INTRA.VDW.0>
-3.29171

>  <SCORE.INTRA.norm>
0.0441015

>  <SCORE.RESTR>
0

>  <SCORE.RESTR.CAVITY>
0

>  <SCORE.RESTR.norm>
0

>  <SCORE.SYSTEM>
0

>  <SCORE.SYSTEM.CONST>
0

>  <SCORE.SYSTEM.DIHEDRAL>
0

>  <SCORE.SYSTEM.SOLV>
0

>  <SCORE.SYSTEM.norm>
0

>  <SCORE.heavy>
26

>  <SCORE.norm>
-0.446512

>  <RMSD>
10.116

$$$$
ligand
 OpenBabel11021811433D
libRbt.so/2013.1/901 2013/11/27
 26 27  0  0  0  0  0  0  0  0999 V2000
  -24.0867  -17.6490   10.6058 C   0  0  0  0  0  0  0  0  0  0  0  0
  -22.4887  -10.4972    5.9391 C   0  0  0  0  0  0  0  0  0  0  0  0
  -19.2632  -10.9720    0.5985 P   0  0  1  0  0  0  0  0  0  0  0  0
  -16.6543  -11.7197    1.6441 P   0  0  1  0  0  0  0  0  0  0  0  0
  -23.0037  -12.7347    7.8290 C   0  0  0  0  0  0  0  0  0  0  0  0
  -22.5409  -15.1734    8.3074 C   0  0  0  0  0  0  0  0  0  0  0  0
  -23.2980  -14.0357    8.5565 C   0  0  0  0  0  0  0  0  0  0  0  0
  -24.3180  -14.1071    9.4911 C   0  0  0  0  0  0  0  0  0  0  0  0
  -25.0841  -13.0239    9.7668 N   0  0  0  0  0  0  0  0  0  0  0  0
  -24.5525  -15.2707   10.1358 N   0  0  0  0  0  0  0  0  0  0  0  0
  -23.8035  -16.3644    9.8751 C   0  0  0  0  0  0  0  0  0  0  0  0
  -22.8022  -16.3129    8.9629 N   0  0  0  0  0  0  0  0  0  0  0  0
  -19.0462   -9.4820    0.6348 O   0  5  0  0  0  0  0  0  0  0  0  0
  -16.1550  -10.3076    1.6424 O   0  0  0  0  0  0  0  0  0  0  0  0
  -22.9045  -14.0893    4.0950 S   0  0  0  0  0  0  0  0  0  0  0  0
  -23.0648  -14.1866    5.8207 C   0  0  0  0  0  0  0  0  0  0  0  0
  -19.1685  -11.6501   -0.7380 O   0  0  0  0  0  0  0  0  0  0  0  0
  -16.2650  -12.3802    2.9245 O   0  5  0  0  0  0  0  0  0  0  0  0
  -22.9171  -12.9562    6.3855 N   0  0  0  0  0  0  0  0  0  0  0  0
  -18.2738  -11.6542    1.6859 O   0  0  0  0  0  0  0  0  0  0  0  0
  -16.3075  -12.5432    0.4339 O   0  0  0  0  0  0  0  0  0  0  0  0
  -22.6812  -11.9308    5.5215 C   0  0  1  0  0  0  0  0  0  0  0  0
  -22.6519  -12.3884    4.1058 C   0  0  1  0  0  0  0  0  0  0  0  0
  -22.4368  -11.7094    2.7793 C   0  0  0  0  0  0  0  0  0  0  0  0
  -20.9417  -11.5671    2.5411 C   0  0  0  0  0  0  0  0  0  0  0  0
  -20.7376  -11.2718    1.1648 O   0  0  0  0  0  0  0  0  0  0  0  0
  1 11  1  0  0  0  0
  3 13  1  6  0  0  0
  3 17  2  0  0  0  0
  3 20  1  0  0  0  0
  3 26  1  0  0  0  0
  4 14  1  6  0  0  0
  4 18  1  0  0  0  0
  4 21  2  0  0  0  0
  4 20  1  0  0  0  0
  5 19  1  0  0  0  0
  5  7  1  0  0  0  0
  6  7  2  0  0  0  0
  6 12  1  0  0  0  0
  7  8  1  0  0  0  0
  8  9  1  0  0  0  0
  8 10  2  0  0  0  0
 10 11  1  0  0  0  0
 11 12  2  0  0  0  0
 15 23  1  0  0  0  0
 15 16  1  0  0  0  0
 16 19  1  0  0  0  0
 19 22  1  0  0  0  0
 22  2  1  6  0  0  0
 22 23  1  0  0  0  0
 23 24  1  1  0  0  0
 24 25  1  0  0  0  0
 25 26  1  0  0  0  0
M  CHG  2  13  -1  18  -1
M  END
>  <CHROM.1>
-67.05741549,-1.04999778,50.30570136,60.43052338,-96.00953403,164.35700677
176.28853536,-93.16621978,-20.98967428,-12.76013810,4.47656046,-2.19158722
0.28637538,-0.94036719

>  <Name>
ligand

>  <RI>
0

>  <Rbt.Current_Directory>
/home/itssahil/PROJECTS/Mol_Feturizer/New_Systems/rnas/2GDI

>  <Rbt.Executable>
rbdock ($Id: //depot/dev/client3/rdock/2013.1/src/exe/rbdock.cxx#4 $)

>  <Rbt.Library>
libRbt.so (2013.1, Build901 2013/11/27)

>  <Rbt.Parameter_File>
/export/apps/rDock/src/rDock_2013.1_src/data/scripts/dock_solv.prm

>  <Rbt.Receptor>
prm/blind_docking_60.prm

>  <SCORE>
-12.0871

>  <SCORE.INTER>
-13.2941

>  <SCORE.INTER.CONST>
1

>  <SCORE.INTER.POLAR>
0

>  <SCORE.INTER.ROT>
8

>  <SCORE.INTER.SOLV>
22.0821

>  <SCORE.INTER.VDW>
-25.1568

>  <SCORE.INTER.norm>
-0.511311

>  <SCORE.INTRA>
1.207

>  <SCORE.INTRA.DIHEDRAL>
-0.829613

>  <SCORE.INTRA.DIHEDRAL.0>
8.13976

>  <SCORE.INTRA.POLAR>
0

>  <SCORE.INTRA.POLAR.0>
0

>  <SCORE.INTRA.REPUL>
0

>  <SCORE.INTRA.REPUL.0>
0

>  <SCORE.INTRA.SOLV>
-0.11529

>  <SCORE.INTRA.SOLV.lig_0>
-82.9561

>  <SCORE.INTRA.VDW>
1.67945

>  <SCORE.INTRA.VDW.0>
-3.29171

>  <SCORE.INTRA.norm>
0.0464232

>  <SCORE.RESTR>
0

>  <SCORE.RESTR.CAVITY>
0

>  <SCORE.RESTR.norm>
0

>  <SCORE.SYSTEM>
0

>  <SCORE.SYSTEM.CONST>
0

>  <SCORE.SYSTEM.DIHEDRAL>
0

>  <SCORE.SYSTEM.SOLV>
0

>  <SCORE.SYSTEM.norm>
0

>  <SCORE.heavy>
26

>  <SCORE.norm>
-0.464888

>  <RMSD>
10.148

$$$$
ligand
 OpenBabel11021811433D
libRbt.so/2013.1/901 2013/11/27
 26 27  0  0  0  0  0  0  0  0999 V2000
  -21.8642   -6.4261    4.8866 C   0  0  0  0  0  0  0  0  0  0  0  0
  -23.3426  -14.5265    7.6356 C   0  0  0  0  0  0  0  0  0  0  0  0
  -24.2527  -17.4011   11.8083 P   0  0  1  0  0  0  0  0  0  0  0  0
  -22.6031  -19.2832   10.3267 P   0  0  1  0  0  0  0  0  0  0  0  0
  -22.7615  -11.9142    6.3389 C   0  0  0  0  0  0  0  0  0  0  0  0
  -21.8864   -9.5935    6.8276 C   0  0  0  0  0  0  0  0  0  0  0  0
  -22.5343  -10.4612    5.9575 C   0  0  0  0  0  0  0  0  0  0  0  0
  -22.9571   -9.9788    4.7297 C   0  0  0  0  0  0  0  0  0  0  0  0
  -23.5945  -10.7871    3.8483 N   0  0  0  0  0  0  0  0  0  0  0  0
  -22.7320   -8.6867    4.4064 N   0  0  0  0  0  0  0  0  0  0  0  0
  -22.1011   -7.8617    5.2704 C   0  0  0  0  0  0  0  0  0  0  0  0
  -21.6815   -8.3163    6.4764 N   0  0  0  0  0  0  0  0  0  0  0  0
  -25.2179  -18.3294   12.4976 O   0  5  0  0  0  0  0  0  0  0  0  0
  -21.5634  -19.0043   11.3682 O   0  0  0  0  0  0  0  0  0  0  0  0
  -25.2377  -11.4026    9.4038 S   0  0  0  0  0  0  0  0  0  0  0  0
  -24.2592  -10.9286    8.0507 C   0  0  0  0  0  0  0  0  0  0  0  0
  -23.1115  -16.8640   12.6232 O   0  0  0  0  0  0  0  0  0  0  0  0
  -23.3143  -20.5508   10.6651 O   0  5  0  0  0  0  0  0  0  0  0  0
  -23.6491  -12.0133    7.4976 N   0  0  0  0  0  0  0  0  0  0  0  0
  -23.7316  -18.1262   10.4557 O   0  0  0  0  0  0  0  0  0  0  0  0
  -22.1331  -19.2414    8.8982 O   0  0  0  0  0  0  0  0  0  0  0  0
  -23.9141  -13.2100    8.0902 C   0  0  1  0  0  0  0  0  0  0  0  0
  -24.8532  -13.0703    9.2361 C   0  0  1  0  0  0  0  0  0  0  0  0
  -25.4695  -14.0280   10.2210 C   0  0  0  0  0  0  0  0  0  0  0  0
  -24.4204  -15.0504   10.6287 C   0  0  0  0  0  0  0  0  0  0  0  0
  -25.0811  -16.1291   11.2792 O   0  0  0  0  0  0  0  0  0  0  0  0
  1 11  1  0  0  0  0
  3 13  1  1  0  0  0
  3 17  2  0  0  0  0
  3 20  1  0  0  0  0
  3 26  1  0  0  0  0
  4 14  1  1  0  0  0
  4 18  1  0  0  0  0
  4 21  2  0  0  0  0
  4 20  1  0  0  0  0
  5 19  1  0  0  0  0
  5  7  1  0  0  0  0
  6  7  2  0  0  0  0
  6 12  1  0  0  0  0
  7  8  1  0  0  0  0
  8  9  1  0  0  0  0
  8 10  2  0  0  0  0
 10 11  1  0  0  0  0
 11 12  2  0  0  0  0
 15 23  1  0  0  0  0
 15 16  1  0  0  0  0
 16 19  1  0  0  0  0
 19 22  1  0  0  0  0
 22  2  1  6  0  0  0
 22 23  1  0  0  0  0
 23 24  1  1  0  0  0
 24 25  1  0  0  0  0
 25 26  1  0  0  0  0
M  CHG  2  13  -1  18  -1
M  END
>  <CHROM.1>
-78.69319152,5.33259566,64.09609384,-35.05056180,-138.79834922,-165.58826431
178.63150419,177.50114824,-23.48118625,-14.11399147,8.82497081,-1.47029508
-0.88497194,2.69418163

>  <Name>
ligand

>  <RI>
0

>  <Rbt.Current_Directory>
/home/itssahil/PROJECTS/Mol_Feturizer/New_Systems/rnas/2GDI

>  <Rbt.Executable>
rbdock ($Id: //depot/dev/client3/rdock/2013.1/src/exe/rbdock.cxx#4 $)

>  <Rbt.Library>
libRbt.so (2013.1, Build901 2013/11/27)

>  <Rbt.Parameter_File>
/export/apps/rDock/src/rDock_2013.1_src/data/scripts/dock_solv.prm

>  <Rbt.Receptor>
prm/blind_docking_40.prm

>  <SCORE>
-17.0921

>  <SCORE.INTER>
-17.738

>  <SCORE.INTER.CONST>
1

>  <SCORE.INTER.POLAR>
0

>  <SCORE.INTER.ROT>
8

>  <SCORE.INTER.SOLV>
20.1219

>  <SCORE.INTER.VDW>
-27.4659

>  <SCORE.INTER.norm>
-0.68223

>  <SCORE.INTRA>
0.309221

>  <SCORE.INTRA.DIHEDRAL>
-1.50041

>  <SCORE.INTRA.DIHEDRAL.0>
8.13976

>  <SCORE.INTRA.POLAR>
0

>  <SCORE.INTRA.POLAR.0>
0

>  <SCORE.INTRA.REPUL>
0

>  <SCORE.INTRA.REPUL.0>
0

>  <SCORE.INTRA.SOLV>
-0.0679756

>  <SCORE.INTRA.SOLV.lig_0>
-82.9561

>  <SCORE.INTRA.VDW>
1.09341

>  <SCORE.INTRA.VDW.0>
-3.29171

>  <SCORE.INTRA.norm>
0.0118931

>  <SCORE.RESTR>
0.336621

>  <SCORE.RESTR.CAVITY>
0.336621

>  <SCORE.RESTR.norm>
0.012947

>  <SCORE.SYSTEM>
0

>  <SCORE.SYSTEM.CONST>
0

>  <SCORE.SYSTEM.DIHEDRAL>
0

>  <SCORE.SYSTEM.SOLV>
0

>  <SCORE.SYSTEM.norm>
0

>  <SCORE.heavy>
26

>  <SCORE.norm>
-0.65739

>  <RMSD>
10.154

$$$$
ligand
 OpenBabel11021811433D
libRbt.so/2013.1/901 2013/11/27
 26 27  0  0  0  0  0  0  0  0999 V2000
  -25.7071  -13.2044   -1.3762 C   0  0  0  0  0  0  0  0  0  0  0  0
  -25.4471  -11.0505    7.0291 C   0  0  0  0  0  0  0  0  0  0  0  0
  -22.8989  -12.3631    9.7720 P   0  0  1  0  0  0  0  0  0  0  0  0
  -24.9152  -13.9706   11.1170 P   0  0  1  0  0  0  0  0  0  0  0  0
  -25.8238  -12.0448    4.2519 C   0  0  0  0  0  0  0  0  0  0  0  0
  -25.9315  -11.3372    1.8275 C   0  0  0  0  0  0  0  0  0  0  0  0
  -25.8030  -12.3545    2.7646 C   0  0  0  0  0  0  0  0  0  0  0  0
  -25.6420  -13.6552    2.3161 C   0  0  0  0  0  0  0  0  0  0  0  0
  -25.5138  -14.6809    3.1925 N   0  0  0  0  0  0  0  0  0  0  0  0
  -25.6126  -13.9051    0.9890 N   0  0  0  0  0  0  0  0  0  0  0  0
  -25.7414  -12.8989    0.0968 C   0  0  0  0  0  0  0  0  0  0  0  0
  -25.9008  -11.6203    0.5177 N   0  0  0  0  0  0  0  0  0  0  0  0
  -21.9848  -11.9679   10.9020 O   0  5  0  0  0  0  0  0  0  0  0  0
  -26.3284  -13.7067   11.5376 O   0  0  0  0  0  0  0  0  0  0  0  0
  -22.3558  -10.1309    4.5644 S   0  0  0  0  0  0  0  0  0  0  0  0
  -23.6172  -11.0222    3.7722 C   0  0  0  0  0  0  0  0  0  0  0  0
  -22.4547  -13.4937    8.8893 O   0  0  0  0  0  0  0  0  0  0  0  0
  -24.9033  -15.0176   10.0536 O   0  5  0  0  0  0  0  0  0  0  0  0
  -24.6256  -11.3024    4.6436 N   0  0  0  0  0  0  0  0  0  0  0  0
  -24.3757  -12.6284   10.3849 O   0  0  0  0  0  0  0  0  0  0  0  0
  -23.9392  -14.2544   12.2261 O   0  0  0  0  0  0  0  0  0  0  0  0
  -24.4545  -10.8479    5.9154 C   0  0  1  0  0  0  0  0  0  0  0  0
  -23.1736  -10.1080    6.0770 C   0  0  1  0  0  0  0  0  0  0  0  0
  -22.4908   -9.4142    7.2257 C   0  0  0  0  0  0  0  0  0  0  0  0
  -21.9731  -10.4671    8.1929 C   0  0  0  0  0  0  0  0  0  0  0  0
  -23.0918  -11.0823    8.8199 O   0  0  0  0  0  0  0  0  0  0  0  0
  1 11  1  0  0  0  0
  3 13  1  1  0  0  0
  3 17  2  0  0  0  0
  3 20  1  0  0  0  0
  3 26  1  0  0  0  0
  4 14  1  1  0  0  0
  4 18  1  0  0  0  0
  4 21  2  0  0  0  0
  4 20  1  0  0  0  0
  5 19  1  0  0  0  0
  5  7  1  0  0  0  0
  6  7  2  0  0  0  0
  6 12  1  0  0  0  0
  7  8  1  0  0  0  0
  8  9  1  0  0  0  0
  8 10  2  0  0  0  0
 10 11  1  0  0  0  0
 11 12  2  0  0  0  0
 15 23  1  0  0  0  0
 15 16  1  0  0  0  0
 16 19  1  0  0  0  0
 19 22  1  0  0  0  0
 22  2  1  6  0  0  0
 22 23  1  0  0  0  0
 23 24  1  1  0  0  0
 24 25  1  0  0  0  0
 25 26  1  0  0  0  0
M  CHG  2  13  -1  18  -1
M  END
>  <CHROM.1>
-81.61308138,-3.66824529,-68.41764189,178.39107905,-106.62502194,-69.18618214
172.62647271,59.28081858,-24.25292105,-12.28039514,6.51172788,1.81489126
-0.87731345,-1.30645323

>  <Name>
ligand

>  <RI>
0

>  <Rbt.Current_Directory>
/home/itssahil/PROJECTS/Mol_Feturizer/New_Systems/rnas/2GDI

>  <Rbt.Executable>
rbdock ($Id: //depot/dev/client3/rdock/2013.1/src/exe/rbdock.cxx#4 $)

>  <Rbt.Library>
libRbt.so (2013.1, Build901 2013/11/27)

>  <Rbt.Parameter_File>
/export/apps/rDock/src/rDock_2013.1_src/data/scripts/dock_solv.prm

>  <Rbt.Receptor>
prm/blind_docking_80.prm

>  <SCORE>
-16.3996

>  <SCORE.INTER>
-16.5461

>  <SCORE.INTER.CONST>
1

>  <SCORE.INTER.POLAR>
0

>  <SCORE.INTER.ROT>
8

>  <SCORE.INTER.SOLV>
13.3196

>  <SCORE.INTER.VDW>
-24.404

>  <SCORE.INTER.norm>
-0.63639

>  <SCORE.INTRA>
0.135449

>  <SCORE.INTRA.DIHEDRAL>
-2.47152

>  <SCORE.INTRA.DIHEDRAL.0>
8.13976

>  <SCORE.INTRA.POLAR>
0

>  <SCORE.INTRA.POLAR.0>
0

>  <SCORE.INTRA.REPUL>
0

>  <SCORE.INTRA.REPUL.0>
0

>  <SCORE.INTRA.SOLV>
2.53192

>  <SCORE.INTRA.SOLV.lig_0>
-82.9561

>  <SCORE.INTRA.VDW>
0.105251

>  <SCORE.INTRA.VDW.0>
-3.29171

>  <SCORE.INTRA.norm>
0.00520959

>  <SCORE.RESTR>
0.0110335

>  <SCORE.RESTR.CAVITY>
0.0110335

>  <SCORE.RESTR.norm>
0.000424366

>  <SCORE.SYSTEM>
0

>  <SCORE.SYSTEM.CONST>
0

>  <SCORE.SYSTEM.DIHEDRAL>
0

>  <SCORE.SYSTEM.SOLV>
0

>  <SCORE.SYSTEM.norm>
0

>  <SCORE.heavy>
26

>  <SCORE.norm>
-0.630756

>  <RMSD>
10.156

$$$$
ligand
 OpenBabel11021811433D
libRbt.so/2013.1/901 2013/11/27
 26 27  0  0  0  0  0  0  0  0999 V2000
  -25.9122  -13.3854   -1.6566 C   0  0  0  0  0  0  0  0  0  0  0  0
  -25.8862  -11.3197    6.4461 C   0  0  0  0  0  0  0  0  0  0  0  0
  -24.5078  -11.4848   10.0430 P   0  0  1  0  0  0  0  0  0  0  0  0
  -24.3779  -14.3886   10.1431 P   0  0  1  0  0  0  0  0  0  0  0  0
  -25.7562  -13.1197    4.0826 C   0  0  0  0  0  0  0  0  0  0  0  0
  -26.0154  -12.0483    1.8078 C   0  0  0  0  0  0  0  0  0  0  0  0
  -25.8074  -13.1935    2.5660 C   0  0  0  0  0  0  0  0  0  0  0  0
  -25.6340  -14.4020    1.9113 C   0  0  0  0  0  0  0  0  0  0  0  0
  -25.4293  -15.5460    2.6083 N   0  0  0  0  0  0  0  0  0  0  0  0
  -25.6696  -14.4413    0.5616 N   0  0  0  0  0  0  0  0  0  0  0  0
  -25.8751  -13.3139   -0.1540 C   0  0  0  0  0  0  0  0  0  0  0  0
  -26.0478  -12.1231    0.4699 N   0  0  0  0  0  0  0  0  0  0  0  0
  -25.9882  -11.7571   10.0954 O   0  5  0  0  0  0  0  0  0  0  0  0
  -25.4756  -14.3874   11.1622 O   0  0  0  0  0  0  0  0  0  0  0  0
  -22.2341  -11.3788    4.6754 S   0  0  0  0  0  0  0  0  0  0  0  0
  -23.3885  -12.4111    3.8913 C   0  0  0  0  0  0  0  0  0  0  0  0
  -23.9560  -10.4840   11.0171 O   0  0  0  0  0  0  0  0  0  0  0  0
  -24.9672  -14.5534    8.7819 O   0  5  0  0  0  0  0  0  0  0  0  0
  -24.5923  -12.3519    4.5253 N   0  0  0  0  0  0  0  0  0  0  0  0
  -23.7287  -12.9029   10.1378 O   0  0  0  0  0  0  0  0  0  0  0  0
  -23.2374  -15.3345   10.4035 O   0  0  0  0  0  0  0  0  0  0  0  0
  -24.6533  -11.5282    5.6076 C   0  0  1  0  0  0  0  0  0  0  0  0
  -23.3585  -10.8393    5.8594 C   0  0  1  0  0  0  0  0  0  0  0  0
  -22.8675   -9.8532    6.8857 C   0  0  0  0  0  0  0  0  0  0  0  0
  -22.8319  -10.5386    8.2426 C   0  0  0  0  0  0  0  0  0  0  0  0
  -24.1561  -10.9398    8.5721 O   0  0  0  0  0  0  0  0  0  0  0  0
  1 11  1  0  0  0  0
  3 13  1  1  0  0  0
  3 17  2  0  0  0  0
  3 20  1  0  0  0  0
  3 26  1  0  0  0  0
  4 14  1  1  0  0  0
  4 18  1  0  0  0  0
  4 21  2  0  0  0  0
  4 20  1  0  0  0  0
  5 19  1  0  0  0  0
  5  7  1  0  0  0  0
  6  7  2  0  0  0  0
  6 12  1  0  0  0  0
  7  8  1  0  0  0  0
  8  9  1  0  0  0  0
  8 10  2  0  0  0  0
 10 11  1  0  0  0  0
 11 12  2  0  0  0  0
 15 23  1  0  0  0  0
 15 16  1  0  0  0  0
 16 19  1  0  0  0  0
 19 22  1  0  0  0  0
 22  2  1  6  0  0  0
 22 23  1  0  0  0  0
 23 24  1  1  0  0  0
 24 25  1  0  0  0  0
 25 26  1  0  0  0  0
M  CHG  2  13  -1  18  -1
M  END
>  <CHROM.1>
5.55160606,-37.06387463,-65.85152450,-49.41091480,-111.62467928,-61.41819386
-170.21375296,177.16431984,-24.56826796,-12.59996432,6.24442106,1.88703131
-1.15192487,-1.34170450

>  <Name>
ligand

>  <RI>
0

>  <Rbt.Current_Directory>
/home/itssahil/PROJECTS/Mol_Feturizer/New_Systems/rnas/2GDI

>  <Rbt.Executable>
rbdock ($Id: //depot/dev/client3/rdock/2013.1/src/exe/rbdock.cxx#4 $)

>  <Rbt.Library>
libRbt.so (2013.1, Build901 2013/11/27)

>  <Rbt.Parameter_File>
/export/apps/rDock/src/rDock_2013.1_src/data/scripts/dock_solv.prm

>  <Rbt.Receptor>
prm/blind_docking_100.prm

>  <SCORE>
-9.93739

>  <SCORE.INTER>
-10.6897

>  <SCORE.INTER.CONST>
1

>  <SCORE.INTER.POLAR>
0

>  <SCORE.INTER.ROT>
8

>  <SCORE.INTER.SOLV>
16.8042

>  <SCORE.INTER.VDW>
-21.6612

>  <SCORE.INTER.norm>
-0.411142

>  <SCORE.INTRA>
0.752312

>  <SCORE.INTRA.DIHEDRAL>
-0.739475

>  <SCORE.INTRA.DIHEDRAL.0>
8.13976

>  <SCORE.INTRA.POLAR>
0

>  <SCORE.INTRA.POLAR.0>
0

>  <SCORE.INTRA.REPUL>
0

>  <SCORE.INTRA.REPUL.0>
0

>  <SCORE.INTRA.SOLV>
1.24685

>  <SCORE.INTRA.SOLV.lig_0>
-82.9561

>  <SCORE.INTRA.VDW>
0.498623

>  <SCORE.INTRA.VDW.0>
-3.29171

>  <SCORE.INTRA.norm>
0.0289351

>  <SCORE.RESTR>
0

>  <SCORE.RESTR.CAVITY>
0

>  <SCORE.RESTR.norm>
0

>  <SCORE.SYSTEM>
0

>  <SCORE.SYSTEM.CONST>
0

>  <SCORE.SYSTEM.DIHEDRAL>
0

>  <SCORE.SYSTEM.SOLV>
0

>  <SCORE.SYSTEM.norm>
0

>  <SCORE.heavy>
26

>  <SCORE.norm>
-0.382207

>  <RMSD>
10.163

$$$$
ligand
 OpenBabel11021811433D
libRbt.so/2013.1/901 2013/11/27
 26 27  0  0  0  0  0  0  0  0999 V2000
  -22.8936  -17.0908   12.9093 C   0  0  0  0  0  0  0  0  0  0  0  0
  -24.7569  -17.0510    4.5619 C   0  0  0  0  0  0  0  0  0  0  0  0
  -25.4023  -11.2699    1.9672 P   0  0  1  0  0  0  0  0  0  0  0  0
  -26.0149  -13.2545   -0.0687 P   0  0  1  0  0  0  0  0  0  0  0  0
  -23.4589  -17.4795    7.2029 C   0  0  0  0  0  0  0  0  0  0  0  0
  -24.0778  -16.4812    9.4413 C   0  0  0  0  0  0  0  0  0  0  0  0
  -23.3008  -17.3708    8.7101 C   0  0  0  0  0  0  0  0  0  0  0  0
  -22.3887  -18.1664    9.3839 C   0  0  0  0  0  0  0  0  0  0  0  0
  -21.6081  -19.0481    8.7133 N   0  0  0  0  0  0  0  0  0  0  0  0
  -22.2753  -18.0624   10.7258 N   0  0  0  0  0  0  0  0  0  0  0  0
  -23.0410  -17.1884   11.4150 C   0  0  0  0  0  0  0  0  0  0  0  0
  -23.9378  -16.4013   10.7719 N   0  0  0  0  0  0  0  0  0  0  0  0
  -23.9498  -11.6682    1.9740 O   0  5  0  0  0  0  0  0  0  0  0  0
  -26.1675  -14.2237    1.0631 O   0  0  0  0  0  0  0  0  0  0  0  0
  -23.2777  -13.6410    6.1930 S   0  0  0  0  0  0  0  0  0  0  0  0
  -23.0181  -15.0402    7.1869 C   0  0  0  0  0  0  0  0  0  0  0  0
  -25.7238   -9.8307    2.2501 O   0  0  0  0  0  0  0  0  0  0  0  0
  -27.2186  -13.3277   -0.9479 O   0  5  0  0  0  0  0  0  0  0  0  0
  -23.5327  -16.1522    6.5923 N   0  0  0  0  0  0  0  0  0  0  0  0
  -26.0561  -11.7644    0.5690 O   0  0  0  0  0  0  0  0  0  0  0  0
  -24.7247  -13.3368   -0.8379 O   0  0  0  0  0  0  0  0  0  0  0  0
  -24.1274  -15.9575    5.3832 C   0  0  1  0  0  0  0  0  0  0  0  0
  -24.0690  -14.5337    4.9544 C   0  0  1  0  0  0  0  0  0  0  0  0
  -24.5519  -13.7718    3.7489 C   0  0  0  0  0  0  0  0  0  0  0  0
  -25.4570  -12.6427    4.2161 C   0  0  0  0  0  0  0  0  0  0  0  0
  -26.1599  -12.1408    3.0860 O   0  0  0  0  0  0  0  0  0  0  0  0
  1 11  1  0  0  0  0
  3 13  1  1  0  0  0
  3 17  2  0  0  0  0
  3 20  1  0  0  0  0
  3 26  1  0  0  0  0
  4 14  1  1  0  0  0
  4 18  1  0  0  0  0
  4 21  2  0  0  0  0
  4 20  1  0  0  0  0
  5 19  1  0  0  0  0
  5  7  1  0  0  0  0
  6  7  2  0  0  0  0
  6 12  1  0  0  0  0
  7  8  1  0  0  0  0
  8  9  1  0  0  0  0
  8 10  2  0  0  0  0
 10 11  1  0  0  0  0
 11 12  2  0  0  0  0
 15 23  1  0  0  0  0
 15 16  1  0  0  0  0
 16 19  1  0  0  0  0
 19 22  1  0  0  0  0
 22  2  1  6  0  0  0
 22 23  1  0  0  0  0
 23 24  1  1  0  0  0
 24 25  1  0  0  0  0
 25 26  1  0  0  0  0
M  CHG  2  13  -1  18  -1
M  END
>  <CHROM.1>
52.73590517,23.50857905,44.85942877,38.47469429,-55.09425044,-165.99524027
-72.04931259,26.61528038,-24.42359709,-14.48978412,4.87997356,-0.02492346
-1.30342870,0.47158640

>  <Name>
ligand

>  <RI>
0

>  <Rbt.Current_Directory>
/home/itssahil/PROJECTS/Mol_Feturizer/New_Systems/rnas/2GDI

>  <Rbt.Executable>
rbdock ($Id: //depot/dev/client3/rdock/2013.1/src/exe/rbdock.cxx#4 $)

>  <Rbt.Library>
libRbt.so (2013.1, Build901 2013/11/27)

>  <Rbt.Parameter_File>
/export/apps/rDock/src/rDock_2013.1_src/data/scripts/dock_solv.prm

>  <Rbt.Receptor>
prm/blind_docking_40.prm

>  <SCORE>
-9.48015

>  <SCORE.INTER>
-11.957

>  <SCORE.INTER.CONST>
1

>  <SCORE.INTER.POLAR>
0

>  <SCORE.INTER.ROT>
8

>  <SCORE.INTER.SOLV>
29.389

>  <SCORE.INTER.VDW>
-26.701

>  <SCORE.INTER.norm>
-0.459885

>  <SCORE.INTRA>
2.47687

>  <SCORE.INTRA.DIHEDRAL>
0.941963

>  <SCORE.INTRA.DIHEDRAL.0>
8.13976

>  <SCORE.INTRA.POLAR>
0

>  <SCORE.INTRA.POLAR.0>
0

>  <SCORE.INTRA.REPUL>
0

>  <SCORE.INTRA.REPUL.0>
0

>  <SCORE.INTRA.SOLV>
0.53889

>  <SCORE.INTRA.SOLV.lig_0>
-82.9561

>  <SCORE.INTRA.VDW>
1.73644

>  <SCORE.INTRA.VDW.0>
-3.29171

>  <SCORE.INTRA.norm>
0.095264

>  <SCORE.RESTR>
0

>  <SCORE.RESTR.CAVITY>
0

>  <SCORE.RESTR.norm>
0

>  <SCORE.SYSTEM>
0

>  <SCORE.SYSTEM.CONST>
0

>  <SCORE.SYSTEM.DIHEDRAL>
0

>  <SCORE.SYSTEM.SOLV>
0

>  <SCORE.SYSTEM.norm>
0

>  <SCORE.heavy>
26

>  <SCORE.norm>
-0.364621

>  <RMSD>
10.164

$$$$
ligand
 OpenBabel11021811433D
libRbt.so/2013.1/901 2013/11/27
 26 27  0  0  0  0  0  0  0  0999 V2000
  -25.7675  -12.5156   -0.1099 C   0  0  0  0  0  0  0  0  0  0  0  0
  -23.8661   -9.0190    7.1987 C   0  0  0  0  0  0  0  0  0  0  0  0
  -23.8662  -14.3304   10.9789 P   0  0  1  0  0  0  0  0  0  0  0  0
  -24.4028  -17.1511   11.4421 P   0  0  1  0  0  0  0  0  0  0  0  0
  -23.3407  -10.5985    4.7345 C   0  0  0  0  0  0  0  0  0  0  0  0
  -25.0465  -10.4275    2.8768 C   0  0  0  0  0  0  0  0  0  0  0  0
  -23.9876  -11.1124    3.4595 C   0  0  0  0  0  0  0  0  0  0  0  0
  -23.5245  -12.2657    2.8476 C   0  0  0  0  0  0  0  0  0  0  0  0
  -22.4949  -12.9682    3.3794 N   0  0  0  0  0  0  0  0  0  0  0  0
  -24.1062  -12.6961    1.7070 N   0  0  0  0  0  0  0  0  0  0  0  0
  -25.1359  -12.0136    1.1603 C   0  0  0  0  0  0  0  0  0  0  0  0
  -25.6027  -10.8838    1.7459 N   0  0  0  0  0  0  0  0  0  0  0  0
  -23.3261  -13.9659   12.3368 O   0  5  0  0  0  0  0  0  0  0  0  0
  -23.4542  -17.1280   12.6010 O   0  0  0  0  0  0  0  0  0  0  0  0
  -25.0453  -12.8917    7.4954 S   0  0  0  0  0  0  0  0  0  0  0  0
  -24.3415  -12.5097    5.9554 C   0  0  0  0  0  0  0  0  0  0  0  0
  -22.8711  -14.5308    9.8723 O   0  0  0  0  0  0  0  0  0  0  0  0
  -25.6650  -17.8351   11.8498 O   0  5  0  0  0  0  0  0  0  0  0  0
  -23.9650  -11.2016    5.9121 N   0  0  0  0  0  0  0  0  0  0  0  0
  -24.8373  -15.6168   11.1492 O   0  0  0  0  0  0  0  0  0  0  0  0
  -23.8476  -17.6756   10.1460 O   0  0  0  0  0  0  0  0  0  0  0  0
  -24.2050  -10.4772    7.0395 C   0  0  1  0  0  0  0  0  0  0  0  0
  -24.8292  -11.3005    8.1105 C   0  0  1  0  0  0  0  0  0  0  0  0
  -25.2968  -11.0292    9.5158 C   0  0  0  0  0  0  0  0  0  0  0  0
  -24.4112  -11.8004   10.4817 C   0  0  0  0  0  0  0  0  0  0  0  0
  -24.8523  -13.1524   10.5054 O   0  0  0  0  0  0  0  0  0  0  0  0
  1 11  1  0  0  0  0
  3 13  1  1  0  0  0
  3 17  2  0  0  0  0
  3 20  1  0  0  0  0
  3 26  1  0  0  0  0
  4 14  1  1  0  0  0
  4 18  1  0  0  0  0
  4 21  2  0  0  0  0
  4 20  1  0  0  0  0
  5 19  1  0  0  0  0
  5  7  1  0  0  0  0
  6  7  2  0  0  0  0
  6 12  1  0  0  0  0
  7  8  1  0  0  0  0
  8  9  1  0  0  0  0
  8 10  2  0  0  0  0
 10 11  1  0  0  0  0
 11 12  2  0  0  0  0
 15 23  1  0  0  0  0
 15 16  1  0  0  0  0
 16 19  1  0  0  0  0
 19 22  1  0  0  0  0
 22  2  1  1  0  0  0
 22 23  1  0  0  0  0
 23 24  1  6  0  0  0
 24 25  1  0  0  0  0
 25 26  1  0  0  0  0
M  CHG  2  13  -1  18  -1
M  END
>  <CHROM.1>
-72.99781153,39.54660207,92.48892458,49.67936021,67.84374507,-79.79115288
157.89014417,53.72499367,-24.32040519,-13.31826667,7.65040065,2.14516998
-1.51345806,-0.53062569

>  <Name>
ligand

>  <RI>
0

>  <Rbt.Current_Directory>
/home/itssahil/PROJECTS/Mol_Feturizer/New_Systems/rnas/2GDI

>  <Rbt.Executable>
rbdock ($Id: //depot/dev/client3/rdock/2013.1/src/exe/rbdock.cxx#4 $)

>  <Rbt.Library>
libRbt.so (2013.1, Build901 2013/11/27)

>  <Rbt.Parameter_File>
/export/apps/rDock/src/rDock_2013.1_src/data/scripts/dock_solv.prm

>  <Rbt.Receptor>
prm/blind_docking_60.prm

>  <SCORE>
-9.78507

>  <SCORE.INTER>
-10.6187

>  <SCORE.INTER.CONST>
1

>  <SCORE.INTER.POLAR>
0

>  <SCORE.INTER.ROT>
8

>  <SCORE.INTER.SOLV>
17.8321

>  <SCORE.INTER.VDW>
-21.9565

>  <SCORE.INTER.norm>
-0.408413

>  <SCORE.INTRA>
0.833677

>  <SCORE.INTRA.DIHEDRAL>
1.14313

>  <SCORE.INTRA.DIHEDRAL.0>
8.13976

>  <SCORE.INTRA.POLAR>
0

>  <SCORE.INTRA.POLAR.0>
0

>  <SCORE.INTRA.REPUL>
0

>  <SCORE.INTRA.REPUL.0>
0

>  <SCORE.INTRA.SOLV>
1.46404

>  <SCORE.INTRA.SOLV.lig_0>
-82.9561

>  <SCORE.INTRA.VDW>
-0.469907

>  <SCORE.INTRA.VDW.0>
-3.29171

>  <SCORE.INTRA.norm>
0.0320645

>  <SCORE.RESTR>
0

>  <SCORE.RESTR.CAVITY>
0

>  <SCORE.RESTR.norm>
0

>  <SCORE.SYSTEM>
0

>  <SCORE.SYSTEM.CONST>
0

>  <SCORE.SYSTEM.DIHEDRAL>
0

>  <SCORE.SYSTEM.SOLV>
0

>  <SCORE.SYSTEM.norm>
0

>  <SCORE.heavy>
26

>  <SCORE.norm>
-0.376349

>  <RMSD>
10.177

$$$$
ligand
 OpenBabel11021811433D
libRbt.so/2013.1/901 2013/11/27
 26 27  0  0  0  0  0  0  0  0999 V2000
  -26.7728  -13.2864   -0.9098 C   0  0  0  0  0  0  0  0  0  0  0  0
  -22.9541  -10.4389    6.3430 C   0  0  0  0  0  0  0  0  0  0  0  0
  -24.4107  -13.4691    8.5217 P   0  0  1  0  0  0  0  0  0  0  0  0
  -25.2798  -14.3691   11.1472 P   0  0  1  0  0  0  0  0  0  0  0  0
  -23.9108  -11.6253    3.7894 C   0  0  0  0  0  0  0  0  0  0  0  0
  -25.2108  -11.1283    1.6792 C   0  0  0  0  0  0  0  0  0  0  0  0
  -24.6759  -12.0663    2.5531 C   0  0  0  0  0  0  0  0  0  0  0  0
  -24.8422  -13.4116    2.2679 C   0  0  0  0  0  0  0  0  0  0  0  0
  -24.3393  -14.3632    3.0913 N   0  0  0  0  0  0  0  0  0  0  0  0
  -25.5142  -13.7802    1.1556 N   0  0  0  0  0  0  0  0  0  0  0  0
  -26.0268  -12.8492    0.3217 C   0  0  0  0  0  0  0  0  0  0  0  0
  -25.8746  -11.5284    0.5857 N   0  0  0  0  0  0  0  0  0  0  0  0
  -23.0553  -14.1139    8.6469 O   0  5  0  0  0  0  0  0  0  0  0  0
  -24.5539  -13.1551   11.6399 O   0  0  0  0  0  0  0  0  0  0  0  0
  -26.9515  -11.1430    6.3011 S   0  0  0  0  0  0  0  0  0  0  0  0
  -26.1638  -11.5985    4.8229 C   0  0  0  0  0  0  0  0  0  0  0  0
  -24.9947  -13.3541    7.1432 O   0  0  0  0  0  0  0  0  0  0  0  0
  -26.6810  -14.3496   11.6607 O   0  5  0  0  0  0  0  0  0  0  0  0
  -24.8282  -11.3412    4.8930 N   0  0  0  0  0  0  0  0  0  0  0  0
  -25.4243  -14.2201    9.5392 O   0  0  0  0  0  0  0  0  0  0  0  0
  -24.5923  -15.6872   11.3777 O   0  0  0  0  0  0  0  0  0  0  0  0
  -24.3888  -10.7980    6.0614 C   0  0  1  0  0  0  0  0  0  0  0  0
  -25.4928  -10.6138    7.0421 C   0  0  1  0  0  0  0  0  0  0  0  0
  -25.5821  -10.0729    8.4444 C   0  0  0  0  0  0  0  0  0  0  0  0
  -25.4749  -11.2326    9.4221 C   0  0  0  0  0  0  0  0  0  0  0  0
  -24.3038  -11.9745    9.1040 O   0  0  0  0  0  0  0  0  0  0  0  0
  1 11  1  0  0  0  0
  3 13  1  6  0  0  0
  3 17  2  0  0  0  0
  3 20  1  0  0  0  0
  3 26  1  0  0  0  0
  4 14  1  1  0  0  0
  4 18  1  0  0  0  0
  4 21  2  0  0  0  0
  4 20  1  0  0  0  0
  5 19  1  0  0  0  0
  5  7  1  0  0  0  0
  6  7  2  0  0  0  0
  6 12  1  0  0  0  0
  7  8  1  0  0  0  0
  8  9  1  0  0  0  0
  8 10  2  0  0  0  0
 10 11  1  0  0  0  0
 11 12  2  0  0  0  0
 15 23  1  0  0  0  0
 15 16  1  0  0  0  0
 16 19  1  0  0  0  0
 19 22  1  0  0  0  0
 22  2  1  1  0  0  0
 22 23  1  0  0  0  0
 23 24  1  6  0  0  0
 24 25  1  0  0  0  0
 25 26  1  0  0  0  0
M  CHG  2  13  -1  18  -1
M  END
>  <CHROM.1>
58.61282450,6.85941672,84.38147534,30.61393437,86.87343080,52.76036848,-112.45913220
-164.56338589,-25.13276508,-12.65431137,6.54123598,-2.42302946,-1.49822713
0.86460010

>  <Name>
ligand

>  <RI>
0

>  <Rbt.Current_Directory>
/home/itssahil/PROJECTS/Mol_Feturizer/New_Systems/rnas/2GDI

>  <Rbt.Executable>
rbdock ($Id: //depot/dev/client3/rdock/2013.1/src/exe/rbdock.cxx#4 $)

>  <Rbt.Library>
libRbt.so (2013.1, Build901 2013/11/27)

>  <Rbt.Parameter_File>
/export/apps/rDock/src/rDock_2013.1_src/data/scripts/dock_solv.prm

>  <Rbt.Receptor>
prm/blind_docking_80.prm

>  <SCORE>
-11.9767

>  <SCORE.INTER>
-15.4014

>  <SCORE.INTER.CONST>
1

>  <SCORE.INTER.POLAR>
0

>  <SCORE.INTER.ROT>
8

>  <SCORE.INTER.SOLV>
17.3711

>  <SCORE.INTER.VDW>
-24.9913

>  <SCORE.INTER.norm>
-0.59236

>  <SCORE.INTRA>
3.4079

>  <SCORE.INTRA.DIHEDRAL>
5.59807

>  <SCORE.INTRA.DIHEDRAL.0>
8.13976

>  <SCORE.INTRA.POLAR>
0

>  <SCORE.INTRA.POLAR.0>
0

>  <SCORE.INTRA.REPUL>
0

>  <SCORE.INTRA.REPUL.0>
0

>  <SCORE.INTRA.SOLV>
4.20797

>  <SCORE.INTRA.SOLV.lig_0>
-82.9561

>  <SCORE.INTRA.VDW>
-1.49512

>  <SCORE.INTRA.VDW.0>
-3.29171

>  <SCORE.INTRA.norm>
0.131073

>  <SCORE.RESTR>
0.016765

>  <SCORE.RESTR.CAVITY>
0.016765

>  <SCORE.RESTR.norm>
0.000644807

>  <SCORE.SYSTEM>
0

>  <SCORE.SYSTEM.CONST>
0

>  <SCORE.SYSTEM.DIHEDRAL>
0

>  <SCORE.SYSTEM.SOLV>
0

>  <SCORE.SYSTEM.norm>
0

>  <SCORE.heavy>
26

>  <SCORE.norm>
-0.460642

>  <RMSD>
10.177

$$$$
ligand
 OpenBabel11021811433D
libRbt.so/2013.1/901 2013/11/27
 26 27  0  0  0  0  0  0  0  0999 V2000
  -25.7394  -11.8108    1.2145 C   0  0  0  0  0  0  0  0  0  0  0  0
  -22.2682  -12.0931    8.1010 C   0  0  0  0  0  0  0  0  0  0  0  0
  -23.9105  -14.5563    9.7724 P   0  0  1  0  0  0  0  0  0  0  0  0
  -23.9089  -17.0897   11.2009 P   0  0  1  0  0  0  0  0  0  0  0  0
  -22.7396  -10.2100    5.8483 C   0  0  0  0  0  0  0  0  0  0  0  0
  -23.8314   -9.7211    3.6213 C   0  0  0  0  0  0  0  0  0  0  0  0
  -23.5415  -10.6325    4.6289 C   0  0  0  0  0  0  0  0  0  0  0  0
  -23.9865  -11.9373    4.4935 C   0  0  0  0  0  0  0  0  0  0  0  0
  -23.7292  -12.8614    5.4507 N   0  0  0  0  0  0  0  0  0  0  0  0
  -24.6859  -12.2935    3.3941 N   0  0  0  0  0  0  0  0  0  0  0  0
  -24.9568  -11.3886    2.4283 C   0  0  0  0  0  0  0  0  0  0  0  0
  -24.5302  -10.1073    2.5447 N   0  0  0  0  0  0  0  0  0  0  0  0
  -23.0014  -13.8283   10.7274 O   0  5  0  0  0  0  0  0  0  0  0  0
  -22.9209  -17.5817   10.1882 O   0  0  0  0  0  0  0  0  0  0  0  0
  -25.4057   -9.5955    8.7295 S   0  0  0  0  0  0  0  0  0  0  0  0
  -24.6237   -9.3363    7.2016 C   0  0  0  0  0  0  0  0  0  0  0  0
  -23.3163  -15.0220    8.4745 O   0  0  0  0  0  0  0  0  0  0  0  0
  -23.1785  -16.5957   12.4048 O   0  5  0  0  0  0  0  0  0  0  0  0
  -23.5819  -10.1992    7.0444 N   0  0  0  0  0  0  0  0  0  0  0  0
  -24.6187  -15.7728   10.5758 O   0  0  0  0  0  0  0  0  0  0  0  0
  -25.0273  -18.0355   11.5444 O   0  0  0  0  0  0  0  0  0  0  0  0
  -23.3648  -11.0619    8.0750 C   0  0  1  0  0  0  0  0  0  0  0  0
  -24.3521  -10.8801    9.1734 C   0  0  1  0  0  0  0  0  0  0  0  0
  -24.5796  -11.5351   10.5099 C   0  0  0  0  0  0  0  0  0  0  0  0
  -25.6188  -12.6327   10.3444 C   0  0  0  0  0  0  0  0  0  0  0  0
  -25.1251  -13.5722    9.3974 O   0  0  0  0  0  0  0  0  0  0  0  0
  1 11  1  0  0  0  0
  3 13  1  1  0  0  0
  3 17  2  0  0  0  0
  3 20  1  0  0  0  0
  3 26  1  0  0  0  0
  4 14  1  6  0  0  0
  4 18  1  0  0  0  0
  4 21  2  0  0  0  0
  4 20  1  0  0  0  0
  5 19  1  0  0  0  0
  5  7  1  0  0  0  0
  6  7  2  0  0  0  0
  6 12  1  0  0  0  0
  7  8  1  0  0  0  0
  8  9  1  0  0  0  0
  8 10  2  0  0  0  0
 10 11  1  0  0  0  0
 11 12  2  0  0  0  0
 15 23  1  0  0  0  0
 15 16  1  0  0  0  0
 16 19  1  0  0  0  0
 19 22  1  0  0  0  0
 22  2  1  6  0  0  0
 22 23  1  0  0  0  0
 23 24  1  1  0  0  0
 24 25  1  0  0  0  0
 25 26  1  0  0  0  0
M  CHG  2  13  -1  18  -1
M  END
>  <CHROM.1>
-65.99722852,-65.53114856,110.93183843,-42.72078433,86.20645911,59.54351210
71.47655376,-32.52242339,-24.13156631,-12.98958228,8.01220085,-2.37392965
-1.49606425,1.45210816

>  <Name>
ligand

>  <RI>
0

>  <Rbt.Current_Directory>
/home/itssahil/PROJECTS/Mol_Feturizer/New_Systems/rnas/2GDI

>  <Rbt.Executable>
rbdock ($Id: //depot/dev/client3/rdock/2013.1/src/exe/rbdock.cxx#4 $)

>  <Rbt.Library>
libRbt.so (2013.1, Build901 2013/11/27)

>  <Rbt.Parameter_File>
/export/apps/rDock/src/rDock_2013.1_src/data/scripts/dock_solv.prm

>  <Rbt.Receptor>
prm/blind_docking_100.prm

>  <SCORE>
-11.7703

>  <SCORE.INTER>
-14.7699

>  <SCORE.INTER.CONST>
1

>  <SCORE.INTER.POLAR>
0

>  <SCORE.INTER.ROT>
8

>  <SCORE.INTER.SOLV>
13.5147

>  <SCORE.INTER.VDW>
-23.2849

>  <SCORE.INTER.norm>
-0.568075

>  <SCORE.INTRA>
2.99681

>  <SCORE.INTRA.DIHEDRAL>
-1.33287

>  <SCORE.INTRA.DIHEDRAL.0>
8.13976

>  <SCORE.INTRA.POLAR>
0

>  <SCORE.INTRA.POLAR.0>
0

>  <SCORE.INTRA.REPUL>
0.046436

>  <SCORE.INTRA.REPUL.0>
0

>  <SCORE.INTRA.SOLV>
7.38235

>  <SCORE.INTRA.SOLV.lig_0>
-82.9561

>  <SCORE.INTRA.VDW>
-0.260108

>  <SCORE.INTRA.VDW.0>
-3.29171

>  <SCORE.INTRA.norm>
0.115262

>  <SCORE.RESTR>
0.00283948

>  <SCORE.RESTR.CAVITY>
0.00283948

>  <SCORE.RESTR.norm>
0.000109211

>  <SCORE.SYSTEM>
0

>  <SCORE.SYSTEM.CONST>
0

>  <SCORE.SYSTEM.DIHEDRAL>
0

>  <SCORE.SYSTEM.SOLV>
0

>  <SCORE.SYSTEM.norm>
0

>  <SCORE.heavy>
26

>  <SCORE.norm>
-0.452703

>  <RMSD>
10.180

$$$$
ligand
 OpenBabel11021811433D
libRbt.so/2013.1/901 2013/11/27
 26 27  0  0  0  0  0  0  0  0999 V2000
  -24.8722  -12.6527   -1.7647 C   0  0  0  0  0  0  0  0  0  0  0  0
  -25.1993  -12.0405    6.8638 C   0  0  0  0  0  0  0  0  0  0  0  0
  -23.0899  -17.8213    9.9394 P   0  0  1  0  0  0  0  0  0  0  0  0
  -21.4951  -19.2759   11.8887 P   0  0  1  0  0  0  0  0  0  0  0  0
  -25.5896  -12.2099    3.9206 C   0  0  0  0  0  0  0  0  0  0  0  0
  -26.4657  -12.6523    1.5910 C   0  0  0  0  0  0  0  0  0  0  0  0
  -25.3959  -12.3366    2.4190 C   0  0  0  0  0  0  0  0  0  0  0  0
  -24.1519  -12.1263    1.8470 C   0  0  0  0  0  0  0  0  0  0  0  0
  -23.0784  -11.8173    2.6142 N   0  0  0  0  0  0  0  0  0  0  0  0
  -24.0063  -12.2308    0.5082 N   0  0  0  0  0  0  0  0  0  0  0  0
  -25.0617  -12.5406   -0.2762 C   0  0  0  0  0  0  0  0  0  0  0  0
  -26.2859  -12.7508    0.2665 N   0  0  0  0  0  0  0  0  0  0  0  0
  -22.7037  -18.7921    8.8545 O   0  5  0  0  0  0  0  0  0  0  0  0
  -20.8298  -20.1399   10.8618 O   0  0  0  0  0  0  0  0  0  0  0  0
  -23.1504  -15.0961    5.1485 S   0  0  0  0  0  0  0  0  0  0  0  0
  -24.0692  -14.1659    4.0067 C   0  0  0  0  0  0  0  0  0  0  0  0
  -24.4937  -17.8993   10.4667 O   0  0  0  0  0  0  0  0  0  0  0  0
  -20.4767  -18.8026   12.8715 O   0  5  0  0  0  0  0  0  0  0  0  0
  -24.7341  -13.1572    4.6354 N   0  0  0  0  0  0  0  0  0  0  0  0
  -21.9971  -17.9331   11.1311 O   0  0  0  0  0  0  0  0  0  0  0  0
  -22.7163  -19.8567   12.5479 O   0  0  0  0  0  0  0  0  0  0  0  0
  -24.5565  -13.0785    5.9829 C   0  0  1  0  0  0  0  0  0  0  0  0
  -23.6345  -14.1319    6.4875 C   0  0  1  0  0  0  0  0  0  0  0  0
  -23.0995  -14.5076    7.8439 C   0  0  0  0  0  0  0  0  0  0  0  0
  -23.5517  -15.9220    8.1717 C   0  0  0  0  0  0  0  0  0  0  0  0
  -22.8947  -16.3328    9.3645 O   0  0  0  0  0  0  0  0  0  0  0  0
  1 11  1  0  0  0  0
  3 13  1  6  0  0  0
  3 17  2  0  0  0  0
  3 20  1  0  0  0  0
  3 26  1  0  0  0  0
  4 14  1  6  0  0  0
  4 18  1  0  0  0  0
  4 21  2  0  0  0  0
  4 20  1  0  0  0  0
  5 19  1  0  0  0  0
  5  7  1  0  0  0  0
  6  7  2  0  0  0  0
  6 12  1  0  0  0  0
  7  8  1  0  0  0  0
  8  9  1  0  0  0  0
  8 10  2  0  0  0  0
 10 11  1  0  0  0  0
 11 12  2  0  0  0  0
 15 23  1  0  0  0  0
 15 16  1  0  0  0  0
 16 19  1  0  0  0  0
 19 22  1  0  0  0  0
 22  2  1  6  0  0  0
 22 23  1  0  0  0  0
 23 24  1  1  0  0  0
 24 25  1  0  0  0  0
 25 26  1  0  0  0  0
M  CHG  2  13  -1  18  -1
M  END
>  <CHROM.1>
-51.68839722,-11.53609449,120.95332559,62.95211835,-60.17442340,172.18861109
-176.37881897,56.02293390,-23.53346593,-15.47257468,6.67610503,-2.08694654
-1.06505530,1.68127774

>  <Name>
ligand

>  <RI>
0

>  <Rbt.Current_Directory>
/home/itssahil/PROJECTS/Mol_Feturizer/New_Systems/rnas/2GDI

>  <Rbt.Executable>
rbdock ($Id: //depot/dev/client3/rdock/2013.1/src/exe/rbdock.cxx#4 $)

>  <Rbt.Library>
libRbt.so (2013.1, Build901 2013/11/27)

>  <Rbt.Parameter_File>
/export/apps/rDock/src/rDock_2013.1_src/data/scripts/dock_solv.prm

>  <Rbt.Receptor>
prm/blind_docking_80.prm

>  <SCORE>
-8.82328

>  <SCORE.INTER>
-9.76548

>  <SCORE.INTER.CONST>
1

>  <SCORE.INTER.POLAR>
0

>  <SCORE.INTER.ROT>
8

>  <SCORE.INTER.SOLV>
15.7171

>  <SCORE.INTER.VDW>
-20.6827

>  <SCORE.INTER.norm>
-0.375595

>  <SCORE.INTRA>
0.935724

>  <SCORE.INTRA.DIHEDRAL>
-2.25402

>  <SCORE.INTRA.DIHEDRAL.0>
8.13976

>  <SCORE.INTRA.POLAR>
0

>  <SCORE.INTRA.POLAR.0>
0

>  <SCORE.INTRA.REPUL>
0

>  <SCORE.INTRA.REPUL.0>
0

>  <SCORE.INTRA.SOLV>
2.24362

>  <SCORE.INTRA.SOLV.lig_0>
-82.9561

>  <SCORE.INTRA.VDW>
0.940922

>  <SCORE.INTRA.VDW.0>
-3.29171

>  <SCORE.INTRA.norm>
0.0359894

>  <SCORE.RESTR>
0.0064734

>  <SCORE.RESTR.CAVITY>
0.0064734

>  <SCORE.RESTR.norm>
0.000248977

>  <SCORE.SYSTEM>
0

>  <SCORE.SYSTEM.CONST>
0

>  <SCORE.SYSTEM.DIHEDRAL>
0

>  <SCORE.SYSTEM.SOLV>
0

>  <SCORE.SYSTEM.norm>
0

>  <SCORE.heavy>
26

>  <SCORE.norm>
-0.339357

>  <RMSD>
10.194

$$$$
ligand
 OpenBabel11021811433D
libRbt.so/2013.1/901 2013/11/27
 26 27  0  0  0  0  0  0  0  0999 V2000
  -25.0961  -17.4501    3.4637 C   0  0  0  0  0  0  0  0  0  0  0  0
  -26.0222  -11.3316    6.6666 C   0  0  0  0  0  0  0  0  0  0  0  0
  -24.4296  -13.0404   10.0911 P   0  0  1  0  0  0  0  0  0  0  0  0
  -23.7456  -15.6386    8.9774 P   0  0  1  0  0  0  0  0  0  0  0  0
  -25.6049  -11.7323    3.7496 C   0  0  0  0  0  0  0  0  0  0  0  0
  -25.3734  -14.0064    4.8291 C   0  0  0  0  0  0  0  0  0  0  0  0
  -25.4601  -13.2427    3.6719 C   0  0  0  0  0  0  0  0  0  0  0  0
  -25.4255  -13.8869    2.4460 C   0  0  0  0  0  0  0  0  0  0  0  0
  -25.5057  -13.1842    1.2901 N   0  0  0  0  0  0  0  0  0  0  0  0
  -25.3102  -15.2320    2.4016 N   0  0  0  0  0  0  0  0  0  0  0  0
  -25.2258  -15.9529    3.5410 C   0  0  0  0  0  0  0  0  0  0  0  0
  -25.2569  -15.3392    4.7492 N   0  0  0  0  0  0  0  0  0  0  0  0
  -25.8305  -13.5776    9.9589 O   0  5  0  0  0  0  0  0  0  0  0  0
  -24.4673  -16.3053   10.1080 O   0  0  0  0  0  0  0  0  0  0  0  0
  -22.3615  -10.1279    5.3909 S   0  0  0  0  0  0  0  0  0  0  0  0
  -23.3508  -10.7681    4.1164 C   0  0  0  0  0  0  0  0  0  0  0  0
  -23.9857  -12.6013   11.4568 O   0  0  0  0  0  0  0  0  0  0  0  0
  -24.6765  -15.4797    7.8218 O   0  5  0  0  0  0  0  0  0  0  0  0
  -24.5639  -11.1548    4.5999 N   0  0  0  0  0  0  0  0  0  0  0  0
  -23.4092  -14.1249    9.4513 O   0  0  0  0  0  0  0  0  0  0  0  0
  -22.4277  -16.2489    8.5852 O   0  0  0  0  0  0  0  0  0  0  0  0
  -24.7563  -10.9720    5.9352 C   0  0  1  0  0  0  0  0  0  0  0  0
  -23.5712  -10.3563    6.5916 C   0  0  1  0  0  0  0  0  0  0  0  0
  -23.2376   -9.9455    8.0012 C   0  0  0  0  0  0  0  0  0  0  0  0
  -23.0237  -11.1981    8.8364 C   0  0  0  0  0  0  0  0  0  0  0  0
  -24.2974  -11.7596    9.1286 O   0  0  0  0  0  0  0  0  0  0  0  0
  1 11  1  0  0  0  0
  3 13  1  1  0  0  0
  3 17  2  0  0  0  0
  3 20  1  0  0  0  0
  3 26  1  0  0  0  0
  4 14  1  1  0  0  0
  4 18  1  0  0  0  0
  4 21  2  0  0  0  0
  4 20  1  0  0  0  0
  5 19  1  0  0  0  0
  5  7  1  0  0  0  0
  6  7  2  0  0  0  0
  6 12  1  0  0  0  0
  7  8  1  0  0  0  0
  8  9  1  0  0  0  0
  8 10  2  0  0  0  0
 10 11  1  0  0  0  0
 11 12  2  0  0  0  0
 15 23  1  0  0  0  0
 15 16  1  0  0  0  0
 16 19  1  0  0  0  0
 19 22  1  0  0  0  0
 22  2  1  6  0  0  0
 22 23  1  0  0  0  0
 23 24  1  1  0  0  0
 24 25  1  0  0  0  0
 25 26  1  0  0  0  0
M  CHG  2  13  -1  18  -1
M  END
>  <CHROM.1>
-9.92612797,89.13016100,52.27385593,-50.36877820,-107.01357124,-76.25632483
-175.51001482,-167.46688723,-24.34038924,-13.26620319,6.75482156,2.25427540
-1.33787813,-0.85778047

>  <Name>
ligand

>  <RI>
0

>  <Rbt.Current_Directory>
/home/itssahil/PROJECTS/Mol_Feturizer/New_Systems/rnas/2GDI

>  <Rbt.Executable>
rbdock ($Id: //depot/dev/client3/rdock/2013.1/src/exe/rbdock.cxx#4 $)

>  <Rbt.Library>
libRbt.so (2013.1, Build901 2013/11/27)

>  <Rbt.Parameter_File>
/export/apps/rDock/src/rDock_2013.1_src/data/scripts/dock_solv.prm

>  <Rbt.Receptor>
prm/blind_docking_40.prm

>  <SCORE>
-8.19884

>  <SCORE.INTER>
-7.81824

>  <SCORE.INTER.CONST>
1

>  <SCORE.INTER.POLAR>
0

>  <SCORE.INTER.ROT>
8

>  <SCORE.INTER.SOLV>
16.9149

>  <SCORE.INTER.VDW>
-19.7838

>  <SCORE.INTER.norm>
-0.300702

>  <SCORE.INTRA>
-0.380601

>  <SCORE.INTRA.DIHEDRAL>
0.016512

>  <SCORE.INTRA.DIHEDRAL.0>
8.13976

>  <SCORE.INTRA.POLAR>
0

>  <SCORE.INTRA.POLAR.0>
0

>  <SCORE.INTRA.REPUL>
0

>  <SCORE.INTRA.REPUL.0>
0

>  <SCORE.INTRA.SOLV>
1.19153

>  <SCORE.INTRA.SOLV.lig_0>
-82.9561

>  <SCORE.INTRA.VDW>
-0.984623

>  <SCORE.INTRA.VDW.0>
-3.29171

>  <SCORE.INTRA.norm>
-0.0146385

>  <SCORE.RESTR>
0

>  <SCORE.RESTR.CAVITY>
0

>  <SCORE.RESTR.norm>
0

>  <SCORE.SYSTEM>
0

>  <SCORE.SYSTEM.CONST>
0

>  <SCORE.SYSTEM.DIHEDRAL>
0

>  <SCORE.SYSTEM.SOLV>
0

>  <SCORE.SYSTEM.norm>
0

>  <SCORE.heavy>
26

>  <SCORE.norm>
-0.31534

>  <RMSD>
10.197

$$$$
ligand
 OpenBabel11021811433D
libRbt.so/2013.1/901 2013/11/27
 26 27  0  0  0  0  0  0  0  0999 V2000
  -25.9570  -11.8864    3.2355 C   0  0  0  0  0  0  0  0  0  0  0  0
  -22.2910  -13.3098    9.0240 C   0  0  0  0  0  0  0  0  0  0  0  0
  -22.8244  -17.6978    7.6030 P   0  0  1  0  0  0  0  0  0  0  0  0
  -23.2662  -15.7237    5.5134 P   0  0  1  0  0  0  0  0  0  0  0  0
  -24.3432  -11.1813    8.7065 C   0  0  0  0  0  0  0  0  0  0  0  0
  -25.9919  -11.9467    6.9497 C   0  0  0  0  0  0  0  0  0  0  0  0
  -24.7637  -11.3763    7.2596 C   0  0  0  0  0  0  0  0  0  0  0  0
  -23.9358  -10.9765    6.2234 C   0  0  0  0  0  0  0  0  0  0  0  0
  -22.7281  -10.4163    6.4764 N   0  0  0  0  0  0  0  0  0  0  0  0
  -24.3366  -11.1471    4.9448 N   0  0  0  0  0  0  0  0  0  0  0  0
  -25.5352  -11.7059    4.6686 C   0  0  0  0  0  0  0  0  0  0  0  0
  -26.3575  -12.1040    5.6699 N   0  0  0  0  0  0  0  0  0  0  0  0
  -24.1315  -18.3893    7.3171 O   0  5  0  0  0  0  0  0  0  0  0  0
  -23.4165  -14.5658    6.4515 O   0  0  0  0  0  0  0  0  0  0  0  0
  -25.7666  -14.1340   10.9520 S   0  0  0  0  0  0  0  0  0  0  0  0
  -25.7945  -12.6123   10.1173 C   0  0  0  0  0  0  0  0  0  0  0  0
  -21.6921  -18.5452    8.1076 O   0  0  0  0  0  0  0  0  0  0  0  0
  -22.4178  -15.3151    4.3556 O   0  5  0  0  0  0  0  0  0  0  0  0
  -24.6067  -12.3883    9.4901 N   0  0  0  0  0  0  0  0  0  0  0  0
  -22.3988  -16.8552    6.2856 O   0  0  0  0  0  0  0  0  0  0  0  0
  -24.5419  -16.4006    5.0917 O   0  0  0  0  0  0  0  0  0  0  0  0
  -23.6661  -13.3619    9.6346 C   0  0  1  0  0  0  0  0  0  0  0  0
  -24.1610  -14.4995   10.4564 C   0  0  1  0  0  0  0  0  0  0  0  0
  -23.5683  -15.8017   10.9254 C   0  0  0  0  0  0  0  0  0  0  0  0
  -23.8551  -16.8713    9.8833 C   0  0  0  0  0  0  0  0  0  0  0  0
  -23.0929  -16.5733    8.7200 O   0  0  0  0  0  0  0  0  0  0  0  0
  1 11  1  0  0  0  0
  3 13  1  6  0  0  0
  3 17  2  0  0  0  0
  3 20  1  0  0  0  0
  3 26  1  0  0  0  0
  4 14  1  1  0  0  0
  4 18  1  0  0  0  0
  4 21  2  0  0  0  0
  4 20  1  0  0  0  0
  5 19  1  0  0  0  0
  5  7  1  0  0  0  0
  6  7  2  0  0  0  0
  6 12  1  0  0  0  0
  7  8  1  0  0  0  0
  8  9  1  0  0  0  0
  8 10  2  0  0  0  0
 10 11  1  0  0  0  0
 11 12  2  0  0  0  0
 15 23  1  0  0  0  0
 15 16  1  0  0  0  0
 16 19  1  0  0  0  0
 19 22  1  0  0  0  0
 22  2  1  6  0  0  0
 22 23  1  0  0  0  0
 23 24  1  1  0  0  0
 24 25  1  0  0  0  0
 25 26  1  0  0  0  0
M  CHG  2  13  -1  18  -1
M  END
>  <CHROM.1>
55.68250284,-88.90234222,45.96777016,65.57332230,91.56040697,68.82537512
162.14171833,46.43139177,-23.98966708,-14.42251105,7.49200655,-2.55936231
-1.22030419,1.86829111

>  <Name>
ligand

>  <RI>
0

>  <Rbt.Current_Directory>
/home/itssahil/PROJECTS/Mol_Feturizer/New_Systems/rnas/2GDI

>  <Rbt.Executable>
rbdock ($Id: //depot/dev/client3/rdock/2013.1/src/exe/rbdock.cxx#4 $)

>  <Rbt.Library>
libRbt.so (2013.1, Build901 2013/11/27)

>  <Rbt.Parameter_File>
/export/apps/rDock/src/rDock_2013.1_src/data/scripts/dock_solv.prm

>  <Rbt.Receptor>
prm/blind_docking_40.prm

>  <SCORE>
-11.0121

>  <SCORE.INTER>
-8.77799

>  <SCORE.INTER.CONST>
1

>  <SCORE.INTER.POLAR>
0

>  <SCORE.INTER.ROT>
8

>  <SCORE.INTER.SOLV>
22.0319

>  <SCORE.INTER.VDW>
-22.1293

>  <SCORE.INTER.norm>
-0.337615

>  <SCORE.INTRA>
-2.27895

>  <SCORE.INTRA.DIHEDRAL>
-0.960668

>  <SCORE.INTRA.DIHEDRAL.0>
8.13976

>  <SCORE.INTRA.POLAR>
0

>  <SCORE.INTRA.POLAR.0>
0

>  <SCORE.INTRA.REPUL>
0

>  <SCORE.INTRA.REPUL.0>
0

>  <SCORE.INTRA.SOLV>
0.77961

>  <SCORE.INTRA.SOLV.lig_0>
-82.9561

>  <SCORE.INTRA.VDW>
-2.18842

>  <SCORE.INTRA.VDW.0>
-3.29171

>  <SCORE.INTRA.norm>
-0.087652

>  <SCORE.RESTR>
0.044824

>  <SCORE.RESTR.CAVITY>
0.044824

>  <SCORE.RESTR.norm>
0.001724

>  <SCORE.SYSTEM>
0

>  <SCORE.SYSTEM.CONST>
0

>  <SCORE.SYSTEM.DIHEDRAL>
0

>  <SCORE.SYSTEM.SOLV>
0

>  <SCORE.SYSTEM.norm>
0

>  <SCORE.heavy>
26

>  <SCORE.norm>
-0.423543

>  <RMSD>
10.207

$$$$
ligand
 OpenBabel11021811433D
libRbt.so/2013.1/901 2013/11/27
 26 27  0  0  0  0  0  0  0  0999 V2000
  -21.1397  -18.9217    5.0089 C   0  0  0  0  0  0  0  0  0  0  0  0
  -25.6370  -11.9758    7.4604 C   0  0  0  0  0  0  0  0  0  0  0  0
  -22.4841  -10.0501    7.0318 P   0  0  1  0  0  0  0  0  0  0  0  0
  -22.9351   -9.8173    4.1680 P   0  0  1  0  0  0  0  0  0  0  0  0
  -24.6179  -14.6439    6.6323 C   0  0  0  0  0  0  0  0  0  0  0  0
  -23.3184  -16.7606    7.1024 C   0  0  0  0  0  0  0  0  0  0  0  0
  -23.6901  -15.7683    6.2042 C   0  0  0  0  0  0  0  0  0  0  0  0
  -23.2090  -15.8317    4.9067 C   0  0  0  0  0  0  0  0  0  0  0  0
  -23.5431  -14.8860    3.9954 N   0  0  0  0  0  0  0  0  0  0  0  0
  -22.3965  -16.8483    4.5448 N   0  0  0  0  0  0  0  0  0  0  0  0
  -22.0477  -17.8008    5.4371 C   0  0  0  0  0  0  0  0  0  0  0  0
  -22.5082  -17.7540    6.7111 N   0  0  0  0  0  0  0  0  0  0  0  0
  -21.9848  -11.4595    7.2122 O   0  5  0  0  0  0  0  0  0  0  0  0
  -21.8347  -10.8033    3.9223 O   0  0  0  0  0  0  0  0  0  0  0  0
  -22.7114  -13.3982    9.8882 S   0  0  0  0  0  0  0  0  0  0  0  0
  -23.1020  -14.4783    8.5866 C   0  0  0  0  0  0  0  0  0  0  0  0
  -21.4603   -8.9516    7.0244 O   0  0  0  0  0  0  0  0  0  0  0  0
  -24.1247  -10.1894    3.3473 O   0  5  0  0  0  0  0  0  0  0  0  0
  -24.0862  -13.9517    7.8063 N   0  0  0  0  0  0  0  0  0  0  0  0
  -23.4142  -10.0086    5.7051 O   0  0  0  0  0  0  0  0  0  0  0  0
  -22.5628   -8.3661    4.0312 O   0  0  0  0  0  0  0  0  0  0  0  0
  -24.5538  -12.7302    8.1843 C   0  0  1  0  0  0  0  0  0  0  0  0
  -23.8558  -12.2141    9.3929 C   0  0  1  0  0  0  0  0  0  0  0  0
  -23.9626  -10.9615   10.2215 C   0  0  0  0  0  0  0  0  0  0  0  0
  -23.0958   -9.8836    9.5898 C   0  0  0  0  0  0  0  0  0  0  0  0
  -23.4998   -9.7266    8.2351 O   0  0  0  0  0  0  0  0  0  0  0  0
  1 11  1  0  0  0  0
  3 13  1  1  0  0  0
  3 17  2  0  0  0  0
  3 20  1  0  0  0  0
  3 26  1  0  0  0  0
  4 14  1  6  0  0  0
  4 18  1  0  0  0  0
  4 21  2  0  0  0  0
  4 20  1  0  0  0  0
  5 19  1  0  0  0  0
  5  7  1  0  0  0  0
  6  7  2  0  0  0  0
  6 12  1  0  0  0  0
  7  8  1  0  0  0  0
  8  9  1  0  0  0  0
  8 10  2  0  0  0  0
 10 11  1  0  0  0  0
 11 12  2  0  0  0  0
 15 23  1  0  0  0  0
 15 16  1  0  0  0  0
 16 19  1  0  0  0  0
 19 22  1  0  0  0  0
 22  2  1  6  0  0  0
 22 23  1  0  0  0  0
 23 24  1  1  0  0  0
 24 25  1  0  0  0  0
 25 26  1  0  0  0  0
M  CHG  2  13  -1  18  -1
M  END
>  <CHROM.1>
-85.10572023,-15.91457533,55.22174118,50.29785875,95.48911855,55.30848912
-116.86535654,54.98783025,-23.06911310,-12.61432591,6.63515106,-1.33272257
1.43960662,-0.20172120

>  <Name>
ligand

>  <RI>
0

>  <Rbt.Current_Directory>
/home/itssahil/PROJECTS/Mol_Feturizer/New_Systems/rnas/2GDI

>  <Rbt.Executable>
rbdock ($Id: //depot/dev/client3/rdock/2013.1/src/exe/rbdock.cxx#4 $)

>  <Rbt.Library>
libRbt.so (2013.1, Build901 2013/11/27)

>  <Rbt.Parameter_File>
/export/apps/rDock/src/rDock_2013.1_src/data/scripts/dock_solv.prm

>  <Rbt.Receptor>
prm/blind_docking_60.prm

>  <SCORE>
-6.92184

>  <SCORE.INTER>
-10.1456

>  <SCORE.INTER.CONST>
1

>  <SCORE.INTER.POLAR>
0

>  <SCORE.INTER.ROT>
8

>  <SCORE.INTER.SOLV>
24.8428

>  <SCORE.INTER.VDW>
-23.978

>  <SCORE.INTER.norm>
-0.390216

>  <SCORE.INTRA>
3.17313

>  <SCORE.INTRA.DIHEDRAL>
4.93712

>  <SCORE.INTRA.DIHEDRAL.0>
8.13976

>  <SCORE.INTRA.POLAR>
0

>  <SCORE.INTRA.POLAR.0>
0

>  <SCORE.INTRA.REPUL>
0

>  <SCORE.INTRA.REPUL.0>
0

>  <SCORE.INTRA.SOLV>
3.12557

>  <SCORE.INTRA.SOLV.lig_0>
-82.9561

>  <SCORE.INTRA.VDW>
-0.858212

>  <SCORE.INTRA.VDW.0>
-3.29171

>  <SCORE.INTRA.norm>
0.122044

>  <SCORE.RESTR>
0.0506456

>  <SCORE.RESTR.CAVITY>
0.0506456

>  <SCORE.RESTR.norm>
0.00194791

>  <SCORE.SYSTEM>
0

>  <SCORE.SYSTEM.CONST>
0

>  <SCORE.SYSTEM.DIHEDRAL>
0

>  <SCORE.SYSTEM.SOLV>
0

>  <SCORE.SYSTEM.norm>
0

>  <SCORE.heavy>
26

>  <SCORE.norm>
-0.266224

>  <RMSD>
10.211

$$$$
ligand
 OpenBabel11021811433D
libRbt.so/2013.1/901 2013/11/27
 26 27  0  0  0  0  0  0  0  0999 V2000
  -22.6156  -18.3198    7.8488 C   0  0  0  0  0  0  0  0  0  0  0  0
  -22.3070  -11.6106    9.0253 C   0  0  0  0  0  0  0  0  0  0  0  0
  -22.7349  -11.6739    3.2180 P   0  0  1  0  0  0  0  0  0  0  0  0
  -25.4218  -11.2519    2.1879 P   0  0  1  0  0  0  0  0  0  0  0  0
  -24.6209  -13.3044    9.8130 C   0  0  0  0  0  0  0  0  0  0  0  0
  -23.7835  -14.7948    7.9508 C   0  0  0  0  0  0  0  0  0  0  0  0
  -24.1006  -14.6340    9.2937 C   0  0  0  0  0  0  0  0  0  0  0  0
  -23.9202  -15.7060   10.1524 C   0  0  0  0  0  0  0  0  0  0  0  0
  -24.2167  -15.5973   11.4702 N   0  0  0  0  0  0  0  0  0  0  0  0
  -23.4433  -16.8744    9.6708 N   0  0  0  0  0  0  0  0  0  0  0  0
  -23.1436  -17.0068    8.3602 C   0  0  0  0  0  0  0  0  0  0  0  0
  -23.3149  -15.9689    7.5054 N   0  0  0  0  0  0  0  0  0  0  0  0
  -22.8058  -13.0851    3.7395 O   0  5  0  0  0  0  0  0  0  0  0  0
  -25.8572  -11.9086    3.4617 O   0  0  0  0  0  0  0  0  0  0  0  0
  -25.6362  -10.9057    6.8125 S   0  0  0  0  0  0  0  0  0  0  0  0
  -25.8664  -12.1333    8.0179 C   0  0  0  0  0  0  0  0  0  0  0  0
  -21.3875  -11.1610    2.7981 O   0  0  0  0  0  0  0  0  0  0  0  0
  -25.5519   -9.7716    2.3252 O   0  5  0  0  0  0  0  0  0  0  0  0
  -24.7209  -12.3276    8.7285 N   0  0  0  0  0  0  0  0  0  0  0  0
  -23.8297  -11.5167    2.0333 O   0  0  0  0  0  0  0  0  0  0  0  0
  -26.0503  -11.7782    0.9265 O   0  0  0  0  0  0  0  0  0  0  0  0
  -23.6607  -11.5529    8.3689 C   0  0  1  0  0  0  0  0  0  0  0  0
  -23.9990  -10.6239    7.2568 C   0  0  1  0  0  0  0  0  0  0  0  0
  -23.2393   -9.5786    6.4841 C   0  0  0  0  0  0  0  0  0  0  0  0
  -22.3981  -10.2715    5.4237 C   0  0  0  0  0  0  0  0  0  0  0  0
  -23.2630  -10.6910    4.3753 O   0  0  0  0  0  0  0  0  0  0  0  0
  1 11  1  0  0  0  0
  3 13  1  1  0  0  0
  3 17  2  0  0  0  0
  3 20  1  0  0  0  0
  3 26  1  0  0  0  0
  4 14  1  1  0  0  0
  4 18  1  0  0  0  0
  4 21  2  0  0  0  0
  4 20  1  0  0  0  0
  5 19  1  0  0  0  0
  5  7  1  0  0  0  0
  6  7  2  0  0  0  0
  6 12  1  0  0  0  0
  7  8  1  0  0  0  0
  8  9  1  0  0  0  0
  8 10  2  0  0  0  0
 10 11  1  0  0  0  0
 11 12  2  0  0  0  0
 15 23  1  0  0  0  0
 15 16  1  0  0  0  0
 16 19  1  0  0  0  0
 19 22  1  0  0  0  0
 22  2  1  1  0  0  0
 22 23  1  0  0  0  0
 23 24  1  6  0  0  0
 24 25  1  0  0  0  0
 25 26  1  0  0  0  0
M  CHG  2  13  -1  18  -1
M  END
>  <CHROM.1>
81.09837749,93.15881181,0.35027009,-31.25682876,-98.47256790,74.97116758
-169.49710450,82.42643299,-23.99991580,-12.58309817,5.96693083,-1.21954665
1.33894109,-1.34057549

>  <Name>
ligand

>  <RI>
0

>  <Rbt.Current_Directory>
/home/itssahil/PROJECTS/Mol_Feturizer/New_Systems/rnas/2GDI

>  <Rbt.Executable>
rbdock ($Id: //depot/dev/client3/rdock/2013.1/src/exe/rbdock.cxx#4 $)

>  <Rbt.Library>
libRbt.so (2013.1, Build901 2013/11/27)

>  <Rbt.Parameter_File>
/export/apps/rDock/src/rDock_2013.1_src/data/scripts/dock_solv.prm

>  <Rbt.Receptor>
prm/blind_docking_40.prm

>  <SCORE>
-14.6857

>  <SCORE.INTER>
-13.2402

>  <SCORE.INTER.CONST>
1

>  <SCORE.INTER.POLAR>
0

>  <SCORE.INTER.ROT>
8

>  <SCORE.INTER.SOLV>
25.7802

>  <SCORE.INTER.VDW>
-26.3536

>  <SCORE.INTER.norm>
-0.50924

>  <SCORE.INTRA>
-1.44547

>  <SCORE.INTRA.DIHEDRAL>
0.313963

>  <SCORE.INTRA.DIHEDRAL.0>
8.13976

>  <SCORE.INTRA.POLAR>
0

>  <SCORE.INTRA.POLAR.0>
0

>  <SCORE.INTRA.REPUL>
0

>  <SCORE.INTRA.REPUL.0>
0

>  <SCORE.INTRA.SOLV>
-0.911011

>  <SCORE.INTRA.SOLV.lig_0>
-82.9561

>  <SCORE.INTRA.VDW>
-1.14695

>  <SCORE.INTRA.VDW.0>
-3.29171

>  <SCORE.INTRA.norm>
-0.0555952

>  <SCORE.RESTR>
0

>  <SCORE.RESTR.CAVITY>
0

>  <SCORE.RESTR.norm>
0

>  <SCORE.SYSTEM>
0

>  <SCORE.SYSTEM.CONST>
0

>  <SCORE.SYSTEM.DIHEDRAL>
0

>  <SCORE.SYSTEM.SOLV>
0

>  <SCORE.SYSTEM.norm>
0

>  <SCORE.heavy>
26

>  <SCORE.norm>
-0.564835

>  <RMSD>
10.271

$$$$
ligand
 OpenBabel11021811433D
libRbt.so/2013.1/901 2013/11/27
 26 27  0  0  0  0  0  0  0  0999 V2000
  -20.6501  -12.3696    1.3166 C   0  0  0  0  0  0  0  0  0  0  0  0
  -25.4581  -10.6951    8.3514 C   0  0  0  0  0  0  0  0  0  0  0  0
  -23.4194  -16.5836   10.8978 P   0  0  1  0  0  0  0  0  0  0  0  0
  -21.7491  -16.0628   13.2211 P   0  0  1  0  0  0  0  0  0  0  0  0
  -24.0153  -10.9946    5.7684 C   0  0  0  0  0  0  0  0  0  0  0  0
  -22.1104  -10.5067    4.1798 C   0  0  0  0  0  0  0  0  0  0  0  0
  -23.1333  -11.3549    4.5850 C   0  0  0  0  0  0  0  0  0  0  0  0
  -23.3245  -12.5420    3.8971 C   0  0  0  0  0  0  0  0  0  0  0  0
  -24.3100  -13.4006    4.2548 N   0  0  0  0  0  0  0  0  0  0  0  0
  -22.5192  -12.8479    2.8566 N   0  0  0  0  0  0  0  0  0  0  0  0
  -21.5321  -12.0059    2.4803 C   0  0  0  0  0  0  0  0  0  0  0  0
  -21.3313  -10.8396    3.1412 N   0  0  0  0  0  0  0  0  0  0  0  0
  -23.1309  -17.2637    9.5852 O   0  5  0  0  0  0  0  0  0  0  0  0
  -21.4088  -14.6813   12.7532 O   0  0  0  0  0  0  0  0  0  0  0  0
  -22.4040  -13.3635    8.5215 S   0  0  0  0  0  0  0  0  0  0  0  0
  -22.5903  -12.6398    6.9547 C   0  0  0  0  0  0  0  0  0  0  0  0
  -24.7558  -16.8450   11.5306 O   0  0  0  0  0  0  0  0  0  0  0  0
  -22.9665  -16.0072   14.0826 O   0  5  0  0  0  0  0  0  0  0  0  0
  -23.6261  -11.7556    6.9557 N   0  0  0  0  0  0  0  0  0  0  0  0
  -22.2018  -16.9117   11.9161 O   0  0  0  0  0  0  0  0  0  0  0  0
  -20.6256  -16.8419   13.8487 O   0  0  0  0  0  0  0  0  0  0  0  0
  -24.2876  -11.6175    8.1375 C   0  0  1  0  0  0  0  0  0  0  0  0
  -23.7075  -12.4752    9.2063 C   0  0  1  0  0  0  0  0  0  0  0  0
  -24.0282  -12.7189   10.6571 C   0  0  0  0  0  0  0  0  0  0  0  0
  -24.4652  -14.1658   10.8235 C   0  0  0  0  0  0  0  0  0  0  0  0
  -23.3212  -14.9960   10.6652 O   0  0  0  0  0  0  0  0  0  0  0  0
  1 11  1  0  0  0  0
  3 13  1  6  0  0  0
  3 17  2  0  0  0  0
  3 20  1  0  0  0  0
  3 26  1  0  0  0  0
  4 14  1  6  0  0  0
  4 18  1  0  0  0  0
  4 21  2  0  0  0  0
  4 20  1  0  0  0  0
  5 19  1  0  0  0  0
  5  7  1  0  0  0  0
  6  7  2  0  0  0  0
  6 12  1  0  0  0  0
  7  8  1  0  0  0  0
  8  9  1  0  0  0  0
  8 10  2  0  0  0  0
 10 11  1  0  0  0  0
 11 12  2  0  0  0  0
 15 23  1  0  0  0  0
 15 16  1  0  0  0  0
 16 19  1  0  0  0  0
 19 22  1  0  0  0  0
 22  2  1  1  0  0  0
 22 23  1  0  0  0  0
 23 24  1  6  0  0  0
 24 25  1  0  0  0  0
 25 26  1  0  0  0  0
M  CHG  2  13  -1  18  -1
M  END
>  <CHROM.1>
157.15336918,1.01383924,-102.76600911,-58.83327284,-63.25764804,71.59475392
175.13046926,115.89260467,-22.89907436,-13.90809232,8.63737451,-1.56893515
-0.89377592,2.04000510

>  <Name>
ligand

>  <RI>
0

>  <Rbt.Current_Directory>
/home/itssahil/PROJECTS/Mol_Feturizer/New_Systems/rnas/2GDI

>  <Rbt.Executable>
rbdock ($Id: //depot/dev/client3/rdock/2013.1/src/exe/rbdock.cxx#4 $)

>  <Rbt.Library>
libRbt.so (2013.1, Build901 2013/11/27)

>  <Rbt.Parameter_File>
/export/apps/rDock/src/rDock_2013.1_src/data/scripts/dock_solv.prm

>  <Rbt.Receptor>
prm/blind_docking_60.prm

>  <SCORE>
-7.93435

>  <SCORE.INTER>
-9.20324

>  <SCORE.INTER.CONST>
1

>  <SCORE.INTER.POLAR>
0

>  <SCORE.INTER.ROT>
8

>  <SCORE.INTER.SOLV>
13.6428

>  <SCORE.INTER.VDW>
-19.6164

>  <SCORE.INTER.norm>
-0.353971

>  <SCORE.INTRA>
1.26889

>  <SCORE.INTRA.DIHEDRAL>
0.368133

>  <SCORE.INTRA.DIHEDRAL.0>
8.13976

>  <SCORE.INTRA.POLAR>
0

>  <SCORE.INTRA.POLAR.0>
0

>  <SCORE.INTRA.REPUL>
0

>  <SCORE.INTRA.REPUL.0>
0

>  <SCORE.INTRA.SOLV>
1.053

>  <SCORE.INTRA.SOLV.lig_0>
-82.9561

>  <SCORE.INTRA.VDW>
0.558321

>  <SCORE.INTRA.VDW.0>
-3.29171

>  <SCORE.INTRA.norm>
0.0488034

>  <SCORE.RESTR>
0

>  <SCORE.RESTR.CAVITY>
0

>  <SCORE.RESTR.norm>
0

>  <SCORE.SYSTEM>
0

>  <SCORE.SYSTEM.CONST>
0

>  <SCORE.SYSTEM.DIHEDRAL>
0

>  <SCORE.SYSTEM.SOLV>
0

>  <SCORE.SYSTEM.norm>
0

>  <SCORE.heavy>
26

>  <SCORE.norm>
-0.305167

>  <RMSD>
10.272

$$$$
ligand
 OpenBabel11021811433D
libRbt.so/2013.1/901 2013/11/27
 26 27  0  0  0  0  0  0  0  0999 V2000
  -23.2169  -17.3896    7.2547 C   0  0  0  0  0  0  0  0  0  0  0  0
  -22.1636  -11.9200    9.0099 C   0  0  0  0  0  0  0  0  0  0  0  0
  -22.6119  -11.3109    3.9317 P   0  0  1  0  0  0  0  0  0  0  0  0
  -25.1013  -11.0134    2.4576 P   0  0  1  0  0  0  0  0  0  0  0  0
  -24.9138  -12.5895    9.9216 C   0  0  0  0  0  0  0  0  0  0  0  0
  -24.7135  -14.0447    7.8643 C   0  0  0  0  0  0  0  0  0  0  0  0
  -24.4736  -13.8635    9.2205 C   0  0  0  0  0  0  0  0  0  0  0  0
  -23.8131  -14.8615    9.9181 C   0  0  0  0  0  0  0  0  0  0  0  0
  -23.5577  -14.7304   11.2425 N   0  0  0  0  0  0  0  0  0  0  0  0
  -23.4188  -15.9797    9.2709 N   0  0  0  0  0  0  0  0  0  0  0  0
  -23.6651  -16.1336    7.9515 C   0  0  0  0  0  0  0  0  0  0  0  0
  -24.3111  -15.1678    7.2535 N   0  0  0  0  0  0  0  0  0  0  0  0
  -23.0001  -12.7575    4.0901 O   0  5  0  0  0  0  0  0  0  0  0  0
  -25.7616   -9.8025    1.8735 O   0  0  0  0  0  0  0  0  0  0  0  0
  -24.9694   -9.2947    7.7016 S   0  0  0  0  0  0  0  0  0  0  0  0
  -25.6312  -10.5708    8.6747 C   0  0  0  0  0  0  0  0  0  0  0  0
  -21.4090  -11.0086    3.0853 O   0  0  0  0  0  0  0  0  0  0  0  0
  -24.4020  -11.7659    1.3751 O   0  5  0  0  0  0  0  0  0  0  0  0
  -24.6480  -11.4191    9.0852 N   0  0  0  0  0  0  0  0  0  0  0  0
  -23.9161  -10.4888    3.4316 O   0  0  0  0  0  0  0  0  0  0  0  0
  -25.9742  -11.8938    3.3099 O   0  0  0  0  0  0  0  0  0  0  0  0
  -23.3884  -11.1139    8.6685 C   0  0  1  0  0  0  0  0  0  0  0  0
  -23.3569   -9.8746    7.8454 C   0  0  1  0  0  0  0  0  0  0  0  0
  -22.2740   -9.0978    7.1447 C   0  0  0  0  0  0  0  0  0  0  0  0
  -22.4063   -9.3200    5.6462 C   0  0  0  0  0  0  0  0  0  0  0  0
  -22.3086  -10.7165    5.3943 O   0  0  0  0  0  0  0  0  0  0  0  0
  1 11  1  0  0  0  0
  3 13  1  1  0  0  0
  3 17  2  0  0  0  0
  3 20  1  0  0  0  0
  3 26  1  0  0  0  0
  4 14  1  6  0  0  0
  4 18  1  0  0  0  0
  4 21  2  0  0  0  0
  4 20  1  0  0  0  0
  5 19  1  0  0  0  0
  5  7  1  0  0  0  0
  6  7  2  0  0  0  0
  6 12  1  0  0  0  0
  7  8  1  0  0  0  0
  8  9  1  0  0  0  0
  8 10  2  0  0  0  0
 10 11  1  0  0  0  0
 11 12  2  0  0  0  0
 15 23  1  0  0  0  0
 15 16  1  0  0  0  0
 16 19  1  0  0  0  0
 19 22  1  0  0  0  0
 22  2  1  1  0  0  0
 22 23  1  0  0  0  0
 23 24  1  6  0  0  0
 24 25  1  0  0  0  0
 25 26  1  0  0  0  0
M  CHG  2  13  -1  18  -1
M  END
>  <CHROM.1>
-33.73603069,120.63874365,-41.42486779,-158.61143053,-71.78534914,-58.16107511
171.43815937,-156.37916938,-23.85899064,-11.97596426,6.23402438,-0.30083440
1.53932019,-2.33403300

>  <Name>
ligand

>  <RI>
0

>  <Rbt.Current_Directory>
/home/itssahil/PROJECTS/Mol_Feturizer/New_Systems/rnas/2GDI

>  <Rbt.Executable>
rbdock ($Id: //depot/dev/client3/rdock/2013.1/src/exe/rbdock.cxx#4 $)

>  <Rbt.Library>
libRbt.so (2013.1, Build901 2013/11/27)

>  <Rbt.Parameter_File>
/export/apps/rDock/src/rDock_2013.1_src/data/scripts/dock_solv.prm

>  <Rbt.Receptor>
prm/blind_docking_80.prm

>  <SCORE>
-16.6854

>  <SCORE.INTER>
-17.5932

>  <SCORE.INTER.CONST>
1

>  <SCORE.INTER.POLAR>
0

>  <SCORE.INTER.ROT>
8

>  <SCORE.INTER.SOLV>
18.2577

>  <SCORE.INTER.VDW>
-26.748

>  <SCORE.INTER.norm>
-0.676661

>  <SCORE.INTRA>
0.906818

>  <SCORE.INTRA.DIHEDRAL>
-0.27794

>  <SCORE.INTRA.DIHEDRAL.0>
8.13976

>  <SCORE.INTRA.POLAR>
0

>  <SCORE.INTRA.POLAR.0>
0

>  <SCORE.INTRA.REPUL>
0

>  <SCORE.INTRA.REPUL.0>
0

>  <SCORE.INTRA.SOLV>
2.35698

>  <SCORE.INTRA.SOLV.lig_0>
-82.9561

>  <SCORE.INTRA.VDW>
-0.1327

>  <SCORE.INTRA.VDW.0>
-3.29171

>  <SCORE.INTRA.norm>
0.0348776

>  <SCORE.RESTR>
0.00100127

>  <SCORE.RESTR.CAVITY>
0.00100127

>  <SCORE.RESTR.norm>
3.85103e-05

>  <SCORE.SYSTEM>
0

>  <SCORE.SYSTEM.CONST>
0

>  <SCORE.SYSTEM.DIHEDRAL>
0

>  <SCORE.SYSTEM.SOLV>
0

>  <SCORE.SYSTEM.norm>
0

>  <SCORE.heavy>
26

>  <SCORE.norm>
-0.641745

>  <RMSD>
10.292

$$$$
ligand
 OpenBabel11021811433D
libRbt.so/2013.1/901 2013/11/27
 26 27  0  0  0  0  0  0  0  0999 V2000
  -25.2933  -10.7751    1.7735 C   0  0  0  0  0  0  0  0  0  0  0  0
  -22.5060  -13.1205    8.4943 C   0  0  0  0  0  0  0  0  0  0  0  0
  -24.1944  -15.9308   10.9125 P   0  0  1  0  0  0  0  0  0  0  0  0
  -22.6070  -18.3301   10.4851 P   0  0  1  0  0  0  0  0  0  0  0  0
  -22.4663  -10.6931    6.7770 C   0  0  0  0  0  0  0  0  0  0  0  0
  -23.9661  -11.8195    5.0822 C   0  0  0  0  0  0  0  0  0  0  0  0
  -23.2047  -10.7171    5.4493 C   0  0  0  0  0  0  0  0  0  0  0  0
  -23.1428   -9.6348    4.5870 C   0  0  0  0  0  0  0  0  0  0  0  0
  -22.4121   -8.5376    4.9012 N   0  0  0  0  0  0  0  0  0  0  0  0
  -23.8187   -9.6729    3.4181 N   0  0  0  0  0  0  0  0  0  0  0  0
  -24.5513  -10.7572    3.0824 C   0  0  0  0  0  0  0  0  0  0  0  0
  -24.6222  -11.8257    3.9135 N   0  0  0  0  0  0  0  0  0  0  0  0
  -25.3079  -16.7324   11.5339 O   0  5  0  0  0  0  0  0  0  0  0  0
  -21.8026  -18.0416   11.7153 O   0  0  0  0  0  0  0  0  0  0  0  0
  -25.2554  -10.3405    9.5849 S   0  0  0  0  0  0  0  0  0  0  0  0
  -24.3055   -9.8585    8.2143 C   0  0  0  0  0  0  0  0  0  0  0  0
  -23.3531  -15.0922   11.8310 O   0  0  0  0  0  0  0  0  0  0  0  0
  -23.7554  -19.2141   10.8413 O   0  5  0  0  0  0  0  0  0  0  0  0
  -23.4025  -10.8262    7.8932 N   0  0  0  0  0  0  0  0  0  0  0  0
  -23.2864  -16.9334   10.0197 O   0  0  0  0  0  0  0  0  0  0  0  0
  -21.8347  -18.8284    9.2942 O   0  0  0  0  0  0  0  0  0  0  0  0
  -23.4195  -11.9381    8.6786 C   0  0  1  0  0  0  0  0  0  0  0  0
  -24.4624  -11.8588    9.7371 C   0  0  1  0  0  0  0  0  0  0  0  0
  -24.9118  -12.7691   10.8491 C   0  0  0  0  0  0  0  0  0  0  0  0
  -25.7364  -13.8984   10.2516 C   0  0  0  0  0  0  0  0  0  0  0  0
  -24.8459  -14.9277    9.8385 O   0  0  0  0  0  0  0  0  0  0  0  0
  1 11  1  0  0  0  0
  3 13  1  1  0  0  0
  3 17  2  0  0  0  0
  3 20  1  0  0  0  0
  3 26  1  0  0  0  0
  4 14  1  1  0  0  0
  4 18  1  0  0  0  0
  4 21  2  0  0  0  0
  4 20  1  0  0  0  0
  5 19  1  0  0  0  0
  5  7  1  0  0  0  0
  6  7  2  0  0  0  0
  6 12  1  0  0  0  0
  7  8  1  0  0  0  0
  8  9  1  0  0  0  0
  8 10  2  0  0  0  0
 10 11  1  0  0  0  0
 11 12  2  0  0  0  0
 15 23  1  0  0  0  0
 15 16  1  0  0  0  0
 16 19  1  0  0  0  0
 19 22  1  0  0  0  0
 22  2  1  6  0  0  0
 22 23  1  0  0  0  0
 23 24  1  1  0  0  0
 24 25  1  0  0  0  0
 25 26  1  0  0  0  0
M  CHG  2  13  -1  18  -1
M  END
>  <CHROM.1>
-52.60966661,-67.90805552,-60.01825585,-53.51531658,105.37989152,85.92798973
77.38118093,64.26112823,-23.80609527,-13.59087048,8.45645116,-1.78805594
-1.26581772,2.24284800

>  <Name>
ligand

>  <RI>
0

>  <Rbt.Current_Directory>
/home/itssahil/PROJECTS/Mol_Feturizer/New_Systems/rnas/2GDI

>  <Rbt.Executable>
rbdock ($Id: //depot/dev/client3/rdock/2013.1/src/exe/rbdock.cxx#4 $)

>  <Rbt.Library>
libRbt.so (2013.1, Build901 2013/11/27)

>  <Rbt.Parameter_File>
/export/apps/rDock/src/rDock_2013.1_src/data/scripts/dock_solv.prm

>  <Rbt.Receptor>
prm/blind_docking_40.prm

>  <SCORE>
-12.4602

>  <SCORE.INTER>
-13.1313

>  <SCORE.INTER.CONST>
1

>  <SCORE.INTER.POLAR>
0

>  <SCORE.INTER.ROT>
8

>  <SCORE.INTER.SOLV>
22.9451

>  <SCORE.INTER.VDW>
-25.3359

>  <SCORE.INTER.norm>
-0.505051

>  <SCORE.INTRA>
0.631797

>  <SCORE.INTRA.DIHEDRAL>
0.447607

>  <SCORE.INTRA.DIHEDRAL.0>
8.13976

>  <SCORE.INTRA.POLAR>
0

>  <SCORE.INTRA.POLAR.0>
0

>  <SCORE.INTRA.REPUL>
0

>  <SCORE.INTRA.REPUL.0>
0

>  <SCORE.INTRA.SOLV>
2.03685

>  <SCORE.INTRA.SOLV.lig_0>
-82.9561

>  <SCORE.INTRA.VDW>
-0.610433

>  <SCORE.INTRA.VDW.0>
-3.29171

>  <SCORE.INTRA.norm>
0.0242999

>  <SCORE.RESTR>
0.0392791

>  <SCORE.RESTR.CAVITY>
0.0392791

>  <SCORE.RESTR.norm>
0.00151074

>  <SCORE.SYSTEM>
0

>  <SCORE.SYSTEM.CONST>
0

>  <SCORE.SYSTEM.DIHEDRAL>
0

>  <SCORE.SYSTEM.SOLV>
0

>  <SCORE.SYSTEM.norm>
0

>  <SCORE.heavy>
26

>  <SCORE.norm>
-0.47924

>  <RMSD>
10.321

$$$$
ligand
 OpenBabel11021811433D
libRbt.so/2013.1/901 2013/11/27
 26 27  0  0  0  0  0  0  0  0999 V2000
  -22.1988  -11.4782    2.7383 C   0  0  0  0  0  0  0  0  0  0  0  0
  -21.6070  -11.8303   10.2925 C   0  0  0  0  0  0  0  0  0  0  0  0
  -23.6344  -16.7145    9.5600 P   0  0  1  0  0  0  0  0  0  0  0  0
  -24.4528  -18.3088   11.8507 P   0  0  1  0  0  0  0  0  0  0  0  0
  -22.4882   -9.8609    8.2459 C   0  0  0  0  0  0  0  0  0  0  0  0
  -22.4878  -11.6286    6.4389 C   0  0  0  0  0  0  0  0  0  0  0  0
  -22.4012  -10.2875    6.7903 C   0  0  0  0  0  0  0  0  0  0  0  0
  -22.2475   -9.3456    5.7863 C   0  0  0  0  0  0  0  0  0  0  0  0
  -22.1571   -8.0258    6.0803 N   0  0  0  0  0  0  0  0  0  0  0  0
  -22.1864   -9.7469    4.4979 N   0  0  0  0  0  0  0  0  0  0  0  0
  -22.2714  -11.0575    4.1812 C   0  0  0  0  0  0  0  0  0  0  0  0
  -22.4209  -11.9929    5.1507 N   0  0  0  0  0  0  0  0  0  0  0  0
  -22.2877  -17.3788    9.6765 O   0  5  0  0  0  0  0  0  0  0  0  0
  -23.7428  -17.3295   12.7341 O   0  0  0  0  0  0  0  0  0  0  0  0
  -25.6335  -11.7367    9.7874 S   0  0  0  0  0  0  0  0  0  0  0  0
  -24.7918  -10.6171    8.7621 C   0  0  0  0  0  0  0  0  0  0  0  0
  -24.1457  -16.4305    8.1771 O   0  0  0  0  0  0  0  0  0  0  0  0
  -25.8199  -18.5626   12.3926 O   0  5  0  0  0  0  0  0  0  0  0  0
  -23.4484  -10.6914    8.9730 N   0  0  0  0  0  0  0  0  0  0  0  0
  -24.7000  -17.5756   10.4258 O   0  0  0  0  0  0  0  0  0  0  0  0
  -23.7053  -19.5760   11.5366 O   0  0  0  0  0  0  0  0  0  0  0  0
  -23.0435  -11.5925    9.9097 C   0  0  1  0  0  0  0  0  0  0  0  0
  -24.1889  -12.3334   10.5044 C   0  0  1  0  0  0  0  0  0  0  0  0
  -24.3246  -13.4072   11.5510 C   0  0  0  0  0  0  0  0  0  0  0  0
  -24.7276  -14.7050   10.8686 C   0  0  0  0  0  0  0  0  0  0  0  0
  -23.5573  -15.3015   10.3230 O   0  0  0  0  0  0  0  0  0  0  0  0
  1 11  1  0  0  0  0
  3 13  1  6  0  0  0
  3 17  2  0  0  0  0
  3 20  1  0  0  0  0
  3 26  1  0  0  0  0
  4 14  1  1  0  0  0
  4 18  1  0  0  0  0
  4 21  2  0  0  0  0
  4 20  1  0  0  0  0
  5 19  1  0  0  0  0
  5  7  1  0  0  0  0
  6  7  2  0  0  0  0
  6 12  1  0  0  0  0
  7  8  1  0  0  0  0
  8  9  1  0  0  0  0
  8 10  2  0  0  0  0
 10 11  1  0  0  0  0
 11 12  2  0  0  0  0
 15 23  1  0  0  0  0
 15 16  1  0  0  0  0
 16 19  1  0  0  0  0
 19 22  1  0  0  0  0
 22  2  1  6  0  0  0
 22 23  1  0  0  0  0
 23 24  1  1  0  0  0
 24 25  1  0  0  0  0
 25 26  1  0  0  0  0
M  CHG  2  13  -1  18  -1
M  END
>  <CHROM.1>
37.93692348,-70.12139504,-36.82396354,46.25923051,71.85831443,80.93765302
178.51271112,-153.77851849,-23.58148823,-13.83940586,9.04290908,-1.03094793
-1.21469587,3.03911187

>  <Name>
ligand

>  <RI>
0

>  <Rbt.Current_Directory>
/home/itssahil/PROJECTS/Mol_Feturizer/New_Systems/rnas/2GDI

>  <Rbt.Executable>
rbdock ($Id: //depot/dev/client3/rdock/2013.1/src/exe/rbdock.cxx#4 $)

>  <Rbt.Library>
libRbt.so (2013.1, Build901 2013/11/27)

>  <Rbt.Parameter_File>
/export/apps/rDock/src/rDock_2013.1_src/data/scripts/dock_solv.prm

>  <Rbt.Receptor>
prm/blind_docking_40.prm

>  <SCORE>
-14.6269

>  <SCORE.INTER>
-13.7776

>  <SCORE.INTER.CONST>
1

>  <SCORE.INTER.POLAR>
0

>  <SCORE.INTER.ROT>
8

>  <SCORE.INTER.SOLV>
23.5142

>  <SCORE.INTER.VDW>
-25.9565

>  <SCORE.INTER.norm>
-0.529907

>  <SCORE.INTRA>
-0.849296

>  <SCORE.INTRA.DIHEDRAL>
0.14928

>  <SCORE.INTRA.DIHEDRAL.0>
8.13976

>  <SCORE.INTRA.POLAR>
0

>  <SCORE.INTRA.POLAR.0>
0

>  <SCORE.INTRA.REPUL>
0

>  <SCORE.INTRA.REPUL.0>
0

>  <SCORE.INTRA.SOLV>
-0.648146

>  <SCORE.INTRA.SOLV.lig_0>
-82.9561

>  <SCORE.INTRA.VDW>
-0.599864

>  <SCORE.INTRA.VDW.0>
-3.29171

>  <SCORE.INTRA.norm>
-0.0326652

>  <SCORE.RESTR>
0

>  <SCORE.RESTR.CAVITY>
0

>  <SCORE.RESTR.norm>
0

>  <SCORE.SYSTEM>
0

>  <SCORE.SYSTEM.CONST>
0

>  <SCORE.SYSTEM.DIHEDRAL>
0

>  <SCORE.SYSTEM.SOLV>
0

>  <SCORE.SYSTEM.norm>
0

>  <SCORE.heavy>
26

>  <SCORE.norm>
-0.562572

>  <RMSD>
10.338

$$$$
ligand
 OpenBabel11021811433D
libRbt.so/2013.1/901 2013/11/27
 26 27  0  0  0  0  0  0  0  0999 V2000
  -23.4366  -17.9682   10.2886 C   0  0  0  0  0  0  0  0  0  0  0  0
  -25.7012  -11.5105    6.3682 C   0  0  0  0  0  0  0  0  0  0  0  0
  -22.5366  -13.0921    3.3074 P   0  0  1  0  0  0  0  0  0  0  0  0
  -23.5475  -15.3085    4.8962 P   0  0  1  0  0  0  0  0  0  0  0  0
  -25.3359  -12.6805    9.0776 C   0  0  0  0  0  0  0  0  0  0  0  0
  -24.6134  -15.0022    8.3863 C   0  0  0  0  0  0  0  0  0  0  0  0
  -24.8437  -14.0811    9.4004 C   0  0  0  0  0  0  0  0  0  0  0  0
  -24.6026  -14.4606   10.7107 C   0  0  0  0  0  0  0  0  0  0  0  0
  -24.8136  -13.5971   11.7336 N   0  0  0  0  0  0  0  0  0  0  0  0
  -24.1519  -15.7067   10.9728 N   0  0  0  0  0  0  0  0  0  0  0  0
  -23.9371  -16.5855    9.9694 C   0  0  0  0  0  0  0  0  0  0  0  0
  -24.1687  -16.2316    8.6816 N   0  0  0  0  0  0  0  0  0  0  0  0
  -21.3120  -12.9101    2.4496 O   0  5  0  0  0  0  0  0  0  0  0  0
  -22.8659  -16.2036    5.8850 O   0  0  0  0  0  0  0  0  0  0  0  0
  -22.0699  -10.6965    7.9893 S   0  0  0  0  0  0  0  0  0  0  0  0
  -23.0802  -11.6540    9.0266 C   0  0  0  0  0  0  0  0  0  0  0  0
  -23.8736  -12.9817    2.6326 O   0  0  0  0  0  0  0  0  0  0  0  0
  -24.3239  -14.2646    5.6273 O   0  5  0  0  0  0  0  0  0  0  0  0
  -24.2821  -11.8962    8.4338 N   0  0  0  0  0  0  0  0  0  0  0  0
  -22.3874  -14.4909    4.1123 O   0  0  0  0  0  0  0  0  0  0  0  0
  -24.3560  -15.9977    3.8309 O   0  0  0  0  0  0  0  0  0  0  0  0
  -24.4508  -11.3611    7.1933 C   0  0  1  0  0  0  0  0  0  0  0  0
  -23.2440  -10.6208    6.7352 C   0  0  1  0  0  0  0  0  0  0  0  0
  -22.8829   -9.8541    5.4906 C   0  0  0  0  0  0  0  0  0  0  0  0
  -23.1727  -10.7265    4.2793 C   0  0  0  0  0  0  0  0  0  0  0  0
  -22.5063  -11.9702    4.4584 O   0  0  0  0  0  0  0  0  0  0  0  0
  1 11  1  0  0  0  0
  3 13  1  6  0  0  0
  3 17  2  0  0  0  0
  3 20  1  0  0  0  0
  3 26  1  0  0  0  0
  4 14  1  1  0  0  0
  4 18  1  0  0  0  0
  4 21  2  0  0  0  0
  4 20  1  0  0  0  0
  5 19  1  0  0  0  0
  5  7  1  0  0  0  0
  6  7  2  0  0  0  0
  6 12  1  0  0  0  0
  7  8  1  0  0  0  0
  8  9  1  0  0  0  0
  8 10  2  0  0  0  0
 10 11  1  0  0  0  0
 11 12  2  0  0  0  0
 15 23  1  0  0  0  0
 15 16  1  0  0  0  0
 16 19  1  0  0  0  0
 19 22  1  0  0  0  0
 22  2  1  6  0  0  0
 22 23  1  0  0  0  0
 23 24  1  1  0  0  0
 24 25  1  0  0  0  0
 25 26  1  0  0  0  0
M  CHG  2  13  -1  18  -1
M  END
>  <CHROM.1>
-165.06225942,-58.98557829,-70.70253209,-158.68789373,129.79729362,-53.35932324
-176.23888014,93.22842103,-23.55641182,-13.49420298,6.65729241,3.08432825
1.35779171,0.39986224

>  <Name>
ligand

>  <RI>
0

>  <Rbt.Current_Directory>
/home/itssahil/PROJECTS/Mol_Feturizer/New_Systems/rnas/2GDI

>  <Rbt.Executable>
rbdock ($Id: //depot/dev/client3/rdock/2013.1/src/exe/rbdock.cxx#4 $)

>  <Rbt.Library>
libRbt.so (2013.1, Build901 2013/11/27)

>  <Rbt.Parameter_File>
/export/apps/rDock/src/rDock_2013.1_src/data/scripts/dock_solv.prm

>  <Rbt.Receptor>
prm/blind_docking_60.prm

>  <SCORE>
-12.2115

>  <SCORE.INTER>
-12.0945

>  <SCORE.INTER.CONST>
1

>  <SCORE.INTER.POLAR>
0

>  <SCORE.INTER.ROT>
8

>  <SCORE.INTER.SOLV>
12.2441

>  <SCORE.INTER.VDW>
-21.0777

>  <SCORE.INTER.norm>
-0.465174

>  <SCORE.INTRA>
-0.138877

>  <SCORE.INTRA.DIHEDRAL>
-1.05285

>  <SCORE.INTRA.DIHEDRAL.0>
8.13976

>  <SCORE.INTRA.POLAR>
0

>  <SCORE.INTRA.POLAR.0>
0

>  <SCORE.INTRA.REPUL>
0

>  <SCORE.INTRA.REPUL.0>
0

>  <SCORE.INTRA.SOLV>
4.50463

>  <SCORE.INTRA.SOLV.lig_0>
-82.9561

>  <SCORE.INTRA.VDW>
-1.86477

>  <SCORE.INTRA.VDW.0>
-3.29171

>  <SCORE.INTRA.norm>
-0.00534144

>  <SCORE.RESTR>
0.0219385

>  <SCORE.RESTR.CAVITY>
0.0219385

>  <SCORE.RESTR.norm>
0.000843787

>  <SCORE.SYSTEM>
0

>  <SCORE.SYSTEM.CONST>
0

>  <SCORE.SYSTEM.DIHEDRAL>
0

>  <SCORE.SYSTEM.SOLV>
0

>  <SCORE.SYSTEM.norm>
0

>  <SCORE.heavy>
26

>  <SCORE.norm>
-0.469672

>  <RMSD>
10.340

$$$$
ligand
 OpenBabel11021811433D
libRbt.so/2013.1/901 2013/11/27
 26 27  0  0  0  0  0  0  0  0999 V2000
  -21.9762   -7.1949    4.6623 C   0  0  0  0  0  0  0  0  0  0  0  0
  -25.3869  -11.7056    9.5358 C   0  0  0  0  0  0  0  0  0  0  0  0
  -23.3509  -17.5095   11.2075 P   0  0  1  0  0  0  0  0  0  0  0  0
  -22.3545  -19.8942    9.8737 P   0  0  1  0  0  0  0  0  0  0  0  0
  -24.8207  -11.7904    6.6177 C   0  0  0  0  0  0  0  0  0  0  0  0
  -23.7622   -9.5183    6.9453 C   0  0  0  0  0  0  0  0  0  0  0  0
  -24.0777  -10.5718    6.0966 C   0  0  0  0  0  0  0  0  0  0  0  0
  -23.6897  -10.4954    4.7690 C   0  0  0  0  0  0  0  0  0  0  0  0
  -23.9760  -11.4978    3.9033 N   0  0  0  0  0  0  0  0  0  0  0  0
  -23.0179   -9.4083    4.3313 N   0  0  0  0  0  0  0  0  0  0  0  0
  -22.7240   -8.3955    5.1757 C   0  0  0  0  0  0  0  0  0  0  0  0
  -23.0968   -8.4529    6.4776 N   0  0  0  0  0  0  0  0  0  0  0  0
  -24.7269  -17.8091   10.6733 O   0  5  0  0  0  0  0  0  0  0  0  0
  -22.6363  -19.9131    8.4028 O   0  0  0  0  0  0  0  0  0  0  0  0
  -22.1880  -14.0185    8.5904 S   0  0  0  0  0  0  0  0  0  0  0  0
  -22.9353  -13.2892    7.2037 C   0  0  0  0  0  0  0  0  0  0  0  0
  -23.1259  -17.7018   12.6796 O   0  0  0  0  0  0  0  0  0  0  0  0
  -20.9864  -20.4362   10.1221 O   0  5  0  0  0  0  0  0  0  0  0  0
  -23.9994  -12.5265    7.5788 N   0  0  0  0  0  0  0  0  0  0  0  0
  -22.2738  -18.3391   10.3252 O   0  0  0  0  0  0  0  0  0  0  0  0
  -23.3999  -20.5238   10.7535 O   0  0  0  0  0  0  0  0  0  0  0  0
  -24.2599  -12.4868    8.9145 C   0  0  1  0  0  0  0  0  0  0  0  0
  -23.2868  -13.2953    9.6980 C   0  0  1  0  0  0  0  0  0  0  0  0
  -23.1022  -13.6021   11.1604 C   0  0  0  0  0  0  0  0  0  0  0  0
  -23.7868  -14.9238   11.4715 C   0  0  0  0  0  0  0  0  0  0  0  0
  -23.0197  -15.9693   10.8871 O   0  0  0  0  0  0  0  0  0  0  0  0
  1 11  1  0  0  0  0
  3 13  1  6  0  0  0
  3 17  2  0  0  0  0
  3 20  1  0  0  0  0
  3 26  1  0  0  0  0
  4 14  1  6  0  0  0
  4 18  1  0  0  0  0
  4 21  2  0  0  0  0
  4 20  1  0  0  0  0
  5 19  1  0  0  0  0
  5  7  1  0  0  0  0
  6  7  2  0  0  0  0
  6 12  1  0  0  0  0
  7  8  1  0  0  0  0
  8  9  1  0  0  0  0
  8 10  2  0  0  0  0
 10 11  1  0  0  0  0
 11 12  2  0  0  0  0
 15 23  1  0  0  0  0
 15 16  1  0  0  0  0
 16 19  1  0  0  0  0
 19 22  1  0  0  0  0
 22  2  1  1  0  0  0
 22 23  1  0  0  0  0
 23 24  1  6  0  0  0
 24 25  1  0  0  0  0
 25 26  1  0  0  0  0
M  CHG  2  13  -1  18  -1
M  END
>  <CHROM.1>
-45.77430143,-73.88365180,-65.94218619,108.17552746,-83.57256102,71.65243241
171.10119063,64.01557945,-23.20128736,-14.51934222,8.68357695,-1.75134145
-1.25818602,2.48791018

>  <Name>
ligand

>  <RI>
0

>  <Rbt.Current_Directory>
/home/itssahil/PROJECTS/Mol_Feturizer/New_Systems/rnas/2GDI

>  <Rbt.Executable>
rbdock ($Id: //depot/dev/client3/rdock/2013.1/src/exe/rbdock.cxx#4 $)

>  <Rbt.Library>
libRbt.so (2013.1, Build901 2013/11/27)

>  <Rbt.Parameter_File>
/export/apps/rDock/src/rDock_2013.1_src/data/scripts/dock_solv.prm

>  <Rbt.Receptor>
prm/blind_docking_40.prm

>  <SCORE>
-11.7381

>  <SCORE.INTER>
-12.1607

>  <SCORE.INTER.CONST>
1

>  <SCORE.INTER.POLAR>
0

>  <SCORE.INTER.ROT>
8

>  <SCORE.INTER.SOLV>
19.1992

>  <SCORE.INTER.VDW>
-23.4402

>  <SCORE.INTER.norm>
-0.467718

>  <SCORE.INTRA>
0.341265

>  <SCORE.INTRA.DIHEDRAL>
0.285464

>  <SCORE.INTRA.DIHEDRAL.0>
8.13976

>  <SCORE.INTRA.POLAR>
0

>  <SCORE.INTRA.POLAR.0>
0

>  <SCORE.INTRA.REPUL>
0

>  <SCORE.INTRA.REPUL.0>
0

>  <SCORE.INTRA.SOLV>
1.34204

>  <SCORE.INTRA.SOLV.lig_0>
-82.9561

>  <SCORE.INTRA.VDW>
-0.472485

>  <SCORE.INTRA.VDW.0>
-3.29171

>  <SCORE.INTRA.norm>
0.0131256

>  <SCORE.RESTR>
0.0813151

>  <SCORE.RESTR.CAVITY>
0.0813151

>  <SCORE.RESTR.norm>
0.0031275

>  <SCORE.SYSTEM>
0

>  <SCORE.SYSTEM.CONST>
0

>  <SCORE.SYSTEM.DIHEDRAL>
0

>  <SCORE.SYSTEM.SOLV>
0

>  <SCORE.SYSTEM.norm>
0

>  <SCORE.heavy>
26

>  <SCORE.norm>
-0.451465

>  <RMSD>
10.355

$$$$
ligand
 OpenBabel11021811433D
libRbt.so/2013.1/901 2013/11/27
 26 27  0  0  0  0  0  0  0  0999 V2000
  -25.9160  -17.1899    2.9591 C   0  0  0  0  0  0  0  0  0  0  0  0
  -25.7470  -11.4492    6.3023 C   0  0  0  0  0  0  0  0  0  0  0  0
  -23.5923  -13.9291    8.6533 P   0  0  1  0  0  0  0  0  0  0  0  0
  -24.0714  -14.5429   11.4555 P   0  0  1  0  0  0  0  0  0  0  0  0
  -25.7360  -11.4572    3.3286 C   0  0  0  0  0  0  0  0  0  0  0  0
  -25.6843  -13.7607    4.3686 C   0  0  0  0  0  0  0  0  0  0  0  0
  -25.7734  -12.9727    3.2280 C   0  0  0  0  0  0  0  0  0  0  0  0
  -25.9107  -13.5958    1.9984 C   0  0  0  0  0  0  0  0  0  0  0  0
  -26.0003  -12.8692    0.8581 N   0  0  0  0  0  0  0  0  0  0  0  0
  -25.9555  -14.9443    1.9346 N   0  0  0  0  0  0  0  0  0  0  0  0
  -25.8652  -15.6893    3.0579 C   0  0  0  0  0  0  0  0  0  0  0  0
  -25.7294  -15.0966    4.2693 N   0  0  0  0  0  0  0  0  0  0  0  0
  -22.3547  -14.6409    8.1738 O   0  5  0  0  0  0  0  0  0  0  0  0
  -23.6044  -13.9255   12.7378 O   0  0  0  0  0  0  0  0  0  0  0  0
  -22.2496  -10.1430    4.7091 S   0  0  0  0  0  0  0  0  0  0  0  0
  -23.4213  -10.5883    3.5083 C   0  0  0  0  0  0  0  0  0  0  0  0
  -24.9180  -14.5497    8.3183 O   0  0  0  0  0  0  0  0  0  0  0  0
  -25.5475  -14.3629   11.3289 O   0  5  0  0  0  0  0  0  0  0  0  0
  -24.5717  -11.0173    4.0976 N   0  0  0  0  0  0  0  0  0  0  0  0
  -23.4406  -13.6672   10.2455 O   0  0  0  0  0  0  0  0  0  0  0  0
  -23.6333  -15.9607   11.2084 O   0  0  0  0  0  0  0  0  0  0  0  0
  -24.5783  -11.0143    5.4590 C   0  0  1  0  0  0  0  0  0  0  0  0
  -23.2958  -10.5125    6.0229 C   0  0  1  0  0  0  0  0  0  0  0  0
  -22.7635  -10.3023    7.4155 C   0  0  0  0  0  0  0  0  0  0  0  0
  -22.4201  -11.6565    8.0159 C   0  0  0  0  0  0  0  0  0  0  0  0
  -23.5967  -12.4556    8.0105 O   0  0  0  0  0  0  0  0  0  0  0  0
  1 11  1  0  0  0  0
  3 13  1  6  0  0  0
  3 17  2  0  0  0  0
  3 20  1  0  0  0  0
  3 26  1  0  0  0  0
  4 14  1  1  0  0  0
  4 18  1  0  0  0  0
  4 21  2  0  0  0  0
  4 20  1  0  0  0  0
  5 19  1  0  0  0  0
  5  7  1  0  0  0  0
  6  7  2  0  0  0  0
  6 12  1  0  0  0  0
  7  8  1  0  0  0  0
  8  9  1  0  0  0  0
  8 10  2  0  0  0  0
 10 11  1  0  0  0  0
 11 12  2  0  0  0  0
 15 23  1  0  0  0  0
 15 16  1  0  0  0  0
 16 19  1  0  0  0  0
 19 22  1  0  0  0  0
 22  2  1  6  0  0  0
 22 23  1  0  0  0  0
 23 24  1  1  0  0  0
 24 25  1  0  0  0  0
 25 26  1  0  0  0  0
M  CHG  2  13  -1  18  -1
M  END
>  <CHROM.1>
-98.53168259,98.41446261,52.22957176,177.93887898,-104.30359503,-58.17790696
-176.76020926,-45.75172065,-24.29878531,-13.18144960,6.65828195,1.94138332
-1.07944663,-1.07863329

>  <Name>
ligand

>  <RI>
0

>  <Rbt.Current_Directory>
/home/itssahil/PROJECTS/Mol_Feturizer/New_Systems/rnas/2GDI

>  <Rbt.Executable>
rbdock ($Id: //depot/dev/client3/rdock/2013.1/src/exe/rbdock.cxx#4 $)

>  <Rbt.Library>
libRbt.so (2013.1, Build901 2013/11/27)

>  <Rbt.Parameter_File>
/export/apps/rDock/src/rDock_2013.1_src/data/scripts/dock_solv.prm

>  <Rbt.Receptor>
prm/blind_docking_100.prm

>  <SCORE>
-10.3359

>  <SCORE.INTER>
-10.6023

>  <SCORE.INTER.CONST>
1

>  <SCORE.INTER.POLAR>
0

>  <SCORE.INTER.ROT>
8

>  <SCORE.INTER.SOLV>
20.3545

>  <SCORE.INTER.VDW>
-22.7864

>  <SCORE.INTER.norm>
-0.407782

>  <SCORE.INTRA>
0.264557

>  <SCORE.INTRA.DIHEDRAL>
-1.86544

>  <SCORE.INTRA.DIHEDRAL.0>
8.13976

>  <SCORE.INTRA.POLAR>
0

>  <SCORE.INTRA.POLAR.0>
0

>  <SCORE.INTRA.REPUL>
0

>  <SCORE.INTRA.REPUL.0>
0

>  <SCORE.INTRA.SOLV>
2.09778

>  <SCORE.INTRA.SOLV.lig_0>
-82.9561

>  <SCORE.INTRA.VDW>
0.148386

>  <SCORE.INTRA.VDW.0>
-3.29171

>  <SCORE.INTRA.norm>
0.0101753

>  <SCORE.RESTR>
0.0019193

>  <SCORE.RESTR.CAVITY>
0.0019193

>  <SCORE.RESTR.norm>
7.38193e-05

>  <SCORE.SYSTEM>
0

>  <SCORE.SYSTEM.CONST>
0

>  <SCORE.SYSTEM.DIHEDRAL>
0

>  <SCORE.SYSTEM.SOLV>
0

>  <SCORE.SYSTEM.norm>
0

>  <SCORE.heavy>
26

>  <SCORE.norm>
-0.397533

>  <RMSD>
10.362

$$$$
ligand
 OpenBabel11021811433D
libRbt.so/2013.1/901 2013/11/27
 26 27  0  0  0  0  0  0  0  0999 V2000
  -22.8948  -17.5804    9.3691 C   0  0  0  0  0  0  0  0  0  0  0  0
  -25.2519  -11.7943    5.6836 C   0  0  0  0  0  0  0  0  0  0  0  0
  -22.6615   -9.9876    8.2545 P   0  0  1  0  0  0  0  0  0  0  0  0
  -24.9413  -10.9029    9.8112 P   0  0  1  0  0  0  0  0  0  0  0  0
  -24.9259  -14.6360    4.8704 C   0  0  0  0  0  0  0  0  0  0  0  0
  -24.5964  -14.9633    7.3553 C   0  0  0  0  0  0  0  0  0  0  0  0
  -24.3794  -15.4102    6.0580 C   0  0  0  0  0  0  0  0  0  0  0  0
  -23.6665  -16.5829    5.8691 C   0  0  0  0  0  0  0  0  0  0  0  0
  -23.4287  -17.0576    4.6223 N   0  0  0  0  0  0  0  0  0  0  0  0
  -23.2021  -17.2618    6.9405 N   0  0  0  0  0  0  0  0  0  0  0  0
  -23.4246  -16.8060    8.1927 C   0  0  0  0  0  0  0  0  0  0  0  0
  -24.1192  -15.6600    8.3961 N   0  0  0  0  0  0  0  0  0  0  0  0
  -23.0647   -8.5560    8.4921 O   0  5  0  0  0  0  0  0  0  0  0  0
  -25.8361   -9.7117    9.6562 O   0  0  0  0  0  0  0  0  0  0  0  0
  -21.9960  -12.4286    3.3441 S   0  0  0  0  0  0  0  0  0  0  0  0
  -22.9022  -13.8755    3.6576 C   0  0  0  0  0  0  0  0  0  0  0  0
  -21.4469  -10.4913    8.9797 O   0  0  0  0  0  0  0  0  0  0  0  0
  -25.7532  -12.1497    9.6944 O   0  5  0  0  0  0  0  0  0  0  0  0
  -23.9802  -13.6044    4.4445 N   0  0  0  0  0  0  0  0  0  0  0  0
  -23.9527  -10.9288    8.5264 O   0  0  0  0  0  0  0  0  0  0  0  0
  -24.0450  -10.9015   11.0195 O   0  0  0  0  0  0  0  0  0  0  0  0
  -24.1307  -12.3038    4.8177 C   0  0  1  0  0  0  0  0  0  0  0  0
  -23.0630  -11.4336    4.2544 C   0  0  1  0  0  0  0  0  0  0  0  0
  -22.7424   -9.9648    4.3376 C   0  0  0  0  0  0  0  0  0  0  0  0
  -23.1341   -9.4576    5.7166 C   0  0  0  0  0  0  0  0  0  0  0  0
  -22.3684  -10.1654    6.6839 O   0  0  0  0  0  0  0  0  0  0  0  0
  1 11  1  0  0  0  0
  3 13  1  1  0  0  0
  3 17  2  0  0  0  0
  3 20  1  0  0  0  0
  3 26  1  0  0  0  0
  4 14  1  6  0  0  0
  4 18  1  0  0  0  0
  4 21  2  0  0  0  0
  4 20  1  0  0  0  0
  5 19  1  0  0  0  0
  5  7  1  0  0  0  0
  6  7  2  0  0  0  0
  6 12  1  0  0  0  0
  7  8  1  0  0  0  0
  8  9  1  0  0  0  0
  8 10  2  0  0  0  0
 10 11  1  0  0  0  0
 11 12  2  0  0  0  0
 15 23  1  0  0  0  0
 15 16  1  0  0  0  0
 16 19  1  0  0  0  0
 19 22  1  0  0  0  0
 22  2  1  6  0  0  0
 22 23  1  0  0  0  0
 23 24  1  1  0  0  0
 24 25  1  0  0  0  0
 25 26  1  0  0  0  0
M  CHG  2  13  -1  18  -1
M  END
>  <CHROM.1>
-49.04159637,80.81216375,87.52945804,76.01984208,-144.59520781,61.21841922
-172.93225310,-35.29885437,-23.62816961,-12.52705505,7.01948542,1.41807636
-1.30998270,-2.81230874

>  <Name>
ligand

>  <RI>
0

>  <Rbt.Current_Directory>
/home/itssahil/PROJECTS/Mol_Feturizer/New_Systems/rnas/2GDI

>  <Rbt.Executable>
rbdock ($Id: //depot/dev/client3/rdock/2013.1/src/exe/rbdock.cxx#4 $)

>  <Rbt.Library>
libRbt.so (2013.1, Build901 2013/11/27)

>  <Rbt.Parameter_File>
/export/apps/rDock/src/rDock_2013.1_src/data/scripts/dock_solv.prm

>  <Rbt.Receptor>
prm/blind_docking_40.prm

>  <SCORE>
-12.2983

>  <SCORE.INTER>
-11.9811

>  <SCORE.INTER.CONST>
1

>  <SCORE.INTER.POLAR>
0

>  <SCORE.INTER.ROT>
8

>  <SCORE.INTER.SOLV>
17.2998

>  <SCORE.INTER.VDW>
-22.6874

>  <SCORE.INTER.norm>
-0.460813

>  <SCORE.INTRA>
-0.317162

>  <SCORE.INTRA.DIHEDRAL>
-1.65593

>  <SCORE.INTRA.DIHEDRAL.0>
8.13976

>  <SCORE.INTRA.POLAR>
0

>  <SCORE.INTRA.POLAR.0>
0

>  <SCORE.INTRA.REPUL>
0

>  <SCORE.INTRA.REPUL.0>
0

>  <SCORE.INTRA.SOLV>
2.22893

>  <SCORE.INTRA.SOLV.lig_0>
-82.9561

>  <SCORE.INTRA.VDW>
-0.603663

>  <SCORE.INTRA.VDW.0>
-3.29171

>  <SCORE.INTRA.norm>
-0.0121985

>  <SCORE.RESTR>
0

>  <SCORE.RESTR.CAVITY>
0

>  <SCORE.RESTR.norm>
0

>  <SCORE.SYSTEM>
0

>  <SCORE.SYSTEM.CONST>
0

>  <SCORE.SYSTEM.DIHEDRAL>
0

>  <SCORE.SYSTEM.SOLV>
0

>  <SCORE.SYSTEM.norm>
0

>  <SCORE.heavy>
26

>  <SCORE.norm>
-0.473012

>  <RMSD>
10.380

$$$$
ligand
 OpenBabel11021811433D
libRbt.so/2013.1/901 2013/11/27
 26 27  0  0  0  0  0  0  0  0999 V2000
  -25.3306  -10.5884    1.9107 C   0  0  0  0  0  0  0  0  0  0  0  0
  -22.2891  -13.2651    8.6844 C   0  0  0  0  0  0  0  0  0  0  0  0
  -24.1521  -16.2119   11.0128 P   0  0  1  0  0  0  0  0  0  0  0  0
  -22.6292  -18.6190   10.4254 P   0  0  1  0  0  0  0  0  0  0  0  0
  -22.4285  -10.9205    6.8605 C   0  0  0  0  0  0  0  0  0  0  0  0
  -23.9641  -11.8988    5.1069 C   0  0  0  0  0  0  0  0  0  0  0  0
  -23.1868  -10.8348    5.5467 C   0  0  0  0  0  0  0  0  0  0  0  0
  -23.1275   -9.6890    4.7704 C   0  0  0  0  0  0  0  0  0  0  0  0
  -22.3817   -8.6259    5.1576 N   0  0  0  0  0  0  0  0  0  0  0  0
  -23.8211   -9.6303    3.6128 N   0  0  0  0  0  0  0  0  0  0  0  0
  -24.5690  -10.6789    3.2052 C   0  0  0  0  0  0  0  0  0  0  0  0
  -24.6377  -11.8083    3.9517 N   0  0  0  0  0  0  0  0  0  0  0  0
  -25.2624  -17.0025   11.6536 O   0  5  0  0  0  0  0  0  0  0  0  0
  -21.8536  -19.0742    9.2275 O   0  0  0  0  0  0  0  0  0  0  0  0
  -25.2387  -10.6513    9.6565 S   0  0  0  0  0  0  0  0  0  0  0  0
  -24.3260  -10.1617    8.2635 C   0  0  0  0  0  0  0  0  0  0  0  0
  -23.2410  -15.4400   11.9233 O   0  0  0  0  0  0  0  0  0  0  0  0
  -21.6829  -18.2915   11.5319 O   0  5  0  0  0  0  0  0  0  0  0  0
  -23.3532  -11.0729    7.9838 N   0  0  0  0  0  0  0  0  0  0  0  0
  -23.3212  -17.2049   10.0379 O   0  0  0  0  0  0  0  0  0  0  0  0
  -23.7517  -19.5190   10.8650 O   0  0  0  0  0  0  0  0  0  0  0  0
  -23.2881  -12.1468    8.8180 C   0  0  1  0  0  0  0  0  0  0  0  0
  -24.3351  -12.0981    9.8744 C   0  0  1  0  0  0  0  0  0  0  0  0
  -24.7165  -12.9887   11.0269 C   0  0  0  0  0  0  0  0  0  0  0  0
  -25.6308  -14.0889   10.5111 C   0  0  0  0  0  0  0  0  0  0  0  0
  -24.8179  -15.1441   10.0123 O   0  0  0  0  0  0  0  0  0  0  0  0
  1 11  1  0  0  0  0
  3 13  1  1  0  0  0
  3 17  2  0  0  0  0
  3 20  1  0  0  0  0
  3 26  1  0  0  0  0
  4 14  1  6  0  0  0
  4 18  1  0  0  0  0
  4 21  2  0  0  0  0
  4 20  1  0  0  0  0
  5 19  1  0  0  0  0
  5  7  1  0  0  0  0
  6  7  2  0  0  0  0
  6 12  1  0  0  0  0
  7  8  1  0  0  0  0
  8  9  1  0  0  0  0
  8 10  2  0  0  0  0
 10 11  1  0  0  0  0
 11 12  2  0  0  0  0
 15 23  1  0  0  0  0
 15 16  1  0  0  0  0
 16 19  1  0  0  0  0
 19 22  1  0  0  0  0
 22  2  1  6  0  0  0
 22 23  1  0  0  0  0
 23 24  1  1  0  0  0
 24 25  1  0  0  0  0
 25 26  1  0  0  0  0
M  CHG  2  13  -1  18  -1
M  END
>  <CHROM.1>
-54.70472526,-58.80529188,-62.52907945,-173.65373584,96.95716619,85.25387860
80.19311155,65.53464094,-23.76633910,-13.78543458,8.54204195,-1.79209811
-1.26667508,2.25956245

>  <Name>
ligand

>  <RI>
0

>  <Rbt.Current_Directory>
/home/itssahil/PROJECTS/Mol_Feturizer/New_Systems/rnas/2GDI

>  <Rbt.Executable>
rbdock ($Id: //depot/dev/client3/rdock/2013.1/src/exe/rbdock.cxx#4 $)

>  <Rbt.Library>
libRbt.so (2013.1, Build901 2013/11/27)

>  <Rbt.Parameter_File>
/export/apps/rDock/src/rDock_2013.1_src/data/scripts/dock_solv.prm

>  <Rbt.Receptor>
prm/blind_docking_40.prm

>  <SCORE>
-12.1834

>  <SCORE.INTER>
-14.0015

>  <SCORE.INTER.CONST>
1

>  <SCORE.INTER.POLAR>
0

>  <SCORE.INTER.ROT>
8

>  <SCORE.INTER.SOLV>
20.8355

>  <SCORE.INTER.VDW>
-25.2128

>  <SCORE.INTER.norm>
-0.53852

>  <SCORE.INTRA>
1.60943

>  <SCORE.INTRA.DIHEDRAL>
0.845302

>  <SCORE.INTRA.DIHEDRAL.0>
8.13976

>  <SCORE.INTRA.POLAR>
0

>  <SCORE.INTRA.POLAR.0>
0

>  <SCORE.INTRA.REPUL>
0

>  <SCORE.INTRA.REPUL.0>
0

>  <SCORE.INTRA.SOLV>
3.59752

>  <SCORE.INTRA.SOLV.lig_0>
-82.9561

>  <SCORE.INTRA.VDW>
-0.611981

>  <SCORE.INTRA.VDW.0>
-3.29171

>  <SCORE.INTRA.norm>
0.0619012

>  <SCORE.RESTR>
0.208682

>  <SCORE.RESTR.CAVITY>
0.208682

>  <SCORE.RESTR.norm>
0.00802622

>  <SCORE.SYSTEM>
0

>  <SCORE.SYSTEM.CONST>
0

>  <SCORE.SYSTEM.DIHEDRAL>
0

>  <SCORE.SYSTEM.SOLV>
0

>  <SCORE.SYSTEM.norm>
0

>  <SCORE.heavy>
26

>  <SCORE.norm>
-0.468592

>  <RMSD>
10.388

$$$$
ligand
 OpenBabel11021811433D
libRbt.so/2013.1/901 2013/11/27
 26 27  0  0  0  0  0  0  0  0999 V2000
  -25.3079  -10.6712    1.9199 C   0  0  0  0  0  0  0  0  0  0  0  0
  -23.0851  -13.4843    7.6098 C   0  0  0  0  0  0  0  0  0  0  0  0
  -23.6348  -16.4782    9.5609 P   0  0  1  0  0  0  0  0  0  0  0  0
  -24.2628  -18.1481   11.8578 P   0  0  1  0  0  0  0  0  0  0  0  0
  -22.7606  -10.5778    7.0712 C   0  0  0  0  0  0  0  0  0  0  0  0
  -24.3737  -11.5752    5.3999 C   0  0  0  0  0  0  0  0  0  0  0  0
  -23.4255  -10.6071    5.7054 C   0  0  0  0  0  0  0  0  0  0  0  0
  -23.1080   -9.6608    4.7448 C   0  0  0  0  0  0  0  0  0  0  0  0
  -22.1884   -8.6978    4.9963 N   0  0  0  0  0  0  0  0  0  0  0  0
  -23.7220   -9.6982    3.5422 N   0  0  0  0  0  0  0  0  0  0  0  0
  -24.6398  -10.6508    3.2680 C   0  0  0  0  0  0  0  0  0  0  0  0
  -24.9620  -11.5852    4.1956 N   0  0  0  0  0  0  0  0  0  0  0  0
  -22.3599  -17.2749    9.4699 O   0  5  0  0  0  0  0  0  0  0  0  0
  -23.5150  -19.3479   11.3629 O   0  0  0  0  0  0  0  0  0  0  0  0
  -25.3945  -11.1453    9.9915 S   0  0  0  0  0  0  0  0  0  0  0  0
  -24.4264  -10.2350    8.8747 C   0  0  0  0  0  0  0  0  0  0  0  0
  -24.3080  -16.1047    8.2717 O   0  0  0  0  0  0  0  0  0  0  0  0
  -23.3422  -17.2865   12.6561 O   0  5  0  0  0  0  0  0  0  0  0  0
  -23.6744  -11.0680    8.1032 N   0  0  0  0  0  0  0  0  0  0  0  0
  -24.6470  -17.2554   10.5601 O   0  0  0  0  0  0  0  0  0  0  0  0
  -25.5614  -18.4259   12.5647 O   0  0  0  0  0  0  0  0  0  0  0  0
  -23.8218  -12.3990    8.3486 C   0  0  1  0  0  0  0  0  0  0  0  0
  -24.8137  -12.6620    9.4263 C   0  0  1  0  0  0  0  0  0  0  0  0
  -25.3524  -13.9027   10.0878 C   0  0  0  0  0  0  0  0  0  0  0  0
  -24.3122  -14.4241   11.0667 C   0  0  0  0  0  0  0  0  0  0  0  0
  -23.3058  -15.1027   10.3253 O   0  0  0  0  0  0  0  0  0  0  0  0
  1 11  1  0  0  0  0
  3 13  1  6  0  0  0
  3 17  2  0  0  0  0
  3 20  1  0  0  0  0
  3 26  1  0  0  0  0
  4 14  1  6  0  0  0
  4 18  1  0  0  0  0
  4 21  2  0  0  0  0
  4 20  1  0  0  0  0
  5 19  1  0  0  0  0
  5  7  1  0  0  0  0
  6  7  2  0  0  0  0
  6 12  1  0  0  0  0
  7  8  1  0  0  0  0
  8  9  1  0  0  0  0
  8 10  2  0  0  0  0
 10 11  1  0  0  0  0
 11 12  2  0  0  0  0
 15 23  1  0  0  0  0
 15 16  1  0  0  0  0
 16 19  1  0  0  0  0
 19 22  1  0  0  0  0
 22  2  1  6  0  0  0
 22 23  1  0  0  0  0
 23 24  1  1  0  0  0
 24 25  1  0  0  0  0
 25 26  1  0  0  0  0
M  CHG  2  13  -1  18  -1
M  END
>  <CHROM.1>
32.70072041,-96.44066913,-31.56312233,-65.75253464,-101.94274297,-77.87066409
-67.51751245,-152.51026375,-24.05976352,-13.82095451,8.53027380,-1.49525706
-1.42563463,2.49234248

>  <Name>
ligand

>  <RI>
0

>  <Rbt.Current_Directory>
/home/itssahil/PROJECTS/Mol_Feturizer/New_Systems/rnas/2GDI

>  <Rbt.Executable>
rbdock ($Id: //depot/dev/client3/rdock/2013.1/src/exe/rbdock.cxx#4 $)

>  <Rbt.Library>
libRbt.so (2013.1, Build901 2013/11/27)

>  <Rbt.Parameter_File>
/export/apps/rDock/src/rDock_2013.1_src/data/scripts/dock_solv.prm

>  <Rbt.Receptor>
prm/blind_docking_40.prm

>  <SCORE>
-13.5823

>  <SCORE.INTER>
-14.9722

>  <SCORE.INTER.CONST>
1

>  <SCORE.INTER.POLAR>
0

>  <SCORE.INTER.ROT>
8

>  <SCORE.INTER.SOLV>
22.8104

>  <SCORE.INTER.VDW>
-26.5183

>  <SCORE.INTER.norm>
-0.575854

>  <SCORE.INTRA>
1.38994

>  <SCORE.INTRA.DIHEDRAL>
-0.44038

>  <SCORE.INTRA.DIHEDRAL.0>
8.13976

>  <SCORE.INTRA.POLAR>
0

>  <SCORE.INTRA.POLAR.0>
0

>  <SCORE.INTRA.REPUL>
0

>  <SCORE.INTRA.REPUL.0>
0

>  <SCORE.INTRA.SOLV>
3.54657

>  <SCORE.INTRA.SOLV.lig_0>
-82.9561

>  <SCORE.INTRA.VDW>
-0.163155

>  <SCORE.INTRA.VDW.0>
-3.29171

>  <SCORE.INTRA.norm>
0.0534592

>  <SCORE.RESTR>
0

>  <SCORE.RESTR.CAVITY>
0

>  <SCORE.RESTR.norm>
0

>  <SCORE.SYSTEM>
0

>  <SCORE.SYSTEM.CONST>
0

>  <SCORE.SYSTEM.DIHEDRAL>
0

>  <SCORE.SYSTEM.SOLV>
0

>  <SCORE.SYSTEM.norm>
0

>  <SCORE.heavy>
26

>  <SCORE.norm>
-0.522394

>  <RMSD>
10.395

$$$$
ligand
 OpenBabel11021811433D
libRbt.so/2013.1/901 2013/11/27
 26 27  0  0  0  0  0  0  0  0999 V2000
  -23.2646  -17.9590   10.5800 C   0  0  0  0  0  0  0  0  0  0  0  0
  -25.8215  -11.2907    6.4805 C   0  0  0  0  0  0  0  0  0  0  0  0
  -23.3382  -12.5632    3.1335 P   0  0  1  0  0  0  0  0  0  0  0  0
  -23.8479  -14.8271    4.8867 P   0  0  1  0  0  0  0  0  0  0  0  0
  -25.3837  -12.8667    8.9640 C   0  0  0  0  0  0  0  0  0  0  0  0
  -24.6434  -15.2322    8.4672 C   0  0  0  0  0  0  0  0  0  0  0  0
  -24.8330  -14.2156    9.3948 C   0  0  0  0  0  0  0  0  0  0  0  0
  -24.4974  -14.4516   10.7179 C   0  0  0  0  0  0  0  0  0  0  0  0
  -24.6658  -13.4910   11.6588 N   0  0  0  0  0  0  0  0  0  0  0  0
  -23.9965  -15.6541   11.0754 N   0  0  0  0  0  0  0  0  0  0  0  0
  -23.8227  -16.6277   10.1552 C   0  0  0  0  0  0  0  0  0  0  0  0
  -24.1467  -16.4147    8.8563 N   0  0  0  0  0  0  0  0  0  0  0  0
  -22.3148  -12.2648    2.0695 O   0  5  0  0  0  0  0  0  0  0  0  0
  -23.7713  -13.9430    6.0933 O   0  0  0  0  0  0  0  0  0  0  0  0
  -22.0855  -10.8668    8.0101 S   0  0  0  0  0  0  0  0  0  0  0  0
  -23.0887  -11.9301    8.9462 C   0  0  0  0  0  0  0  0  0  0  0  0
  -24.7821  -12.3512    2.7801 O   0  0  0  0  0  0  0  0  0  0  0  0
  -25.2657  -14.9185    4.4299 O   0  5  0  0  0  0  0  0  0  0  0  0
  -24.3266  -12.0351    8.3885 N   0  0  0  0  0  0  0  0  0  0  0  0
  -23.0723  -14.0640    3.6846 O   0  0  0  0  0  0  0  0  0  0  0  0
  -23.1876  -16.1731    5.0126 O   0  0  0  0  0  0  0  0  0  0  0  0
  -24.5286  -11.3141    7.2514 C   0  0  1  0  0  0  0  0  0  0  0  0
  -23.3121  -10.5596    6.8447 C   0  0  1  0  0  0  0  0  0  0  0  0
  -22.9751   -9.6292    5.7099 C   0  0  0  0  0  0  0  0  0  0  0  0
  -23.4442  -10.2587    4.4075 C   0  0  0  0  0  0  0  0  0  0  0  0
  -23.0287  -11.6190    4.3972 O   0  0  0  0  0  0  0  0  0  0  0  0
  1 11  1  0  0  0  0
  3 13  1  6  0  0  0
  3 17  2  0  0  0  0
  3 20  1  0  0  0  0
  3 26  1  0  0  0  0
  4 14  1  1  0  0  0
  4 18  1  0  0  0  0
  4 21  2  0  0  0  0
  4 20  1  0  0  0  0
  5 19  1  0  0  0  0
  5  7  1  0  0  0  0
  6  7  2  0  0  0  0
  6 12  1  0  0  0  0
  7  8  1  0  0  0  0
  8  9  1  0  0  0  0
  8 10  2  0  0  0  0
 10 11  1  0  0  0  0
 11 12  2  0  0  0  0
 15 23  1  0  0  0  0
 15 16  1  0  0  0  0
 16 19  1  0  0  0  0
 19 22  1  0  0  0  0
 22  2  1  6  0  0  0
 22 23  1  0  0  0  0
 23 24  1  1  0  0  0
 24 25  1  0  0  0  0
 25 26  1  0  0  0  0
M  CHG  2  13  -1  18  -1
M  END
>  <CHROM.1>
176.45458897,-43.79350192,-80.98643581,-54.11707575,133.50692683,-46.43745491
-178.48574163,79.89814187,-23.78569252,-13.29560492,6.66289662,2.60485000
1.45567581,0.97748649

>  <Name>
ligand

>  <RI>
0

>  <Rbt.Current_Directory>
/home/itssahil/PROJECTS/Mol_Feturizer/New_Systems/rnas/2GDI

>  <Rbt.Executable>
rbdock ($Id: //depot/dev/client3/rdock/2013.1/src/exe/rbdock.cxx#4 $)

>  <Rbt.Library>
libRbt.so (2013.1, Build901 2013/11/27)

>  <Rbt.Parameter_File>
/export/apps/rDock/src/rDock_2013.1_src/data/scripts/dock_solv.prm

>  <Rbt.Receptor>
prm/blind_docking_100.prm

>  <SCORE>
-12.4291

>  <SCORE.INTER>
-9.61644

>  <SCORE.INTER.CONST>
1

>  <SCORE.INTER.POLAR>
0

>  <SCORE.INTER.ROT>
8

>  <SCORE.INTER.SOLV>
12.3943

>  <SCORE.INTER.VDW>
-19.4757

>  <SCORE.INTER.norm>
-0.369863

>  <SCORE.INTRA>
-2.81266

>  <SCORE.INTRA.DIHEDRAL>
-2.44565

>  <SCORE.INTRA.DIHEDRAL.0>
8.13976

>  <SCORE.INTRA.POLAR>
0

>  <SCORE.INTRA.POLAR.0>
0

>  <SCORE.INTRA.REPUL>
0

>  <SCORE.INTRA.REPUL.0>
0

>  <SCORE.INTRA.SOLV>
1.24013

>  <SCORE.INTRA.SOLV.lig_0>
-82.9561

>  <SCORE.INTRA.VDW>
-2.2099

>  <SCORE.INTRA.VDW.0>
-3.29171

>  <SCORE.INTRA.norm>
-0.108179

>  <SCORE.RESTR>
0

>  <SCORE.RESTR.CAVITY>
0

>  <SCORE.RESTR.norm>
0

>  <SCORE.SYSTEM>
0

>  <SCORE.SYSTEM.CONST>
0

>  <SCORE.SYSTEM.DIHEDRAL>
0

>  <SCORE.SYSTEM.SOLV>
0

>  <SCORE.SYSTEM.norm>
0

>  <SCORE.heavy>
26

>  <SCORE.norm>
-0.478042

>  <RMSD>
10.437

$$$$
ligand
 OpenBabel11021811433D
libRbt.so/2013.1/901 2013/11/27
 26 27  0  0  0  0  0  0  0  0999 V2000
  -24.5434  -14.0501   11.6116 C   0  0  0  0  0  0  0  0  0  0  0  0
  -25.8098  -12.1224    4.6600 C   0  0  0  0  0  0  0  0  0  0  0  0
  -19.4300  -11.6515    1.2138 P   0  0  1  0  0  0  0  0  0  0  0  0
  -16.9943  -11.4302    2.7877 P   0  0  1  0  0  0  0  0  0  0  0  0
  -25.7577  -10.5742    7.1983 C   0  0  0  0  0  0  0  0  0  0  0  0
  -25.4523  -12.8715    8.2079 C   0  0  0  0  0  0  0  0  0  0  0  0
  -25.4465  -11.4917    8.3687 C   0  0  0  0  0  0  0  0  0  0  0  0
  -25.1381  -10.9686    9.6138 C   0  0  0  0  0  0  0  0  0  0  0  0
  -25.1209   -9.6292    9.8192 N   0  0  0  0  0  0  0  0  0  0  0  0
  -24.8512  -11.8034   10.6362 N   0  0  0  0  0  0  0  0  0  0  0  0
  -24.8650  -13.1421   10.4556 C   0  0  0  0  0  0  0  0  0  0  0  0
  -25.1656  -13.6714    9.2445 N   0  0  0  0  0  0  0  0  0  0  0  0
  -19.3380  -10.2251    0.7392 O   0  5  0  0  0  0  0  0  0  0  0  0
  -16.8505   -9.9511    2.6002 O   0  0  0  0  0  0  0  0  0  0  0  0
  -22.3946   -9.9876    5.1654 S   0  0  0  0  0  0  0  0  0  0  0  0
  -23.5150   -9.8018    6.4781 C   0  0  0  0  0  0  0  0  0  0  0  0
  -19.0869  -12.7300    0.2269 O   0  0  0  0  0  0  0  0  0  0  0  0
  -16.7120  -11.7778    4.2113 O   0  5  0  0  0  0  0  0  0  0  0  0
  -24.6390  -10.5381    6.2562 N   0  0  0  0  0  0  0  0  0  0  0  0
  -18.5611  -11.7890    2.5750 O   0  0  0  0  0  0  0  0  0  0  0  0
  -16.2391  -12.2946    1.8152 O   0  0  0  0  0  0  0  0  0  0  0  0
  -24.6644  -11.2474    5.0945 C   0  0  1  0  0  0  0  0  0  0  0  0
  -23.4152  -11.0718    4.3051 C   0  0  1  0  0  0  0  0  0  0  0  0
  -22.9147  -11.5988    2.9865 C   0  0  0  0  0  0  0  0  0  0  0  0
  -21.3992  -11.4782    2.9567 C   0  0  0  0  0  0  0  0  0  0  0  0
  -20.9436  -11.9205    1.6839 O   0  0  0  0  0  0  0  0  0  0  0  0
  1 11  1  0  0  0  0
  3 13  1  6  0  0  0
  3 17  2  0  0  0  0
  3 20  1  0  0  0  0
  3 26  1  0  0  0  0
  4 14  1  6  0  0  0
  4 18  1  0  0  0  0
  4 21  2  0  0  0  0
  4 20  1  0  0  0  0
  5 19  1  0  0  0  0
  5  7  1  0  0  0  0
  6  7  2  0  0  0  0
  6 12  1  0  0  0  0
  7  8  1  0  0  0  0
  8  9  1  0  0  0  0
  8 10  2  0  0  0  0
 10 11  1  0  0  0  0
 11 12  2  0  0  0  0
 15 23  1  0  0  0  0
 15 16  1  0  0  0  0
 16 19  1  0  0  0  0
 19 22  1  0  0  0  0
 22  2  1  1  0  0  0
 22 23  1  0  0  0  0
 23 24  1  6  0  0  0
 24 25  1  0  0  0  0
 25 26  1  0  0  0  0
M  CHG  2  13  -1  18  -1
M  END
>  <CHROM.1>
-56.32516301,-78.33262383,-73.57482876,65.24861086,21.87933270,-177.32929316
167.72454198,-79.39424928,-21.75481655,-11.47363704,4.96014972,-2.35528059
0.12417974,-1.39560906

>  <Name>
ligand

>  <RI>
0

>  <Rbt.Current_Directory>
/home/itssahil/PROJECTS/Mol_Feturizer/New_Systems/rnas/2GDI

>  <Rbt.Executable>
rbdock ($Id: //depot/dev/client3/rdock/2013.1/src/exe/rbdock.cxx#4 $)

>  <Rbt.Library>
libRbt.so (2013.1, Build901 2013/11/27)

>  <Rbt.Parameter_File>
/export/apps/rDock/src/rDock_2013.1_src/data/scripts/dock_solv.prm

>  <Rbt.Receptor>
prm/blind_docking_60.prm

>  <SCORE>
-13.4302

>  <SCORE.INTER>
-15.2444

>  <SCORE.INTER.CONST>
1

>  <SCORE.INTER.POLAR>
0

>  <SCORE.INTER.ROT>
8

>  <SCORE.INTER.SOLV>
27.1474

>  <SCORE.INTER.VDW>
-28.1454

>  <SCORE.INTER.norm>
-0.586324

>  <SCORE.INTRA>
1.8142

>  <SCORE.INTRA.DIHEDRAL>
-1.7728

>  <SCORE.INTRA.DIHEDRAL.0>
8.13976

>  <SCORE.INTRA.POLAR>
0

>  <SCORE.INTRA.POLAR.0>
0

>  <SCORE.INTRA.REPUL>
0

>  <SCORE.INTRA.REPUL.0>
0

>  <SCORE.INTRA.SOLV>
0.5508

>  <SCORE.INTRA.SOLV.lig_0>
-82.9561

>  <SCORE.INTRA.VDW>
2.4252

>  <SCORE.INTRA.VDW.0>
-3.29171

>  <SCORE.INTRA.norm>
0.0697771

>  <SCORE.RESTR>
0

>  <SCORE.RESTR.CAVITY>
0

>  <SCORE.RESTR.norm>
0

>  <SCORE.SYSTEM>
0

>  <SCORE.SYSTEM.CONST>
0

>  <SCORE.SYSTEM.DIHEDRAL>
0

>  <SCORE.SYSTEM.SOLV>
0

>  <SCORE.SYSTEM.norm>
0

>  <SCORE.heavy>
26

>  <SCORE.norm>
-0.516547

>  <RMSD>
10.445

$$$$
ligand
 OpenBabel11021811433D
libRbt.so/2013.1/901 2013/11/27
 26 27  0  0  0  0  0  0  0  0999 V2000
  -22.2404  -13.1252    3.3218 C   0  0  0  0  0  0  0  0  0  0  0  0
  -22.4376  -11.2167    9.6445 C   0  0  0  0  0  0  0  0  0  0  0  0
  -23.6119  -16.7818    9.9680 P   0  0  1  0  0  0  0  0  0  0  0  0
  -22.1568  -18.9558    8.6970 P   0  0  1  0  0  0  0  0  0  0  0  0
  -24.7546  -10.6612    7.8651 C   0  0  0  0  0  0  0  0  0  0  0  0
  -24.4022  -12.6143    6.2995 C   0  0  0  0  0  0  0  0  0  0  0  0
  -24.0814  -11.3145    6.6700 C   0  0  0  0  0  0  0  0  0  0  0  0
  -23.1456  -10.6211    5.9201 C   0  0  0  0  0  0  0  0  0  0  0  0
  -22.7995   -9.3514    6.2436 N   0  0  0  0  0  0  0  0  0  0  0  0
  -22.5702  -11.2174    4.8533 N   0  0  0  0  0  0  0  0  0  0  0  0
  -22.8974  -12.4833    4.5137 C   0  0  0  0  0  0  0  0  0  0  0  0
  -23.8102  -13.1771    5.2368 N   0  0  0  0  0  0  0  0  0  0  0  0
  -24.2890  -16.4224    8.6715 O   0  5  0  0  0  0  0  0  0  0  0  0
  -20.7206  -19.0859    8.2920 O   0  0  0  0  0  0  0  0  0  0  0  0
  -25.7703  -13.3021   10.6546 S   0  0  0  0  0  0  0  0  0  0  0  0
  -26.0015  -12.2744    9.2749 C   0  0  0  0  0  0  0  0  0  0  0  0
  -24.4446  -17.4643   11.0147 O   0  0  0  0  0  0  0  0  0  0  0  0
  -22.5199  -20.0865    9.6009 O   0  5  0  0  0  0  0  0  0  0  0  0
  -24.8545  -11.6012    8.9816 N   0  0  0  0  0  0  0  0  0  0  0  0
  -22.2744  -17.6296    9.6223 O   0  0  0  0  0  0  0  0  0  0  0  0
  -23.1429  -18.7644    7.5771 O   0  0  0  0  0  0  0  0  0  0  0  0
  -23.7929  -11.8544    9.7955 C   0  0  1  0  0  0  0  0  0  0  0  0
  -24.1217  -12.8532   10.8484 C   0  0  1  0  0  0  0  0  0  0  0  0
  -23.3582  -13.4847   11.9822 C   0  0  0  0  0  0  0  0  0  0  0  0
  -23.5260  -14.9939   11.9022 C   0  0  0  0  0  0  0  0  0  0  0  0
  -23.0582  -15.4256   10.6302 O   0  0  0  0  0  0  0  0  0  0  0  0
  1 11  1  0  0  0  0
  3 13  1  6  0  0  0
  3 17  2  0  0  0  0
  3 20  1  0  0  0  0
  3 26  1  0  0  0  0
  4 14  1  6  0  0  0
  4 18  1  0  0  0  0
  4 21  2  0  0  0  0
  4 20  1  0  0  0  0
  5 19  1  0  0  0  0
  5  7  1  0  0  0  0
  6  7  2  0  0  0  0
  6 12  1  0  0  0  0
  7  8  1  0  0  0  0
  8  9  1  0  0  0  0
  8 10  2  0  0  0  0
 10 11  1  0  0  0  0
 11 12  2  0  0  0  0
 15 23  1  0  0  0  0
 15 16  1  0  0  0  0
 16 19  1  0  0  0  0
 19 22  1  0  0  0  0
 22  2  1  6  0  0  0
 22 23  1  0  0  0  0
 23 24  1  1  0  0  0
 24 25  1  0  0  0  0
 25 26  1  0  0  0  0
M  CHG  2  13  -1  18  -1
M  END
>  <CHROM.1>
-52.95697129,-100.15165354,42.39476097,160.59787971,51.87522926,57.81144232
-154.57503330,118.64379121,-23.49699103,-14.56194746,8.61081766,-1.89524970
-1.17027554,2.47658747

>  <Name>
ligand

>  <RI>
0

>  <Rbt.Current_Directory>
/home/itssahil/PROJECTS/Mol_Feturizer/New_Systems/rnas/2GDI

>  <Rbt.Executable>
rbdock ($Id: //depot/dev/client3/rdock/2013.1/src/exe/rbdock.cxx#4 $)

>  <Rbt.Library>
libRbt.so (2013.1, Build901 2013/11/27)

>  <Rbt.Parameter_File>
/export/apps/rDock/src/rDock_2013.1_src/data/scripts/dock_solv.prm

>  <Rbt.Receptor>
prm/blind_docking_60.prm

>  <SCORE>
-6.47178

>  <SCORE.INTER>
-9.72792

>  <SCORE.INTER.CONST>
1

>  <SCORE.INTER.POLAR>
0

>  <SCORE.INTER.ROT>
8

>  <SCORE.INTER.SOLV>
22.21

>  <SCORE.INTER.VDW>
-22.8219

>  <SCORE.INTER.norm>
-0.374151

>  <SCORE.INTRA>
3.15778

>  <SCORE.INTRA.DIHEDRAL>
3.02798

>  <SCORE.INTRA.DIHEDRAL.0>
8.13976

>  <SCORE.INTRA.POLAR>
0

>  <SCORE.INTRA.POLAR.0>
0

>  <SCORE.INTRA.REPUL>
0

>  <SCORE.INTRA.REPUL.0>
0

>  <SCORE.INTRA.SOLV>
2.88459

>  <SCORE.INTRA.SOLV.lig_0>
-82.9561

>  <SCORE.INTRA.VDW>
0.20149

>  <SCORE.INTRA.VDW.0>
-3.29171

>  <SCORE.INTRA.norm>
0.121453

>  <SCORE.RESTR>
0.0983638

>  <SCORE.RESTR.CAVITY>
0.0983638

>  <SCORE.RESTR.norm>
0.00378322

>  <SCORE.SYSTEM>
0

>  <SCORE.SYSTEM.CONST>
0

>  <SCORE.SYSTEM.DIHEDRAL>
0

>  <SCORE.SYSTEM.SOLV>
0

>  <SCORE.SYSTEM.norm>
0

>  <SCORE.heavy>
26

>  <SCORE.norm>
-0.248915

>  <RMSD>
10.463

$$$$
ligand
 OpenBabel11021811433D
libRbt.so/2013.1/901 2013/11/27
 26 27  0  0  0  0  0  0  0  0999 V2000
  -22.3841  -18.6409    7.9103 C   0  0  0  0  0  0  0  0  0  0  0  0
  -22.1366  -12.7057    9.4972 C   0  0  0  0  0  0  0  0  0  0  0  0
  -23.1703  -12.1415    4.0891 P   0  0  1  0  0  0  0  0  0  0  0  0
  -25.2748  -11.0409    2.4102 P   0  0  1  0  0  0  0  0  0  0  0  0
  -24.7582  -13.9280   10.1875 C   0  0  0  0  0  0  0  0  0  0  0  0
  -24.1284  -15.3750    8.2127 C   0  0  0  0  0  0  0  0  0  0  0  0
  -24.1393  -15.1794    9.5880 C   0  0  0  0  0  0  0  0  0  0  0  0
  -23.5626  -16.1413   10.4010 C   0  0  0  0  0  0  0  0  0  0  0  0
  -23.5502  -15.9950   11.7482 N   0  0  0  0  0  0  0  0  0  0  0  0
  -23.0060  -17.2393    9.8449 N   0  0  0  0  0  0  0  0  0  0  0  0
  -23.0093  -17.4079    8.5045 C   0  0  0  0  0  0  0  0  0  0  0  0
  -23.5699  -16.4775    7.6938 N   0  0  0  0  0  0  0  0  0  0  0  0
  -24.2097  -13.0640    4.6699 O   0  5  0  0  0  0  0  0  0  0  0  0
  -25.5801   -9.6603    1.9160 O   0  0  0  0  0  0  0  0  0  0  0  0
  -25.2722  -10.9418    7.6173 S   0  0  0  0  0  0  0  0  0  0  0  0
  -25.7475  -12.2507    8.6536 C   0  0  0  0  0  0  0  0  0  0  0  0
  -22.1033  -12.7582    3.2313 O   0  0  0  0  0  0  0  0  0  0  0  0
  -24.8895  -11.9052    1.2561 O   0  5  0  0  0  0  0  0  0  0  0  0
  -24.6589  -12.8036    9.2569 N   0  0  0  0  0  0  0  0  0  0  0  0
  -23.9354  -10.9385    3.3182 O   0  0  0  0  0  0  0  0  0  0  0  0
  -26.3197  -11.6728    3.2889 O   0  0  0  0  0  0  0  0  0  0  0  0
  -23.4580  -12.2451    8.9417 C   0  0  1  0  0  0  0  0  0  0  0  0
  -23.6022  -11.1084    7.9922 C   0  0  1  0  0  0  0  0  0  0  0  0
  -22.6422  -10.1597    7.3250 C   0  0  0  0  0  0  0  0  0  0  0  0
  -22.9003  -10.1784    5.8266 C   0  0  0  0  0  0  0  0  0  0  0  0
  -22.4183  -11.4123    5.3086 O   0  0  0  0  0  0  0  0  0  0  0  0
  1 11  1  0  0  0  0
  3 13  1  1  0  0  0
  3 17  2  0  0  0  0
  3 20  1  0  0  0  0
  3 26  1  0  0  0  0
  4 14  1  6  0  0  0
  4 18  1  0  0  0  0
  4 21  2  0  0  0  0
  4 20  1  0  0  0  0
  5 19  1  0  0  0  0
  5  7  1  0  0  0  0
  6  7  2  0  0  0  0
  6 12  1  0  0  0  0
  7  8  1  0  0  0  0
  8  9  1  0  0  0  0
  8 10  2  0  0  0  0
 10 11  1  0  0  0  0
 11 12  2  0  0  0  0
 15 23  1  0  0  0  0
 15 16  1  0  0  0  0
 16 19  1  0  0  0  0
 19 22  1  0  0  0  0
 22  2  1  1  0  0  0
 22 23  1  0  0  0  0
 23 24  1  6  0  0  0
 24 25  1  0  0  0  0
 25 26  1  0  0  0  0
M  CHG  2  13  -1  18  -1
M  END
>  <CHROM.1>
-39.27036600,111.93104809,-29.12674725,-179.79112443,-51.20264183,-72.59128339
145.50727641,-89.96471862,-23.95330356,-12.90243091,6.43262629,-0.89425052
1.36126512,-1.62273131

>  <Name>
ligand

>  <RI>
0

>  <Rbt.Current_Directory>
/home/itssahil/PROJECTS/Mol_Feturizer/New_Systems/rnas/2GDI

>  <Rbt.Executable>
rbdock ($Id: //depot/dev/client3/rdock/2013.1/src/exe/rbdock.cxx#4 $)

>  <Rbt.Library>
libRbt.so (2013.1, Build901 2013/11/27)

>  <Rbt.Parameter_File>
/export/apps/rDock/src/rDock_2013.1_src/data/scripts/dock_solv.prm

>  <Rbt.Receptor>
prm/blind_docking_100.prm

>  <SCORE>
-14.0657

>  <SCORE.INTER>
-17.5249

>  <SCORE.INTER.CONST>
1

>  <SCORE.INTER.POLAR>
0

>  <SCORE.INTER.ROT>
8

>  <SCORE.INTER.SOLV>
15.1579

>  <SCORE.INTER.VDW>
-25.6693

>  <SCORE.INTER.norm>
-0.674036

>  <SCORE.INTRA>
3.45924

>  <SCORE.INTRA.DIHEDRAL>
4.48836

>  <SCORE.INTRA.DIHEDRAL.0>
8.13976

>  <SCORE.INTRA.POLAR>
0

>  <SCORE.INTRA.POLAR.0>
0

>  <SCORE.INTRA.REPUL>
0

>  <SCORE.INTRA.REPUL.0>
0

>  <SCORE.INTRA.SOLV>
2.65

>  <SCORE.INTRA.SOLV.lig_0>
-82.9561

>  <SCORE.INTRA.VDW>
-0.109937

>  <SCORE.INTRA.VDW.0>
-3.29171

>  <SCORE.INTRA.norm>
0.133048

>  <SCORE.RESTR>
0

>  <SCORE.RESTR.CAVITY>
0

>  <SCORE.RESTR.norm>
0

>  <SCORE.SYSTEM>
0

>  <SCORE.SYSTEM.CONST>
0

>  <SCORE.SYSTEM.DIHEDRAL>
0

>  <SCORE.SYSTEM.SOLV>
0

>  <SCORE.SYSTEM.norm>
0

>  <SCORE.heavy>
26

>  <SCORE.norm>
-0.540988

>  <RMSD>
10.487

$$$$
ligand
 OpenBabel11021811433D
libRbt.so/2013.1/901 2013/11/27
 26 27  0  0  0  0  0  0  0  0999 V2000
  -28.7971  -14.5534   -4.4856 C   0  0  0  0  0  0  0  0  0  0  0  0
  -25.3902  -10.6969    1.7328 C   0  0  0  0  0  0  0  0  0  0  0  0
  -24.4078  -12.1281    7.8007 P   0  0  1  0  0  0  0  0  0  0  0  0
  -24.7229   -9.4850    8.9726 P   0  0  1  0  0  0  0  0  0  0  0  0
  -25.0905  -12.5396   -0.5819 C   0  0  0  0  0  0  0  0  0  0  0  0
  -27.3708  -13.3975   -1.2561 C   0  0  0  0  0  0  0  0  0  0  0  0
  -26.0660  -13.0815   -1.6130 C   0  0  0  0  0  0  0  0  0  0  0  0
  -25.6758  -13.2576   -2.9304 C   0  0  0  0  0  0  0  0  0  0  0  0
  -24.4131  -12.9643   -3.3256 N   0  0  0  0  0  0  0  0  0  0  0  0
  -26.5642  -13.7277   -3.8328 N   0  0  0  0  0  0  0  0  0  0  0  0
  -27.8275  -14.0296   -3.4611 C   0  0  0  0  0  0  0  0  0  0  0  0
  -28.2262  -13.8645   -2.1762 N   0  0  0  0  0  0  0  0  0  0  0  0
  -22.9106  -11.9714    7.7526 O   0  5  0  0  0  0  0  0  0  0  0  0
  -24.5594   -8.9934    7.5671 O   0  0  0  0  0  0  0  0  0  0  0  0
  -25.9824  -14.5945    2.6998 S   0  0  0  0  0  0  0  0  0  0  0  0
  -25.6083  -14.3580    1.0213 C   0  0  0  0  0  0  0  0  0  0  0  0
  -24.9496  -13.5120    8.0155 O   0  0  0  0  0  0  0  0  0  0  0  0
  -25.9742   -8.9153    9.5531 O   0  5  0  0  0  0  0  0  0  0  0  0
  -25.4199  -13.0359    0.7543 N   0  0  0  0  0  0  0  0  0  0  0  0
  -24.9914  -11.0819    8.8924 O   0  0  0  0  0  0  0  0  0  0  0  0
  -23.5308   -9.3134    9.8740 O   0  0  0  0  0  0  0  0  0  0  0  0
  -25.5568  -12.1910    1.8131 C   0  0  1  0  0  0  0  0  0  0  0  0
  -25.8753  -12.9189    3.0713 C   0  0  1  0  0  0  0  0  0  0  0  0
  -26.1276  -12.5057    4.4971 C   0  0  0  0  0  0  0  0  0  0  0  0
  -24.7899  -12.3455    5.2022 C   0  0  0  0  0  0  0  0  0  0  0  0
  -25.0052  -11.6106    6.4008 O   0  0  0  0  0  0  0  0  0  0  0  0
  1 11  1  0  0  0  0
  3 13  1  6  0  0  0
  3 17  2  0  0  0  0
  3 20  1  0  0  0  0
  3 26  1  0  0  0  0
  4 14  1  6  0  0  0
  4 18  1  0  0  0  0
  4 21  2  0  0  0  0
  4 20  1  0  0  0  0
  5 19  1  0  0  0  0
  5  7  1  0  0  0  0
  6  7  2  0  0  0  0
  6 12  1  0  0  0  0
  7  8  1  0  0  0  0
  8  9  1  0  0  0  0
  8 10  2  0  0  0  0
 10 11  1  0  0  0  0
 11 12  2  0  0  0  0
 15 23  1  0  0  0  0
 15 16  1  0  0  0  0
 16 19  1  0  0  0  0
 19 22  1  0  0  0  0
 22  2  1  1  0  0  0
 22 23  1  0  0  0  0
 23 24  1  6  0  0  0
 24 25  1  0  0  0  0
 25 26  1  0  0  0  0
M  CHG  2  13  -1  18  -1
M  END
>  <CHROM.1>
52.76268454,51.21045099,28.95452729,32.45280717,97.49635618,163.99868038
131.14428034,69.89124768,-25.49019300,-12.23708883,3.49301176,2.74526202
-1.36839238,-0.68130281

>  <Name>
ligand

>  <RI>
0

>  <Rbt.Current_Directory>
/home/itssahil/PROJECTS/Mol_Feturizer/New_Systems/rnas/2GDI

>  <Rbt.Executable>
rbdock ($Id: //depot/dev/client3/rdock/2013.1/src/exe/rbdock.cxx#4 $)

>  <Rbt.Library>
libRbt.so (2013.1, Build901 2013/11/27)

>  <Rbt.Parameter_File>
/export/apps/rDock/src/rDock_2013.1_src/data/scripts/dock_solv.prm

>  <Rbt.Receptor>
prm/blind_docking_80.prm

>  <SCORE>
-9.08592

>  <SCORE.INTER>
-11.7485

>  <SCORE.INTER.CONST>
1

>  <SCORE.INTER.POLAR>
0

>  <SCORE.INTER.ROT>
8

>  <SCORE.INTER.SOLV>
15.7657

>  <SCORE.INTER.VDW>
-22.0209

>  <SCORE.INTER.norm>
-0.451865

>  <SCORE.INTRA>
2.47277

>  <SCORE.INTRA.DIHEDRAL>
5.49055

>  <SCORE.INTRA.DIHEDRAL.0>
8.13976

>  <SCORE.INTRA.POLAR>
0

>  <SCORE.INTRA.POLAR.0>
0

>  <SCORE.INTRA.REPUL>
0

>  <SCORE.INTRA.REPUL.0>
0

>  <SCORE.INTRA.SOLV>
-0.590415

>  <SCORE.INTRA.SOLV.lig_0>
-82.9561

>  <SCORE.INTRA.VDW>
0.0227049

>  <SCORE.INTRA.VDW.0>
-3.29171

>  <SCORE.INTRA.norm>
0.0951067

>  <SCORE.RESTR>
0.189785

>  <SCORE.RESTR.CAVITY>
0.189785

>  <SCORE.RESTR.norm>
0.00729941

>  <SCORE.SYSTEM>
0

>  <SCORE.SYSTEM.CONST>
0

>  <SCORE.SYSTEM.DIHEDRAL>
0

>  <SCORE.SYSTEM.SOLV>
0

>  <SCORE.SYSTEM.norm>
0

>  <SCORE.heavy>
26

>  <SCORE.norm>
-0.349459

>  <RMSD>
10.501

$$$$
ligand
 OpenBabel11021811433D
libRbt.so/2013.1/901 2013/11/27
 26 27  0  0  0  0  0  0  0  0999 V2000
  -23.0206  -17.5211    5.8281 C   0  0  0  0  0  0  0  0  0  0  0  0
  -22.1729  -12.8994    9.2867 C   0  0  0  0  0  0  0  0  0  0  0  0
  -22.6988  -10.6351    4.7697 P   0  0  1  0  0  0  0  0  0  0  0  0
  -25.0693  -11.2097    3.1855 P   0  0  1  0  0  0  0  0  0  0  0  0
  -24.7198  -14.1569   10.1672 C   0  0  0  0  0  0  0  0  0  0  0  0
  -24.5426  -14.6993    7.7046 C   0  0  0  0  0  0  0  0  0  0  0  0
  -24.2789  -15.0526    9.0220 C   0  0  0  0  0  0  0  0  0  0  0  0
  -23.5940  -16.2309    9.2701 C   0  0  0  0  0  0  0  0  0  0  0  0
  -23.3148  -16.6177   10.5385 N   0  0  0  0  0  0  0  0  0  0  0  0
  -23.1997  -17.0045    8.2354 N   0  0  0  0  0  0  0  0  0  0  0  0
  -23.4695  -16.6405    6.9627 C   0  0  0  0  0  0  0  0  0  0  0  0
  -24.1395  -15.4915    6.7014 N   0  0  0  0  0  0  0  0  0  0  0  0
  -21.9666  -11.8622    4.2937 O   0  5  0  0  0  0  0  0  0  0  0  0
  -24.3597  -12.3584    2.5370 O   0  0  0  0  0  0  0  0  0  0  0  0
  -25.3163  -10.3312    9.2754 S   0  0  0  0  0  0  0  0  0  0  0  0
  -25.7455  -11.9314    9.7932 C   0  0  0  0  0  0  0  0  0  0  0  0
  -22.2694   -9.3127    4.2026 O   0  0  0  0  0  0  0  0  0  0  0  0
  -26.4318  -11.6462    3.6099 O   0  5  0  0  0  0  0  0  0  0  0  0
  -24.6558  -12.7482    9.7779 N   0  0  0  0  0  0  0  0  0  0  0  0
  -24.2877  -10.8840    4.5682 O   0  0  0  0  0  0  0  0  0  0  0  0
  -25.0850   -9.9212    2.4090 O   0  0  0  0  0  0  0  0  0  0  0  0
  -23.4891  -12.1739    9.3748 C   0  0  1  0  0  0  0  0  0  0  0  0
  -23.6601  -10.7328    9.0454 C   0  0  1  0  0  0  0  0  0  0  0  0
  -22.7411   -9.6422    8.5626 C   0  0  0  0  0  0  0  0  0  0  0  0
  -22.9983   -9.4076    7.0824 C   0  0  0  0  0  0  0  0  0  0  0  0
  -22.5148  -10.5357    6.3636 O   0  0  0  0  0  0  0  0  0  0  0  0
  1 11  1  0  0  0  0
  3 13  1  6  0  0  0
  3 17  2  0  0  0  0
  3 20  1  0  0  0  0
  3 26  1  0  0  0  0
  4 14  1  6  0  0  0
  4 18  1  0  0  0  0
  4 21  2  0  0  0  0
  4 20  1  0  0  0  0
  5 19  1  0  0  0  0
  5  7  1  0  0  0  0
  6  7  2  0  0  0  0
  6 12  1  0  0  0  0
  7  8  1  0  0  0  0
  8  9  1  0  0  0  0
  8 10  2  0  0  0  0
 10 11  1  0  0  0  0
 11 12  2  0  0  0  0
 15 23  1  0  0  0  0
 15 16  1  0  0  0  0
 16 19  1  0  0  0  0
 19 22  1  0  0  0  0
 22  2  1  1  0  0  0
 22 23  1  0  0  0  0
 23 24  1  6  0  0  0
 24 25  1  0  0  0  0
 25 26  1  0  0  0  0
M  CHG  2  13  -1  18  -1
M  END
>  <CHROM.1>
-58.89541091,120.79237262,-33.65272885,51.40797523,-75.05339622,-70.18447977
177.04701516,174.33060485,-23.88894744,-12.41424453,6.71674182,-0.60163930
1.53637226,-1.82396341

>  <Name>
ligand

>  <RI>
0

>  <Rbt.Current_Directory>
/home/itssahil/PROJECTS/Mol_Feturizer/New_Systems/rnas/2GDI

>  <Rbt.Executable>
rbdock ($Id: //depot/dev/client3/rdock/2013.1/src/exe/rbdock.cxx#4 $)

>  <Rbt.Library>
libRbt.so (2013.1, Build901 2013/11/27)

>  <Rbt.Parameter_File>
/export/apps/rDock/src/rDock_2013.1_src/data/scripts/dock_solv.prm

>  <Rbt.Receptor>
prm/blind_docking_100.prm

>  <SCORE>
-13.8169

>  <SCORE.INTER>
-12.9623

>  <SCORE.INTER.CONST>
1

>  <SCORE.INTER.POLAR>
0

>  <SCORE.INTER.ROT>
8

>  <SCORE.INTER.SOLV>
25.3267

>  <SCORE.INTER.VDW>
-26.0171

>  <SCORE.INTER.norm>
-0.498549

>  <SCORE.INTRA>
-0.854675

>  <SCORE.INTRA.DIHEDRAL>
-2.20033

>  <SCORE.INTRA.DIHEDRAL.0>
8.13976

>  <SCORE.INTRA.POLAR>
0

>  <SCORE.INTRA.POLAR.0>
0

>  <SCORE.INTRA.REPUL>
0

>  <SCORE.INTRA.REPUL.0>
0

>  <SCORE.INTRA.SOLV>
0.466321

>  <SCORE.INTRA.SOLV.lig_0>
-82.9561

>  <SCORE.INTRA.VDW>
0.0123277

>  <SCORE.INTRA.VDW.0>
-3.29171

>  <SCORE.INTRA.norm>
-0.0328721

>  <SCORE.RESTR>
0

>  <SCORE.RESTR.CAVITY>
0

>  <SCORE.RESTR.norm>
0

>  <SCORE.SYSTEM>
0

>  <SCORE.SYSTEM.CONST>
0

>  <SCORE.SYSTEM.DIHEDRAL>
0

>  <SCORE.SYSTEM.SOLV>
0

>  <SCORE.SYSTEM.norm>
0

>  <SCORE.heavy>
26

>  <SCORE.norm>
-0.531421

>  <RMSD>
10.502

$$$$
ligand
 OpenBabel11021811433D
libRbt.so/2013.1/901 2013/11/27
 26 27  0  0  0  0  0  0  0  0999 V2000
  -24.7826  -12.3487   -0.5555 C   0  0  0  0  0  0  0  0  0  0  0  0
  -25.7597  -10.2406    7.4541 C   0  0  0  0  0  0  0  0  0  0  0  0
  -23.9803  -14.6318   11.0096 P   0  0  1  0  0  0  0  0  0  0  0  0
  -23.6590  -17.5206   11.1102 P   0  0  1  0  0  0  0  0  0  0  0  0
  -26.2728  -11.7879    4.9670 C   0  0  0  0  0  0  0  0  0  0  0  0
  -25.7145  -10.8200    2.6995 C   0  0  0  0  0  0  0  0  0  0  0  0
  -25.8889  -11.9385    3.5047 C   0  0  0  0  0  0  0  0  0  0  0  0
  -25.6925  -13.1932    2.9515 C   0  0  0  0  0  0  0  0  0  0  0  0
  -25.8520  -14.3134    3.6973 N   0  0  0  0  0  0  0  0  0  0  0  0
  -25.3380  -13.3022    1.6527 N   0  0  0  0  0  0  0  0  0  0  0  0
  -25.1761  -12.1995    0.8892 C   0  0  0  0  0  0  0  0  0  0  0  0
  -25.3651  -10.9640    1.4135 N   0  0  0  0  0  0  0  0  0  0  0  0
  -25.4810  -14.5173   11.0667 O   0  5  0  0  0  0  0  0  0  0  0  0
  -25.1030  -17.8927   11.2507 O   0  0  0  0  0  0  0  0  0  0  0  0
  -23.0264  -13.1684    6.7953 S   0  0  0  0  0  0  0  0  0  0  0  0
  -24.2475  -13.0864    5.5643 C   0  0  0  0  0  0  0  0  0  0  0  0
  -23.2201  -14.3705   12.2779 O   0  0  0  0  0  0  0  0  0  0  0  0
  -22.9972  -18.4587   10.1566 O   0  5  0  0  0  0  0  0  0  0  0  0
  -25.1348  -12.0895    5.8354 N   0  0  0  0  0  0  0  0  0  0  0  0
  -23.6066  -16.0760   10.3759 O   0  0  0  0  0  0  0  0  0  0  0  0
  -22.8923  -17.3570   12.3942 O   0  0  0  0  0  0  0  0  0  0  0  0
  -24.9012  -11.3803    6.9738 C   0  0  1  0  0  0  0  0  0  0  0  0
  -23.6824  -11.8516    7.6858 C   0  0  1  0  0  0  0  0  0  0  0  0
  -22.9751  -11.4482    8.9523 C   0  0  0  0  0  0  0  0  0  0  0  0
  -23.6169  -12.1769   10.1225 C   0  0  0  0  0  0  0  0  0  0  0  0
  -23.4438  -13.5746    9.9237 O   0  0  0  0  0  0  0  0  0  0  0  0
  1 11  1  0  0  0  0
  3 13  1  1  0  0  0
  3 17  2  0  0  0  0
  3 20  1  0  0  0  0
  3 26  1  0  0  0  0
  4 14  1  1  0  0  0
  4 18  1  0  0  0  0
  4 21  2  0  0  0  0
  4 20  1  0  0  0  0
  5 19  1  0  0  0  0
  5  7  1  0  0  0  0
  6  7  2  0  0  0  0
  6 12  1  0  0  0  0
  7  8  1  0  0  0  0
  8  9  1  0  0  0  0
  8 10  2  0  0  0  0
 10 11  1  0  0  0  0
 11 12  2  0  0  0  0
 15 23  1  0  0  0  0
 15 16  1  0  0  0  0
 16 19  1  0  0  0  0
 19 22  1  0  0  0  0
 22  2  1  6  0  0  0
 22 23  1  0  0  0  0
 23 24  1  1  0  0  0
 24 25  1  0  0  0  0
 25 26  1  0  0  0  0
M  CHG  2  13  -1  18  -1
M  END
>  <CHROM.1>
-76.80491933,-38.05526030,-106.74659297,73.32867384,-93.03708181,61.90728636
178.45411526,63.97793015,-24.37126920,-13.80627647,7.46685093,2.93798842
-1.40227764,0.23388450

>  <Name>
ligand

>  <RI>
0

>  <Rbt.Current_Directory>
/home/itssahil/PROJECTS/Mol_Feturizer/New_Systems/rnas/2GDI

>  <Rbt.Executable>
rbdock ($Id: //depot/dev/client3/rdock/2013.1/src/exe/rbdock.cxx#4 $)

>  <Rbt.Library>
libRbt.so (2013.1, Build901 2013/11/27)

>  <Rbt.Parameter_File>
/export/apps/rDock/src/rDock_2013.1_src/data/scripts/dock_solv.prm

>  <Rbt.Receptor>
prm/blind_docking_80.prm

>  <SCORE>
-11.6218

>  <SCORE.INTER>
-11.2123

>  <SCORE.INTER.CONST>
1

>  <SCORE.INTER.POLAR>
0

>  <SCORE.INTER.ROT>
8

>  <SCORE.INTER.SOLV>
14.7872

>  <SCORE.INTER.VDW>
-21.3373

>  <SCORE.INTER.norm>
-0.431243

>  <SCORE.INTRA>
-0.409487

>  <SCORE.INTRA.DIHEDRAL>
-2.95998

>  <SCORE.INTRA.DIHEDRAL.0>
8.13976

>  <SCORE.INTRA.POLAR>
0

>  <SCORE.INTRA.POLAR.0>
0

>  <SCORE.INTRA.REPUL>
0

>  <SCORE.INTRA.REPUL.0>
0

>  <SCORE.INTRA.SOLV>
2.09406

>  <SCORE.INTRA.SOLV.lig_0>
-82.9561

>  <SCORE.INTRA.VDW>
0.0234749

>  <SCORE.INTRA.VDW.0>
-3.29171

>  <SCORE.INTRA.norm>
-0.0157495

>  <SCORE.RESTR>
0

>  <SCORE.RESTR.CAVITY>
0

>  <SCORE.RESTR.norm>
0

>  <SCORE.SYSTEM>
0

>  <SCORE.SYSTEM.CONST>
0

>  <SCORE.SYSTEM.DIHEDRAL>
0

>  <SCORE.SYSTEM.SOLV>
0

>  <SCORE.SYSTEM.norm>
0

>  <SCORE.heavy>
26

>  <SCORE.norm>
-0.446993

>  <RMSD>
10.517

$$$$
ligand
 OpenBabel11021811433D
libRbt.so/2013.1/901 2013/11/27
 26 27  0  0  0  0  0  0  0  0999 V2000
  -22.2596  -18.6581    7.7694 C   0  0  0  0  0  0  0  0  0  0  0  0
  -22.3378  -11.4655    9.5612 C   0  0  0  0  0  0  0  0  0  0  0  0
  -22.5941  -10.4175    4.2631 P   0  0  1  0  0  0  0  0  0  0  0  0
  -25.0948  -11.1648    2.9798 P   0  0  1  0  0  0  0  0  0  0  0  0
  -24.1225  -13.7700   10.1506 C   0  0  0  0  0  0  0  0  0  0  0  0
  -23.2807  -15.1099    8.1792 C   0  0  0  0  0  0  0  0  0  0  0  0
  -23.6400  -15.0656    9.5203 C   0  0  0  0  0  0  0  0  0  0  0  0
  -23.5368  -16.2226   10.2750 C   0  0  0  0  0  0  0  0  0  0  0  0
  -23.8768  -16.2285   11.5867 N   0  0  0  0  0  0  0  0  0  0  0  0
  -23.0922  -17.3595    9.6967 N   0  0  0  0  0  0  0  0  0  0  0  0
  -22.7503  -17.3781    8.3898 C   0  0  0  0  0  0  0  0  0  0  0  0
  -22.8460  -16.2556    7.6360 N   0  0  0  0  0  0  0  0  0  0  0  0
  -21.8439  -11.3388    3.3374 O   0  5  0  0  0  0  0  0  0  0  0  0
  -24.4054  -12.2162    2.1657 O   0  0  0  0  0  0  0  0  0  0  0  0
  -25.6763  -11.5385    7.2535 S   0  0  0  0  0  0  0  0  0  0  0  0
  -25.5940  -12.8608    8.3750 C   0  0  0  0  0  0  0  0  0  0  0  0
  -22.4387   -8.9406    4.0408 O   0  0  0  0  0  0  0  0  0  0  0  0
  -26.3524  -11.7285    3.5525 O   0  5  0  0  0  0  0  0  0  0  0  0
  -24.4572  -12.7859    9.1211 N   0  0  0  0  0  0  0  0  0  0  0  0
  -24.1531  -10.8606    4.2641 O   0  0  0  0  0  0  0  0  0  0  0  0
  -25.3058   -9.8387    2.3016 O   0  0  0  0  0  0  0  0  0  0  0  0
  -23.6391  -11.7315    8.8524 C   0  0  1  0  0  0  0  0  0  0  0  0
  -24.1893  -10.8557    7.7825 C   0  0  1  0  0  0  0  0  0  0  0  0
  -23.7235   -9.5946    7.1045 C   0  0  0  0  0  0  0  0  0  0  0  0
  -22.2435   -9.7317    6.7834 C   0  0  0  0  0  0  0  0  0  0  0  0
  -22.0996  -10.7130    5.7639 O   0  0  0  0  0  0  0  0  0  0  0  0
  1 11  1  0  0  0  0
  3 13  1  6  0  0  0
  3 17  2  0  0  0  0
  3 20  1  0  0  0  0
  3 26  1  0  0  0  0
  4 14  1  6  0  0  0
  4 18  1  0  0  0  0
  4 21  2  0  0  0  0
  4 20  1  0  0  0  0
  5 19  1  0  0  0  0
  5  7  1  0  0  0  0
  6  7  2  0  0  0  0
  6 12  1  0  0  0  0
  7  8  1  0  0  0  0
  8  9  1  0  0  0  0
  8 10  2  0  0  0  0
 10 11  1  0  0  0  0
 11 12  2  0  0  0  0
 15 23  1  0  0  0  0
 15 16  1  0  0  0  0
 16 19  1  0  0  0  0
 19 22  1  0  0  0  0
 22  2  1  1  0  0  0
 22 23  1  0  0  0  0
 23 24  1  6  0  0  0
 24 25  1  0  0  0  0
 25 26  1  0  0  0  0
M  CHG  2  13  -1  18  -1
M  END
>  <CHROM.1>
-48.14044000,75.26913171,14.34323677,55.33517624,-134.87006285,68.90748283
70.07020122,157.50714108,-23.76828106,-12.51549055,6.53046695,0.05974162
1.49505245,-2.44539061

>  <Name>
ligand

>  <RI>
0

>  <Rbt.Current_Directory>
/home/itssahil/PROJECTS/Mol_Feturizer/New_Systems/rnas/2GDI

>  <Rbt.Executable>
rbdock ($Id: //depot/dev/client3/rdock/2013.1/src/exe/rbdock.cxx#4 $)

>  <Rbt.Library>
libRbt.so (2013.1, Build901 2013/11/27)

>  <Rbt.Parameter_File>
/export/apps/rDock/src/rDock_2013.1_src/data/scripts/dock_solv.prm

>  <Rbt.Receptor>
prm/blind_docking_60.prm

>  <SCORE>
-13.5814

>  <SCORE.INTER>
-13.1392

>  <SCORE.INTER.CONST>
1

>  <SCORE.INTER.POLAR>
0

>  <SCORE.INTER.ROT>
8

>  <SCORE.INTER.SOLV>
27.2863

>  <SCORE.INTER.VDW>
-26.7882

>  <SCORE.INTER.norm>
-0.505353

>  <SCORE.INTRA>
-0.442181

>  <SCORE.INTRA.DIHEDRAL>
-1.12181

>  <SCORE.INTRA.DIHEDRAL.0>
8.13976

>  <SCORE.INTRA.POLAR>
0

>  <SCORE.INTRA.POLAR.0>
0

>  <SCORE.INTRA.REPUL>
0

>  <SCORE.INTRA.REPUL.0>
0

>  <SCORE.INTRA.SOLV>
0.86491

>  <SCORE.INTRA.SOLV.lig_0>
-82.9561

>  <SCORE.INTRA.VDW>
-0.313729

>  <SCORE.INTRA.VDW.0>
-3.29171

>  <SCORE.INTRA.norm>
-0.017007

>  <SCORE.RESTR>
0

>  <SCORE.RESTR.CAVITY>
0

>  <SCORE.RESTR.norm>
0

>  <SCORE.SYSTEM>
0

>  <SCORE.SYSTEM.CONST>
0

>  <SCORE.SYSTEM.DIHEDRAL>
0

>  <SCORE.SYSTEM.SOLV>
0

>  <SCORE.SYSTEM.norm>
0

>  <SCORE.heavy>
26

>  <SCORE.norm>
-0.52236

>  <RMSD>
10.522

$$$$
ligand
 OpenBabel11021811433D
libRbt.so/2013.1/901 2013/11/27
 26 27  0  0  0  0  0  0  0  0999 V2000
  -22.4780  -18.5949    8.3718 C   0  0  0  0  0  0  0  0  0  0  0  0
  -22.0916  -12.7159    9.4798 C   0  0  0  0  0  0  0  0  0  0  0  0
  -22.7386  -12.6599    4.1131 P   0  0  1  0  0  0  0  0  0  0  0  0
  -24.7931  -11.0404    2.8422 P   0  0  1  0  0  0  0  0  0  0  0  0
  -24.7832  -13.6902   10.2856 C   0  0  0  0  0  0  0  0  0  0  0  0
  -24.2377  -15.3239    8.4353 C   0  0  0  0  0  0  0  0  0  0  0  0
  -24.1823  -14.9920    9.7831 C   0  0  0  0  0  0  0  0  0  0  0  0
  -23.5565  -15.8651   10.6578 C   0  0  0  0  0  0  0  0  0  0  0  0
  -23.4788  -15.5849   11.9813 N   0  0  0  0  0  0  0  0  0  0  0  0
  -23.0172  -17.0103   10.1862 N   0  0  0  0  0  0  0  0  0  0  0  0
  -23.0852  -17.3119    8.8711 C   0  0  0  0  0  0  0  0  0  0  0  0
  -23.6947  -16.4698    8.0012 N   0  0  0  0  0  0  0  0  0  0  0  0
  -22.6869  -14.1534    4.3003 O   0  5  0  0  0  0  0  0  0  0  0  0
  -23.9687   -9.8318    3.1633 O   0  0  0  0  0  0  0  0  0  0  0  0
  -25.1242  -10.8096    7.5702 S   0  0  0  0  0  0  0  0  0  0  0  0
  -25.6752  -12.0216    8.6841 C   0  0  0  0  0  0  0  0  0  0  0  0
  -21.7859  -12.0559    3.1219 O   0  0  0  0  0  0  0  0  0  0  0  0
  -24.4848  -11.4947    1.4544 O   0  5  0  0  0  0  0  0  0  0  0  0
  -24.6188  -12.6267    9.2945 N   0  0  0  0  0  0  0  0  0  0  0  0
  -24.2726  -12.2421    3.7981 O   0  0  0  0  0  0  0  0  0  0  0  0
  -26.2700  -10.9191    3.1018 O   0  0  0  0  0  0  0  0  0  0  0  0
  -23.3859  -12.1818    8.9265 C   0  0  1  0  0  0  0  0  0  0  0  0
  -23.4638  -11.0878    7.9207 C   0  0  1  0  0  0  0  0  0  0  0  0
  -22.4490  -10.2536    7.1850 C   0  0  0  0  0  0  0  0  0  0  0  0
  -22.5467  -10.5644    5.6998 C   0  0  0  0  0  0  0  0  0  0  0  0
  -22.4264  -11.9717    5.5320 O   0  0  0  0  0  0  0  0  0  0  0  0
  1 11  1  0  0  0  0
  3 13  1  1  0  0  0
  3 17  2  0  0  0  0
  3 20  1  0  0  0  0
  3 26  1  0  0  0  0
  4 14  1  1  0  0  0
  4 18  1  0  0  0  0
  4 21  2  0  0  0  0
  4 20  1  0  0  0  0
  5 19  1  0  0  0  0
  5  7  1  0  0  0  0
  6  7  2  0  0  0  0
  6 12  1  0  0  0  0
  7  8  1  0  0  0  0
  8  9  1  0  0  0  0
  8 10  2  0  0  0  0
 10 11  1  0  0  0  0
 11 12  2  0  0  0  0
 15 23  1  0  0  0  0
 15 16  1  0  0  0  0
 16 19  1  0  0  0  0
 19 22  1  0  0  0  0
 22  2  1  1  0  0  0
 22 23  1  0  0  0  0
 23 24  1  6  0  0  0
 24 25  1  0  0  0  0
 25 26  1  0  0  0  0
M  CHG  2  13  -1  18  -1
M  END
>  <CHROM.1>
-146.62557678,116.23913272,-34.89239904,-45.13997412,-63.41746606,-53.63020027
169.39694910,-173.19215061,-23.72143549,-12.93145804,6.58888322,-1.34101491
1.27675947,-1.19273081

>  <Name>
ligand

>  <RI>
0

>  <Rbt.Current_Directory>
/home/itssahil/PROJECTS/Mol_Feturizer/New_Systems/rnas/2GDI

>  <Rbt.Executable>
rbdock ($Id: //depot/dev/client3/rdock/2013.1/src/exe/rbdock.cxx#4 $)

>  <Rbt.Library>
libRbt.so (2013.1, Build901 2013/11/27)

>  <Rbt.Parameter_File>
/export/apps/rDock/src/rDock_2013.1_src/data/scripts/dock_solv.prm

>  <Rbt.Receptor>
prm/blind_docking_60.prm

>  <SCORE>
-14.2479

>  <SCORE.INTER>
-13.7511

>  <SCORE.INTER.CONST>
1

>  <SCORE.INTER.POLAR>
0

>  <SCORE.INTER.ROT>
8

>  <SCORE.INTER.SOLV>
20.0107

>  <SCORE.INTER.VDW>
-24.771

>  <SCORE.INTER.norm>
-0.52889

>  <SCORE.INTRA>
-0.496781

>  <SCORE.INTRA.DIHEDRAL>
-0.302275

>  <SCORE.INTRA.DIHEDRAL.0>
8.13976

>  <SCORE.INTRA.POLAR>
0

>  <SCORE.INTRA.POLAR.0>
0

>  <SCORE.INTRA.REPUL>
0

>  <SCORE.INTRA.REPUL.0>
0

>  <SCORE.INTRA.SOLV>
0.505609

>  <SCORE.INTRA.SOLV.lig_0>
-82.9561

>  <SCORE.INTRA.VDW>
-0.598448

>  <SCORE.INTRA.VDW.0>
-3.29171

>  <SCORE.INTRA.norm>
-0.019107

>  <SCORE.RESTR>
0

>  <SCORE.RESTR.CAVITY>
0

>  <SCORE.RESTR.norm>
0

>  <SCORE.SYSTEM>
0

>  <SCORE.SYSTEM.CONST>
0

>  <SCORE.SYSTEM.DIHEDRAL>
0

>  <SCORE.SYSTEM.SOLV>
0

>  <SCORE.SYSTEM.norm>
0

>  <SCORE.heavy>
26

>  <SCORE.norm>
-0.547997

>  <RMSD>
10.529

$$$$
ligand
 OpenBabel11021811433D
libRbt.so/2013.1/901 2013/11/27
 26 27  0  0  0  0  0  0  0  0999 V2000
  -21.7230  -19.4505    8.7892 C   0  0  0  0  0  0  0  0  0  0  0  0
  -25.5120  -12.0666    7.2644 C   0  0  0  0  0  0  0  0  0  0  0  0
  -23.1960  -10.4492    3.9804 P   0  0  1  0  0  0  0  0  0  0  0  0
  -25.6602  -11.4885    2.8373 P   0  0  1  0  0  0  0  0  0  0  0  0
  -24.8269  -14.6158    8.6337 C   0  0  0  0  0  0  0  0  0  0  0  0
  -23.5415  -16.4768    7.5047 C   0  0  0  0  0  0  0  0  0  0  0  0
  -24.0153  -15.8995    8.6760 C   0  0  0  0  0  0  0  0  0  0  0  0
  -23.7216  -16.5100    9.8843 C   0  0  0  0  0  0  0  0  0  0  0  0
  -24.1629  -15.9846   11.0529 N   0  0  0  0  0  0  0  0  0  0  0  0
  -22.9866  -17.6432    9.8986 N   0  0  0  0  0  0  0  0  0  0  0  0
  -22.5383  -18.1866    8.7458 C   0  0  0  0  0  0  0  0  0  0  0  0
  -22.8171  -17.6034    7.5544 N   0  0  0  0  0  0  0  0  0  0  0  0
  -21.7706  -10.8284    3.6754 O   0  5  0  0  0  0  0  0  0  0  0  0
  -26.5765  -11.2253    3.9926 O   0  0  0  0  0  0  0  0  0  0  0  0
  -21.9956  -11.9055    9.2856 S   0  0  0  0  0  0  0  0  0  0  0  0
  -22.7803  -13.4492    9.4052 C   0  0  0  0  0  0  0  0  0  0  0  0
  -23.6639   -9.0990    3.5193 O   0  0  0  0  0  0  0  0  0  0  0  0
  -25.6066  -10.2799    1.9634 O   0  5  0  0  0  0  0  0  0  0  0  0
  -23.9515  -13.4462    8.7102 N   0  0  0  0  0  0  0  0  0  0  0  0
  -24.1615  -11.6331    3.4389 O   0  0  0  0  0  0  0  0  0  0  0  0
  -25.9176  -12.7546    2.0667 O   0  0  0  0  0  0  0  0  0  0  0  0
  -24.2666  -12.2797    8.0828 C   0  0  1  0  0  0  0  0  0  0  0  0
  -23.2242  -11.2372    8.2851 C   0  0  1  0  0  0  0  0  0  0  0  0
  -23.0566   -9.8089    7.8390 C   0  0  0  0  0  0  0  0  0  0  0  0
  -22.4789   -9.8021    6.4324 C   0  0  0  0  0  0  0  0  0  0  0  0
  -23.3872  -10.4840    5.5762 O   0  0  0  0  0  0  0  0  0  0  0  0
  1 11  1  0  0  0  0
  3 13  1  6  0  0  0
  3 17  2  0  0  0  0
  3 20  1  0  0  0  0
  3 26  1  0  0  0  0
  4 14  1  1  0  0  0
  4 18  1  0  0  0  0
  4 21  2  0  0  0  0
  4 20  1  0  0  0  0
  5 19  1  0  0  0  0
  5  7  1  0  0  0  0
  6  7  2  0  0  0  0
  6 12  1  0  0  0  0
  7  8  1  0  0  0  0
  8  9  1  0  0  0  0
  8 10  2  0  0  0  0
 10 11  1  0  0  0  0
 11 12  2  0  0  0  0
 15 23  1  0  0  0  0
 15 16  1  0  0  0  0
 16 19  1  0  0  0  0
 19 22  1  0  0  0  0
 22  2  1  6  0  0  0
 22 23  1  0  0  0  0
 23 24  1  1  0  0  0
 24 25  1  0  0  0  0
 25 26  1  0  0  0  0
M  CHG  2  13  -1  18  -1
M  END
>  <CHROM.1>
-147.01315385,-32.14078928,-89.39949646,-74.58771626,98.24504011,60.17569796
169.94115379,50.57489668,-23.76325585,-12.89033585,6.47485264,1.14576906
1.15704551,2.75988816

>  <Name>
ligand

>  <RI>
0

>  <Rbt.Current_Directory>
/home/itssahil/PROJECTS/Mol_Feturizer/New_Systems/rnas/2GDI

>  <Rbt.Executable>
rbdock ($Id: //depot/dev/client3/rdock/2013.1/src/exe/rbdock.cxx#4 $)

>  <Rbt.Library>
libRbt.so (2013.1, Build901 2013/11/27)

>  <Rbt.Parameter_File>
/export/apps/rDock/src/rDock_2013.1_src/data/scripts/dock_solv.prm

>  <Rbt.Receptor>
prm/blind_docking_40.prm

>  <SCORE>
-14.0703

>  <SCORE.INTER>
-14.1405

>  <SCORE.INTER.CONST>
1

>  <SCORE.INTER.POLAR>
0

>  <SCORE.INTER.ROT>
8

>  <SCORE.INTER.SOLV>
26.3249

>  <SCORE.INTER.VDW>
-27.1353

>  <SCORE.INTER.norm>
-0.543865

>  <SCORE.INTRA>
0.0702103

>  <SCORE.INTRA.DIHEDRAL>
-0.422814

>  <SCORE.INTRA.DIHEDRAL.0>
8.13976

>  <SCORE.INTRA.POLAR>
0

>  <SCORE.INTRA.POLAR.0>
0

>  <SCORE.INTRA.REPUL>
0

>  <SCORE.INTRA.REPUL.0>
0

>  <SCORE.INTRA.SOLV>
1.575

>  <SCORE.INTRA.SOLV.lig_0>
-82.9561

>  <SCORE.INTRA.VDW>
-0.505884

>  <SCORE.INTRA.VDW.0>
-3.29171

>  <SCORE.INTRA.norm>
0.0027004

>  <SCORE.RESTR>
0

>  <SCORE.RESTR.CAVITY>
0

>  <SCORE.RESTR.norm>
0

>  <SCORE.SYSTEM>
0

>  <SCORE.SYSTEM.CONST>
0

>  <SCORE.SYSTEM.DIHEDRAL>
0

>  <SCORE.SYSTEM.SOLV>
0

>  <SCORE.SYSTEM.norm>
0

>  <SCORE.heavy>
26

>  <SCORE.norm>
-0.541164

>  <RMSD>
10.543

$$$$
ligand
 OpenBabel11021811433D
libRbt.so/2013.1/901 2013/11/27
 26 27  0  0  0  0  0  0  0  0999 V2000
  -25.9687  -11.9798    3.4569 C   0  0  0  0  0  0  0  0  0  0  0  0
  -22.1941  -12.3687   10.0680 C   0  0  0  0  0  0  0  0  0  0  0  0
  -22.8999  -17.0879    8.7179 P   0  0  1  0  0  0  0  0  0  0  0  0
  -22.9521  -16.8023    5.8241 P   0  0  1  0  0  0  0  0  0  0  0  0
  -24.4502  -10.8374    8.8811 C   0  0  0  0  0  0  0  0  0  0  0  0
  -26.1753  -11.3957    7.1197 C   0  0  0  0  0  0  0  0  0  0  0  0
  -24.8482  -11.1494    7.4485 C   0  0  0  0  0  0  0  0  0  0  0  0
  -23.8971  -11.1804    6.4418 C   0  0  0  0  0  0  0  0  0  0  0  0
  -22.5902  -10.9476    6.7143 N   0  0  0  0  0  0  0  0  0  0  0  0
  -24.2762  -11.4463    5.1729 N   0  0  0  0  0  0  0  0  0  0  0  0
  -25.5730  -11.6843    4.8783 C   0  0  0  0  0  0  0  0  0  0  0  0
  -26.5169  -11.6590    5.8507 N   0  0  0  0  0  0  0  0  0  0  0  0
  -24.2645  -17.7251    8.6986 O   0  5  0  0  0  0  0  0  0  0  0  0
  -22.4789  -15.7296    4.8919 O   0  0  0  0  0  0  0  0  0  0  0  0
  -25.8392  -13.8240   11.1034 S   0  0  0  0  0  0  0  0  0  0  0  0
  -25.9294  -12.4386   10.0615 C   0  0  0  0  0  0  0  0  0  0  0  0
  -21.7261  -17.9804    9.0016 O   0  0  0  0  0  0  0  0  0  0  0  0
  -22.0676  -17.9972    5.6926 O   0  5  0  0  0  0  0  0  0  0  0  0
  -24.6811  -11.9939    9.7468 N   0  0  0  0  0  0  0  0  0  0  0  0
  -22.7052  -16.2666    7.3343 O   0  0  0  0  0  0  0  0  0  0  0  0
  -24.4142  -17.1473    5.7443 O   0  0  0  0  0  0  0  0  0  0  0  0
  -23.6473  -12.6939   10.2896 C   0  0  1  0  0  0  0  0  0  0  0  0
  -24.1197  -13.8357   11.1188 C   0  0  1  0  0  0  0  0  0  0  0  0
  -23.4393  -14.9068   11.9291 C   0  0  0  0  0  0  0  0  0  0  0  0
  -23.4600  -16.2046   11.1369 C   0  0  0  0  0  0  0  0  0  0  0  0
  -22.9004  -15.9506    9.8542 O   0  0  0  0  0  0  0  0  0  0  0  0
  1 11  1  0  0  0  0
  3 13  1  1  0  0  0
  3 17  2  0  0  0  0
  3 20  1  0  0  0  0
  3 26  1  0  0  0  0
  4 14  1  6  0  0  0
  4 18  1  0  0  0  0
  4 21  2  0  0  0  0
  4 20  1  0  0  0  0
  5 19  1  0  0  0  0
  5  7  1  0  0  0  0
  6  7  2  0  0  0  0
  6 12  1  0  0  0  0
  7  8  1  0  0  0  0
  8  9  1  0  0  0  0
  8 10  2  0  0  0  0
 10 11  1  0  0  0  0
 11 12  2  0  0  0  0
 15 23  1  0  0  0  0
 15 16  1  0  0  0  0
 16 19  1  0  0  0  0
 19 22  1  0  0  0  0
 22  2  1  6  0  0  0
 22 23  1  0  0  0  0
 23 24  1  1  0  0  0
 24 25  1  0  0  0  0
 25 26  1  0  0  0  0
M  CHG  2  13  -1  18  -1
M  END
>  <CHROM.1>
-50.40655328,-69.12980238,65.65382097,-173.30162911,78.98778016,53.55114668
-174.26122739,45.02213126,-23.92811079,-14.36078018,8.01229983,-2.92218056
-1.20256228,1.61742605

>  <Name>
ligand

>  <RI>
0

>  <Rbt.Current_Directory>
/home/itssahil/PROJECTS/Mol_Feturizer/New_Systems/rnas/2GDI

>  <Rbt.Executable>
rbdock ($Id: //depot/dev/client3/rdock/2013.1/src/exe/rbdock.cxx#4 $)

>  <Rbt.Library>
libRbt.so (2013.1, Build901 2013/11/27)

>  <Rbt.Parameter_File>
/export/apps/rDock/src/rDock_2013.1_src/data/scripts/dock_solv.prm

>  <Rbt.Receptor>
prm/blind_docking_60.prm

>  <SCORE>
-8.50599

>  <SCORE.INTER>
-8.70335

>  <SCORE.INTER.CONST>
1

>  <SCORE.INTER.POLAR>
0

>  <SCORE.INTER.ROT>
8

>  <SCORE.INTER.SOLV>
23.2096

>  <SCORE.INTER.VDW>
-22.4721

>  <SCORE.INTER.norm>
-0.334744

>  <SCORE.INTRA>
0.172308

>  <SCORE.INTRA.DIHEDRAL>
-1.77347

>  <SCORE.INTRA.DIHEDRAL.0>
8.13976

>  <SCORE.INTRA.POLAR>
0

>  <SCORE.INTRA.POLAR.0>
0

>  <SCORE.INTRA.REPUL>
0

>  <SCORE.INTRA.REPUL.0>
0

>  <SCORE.INTRA.SOLV>
3.20485

>  <SCORE.INTRA.SOLV.lig_0>
-82.9561

>  <SCORE.INTRA.VDW>
-0.543383

>  <SCORE.INTRA.VDW.0>
-3.29171

>  <SCORE.INTRA.norm>
0.00662722

>  <SCORE.RESTR>
0.0250492

>  <SCORE.RESTR.CAVITY>
0.0250492

>  <SCORE.RESTR.norm>
0.000963429

>  <SCORE.SYSTEM>
0

>  <SCORE.SYSTEM.CONST>
0

>  <SCORE.SYSTEM.DIHEDRAL>
0

>  <SCORE.SYSTEM.SOLV>
0

>  <SCORE.SYSTEM.norm>
0

>  <SCORE.heavy>
26

>  <SCORE.norm>
-0.327154

>  <RMSD>
10.543

$$$$
ligand
 OpenBabel11021811433D
libRbt.so/2013.1/901 2013/11/27
 26 27  0  0  0  0  0  0  0  0999 V2000
  -23.3842  -17.9817   10.3865 C   0  0  0  0  0  0  0  0  0  0  0  0
  -25.8446  -11.2738    6.6503 C   0  0  0  0  0  0  0  0  0  0  0  0
  -23.5449  -12.3776    3.0831 P   0  0  1  0  0  0  0  0  0  0  0  0
  -23.4900  -14.3950    5.1773 P   0  0  1  0  0  0  0  0  0  0  0  0
  -25.3912  -12.7273    9.2046 C   0  0  0  0  0  0  0  0  0  0  0  0
  -24.6872  -15.0533    8.5085 C   0  0  0  0  0  0  0  0  0  0  0  0
  -24.8702  -14.1192    9.5203 C   0  0  0  0  0  0  0  0  0  0  0  0
  -24.5556  -14.4775   10.8209 C   0  0  0  0  0  0  0  0  0  0  0  0
  -24.7186  -13.6007   11.8413 N   0  0  0  0  0  0  0  0  0  0  0  0
  -24.0809  -15.7161   11.0760 N   0  0  0  0  0  0  0  0  0  0  0  0
  -23.9130  -16.6078   10.0752 C   0  0  0  0  0  0  0  0  0  0  0  0
  -24.2166  -16.2748    8.7968 N   0  0  0  0  0  0  0  0  0  0  0  0
  -22.5261  -11.8787    2.0923 O   0  5  0  0  0  0  0  0  0  0  0  0
  -23.2102  -13.4876    6.3357 O   0  0  0  0  0  0  0  0  0  0  0  0
  -22.1188  -10.7273    8.1659 S   0  0  0  0  0  0  0  0  0  0  0  0
  -23.1094  -11.7603    9.1481 C   0  0  0  0  0  0  0  0  0  0  0  0
  -24.9273  -12.6581    2.5684 O   0  0  0  0  0  0  0  0  0  0  0  0
  -24.9643  -14.4832    4.9632 O   0  5  0  0  0  0  0  0  0  0  0  0
  -24.3444  -11.9083    8.5934 N   0  0  0  0  0  0  0  0  0  0  0  0
  -22.9199  -13.6627    3.8478 O   0  0  0  0  0  0  0  0  0  0  0  0
  -22.8251  -15.7438    5.2207 O   0  0  0  0  0  0  0  0  0  0  0  0
  -24.5534  -11.2434    7.4240 C   0  0  1  0  0  0  0  0  0  0  0  0
  -23.3466  -10.4914    6.9852 C   0  0  1  0  0  0  0  0  0  0  0  0
  -23.0197   -9.6096    5.8093 C   0  0  0  0  0  0  0  0  0  0  0  0
  -22.5822  -10.4881    4.6478 C   0  0  0  0  0  0  0  0  0  0  0  0
  -23.6979  -11.2687    4.2369 O   0  0  0  0  0  0  0  0  0  0  0  0
  1 11  1  0  0  0  0
  3 13  1  6  0  0  0
  3 17  2  0  0  0  0
  3 20  1  0  0  0  0
  3 26  1  0  0  0  0
  4 14  1  1  0  0  0
  4 18  1  0  0  0  0
  4 21  2  0  0  0  0
  4 20  1  0  0  0  0
  5 19  1  0  0  0  0
  5  7  1  0  0  0  0
  6  7  2  0  0  0  0
  6 12  1  0  0  0  0
  7  8  1  0  0  0  0
  8  9  1  0  0  0  0
  8 10  2  0  0  0  0
 10 11  1  0  0  0  0
 11 12  2  0  0  0  0
 15 23  1  0  0  0  0
 15 16  1  0  0  0  0
 16 19  1  0  0  0  0
 19 22  1  0  0  0  0
 22  2  1  6  0  0  0
 22 23  1  0  0  0  0
 23 24  1  1  0  0  0
 24 25  1  0  0  0  0
 25 26  1  0  0  0  0
M  CHG  2  13  -1  18  -1
M  END
>  <CHROM.1>
167.93768310,-51.77417257,-75.39427531,-72.86705662,96.27101915,65.98797931
-176.06507575,-33.74722189,-23.75797891,-13.13967486,6.77299876,2.76782868
1.45478051,0.82226084

>  <Name>
ligand

>  <RI>
0

>  <Rbt.Current_Directory>
/home/itssahil/PROJECTS/Mol_Feturizer/New_Systems/rnas/2GDI

>  <Rbt.Executable>
rbdock ($Id: //depot/dev/client3/rdock/2013.1/src/exe/rbdock.cxx#4 $)

>  <Rbt.Library>
libRbt.so (2013.1, Build901 2013/11/27)

>  <Rbt.Parameter_File>
/export/apps/rDock/src/rDock_2013.1_src/data/scripts/dock_solv.prm

>  <Rbt.Receptor>
prm/blind_docking_100.prm

>  <SCORE>
-13.9214

>  <SCORE.INTER>
-10.5484

>  <SCORE.INTER.CONST>
1

>  <SCORE.INTER.POLAR>
0

>  <SCORE.INTER.ROT>
8

>  <SCORE.INTER.SOLV>
14.4258

>  <SCORE.INTER.VDW>
-20.7742

>  <SCORE.INTER.norm>
-0.405707

>  <SCORE.INTRA>
-3.37307

>  <SCORE.INTRA.DIHEDRAL>
-1.89703

>  <SCORE.INTRA.DIHEDRAL.0>
8.13976

>  <SCORE.INTRA.POLAR>
0

>  <SCORE.INTRA.POLAR.0>
0

>  <SCORE.INTRA.REPUL>
0

>  <SCORE.INTRA.REPUL.0>
0

>  <SCORE.INTRA.SOLV>
1.68912

>  <SCORE.INTRA.SOLV.lig_0>
-82.9561

>  <SCORE.INTRA.VDW>
-3.26911

>  <SCORE.INTRA.VDW.0>
-3.29171

>  <SCORE.INTRA.norm>
-0.129733

>  <SCORE.RESTR>
0

>  <SCORE.RESTR.CAVITY>
0

>  <SCORE.RESTR.norm>
0

>  <SCORE.SYSTEM>
0

>  <SCORE.SYSTEM.CONST>
0

>  <SCORE.SYSTEM.DIHEDRAL>
0

>  <SCORE.SYSTEM.SOLV>
0

>  <SCORE.SYSTEM.norm>
0

>  <SCORE.heavy>
26

>  <SCORE.norm>
-0.53544

>  <RMSD>
10.546

$$$$
ligand
 OpenBabel11021811433D
libRbt.so/2013.1/901 2013/11/27
 26 27  0  0  0  0  0  0  0  0999 V2000
  -29.3696  -14.4385   -7.6872 C   0  0  0  0  0  0  0  0  0  0  0  0
  -23.4696  -11.7937   -2.3190 C   0  0  0  0  0  0  0  0  0  0  0  0
  -25.8901  -12.0555    4.4511 P   0  0  1  0  0  0  0  0  0  0  0  0
  -24.9083  -11.4032    7.1100 P   0  0  1  0  0  0  0  0  0  0  0  0
  -24.9470  -13.6619   -4.0995 C   0  0  0  0  0  0  0  0  0  0  0  0
  -27.2888  -13.1412   -4.8965 C   0  0  0  0  0  0  0  0  0  0  0  0
  -26.1189  -13.8759   -5.0426 C   0  0  0  0  0  0  0  0  0  0  0  0
  -26.0368  -14.7977   -6.0733 C   0  0  0  0  0  0  0  0  0  0  0  0
  -24.9166  -15.5383   -6.2548 N   0  0  0  0  0  0  0  0  0  0  0  0
  -27.0862  -14.9611   -6.9080 N   0  0  0  0  0  0  0  0  0  0  0  0
  -28.2143  -14.2359   -6.7446 C   0  0  0  0  0  0  0  0  0  0  0  0
  -28.3124  -13.3303   -5.7408 N   0  0  0  0  0  0  0  0  0  0  0  0
  -25.7587  -13.5551    4.5010 O   0  5  0  0  0  0  0  0  0  0  0  0
  -25.2614  -12.7916    7.5472 O   0  0  0  0  0  0  0  0  0  0  0  0
  -26.8126  -13.3329   -0.6068 S   0  0  0  0  0  0  0  0  0  0  0  0
  -26.5498  -13.9055   -2.2243 C   0  0  0  0  0  0  0  0  0  0  0  0
  -27.2623  -11.4770    4.6437 O   0  0  0  0  0  0  0  0  0  0  0  0
  -23.5240  -11.0790    7.5636 O   0  5  0  0  0  0  0  0  0  0  0  0
  -25.4179  -13.3586   -2.7480 N   0  0  0  0  0  0  0  0  0  0  0  0
  -24.8221  -11.4191    5.4910 O   0  0  0  0  0  0  0  0  0  0  0  0
  -25.9028  -10.3294    7.4581 O   0  0  0  0  0  0  0  0  0  0  0  0
  -24.7405  -12.5030   -1.9341 C   0  0  1  0  0  0  0  0  0  0  0  0
  -25.3942  -12.3606   -0.6049 C   0  0  1  0  0  0  0  0  0  0  0  0
  -25.0938  -11.5723    0.6422 C   0  0  0  0  0  0  0  0  0  0  0  0
  -25.6468  -12.3268    1.8411 C   0  0  0  0  0  0  0  0  0  0  0  0
  -25.3787  -11.5612    3.0095 O   0  0  0  0  0  0  0  0  0  0  0  0
  1 11  1  0  0  0  0
  3 13  1  1  0  0  0
  3 17  2  0  0  0  0
  3 20  1  0  0  0  0
  3 26  1  0  0  0  0
  4 14  1  1  0  0  0
  4 18  1  0  0  0  0
  4 21  2  0  0  0  0
  4 20  1  0  0  0  0
  5 19  1  0  0  0  0
  5  7  1  0  0  0  0
  6  7  2  0  0  0  0
  6 12  1  0  0  0  0
  7  8  1  0  0  0  0
  8  9  1  0  0  0  0
  8 10  2  0  0  0  0
 10 11  1  0  0  0  0
 11 12  2  0  0  0  0
 15 23  1  0  0  0  0
 15 16  1  0  0  0  0
 16 19  1  0  0  0  0
 19 22  1  0  0  0  0
 22  2  1  1  0  0  0
 22 23  1  0  0  0  0
 23 24  1  6  0  0  0
 24 25  1  0  0  0  0
 25 26  1  0  0  0  0
M  CHG  2  13  -1  18  -1
M  END
>  <CHROM.1>
-73.89202855,34.34229571,35.05534061,47.50121871,30.01594474,-178.95301770
177.51285053,37.37630414,-25.89479196,-12.74468655,0.41870377,1.70314696
-0.11942996,-1.76348739

>  <Name>
ligand

>  <RI>
0

>  <Rbt.Current_Directory>
/home/itssahil/PROJECTS/Mol_Feturizer/New_Systems/rnas/2GDI

>  <Rbt.Executable>
rbdock ($Id: //depot/dev/client3/rdock/2013.1/src/exe/rbdock.cxx#4 $)

>  <Rbt.Library>
libRbt.so (2013.1, Build901 2013/11/27)

>  <Rbt.Parameter_File>
/export/apps/rDock/src/rDock_2013.1_src/data/scripts/dock_solv.prm

>  <Rbt.Receptor>
prm/blind_docking_40.prm

>  <SCORE>
-12.0058

>  <SCORE.INTER>
-13.9182

>  <SCORE.INTER.CONST>
1

>  <SCORE.INTER.POLAR>
0

>  <SCORE.INTER.ROT>
8

>  <SCORE.INTER.SOLV>
16.5925

>  <SCORE.INTER.VDW>
-23.743

>  <SCORE.INTER.norm>
-0.535317

>  <SCORE.INTRA>
1.91248

>  <SCORE.INTRA.DIHEDRAL>
-1.84236

>  <SCORE.INTRA.DIHEDRAL.0>
8.13976

>  <SCORE.INTRA.POLAR>
0

>  <SCORE.INTRA.POLAR.0>
0

>  <SCORE.INTRA.REPUL>
0

>  <SCORE.INTRA.REPUL.0>
0

>  <SCORE.INTRA.SOLV>
0.00557015

>  <SCORE.INTRA.SOLV.lig_0>
-82.9561

>  <SCORE.INTRA.VDW>
2.83087

>  <SCORE.INTRA.VDW.0>
-3.29171

>  <SCORE.INTRA.norm>
0.0735569

>  <SCORE.RESTR>
0

>  <SCORE.RESTR.CAVITY>
0

>  <SCORE.RESTR.norm>
0

>  <SCORE.SYSTEM>
0

>  <SCORE.SYSTEM.CONST>
0

>  <SCORE.SYSTEM.DIHEDRAL>
0

>  <SCORE.SYSTEM.SOLV>
0

>  <SCORE.SYSTEM.norm>
0

>  <SCORE.heavy>
26

>  <SCORE.norm>
-0.46176

>  <RMSD>
10.546

$$$$
ligand
 OpenBabel11021811433D
libRbt.so/2013.1/901 2013/11/27
 26 27  0  0  0  0  0  0  0  0999 V2000
  -25.2226  -10.9526    2.1113 C   0  0  0  0  0  0  0  0  0  0  0  0
  -22.6526  -13.3835    7.9012 C   0  0  0  0  0  0  0  0  0  0  0  0
  -23.9773  -17.5045   10.7581 P   0  0  1  0  0  0  0  0  0  0  0  0
  -21.9957  -19.6019   10.3933 P   0  0  1  0  0  0  0  0  0  0  0  0
  -23.0728  -10.4791    7.4205 C   0  0  0  0  0  0  0  0  0  0  0  0
  -24.6582  -11.5068    5.7410 C   0  0  0  0  0  0  0  0  0  0  0  0
  -23.6328  -10.6102    6.0142 C   0  0  0  0  0  0  0  0  0  0  0  0
  -23.1404   -9.8285    4.9821 C   0  0  0  0  0  0  0  0  0  0  0  0
  -22.1400   -8.9408    5.2000 N   0  0  0  0  0  0  0  0  0  0  0  0
  -23.6632   -9.9524    3.7427 N   0  0  0  0  0  0  0  0  0  0  0  0
  -24.6590  -10.8328    3.5013 C   0  0  0  0  0  0  0  0  0  0  0  0
  -25.1522  -11.6065    4.4991 N   0  0  0  0  0  0  0  0  0  0  0  0
  -24.1448  -17.1644    9.3005 O   0  5  0  0  0  0  0  0  0  0  0  0
  -23.1265  -20.5726   10.5438 O   0  0  0  0  0  0  0  0  0  0  0  0
  -25.6560  -11.8078   10.1314 S   0  0  0  0  0  0  0  0  0  0  0  0
  -24.8892  -10.6415    9.0995 C   0  0  0  0  0  0  0  0  0  0  0  0
  -25.0545  -18.3291   11.4019 O   0  0  0  0  0  0  0  0  0  0  0  0
  -21.7338  -19.3688    8.9427 O   0  5  0  0  0  0  0  0  0  0  0  0
  -23.8926  -11.2235    8.3765 N   0  0  0  0  0  0  0  0  0  0  0  0
  -22.5141  -18.1728   10.9570 O   0  0  0  0  0  0  0  0  0  0  0  0
  -20.7459  -19.9202   11.1680 O   0  0  0  0  0  0  0  0  0  0  0  0
  -23.6990  -12.5532    8.5956 C   0  0  1  0  0  0  0  0  0  0  0  0
  -24.6573  -13.1004    9.5939 C   0  0  1  0  0  0  0  0  0  0  0  0
  -24.8924  -14.4586   10.1999 C   0  0  0  0  0  0  0  0  0  0  0  0
  -23.6265  -14.8975   10.9188 C   0  0  0  0  0  0  0  0  0  0  0  0
  -23.8961  -16.1265   11.5821 O   0  0  0  0  0  0  0  0  0  0  0  0
  1 11  1  0  0  0  0
  3 13  1  6  0  0  0
  3 17  2  0  0  0  0
  3 20  1  0  0  0  0
  3 26  1  0  0  0  0
  4 14  1  1  0  0  0
  4 18  1  0  0  0  0
  4 21  2  0  0  0  0
  4 20  1  0  0  0  0
  5 19  1  0  0  0  0
  5  7  1  0  0  0  0
  6  7  2  0  0  0  0
  6 12  1  0  0  0  0
  7  8  1  0  0  0  0
  8  9  1  0  0  0  0
  8 10  2  0  0  0  0
 10 11  1  0  0  0  0
 11 12  2  0  0  0  0
 15 23  1  0  0  0  0
 15 16  1  0  0  0  0
 16 19  1  0  0  0  0
 19 22  1  0  0  0  0
 22  2  1  6  0  0  0
 22 23  1  0  0  0  0
 23 24  1  1  0  0  0
 24 25  1  0  0  0  0
 25 26  1  0  0  0  0
M  CHG  2  13  -1  18  -1
M  END
>  <CHROM.1>
-67.17869887,-94.90748115,-9.17956240,-39.83679091,-118.79247591,175.10941952
76.07742174,-16.77906591,-23.69891540,-14.49130009,8.58217516,-1.88297948
-1.14138645,2.28989709

>  <Name>
ligand

>  <RI>
0

>  <Rbt.Current_Directory>
/home/itssahil/PROJECTS/Mol_Feturizer/New_Systems/rnas/2GDI

>  <Rbt.Executable>
rbdock ($Id: //depot/dev/client3/rdock/2013.1/src/exe/rbdock.cxx#4 $)

>  <Rbt.Library>
libRbt.so (2013.1, Build901 2013/11/27)

>  <Rbt.Parameter_File>
/export/apps/rDock/src/rDock_2013.1_src/data/scripts/dock_solv.prm

>  <Rbt.Receptor>
prm/blind_docking_80.prm

>  <SCORE>
-11.7057

>  <SCORE.INTER>
-12.8597

>  <SCORE.INTER.CONST>
1

>  <SCORE.INTER.POLAR>
0

>  <SCORE.INTER.ROT>
8

>  <SCORE.INTER.SOLV>
24.6167

>  <SCORE.INTER.VDW>
-25.712

>  <SCORE.INTER.norm>
-0.494602

>  <SCORE.INTRA>
1.15397

>  <SCORE.INTRA.DIHEDRAL>
-0.0212378

>  <SCORE.INTRA.DIHEDRAL.0>
8.13976

>  <SCORE.INTRA.POLAR>
0

>  <SCORE.INTRA.POLAR.0>
0

>  <SCORE.INTRA.REPUL>
0

>  <SCORE.INTRA.REPUL.0>
0

>  <SCORE.INTRA.SOLV>
1.19035

>  <SCORE.INTRA.SOLV.lig_0>
-82.9561

>  <SCORE.INTRA.VDW>
0.569415

>  <SCORE.INTRA.VDW.0>
-3.29171

>  <SCORE.INTRA.norm>
0.0443835

>  <SCORE.RESTR>
0

>  <SCORE.RESTR.CAVITY>
0

>  <SCORE.RESTR.norm>
0

>  <SCORE.SYSTEM>
0

>  <SCORE.SYSTEM.CONST>
0

>  <SCORE.SYSTEM.DIHEDRAL>
0

>  <SCORE.SYSTEM.SOLV>
0

>  <SCORE.SYSTEM.norm>
0

>  <SCORE.heavy>
26

>  <SCORE.norm>
-0.450219

>  <RMSD>
10.557

$$$$
ligand
 OpenBabel11021811433D
libRbt.so/2013.1/901 2013/11/27
 26 27  0  0  0  0  0  0  0  0999 V2000
  -21.8236  -19.3460    8.6454 C   0  0  0  0  0  0  0  0  0  0  0  0
  -25.5590  -11.7649    7.5264 C   0  0  0  0  0  0  0  0  0  0  0  0
  -22.9338   -9.9033    4.1950 P   0  0  1  0  0  0  0  0  0  0  0  0
  -25.1037  -11.0106    2.6062 P   0  0  1  0  0  0  0  0  0  0  0  0
  -24.8155  -14.4389    8.5943 C   0  0  0  0  0  0  0  0  0  0  0  0
  -23.6355  -16.3425    7.4221 C   0  0  0  0  0  0  0  0  0  0  0  0
  -24.0335  -15.7414    8.6095 C   0  0  0  0  0  0  0  0  0  0  0  0
  -23.6917  -16.3461    9.8081 C   0  0  0  0  0  0  0  0  0  0  0  0
  -24.0586  -15.7978   10.9917 N   0  0  0  0  0  0  0  0  0  0  0  0
  -22.9841  -17.4967    9.7975 N   0  0  0  0  0  0  0  0  0  0  0  0
  -22.6098  -18.0630    8.6295 C   0  0  0  0  0  0  0  0  0  0  0  0
  -22.9365  -17.4858    7.4473 N   0  0  0  0  0  0  0  0  0  0  0  0
  -21.8224  -10.6424    3.4972 O   0  5  0  0  0  0  0  0  0  0  0  0
  -25.4786   -9.6728    2.0465 O   0  0  0  0  0  0  0  0  0  0  0  0
  -21.8891  -11.8348    9.2596 S   0  0  0  0  0  0  0  0  0  0  0  0
  -22.6914  -13.3736    9.3001 C   0  0  0  0  0  0  0  0  0  0  0  0
  -23.1172   -8.4524    3.8542 O   0  0  0  0  0  0  0  0  0  0  0  0
  -24.1042  -11.6598    1.7081 O   0  5  0  0  0  0  0  0  0  0  0  0
  -23.9144  -13.2919    8.7064 N   0  0  0  0  0  0  0  0  0  0  0  0
  -24.3054  -10.7426    3.9917 O   0  0  0  0  0  0  0  0  0  0  0  0
  -26.2477  -11.9211    2.9606 O   0  0  0  0  0  0  0  0  0  0  0  0
  -24.2562  -12.0683    8.2171 C   0  0  1  0  0  0  0  0  0  0  0  0
  -23.1810  -11.0615    8.4287 C   0  0  1  0  0  0  0  0  0  0  0  0
  -23.0222   -9.5999    8.1039 C   0  0  0  0  0  0  0  0  0  0  0  0
  -23.5471   -9.3530    6.6983 C   0  0  0  0  0  0  0  0  0  0  0  0
  -22.6592   -9.9748    5.7773 O   0  0  0  0  0  0  0  0  0  0  0  0
  1 11  1  0  0  0  0
  3 13  1  6  0  0  0
  3 17  2  0  0  0  0
  3 20  1  0  0  0  0
  3 26  1  0  0  0  0
  4 14  1  6  0  0  0
  4 18  1  0  0  0  0
  4 21  2  0  0  0  0
  4 20  1  0  0  0  0
  5 19  1  0  0  0  0
  5  7  1  0  0  0  0
  6  7  2  0  0  0  0
  6 12  1  0  0  0  0
  7  8  1  0  0  0  0
  8  9  1  0  0  0  0
  8 10  2  0  0  0  0
 10 11  1  0  0  0  0
 11 12  2  0  0  0  0
 15 23  1  0  0  0  0
 15 16  1  0  0  0  0
 16 19  1  0  0  0  0
 19 22  1  0  0  0  0
 22  2  1  6  0  0  0
 22 23  1  0  0  0  0
 23 24  1  1  0  0  0
 24 25  1  0  0  0  0
 25 26  1  0  0  0  0
M  CHG  2  13  -1  18  -1
M  END
>  <CHROM.1>
-66.20133775,-25.75099886,-93.39053701,-59.57756615,138.66713043,-69.24207397
179.81670554,179.66809540,-23.60544874,-12.59241906,6.46319880,1.17074174
1.28017038,2.78476463

>  <Name>
ligand

>  <RI>
0

>  <Rbt.Current_Directory>
/home/itssahil/PROJECTS/Mol_Feturizer/New_Systems/rnas/2GDI

>  <Rbt.Executable>
rbdock ($Id: //depot/dev/client3/rdock/2013.1/src/exe/rbdock.cxx#4 $)

>  <Rbt.Library>
libRbt.so (2013.1, Build901 2013/11/27)

>  <Rbt.Parameter_File>
/export/apps/rDock/src/rDock_2013.1_src/data/scripts/dock_solv.prm

>  <Rbt.Receptor>
prm/blind_docking_40.prm

>  <SCORE>
-17.3647

>  <SCORE.INTER>
-16.5502

>  <SCORE.INTER.CONST>
1

>  <SCORE.INTER.POLAR>
0

>  <SCORE.INTER.ROT>
8

>  <SCORE.INTER.SOLV>
25.4212

>  <SCORE.INTER.VDW>
-28.4405

>  <SCORE.INTER.norm>
-0.636546

>  <SCORE.INTRA>
-0.81449

>  <SCORE.INTRA.DIHEDRAL>
-3.12966

>  <SCORE.INTRA.DIHEDRAL.0>
8.13976

>  <SCORE.INTRA.POLAR>
0

>  <SCORE.INTRA.POLAR.0>
0

>  <SCORE.INTRA.REPUL>
0

>  <SCORE.INTRA.REPUL.0>
0

>  <SCORE.INTRA.SOLV>
1.45449

>  <SCORE.INTRA.SOLV.lig_0>
-82.9561

>  <SCORE.INTRA.VDW>
0.0230993

>  <SCORE.INTRA.VDW.0>
-3.29171

>  <SCORE.INTRA.norm>
-0.0313265

>  <SCORE.RESTR>
0

>  <SCORE.RESTR.CAVITY>
0

>  <SCORE.RESTR.norm>
0

>  <SCORE.SYSTEM>
0

>  <SCORE.SYSTEM.CONST>
0

>  <SCORE.SYSTEM.DIHEDRAL>
0

>  <SCORE.SYSTEM.SOLV>
0

>  <SCORE.SYSTEM.norm>
0

>  <SCORE.heavy>
26

>  <SCORE.norm>
-0.667872

>  <RMSD>
10.597

$$$$
ligand
 OpenBabel11021811433D
libRbt.so/2013.1/901 2013/11/27
 26 27  0  0  0  0  0  0  0  0999 V2000
  -23.0698  -17.4502    6.0398 C   0  0  0  0  0  0  0  0  0  0  0  0
  -22.0752  -12.7203    9.5331 C   0  0  0  0  0  0  0  0  0  0  0  0
  -22.9429   -9.9354    4.7867 P   0  0  1  0  0  0  0  0  0  0  0  0
  -21.7835  -12.0129    3.1138 P   0  0  1  0  0  0  0  0  0  0  0  0
  -24.7268  -13.8756   10.2242 C   0  0  0  0  0  0  0  0  0  0  0  0
  -24.4667  -14.4827    7.7842 C   0  0  0  0  0  0  0  0  0  0  0  0
  -24.2976  -14.8262    9.1195 C   0  0  0  0  0  0  0  0  0  0  0  0
  -23.7174  -16.0468    9.4238 C   0  0  0  0  0  0  0  0  0  0  0  0
  -23.5330  -16.4259   10.7117 N   0  0  0  0  0  0  0  0  0  0  0  0
  -23.3309  -16.8698    8.4249 N   0  0  0  0  0  0  0  0  0  0  0  0
  -23.5075  -16.5142    7.1336 C   0  0  0  0  0  0  0  0  0  0  0  0
  -24.0744  -15.3242    6.8175 N   0  0  0  0  0  0  0  0  0  0  0  0
  -22.9394   -8.4752    4.4176 O   0  5  0  0  0  0  0  0  0  0  0  0
  -22.3360  -13.0931    3.9920 O   0  0  0  0  0  0  0  0  0  0  0  0
  -25.1264  -10.0702    9.1532 S   0  0  0  0  0  0  0  0  0  0  0  0
  -25.6478  -11.6383    9.6845 C   0  0  0  0  0  0  0  0  0  0  0  0
  -24.2320  -10.6865    4.6166 O   0  0  0  0  0  0  0  0  0  0  0  0
  -22.7597  -11.7125    2.0257 O   0  5  0  0  0  0  0  0  0  0  0  0
  -24.5862  -12.4842    9.7946 N   0  0  0  0  0  0  0  0  0  0  0  0
  -21.7223  -10.6584    4.0028 O   0  0  0  0  0  0  0  0  0  0  0  0
  -20.3863  -12.2308    2.6002 O   0  0  0  0  0  0  0  0  0  0  0  0
  -23.3716  -11.9567    9.4784 C   0  0  1  0  0  0  0  0  0  0  0  0
  -23.4692  -10.5246    9.0862 C   0  0  1  0  0  0  0  0  0  0  0  0
  -22.4786   -9.4775    8.6510 C   0  0  0  0  0  0  0  0  0  0  0  0
  -22.8473   -9.0091    7.2521 C   0  0  0  0  0  0  0  0  0  0  0  0
  -22.5402  -10.0550    6.3384 O   0  0  0  0  0  0  0  0  0  0  0  0
  1 11  1  0  0  0  0
  3 13  1  6  0  0  0
  3 17  2  0  0  0  0
  3 20  1  0  0  0  0
  3 26  1  0  0  0  0
  4 14  1  1  0  0  0
  4 18  1  0  0  0  0
  4 21  2  0  0  0  0
  4 20  1  0  0  0  0
  5 19  1  0  0  0  0
  5  7  1  0  0  0  0
  6  7  2  0  0  0  0
  6 12  1  0  0  0  0
  7  8  1  0  0  0  0
  8  9  1  0  0  0  0
  8 10  2  0  0  0  0
 10 11  1  0  0  0  0
 11 12  2  0  0  0  0
 15 23  1  0  0  0  0
 15 16  1  0  0  0  0
 16 19  1  0  0  0  0
 19 22  1  0  0  0  0
 22  2  1  1  0  0  0
 22 23  1  0  0  0  0
 23 24  1  6  0  0  0
 24 25  1  0  0  0  0
 25 26  1  0  0  0  0
M  CHG  2  13  -1  18  -1
M  END
>  <CHROM.1>
-130.11923619,117.12162116,-31.42525102,-56.38511009,-59.44364501,-71.62547235
174.03845746,29.37246465,-23.24977827,-12.31192415,6.76274738,-2.40288425
1.23273620,-0.13107582

>  <Name>
ligand

>  <RI>
0

>  <Rbt.Current_Directory>
/home/itssahil/PROJECTS/Mol_Feturizer/New_Systems/rnas/2GDI

>  <Rbt.Executable>
rbdock ($Id: //depot/dev/client3/rdock/2013.1/src/exe/rbdock.cxx#4 $)

>  <Rbt.Library>
libRbt.so (2013.1, Build901 2013/11/27)

>  <Rbt.Parameter_File>
/export/apps/rDock/src/rDock_2013.1_src/data/scripts/dock_solv.prm

>  <Rbt.Receptor>
prm/blind_docking_40.prm

>  <SCORE>
-12.0218

>  <SCORE.INTER>
-13.4526

>  <SCORE.INTER.CONST>
1

>  <SCORE.INTER.POLAR>
0

>  <SCORE.INTER.ROT>
8

>  <SCORE.INTER.SOLV>
22.24

>  <SCORE.INTER.VDW>
-25.3151

>  <SCORE.INTER.norm>
-0.517407

>  <SCORE.INTRA>
1.43073

>  <SCORE.INTRA.DIHEDRAL>
1.54471

>  <SCORE.INTRA.DIHEDRAL.0>
8.13976

>  <SCORE.INTRA.POLAR>
0

>  <SCORE.INTRA.POLAR.0>
0

>  <SCORE.INTRA.REPUL>
0

>  <SCORE.INTRA.REPUL.0>
0

>  <SCORE.INTRA.SOLV>
0.735834

>  <SCORE.INTRA.SOLV.lig_0>
-82.9561

>  <SCORE.INTRA.VDW>
0.290453

>  <SCORE.INTRA.VDW.0>
-3.29171

>  <SCORE.INTRA.norm>
0.055028

>  <SCORE.RESTR>
0

>  <SCORE.RESTR.CAVITY>
0

>  <SCORE.RESTR.norm>
0

>  <SCORE.SYSTEM>
0

>  <SCORE.SYSTEM.CONST>
0

>  <SCORE.SYSTEM.DIHEDRAL>
0

>  <SCORE.SYSTEM.SOLV>
0

>  <SCORE.SYSTEM.norm>
0

>  <SCORE.heavy>
26

>  <SCORE.norm>
-0.462379

>  <RMSD>
10.600

$$$$
ligand
 OpenBabel11021811433D
libRbt.so/2013.1/901 2013/11/27
 26 27  0  0  0  0  0  0  0  0999 V2000
  -23.4163  -17.5660   10.6105 C   0  0  0  0  0  0  0  0  0  0  0  0
  -22.7793  -10.6772    9.0677 C   0  0  0  0  0  0  0  0  0  0  0  0
  -22.5449  -13.0910    3.3812 P   0  0  1  0  0  0  0  0  0  0  0  0
  -23.5169  -15.1879    5.1468 P   0  0  1  0  0  0  0  0  0  0  0  0
  -25.2467  -12.1840    9.7637 C   0  0  0  0  0  0  0  0  0  0  0  0
  -23.7112  -14.1239    9.2449 C   0  0  0  0  0  0  0  0  0  0  0  0
  -24.7709  -13.6104    9.9818 C   0  0  0  0  0  0  0  0  0  0  0  0
  -25.3764  -14.4200   10.9287 C   0  0  0  0  0  0  0  0  0  0  0  0
  -26.4143  -13.9636   11.6709 N   0  0  0  0  0  0  0  0  0  0  0  0
  -24.9274  -15.6803   11.1150 N   0  0  0  0  0  0  0  0  0  0  0  0
  -23.8960  -16.1578   10.3847 C   0  0  0  0  0  0  0  0  0  0  0  0
  -23.2924  -15.3800    9.4530 N   0  0  0  0  0  0  0  0  0  0  0  0
  -21.2738  -12.8807    2.6012 O   0  5  0  0  0  0  0  0  0  0  0  0
  -24.8961  -14.8922    4.6427 O   0  0  0  0  0  0  0  0  0  0  0  0
  -25.1977  -11.3533    5.8785 S   0  0  0  0  0  0  0  0  0  0  0  0
  -25.8244  -12.0064    7.3597 C   0  0  0  0  0  0  0  0  0  0  0  0
  -23.8423  -12.8919    2.6519 O   0  0  0  0  0  0  0  0  0  0  0  0
  -23.2734  -16.6590    5.0867 O   0  5  0  0  0  0  0  0  0  0  0  0
  -24.9751  -11.7507    8.3931 N   0  0  0  0  0  0  0  0  0  0  0  0
  -22.4722  -14.5499    4.0836 O   0  0  0  0  0  0  0  0  0  0  0  0
  -23.1607  -14.5916    6.4813 O   0  0  0  0  0  0  0  0  0  0  0  0
  -23.8450  -11.0610    8.0759 C   0  0  1  0  0  0  0  0  0  0  0  0
  -23.7903  -10.7121    6.6304 C   0  0  1  0  0  0  0  0  0  0  0  0
  -22.8062   -9.9823    5.7552 C   0  0  0  0  0  0  0  0  0  0  0  0
  -22.7560  -10.6695    4.3997 C   0  0  0  0  0  0  0  0  0  0  0  0
  -22.5456  -12.0598    4.6145 O   0  0  0  0  0  0  0  0  0  0  0  0
  1 11  1  0  0  0  0
  3 13  1  6  0  0  0
  3 17  2  0  0  0  0
  3 20  1  0  0  0  0
  3 26  1  0  0  0  0
  4 14  1  6  0  0  0
  4 18  1  0  0  0  0
  4 21  2  0  0  0  0
  4 20  1  0  0  0  0
  5 19  1  0  0  0  0
  5  7  1  0  0  0  0
  6  7  2  0  0  0  0
  6 12  1  0  0  0  0
  7  8  1  0  0  0  0
  8  9  1  0  0  0  0
  8 10  2  0  0  0  0
 10 11  1  0  0  0  0
 11 12  2  0  0  0  0
 15 23  1  0  0  0  0
 15 16  1  0  0  0  0
 16 19  1  0  0  0  0
 19 22  1  0  0  0  0
 22  2  1  1  0  0  0
 22 23  1  0  0  0  0
 23 24  1  6  0  0  0
 24 25  1  0  0  0  0
 25 26  1  0  0  0  0
M  CHG  2  13  -1  18  -1
M  END
>  <CHROM.1>
173.30699710,85.39140768,28.07162343,44.04013316,-36.06720099,-51.11547828
175.72455421,72.39203995,-23.80661514,-13.39554578,6.76978180,-2.50101995
1.25066604,-0.39246974

>  <Name>
ligand

>  <RI>
0

>  <Rbt.Current_Directory>
/home/itssahil/PROJECTS/Mol_Feturizer/New_Systems/rnas/2GDI

>  <Rbt.Executable>
rbdock ($Id: //depot/dev/client3/rdock/2013.1/src/exe/rbdock.cxx#4 $)

>  <Rbt.Library>
libRbt.so (2013.1, Build901 2013/11/27)

>  <Rbt.Parameter_File>
/export/apps/rDock/src/rDock_2013.1_src/data/scripts/dock_solv.prm

>  <Rbt.Receptor>
prm/blind_docking_100.prm

>  <SCORE>
-9.23958

>  <SCORE.INTER>
-8.06818

>  <SCORE.INTER.CONST>
1

>  <SCORE.INTER.POLAR>
0

>  <SCORE.INTER.ROT>
8

>  <SCORE.INTER.SOLV>
21.9387

>  <SCORE.INTER.VDW>
-21.625

>  <SCORE.INTER.norm>
-0.310315

>  <SCORE.INTRA>
-1.1714

>  <SCORE.INTRA.DIHEDRAL>
-2.06596

>  <SCORE.INTRA.DIHEDRAL.0>
8.13976

>  <SCORE.INTRA.POLAR>
0

>  <SCORE.INTRA.POLAR.0>
0

>  <SCORE.INTRA.REPUL>
0

>  <SCORE.INTRA.REPUL.0>
0

>  <SCORE.INTRA.SOLV>
0.689951

>  <SCORE.INTRA.SOLV.lig_0>
-82.9561

>  <SCORE.INTRA.VDW>
-0.483401

>  <SCORE.INTRA.VDW.0>
-3.29171

>  <SCORE.INTRA.norm>
-0.045054

>  <SCORE.RESTR>
0

>  <SCORE.RESTR.CAVITY>
0

>  <SCORE.RESTR.norm>
0

>  <SCORE.SYSTEM>
0

>  <SCORE.SYSTEM.CONST>
0

>  <SCORE.SYSTEM.DIHEDRAL>
0

>  <SCORE.SYSTEM.SOLV>
0

>  <SCORE.SYSTEM.norm>
0

>  <SCORE.heavy>
26

>  <SCORE.norm>
-0.355369

>  <RMSD>
10.608

$$$$
ligand
 OpenBabel11021811433D
libRbt.so/2013.1/901 2013/11/27
 26 27  0  0  0  0  0  0  0  0999 V2000
  -24.3290  -17.1275   11.2308 C   0  0  0  0  0  0  0  0  0  0  0  0
  -22.3859   -9.8165    9.1766 C   0  0  0  0  0  0  0  0  0  0  0  0
  -23.2032  -12.3277    3.3574 P   0  0  1  0  0  0  0  0  0  0  0  0
  -24.8134  -14.4973    4.4339 P   0  0  1  0  0  0  0  0  0  0  0  0
  -24.4781  -11.4224   10.5503 C   0  0  0  0  0  0  0  0  0  0  0  0
  -25.5702  -13.6276   11.1289 C   0  0  0  0  0  0  0  0  0  0  0  0
  -24.4342  -12.9292   10.7397 C   0  0  0  0  0  0  0  0  0  0  0  0
  -23.2640  -13.6356   10.5145 C   0  0  0  0  0  0  0  0  0  0  0  0
  -22.1303  -12.9978   10.1347 N   0  0  0  0  0  0  0  0  0  0  0  0
  -23.2521  -14.9767   10.6757 N   0  0  0  0  0  0  0  0  0  0  0  0
  -24.3696  -15.6334   11.0566 C   0  0  0  0  0  0  0  0  0  0  0  0
  -25.5231  -14.9582   11.2823 N   0  0  0  0  0  0  0  0  0  0  0  0
  -21.9756  -13.0896    3.7830 O   0  5  0  0  0  0  0  0  0  0  0  0
  -26.1143  -15.1140    4.0204 O   0  0  0  0  0  0  0  0  0  0  0  0
  -25.4402  -10.8974    6.7311 S   0  0  0  0  0  0  0  0  0  0  0  0
  -25.6333  -11.4720    8.3577 C   0  0  0  0  0  0  0  0  0  0  0  0
  -23.1170  -11.5378    2.0833 O   0  0  0  0  0  0  0  0  0  0  0  0
  -23.7233  -15.5081    4.3026 O   0  5  0  0  0  0  0  0  0  0  0  0
  -24.5832  -11.0810    9.1317 N   0  0  0  0  0  0  0  0  0  0  0  0
  -24.4559  -13.3559    3.3393 O   0  0  0  0  0  0  0  0  0  0  0  0
  -24.8075  -13.8030    5.7685 O   0  0  0  0  0  0  0  0  0  0  0  0
  -23.6245  -10.3458    8.5041 C   0  0  1  0  0  0  0  0  0  0  0  0
  -23.9506  -10.1085    7.0716 C   0  0  1  0  0  0  0  0  0  0  0  0
  -23.2715   -9.3867    5.9381 C   0  0  0  0  0  0  0  0  0  0  0  0
  -22.5772  -10.4109    5.0542 C   0  0  0  0  0  0  0  0  0  0  0  0
  -23.5674  -11.2837    4.5243 O   0  0  0  0  0  0  0  0  0  0  0  0
  1 11  1  0  0  0  0
  3 13  1  1  0  0  0
  3 17  2  0  0  0  0
  3 20  1  0  0  0  0
  3 26  1  0  0  0  0
  4 14  1  6  0  0  0
  4 18  1  0  0  0  0
  4 21  2  0  0  0  0
  4 20  1  0  0  0  0
  5 19  1  0  0  0  0
  5  7  1  0  0  0  0
  6  7  2  0  0  0  0
  6 12  1  0  0  0  0
  7  8  1  0  0  0  0
  8  9  1  0  0  0  0
  8 10  2  0  0  0  0
 10 11  1  0  0  0  0
 11 12  2  0  0  0  0
 15 23  1  0  0  0  0
 15 16  1  0  0  0  0
 16 19  1  0  0  0  0
 19 22  1  0  0  0  0
 22  2  1  1  0  0  0
 22 23  1  0  0  0  0
 23 24  1  6  0  0  0
 24 25  1  0  0  0  0
 25 26  1  0  0  0  0
M  CHG  2  13  -1  18  -1
M  END
>  <CHROM.1>
42.25628184,60.90940765,-100.71649967,176.11183934,-77.86591804,61.62248811
169.66824970,50.52557040,-24.06478671,-12.75011316,6.92844331,1.95851889
1.37233553,1.36708996

>  <Name>
ligand

>  <RI>
0

>  <Rbt.Current_Directory>
/home/itssahil/PROJECTS/Mol_Feturizer/New_Systems/rnas/2GDI

>  <Rbt.Executable>
rbdock ($Id: //depot/dev/client3/rdock/2013.1/src/exe/rbdock.cxx#4 $)

>  <Rbt.Library>
libRbt.so (2013.1, Build901 2013/11/27)

>  <Rbt.Parameter_File>
/export/apps/rDock/src/rDock_2013.1_src/data/scripts/dock_solv.prm

>  <Rbt.Receptor>
prm/blind_docking_60.prm

>  <SCORE>
-8.4399

>  <SCORE.INTER>
-8.5374

>  <SCORE.INTER.CONST>
1

>  <SCORE.INTER.POLAR>
0

>  <SCORE.INTER.ROT>
8

>  <SCORE.INTER.SOLV>
11.8561

>  <SCORE.INTER.VDW>
-18.577

>  <SCORE.INTER.norm>
-0.328362

>  <SCORE.INTRA>
0.0975069

>  <SCORE.INTRA.DIHEDRAL>
-2.01901

>  <SCORE.INTRA.DIHEDRAL.0>
8.13976

>  <SCORE.INTRA.POLAR>
0

>  <SCORE.INTRA.POLAR.0>
0

>  <SCORE.INTRA.REPUL>
0

>  <SCORE.INTRA.REPUL.0>
0

>  <SCORE.INTRA.SOLV>
4.69054

>  <SCORE.INTRA.SOLV.lig_0>
-82.9561

>  <SCORE.INTRA.VDW>
-1.23826

>  <SCORE.INTRA.VDW.0>
-3.29171

>  <SCORE.INTRA.norm>
0.00375026

>  <SCORE.RESTR>
0

>  <SCORE.RESTR.CAVITY>
0

>  <SCORE.RESTR.norm>
0

>  <SCORE.SYSTEM>
0

>  <SCORE.SYSTEM.CONST>
0

>  <SCORE.SYSTEM.DIHEDRAL>
0

>  <SCORE.SYSTEM.SOLV>
0

>  <SCORE.SYSTEM.norm>
0

>  <SCORE.heavy>
26

>  <SCORE.norm>
-0.324611

>  <RMSD>
10.613

$$$$
ligand
 OpenBabel11021811433D
libRbt.so/2013.1/901 2013/11/27
 26 27  0  0  0  0  0  0  0  0999 V2000
  -25.8918  -12.6761    0.0896 C   0  0  0  0  0  0  0  0  0  0  0  0
  -22.6760  -13.2215    7.8992 C   0  0  0  0  0  0  0  0  0  0  0  0
  -25.2539  -13.7607   10.4179 P   0  0  1  0  0  0  0  0  0  0  0  0
  -23.7217  -16.1410   11.0851 P   0  0  1  0  0  0  0  0  0  0  0  0
  -24.3263  -13.8229    5.4996 C   0  0  0  0  0  0  0  0  0  0  0  0
  -24.4206  -12.3047    3.4805 C   0  0  0  0  0  0  0  0  0  0  0  0
  -24.7498  -13.5174    4.0728 C   0  0  0  0  0  0  0  0  0  0  0  0
  -25.4602  -14.4480    3.3323 C   0  0  0  0  0  0  0  0  0  0  0  0
  -25.8051  -15.6442    3.8677 N   0  0  0  0  0  0  0  0  0  0  0  0
  -25.8142  -14.1600    2.0609 N   0  0  0  0  0  0  0  0  0  0  0  0
  -25.4838  -12.9728    1.5073 C   0  0  0  0  0  0  0  0  0  0  0  0
  -24.7899  -12.0501    2.2175 N   0  0  0  0  0  0  0  0  0  0  0  0
  -26.0504  -13.3951    9.1929 O   0  5  0  0  0  0  0  0  0  0  0  0
  -23.1315  -15.3860   12.2362 O   0  0  0  0  0  0  0  0  0  0  0  0
  -25.7841  -10.6574    7.4078 S   0  0  0  0  0  0  0  0  0  0  0  0
  -25.7009  -11.8724    6.1709 C   0  0  0  0  0  0  0  0  0  0  0  0
  -26.0121  -13.9637   11.6980 O   0  0  0  0  0  0  0  0  0  0  0  0
  -24.9015  -16.9224   11.5591 O   0  5  0  0  0  0  0  0  0  0  0  0
  -24.6428  -12.7025    6.3854 N   0  0  0  0  0  0  0  0  0  0  0  0
  -24.3339  -15.0457   10.0583 O   0  0  0  0  0  0  0  0  0  0  0  0
  -22.7599  -16.9691   10.2772 O   0  0  0  0  0  0  0  0  0  0  0  0
  -23.8863  -12.4283    7.4836 C   0  0  1  0  0  0  0  0  0  0  0  0
  -24.4052  -11.2576    8.2417 C   0  0  1  0  0  0  0  0  0  0  0  0
  -23.9783  -10.5330    9.4906 C   0  0  0  0  0  0  0  0  0  0  0  0
  -24.6070  -11.2207   10.6922 C   0  0  0  0  0  0  0  0  0  0  0  0
  -24.1951  -12.5821   10.6903 O   0  0  0  0  0  0  0  0  0  0  0  0
  1 11  1  0  0  0  0
  3 13  1  6  0  0  0
  3 17  2  0  0  0  0
  3 20  1  0  0  0  0
  3 26  1  0  0  0  0
  4 14  1  1  0  0  0
  4 18  1  0  0  0  0
  4 21  2  0  0  0  0
  4 20  1  0  0  0  0
  5 19  1  0  0  0  0
  5  7  1  0  0  0  0
  6  7  2  0  0  0  0
  6 12  1  0  0  0  0
  7  8  1  0  0  0  0
  8  9  1  0  0  0  0
  8 10  2  0  0  0  0
 10 11  1  0  0  0  0
 11 12  2  0  0  0  0
 15 23  1  0  0  0  0
 15 16  1  0  0  0  0
 16 19  1  0  0  0  0
 19 22  1  0  0  0  0
 22  2  1  1  0  0  0
 22 23  1  0  0  0  0
 23 24  1  6  0  0  0
 24 25  1  0  0  0  0
 25 26  1  0  0  0  0
M  CHG  2  13  -1  18  -1
M  END
>  <CHROM.1>
-156.06601546,30.51914052,47.85963763,-46.00166403,94.19841517,57.78570117
-112.34374310,48.48725755,-24.73400173,-13.52076812,7.67617108,-2.37784233
-1.39796435,0.98045945

>  <Name>
ligand

>  <RI>
0

>  <Rbt.Current_Directory>
/home/itssahil/PROJECTS/Mol_Feturizer/New_Systems/rnas/2GDI

>  <Rbt.Executable>
rbdock ($Id: //depot/dev/client3/rdock/2013.1/src/exe/rbdock.cxx#4 $)

>  <Rbt.Library>
libRbt.so (2013.1, Build901 2013/11/27)

>  <Rbt.Parameter_File>
/export/apps/rDock/src/rDock_2013.1_src/data/scripts/dock_solv.prm

>  <Rbt.Receptor>
prm/blind_docking_40.prm

>  <SCORE>
-5.44713

>  <SCORE.INTER>
-8.11956

>  <SCORE.INTER.CONST>
1

>  <SCORE.INTER.POLAR>
0

>  <SCORE.INTER.ROT>
8

>  <SCORE.INTER.SOLV>
22.0601

>  <SCORE.INTER.VDW>
-21.6997

>  <SCORE.INTER.norm>
-0.312291

>  <SCORE.INTRA>
2.67243

>  <SCORE.INTRA.DIHEDRAL>
5.39223

>  <SCORE.INTRA.DIHEDRAL.0>
8.13976

>  <SCORE.INTRA.POLAR>
0

>  <SCORE.INTRA.POLAR.0>
0

>  <SCORE.INTRA.REPUL>
0

>  <SCORE.INTRA.REPUL.0>
0

>  <SCORE.INTRA.SOLV>
3.45588

>  <SCORE.INTRA.SOLV.lig_0>
-82.9561

>  <SCORE.INTRA.VDW>
-1.75163

>  <SCORE.INTRA.VDW.0>
-3.29171

>  <SCORE.INTRA.norm>
0.102786

>  <SCORE.RESTR>
0

>  <SCORE.RESTR.CAVITY>
0

>  <SCORE.RESTR.norm>
0

>  <SCORE.SYSTEM>
0

>  <SCORE.SYSTEM.CONST>
0

>  <SCORE.SYSTEM.DIHEDRAL>
0

>  <SCORE.SYSTEM.SOLV>
0

>  <SCORE.SYSTEM.norm>
0

>  <SCORE.heavy>
26

>  <SCORE.norm>
-0.209505

>  <RMSD>
10.634

$$$$
ligand
 OpenBabel11021811433D
libRbt.so/2013.1/901 2013/11/27
 26 27  0  0  0  0  0  0  0  0999 V2000
  -25.3184  -11.4355    1.2493 C   0  0  0  0  0  0  0  0  0  0  0  0
  -24.2467   -9.8611    9.1286 C   0  0  0  0  0  0  0  0  0  0  0  0
  -23.5596  -14.1892   12.0748 P   0  0  1  0  0  0  0  0  0  0  0  0
  -23.7796  -16.2033    9.9882 P   0  0  1  0  0  0  0  0  0  0  0  0
  -25.6776  -11.3443    6.9848 C   0  0  0  0  0  0  0  0  0  0  0  0
  -26.6614  -11.7746    4.6963 C   0  0  0  0  0  0  0  0  0  0  0  0
  -25.5775  -11.3776    5.4692 C   0  0  0  0  0  0  0  0  0  0  0  0
  -24.4080  -10.9998    4.8301 C   0  0  0  0  0  0  0  0  0  0  0  0
  -23.3240  -10.6062    5.5417 N   0  0  0  0  0  0  0  0  0  0  0  0
  -24.3465  -11.0241    3.4809 N   0  0  0  0  0  0  0  0  0  0  0  0
  -25.4137  -11.4157    2.7509 C   0  0  0  0  0  0  0  0  0  0  0  0
  -26.5656  -11.7897    3.3595 N   0  0  0  0  0  0  0  0  0  0  0  0
  -25.0534  -14.1376   11.8895 O   0  5  0  0  0  0  0  0  0  0  0  0
  -24.5978  -15.2866    9.1317 O   0  0  0  0  0  0  0  0  0  0  0  0
  -22.4693  -13.3772    8.1516 S   0  0  0  0  0  0  0  0  0  0  0  0
  -23.9046  -13.0595    7.2285 C   0  0  0  0  0  0  0  0  0  0  0  0
  -23.0450  -14.4143   13.4674 O   0  0  0  0  0  0  0  0  0  0  0  0
  -22.7316  -16.8578    9.1512 O   0  5  0  0  0  0  0  0  0  0  0  0
  -24.4574  -11.8705    7.5967 N   0  0  0  0  0  0  0  0  0  0  0  0
  -22.9576  -15.2750   11.0328 O   0  0  0  0  0  0  0  0  0  0  0  0
  -24.5512  -17.1838   10.8289 O   0  0  0  0  0  0  0  0  0  0  0  0
  -23.8034  -11.1904    8.5781 C   0  0  1  0  0  0  0  0  0  0  0  0
  -22.5824  -11.9070    9.0363 C   0  0  1  0  0  0  0  0  0  0  0  0
  -21.5170  -11.6305   10.0637 C   0  0  0  0  0  0  0  0  0  0  0  0
  -21.5976  -12.6935   11.1480 C   0  0  0  0  0  0  0  0  0  0  0  0
  -22.9501  -12.7870   11.5783 O   0  0  0  0  0  0  0  0  0  0  0  0
  1 11  1  0  0  0  0
  3 13  1  6  0  0  0
  3 17  2  0  0  0  0
  3 20  1  0  0  0  0
  3 26  1  0  0  0  0
  4 14  1  6  0  0  0
  4 18  1  0  0  0  0
  4 21  2  0  0  0  0
  4 20  1  0  0  0  0
  5 19  1  0  0  0  0
  5  7  1  0  0  0  0
  6  7  2  0  0  0  0
  6 12  1  0  0  0  0
  7  8  1  0  0  0  0
  8  9  1  0  0  0  0
  8 10  2  0  0  0  0
 10 11  1  0  0  0  0
 11 12  2  0  0  0  0
 15 23  1  0  0  0  0
 15 16  1  0  0  0  0
 16 19  1  0  0  0  0
 19 22  1  0  0  0  0
 22  2  1  6  0  0  0
 22 23  1  0  0  0  0
 23 24  1  1  0  0  0
 24 25  1  0  0  0  0
 25 26  1  0  0  0  0
M  CHG  2  13  -1  18  -1
M  END
>  <CHROM.1>
-1.85515100,-49.93698719,138.23723593,55.87528993,-63.46998160,-49.99182694
147.75460656,-155.85555508,-23.91672345,-13.15393457,8.41793907,2.17154694
-1.17657933,-0.56206643

>  <Name>
ligand

>  <RI>
0

>  <Rbt.Current_Directory>
/home/itssahil/PROJECTS/Mol_Feturizer/New_Systems/rnas/2GDI

>  <Rbt.Executable>
rbdock ($Id: //depot/dev/client3/rdock/2013.1/src/exe/rbdock.cxx#4 $)

>  <Rbt.Library>
libRbt.so (2013.1, Build901 2013/11/27)

>  <Rbt.Parameter_File>
/export/apps/rDock/src/rDock_2013.1_src/data/scripts/dock_solv.prm

>  <Rbt.Receptor>
prm/blind_docking_80.prm

>  <SCORE>
-6.74832

>  <SCORE.INTER>
-9.07059

>  <SCORE.INTER.CONST>
1

>  <SCORE.INTER.POLAR>
0

>  <SCORE.INTER.ROT>
8

>  <SCORE.INTER.SOLV>
17.373

>  <SCORE.INTER.VDW>
-20.7714

>  <SCORE.INTER.norm>
-0.348869

>  <SCORE.INTRA>
2.31792

>  <SCORE.INTRA.DIHEDRAL>
4.41446

>  <SCORE.INTRA.DIHEDRAL.0>
8.13976

>  <SCORE.INTRA.POLAR>
0

>  <SCORE.INTRA.POLAR.0>
0

>  <SCORE.INTRA.REPUL>
0

>  <SCORE.INTRA.REPUL.0>
0

>  <SCORE.INTRA.SOLV>
3.86026

>  <SCORE.INTRA.SOLV.lig_0>
-82.9561

>  <SCORE.INTRA.VDW>
-1.81944

>  <SCORE.INTRA.VDW.0>
-3.29171

>  <SCORE.INTRA.norm>
0.0891509

>  <SCORE.RESTR>
0.00434482

>  <SCORE.RESTR.CAVITY>
0.00434482

>  <SCORE.RESTR.norm>
0.000167108

>  <SCORE.SYSTEM>
0

>  <SCORE.SYSTEM.CONST>
0

>  <SCORE.SYSTEM.DIHEDRAL>
0

>  <SCORE.SYSTEM.SOLV>
0

>  <SCORE.SYSTEM.norm>
0

>  <SCORE.heavy>
26

>  <SCORE.norm>
-0.259551

>  <RMSD>
10.701

$$$$
ligand
 OpenBabel11021811433D
libRbt.so/2013.1/901 2013/11/27
 26 27  0  0  0  0  0  0  0  0999 V2000
  -22.1595  -19.6935    8.9274 C   0  0  0  0  0  0  0  0  0  0  0  0
  -25.7265  -12.6028    9.7972 C   0  0  0  0  0  0  0  0  0  0  0  0
  -25.3102  -12.3425    4.4542 P   0  0  1  0  0  0  0  0  0  0  0  0
  -25.4523  -11.3379    1.7286 P   0  0  1  0  0  0  0  0  0  0  0  0
  -23.4511  -14.3455   10.5901 C   0  0  0  0  0  0  0  0  0  0  0  0
  -23.0174  -16.0811    8.8041 C   0  0  0  0  0  0  0  0  0  0  0  0
  -23.1197  -15.7621   10.1523 C   0  0  0  0  0  0  0  0  0  0  0  0
  -22.9002  -16.7581   11.0897 C   0  0  0  0  0  0  0  0  0  0  0  0
  -22.9899  -16.4950   12.4161 N   0  0  0  0  0  0  0  0  0  0  0  0
  -22.5932  -18.0072   10.6774 N   0  0  0  0  0  0  0  0  0  0  0  0
  -22.5011  -18.2934    9.3603 C   0  0  0  0  0  0  0  0  0  0  0  0
  -22.7138  -17.3316    8.4292 N   0  0  0  0  0  0  0  0  0  0  0  0
  -25.5165  -13.7344    4.9915 O   0  5  0  0  0  0  0  0  0  0  0  0
  -25.6231   -9.9166    2.1693 O   0  0  0  0  0  0  0  0  0  0  0  0
  -22.4407  -12.1087    7.4656 S   0  0  0  0  0  0  0  0  0  0  0  0
  -22.2181  -13.2931    8.7148 C   0  0  0  0  0  0  0  0  0  0  0  0
  -23.9163  -11.7858    4.4991 O   0  0  0  0  0  0  0  0  0  0  0  0
  -23.9988  -11.6330    1.5630 O   0  5  0  0  0  0  0  0  0  0  0  0
  -23.3486  -13.4175    9.4639 N   0  0  0  0  0  0  0  0  0  0  0  0
  -25.9303  -12.2806    2.9581 O   0  0  0  0  0  0  0  0  0  0  0  0
  -26.2728  -11.7633    0.5415 O   0  0  0  0  0  0  0  0  0  0  0  0
  -24.3912  -12.6202    9.1021 C   0  0  1  0  0  0  0  0  0  0  0  0
  -24.0645  -11.7740    7.9224 C   0  0  1  0  0  0  0  0  0  0  0  0
  -24.8124  -10.7406    7.1226 C   0  0  0  0  0  0  0  0  0  0  0  0
  -26.1634  -11.3149    6.7261 C   0  0  0  0  0  0  0  0  0  0  0  0
  -26.2351  -11.3407    5.3058 O   0  0  0  0  0  0  0  0  0  0  0  0
  1 11  1  0  0  0  0
  3 13  1  1  0  0  0
  3 17  2  0  0  0  0
  3 20  1  0  0  0  0
  3 26  1  0  0  0  0
  4 14  1  1  0  0  0
  4 18  1  0  0  0  0
  4 21  2  0  0  0  0
  4 20  1  0  0  0  0
  5 19  1  0  0  0  0
  5  7  1  0  0  0  0
  6  7  2  0  0  0  0
  6 12  1  0  0  0  0
  7  8  1  0  0  0  0
  8  9  1  0  0  0  0
  8 10  2  0  0  0  0
 10 11  1  0  0  0  0
 11 12  2  0  0  0  0
 15 23  1  0  0  0  0
 15 16  1  0  0  0  0
 16 19  1  0  0  0  0
 19 22  1  0  0  0  0
 22  2  1  6  0  0  0
 22 23  1  0  0  0  0
 23 24  1  1  0  0  0
 24 25  1  0  0  0  0
 25 26  1  0  0  0  0
M  CHG  2  13  -1  18  -1
M  END
>  <CHROM.1>
-150.86209278,-55.53160334,-11.85934451,-60.63919642,130.71775719,-119.48550770
68.65299299,53.17463618,-24.21344902,-13.40597089,6.60873530,-0.44192278
1.26286553,-2.08309966

>  <Name>
ligand

>  <RI>
0

>  <Rbt.Current_Directory>
/home/itssahil/PROJECTS/Mol_Feturizer/New_Systems/rnas/2GDI

>  <Rbt.Executable>
rbdock ($Id: //depot/dev/client3/rdock/2013.1/src/exe/rbdock.cxx#4 $)

>  <Rbt.Library>
libRbt.so (2013.1, Build901 2013/11/27)

>  <Rbt.Parameter_File>
/export/apps/rDock/src/rDock_2013.1_src/data/scripts/dock_solv.prm

>  <Rbt.Receptor>
prm/blind_docking_100.prm

>  <SCORE>
-11.7407

>  <SCORE.INTER>
-14.8058

>  <SCORE.INTER.CONST>
1

>  <SCORE.INTER.POLAR>
0

>  <SCORE.INTER.ROT>
8

>  <SCORE.INTER.SOLV>
19.2244

>  <SCORE.INTER.VDW>
-25.212

>  <SCORE.INTER.norm>
-0.569455

>  <SCORE.INTRA>
3.06508

>  <SCORE.INTRA.DIHEDRAL>
4.02147

>  <SCORE.INTRA.DIHEDRAL.0>
8.13976

>  <SCORE.INTRA.POLAR>
0

>  <SCORE.INTRA.POLAR.0>
0

>  <SCORE.INTRA.REPUL>
0

>  <SCORE.INTRA.REPUL.0>
0

>  <SCORE.INTRA.SOLV>
1.80474

>  <SCORE.INTRA.SOLV.lig_0>
-82.9561

>  <SCORE.INTRA.VDW>
0.151978

>  <SCORE.INTRA.VDW.0>
-3.29171

>  <SCORE.INTRA.norm>
0.117888

>  <SCORE.RESTR>
0

>  <SCORE.RESTR.CAVITY>
0

>  <SCORE.RESTR.norm>
0

>  <SCORE.SYSTEM>
0

>  <SCORE.SYSTEM.CONST>
0

>  <SCORE.SYSTEM.DIHEDRAL>
0

>  <SCORE.SYSTEM.SOLV>
0

>  <SCORE.SYSTEM.norm>
0

>  <SCORE.heavy>
26

>  <SCORE.norm>
-0.451567

>  <RMSD>
10.750

$$$$
ligand
 OpenBabel11021811433D
libRbt.so/2013.1/901 2013/11/27
 26 27  0  0  0  0  0  0  0  0999 V2000
  -22.3630  -18.8109    7.8324 C   0  0  0  0  0  0  0  0  0  0  0  0
  -22.6249  -11.1206   10.1351 C   0  0  0  0  0  0  0  0  0  0  0  0
  -22.8714   -9.8857    4.2906 P   0  0  1  0  0  0  0  0  0  0  0  0
  -24.9584  -10.9154    2.5462 P   0  0  1  0  0  0  0  0  0  0  0  0
  -23.6909  -13.8772   10.4645 C   0  0  0  0  0  0  0  0  0  0  0  0
  -23.0237  -15.2025    8.4178 C   0  0  0  0  0  0  0  0  0  0  0  0
  -23.3501  -15.1837    9.7680 C   0  0  0  0  0  0  0  0  0  0  0  0
  -23.3456  -16.3780   10.4698 C   0  0  0  0  0  0  0  0  0  0  0  0
  -23.6584  -16.4098   11.7880 N   0  0  0  0  0  0  0  0  0  0  0  0
  -23.0260  -17.5256    9.8329 N   0  0  0  0  0  0  0  0  0  0  0  0
  -22.7136  -17.5185    8.5185 C   0  0  0  0  0  0  0  0  0  0  0  0
  -22.7140  -16.3593    7.8160 N   0  0  0  0  0  0  0  0  0  0  0  0
  -22.1429  -11.1982    4.1678 O   0  5  0  0  0  0  0  0  0  0  0  0
  -25.8428  -10.2755    1.5206 O   0  0  0  0  0  0  0  0  0  0  0  0
  -25.8211  -11.8979    7.7568 S   0  0  0  0  0  0  0  0  0  0  0  0
  -25.3668  -13.2469    8.7501 C   0  0  0  0  0  0  0  0  0  0  0  0
  -22.0374   -8.6431    4.4140 O   0  0  0  0  0  0  0  0  0  0  0  0
  -24.0961  -11.9391    1.8860 O   0  5  0  0  0  0  0  0  0  0  0  0
  -24.2925  -12.9306    9.5252 N   0  0  0  0  0  0  0  0  0  0  0  0
  -23.9279   -9.7769    3.0663 O   0  0  0  0  0  0  0  0  0  0  0  0
  -25.6475  -11.4391    3.7767 O   0  0  0  0  0  0  0  0  0  0  0  0
  -23.8034  -11.6689    9.3755 C   0  0  1  0  0  0  0  0  0  0  0  0
  -24.5819  -10.8820    8.3809 C   0  0  1  0  0  0  0  0  0  0  0  0
  -24.4908   -9.4816    7.8355 C   0  0  0  0  0  0  0  0  0  0  0  0
  -23.3418   -9.4194    6.8414 C   0  0  0  0  0  0  0  0  0  0  0  0
  -23.7961   -9.9534    5.6039 O   0  0  0  0  0  0  0  0  0  0  0  0
  1 11  1  0  0  0  0
  3 13  1  6  0  0  0
  3 17  2  0  0  0  0
  3 20  1  0  0  0  0
  3 26  1  0  0  0  0
  4 14  1  6  0  0  0
  4 18  1  0  0  0  0
  4 21  2  0  0  0  0
  4 20  1  0  0  0  0
  5 19  1  0  0  0  0
  5  7  1  0  0  0  0
  6  7  2  0  0  0  0
  6 12  1  0  0  0  0
  7  8  1  0  0  0  0
  8  9  1  0  0  0  0
  8 10  2  0  0  0  0
 10 11  1  0  0  0  0
 11 12  2  0  0  0  0
 15 23  1  0  0  0  0
 15 16  1  0  0  0  0
 16 19  1  0  0  0  0
 19 22  1  0  0  0  0
 22  2  1  1  0  0  0
 22 23  1  0  0  0  0
 23 24  1  6  0  0  0
 24 25  1  0  0  0  0
 25 26  1  0  0  0  0
M  CHG  2  13  -1  18  -1
M  END
>  <CHROM.1>
46.23712726,52.90269815,29.62708177,172.48504292,-102.60912226,80.18358941
173.25535589,96.04481873,-23.85380080,-12.41992960,6.65803810,-0.59744049
1.45863206,-1.80121367

>  <Name>
ligand

>  <RI>
0

>  <Rbt.Current_Directory>
/home/itssahil/PROJECTS/Mol_Feturizer/New_Systems/rnas/2GDI

>  <Rbt.Executable>
rbdock ($Id: //depot/dev/client3/rdock/2013.1/src/exe/rbdock.cxx#4 $)

>  <Rbt.Library>
libRbt.so (2013.1, Build901 2013/11/27)

>  <Rbt.Parameter_File>
/export/apps/rDock/src/rDock_2013.1_src/data/scripts/dock_solv.prm

>  <Rbt.Receptor>
prm/blind_docking_40.prm

>  <SCORE>
-15.7997

>  <SCORE.INTER>
-16.1851

>  <SCORE.INTER.CONST>
1

>  <SCORE.INTER.POLAR>
0

>  <SCORE.INTER.ROT>
8

>  <SCORE.INTER.SOLV>
21.8884

>  <SCORE.INTER.VDW>
-27.0195

>  <SCORE.INTER.norm>
-0.622503

>  <SCORE.INTRA>
0.350198

>  <SCORE.INTRA.DIHEDRAL>
-0.283892

>  <SCORE.INTRA.DIHEDRAL.0>
8.13976

>  <SCORE.INTRA.POLAR>
0

>  <SCORE.INTRA.POLAR.0>
0

>  <SCORE.INTRA.REPUL>
0

>  <SCORE.INTRA.REPUL.0>
0

>  <SCORE.INTRA.SOLV>
1.42391

>  <SCORE.INTRA.SOLV.lig_0>
-82.9561

>  <SCORE.INTRA.VDW>
-0.21981

>  <SCORE.INTRA.VDW.0>
-3.29171

>  <SCORE.INTRA.norm>
0.0134692

>  <SCORE.RESTR>
0.0351497

>  <SCORE.RESTR.CAVITY>
0.0351497

>  <SCORE.RESTR.norm>
0.00135191

>  <SCORE.SYSTEM>
0

>  <SCORE.SYSTEM.CONST>
0

>  <SCORE.SYSTEM.DIHEDRAL>
0

>  <SCORE.SYSTEM.SOLV>
0

>  <SCORE.SYSTEM.norm>
0

>  <SCORE.heavy>
26

>  <SCORE.norm>
-0.607682

>  <RMSD>
10.766

$$$$
ligand
 OpenBabel11021811433D
libRbt.so/2013.1/901 2013/11/27
 26 27  0  0  0  0  0  0  0  0999 V2000
  -21.4585  -18.7452    4.8435 C   0  0  0  0  0  0  0  0  0  0  0  0
  -25.6522  -13.9351   10.5890 C   0  0  0  0  0  0  0  0  0  0  0  0
  -23.2019   -9.5751    6.9850 P   0  0  1  0  0  0  0  0  0  0  0  0
  -23.4103  -10.2896    4.1734 P   0  0  1  0  0  0  0  0  0  0  0  0
  -24.0829  -16.0284    9.1754 C   0  0  0  0  0  0  0  0  0  0  0  0
  -22.6591  -17.9045    8.2571 C   0  0  0  0  0  0  0  0  0  0  0  0
  -23.3813  -16.7396    8.0307 C   0  0  0  0  0  0  0  0  0  0  0  0
  -23.4602  -16.2467    6.7385 C   0  0  0  0  0  0  0  0  0  0  0  0
  -24.1521  -15.1131    6.4690 N   0  0  0  0  0  0  0  0  0  0  0  0
  -22.8398  -16.9034    5.7343 N   0  0  0  0  0  0  0  0  0  0  0  0
  -22.1419  -18.0338    5.9798 C   0  0  0  0  0  0  0  0  0  0  0  0
  -22.0532  -18.5298    7.2381 N   0  0  0  0  0  0  0  0  0  0  0  0
  -21.7210   -9.8487    6.9596 O   0  5  0  0  0  0  0  0  0  0  0  0
  -23.3525   -8.8473    3.7734 O   0  0  0  0  0  0  0  0  0  0  0  0
  -22.0892  -12.5915    9.1830 S   0  0  0  0  0  0  0  0  0  0  0  0
  -22.3725  -14.2675    8.8312 C   0  0  0  0  0  0  0  0  0  0  0  0
  -23.6366   -8.1399    7.0626 O   0  0  0  0  0  0  0  0  0  0  0  0
  -22.0306  -10.8585    4.1729 O   0  5  0  0  0  0  0  0  0  0  0  0
  -23.5787  -14.6632    9.3243 N   0  0  0  0  0  0  0  0  0  0  0  0
  -23.8789  -10.3370    5.7248 O   0  0  0  0  0  0  0  0  0  0  0  0
  -24.3938  -11.1437    3.4207 O   0  0  0  0  0  0  0  0  0  0  0  0
  -24.2982  -13.7059    9.9718 C   0  0  1  0  0  0  0  0  0  0  0  0
  -23.5971  -12.3934    9.9855 C   0  0  1  0  0  0  0  0  0  0  0  0
  -23.9137  -11.0313   10.5435 C   0  0  0  0  0  0  0  0  0  0  0  0
  -23.3873   -9.9765    9.5830 C   0  0  0  0  0  0  0  0  0  0  0  0
  -23.8204  -10.3150    8.2712 O   0  0  0  0  0  0  0  0  0  0  0  0
  1 11  1  0  0  0  0
  3 13  1  6  0  0  0
  3 17  2  0  0  0  0
  3 20  1  0  0  0  0
  3 26  1  0  0  0  0
  4 14  1  6  0  0  0
  4 18  1  0  0  0  0
  4 21  2  0  0  0  0
  4 20  1  0  0  0  0
  5 19  1  0  0  0  0
  5  7  1  0  0  0  0
  6  7  2  0  0  0  0
  6 12  1  0  0  0  0
  7  8  1  0  0  0  0
  8  9  1  0  0  0  0
  8 10  2  0  0  0  0
 10 11  1  0  0  0  0
 11 12  2  0  0  0  0
 15 23  1  0  0  0  0
 15 16  1  0  0  0  0
 16 19  1  0  0  0  0
 19 22  1  0  0  0  0
 22  2  1  6  0  0  0
 22 23  1  0  0  0  0
 23 24  1  1  0  0  0
 24 25  1  0  0  0  0
 25 26  1  0  0  0  0
M  CHG  2  13  -1  18  -1
M  END
>  <CHROM.1>
-49.88813323,-20.59671372,120.32602813,-54.41009269,37.51932613,48.76250551
-167.87380716,60.86353409,-23.21258066,-12.83341926,7.19719189,-1.18458842
1.40605272,-0.56405861

>  <Name>
ligand

>  <RI>
0

>  <Rbt.Current_Directory>
/home/itssahil/PROJECTS/Mol_Feturizer/New_Systems/rnas/2GDI

>  <Rbt.Executable>
rbdock ($Id: //depot/dev/client3/rdock/2013.1/src/exe/rbdock.cxx#4 $)

>  <Rbt.Library>
libRbt.so (2013.1, Build901 2013/11/27)

>  <Rbt.Parameter_File>
/export/apps/rDock/src/rDock_2013.1_src/data/scripts/dock_solv.prm

>  <Rbt.Receptor>
prm/blind_docking_40.prm

>  <SCORE>
-12.2428

>  <SCORE.INTER>
-14.014

>  <SCORE.INTER.CONST>
1

>  <SCORE.INTER.POLAR>
0

>  <SCORE.INTER.ROT>
8

>  <SCORE.INTER.SOLV>
19.6743

>  <SCORE.INTER.VDW>
-24.8341

>  <SCORE.INTER.norm>
-0.539

>  <SCORE.INTRA>
1.77114

>  <SCORE.INTRA.DIHEDRAL>
-1.63063

>  <SCORE.INTRA.DIHEDRAL.0>
8.13976

>  <SCORE.INTRA.POLAR>
0

>  <SCORE.INTRA.POLAR.0>
0

>  <SCORE.INTRA.REPUL>
0

>  <SCORE.INTRA.REPUL.0>
0

>  <SCORE.INTRA.SOLV>
2.67134

>  <SCORE.INTRA.SOLV.lig_0>
-82.9561

>  <SCORE.INTRA.VDW>
1.25078

>  <SCORE.INTRA.VDW.0>
-3.29171

>  <SCORE.INTRA.norm>
0.0681207

>  <SCORE.RESTR>
0

>  <SCORE.RESTR.CAVITY>
0

>  <SCORE.RESTR.norm>
0

>  <SCORE.SYSTEM>
0

>  <SCORE.SYSTEM.CONST>
0

>  <SCORE.SYSTEM.DIHEDRAL>
0

>  <SCORE.SYSTEM.SOLV>
0

>  <SCORE.SYSTEM.norm>
0

>  <SCORE.heavy>
26

>  <SCORE.norm>
-0.470879

>  <RMSD>
10.779

$$$$
ligand
 OpenBabel11021811433D
libRbt.so/2013.1/901 2013/11/27
 26 27  0  0  0  0  0  0  0  0999 V2000
  -22.9954  -17.4567    6.0754 C   0  0  0  0  0  0  0  0  0  0  0  0
  -22.1469  -12.9687   10.2896 C   0  0  0  0  0  0  0  0  0  0  0  0
  -22.9493  -10.8220    5.9521 P   0  0  1  0  0  0  0  0  0  0  0  0
  -23.0694  -13.3047    4.4419 P   0  0  1  0  0  0  0  0  0  0  0  0
  -24.7479  -14.3764   10.6003 C   0  0  0  0  0  0  0  0  0  0  0  0
  -24.5194  -14.7480    8.1103 C   0  0  0  0  0  0  0  0  0  0  0  0
  -24.2930  -15.1970    9.4053 C   0  0  0  0  0  0  0  0  0  0  0  0
  -23.6323  -16.4012    9.5855 C   0  0  0  0  0  0  0  0  0  0  0  0
  -23.3899  -16.8805   10.8296 N   0  0  0  0  0  0  0  0  0  0  0  0
  -23.2249  -17.1070    8.5083 N   0  0  0  0  0  0  0  0  0  0  0  0
  -23.4582  -16.6502    7.2585 C   0  0  0  0  0  0  0  0  0  0  0  0
  -24.1041  -15.4746    7.0634 N   0  0  0  0  0  0  0  0  0  0  0  0
  -22.2211   -9.8835    5.0262 O   0  5  0  0  0  0  0  0  0  0  0  0
  -22.4578  -14.6566    4.6459 O   0  0  0  0  0  0  0  0  0  0  0  0
  -25.3565  -10.5315    9.8044 S   0  0  0  0  0  0  0  0  0  0  0  0
  -25.7949  -12.1754   10.1489 C   0  0  0  0  0  0  0  0  0  0  0  0
  -24.4446  -10.7017    6.0196 O   0  0  0  0  0  0  0  0  0  0  0  0
  -24.5362  -13.3806    4.7064 O   0  5  0  0  0  0  0  0  0  0  0  0
  -24.6823  -12.9457   10.3019 N   0  0  0  0  0  0  0  0  0  0  0  0
  -22.4870  -12.3360    5.6043 O   0  0  0  0  0  0  0  0  0  0  0  0
  -22.7460  -12.6243    3.1396 O   0  0  0  0  0  0  0  0  0  0  0  0
  -23.4908  -12.3026   10.1599 C   0  0  1  0  0  0  0  0  0  0  0  0
  -23.6686  -10.8526    9.8767 C   0  0  1  0  0  0  0  0  0  0  0  0
  -22.7309   -9.6997    9.6350 C   0  0  0  0  0  0  0  0  0  0  0  0
  -22.7213   -9.3826    8.1478 C   0  0  0  0  0  0  0  0  0  0  0  0
  -22.3985  -10.5745    7.4420 O   0  0  0  0  0  0  0  0  0  0  0  0
  1 11  1  0  0  0  0
  3 13  1  6  0  0  0
  3 17  2  0  0  0  0
  3 20  1  0  0  0  0
  3 26  1  0  0  0  0
  4 14  1  1  0  0  0
  4 18  1  0  0  0  0
  4 21  2  0  0  0  0
  4 20  1  0  0  0  0
  5 19  1  0  0  0  0
  5  7  1  0  0  0  0
  6  7  2  0  0  0  0
  6 12  1  0  0  0  0
  7  8  1  0  0  0  0
  8  9  1  0  0  0  0
  8 10  2  0  0  0  0
 10 11  1  0  0  0  0
 11 12  2  0  0  0  0
 15 23  1  0  0  0  0
 15 16  1  0  0  0  0
 16 19  1  0  0  0  0
 19 22  1  0  0  0  0
 22  2  1  1  0  0  0
 22 23  1  0  0  0  0
 23 24  1  6  0  0  0
 24 25  1  0  0  0  0
 25 26  1  0  0  0  0
M  CHG  2  13  -1  18  -1
M  END
>  <CHROM.1>
-83.51738552,110.09617011,-32.34923131,-172.26101308,-74.69295957,-54.64154626
150.76965981,71.09379349,-23.54210035,-12.94248466,7.54343488,-2.30044774
1.34884536,0.02472550

>  <Name>
ligand

>  <RI>
0

>  <Rbt.Current_Directory>
/home/itssahil/PROJECTS/Mol_Feturizer/New_Systems/rnas/2GDI

>  <Rbt.Executable>
rbdock ($Id: //depot/dev/client3/rdock/2013.1/src/exe/rbdock.cxx#4 $)

>  <Rbt.Library>
libRbt.so (2013.1, Build901 2013/11/27)

>  <Rbt.Parameter_File>
/export/apps/rDock/src/rDock_2013.1_src/data/scripts/dock_solv.prm

>  <Rbt.Receptor>
prm/blind_docking_100.prm

>  <SCORE>
-12.2377

>  <SCORE.INTER>
-12.9147

>  <SCORE.INTER.CONST>
1

>  <SCORE.INTER.POLAR>
0

>  <SCORE.INTER.ROT>
8

>  <SCORE.INTER.SOLV>
12.8676

>  <SCORE.INTER.VDW>
-21.8323

>  <SCORE.INTER.norm>
-0.496719

>  <SCORE.INTRA>
0.261962

>  <SCORE.INTRA.DIHEDRAL>
1.13667

>  <SCORE.INTRA.DIHEDRAL.0>
8.13976

>  <SCORE.INTRA.POLAR>
0

>  <SCORE.INTRA.POLAR.0>
0

>  <SCORE.INTRA.REPUL>
0

>  <SCORE.INTRA.REPUL.0>
0

>  <SCORE.INTRA.SOLV>
3.56482

>  <SCORE.INTRA.SOLV.lig_0>
-82.9561

>  <SCORE.INTRA.VDW>
-2.08878

>  <SCORE.INTRA.VDW.0>
-3.29171

>  <SCORE.INTRA.norm>
0.0100755

>  <SCORE.RESTR>
0.415005

>  <SCORE.RESTR.CAVITY>
0.415005

>  <SCORE.RESTR.norm>
0.0159617

>  <SCORE.SYSTEM>
0

>  <SCORE.SYSTEM.CONST>
0

>  <SCORE.SYSTEM.DIHEDRAL>
0

>  <SCORE.SYSTEM.SOLV>
0

>  <SCORE.SYSTEM.norm>
0

>  <SCORE.heavy>
26

>  <SCORE.norm>
-0.470681

>  <RMSD>
10.807

$$$$
ligand
 OpenBabel11021811433D
libRbt.so/2013.1/901 2013/11/27
 26 27  0  0  0  0  0  0  0  0999 V2000
  -25.2886  -10.6982    1.9032 C   0  0  0  0  0  0  0  0  0  0  0  0
  -25.2591  -11.1217    9.0289 C   0  0  0  0  0  0  0  0  0  0  0  0
  -22.6766  -15.8272   12.9018 P   0  0  1  0  0  0  0  0  0  0  0  0
  -23.7973  -18.2888   11.8325 P   0  0  1  0  0  0  0  0  0  0  0  0
  -23.0027  -10.5617    7.1748 C   0  0  0  0  0  0  0  0  0  0  0  0
  -24.6495  -11.4629    5.4819 C   0  0  0  0  0  0  0  0  0  0  0  0
  -23.5989  -10.6037    5.7780 C   0  0  0  0  0  0  0  0  0  0  0  0
  -23.1145   -9.7764    4.7780 C   0  0  0  0  0  0  0  0  0  0  0  0
  -22.0903   -8.9224    5.0189 N   0  0  0  0  0  0  0  0  0  0  0  0
  -23.6694   -9.8212    3.5473 N   0  0  0  0  0  0  0  0  0  0  0  0
  -24.6894  -10.6666    3.2832 C   0  0  0  0  0  0  0  0  0  0  0  0
  -25.1753  -11.4840    4.2492 N   0  0  0  0  0  0  0  0  0  0  0  0
  -23.0141  -14.9520   14.0802 O   0  5  0  0  0  0  0  0  0  0  0  0
  -24.6843  -17.7072   10.7750 O   0  0  0  0  0  0  0  0  0  0  0  0
  -22.7297  -14.2655    8.5870 S   0  0  0  0  0  0  0  0  0  0  0  0
  -22.2637  -12.8792    7.6520 C   0  0  0  0  0  0  0  0  0  0  0  0
  -21.2309  -16.1752   12.6931 O   0  0  0  0  0  0  0  0  0  0  0  0
  -22.4311  -18.5005   11.2704 O   0  5  0  0  0  0  0  0  0  0  0  0
  -23.1449  -11.8577    7.8384 N   0  0  0  0  0  0  0  0  0  0  0  0
  -23.6059  -17.1532   12.9738 O   0  0  0  0  0  0  0  0  0  0  0  0
  -24.3293  -19.5022   12.5452 O   0  0  0  0  0  0  0  0  0  0  0  0
  -24.1786  -12.1126    8.6869 C   0  0  1  0  0  0  0  0  0  0  0  0
  -24.1091  -13.4861    9.2554 C   0  0  1  0  0  0  0  0  0  0  0  0
  -24.9596  -14.2786   10.2124 C   0  0  0  0  0  0  0  0  0  0  0  0
  -24.3151  -14.2344   11.5889 C   0  0  0  0  0  0  0  0  0  0  0  0
  -23.1674  -15.0743   11.5689 O   0  0  0  0  0  0  0  0  0  0  0  0
  1 11  1  0  0  0  0
  3 13  1  1  0  0  0
  3 17  2  0  0  0  0
  3 20  1  0  0  0  0
  3 26  1  0  0  0  0
  4 14  1  6  0  0  0
  4 18  1  0  0  0  0
  4 21  2  0  0  0  0
  4 20  1  0  0  0  0
  5 19  1  0  0  0  0
  5  7  1  0  0  0  0
  6  7  2  0  0  0  0
  6 12  1  0  0  0  0
  7  8  1  0  0  0  0
  8  9  1  0  0  0  0
  8 10  2  0  0  0  0
 10 11  1  0  0  0  0
 11 12  2  0  0  0  0
 15 23  1  0  0  0  0
 15 16  1  0  0  0  0
 16 19  1  0  0  0  0
 19 22  1  0  0  0  0
 22  2  1  1  0  0  0
 22 23  1  0  0  0  0
 23 24  1  6  0  0  0
 24 25  1  0  0  0  0
 25 26  1  0  0  0  0
M  CHG  2  13  -1  18  -1
M  END
>  <CHROM.1>
169.67630391,83.88663084,28.72316450,-75.53046971,81.59199710,-73.61048106
-149.95448218,-32.12068013,-23.57430396,-14.00428550,9.12226327,1.72550135
-1.14696335,-0.71669269

>  <Name>
ligand

>  <RI>
0

>  <Rbt.Current_Directory>
/home/itssahil/PROJECTS/Mol_Feturizer/New_Systems/rnas/2GDI

>  <Rbt.Executable>
rbdock ($Id: //depot/dev/client3/rdock/2013.1/src/exe/rbdock.cxx#4 $)

>  <Rbt.Library>
libRbt.so (2013.1, Build901 2013/11/27)

>  <Rbt.Parameter_File>
/export/apps/rDock/src/rDock_2013.1_src/data/scripts/dock_solv.prm

>  <Rbt.Receptor>
prm/blind_docking_80.prm

>  <SCORE>
-11.8313

>  <SCORE.INTER>
-12.1426

>  <SCORE.INTER.CONST>
1

>  <SCORE.INTER.POLAR>
0

>  <SCORE.INTER.ROT>
8

>  <SCORE.INTER.SOLV>
17.7187

>  <SCORE.INTER.VDW>
-22.9346

>  <SCORE.INTER.norm>
-0.467023

>  <SCORE.INTRA>
0.311339

>  <SCORE.INTRA.DIHEDRAL>
2.57509

>  <SCORE.INTRA.DIHEDRAL.0>
8.13976

>  <SCORE.INTRA.POLAR>
0

>  <SCORE.INTRA.POLAR.0>
0

>  <SCORE.INTRA.REPUL>
0

>  <SCORE.INTRA.REPUL.0>
0

>  <SCORE.INTRA.SOLV>
-0.157821

>  <SCORE.INTRA.SOLV.lig_0>
-82.9561

>  <SCORE.INTRA.VDW>
-0.897297

>  <SCORE.INTRA.VDW.0>
-3.29171

>  <SCORE.INTRA.norm>
0.0119746

>  <SCORE.RESTR>
0

>  <SCORE.RESTR.CAVITY>
0

>  <SCORE.RESTR.norm>
0

>  <SCORE.SYSTEM>
0

>  <SCORE.SYSTEM.CONST>
0

>  <SCORE.SYSTEM.DIHEDRAL>
0

>  <SCORE.SYSTEM.SOLV>
0

>  <SCORE.SYSTEM.norm>
0

>  <SCORE.heavy>
26

>  <SCORE.norm>
-0.455049

>  <RMSD>
10.819

$$$$
ligand
 OpenBabel11021811433D
libRbt.so/2013.1/901 2013/11/27
 26 27  0  0  0  0  0  0  0  0999 V2000
  -24.4553  -18.2327   11.3462 C   0  0  0  0  0  0  0  0  0  0  0  0
  -25.3045  -12.0007   10.0693 C   0  0  0  0  0  0  0  0  0  0  0  0
  -24.7417  -13.5116    4.2214 P   0  0  1  0  0  0  0  0  0  0  0  0
  -23.7403  -15.9249    5.4988 P   0  0  1  0  0  0  0  0  0  0  0  0
  -22.4975  -12.9027   10.4570 C   0  0  0  0  0  0  0  0  0  0  0  0
  -23.6255  -15.0234    9.6693 C   0  0  0  0  0  0  0  0  0  0  0  0
  -23.0237  -14.3077   10.6966 C   0  0  0  0  0  0  0  0  0  0  0  0
  -22.9007  -14.9055   11.9402 C   0  0  0  0  0  0  0  0  0  0  0  0
  -22.3220  -14.2463   12.9732 N   0  0  0  0  0  0  0  0  0  0  0  0
  -23.3635  -16.1608   12.1263 N   0  0  0  0  0  0  0  0  0  0  0  0
  -23.9466  -16.8361   11.1119 C   0  0  0  0  0  0  0  0  0  0  0  0
  -24.0763  -16.2664    9.8889 N   0  0  0  0  0  0  0  0  0  0  0  0
  -23.5220  -13.3241    3.3579 O   0  5  0  0  0  0  0  0  0  0  0  0
  -22.4480  -15.9001    4.7419 O   0  0  0  0  0  0  0  0  0  0  0  0
  -23.0285  -11.6377    6.7280 S   0  0  0  0  0  0  0  0  0  0  0  0
  -22.1550  -12.2865    8.0805 C   0  0  0  0  0  0  0  0  0  0  0  0
  -25.9817  -14.0382    3.5581 O   0  0  0  0  0  0  0  0  0  0  0  0
  -23.4673  -16.2333    6.9332 O   0  5  0  0  0  0  0  0  0  0  0  0
  -22.9652  -12.3864    9.1706 N   0  0  0  0  0  0  0  0  0  0  0  0
  -24.3215  -14.4113    5.5023 O   0  0  0  0  0  0  0  0  0  0  0  0
  -24.8300  -16.7822    4.9149 O   0  0  0  0  0  0  0  0  0  0  0  0
  -24.2506  -11.9737    8.9946 C   0  0  1  0  0  0  0  0  0  0  0  0
  -24.5020  -11.5056    7.6046 C   0  0  1  0  0  0  0  0  0  0  0  0
  -25.6985  -10.9566    6.8739 C   0  0  0  0  0  0  0  0  0  0  0  0
  -26.1464  -11.9752    5.8375 C   0  0  0  0  0  0  0  0  0  0  0  0
  -25.1264  -12.0838    4.8522 O   0  0  0  0  0  0  0  0  0  0  0  0
  1 11  1  0  0  0  0
  3 13  1  6  0  0  0
  3 17  2  0  0  0  0
  3 20  1  0  0  0  0
  3 26  1  0  0  0  0
  4 14  1  6  0  0  0
  4 18  1  0  0  0  0
  4 21  2  0  0  0  0
  4 20  1  0  0  0  0
  5 19  1  0  0  0  0
  5  7  1  0  0  0  0
  6  7  2  0  0  0  0
  6 12  1  0  0  0  0
  7  8  1  0  0  0  0
  8  9  1  0  0  0  0
  8 10  2  0  0  0  0
 10 11  1  0  0  0  0
 11 12  2  0  0  0  0
 15 23  1  0  0  0  0
 15 16  1  0  0  0  0
 16 19  1  0  0  0  0
 19 22  1  0  0  0  0
 22  2  1  6  0  0  0
 22 23  1  0  0  0  0
 23 24  1  1  0  0  0
 24 25  1  0  0  0  0
 25 26  1  0  0  0  0
M  CHG  2  13  -1  18  -1
M  END
>  <CHROM.1>
-60.96113247,-105.38674212,11.74636092,61.23318332,69.48328286,-66.30738209
140.75411703,-172.62969430,-23.95509053,-14.05052519,7.51190485,-0.06396748
1.40043690,-2.84349147

>  <Name>
ligand

>  <RI>
0

>  <Rbt.Current_Directory>
/home/itssahil/PROJECTS/Mol_Feturizer/New_Systems/rnas/2GDI

>  <Rbt.Executable>
rbdock ($Id: //depot/dev/client3/rdock/2013.1/src/exe/rbdock.cxx#4 $)

>  <Rbt.Library>
libRbt.so (2013.1, Build901 2013/11/27)

>  <Rbt.Parameter_File>
/export/apps/rDock/src/rDock_2013.1_src/data/scripts/dock_solv.prm

>  <Rbt.Receptor>
prm/blind_docking_60.prm

>  <SCORE>
-7.41923

>  <SCORE.INTER>
-7.61231

>  <SCORE.INTER.CONST>
1

>  <SCORE.INTER.POLAR>
0

>  <SCORE.INTER.ROT>
8

>  <SCORE.INTER.SOLV>
11.4921

>  <SCORE.INTER.VDW>
-17.8389

>  <SCORE.INTER.norm>
-0.292781

>  <SCORE.INTRA>
0.193073

>  <SCORE.INTRA.DIHEDRAL>
2.52946

>  <SCORE.INTRA.DIHEDRAL.0>
8.13976

>  <SCORE.INTRA.POLAR>
0

>  <SCORE.INTRA.POLAR.0>
0

>  <SCORE.INTRA.REPUL>
0

>  <SCORE.INTRA.REPUL.0>
0

>  <SCORE.INTRA.SOLV>
1.01379

>  <SCORE.INTRA.SOLV.lig_0>
-82.9561

>  <SCORE.INTRA.VDW>
-1.57855

>  <SCORE.INTRA.VDW.0>
-3.29171

>  <SCORE.INTRA.norm>
0.00742587

>  <SCORE.RESTR>
0

>  <SCORE.RESTR.CAVITY>
0

>  <SCORE.RESTR.norm>
0

>  <SCORE.SYSTEM>
0

>  <SCORE.SYSTEM.CONST>
0

>  <SCORE.SYSTEM.DIHEDRAL>
0

>  <SCORE.SYSTEM.SOLV>
0

>  <SCORE.SYSTEM.norm>
0

>  <SCORE.heavy>
26

>  <SCORE.norm>
-0.285355

>  <RMSD>
10.825

$$$$
ligand
 OpenBabel11021811433D
libRbt.so/2013.1/901 2013/11/27
 26 27  0  0  0  0  0  0  0  0999 V2000
  -22.3863  -15.1419   14.0964 C   0  0  0  0  0  0  0  0  0  0  0  0
  -22.4257  -13.3473    8.2843 C   0  0  0  0  0  0  0  0  0  0  0  0
  -22.4416  -11.5462    3.6339 P   0  0  1  0  0  0  0  0  0  0  0  0
  -24.9855  -11.0135    2.3286 P   0  0  1  0  0  0  0  0  0  0  0  0
  -25.1727  -14.0332    9.1933 C   0  0  0  0  0  0  0  0  0  0  0  0
  -24.3891  -13.3848   11.5076 C   0  0  0  0  0  0  0  0  0  0  0  0
  -24.4270  -14.3240   10.4847 C   0  0  0  0  0  0  0  0  0  0  0  0
  -23.7828  -15.5362   10.6708 C   0  0  0  0  0  0  0  0  0  0  0  0
  -23.7913  -16.4829    9.7012 N   0  0  0  0  0  0  0  0  0  0  0  0
  -23.1378  -15.7781   11.8327 N   0  0  0  0  0  0  0  0  0  0  0  0
  -23.1136  -14.8481   12.8123 C   0  0  0  0  0  0  0  0  0  0  0  0
  -23.7375  -13.6561   12.6470 N   0  0  0  0  0  0  0  0  0  0  0  0
  -22.8505  -12.9781    3.4080 O   0  5  0  0  0  0  0  0  0  0  0  0
  -24.5192  -11.8188    1.1549 O   0  0  0  0  0  0  0  0  0  0  0  0
  -25.0345  -10.2525    7.9791 S   0  0  0  0  0  0  0  0  0  0  0  0
  -25.7608  -11.6962    8.6126 C   0  0  0  0  0  0  0  0  0  0  0  0
  -21.1377  -11.0994    3.0382 O   0  0  0  0  0  0  0  0  0  0  0  0
  -25.7659  -11.8899    3.2507 O   0  5  0  0  0  0  0  0  0  0  0  0
  -24.8425  -12.6986    8.6932 N   0  0  0  0  0  0  0  0  0  0  0  0
  -23.6673  -10.5912    3.1729 O   0  0  0  0  0  0  0  0  0  0  0  0
  -25.6961   -9.7275    2.0054 O   0  0  0  0  0  0  0  0  0  0  0  0
  -23.5844  -12.3861    8.2773 C   0  0  1  0  0  0  0  0  0  0  0  0
  -23.4797  -10.9714    7.8279 C   0  0  1  0  0  0  0  0  0  0  0  0
  -22.3677  -10.1143    7.2840 C   0  0  0  0  0  0  0  0  0  0  0  0
  -22.5245  -10.0118    5.7749 C   0  0  0  0  0  0  0  0  0  0  0  0
  -22.3309  -11.3070    5.2197 O   0  0  0  0  0  0  0  0  0  0  0  0
  1 11  1  0  0  0  0
  3 13  1  6  0  0  0
  3 17  2  0  0  0  0
  3 20  1  0  0  0  0
  3 26  1  0  0  0  0
  4 14  1  6  0  0  0
  4 18  1  0  0  0  0
  4 21  2  0  0  0  0
  4 20  1  0  0  0  0
  5 19  1  0  0  0  0
  5  7  1  0  0  0  0
  6  7  2  0  0  0  0
  6 12  1  0  0  0  0
  7  8  1  0  0  0  0
  8  9  1  0  0  0  0
  8 10  2  0  0  0  0
 10 11  1  0  0  0  0
 11 12  2  0  0  0  0
 15 23  1  0  0  0  0
 15 16  1  0  0  0  0
 16 19  1  0  0  0  0
 19 22  1  0  0  0  0
 22  2  1  1  0  0  0
 22 23  1  0  0  0  0
 23 24  1  6  0  0  0
 24 25  1  0  0  0  0
 25 26  1  0  0  0  0
M  CHG  2  13  -1  18  -1
M  END
>  <CHROM.1>
-11.99667538,-114.86292380,46.68258995,-47.77479732,-77.48155645,-65.24189906
179.53871078,-153.18610542,-23.77862389,-12.30168158,6.86824496,-1.51937456
0.87777129,-1.23512381

>  <Name>
ligand

>  <RI>
0

>  <Rbt.Current_Directory>
/home/itssahil/PROJECTS/Mol_Feturizer/New_Systems/rnas/2GDI

>  <Rbt.Executable>
rbdock ($Id: //depot/dev/client3/rdock/2013.1/src/exe/rbdock.cxx#4 $)

>  <Rbt.Library>
libRbt.so (2013.1, Build901 2013/11/27)

>  <Rbt.Parameter_File>
/export/apps/rDock/src/rDock_2013.1_src/data/scripts/dock_solv.prm

>  <Rbt.Receptor>
prm/blind_docking_100.prm

>  <SCORE>
-13.1702

>  <SCORE.INTER>
-13.4352

>  <SCORE.INTER.CONST>
1

>  <SCORE.INTER.POLAR>
0

>  <SCORE.INTER.ROT>
8

>  <SCORE.INTER.SOLV>
24.7574

>  <SCORE.INTER.VDW>
-26.1426

>  <SCORE.INTER.norm>
-0.516738

>  <SCORE.INTRA>
0.258159

>  <SCORE.INTRA.DIHEDRAL>
0.137087

>  <SCORE.INTRA.DIHEDRAL.0>
8.13976

>  <SCORE.INTRA.POLAR>
0

>  <SCORE.INTRA.POLAR.0>
0

>  <SCORE.INTRA.REPUL>
0

>  <SCORE.INTRA.REPUL.0>
0

>  <SCORE.INTRA.SOLV>
1.03319

>  <SCORE.INTRA.SOLV.lig_0>
-82.9561

>  <SCORE.INTRA.VDW>
-0.326979

>  <SCORE.INTRA.VDW.0>
-3.29171

>  <SCORE.INTRA.norm>
0.00992919

>  <SCORE.RESTR>
0.00687313

>  <SCORE.RESTR.CAVITY>
0.00687313

>  <SCORE.RESTR.norm>
0.000264351

>  <SCORE.SYSTEM>
0

>  <SCORE.SYSTEM.CONST>
0

>  <SCORE.SYSTEM.DIHEDRAL>
0

>  <SCORE.SYSTEM.SOLV>
0

>  <SCORE.SYSTEM.norm>
0

>  <SCORE.heavy>
26

>  <SCORE.norm>
-0.506544

>  <RMSD>
10.852

$$$$
ligand
 OpenBabel11021811433D
libRbt.so/2013.1/901 2013/11/27
 26 27  0  0  0  0  0  0  0  0999 V2000
  -25.2266  -10.6064    1.9662 C   0  0  0  0  0  0  0  0  0  0  0  0
  -22.5539  -12.9759    9.7032 C   0  0  0  0  0  0  0  0  0  0  0  0
  -22.3172  -20.0058   10.3288 P   0  0  1  0  0  0  0  0  0  0  0  0
  -20.2565  -19.8894   12.3778 P   0  0  1  0  0  0  0  0  0  0  0  0
  -22.6143  -12.0479    6.8786 C   0  0  0  0  0  0  0  0  0  0  0  0
  -22.5657  -11.3162    4.4594 C   0  0  0  0  0  0  0  0  0  0  0  0
  -23.3067  -11.6572    5.5838 C   0  0  0  0  0  0  0  0  0  0  0  0
  -24.6892  -11.6471    5.4973 C   0  0  0  0  0  0  0  0  0  0  0  0
  -25.4542  -11.9712    6.5679 N   0  0  0  0  0  0  0  0  0  0  0  0
  -25.2828  -11.3097    4.3318 N   0  0  0  0  0  0  0  0  0  0  0  0
  -24.5405  -10.9802    3.2522 C   0  0  0  0  0  0  0  0  0  0  0  0
  -23.1867  -10.9837    3.3191 N   0  0  0  0  0  0  0  0  0  0  0  0
  -22.3025  -20.3616    8.8654 O   0  5  0  0  0  0  0  0  0  0  0  0
  -20.5551  -21.2297   12.9760 O   0  0  0  0  0  0  0  0  0  0  0  0
  -23.5700  -15.8995    7.0770 S   0  0  0  0  0  0  0  0  0  0  0  0
  -23.2635  -14.3721    6.3114 C   0  0  0  0  0  0  0  0  0  0  0  0
  -23.1607  -20.8543   11.2362 O   0  0  0  0  0  0  0  0  0  0  0  0
  -18.7783  -19.7139   12.2710 O   0  5  0  0  0  0  0  0  0  0  0  0
  -22.9277  -13.4312    7.2370 N   0  0  0  0  0  0  0  0  0  0  0  0
  -20.7830  -19.9219   10.8447 O   0  0  0  0  0  0  0  0  0  0  0  0
  -20.9385  -18.7132   13.0218 O   0  0  0  0  0  0  0  0  0  0  0  0
  -22.8997  -13.8546    8.5306 C   0  0  1  0  0  0  0  0  0  0  0  0
  -23.2355  -15.2991    8.6533 C   0  0  1  0  0  0  0  0  0  0  0  0
  -23.3548  -16.2629    9.8039 C   0  0  0  0  0  0  0  0  0  0  0  0
  -22.6013  -17.5363    9.4534 C   0  0  0  0  0  0  0  0  0  0  0  0
  -22.8620  -18.4996   10.4669 O   0  0  0  0  0  0  0  0  0  0  0  0
  1 11  1  0  0  0  0
  3 13  1  6  0  0  0
  3 17  2  0  0  0  0
  3 20  1  0  0  0  0
  3 26  1  0  0  0  0
  4 14  1  1  0  0  0
  4 18  1  0  0  0  0
  4 21  2  0  0  0  0
  4 20  1  0  0  0  0
  5 19  1  0  0  0  0
  5  7  1  0  0  0  0
  6  7  2  0  0  0  0
  6 12  1  0  0  0  0
  7  8  1  0  0  0  0
  8  9  1  0  0  0  0
  8 10  2  0  0  0  0
 10 11  1  0  0  0  0
 11 12  2  0  0  0  0
 15 23  1  0  0  0  0
 15 16  1  0  0  0  0
 16 19  1  0  0  0  0
 19 22  1  0  0  0  0
 22  2  1  6  0  0  0
 22 23  1  0  0  0  0
 23 24  1  1  0  0  0
 24 25  1  0  0  0  0
 25 26  1  0  0  0  0
M  CHG  2  13  -1  18  -1
M  END
>  <CHROM.1>
-165.75480171,26.43024305,-116.91031284,67.68476625,48.63289996,-172.64964534
174.51112240,-32.23206465,-22.65803999,-16.04342757,8.50092123,2.04150835
-0.94912209,-0.29956105

>  <Name>
ligand

>  <RI>
0

>  <Rbt.Current_Directory>
/home/itssahil/PROJECTS/Mol_Feturizer/New_Systems/rnas/2GDI

>  <Rbt.Executable>
rbdock ($Id: //depot/dev/client3/rdock/2013.1/src/exe/rbdock.cxx#4 $)

>  <Rbt.Library>
libRbt.so (2013.1, Build901 2013/11/27)

>  <Rbt.Parameter_File>
/export/apps/rDock/src/rDock_2013.1_src/data/scripts/dock_solv.prm

>  <Rbt.Receptor>
prm/blind_docking_80.prm

>  <SCORE>
-11.8508

>  <SCORE.INTER>
-13.0592

>  <SCORE.INTER.CONST>
1

>  <SCORE.INTER.POLAR>
0

>  <SCORE.INTER.ROT>
8

>  <SCORE.INTER.SOLV>
22.6795

>  <SCORE.INTER.VDW>
-25.1993

>  <SCORE.INTER.norm>
-0.502277

>  <SCORE.INTRA>
1.19953

>  <SCORE.INTRA.DIHEDRAL>
-1.27616

>  <SCORE.INTRA.DIHEDRAL.0>
8.13976

>  <SCORE.INTRA.POLAR>
0

>  <SCORE.INTRA.POLAR.0>
0

>  <SCORE.INTRA.REPUL>
0

>  <SCORE.INTRA.REPUL.0>
0

>  <SCORE.INTRA.SOLV>
2.10782

>  <SCORE.INTRA.SOLV.lig_0>
-82.9561

>  <SCORE.INTRA.VDW>
0.783704

>  <SCORE.INTRA.VDW.0>
-3.29171

>  <SCORE.INTRA.norm>
0.0461359

>  <SCORE.RESTR>
0.00880928

>  <SCORE.RESTR.CAVITY>
0.00880928

>  <SCORE.RESTR.norm>
0.000338818

>  <SCORE.SYSTEM>
0

>  <SCORE.SYSTEM.CONST>
0

>  <SCORE.SYSTEM.DIHEDRAL>
0

>  <SCORE.SYSTEM.SOLV>
0

>  <SCORE.SYSTEM.norm>
0

>  <SCORE.heavy>
26

>  <SCORE.norm>
-0.455802

>  <RMSD>
10.882

$$$$
ligand
 OpenBabel11021811433D
libRbt.so/2013.1/901 2013/11/27
 26 27  0  0  0  0  0  0  0  0999 V2000
  -26.5658  -16.4211    3.2121 C   0  0  0  0  0  0  0  0  0  0  0  0
  -26.1487  -11.5138    6.6510 C   0  0  0  0  0  0  0  0  0  0  0  0
  -23.7511  -14.6719   10.9851 P   0  0  1  0  0  0  0  0  0  0  0  0
  -24.5482  -17.4297   11.4524 P   0  0  1  0  0  0  0  0  0  0  0  0
  -23.6955  -11.7698    4.9898 C   0  0  0  0  0  0  0  0  0  0  0  0
  -24.4674  -14.1592    5.2812 C   0  0  0  0  0  0  0  0  0  0  0  0
  -24.4462  -13.0017    4.5134 C   0  0  0  0  0  0  0  0  0  0  0  0
  -25.1345  -12.9886    3.3112 C   0  0  0  0  0  0  0  0  0  0  0  0
  -25.1418  -11.8830    2.5276 N   0  0  0  0  0  0  0  0  0  0  0  0
  -25.8064  -14.0911    2.9145 N   0  0  0  0  0  0  0  0  0  0  0  0
  -25.8108  -15.2057    3.6779 C   0  0  0  0  0  0  0  0  0  0  0  0
  -25.1420  -15.2367    4.8565 N   0  0  0  0  0  0  0  0  0  0  0  0
  -22.5905  -14.7466   11.9421 O   0  5  0  0  0  0  0  0  0  0  0  0
  -24.2598  -17.8902   10.0566 O   0  0  0  0  0  0  0  0  0  0  0  0
  -22.7427  -11.7441    8.8471 S   0  0  0  0  0  0  0  0  0  0  0  0
  -22.4569  -11.8167    7.1365 C   0  0  0  0  0  0  0  0  0  0  0  0
  -23.4365  -14.6910    9.5170 O   0  0  0  0  0  0  0  0  0  0  0  0
  -23.3196  -17.5798   12.2863 O   0  5  0  0  0  0  0  0  0  0  0  0
  -23.6307  -11.7350    6.4509 N   0  0  0  0  0  0  0  0  0  0  0  0
  -24.8112  -15.8313   11.3839 O   0  0  0  0  0  0  0  0  0  0  0  0
  -25.7700  -18.0198   12.1022 O   0  0  0  0  0  0  0  0  0  0  0  0
  -24.7547  -11.6178    7.2101 C   0  0  1  0  0  0  0  0  0  0  0  0
  -24.4455  -11.5868    8.6654 C   0  0  1  0  0  0  0  0  0  0  0  0
  -25.2710  -11.4768    9.9197 C   0  0  0  0  0  0  0  0  0  0  0  0
  -25.5951  -12.8777   10.4145 C   0  0  0  0  0  0  0  0  0  0  0  0
  -24.5409  -13.3011   11.2703 O   0  0  0  0  0  0  0  0  0  0  0  0
  1 11  1  0  0  0  0
  3 13  1  1  0  0  0
  3 17  2  0  0  0  0
  3 20  1  0  0  0  0
  3 26  1  0  0  0  0
  4 14  1  6  0  0  0
  4 18  1  0  0  0  0
  4 21  2  0  0  0  0
  4 20  1  0  0  0  0
  5 19  1  0  0  0  0
  5  7  1  0  0  0  0
  6  7  2  0  0  0  0
  6 12  1  0  0  0  0
  7  8  1  0  0  0  0
  8  9  1  0  0  0  0
  8 10  2  0  0  0  0
 10 11  1  0  0  0  0
 11 12  2  0  0  0  0
 15 23  1  0  0  0  0
 15 16  1  0  0  0  0
 16 19  1  0  0  0  0
 19 22  1  0  0  0  0
 22  2  1  6  0  0  0
 22 23  1  0  0  0  0
 23 24  1  1  0  0  0
 24 25  1  0  0  0  0
 25 26  1  0  0  0  0
M  CHG  2  13  -1  18  -1
M  END
>  <CHROM.1>
-58.72272081,115.90562437,-27.71530024,-65.42593644,-86.20379601,88.28605182
-124.59585320,172.53271164,-24.43461234,-14.14807389,8.25234586,1.90769418
-1.25069460,-0.84748875

>  <Name>
ligand

>  <RI>
0

>  <Rbt.Current_Directory>
/home/itssahil/PROJECTS/Mol_Feturizer/New_Systems/rnas/2GDI

>  <Rbt.Executable>
rbdock ($Id: //depot/dev/client3/rdock/2013.1/src/exe/rbdock.cxx#4 $)

>  <Rbt.Library>
libRbt.so (2013.1, Build901 2013/11/27)

>  <Rbt.Parameter_File>
/export/apps/rDock/src/rDock_2013.1_src/data/scripts/dock_solv.prm

>  <Rbt.Receptor>
prm/blind_docking_60.prm

>  <SCORE>
-8.02117

>  <SCORE.INTER>
-11.435

>  <SCORE.INTER.CONST>
1

>  <SCORE.INTER.POLAR>
0

>  <SCORE.INTER.ROT>
8

>  <SCORE.INTER.SOLV>
16.0289

>  <SCORE.INTER.VDW>
-21.8996

>  <SCORE.INTER.norm>
-0.439807

>  <SCORE.INTRA>
3.4138

>  <SCORE.INTRA.DIHEDRAL>
6.77672

>  <SCORE.INTRA.DIHEDRAL.0>
8.13976

>  <SCORE.INTRA.POLAR>
0

>  <SCORE.INTRA.POLAR.0>
0

>  <SCORE.INTRA.REPUL>
0

>  <SCORE.INTRA.REPUL.0>
0

>  <SCORE.INTRA.SOLV>
2.02025

>  <SCORE.INTRA.SOLV.lig_0>
-82.9561

>  <SCORE.INTRA.VDW>
-0.984681

>  <SCORE.INTRA.VDW.0>
-3.29171

>  <SCORE.INTRA.norm>
0.1313

>  <SCORE.RESTR>
0

>  <SCORE.RESTR.CAVITY>
0

>  <SCORE.RESTR.norm>
0

>  <SCORE.SYSTEM>
0

>  <SCORE.SYSTEM.CONST>
0

>  <SCORE.SYSTEM.DIHEDRAL>
0

>  <SCORE.SYSTEM.SOLV>
0

>  <SCORE.SYSTEM.norm>
0

>  <SCORE.heavy>
26

>  <SCORE.norm>
-0.308507

>  <RMSD>
10.916

$$$$
ligand
 OpenBabel11021811433D
libRbt.so/2013.1/901 2013/11/27
 26 27  0  0  0  0  0  0  0  0999 V2000
  -22.7882  -18.0779    7.7861 C   0  0  0  0  0  0  0  0  0  0  0  0
  -22.0908  -12.7060   10.3298 C   0  0  0  0  0  0  0  0  0  0  0  0
  -23.0618  -11.4912    5.3575 P   0  0  1  0  0  0  0  0  0  0  0  0
  -23.6328  -14.1762    4.3964 P   0  0  1  0  0  0  0  0  0  0  0  0
  -24.7082  -13.8438   11.1653 C   0  0  0  0  0  0  0  0  0  0  0  0
  -24.4209  -14.9333    8.9025 C   0  0  0  0  0  0  0  0  0  0  0  0
  -24.2089  -14.9690   10.2749 C   0  0  0  0  0  0  0  0  0  0  0  0
  -23.5214  -16.0441   10.8138 C   0  0  0  0  0  0  0  0  0  0  0  0
  -23.2915  -16.1234   12.1469 N   0  0  0  0  0  0  0  0  0  0  0  0
  -23.0747  -17.0262   10.0010 N   0  0  0  0  0  0  0  0  0  0  0  0
  -23.2948  -16.9699    8.6693 C   0  0  0  0  0  0  0  0  0  0  0  0
  -23.9665  -15.9260    8.1249 N   0  0  0  0  0  0  0  0  0  0  0  0
  -22.0670  -10.8486    4.4270 O   0  5  0  0  0  0  0  0  0  0  0  0
  -25.0902  -14.0322    4.7104 O   0  0  0  0  0  0  0  0  0  0  0  0
  -25.2477  -10.3465    9.3584 S   0  0  0  0  0  0  0  0  0  0  0  0
  -25.7135  -11.8066   10.1734 C   0  0  0  0  0  0  0  0  0  0  0  0
  -24.5078  -11.1281    5.1783 O   0  0  0  0  0  0  0  0  0  0  0  0
  -23.3853  -13.7456    2.9891 O   0  5  0  0  0  0  0  0  0  0  0  0
  -24.6178  -12.5572   10.4748 N   0  0  0  0  0  0  0  0  0  0  0  0
  -22.8383  -13.0957    5.3075 O   0  0  0  0  0  0  0  0  0  0  0  0
  -23.0187  -15.5123    4.7141 O   0  0  0  0  0  0  0  0  0  0  0  0
  -23.4189  -12.0376   10.0928 C   0  0  1  0  0  0  0  0  0  0  0  0
  -23.5696  -10.7165    9.4247 C   0  0  1  0  0  0  0  0  0  0  0  0
  -22.6145   -9.7231    8.8183 C   0  0  0  0  0  0  0  0  0  0  0  0
  -22.7875   -9.7399    7.3076 C   0  0  0  0  0  0  0  0  0  0  0  0
  -22.6668  -11.0853    6.8620 O   0  0  0  0  0  0  0  0  0  0  0  0
  1 11  1  0  0  0  0
  3 13  1  6  0  0  0
  3 17  2  0  0  0  0
  3 20  1  0  0  0  0
  3 26  1  0  0  0  0
  4 14  1  1  0  0  0
  4 18  1  0  0  0  0
  4 21  2  0  0  0  0
  4 20  1  0  0  0  0
  5 19  1  0  0  0  0
  5  7  1  0  0  0  0
  6  7  2  0  0  0  0
  6 12  1  0  0  0  0
  7  8  1  0  0  0  0
  8  9  1  0  0  0  0
  8 10  2  0  0  0  0
 10 11  1  0  0  0  0
 11 12  2  0  0  0  0
 15 23  1  0  0  0  0
 15 16  1  0  0  0  0
 16 19  1  0  0  0  0
 19 22  1  0  0  0  0
 22  2  1  1  0  0  0
 22 23  1  0  0  0  0
 23 24  1  6  0  0  0
 24 25  1  0  0  0  0
 25 26  1  0  0  0  0
M  CHG  2  13  -1  18  -1
M  END
>  <CHROM.1>
-95.37441552,116.53583644,-34.84752454,-56.72652659,-69.44518707,-52.79989533
168.79216889,67.60533817,-23.62319411,-13.20221610,7.64126417,-2.25694703
1.44893316,-0.44581992

>  <Name>
ligand

>  <RI>
0

>  <Rbt.Current_Directory>
/home/itssahil/PROJECTS/Mol_Feturizer/New_Systems/rnas/2GDI

>  <Rbt.Executable>
rbdock ($Id: //depot/dev/client3/rdock/2013.1/src/exe/rbdock.cxx#4 $)

>  <Rbt.Library>
libRbt.so (2013.1, Build901 2013/11/27)

>  <Rbt.Parameter_File>
/export/apps/rDock/src/rDock_2013.1_src/data/scripts/dock_solv.prm

>  <Rbt.Receptor>
prm/blind_docking_80.prm

>  <SCORE>
-12.1376

>  <SCORE.INTER>
-11.6379

>  <SCORE.INTER.CONST>
1

>  <SCORE.INTER.POLAR>
0

>  <SCORE.INTER.ROT>
8

>  <SCORE.INTER.SOLV>
12.7324

>  <SCORE.INTER.VDW>
-20.9361

>  <SCORE.INTER.norm>
-0.447611

>  <SCORE.INTRA>
-0.499733

>  <SCORE.INTRA.DIHEDRAL>
-0.983896

>  <SCORE.INTRA.DIHEDRAL.0>
8.13976

>  <SCORE.INTRA.POLAR>
0

>  <SCORE.INTRA.POLAR.0>
0

>  <SCORE.INTRA.REPUL>
0

>  <SCORE.INTRA.REPUL.0>
0

>  <SCORE.INTRA.SOLV>
1.67494

>  <SCORE.INTRA.SOLV.lig_0>
-82.9561

>  <SCORE.INTRA.VDW>
-0.845255

>  <SCORE.INTRA.VDW.0>
-3.29171

>  <SCORE.INTRA.norm>
-0.0192205

>  <SCORE.RESTR>
0

>  <SCORE.RESTR.CAVITY>
0

>  <SCORE.RESTR.norm>
0

>  <SCORE.SYSTEM>
0

>  <SCORE.SYSTEM.CONST>
0

>  <SCORE.SYSTEM.DIHEDRAL>
0

>  <SCORE.SYSTEM.SOLV>
0

>  <SCORE.SYSTEM.norm>
0

>  <SCORE.heavy>
26

>  <SCORE.norm>
-0.466831

>  <RMSD>
10.922

$$$$
ligand
 OpenBabel11021811433D
libRbt.so/2013.1/901 2013/11/27
 26 27  0  0  0  0  0  0  0  0999 V2000
  -28.5633  -19.5103   -5.1434 C   0  0  0  0  0  0  0  0  0  0  0  0
  -23.3418  -17.9736   -1.1976 C   0  0  0  0  0  0  0  0  0  0  0  0
  -25.0688  -15.6876    4.2642 P   0  0  1  0  0  0  0  0  0  0  0  0
  -24.0645  -12.9740    4.5589 P   0  0  1  0  0  0  0  0  0  0  0  0
  -23.9005  -20.7734   -2.0296 C   0  0  0  0  0  0  0  0  0  0  0  0
  -26.3806  -20.3385   -2.2538 C   0  0  0  0  0  0  0  0  0  0  0  0
  -25.1336  -20.4495   -2.8560 C   0  0  0  0  0  0  0  0  0  0  0  0
  -25.0347  -20.2458   -4.2226 C   0  0  0  0  0  0  0  0  0  0  0  0
  -23.8399  -20.3445   -4.8545 N   0  0  0  0  0  0  0  0  0  0  0  0
  -26.1424  -19.9453   -4.9348 N   0  0  0  0  0  0  0  0  0  0  0  0
  -27.3445  -19.8444   -4.3267 C   0  0  0  0  0  0  0  0  0  0  0  0
  -27.4601  -20.0416   -2.9906 N   0  0  0  0  0  0  0  0  0  0  0  0
  -23.8036  -16.2935    4.8125 O   0  5  0  0  0  0  0  0  0  0  0  0
  -22.7195  -13.5575    4.8657 O   0  0  0  0  0  0  0  0  0  0  0  0
  -24.5960  -20.3336    1.8575 S   0  0  0  0  0  0  0  0  0  0  0  0
  -24.5004  -21.1743    0.3419 C   0  0  0  0  0  0  0  0  0  0  0  0
  -26.3514  -16.4281    4.5118 O   0  0  0  0  0  0  0  0  0  0  0  0
  -24.1405  -12.6439    3.1055 O   0  5  0  0  0  0  0  0  0  0  0  0
  -24.0754  -20.3368   -0.6444 N   0  0  0  0  0  0  0  0  0  0  0  0
  -25.1573  -14.1521    4.7753 O   0  0  0  0  0  0  0  0  0  0  0  0
  -24.5063  -11.8369    5.4393 O   0  0  0  0  0  0  0  0  0  0  0  0
  -23.8193  -19.0546   -0.2649 C   0  0  1  0  0  0  0  0  0  0  0  0
  -24.0502  -18.8457    1.1902 C   0  0  1  0  0  0  0  0  0  0  0  0
  -23.9317  -17.6684    2.1213 C   0  0  0  0  0  0  0  0  0  0  0  0
  -25.0687  -16.7012    1.8315 C   0  0  0  0  0  0  0  0  0  0  0  0
  -24.9079  -15.5633    2.6695 O   0  0  0  0  0  0  0  0  0  0  0  0
  1 11  1  0  0  0  0
  3 13  1  1  0  0  0
  3 17  2  0  0  0  0
  3 20  1  0  0  0  0
  3 26  1  0  0  0  0
  4 14  1  1  0  0  0
  4 18  1  0  0  0  0
  4 21  2  0  0  0  0
  4 20  1  0  0  0  0
  5 19  1  0  0  0  0
  5  7  1  0  0  0  0
  6  7  2  0  0  0  0
  6 12  1  0  0  0  0
  7  8  1  0  0  0  0
  8  9  1  0  0  0  0
  8 10  2  0  0  0  0
 10 11  1  0  0  0  0
 11 12  2  0  0  0  0
 15 23  1  0  0  0  0
 15 16  1  0  0  0  0
 16 19  1  0  0  0  0
 19 22  1  0  0  0  0
 22  2  1  1  0  0  0
 22 23  1  0  0  0  0
 23 24  1  6  0  0  0
 24 25  1  0  0  0  0
 25 26  1  0  0  0  0
M  CHG  2  13  -1  18  -1
M  END
>  <CHROM.1>
56.50481430,95.86504124,-26.12157963,-45.25757852,-106.52071835,-177.11176407
-66.70506385,78.00682586,-24.85946520,-17.44165753,0.98139327,1.89253221
1.14033738,-2.53942849

>  <Name>
ligand

>  <RI>
0

>  <Rbt.Current_Directory>
/home/itssahil/PROJECTS/Mol_Feturizer/New_Systems/rnas/2GDI

>  <Rbt.Executable>
rbdock ($Id: //depot/dev/client3/rdock/2013.1/src/exe/rbdock.cxx#4 $)

>  <Rbt.Library>
libRbt.so (2013.1, Build901 2013/11/27)

>  <Rbt.Parameter_File>
/export/apps/rDock/src/rDock_2013.1_src/data/scripts/dock_solv.prm

>  <Rbt.Receptor>
prm/pocket_docking_8.prm

>  <SCORE>
-10.8277

>  <SCORE.INTER>
-10.0985

>  <SCORE.INTER.CONST>
1

>  <SCORE.INTER.POLAR>
0

>  <SCORE.INTER.ROT>
8

>  <SCORE.INTER.SOLV>
10.0033

>  <SCORE.INTER.VDW>
-19.0001

>  <SCORE.INTER.norm>
-0.388402

>  <SCORE.INTRA>
-0.729236

>  <SCORE.INTRA.DIHEDRAL>
-2.68935

>  <SCORE.INTRA.DIHEDRAL.0>
8.13976

>  <SCORE.INTRA.POLAR>
0

>  <SCORE.INTRA.POLAR.0>
0

>  <SCORE.INTRA.REPUL>
0

>  <SCORE.INTRA.REPUL.0>
0

>  <SCORE.INTRA.SOLV>
1.29777

>  <SCORE.INTRA.SOLV.lig_0>
-82.9561

>  <SCORE.INTRA.VDW>
-0.033446

>  <SCORE.INTRA.VDW.0>
-3.29171

>  <SCORE.INTRA.norm>
-0.0280475

>  <SCORE.RESTR>
0

>  <SCORE.RESTR.CAVITY>
0

>  <SCORE.RESTR.norm>
0

>  <SCORE.SYSTEM>
0

>  <SCORE.SYSTEM.CONST>
0

>  <SCORE.SYSTEM.DIHEDRAL>
0

>  <SCORE.SYSTEM.SOLV>
0

>  <SCORE.SYSTEM.norm>
0

>  <SCORE.heavy>
26

>  <SCORE.norm>
-0.41645

>  <RMSD>
11.002

$$$$
ligand
 OpenBabel11021811433D
libRbt.so/2013.1/901 2013/11/27
 26 27  0  0  0  0  0  0  0  0999 V2000
  -23.8030  -16.7757   11.1893 C   0  0  0  0  0  0  0  0  0  0  0  0
  -25.6382   -8.7419    8.5350 C   0  0  0  0  0  0  0  0  0  0  0  0
  -22.5649  -10.5880    4.0505 P   0  0  1  0  0  0  0  0  0  0  0  0
  -24.4162  -12.3231    5.4721 P   0  0  1  0  0  0  0  0  0  0  0  0
  -25.2156  -11.3610    9.8785 C   0  0  0  0  0  0  0  0  0  0  0  0
  -25.3593  -13.8562    9.4998 C   0  0  0  0  0  0  0  0  0  0  0  0
  -24.8492  -12.7922   10.2330 C   0  0  0  0  0  0  0  0  0  0  0  0
  -23.9892  -13.0613   11.2850 C   0  0  0  0  0  0  0  0  0  0  0  0
  -23.4673  -12.0564   12.0296 N   0  0  0  0  0  0  0  0  0  0  0  0
  -23.6666  -14.3410   11.5731 N   0  0  0  0  0  0  0  0  0  0  0  0
  -24.1769  -15.3591   10.8465 C   0  0  0  0  0  0  0  0  0  0  0  0
  -25.0207  -15.1143    9.8143 N   0  0  0  0  0  0  0  0  0  0  0  0
  -21.3545  -11.0170    3.2634 O   0  5  0  0  0  0  0  0  0  0  0  0
  -24.2520  -13.2683    6.6224 O   0  0  0  0  0  0  0  0  0  0  0  0
  -21.9831  -10.3480    7.8020 S   0  0  0  0  0  0  0  0  0  0  0  0
  -22.9675  -11.3370    8.8345 C   0  0  0  0  0  0  0  0  0  0  0  0
  -23.7666  -10.1328    3.2738 O   0  0  0  0  0  0  0  0  0  0  0  0
  -25.1669  -11.1162    5.9272 O   0  5  0  0  0  0  0  0  0  0  0  0
  -24.1788  -10.7514    9.0457 N   0  0  0  0  0  0  0  0  0  0  0  0
  -22.9393  -11.7743    5.0895 O   0  0  0  0  0  0  0  0  0  0  0  0
  -24.9752  -12.9150    4.2070 O   0  0  0  0  0  0  0  0  0  0  0  0
  -24.3737   -9.5523    8.4313 C   0  0  1  0  0  0  0  0  0  0  0  0
  -23.1927   -9.1385    7.6259 C   0  0  1  0  0  0  0  0  0  0  0  0
  -22.8629   -7.9454    6.7688 C   0  0  0  0  0  0  0  0  0  0  0  0
  -23.0560   -8.3253    5.3091 C   0  0  0  0  0  0  0  0  0  0  0  0
  -22.1326   -9.3602    4.9939 O   0  0  0  0  0  0  0  0  0  0  0  0
  1 11  1  0  0  0  0
  3 13  1  6  0  0  0
  3 17  2  0  0  0  0
  3 20  1  0  0  0  0
  3 26  1  0  0  0  0
  4 14  1  1  0  0  0
  4 18  1  0  0  0  0
  4 21  2  0  0  0  0
  4 20  1  0  0  0  0
  5 19  1  0  0  0  0
  5  7  1  0  0  0  0
  6  7  2  0  0  0  0
  6 12  1  0  0  0  0
  7  8  1  0  0  0  0
  8  9  1  0  0  0  0
  8 10  2  0  0  0  0
 10 11  1  0  0  0  0
 11 12  2  0  0  0  0
 15 23  1  0  0  0  0
 15 16  1  0  0  0  0
 16 19  1  0  0  0  0
 19 22  1  0  0  0  0
 22  2  1  6  0  0  0
 22 23  1  0  0  0  0
 23 24  1  1  0  0  0
 24 25  1  0  0  0  0
 25 26  1  0  0  0  0
M  CHG  2  13  -1  18  -1
M  END
>  <CHROM.1>
-139.02203326,-10.33714221,-97.01450421,-171.42054075,80.68218940,-63.02056112
140.35372340,147.19319193,-23.69943446,-11.57196609,7.36434293,2.64518177
1.36906159,1.06501503

>  <Name>
ligand

>  <RI>
0

>  <Rbt.Current_Directory>
/home/itssahil/PROJECTS/Mol_Feturizer/New_Systems/rnas/2GDI

>  <Rbt.Executable>
rbdock ($Id: //depot/dev/client3/rdock/2013.1/src/exe/rbdock.cxx#4 $)

>  <Rbt.Library>
libRbt.so (2013.1, Build901 2013/11/27)

>  <Rbt.Parameter_File>
/export/apps/rDock/src/rDock_2013.1_src/data/scripts/dock_solv.prm

>  <Rbt.Receptor>
prm/blind_docking_80.prm

>  <SCORE>
-9.2456

>  <SCORE.INTER>
-12.0914

>  <SCORE.INTER.CONST>
1

>  <SCORE.INTER.POLAR>
0

>  <SCORE.INTER.ROT>
8

>  <SCORE.INTER.SOLV>
18.9347

>  <SCORE.INTER.VDW>
-23.3058

>  <SCORE.INTER.norm>
-0.465053

>  <SCORE.INTRA>
2.83367

>  <SCORE.INTRA.DIHEDRAL>
6.03432

>  <SCORE.INTRA.DIHEDRAL.0>
8.13976

>  <SCORE.INTRA.POLAR>
0

>  <SCORE.INTRA.POLAR.0>
0

>  <SCORE.INTRA.REPUL>
0

>  <SCORE.INTRA.REPUL.0>
0

>  <SCORE.INTRA.SOLV>
5.91518

>  <SCORE.INTRA.SOLV.lig_0>
-82.9561

>  <SCORE.INTRA.VDW>
-3.14109

>  <SCORE.INTRA.VDW.0>
-3.29171

>  <SCORE.INTRA.norm>
0.108987

>  <SCORE.RESTR>
0.0120981

>  <SCORE.RESTR.CAVITY>
0.0120981

>  <SCORE.RESTR.norm>
0.000465312

>  <SCORE.SYSTEM>
0

>  <SCORE.SYSTEM.CONST>
0

>  <SCORE.SYSTEM.DIHEDRAL>
0

>  <SCORE.SYSTEM.SOLV>
0

>  <SCORE.SYSTEM.norm>
0

>  <SCORE.heavy>
26

>  <SCORE.norm>
-0.3556

>  <RMSD>
11.009

$$$$
ligand
 OpenBabel11021811433D
libRbt.so/2013.1/901 2013/11/27
 26 27  0  0  0  0  0  0  0  0999 V2000
  -21.8867  -19.7785    9.0889 C   0  0  0  0  0  0  0  0  0  0  0  0
  -24.8282  -12.8064    8.1753 C   0  0  0  0  0  0  0  0  0  0  0  0
  -22.8654   -9.8371    4.3013 P   0  0  1  0  0  0  0  0  0  0  0  0
  -25.0852  -11.0600    2.8745 P   0  0  1  0  0  0  0  0  0  0  0  0
  -24.3465  -14.7463   10.3771 C   0  0  0  0  0  0  0  0  0  0  0  0
  -23.5386  -16.4720    8.7160 C   0  0  0  0  0  0  0  0  0  0  0  0
  -23.7054  -16.0815   10.0387 C   0  0  0  0  0  0  0  0  0  0  0  0
  -23.2633  -16.9275   11.0426 C   0  0  0  0  0  0  0  0  0  0  0  0
  -23.4054  -16.5901   12.3474 N   0  0  0  0  0  0  0  0  0  0  0  0
  -22.6837  -18.1035   10.7177 N   0  0  0  0  0  0  0  0  0  0  0  0
  -22.5341  -18.4621    9.4238 C   0  0  0  0  0  0  0  0  0  0  0  0
  -22.9617  -17.6472    8.4286 N   0  0  0  0  0  0  0  0  0  0  0  0
  -21.7854  -10.6542    3.6422 O   0  5  0  0  0  0  0  0  0  0  0  0
  -25.4344   -9.7802    2.1790 O   0  0  0  0  0  0  0  0  0  0  0  0
  -21.4293  -12.0512   10.2619 S   0  0  0  0  0  0  0  0  0  0  0  0
  -22.2933  -13.4389   10.8458 C   0  0  0  0  0  0  0  0  0  0  0  0
  -23.0366   -8.4190    3.8380 O   0  0  0  0  0  0  0  0  0  0  0  0
  -24.1201  -11.8306    2.0367 O   0  5  0  0  0  0  0  0  0  0  0  0
  -23.4214  -13.6447   10.1110 N   0  0  0  0  0  0  0  0  0  0  0  0
  -24.2546  -10.6670    4.2103 O   0  0  0  0  0  0  0  0  0  0  0  0
  -26.2464  -11.8939    3.3430 O   0  0  0  0  0  0  0  0  0  0  0  0
  -23.6433  -12.7573    9.1027 C   0  0  1  0  0  0  0  0  0  0  0  0
  -22.5650  -11.7360    9.0097 C   0  0  1  0  0  0  0  0  0  0  0  0
  -22.3033  -10.5531    8.1157 C   0  0  0  0  0  0  0  0  0  0  0  0
  -22.6395  -10.9399    6.6841 C   0  0  0  0  0  0  0  0  0  0  0  0
  -22.5471   -9.7733    5.8757 O   0  0  0  0  0  0  0  0  0  0  0  0
  1 11  1  0  0  0  0
  3 13  1  6  0  0  0
  3 17  2  0  0  0  0
  3 20  1  0  0  0  0
  3 26  1  0  0  0  0
  4 14  1  6  0  0  0
  4 18  1  0  0  0  0
  4 21  2  0  0  0  0
  4 20  1  0  0  0  0
  5 19  1  0  0  0  0
  5  7  1  0  0  0  0
  6  7  2  0  0  0  0
  6 12  1  0  0  0  0
  7  8  1  0  0  0  0
  8  9  1  0  0  0  0
  8 10  2  0  0  0  0
 10 11  1  0  0  0  0
 11 12  2  0  0  0  0
 15 23  1  0  0  0  0
 15 16  1  0  0  0  0
 16 19  1  0  0  0  0
 19 22  1  0  0  0  0
 22  2  1  6  0  0  0
 22 23  1  0  0  0  0
 23 24  1  1  0  0  0
 24 25  1  0  0  0  0
 25 26  1  0  0  0  0
M  CHG  2  13  -1  18  -1
M  END
>  <CHROM.1>
-65.28516169,-68.56732785,-74.27126252,-58.89246579,139.29431528,172.95043434
-179.11303709,-67.92569287,-23.33662730,-12.90115052,7.09513171,1.25603230
1.17723315,2.60678509

>  <Name>
ligand

>  <RI>
0

>  <Rbt.Current_Directory>
/home/itssahil/PROJECTS/Mol_Feturizer/New_Systems/rnas/2GDI

>  <Rbt.Executable>
rbdock ($Id: //depot/dev/client3/rdock/2013.1/src/exe/rbdock.cxx#4 $)

>  <Rbt.Library>
libRbt.so (2013.1, Build901 2013/11/27)

>  <Rbt.Parameter_File>
/export/apps/rDock/src/rDock_2013.1_src/data/scripts/dock_solv.prm

>  <Rbt.Receptor>
prm/blind_docking_40.prm

>  <SCORE>
-17.7698

>  <SCORE.INTER>
-16.6949

>  <SCORE.INTER.CONST>
1

>  <SCORE.INTER.POLAR>
0

>  <SCORE.INTER.ROT>
8

>  <SCORE.INTER.SOLV>
23.845

>  <SCORE.INTER.VDW>
-28.0116

>  <SCORE.INTER.norm>
-0.642112

>  <SCORE.INTRA>
-1.07492

>  <SCORE.INTRA.DIHEDRAL>
-3.05295

>  <SCORE.INTRA.DIHEDRAL.0>
8.13976

>  <SCORE.INTRA.POLAR>
0

>  <SCORE.INTRA.POLAR.0>
0

>  <SCORE.INTRA.REPUL>
0

>  <SCORE.INTRA.REPUL.0>
0

>  <SCORE.INTRA.SOLV>
0.658781

>  <SCORE.INTRA.SOLV.lig_0>
-82.9561

>  <SCORE.INTRA.VDW>
0.122165

>  <SCORE.INTRA.VDW.0>
-3.29171

>  <SCORE.INTRA.norm>
-0.041343

>  <SCORE.RESTR>
0

>  <SCORE.RESTR.CAVITY>
0

>  <SCORE.RESTR.norm>
0

>  <SCORE.SYSTEM>
0

>  <SCORE.SYSTEM.CONST>
0

>  <SCORE.SYSTEM.DIHEDRAL>
0

>  <SCORE.SYSTEM.SOLV>
0

>  <SCORE.SYSTEM.norm>
0

>  <SCORE.heavy>
26

>  <SCORE.norm>
-0.683455

>  <RMSD>
11.026

$$$$
ligand
 OpenBabel11021811433D
libRbt.so/2013.1/901 2013/11/27
 26 27  0  0  0  0  0  0  0  0999 V2000
  -22.7935  -18.6780   10.6184 C   0  0  0  0  0  0  0  0  0  0  0  0
  -22.4045  -11.5172    9.8299 C   0  0  0  0  0  0  0  0  0  0  0  0
  -22.8263  -11.5325    3.9169 P   0  0  1  0  0  0  0  0  0  0  0  0
  -25.6149  -11.4121    3.0996 P   0  0  1  0  0  0  0  0  0  0  0  0
  -24.4586  -13.2041   11.1635 C   0  0  0  0  0  0  0  0  0  0  0  0
  -24.4336  -15.4149    9.9380 C   0  0  0  0  0  0  0  0  0  0  0  0
  -24.0258  -14.6540   11.0264 C   0  0  0  0  0  0  0  0  0  0  0  0
  -23.2058  -15.2393   11.9771 C   0  0  0  0  0  0  0  0  0  0  0  0
  -22.7834  -14.5373   13.0565 N   0  0  0  0  0  0  0  0  0  0  0  0
  -22.8224  -16.5258   11.8272 N   0  0  0  0  0  0  0  0  0  0  0  0
  -23.2335  -17.2461   10.7607 C   0  0  0  0  0  0  0  0  0  0  0  0
  -24.0369  -16.6898    9.8213 N   0  0  0  0  0  0  0  0  0  0  0  0
  -22.8563  -12.9906    4.2931 O   0  5  0  0  0  0  0  0  0  0  0  0
  -26.8375  -11.2159    3.9424 O   0  0  0  0  0  0  0  0  0  0  0  0
  -25.7985  -11.9384    7.6435 S   0  0  0  0  0  0  0  0  0  0  0  0
  -25.8550  -12.7826    9.1592 C   0  0  0  0  0  0  0  0  0  0  0  0
  -22.1613  -11.1684    2.6208 O   0  0  0  0  0  0  0  0  0  0  0  0
  -25.6423  -10.4518    1.9576 O   0  5  0  0  0  0  0  0  0  0  0  0
  -24.6940  -12.6067    9.8490 N   0  0  0  0  0  0  0  0  0  0  0  0
  -24.3403  -10.9589    3.9933 O   0  0  0  0  0  0  0  0  0  0  0  0
  -25.3321  -12.8250    2.6671 O   0  0  0  0  0  0  0  0  0  0  0  0
  -23.7526  -11.8348    9.2396 C   0  0  1  0  0  0  0  0  0  0  0  0
  -24.2172  -11.3227    7.9219 C   0  0  1  0  0  0  0  0  0  0  0  0
  -23.6110  -10.4545    6.8515 C   0  0  0  0  0  0  0  0  0  0  0  0
  -22.2696  -11.0451    6.4463 C   0  0  0  0  0  0  0  0  0  0  0  0
  -22.0452  -10.7379    5.0757 O   0  0  0  0  0  0  0  0  0  0  0  0
  1 11  1  0  0  0  0
  3 13  1  1  0  0  0
  3 17  2  0  0  0  0
  3 20  1  0  0  0  0
  3 26  1  0  0  0  0
  4 14  1  1  0  0  0
  4 18  1  0  0  0  0
  4 21  2  0  0  0  0
  4 20  1  0  0  0  0
  5 19  1  0  0  0  0
  5  7  1  0  0  0  0
  6  7  2  0  0  0  0
  6 12  1  0  0  0  0
  7  8  1  0  0  0  0
  8  9  1  0  0  0  0
  8 10  2  0  0  0  0
 10 11  1  0  0  0  0
 11 12  2  0  0  0  0
 15 23  1  0  0  0  0
 15 16  1  0  0  0  0
 16 19  1  0  0  0  0
 19 22  1  0  0  0  0
 22  2  1  1  0  0  0
 22 23  1  0  0  0  0
 23 24  1  6  0  0  0
 24 25  1  0  0  0  0
 25 26  1  0  0  0  0
M  CHG  2  13  -1  18  -1
M  END
>  <CHROM.1>
-63.26330566,81.43346645,-28.31093247,149.92929994,-124.92014384,149.20698770
-75.52198965,-41.71332795,-24.02567151,-12.78678157,7.10282237,-0.90028417
1.40781270,-1.73693987

>  <Name>
ligand

>  <RI>
0

>  <Rbt.Current_Directory>
/home/itssahil/PROJECTS/Mol_Feturizer/New_Systems/rnas/2GDI

>  <Rbt.Executable>
rbdock ($Id: //depot/dev/client3/rdock/2013.1/src/exe/rbdock.cxx#4 $)

>  <Rbt.Library>
libRbt.so (2013.1, Build901 2013/11/27)

>  <Rbt.Parameter_File>
/export/apps/rDock/src/rDock_2013.1_src/data/scripts/dock_solv.prm

>  <Rbt.Receptor>
prm/blind_docking_80.prm

>  <SCORE>
-11.1083

>  <SCORE.INTER>
-13.2381

>  <SCORE.INTER.CONST>
1

>  <SCORE.INTER.POLAR>
0

>  <SCORE.INTER.ROT>
8

>  <SCORE.INTER.SOLV>
16.9993

>  <SCORE.INTER.VDW>
-23.4252

>  <SCORE.INTER.norm>
-0.509159

>  <SCORE.INTRA>
2.1298

>  <SCORE.INTRA.DIHEDRAL>
2.22193

>  <SCORE.INTRA.DIHEDRAL.0>
8.13976

>  <SCORE.INTRA.POLAR>
0

>  <SCORE.INTRA.POLAR.0>
0

>  <SCORE.INTRA.REPUL>
0

>  <SCORE.INTRA.REPUL.0>
0

>  <SCORE.INTRA.SOLV>
2.67048

>  <SCORE.INTRA.SOLV.lig_0>
-82.9561

>  <SCORE.INTRA.VDW>
-0.316408

>  <SCORE.INTRA.VDW.0>
-3.29171

>  <SCORE.INTRA.norm>
0.0819153

>  <SCORE.RESTR>
0

>  <SCORE.RESTR.CAVITY>
0

>  <SCORE.RESTR.norm>
0

>  <SCORE.SYSTEM>
0

>  <SCORE.SYSTEM.CONST>
0

>  <SCORE.SYSTEM.DIHEDRAL>
0

>  <SCORE.SYSTEM.SOLV>
0

>  <SCORE.SYSTEM.norm>
0

>  <SCORE.heavy>
26

>  <SCORE.norm>
-0.427243

>  <RMSD>
11.088

$$$$
ligand
 OpenBabel11021811433D
libRbt.so/2013.1/901 2013/11/27
 26 27  0  0  0  0  0  0  0  0999 V2000
  -21.8687  -20.0419    9.3020 C   0  0  0  0  0  0  0  0  0  0  0  0
  -25.6473  -12.5408   10.4254 C   0  0  0  0  0  0  0  0  0  0  0  0
  -25.6975  -12.1248    4.5770 P   0  0  1  0  0  0  0  0  0  0  0  0
  -25.4288  -11.4015    1.7729 P   0  0  1  0  0  0  0  0  0  0  0  0
  -23.8948  -14.8999   10.8796 C   0  0  0  0  0  0  0  0  0  0  0  0
  -23.4577  -16.6876    9.1466 C   0  0  0  0  0  0  0  0  0  0  0  0
  -23.3679  -16.2638   10.4665 C   0  0  0  0  0  0  0  0  0  0  0  0
  -22.7763  -17.1036   11.3957 C   0  0  0  0  0  0  0  0  0  0  0  0
  -22.6671  -16.7342   12.6950 N   0  0  0  0  0  0  0  0  0  0  0  0
  -22.3025  -18.3060   11.0027 N   0  0  0  0  0  0  0  0  0  0  0  0
  -22.4029  -18.6967    9.7134 C   0  0  0  0  0  0  0  0  0  0  0  0
  -22.9797  -17.8882    8.7909 N   0  0  0  0  0  0  0  0  0  0  0  0
  -27.0029  -11.3739    4.6010 O   0  5  0  0  0  0  0  0  0  0  0  0
  -25.6725   -9.9307    1.6284 O   0  0  0  0  0  0  0  0  0  0  0  0
  -22.3994  -12.6168    7.9920 S   0  0  0  0  0  0  0  0  0  0  0  0
  -22.4693  -13.9694    9.0777 C   0  0  0  0  0  0  0  0  0  0  0  0
  -25.7613  -13.6218    4.6759 O   0  0  0  0  0  0  0  0  0  0  0  0
  -24.3117  -11.8085    0.8708 O   0  5  0  0  0  0  0  0  0  0  0  0
  -23.5761  -13.8927    9.8676 N   0  0  0  0  0  0  0  0  0  0  0  0
  -24.8629  -11.6474    3.2722 O   0  0  0  0  0  0  0  0  0  0  0  0
  -26.6381  -12.2864    1.6397 O   0  0  0  0  0  0  0  0  0  0  0  0
  -24.3793  -12.8132    9.6609 C   0  0  1  0  0  0  0  0  0  0  0  0
  -23.8671  -11.9354    8.5738 C   0  0  1  0  0  0  0  0  0  0  0  0
  -24.3337  -10.6495    7.9447 C   0  0  0  0  0  0  0  0  0  0  0  0
  -25.4194  -10.9693    6.9292 C   0  0  0  0  0  0  0  0  0  0  0  0
  -24.8114  -11.6174    5.8187 O   0  0  0  0  0  0  0  0  0  0  0  0
  1 11  1  0  0  0  0
  3 13  1  1  0  0  0
  3 17  2  0  0  0  0
  3 20  1  0  0  0  0
  3 26  1  0  0  0  0
  4 14  1  6  0  0  0
  4 18  1  0  0  0  0
  4 21  2  0  0  0  0
  4 20  1  0  0  0  0
  5 19  1  0  0  0  0
  5  7  1  0  0  0  0
  6  7  2  0  0  0  0
  6 12  1  0  0  0  0
  7  8  1  0  0  0  0
  8  9  1  0  0  0  0
  8 10  2  0  0  0  0
 10 11  1  0  0  0  0
 11 12  2  0  0  0  0
 15 23  1  0  0  0  0
 15 16  1  0  0  0  0
 16 19  1  0  0  0  0
 19 22  1  0  0  0  0
 22  2  1  6  0  0  0
 22 23  1  0  0  0  0
 23 24  1  1  0  0  0
 24 25  1  0  0  0  0
 25 26  1  0  0  0  0
M  CHG  2  13  -1  18  -1
M  END
>  <CHROM.1>
-42.68130931,-30.08536576,-40.27164586,97.84299632,100.43094382,-70.83350209
178.41577240,20.14861678,-24.26835185,-13.57679815,6.88872663,-0.44068962
1.25766535,-2.07019913

>  <Name>
ligand

>  <RI>
0

>  <Rbt.Current_Directory>
/home/itssahil/PROJECTS/Mol_Feturizer/New_Systems/rnas/2GDI

>  <Rbt.Executable>
rbdock ($Id: //depot/dev/client3/rdock/2013.1/src/exe/rbdock.cxx#4 $)

>  <Rbt.Library>
libRbt.so (2013.1, Build901 2013/11/27)

>  <Rbt.Parameter_File>
/export/apps/rDock/src/rDock_2013.1_src/data/scripts/dock_solv.prm

>  <Rbt.Receptor>
prm/blind_docking_60.prm

>  <SCORE>
-12.1912

>  <SCORE.INTER>
-13.9074

>  <SCORE.INTER.CONST>
1

>  <SCORE.INTER.POLAR>
0

>  <SCORE.INTER.ROT>
8

>  <SCORE.INTER.SOLV>
21.3904

>  <SCORE.INTER.VDW>
-25.3351

>  <SCORE.INTER.norm>
-0.534901

>  <SCORE.INTRA>
1.71618

>  <SCORE.INTRA.DIHEDRAL>
1.36208

>  <SCORE.INTRA.DIHEDRAL.0>
8.13976

>  <SCORE.INTRA.POLAR>
0

>  <SCORE.INTRA.POLAR.0>
0

>  <SCORE.INTRA.REPUL>
0

>  <SCORE.INTRA.REPUL.0>
0

>  <SCORE.INTRA.SOLV>
0.813982

>  <SCORE.INTRA.SOLV.lig_0>
-82.9561

>  <SCORE.INTRA.VDW>
0.628147

>  <SCORE.INTRA.VDW.0>
-3.29171

>  <SCORE.INTRA.norm>
0.0660068

>  <SCORE.RESTR>
0

>  <SCORE.RESTR.CAVITY>
0

>  <SCORE.RESTR.norm>
0

>  <SCORE.SYSTEM>
0

>  <SCORE.SYSTEM.CONST>
0

>  <SCORE.SYSTEM.DIHEDRAL>
0

>  <SCORE.SYSTEM.SOLV>
0

>  <SCORE.SYSTEM.norm>
0

>  <SCORE.heavy>
26

>  <SCORE.norm>
-0.468894

>  <RMSD>
11.090

$$$$
ligand
 OpenBabel11021811433D
libRbt.so/2013.1/901 2013/11/27
 26 27  0  0  0  0  0  0  0  0999 V2000
  -22.4873  -17.0916   12.4404 C   0  0  0  0  0  0  0  0  0  0  0  0
  -22.7090  -12.7017    7.4427 C   0  0  0  0  0  0  0  0  0  0  0  0
  -23.1263  -10.0134    4.4185 P   0  0  1  0  0  0  0  0  0  0  0  0
  -25.0769  -11.1261    2.5703 P   0  0  1  0  0  0  0  0  0  0  0  0
  -25.2176  -13.8139    8.5887 C   0  0  0  0  0  0  0  0  0  0  0  0
  -23.6722  -15.7194    9.1980 C   0  0  0  0  0  0  0  0  0  0  0  0
  -24.5047  -14.6858    9.6084 C   0  0  0  0  0  0  0  0  0  0  0  0
  -24.6614  -14.4574   10.9657 C   0  0  0  0  0  0  0  0  0  0  0  0
  -25.4639  -13.4617   11.4140 N   0  0  0  0  0  0  0  0  0  0  0  0
  -24.0068  -15.2366   11.8539 N   0  0  0  0  0  0  0  0  0  0  0  0
  -23.2037  -16.2370   11.4302 C   0  0  0  0  0  0  0  0  0  0  0  0
  -23.0396  -16.4755   10.1060 N   0  0  0  0  0  0  0  0  0  0  0  0
  -21.9745  -10.9533    4.1767 O   0  5  0  0  0  0  0  0  0  0  0  0
  -26.3607  -11.8747    2.7573 O   0  0  0  0  0  0  0  0  0  0  0  0
  -24.9032   -9.9518    9.4676 S   0  0  0  0  0  0  0  0  0  0  0  0
  -25.6300  -11.5281    9.4545 C   0  0  0  0  0  0  0  0  0  0  0  0
  -23.0616   -8.6619    3.7674 O   0  0  0  0  0  0  0  0  0  0  0  0
  -25.3651   -9.7949    1.9602 O   0  5  0  0  0  0  0  0  0  0  0  0
  -24.8532  -12.4079    8.7638 N   0  0  0  0  0  0  0  0  0  0  0  0
  -24.4997  -10.7901    4.0477 O   0  0  0  0  0  0  0  0  0  0  0  0
  -23.9785  -11.8683    1.8589 O   0  0  0  0  0  0  0  0  0  0  0  0
  -23.7044  -11.9002    8.2385 C   0  0  1  0  0  0  0  0  0  0  0  0
  -23.5346  -10.4565    8.5569 C   0  0  1  0  0  0  0  0  0  0  0  0
  -22.4888   -9.4201    8.2418 C   0  0  0  0  0  0  0  0  0  0  0  0
  -22.0631   -9.5823    6.7911 C   0  0  0  0  0  0  0  0  0  0  0  0
  -23.2334   -9.7583    6.0021 O   0  0  0  0  0  0  0  0  0  0  0  0
  1 11  1  0  0  0  0
  3 13  1  6  0  0  0
  3 17  2  0  0  0  0
  3 20  1  0  0  0  0
  3 26  1  0  0  0  0
  4 14  1  1  0  0  0
  4 18  1  0  0  0  0
  4 21  2  0  0  0  0
  4 20  1  0  0  0  0
  5 19  1  0  0  0  0
  5  7  1  0  0  0  0
  6  7  2  0  0  0  0
  6 12  1  0  0  0  0
  7  8  1  0  0  0  0
  8  9  1  0  0  0  0
  8 10  2  0  0  0  0
 10 11  1  0  0  0  0
 11 12  2  0  0  0  0
 15 23  1  0  0  0  0
 15 16  1  0  0  0  0
 16 19  1  0  0  0  0
 19 22  1  0  0  0  0
 22  2  1  1  0  0  0
 22 23  1  0  0  0  0
 23 24  1  6  0  0  0
 24 25  1  0  0  0  0
 25 26  1  0  0  0  0
M  CHG  2  13  -1  18  -1
M  END
>  <CHROM.1>
-75.10040387,-97.79715670,-121.50897267,179.07845132,-136.68535658,44.60957617
-177.71630479,40.63656016,-23.99862685,-11.97500532,7.03813375,1.37324095
1.42214032,2.30086145

>  <Name>
ligand

>  <RI>
0

>  <Rbt.Current_Directory>
/home/itssahil/PROJECTS/Mol_Feturizer/New_Systems/rnas/2GDI

>  <Rbt.Executable>
rbdock ($Id: //depot/dev/client3/rdock/2013.1/src/exe/rbdock.cxx#4 $)

>  <Rbt.Library>
libRbt.so (2013.1, Build901 2013/11/27)

>  <Rbt.Parameter_File>
/export/apps/rDock/src/rDock_2013.1_src/data/scripts/dock_solv.prm

>  <Rbt.Receptor>
prm/blind_docking_100.prm

>  <SCORE>
-11.0578

>  <SCORE.INTER>
-12.3268

>  <SCORE.INTER.CONST>
1

>  <SCORE.INTER.POLAR>
0

>  <SCORE.INTER.ROT>
8

>  <SCORE.INTER.SOLV>
29.234

>  <SCORE.INTER.VDW>
-26.8959

>  <SCORE.INTER.norm>
-0.474108

>  <SCORE.INTRA>
1.26602

>  <SCORE.INTRA.DIHEDRAL>
-1.5268

>  <SCORE.INTRA.DIHEDRAL.0>
8.13976

>  <SCORE.INTRA.POLAR>
0

>  <SCORE.INTRA.POLAR.0>
0

>  <SCORE.INTRA.REPUL>
0

>  <SCORE.INTRA.REPUL.0>
0

>  <SCORE.INTRA.SOLV>
4.49782

>  <SCORE.INTRA.SOLV.lig_0>
-82.9561

>  <SCORE.INTRA.VDW>
-0.219488

>  <SCORE.INTRA.VDW.0>
-3.29171

>  <SCORE.INTRA.norm>
0.0486931

>  <SCORE.RESTR>
0.00296469

>  <SCORE.RESTR.CAVITY>
0.00296469

>  <SCORE.RESTR.norm>
0.000114027

>  <SCORE.SYSTEM>
0

>  <SCORE.SYSTEM.CONST>
0

>  <SCORE.SYSTEM.DIHEDRAL>
0

>  <SCORE.SYSTEM.SOLV>
0

>  <SCORE.SYSTEM.norm>
0

>  <SCORE.heavy>
26

>  <SCORE.norm>
-0.4253

>  <RMSD>
11.096

$$$$
ligand
 OpenBabel11021811433D
libRbt.so/2013.1/901 2013/11/27
 26 27  0  0  0  0  0  0  0  0999 V2000
  -19.6164  -16.0952   14.1181 C   0  0  0  0  0  0  0  0  0  0  0  0
  -24.1308  -14.2863    9.0187 C   0  0  0  0  0  0  0  0  0  0  0  0
  -24.5878  -11.5592    5.1516 P   0  0  1  0  0  0  0  0  0  0  0  0
  -25.2764  -11.8131    2.3373 P   0  0  1  0  0  0  0  0  0  0  0  0
  -24.2021  -16.7299   10.7119 C   0  0  0  0  0  0  0  0  0  0  0  0
  -22.7692  -15.3723   12.2911 C   0  0  0  0  0  0  0  0  0  0  0  0
  -22.9839  -16.5603   11.6038 C   0  0  0  0  0  0  0  0  0  0  0  0
  -22.0725  -17.5920   11.7584 C   0  0  0  0  0  0  0  0  0  0  0  0
  -22.2391  -18.7688   11.1076 N   0  0  0  0  0  0  0  0  0  0  0  0
  -21.0040  -17.4234   12.5675 N   0  0  0  0  0  0  0  0  0  0  0  0
  -20.8159  -16.2578   13.2242 C   0  0  0  0  0  0  0  0  0  0  0  0
  -21.6969  -15.2373   13.0839 N   0  0  0  0  0  0  0  0  0  0  0  0
  -23.6795  -10.4384    4.7188 O   0  5  0  0  0  0  0  0  0  0  0  0
  -26.4843  -12.3304    1.6185 O   0  0  0  0  0  0  0  0  0  0  0  0
  -23.0512  -17.6516    7.0223 S   0  0  0  0  0  0  0  0  0  0  0  0
  -23.4561  -17.9455    8.6844 C   0  0  0  0  0  0  0  0  0  0  0  0
  -25.3322  -11.3835    6.4438 O   0  0  0  0  0  0  0  0  0  0  0  0
  -25.1205  -10.3556    2.0568 O   0  5  0  0  0  0  0  0  0  0  0  0
  -23.8098  -16.7852    9.3036 N   0  0  0  0  0  0  0  0  0  0  0  0
  -25.5916  -11.8993    3.9254 O   0  0  0  0  0  0  0  0  0  0  0  0
  -24.0032  -12.5868    2.1285 O   0  0  0  0  0  0  0  0  0  0  0  0
  -23.7776  -15.6657    8.5297 C   0  0  1  0  0  0  0  0  0  0  0  0
  -23.3671  -15.9648    7.1309 C   0  0  1  0  0  0  0  0  0  0  0  0
  -23.1654  -15.1385    5.8885 C   0  0  0  0  0  0  0  0  0  0  0  0
  -24.2627  -14.0882    5.8180 C   0  0  0  0  0  0  0  0  0  0  0  0
  -23.6953  -12.8870    5.3098 O   0  0  0  0  0  0  0  0  0  0  0  0
  1 11  1  0  0  0  0
  3 13  1  6  0  0  0
  3 17  2  0  0  0  0
  3 20  1  0  0  0  0
  3 26  1  0  0  0  0
  4 14  1  6  0  0  0
  4 18  1  0  0  0  0
  4 21  2  0  0  0  0
  4 20  1  0  0  0  0
  5 19  1  0  0  0  0
  5  7  1  0  0  0  0
  6  7  2  0  0  0  0
  6 12  1  0  0  0  0
  7  8  1  0  0  0  0
  8  9  1  0  0  0  0
  8 10  2  0  0  0  0
 10 11  1  0  0  0  0
 11 12  2  0  0  0  0
 15 23  1  0  0  0  0
 15 16  1  0  0  0  0
 16 19  1  0  0  0  0
 19 22  1  0  0  0  0
 22  2  1  6  0  0  0
 22 23  1  0  0  0  0
 23 24  1  1  0  0  0
 24 25  1  0  0  0  0
 25 26  1  0  0  0  0
M  CHG  2  13  -1  18  -1
M  END
>  <CHROM.1>
33.43028395,87.27359861,110.86315121,175.58237107,141.67603952,142.25907388
-178.18320976,174.72099723,-23.63170312,-14.44640841,7.32389160,-0.41269930
-1.24519480,0.10571784

>  <Name>
ligand

>  <RI>
0

>  <Rbt.Current_Directory>
/home/itssahil/PROJECTS/Mol_Feturizer/New_Systems/rnas/2GDI

>  <Rbt.Executable>
rbdock ($Id: //depot/dev/client3/rdock/2013.1/src/exe/rbdock.cxx#4 $)

>  <Rbt.Library>
libRbt.so (2013.1, Build901 2013/11/27)

>  <Rbt.Parameter_File>
/export/apps/rDock/src/rDock_2013.1_src/data/scripts/dock_solv.prm

>  <Rbt.Receptor>
prm/blind_docking_60.prm

>  <SCORE>
-9.5287

>  <SCORE.INTER>
-11.9503

>  <SCORE.INTER.CONST>
1

>  <SCORE.INTER.POLAR>
0

>  <SCORE.INTER.ROT>
8

>  <SCORE.INTER.SOLV>
14.9161

>  <SCORE.INTER.VDW>
-21.8722

>  <SCORE.INTER.norm>
-0.459626

>  <SCORE.INTRA>
2.41402

>  <SCORE.INTRA.DIHEDRAL>
1.32879

>  <SCORE.INTRA.DIHEDRAL.0>
8.13976

>  <SCORE.INTRA.POLAR>
0

>  <SCORE.INTRA.POLAR.0>
0

>  <SCORE.INTRA.REPUL>
0

>  <SCORE.INTRA.REPUL.0>
0

>  <SCORE.INTRA.SOLV>
3.7832

>  <SCORE.INTRA.SOLV.lig_0>
-82.9561

>  <SCORE.INTRA.VDW>
-0.141973

>  <SCORE.INTRA.VDW.0>
-3.29171

>  <SCORE.INTRA.norm>
0.0928471

>  <SCORE.RESTR>
0.00755562

>  <SCORE.RESTR.CAVITY>
0.00755562

>  <SCORE.RESTR.norm>
0.000290601

>  <SCORE.SYSTEM>
0

>  <SCORE.SYSTEM.CONST>
0

>  <SCORE.SYSTEM.DIHEDRAL>
0

>  <SCORE.SYSTEM.SOLV>
0

>  <SCORE.SYSTEM.norm>
0

>  <SCORE.heavy>
26

>  <SCORE.norm>
-0.366488

>  <RMSD>
11.119

$$$$
ligand
 OpenBabel11021811433D
libRbt.so/2013.1/901 2013/11/27
 26 27  0  0  0  0  0  0  0  0999 V2000
  -21.9495  -19.5721    8.8821 C   0  0  0  0  0  0  0  0  0  0  0  0
  -25.6948  -12.0213    9.6529 C   0  0  0  0  0  0  0  0  0  0  0  0
  -23.3981  -10.5634    5.2347 P   0  0  1  0  0  0  0  0  0  0  0  0
  -22.3192  -12.3145    3.1784 P   0  0  1  0  0  0  0  0  0  0  0  0
  -24.5613  -14.6744   10.3737 C   0  0  0  0  0  0  0  0  0  0  0  0
  -23.7543  -16.3337    8.6457 C   0  0  0  0  0  0  0  0  0  0  0  0
  -23.8797  -15.9745    9.9818 C   0  0  0  0  0  0  0  0  0  0  0  0
  -23.3590  -16.8185   10.9489 C   0  0  0  0  0  0  0  0  0  0  0  0
  -23.4582  -16.5111   12.2650 N   0  0  0  0  0  0  0  0  0  0  0  0
  -22.7449  -17.9625   10.5763 N   0  0  0  0  0  0  0  0  0  0  0  0
  -22.6367  -18.2910    9.2704 C   0  0  0  0  0  0  0  0  0  0  0  0
  -23.1414  -17.4776    8.3107 N   0  0  0  0  0  0  0  0  0  0  0  0
  -23.2845   -9.1869    4.6340 O   0  5  0  0  0  0  0  0  0  0  0  0
  -22.9296  -11.3981    2.1629 O   0  0  0  0  0  0  0  0  0  0  0  0
  -21.6364  -12.0673    9.7141 S   0  0  0  0  0  0  0  0  0  0  0  0
  -22.3415  -13.6020   10.1152 C   0  0  0  0  0  0  0  0  0  0  0  0
  -24.7445  -11.2266    5.1889 O   0  0  0  0  0  0  0  0  0  0  0  0
  -20.8953  -12.5758    2.8160 O   0  5  0  0  0  0  0  0  0  0  0  0
  -23.7009  -13.5286   10.0789 N   0  0  0  0  0  0  0  0  0  0  0  0
  -22.2489  -11.4986    4.5778 O   0  0  0  0  0  0  0  0  0  0  0  0
  -23.0862  -13.5742    3.4752 O   0  0  0  0  0  0  0  0  0  0  0  0
  -24.2213  -12.3145    9.7491 C   0  0  1  0  0  0  0  0  0  0  0  0
  -23.1605  -11.3073    9.4759 C   0  0  1  0  0  0  0  0  0  0  0  0
  -23.1584   -9.8536    9.0839 C   0  0  0  0  0  0  0  0  0  0  0  0
  -23.7795   -9.7203    7.7023 C   0  0  0  0  0  0  0  0  0  0  0  0
  -22.9854  -10.4629    6.7851 O   0  0  0  0  0  0  0  0  0  0  0  0
  1 11  1  0  0  0  0
  3 13  1  6  0  0  0
  3 17  2  0  0  0  0
  3 20  1  0  0  0  0
  3 26  1  0  0  0  0
  4 14  1  6  0  0  0
  4 18  1  0  0  0  0
  4 21  2  0  0  0  0
  4 20  1  0  0  0  0
  5 19  1  0  0  0  0
  5  7  1  0  0  0  0
  6  7  2  0  0  0  0
  6 12  1  0  0  0  0
  7  8  1  0  0  0  0
  8  9  1  0  0  0  0
  8 10  2  0  0  0  0
 10 11  1  0  0  0  0
 11 12  2  0  0  0  0
 15 23  1  0  0  0  0
 15 16  1  0  0  0  0
 16 19  1  0  0  0  0
 19 22  1  0  0  0  0
 22  2  1  6  0  0  0
 22 23  1  0  0  0  0
 23 24  1  1  0  0  0
 24 25  1  0  0  0  0
 25 26  1  0  0  0  0
M  CHG  2  13  -1  18  -1
M  END
>  <CHROM.1>
-84.56539920,-30.52109849,-73.75593475,43.78251263,116.78047422,-61.06219518
178.17418059,65.78615328,-23.08847006,-13.15844214,7.41737302,-1.74638509
1.36028998,-0.66290522

>  <Name>
ligand

>  <RI>
0

>  <Rbt.Current_Directory>
/home/itssahil/PROJECTS/Mol_Feturizer/New_Systems/rnas/2GDI

>  <Rbt.Executable>
rbdock ($Id: //depot/dev/client3/rdock/2013.1/src/exe/rbdock.cxx#4 $)

>  <Rbt.Library>
libRbt.so (2013.1, Build901 2013/11/27)

>  <Rbt.Parameter_File>
/export/apps/rDock/src/rDock_2013.1_src/data/scripts/dock_solv.prm

>  <Rbt.Receptor>
prm/blind_docking_100.prm

>  <SCORE>
-10.5958

>  <SCORE.INTER>
-9.88399

>  <SCORE.INTER.CONST>
1

>  <SCORE.INTER.POLAR>
0

>  <SCORE.INTER.ROT>
8

>  <SCORE.INTER.SOLV>
16.87

>  <SCORE.INTER.VDW>
-21.146

>  <SCORE.INTER.norm>
-0.380153

>  <SCORE.INTRA>
-1.30407

>  <SCORE.INTRA.DIHEDRAL>
-2.41508

>  <SCORE.INTRA.DIHEDRAL.0>
8.13976

>  <SCORE.INTRA.POLAR>
0

>  <SCORE.INTRA.POLAR.0>
0

>  <SCORE.INTRA.REPUL>
0

>  <SCORE.INTRA.REPUL.0>
0

>  <SCORE.INTRA.SOLV>
0.338655

>  <SCORE.INTRA.SOLV.lig_0>
-82.9561

>  <SCORE.INTRA.VDW>
-0.265854

>  <SCORE.INTRA.VDW.0>
-3.29171

>  <SCORE.INTRA.norm>
-0.0501565

>  <SCORE.RESTR>
0.592263

>  <SCORE.RESTR.CAVITY>
0.592263

>  <SCORE.RESTR.norm>
0.0227794

>  <SCORE.SYSTEM>
0

>  <SCORE.SYSTEM.CONST>
0

>  <SCORE.SYSTEM.DIHEDRAL>
0

>  <SCORE.SYSTEM.SOLV>
0

>  <SCORE.SYSTEM.norm>
0

>  <SCORE.heavy>
26

>  <SCORE.norm>
-0.40753

>  <RMSD>
11.138

$$$$
ligand
 OpenBabel11021811433D
libRbt.so/2013.1/901 2013/11/27
 26 27  0  0  0  0  0  0  0  0999 V2000
  -19.5147  -15.8880   14.0814 C   0  0  0  0  0  0  0  0  0  0  0  0
  -25.2715  -13.6072    9.2124 C   0  0  0  0  0  0  0  0  0  0  0  0
  -23.1058  -11.0066    4.6146 P   0  0  1  0  0  0  0  0  0  0  0  0
  -25.1768  -10.9589    2.5731 P   0  0  1  0  0  0  0  0  0  0  0  0
  -24.4058  -15.7660   11.0654 C   0  0  0  0  0  0  0  0  0  0  0  0
  -22.5239  -14.6234   12.3077 C   0  0  0  0  0  0  0  0  0  0  0  0
  -23.1074  -15.7995   11.8537 C   0  0  0  0  0  0  0  0  0  0  0  0
  -22.4892  -17.0043   12.1456 C   0  0  0  0  0  0  0  0  0  0  0  0
  -23.0202  -18.1773   11.7232 N   0  0  0  0  0  0  0  0  0  0  0  0
  -21.3427  -17.0106   12.8599 N   0  0  0  0  0  0  0  0  0  0  0  0
  -20.7935  -15.8534   13.2890 C   0  0  0  0  0  0  0  0  0  0  0  0
  -21.3841  -14.6653   13.0117 N   0  0  0  0  0  0  0  0  0  0  0  0
  -21.7937  -11.3634    3.9669 O   0  5  0  0  0  0  0  0  0  0  0  0
  -26.2382  -11.4873    3.4883 O   0  0  0  0  0  0  0  0  0  0  0  0
  -23.3486  -16.6519    7.3392 S   0  0  0  0  0  0  0  0  0  0  0  0
  -23.4901  -16.8872    9.0531 C   0  0  0  0  0  0  0  0  0  0  0  0
  -23.0526  -10.2206    5.8929 O   0  0  0  0  0  0  0  0  0  0  0  0
  -25.7340   -9.8326    1.7680 O   0  5  0  0  0  0  0  0  0  0  0  0
  -24.1418  -15.8387    9.6283 N   0  0  0  0  0  0  0  0  0  0  0  0
  -24.0368  -10.2797    3.5047 O   0  0  0  0  0  0  0  0  0  0  0  0
  -24.4637  -11.9813    1.7307 O   0  0  0  0  0  0  0  0  0  0  0  0
  -24.5386  -14.8496    8.7812 C   0  0  1  0  0  0  0  0  0  0  0  0
  -24.1784  -15.1460    7.3682 C   0  0  1  0  0  0  0  0  0  0  0  0
  -24.3625  -14.4286    6.0572 C   0  0  0  0  0  0  0  0  0  0  0  0
  -23.5167  -13.1649    6.0700 C   0  0  0  0  0  0  0  0  0  0  0  0
  -23.8829  -12.3745    4.9456 O   0  0  0  0  0  0  0  0  0  0  0  0
  1 11  1  0  0  0  0
  3 13  1  6  0  0  0
  3 17  2  0  0  0  0
  3 20  1  0  0  0  0
  3 26  1  0  0  0  0
  4 14  1  1  0  0  0
  4 18  1  0  0  0  0
  4 21  2  0  0  0  0
  4 20  1  0  0  0  0
  5 19  1  0  0  0  0
  5  7  1  0  0  0  0
  6  7  2  0  0  0  0
  6 12  1  0  0  0  0
  7  8  1  0  0  0  0
  8  9  1  0  0  0  0
  8 10  2  0  0  0  0
 10 11  1  0  0  0  0
 11 12  2  0  0  0  0
 15 23  1  0  0  0  0
 15 16  1  0  0  0  0
 16 19  1  0  0  0  0
 19 22  1  0  0  0  0
 22  2  1  6  0  0  0
 22 23  1  0  0  0  0
 23 24  1  1  0  0  0
 24 25  1  0  0  0  0
 25 26  1  0  0  0  0
M  CHG  2  13  -1  18  -1
M  END
>  <CHROM.1>
95.78793041,59.64107656,97.61796720,62.54049800,-111.76045806,-169.36837930
-176.12163103,77.74871241,-23.50881975,-13.74689394,7.40699716,-1.22512708
-0.86890988,-0.76833769

>  <Name>
ligand

>  <RI>
0

>  <Rbt.Current_Directory>
/home/itssahil/PROJECTS/Mol_Feturizer/New_Systems/rnas/2GDI

>  <Rbt.Executable>
rbdock ($Id: //depot/dev/client3/rdock/2013.1/src/exe/rbdock.cxx#4 $)

>  <Rbt.Library>
libRbt.so (2013.1, Build901 2013/11/27)

>  <Rbt.Parameter_File>
/export/apps/rDock/src/rDock_2013.1_src/data/scripts/dock_solv.prm

>  <Rbt.Receptor>
prm/blind_docking_60.prm

>  <SCORE>
-15.2053

>  <SCORE.INTER>
-14.7392

>  <SCORE.INTER.CONST>
1

>  <SCORE.INTER.POLAR>
0

>  <SCORE.INTER.ROT>
8

>  <SCORE.INTER.SOLV>
21.4439

>  <SCORE.INTER.VDW>
-25.9074

>  <SCORE.INTER.norm>
-0.566891

>  <SCORE.INTRA>
-0.466127

>  <SCORE.INTRA.DIHEDRAL>
-0.910001

>  <SCORE.INTRA.DIHEDRAL.0>
8.13976

>  <SCORE.INTRA.POLAR>
0

>  <SCORE.INTRA.POLAR.0>
0

>  <SCORE.INTRA.REPUL>
0

>  <SCORE.INTRA.REPUL.0>
0

>  <SCORE.INTRA.SOLV>
0.797152

>  <SCORE.INTRA.SOLV.lig_0>
-82.9561

>  <SCORE.INTRA.VDW>
-0.409702

>  <SCORE.INTRA.VDW.0>
-3.29171

>  <SCORE.INTRA.norm>
-0.0179279

>  <SCORE.RESTR>
0

>  <SCORE.RESTR.CAVITY>
0

>  <SCORE.RESTR.norm>
0

>  <SCORE.SYSTEM>
0

>  <SCORE.SYSTEM.CONST>
0

>  <SCORE.SYSTEM.DIHEDRAL>
0

>  <SCORE.SYSTEM.SOLV>
0

>  <SCORE.SYSTEM.norm>
0

>  <SCORE.heavy>
26

>  <SCORE.norm>
-0.584819

>  <RMSD>
11.210

$$$$
ligand
 OpenBabel11021811433D
libRbt.so/2013.1/901 2013/11/27
 26 27  0  0  0  0  0  0  0  0999 V2000
  -21.9232  -19.8336   10.0055 C   0  0  0  0  0  0  0  0  0  0  0  0
  -22.4517  -12.6230    8.0944 C   0  0  0  0  0  0  0  0  0  0  0  0
  -23.1810   -9.3449    7.0453 P   0  0  1  0  0  0  0  0  0  0  0  0
  -23.3689  -10.2220    4.2786 P   0  0  1  0  0  0  0  0  0  0  0  0
  -24.0445  -15.0790    7.5708 C   0  0  0  0  0  0  0  0  0  0  0  0
  -23.3010  -16.4090    9.5879 C   0  0  0  0  0  0  0  0  0  0  0  0
  -23.4740  -16.3329    8.2116 C   0  0  0  0  0  0  0  0  0  0  0  0
  -23.1287  -17.4278    7.4365 C   0  0  0  0  0  0  0  0  0  0  0  0
  -23.2784  -17.4001    6.0899 N   0  0  0  0  0  0  0  0  0  0  0  0
  -22.6362  -18.5371    8.0295 N   0  0  0  0  0  0  0  0  0  0  0  0
  -22.4755  -18.5865    9.3700 C   0  0  0  0  0  0  0  0  0  0  0  0
  -22.8071  -17.5241   10.1438 N   0  0  0  0  0  0  0  0  0  0  0  0
  -21.7061   -9.6483    7.0810 O   0  5  0  0  0  0  0  0  0  0  0  0
  -23.2754   -8.8011    3.8142 O   0  0  0  0  0  0  0  0  0  0  0  0
  -25.7315  -12.9420   10.4646 S   0  0  0  0  0  0  0  0  0  0  0  0
  -25.5575  -14.2694    9.3597 C   0  0  0  0  0  0  0  0  0  0  0  0
  -23.5867   -7.8998    7.0012 O   0  0  0  0  0  0  0  0  0  0  0  0
  -22.0033  -10.8234    4.3082 O   0  5  0  0  0  0  0  0  0  0  0  0
  -24.4438  -14.1106    8.5921 N   0  0  0  0  0  0  0  0  0  0  0  0
  -23.8418  -10.1882    5.8291 O   0  0  0  0  0  0  0  0  0  0  0  0
  -24.3711  -11.0853    3.5620 O   0  0  0  0  0  0  0  0  0  0  0  0
  -23.7136  -12.9866    8.8306 C   0  0  1  0  0  0  0  0  0  0  0  0
  -24.2992  -12.1608    9.9212 C   0  0  1  0  0  0  0  0  0  0  0  0
  -23.9255  -10.8588   10.5788 C   0  0  0  0  0  0  0  0  0  0  0  0
  -23.1245  -10.0258    9.5906 C   0  0  0  0  0  0  0  0  0  0  0  0
  -23.8477   -9.9716    8.3670 O   0  0  0  0  0  0  0  0  0  0  0  0
  1 11  1  0  0  0  0
  3 13  1  1  0  0  0
  3 17  2  0  0  0  0
  3 20  1  0  0  0  0
  3 26  1  0  0  0  0
  4 14  1  6  0  0  0
  4 18  1  0  0  0  0
  4 21  2  0  0  0  0
  4 20  1  0  0  0  0
  5 19  1  0  0  0  0
  5  7  1  0  0  0  0
  6  7  2  0  0  0  0
  6 12  1  0  0  0  0
  7  8  1  0  0  0  0
  8  9  1  0  0  0  0
  8 10  2  0  0  0  0
 10 11  1  0  0  0  0
 11 12  2  0  0  0  0
 15 23  1  0  0  0  0
 15 16  1  0  0  0  0
 16 19  1  0  0  0  0
 19 22  1  0  0  0  0
 22  2  1  1  0  0  0
 22 23  1  0  0  0  0
 23 24  1  6  0  0  0
 24 25  1  0  0  0  0
 25 26  1  0  0  0  0
M  CHG  2  13  -1  18  -1
M  END
>  <CHROM.1>
-52.60141664,-73.92317074,-4.47106634,-52.02238862,-152.45476240,50.77781796
-171.17570463,33.28679381,-23.50550987,-12.80019819,7.65161031,-1.51177600
1.30193680,-0.44017374

>  <Name>
ligand

>  <RI>
0

>  <Rbt.Current_Directory>
/home/itssahil/PROJECTS/Mol_Feturizer/New_Systems/rnas/2GDI

>  <Rbt.Executable>
rbdock ($Id: //depot/dev/client3/rdock/2013.1/src/exe/rbdock.cxx#4 $)

>  <Rbt.Library>
libRbt.so (2013.1, Build901 2013/11/27)

>  <Rbt.Parameter_File>
/export/apps/rDock/src/rDock_2013.1_src/data/scripts/dock_solv.prm

>  <Rbt.Receptor>
prm/blind_docking_40.prm

>  <SCORE>
-14.2201

>  <SCORE.INTER>
-15.6492

>  <SCORE.INTER.CONST>
1

>  <SCORE.INTER.POLAR>
0

>  <SCORE.INTER.ROT>
8

>  <SCORE.INTER.SOLV>
21.1429

>  <SCORE.INTER.VDW>
-26.4138

>  <SCORE.INTER.norm>
-0.601894

>  <SCORE.INTRA>
1.42908

>  <SCORE.INTRA.DIHEDRAL>
-0.888643

>  <SCORE.INTRA.DIHEDRAL.0>
8.13976

>  <SCORE.INTRA.POLAR>
0

>  <SCORE.INTRA.POLAR.0>
0

>  <SCORE.INTRA.REPUL>
0

>  <SCORE.INTRA.REPUL.0>
0

>  <SCORE.INTRA.SOLV>
1.76438

>  <SCORE.INTRA.SOLV.lig_0>
-82.9561

>  <SCORE.INTRA.VDW>
0.991216

>  <SCORE.INTRA.VDW.0>
-3.29171

>  <SCORE.INTRA.norm>
0.0549647

>  <SCORE.RESTR>
0

>  <SCORE.RESTR.CAVITY>
0

>  <SCORE.RESTR.norm>
0

>  <SCORE.SYSTEM>
0

>  <SCORE.SYSTEM.CONST>
0

>  <SCORE.SYSTEM.DIHEDRAL>
0

>  <SCORE.SYSTEM.SOLV>
0

>  <SCORE.SYSTEM.norm>
0

>  <SCORE.heavy>
26

>  <SCORE.norm>
-0.546929

>  <RMSD>
11.238

$$$$
ligand
 OpenBabel11021811433D
libRbt.so/2013.1/901 2013/11/27
 26 27  0  0  0  0  0  0  0  0999 V2000
  -22.1945  -10.9324    3.3378 C   0  0  0  0  0  0  0  0  0  0  0  0
  -23.9123  -10.6434   10.9418 C   0  0  0  0  0  0  0  0  0  0  0  0
  -23.2623  -16.9029   10.9120 P   0  0  1  0  0  0  0  0  0  0  0  0
  -25.1432  -18.3810   12.5661 P   0  0  1  0  0  0  0  0  0  0  0  0
  -25.1176  -10.2968    8.2455 C   0  0  0  0  0  0  0  0  0  0  0  0
  -24.8551  -11.2348    5.9127 C   0  0  0  0  0  0  0  0  0  0  0  0
  -24.3388  -10.4721    6.9528 C   0  0  0  0  0  0  0  0  0  0  0  0
  -23.1060   -9.8636    6.7827 C   0  0  0  0  0  0  0  0  0  0  0  0
  -22.5614   -9.1110    7.7693 N   0  0  0  0  0  0  0  0  0  0  0  0
  -22.4379  -10.0221    5.6195 N   0  0  0  0  0  0  0  0  0  0  0  0
  -22.9601  -10.7702    4.6231 C   0  0  0  0  0  0  0  0  0  0  0  0
  -24.1645  -11.3738    4.7725 N   0  0  0  0  0  0  0  0  0  0  0  0
  -22.1813  -17.3041   11.8810 O   0  5  0  0  0  0  0  0  0  0  0  0
  -26.6402  -18.4310   12.5507 O   0  0  0  0  0  0  0  0  0  0  0  0
  -25.7738  -13.9824    9.5771 S   0  0  0  0  0  0  0  0  0  0  0  0
  -25.8514  -12.6547    8.4616 C   0  0  0  0  0  0  0  0  0  0  0  0
  -23.2229  -17.5171    9.5423 O   0  0  0  0  0  0  0  0  0  0  0  0
  -24.6011  -19.5896   11.8786 O   0  5  0  0  0  0  0  0  0  0  0  0
  -25.2125  -11.5645    8.9695 N   0  0  0  0  0  0  0  0  0  0  0  0
  -24.6968  -17.1349   11.6297 O   0  0  0  0  0  0  0  0  0  0  0  0
  -24.5054  -18.1370   13.9065 O   0  0  0  0  0  0  0  0  0  0  0  0
  -24.6602  -11.7217   10.2039 C   0  0  1  0  0  0  0  0  0  0  0  0
  -24.8665  -13.0954   10.7377 C   0  0  1  0  0  0  0  0  0  0  0  0
  -24.4859  -13.8033   12.0108 C   0  0  0  0  0  0  0  0  0  0  0  0
  -23.1153  -14.4356   11.8262 C   0  0  0  0  0  0  0  0  0  0  0  0
  -23.1775  -15.3108   10.7067 O   0  0  0  0  0  0  0  0  0  0  0  0
  1 11  1  0  0  0  0
  3 13  1  1  0  0  0
  3 17  2  0  0  0  0
  3 20  1  0  0  0  0
  3 26  1  0  0  0  0
  4 14  1  1  0  0  0
  4 18  1  0  0  0  0
  4 21  2  0  0  0  0
  4 20  1  0  0  0  0
  5 19  1  0  0  0  0
  5  7  1  0  0  0  0
  6  7  2  0  0  0  0
  6 12  1  0  0  0  0
  7  8  1  0  0  0  0
  8  9  1  0  0  0  0
  8 10  2  0  0  0  0
 10 11  1  0  0  0  0
 11 12  2  0  0  0  0
 15 23  1  0  0  0  0
 15 16  1  0  0  0  0
 16 19  1  0  0  0  0
 19 22  1  0  0  0  0
 22  2  1  6  0  0  0
 22 23  1  0  0  0  0
 23 24  1  1  0  0  0
 24 25  1  0  0  0  0
 25 26  1  0  0  0  0
M  CHG  2  13  -1  18  -1
M  END
>  <CHROM.1>
-40.94103057,-62.75955182,67.33709128,-158.54627319,92.12175528,-57.20936363
-103.40391511,-49.46750186,-24.18263531,-14.17479428,9.65227015,-1.32924552
-1.16434084,2.68952793

>  <Name>
ligand

>  <RI>
0

>  <Rbt.Current_Directory>
/home/itssahil/PROJECTS/Mol_Feturizer/New_Systems/rnas/2GDI

>  <Rbt.Executable>
rbdock ($Id: //depot/dev/client3/rdock/2013.1/src/exe/rbdock.cxx#4 $)

>  <Rbt.Library>
libRbt.so (2013.1, Build901 2013/11/27)

>  <Rbt.Parameter_File>
/export/apps/rDock/src/rDock_2013.1_src/data/scripts/dock_solv.prm

>  <Rbt.Receptor>
prm/blind_docking_40.prm

>  <SCORE>
-11.3806

>  <SCORE.INTER>
-14.5568

>  <SCORE.INTER.CONST>
1

>  <SCORE.INTER.POLAR>
0

>  <SCORE.INTER.ROT>
8

>  <SCORE.INTER.SOLV>
17.4553

>  <SCORE.INTER.VDW>
-24.4563

>  <SCORE.INTER.norm>
-0.559877

>  <SCORE.INTRA>
2.85388

>  <SCORE.INTRA.DIHEDRAL>
4.20364

>  <SCORE.INTRA.DIHEDRAL.0>
8.13976

>  <SCORE.INTRA.POLAR>
0

>  <SCORE.INTRA.POLAR.0>
0

>  <SCORE.INTRA.REPUL>
0

>  <SCORE.INTRA.REPUL.0>
0

>  <SCORE.INTRA.SOLV>
3.4059

>  <SCORE.INTRA.SOLV.lig_0>
-82.9561

>  <SCORE.INTRA.VDW>
-0.950883

>  <SCORE.INTRA.VDW.0>
-3.29171

>  <SCORE.INTRA.norm>
0.109765

>  <SCORE.RESTR>
0.322301

>  <SCORE.RESTR.CAVITY>
0.322301

>  <SCORE.RESTR.norm>
0.0123962

>  <SCORE.SYSTEM>
0

>  <SCORE.SYSTEM.CONST>
0

>  <SCORE.SYSTEM.DIHEDRAL>
0

>  <SCORE.SYSTEM.SOLV>
0

>  <SCORE.SYSTEM.norm>
0

>  <SCORE.heavy>
26

>  <SCORE.norm>
-0.437716

>  <RMSD>
11.242

$$$$
ligand
 OpenBabel11021811433D
libRbt.so/2013.1/901 2013/11/27
 26 27  0  0  0  0  0  0  0  0999 V2000
  -21.9816  -19.4679    8.9345 C   0  0  0  0  0  0  0  0  0  0  0  0
  -21.9502  -12.6995   10.4676 C   0  0  0  0  0  0  0  0  0  0  0  0
  -23.2170  -10.7159    5.0480 P   0  0  1  0  0  0  0  0  0  0  0  0
  -25.8935  -11.8539    5.0454 P   0  0  1  0  0  0  0  0  0  0  0  0
  -23.8355  -14.7133   11.5783 C   0  0  0  0  0  0  0  0  0  0  0  0
  -23.3533  -16.0614    9.4950 C   0  0  0  0  0  0  0  0  0  0  0  0
  -23.3547  -15.9748   10.8814 C   0  0  0  0  0  0  0  0  0  0  0  0
  -22.8963  -17.0564   11.6156 C   0  0  0  0  0  0  0  0  0  0  0  0
  -22.8797  -17.0191   12.9701 N   0  0  0  0  0  0  0  0  0  0  0  0
  -22.4606  -18.1624   10.9741 N   0  0  0  0  0  0  0  0  0  0  0  0
  -22.4706  -18.2234    9.6245 C   0  0  0  0  0  0  0  0  0  0  0  0
  -22.9167  -17.1750    8.8902 N   0  0  0  0  0  0  0  0  0  0  0  0
  -22.7273  -12.0365    4.5145 O   0  5  0  0  0  0  0  0  0  0  0  0
  -25.4814  -13.2832    5.2215 O   0  0  0  0  0  0  0  0  0  0  0  0
  -25.7182  -12.3485    8.9995 S   0  0  0  0  0  0  0  0  0  0  0  0
  -25.5501  -13.6438   10.1427 C   0  0  0  0  0  0  0  0  0  0  0  0
  -23.1654   -9.5358    4.1209 O   0  0  0  0  0  0  0  0  0  0  0  0
  -27.0765  -11.5704    5.9099 O   0  5  0  0  0  0  0  0  0  0  0  0
  -24.2697  -13.7148   10.6013 N   0  0  0  0  0  0  0  0  0  0  0  0
  -24.7043  -10.9350    5.6537 O   0  0  0  0  0  0  0  0  0  0  0  0
  -26.0842  -11.3928    3.6262 O   0  0  0  0  0  0  0  0  0  0  0  0
  -23.4054  -12.7935   10.0936 C   0  0  1  0  0  0  0  0  0  0  0  0
  -24.0712  -11.8724    9.1330 C   0  0  1  0  0  0  0  0  0  0  0  0
  -23.6151  -10.7057    8.2976 C   0  0  0  0  0  0  0  0  0  0  0  0
  -22.3798  -11.1205    7.5139 C   0  0  0  0  0  0  0  0  0  0  0  0
  -22.3222  -10.3365    6.3285 O   0  0  0  0  0  0  0  0  0  0  0  0
  1 11  1  0  0  0  0
  3 13  1  6  0  0  0
  3 17  2  0  0  0  0
  3 20  1  0  0  0  0
  3 26  1  0  0  0  0
  4 14  1  1  0  0  0
  4 18  1  0  0  0  0
  4 21  2  0  0  0  0
  4 20  1  0  0  0  0
  5 19  1  0  0  0  0
  5  7  1  0  0  0  0
  6  7  2  0  0  0  0
  6 12  1  0  0  0  0
  7  8  1  0  0  0  0
  8  9  1  0  0  0  0
  8 10  2  0  0  0  0
 10 11  1  0  0  0  0
 11 12  2  0  0  0  0
 15 23  1  0  0  0  0
 15 16  1  0  0  0  0
 16 19  1  0  0  0  0
 19 22  1  0  0  0  0
 22  2  1  1  0  0  0
 22 23  1  0  0  0  0
 23 24  1  6  0  0  0
 24 25  1  0  0  0  0
 25 26  1  0  0  0  0
M  CHG  2  13  -1  18  -1
M  END
>  <CHROM.1>
-39.43806380,89.64484749,0.68588641,69.98270428,-127.75664174,152.98425254
-80.35629356,-66.00937579,-23.93163543,-13.27085880,7.89951950,-0.36055587
1.37035106,-1.97335628

>  <Name>
ligand

>  <RI>
0

>  <Rbt.Current_Directory>
/home/itssahil/PROJECTS/Mol_Feturizer/New_Systems/rnas/2GDI

>  <Rbt.Executable>
rbdock ($Id: //depot/dev/client3/rdock/2013.1/src/exe/rbdock.cxx#4 $)

>  <Rbt.Library>
libRbt.so (2013.1, Build901 2013/11/27)

>  <Rbt.Parameter_File>
/export/apps/rDock/src/rDock_2013.1_src/data/scripts/dock_solv.prm

>  <Rbt.Receptor>
prm/blind_docking_40.prm

>  <SCORE>
-12.9027

>  <SCORE.INTER>
-13.9428

>  <SCORE.INTER.CONST>
1

>  <SCORE.INTER.POLAR>
0

>  <SCORE.INTER.ROT>
8

>  <SCORE.INTER.SOLV>
20.2937

>  <SCORE.INTER.VDW>
-24.9931

>  <SCORE.INTER.norm>
-0.536261

>  <SCORE.INTRA>
1.04003

>  <SCORE.INTRA.DIHEDRAL>
1.8789

>  <SCORE.INTRA.DIHEDRAL.0>
8.13976

>  <SCORE.INTRA.POLAR>
0

>  <SCORE.INTRA.POLAR.0>
0

>  <SCORE.INTRA.REPUL>
0

>  <SCORE.INTRA.REPUL.0>
0

>  <SCORE.INTRA.SOLV>
1.51249

>  <SCORE.INTRA.SOLV.lig_0>
-82.9561

>  <SCORE.INTRA.VDW>
-0.655667

>  <SCORE.INTRA.VDW.0>
-3.29171

>  <SCORE.INTRA.norm>
0.040001

>  <SCORE.RESTR>
0

>  <SCORE.RESTR.CAVITY>
0

>  <SCORE.RESTR.norm>
0

>  <SCORE.SYSTEM>
0

>  <SCORE.SYSTEM.CONST>
0

>  <SCORE.SYSTEM.DIHEDRAL>
0

>  <SCORE.SYSTEM.SOLV>
0

>  <SCORE.SYSTEM.norm>
0

>  <SCORE.heavy>
26

>  <SCORE.norm>
-0.49626

>  <RMSD>
11.313

$$$$
ligand
 OpenBabel11021811433D
libRbt.so/2013.1/901 2013/11/27
 26 27  0  0  0  0  0  0  0  0999 V2000
  -21.0985  -17.0942   13.2496 C   0  0  0  0  0  0  0  0  0  0  0  0
  -25.3866  -11.4691    9.5554 C   0  0  0  0  0  0  0  0  0  0  0  0
  -23.0878  -10.5862    3.8424 P   0  0  1  0  0  0  0  0  0  0  0  0
  -25.2300  -11.3696    2.0380 P   0  0  1  0  0  0  0  0  0  0  0  0
  -25.3975  -14.1698   10.8002 C   0  0  0  0  0  0  0  0  0  0  0  0
  -24.1225  -16.3077   11.2403 C   0  0  0  0  0  0  0  0  0  0  0  0
  -24.2665  -14.9431   11.4568 C   0  0  0  0  0  0  0  0  0  0  0  0
  -23.3505  -14.2989   12.2722 C   0  0  0  0  0  0  0  0  0  0  0  0
  -23.4507  -12.9692   12.5136 N   0  0  0  0  0  0  0  0  0  0  0  0
  -22.3449  -15.0043   12.8342 N   0  0  0  0  0  0  0  0  0  0  0  0
  -22.2268  -16.3313   12.6100 C   0  0  0  0  0  0  0  0  0  0  0  0
  -23.1146  -16.9781   11.8158 N   0  0  0  0  0  0  0  0  0  0  0  0
  -22.0641  -10.9783    2.8096 O   0  5  0  0  0  0  0  0  0  0  0  0
  -26.5036  -12.1355    2.2250 O   0  0  0  0  0  0  0  0  0  0  0  0
  -24.6284  -14.4552    6.9125 S   0  0  0  0  0  0  0  0  0  0  0  0
  -24.8897  -15.0271    8.5304 C   0  0  0  0  0  0  0  0  0  0  0  0
  -23.2864   -9.1192    4.0941 O   0  0  0  0  0  0  0  0  0  0  0  0
  -25.5505   -9.9455    1.7278 O   0  5  0  0  0  0  0  0  0  0  0  0
  -25.1391  -13.9859    9.3721 N   0  0  0  0  0  0  0  0  0  0  0  0
  -24.4839  -11.3239    3.4767 O   0  0  0  0  0  0  0  0  0  0  0  0
  -24.2366  -11.9663    1.0786 O   0  0  0  0  0  0  0  0  0  0  0  0
  -25.1343  -12.7488    8.8036 C   0  0  1  0  0  0  0  0  0  0  0  0
  -24.8665  -12.8069    7.3410 C   0  0  1  0  0  0  0  0  0  0  0  0
  -24.7478  -11.7801    6.2461 C   0  0  0  0  0  0  0  0  0  0  0  0
  -23.4327  -11.0358    6.4162 C   0  0  0  0  0  0  0  0  0  0  0  0
  -22.6523  -11.2404    5.2448 O   0  0  0  0  0  0  0  0  0  0  0  0
  1 11  1  0  0  0  0
  3 13  1  6  0  0  0
  3 17  2  0  0  0  0
  3 20  1  0  0  0  0
  3 26  1  0  0  0  0
  4 14  1  1  0  0  0
  4 18  1  0  0  0  0
  4 21  2  0  0  0  0
  4 20  1  0  0  0  0
  5 19  1  0  0  0  0
  5  7  1  0  0  0  0
  6  7  2  0  0  0  0
  6 12  1  0  0  0  0
  7  8  1  0  0  0  0
  8  9  1  0  0  0  0
  8 10  2  0  0  0  0
 10 11  1  0  0  0  0
 11 12  2  0  0  0  0
 15 23  1  0  0  0  0
 15 16  1  0  0  0  0
 16 19  1  0  0  0  0
 19 22  1  0  0  0  0
 22  2  1  6  0  0  0
 22 23  1  0  0  0  0
 23 24  1  1  0  0  0
 24 25  1  0  0  0  0
 25 26  1  0  0  0  0
M  CHG  2  13  -1  18  -1
M  END
>  <CHROM.1>
-49.07909033,55.17752448,-73.56810967,-178.22885638,-105.83643591,119.56103146
69.03134309,179.72179378,-24.05918507,-12.85148819,6.99537054,-1.42657667
-0.77147487,-1.02435111

>  <Name>
ligand

>  <RI>
0

>  <Rbt.Current_Directory>
/home/itssahil/PROJECTS/Mol_Feturizer/New_Systems/rnas/2GDI

>  <Rbt.Executable>
rbdock ($Id: //depot/dev/client3/rdock/2013.1/src/exe/rbdock.cxx#4 $)

>  <Rbt.Library>
libRbt.so (2013.1, Build901 2013/11/27)

>  <Rbt.Parameter_File>
/export/apps/rDock/src/rDock_2013.1_src/data/scripts/dock_solv.prm

>  <Rbt.Receptor>
prm/blind_docking_100.prm

>  <SCORE>
-10.4261

>  <SCORE.INTER>
-14.0426

>  <SCORE.INTER.CONST>
1

>  <SCORE.INTER.POLAR>
0

>  <SCORE.INTER.ROT>
8

>  <SCORE.INTER.SOLV>
24.8829

>  <SCORE.INTER.VDW>
-26.5894

>  <SCORE.INTER.norm>
-0.540102

>  <SCORE.INTRA>
3.61658

>  <SCORE.INTRA.DIHEDRAL>
2.82335

>  <SCORE.INTRA.DIHEDRAL.0>
8.13976

>  <SCORE.INTRA.POLAR>
0

>  <SCORE.INTRA.POLAR.0>
0

>  <SCORE.INTRA.REPUL>
0

>  <SCORE.INTRA.REPUL.0>
0

>  <SCORE.INTRA.SOLV>
3.83011

>  <SCORE.INTRA.SOLV.lig_0>
-82.9561

>  <SCORE.INTRA.VDW>
0.289852

>  <SCORE.INTRA.VDW.0>
-3.29171

>  <SCORE.INTRA.norm>
0.139099

>  <SCORE.RESTR>
0

>  <SCORE.RESTR.CAVITY>
0

>  <SCORE.RESTR.norm>
0

>  <SCORE.SYSTEM>
0

>  <SCORE.SYSTEM.CONST>
0

>  <SCORE.SYSTEM.DIHEDRAL>
0

>  <SCORE.SYSTEM.SOLV>
0

>  <SCORE.SYSTEM.norm>
0

>  <SCORE.heavy>
26

>  <SCORE.norm>
-0.401003

>  <RMSD>
11.319

$$$$
ligand
 OpenBabel11021811433D
libRbt.so/2013.1/901 2013/11/27
 26 27  0  0  0  0  0  0  0  0999 V2000
  -19.6351  -16.9896   14.0308 C   0  0  0  0  0  0  0  0  0  0  0  0
  -24.8901  -13.9816   10.2726 C   0  0  0  0  0  0  0  0  0  0  0  0
  -22.9090  -10.7023    5.1783 P   0  0  1  0  0  0  0  0  0  0  0  0
  -25.0535  -11.4431    3.3587 P   0  0  1  0  0  0  0  0  0  0  0  0
  -24.2310  -16.8648   10.5818 C   0  0  0  0  0  0  0  0  0  0  0  0
  -22.6966  -15.8076   12.2901 C   0  0  0  0  0  0  0  0  0  0  0  0
  -23.0099  -16.8957   11.4853 C   0  0  0  0  0  0  0  0  0  0  0  0
  -22.1945  -18.0145   11.5329 C   0  0  0  0  0  0  0  0  0  0  0  0
  -22.4592  -19.0996   10.7654 N   0  0  0  0  0  0  0  0  0  0  0  0
  -21.1220  -18.0247   12.3540 N   0  0  0  0  0  0  0  0  0  0  0  0
  -20.8369  -16.9533   13.1261 C   0  0  0  0  0  0  0  0  0  0  0  0
  -21.6231  -15.8497   13.0915 N   0  0  0  0  0  0  0  0  0  0  0  0
  -21.9472  -11.6309    4.4848 O   0  5  0  0  0  0  0  0  0  0  0  0
  -26.5327  -11.5948    3.5391 O   0  0  0  0  0  0  0  0  0  0  0  0
  -23.1617  -15.5935    6.9725 S   0  0  0  0  0  0  0  0  0  0  0  0
  -23.3584  -16.7351    8.2653 C   0  0  0  0  0  0  0  0  0  0  0  0
  -22.7291   -9.2288    4.9521 O   0  0  0  0  0  0  0  0  0  0  0  0
  -24.7745  -10.1935    2.5919 O   0  5  0  0  0  0  0  0  0  0  0  0
  -23.9416  -16.1417    9.3435 N   0  0  0  0  0  0  0  0  0  0  0  0
  -24.4171  -11.1809    4.8266 O   0  0  0  0  0  0  0  0  0  0  0  0
  -24.3306  -12.6408    2.8053 O   0  0  0  0  0  0  0  0  0  0  0  0
  -24.2438  -14.8216    9.2034 C   0  0  1  0  0  0  0  0  0  0  0  0
  -23.8758  -14.3038    7.8578 C   0  0  1  0  0  0  0  0  0  0  0  0
  -23.9762  -12.9650    7.1762 C   0  0  0  0  0  0  0  0  0  0  0  0
  -22.6333  -12.2600    7.2861 C   0  0  0  0  0  0  0  0  0  0  0  0
  -22.7778  -10.9457    6.7619 O   0  0  0  0  0  0  0  0  0  0  0  0
  1 11  1  0  0  0  0
  3 13  1  6  0  0  0
  3 17  2  0  0  0  0
  3 20  1  0  0  0  0
  3 26  1  0  0  0  0
  4 14  1  1  0  0  0
  4 18  1  0  0  0  0
  4 21  2  0  0  0  0
  4 20  1  0  0  0  0
  5 19  1  0  0  0  0
  5  7  1  0  0  0  0
  6  7  2  0  0  0  0
  6 12  1  0  0  0  0
  7  8  1  0  0  0  0
  8  9  1  0  0  0  0
  8 10  2  0  0  0  0
 10 11  1  0  0  0  0
 11 12  2  0  0  0  0
 15 23  1  0  0  0  0
 15 16  1  0  0  0  0
 16 19  1  0  0  0  0
 19 22  1  0  0  0  0
 22  2  1  6  0  0  0
 22 23  1  0  0  0  0
 23 24  1  1  0  0  0
 24 25  1  0  0  0  0
 25 26  1  0  0  0  0
M  CHG  2  13  -1  18  -1
M  END
>  <CHROM.1>
-52.71854514,84.65300809,81.27108177,-168.69288940,-81.11210981,-174.13121393
-73.45105226,-40.42338723,-23.29733443,-13.89620847,7.66995479,-1.24164470
-0.85905574,-0.66587067

>  <Name>
ligand

>  <RI>
0

>  <Rbt.Current_Directory>
/home/itssahil/PROJECTS/Mol_Feturizer/New_Systems/rnas/2GDI

>  <Rbt.Executable>
rbdock ($Id: //depot/dev/client3/rdock/2013.1/src/exe/rbdock.cxx#4 $)

>  <Rbt.Library>
libRbt.so (2013.1, Build901 2013/11/27)

>  <Rbt.Parameter_File>
/export/apps/rDock/src/rDock_2013.1_src/data/scripts/dock_solv.prm

>  <Rbt.Receptor>
prm/blind_docking_80.prm

>  <SCORE>
-13.6537

>  <SCORE.INTER>
-14.4581

>  <SCORE.INTER.CONST>
1

>  <SCORE.INTER.POLAR>
0

>  <SCORE.INTER.ROT>
8

>  <SCORE.INTER.SOLV>
17.9745

>  <SCORE.INTER.VDW>
-24.5636

>  <SCORE.INTER.norm>
-0.55608

>  <SCORE.INTRA>
0.804413

>  <SCORE.INTRA.DIHEDRAL>
-1.41894

>  <SCORE.INTRA.DIHEDRAL.0>
8.13976

>  <SCORE.INTRA.POLAR>
0

>  <SCORE.INTRA.POLAR.0>
0

>  <SCORE.INTRA.REPUL>
0

>  <SCORE.INTRA.REPUL.0>
0

>  <SCORE.INTRA.SOLV>
3.50066

>  <SCORE.INTRA.SOLV.lig_0>
-82.9561

>  <SCORE.INTRA.VDW>
-0.236449

>  <SCORE.INTRA.VDW.0>
-3.29171

>  <SCORE.INTRA.norm>
0.030939

>  <SCORE.RESTR>
0

>  <SCORE.RESTR.CAVITY>
0

>  <SCORE.RESTR.norm>
0

>  <SCORE.SYSTEM>
0

>  <SCORE.SYSTEM.CONST>
0

>  <SCORE.SYSTEM.DIHEDRAL>
0

>  <SCORE.SYSTEM.SOLV>
0

>  <SCORE.SYSTEM.norm>
0

>  <SCORE.heavy>
26

>  <SCORE.norm>
-0.525141

>  <RMSD>
11.339

$$$$
ligand
 OpenBabel11021811433D
libRbt.so/2013.1/901 2013/11/27
 26 27  0  0  0  0  0  0  0  0999 V2000
  -20.0157  -17.9812   13.3084 C   0  0  0  0  0  0  0  0  0  0  0  0
  -22.9513  -15.0983    8.3058 C   0  0  0  0  0  0  0  0  0  0  0  0
  -25.3909  -12.1856    5.2031 P   0  0  1  0  0  0  0  0  0  0  0  0
  -25.1621  -11.2859    2.4469 P   0  0  1  0  0  0  0  0  0  0  0  0
  -24.5381  -15.4821   10.7913 C   0  0  0  0  0  0  0  0  0  0  0  0
  -22.8446  -17.3488   10.9851 C   0  0  0  0  0  0  0  0  0  0  0  0
  -23.3490  -16.1465   11.4643 C   0  0  0  0  0  0  0  0  0  0  0  0
  -22.7378  -15.5584   12.5596 C   0  0  0  0  0  0  0  0  0  0  0  0
  -23.1949  -14.3864   13.0634 N   0  0  0  0  0  0  0  0  0  0  0  0
  -21.6732  -16.1603   13.1332 N   0  0  0  0  0  0  0  0  0  0  0  0
  -21.2019  -17.3305   12.6499 C   0  0  0  0  0  0  0  0  0  0  0  0
  -21.7882  -17.9207   11.5797 N   0  0  0  0  0  0  0  0  0  0  0  0
  -26.7943  -11.7529    5.5372 O   0  5  0  0  0  0  0  0  0  0  0  0
  -26.4627  -12.0143    2.3009 O   0  0  0  0  0  0  0  0  0  0  0  0
  -23.9627  -11.6090   10.1166 S   0  0  0  0  0  0  0  0  0  0  0  0
  -24.5496  -13.0089   10.9585 C   0  0  0  0  0  0  0  0  0  0  0  0
  -25.1763  -13.6348    4.8736 O   0  0  0  0  0  0  0  0  0  0  0  0
  -25.3426   -9.8638    2.0318 O   0  5  0  0  0  0  0  0  0  0  0  0
  -24.1819  -14.1479   10.3086 N   0  0  0  0  0  0  0  0  0  0  0  0
  -24.8279  -11.2170    4.0319 O   0  0  0  0  0  0  0  0  0  0  0  0
  -23.9672  -11.9344    1.8028 O   0  0  0  0  0  0  0  0  0  0  0  0
  -23.4554  -13.9737    9.1705 C   0  0  1  0  0  0  0  0  0  0  0  0
  -23.1997  -12.5357    8.8852 C   0  0  1  0  0  0  0  0  0  0  0  0
  -22.4777  -11.7856    7.7976 C   0  0  0  0  0  0  0  0  0  0  0  0
  -23.0718  -12.1816    6.4551 C   0  0  0  0  0  0  0  0  0  0  0  0
  -24.4565  -11.8567    6.4693 O   0  0  0  0  0  0  0  0  0  0  0  0
  1 11  1  0  0  0  0
  3 13  1  1  0  0  0
  3 17  2  0  0  0  0
  3 20  1  0  0  0  0
  3 26  1  0  0  0  0
  4 14  1  6  0  0  0
  4 18  1  0  0  0  0
  4 21  2  0  0  0  0
  4 20  1  0  0  0  0
  5 19  1  0  0  0  0
  5  7  1  0  0  0  0
  6  7  2  0  0  0  0
  6 12  1  0  0  0  0
  7  8  1  0  0  0  0
  8  9  1  0  0  0  0
  8 10  2  0  0  0  0
 10 11  1  0  0  0  0
 11 12  2  0  0  0  0
 15 23  1  0  0  0  0
 15 16  1  0  0  0  0
 16 19  1  0  0  0  0
 19 22  1  0  0  0  0
 22  2  1  1  0  0  0
 22 23  1  0  0  0  0
 23 24  1  6  0  0  0
 24 25  1  0  0  0  0
 25 26  1  0  0  0  0
M  CHG  2  13  -1  18  -1
M  END
>  <CHROM.1>
-78.25813295,-102.80224461,-120.35286176,22.16940954,-122.47553354,59.23553634
-178.42981686,178.77824313,-23.92231108,-13.42531785,7.80548927,-0.79954165
1.15052412,-1.81162934

>  <Name>
ligand

>  <RI>
0

>  <Rbt.Current_Directory>
/home/itssahil/PROJECTS/Mol_Feturizer/New_Systems/rnas/2GDI

>  <Rbt.Executable>
rbdock ($Id: //depot/dev/client3/rdock/2013.1/src/exe/rbdock.cxx#4 $)

>  <Rbt.Library>
libRbt.so (2013.1, Build901 2013/11/27)

>  <Rbt.Parameter_File>
/export/apps/rDock/src/rDock_2013.1_src/data/scripts/dock_solv.prm

>  <Rbt.Receptor>
prm/blind_docking_80.prm

>  <SCORE>
-10.8813

>  <SCORE.INTER>
-10.2623

>  <SCORE.INTER.CONST>
1

>  <SCORE.INTER.POLAR>
0

>  <SCORE.INTER.ROT>
8

>  <SCORE.INTER.SOLV>
22.5662

>  <SCORE.INTER.VDW>
-23.2969

>  <SCORE.INTER.norm>
-0.394705

>  <SCORE.INTRA>
-0.619009

>  <SCORE.INTRA.DIHEDRAL>
-1.37288

>  <SCORE.INTRA.DIHEDRAL.0>
8.13976

>  <SCORE.INTRA.POLAR>
0

>  <SCORE.INTRA.POLAR.0>
0

>  <SCORE.INTRA.REPUL>
0

>  <SCORE.INTRA.REPUL.0>
0

>  <SCORE.INTRA.SOLV>
1.58069

>  <SCORE.INTRA.SOLV.lig_0>
-82.9561

>  <SCORE.INTRA.VDW>
-0.722914

>  <SCORE.INTRA.VDW.0>
-3.29171

>  <SCORE.INTRA.norm>
-0.023808

>  <SCORE.RESTR>
0

>  <SCORE.RESTR.CAVITY>
0

>  <SCORE.RESTR.norm>
0

>  <SCORE.SYSTEM>
0

>  <SCORE.SYSTEM.CONST>
0

>  <SCORE.SYSTEM.DIHEDRAL>
0

>  <SCORE.SYSTEM.SOLV>
0

>  <SCORE.SYSTEM.norm>
0

>  <SCORE.heavy>
26

>  <SCORE.norm>
-0.418513

>  <RMSD>
11.352

$$$$
ligand
 OpenBabel11021811433D
libRbt.so/2013.1/901 2013/11/27
 26 27  0  0  0  0  0  0  0  0999 V2000
  -22.0973  -19.4802    8.6206 C   0  0  0  0  0  0  0  0  0  0  0  0
  -25.9827  -13.8288   11.0928 C   0  0  0  0  0  0  0  0  0  0  0  0
  -24.3318  -12.1996    5.8121 P   0  0  1  0  0  0  0  0  0  0  0  0
  -24.5013  -14.9767    4.9649 P   0  0  1  0  0  0  0  0  0  0  0  0
  -23.4575  -15.0735   12.0506 C   0  0  0  0  0  0  0  0  0  0  0  0
  -23.2359  -16.1351    9.7671 C   0  0  0  0  0  0  0  0  0  0  0  0
  -23.1072  -16.2429   11.1461 C   0  0  0  0  0  0  0  0  0  0  0  0
  -22.6403  -17.4331   11.6793 C   0  0  0  0  0  0  0  0  0  0  0  0
  -22.4991  -17.5859   13.0184 N   0  0  0  0  0  0  0  0  0  0  0  0
  -22.3219  -18.4547   10.8549 N   0  0  0  0  0  0  0  0  0  0  0  0
  -22.4573  -18.3263    9.5169 C   0  0  0  0  0  0  0  0  0  0  0  0
  -22.9137  -17.1693    8.9779 N   0  0  0  0  0  0  0  0  0  0  0  0
  -22.9260  -12.0890    5.2830 O   0  5  0  0  0  0  0  0  0  0  0  0
  -25.2141  -16.1674    5.5287 O   0  0  0  0  0  0  0  0  0  0  0  0
  -22.6705  -11.7036   10.0983 S   0  0  0  0  0  0  0  0  0  0  0  0
  -22.3109  -13.1466   10.9935 C   0  0  0  0  0  0  0  0  0  0  0  0
  -25.4162  -11.5067    5.0383 O   0  0  0  0  0  0  0  0  0  0  0  0
  -25.2164  -14.5054    3.7427 O   0  5  0  0  0  0  0  0  0  0  0  0
  -23.4556  -13.8183   11.2992 N   0  0  0  0  0  0  0  0  0  0  0  0
  -24.6668  -13.7697    6.0347 O   0  0  0  0  0  0  0  0  0  0  0  0
  -23.0208  -15.1353    4.7500 O   0  0  0  0  0  0  0  0  0  0  0  0
  -24.6125  -13.2496   10.8614 C   0  0  1  0  0  0  0  0  0  0  0  0
  -24.3660  -11.9902   10.1079 C   0  0  1  0  0  0  0  0  0  0  0  0
  -25.2458  -10.9785    9.4228 C   0  0  0  0  0  0  0  0  0  0  0  0
  -25.5701  -11.4816    8.0249 C   0  0  0  0  0  0  0  0  0  0  0  0
  -24.3534  -11.5782    7.2946 O   0  0  0  0  0  0  0  0  0  0  0  0
  1 11  1  0  0  0  0
  3 13  1  6  0  0  0
  3 17  2  0  0  0  0
  3 20  1  0  0  0  0
  3 26  1  0  0  0  0
  4 14  1  1  0  0  0
  4 18  1  0  0  0  0
  4 21  2  0  0  0  0
  4 20  1  0  0  0  0
  5 19  1  0  0  0  0
  5  7  1  0  0  0  0
  6  7  2  0  0  0  0
  6 12  1  0  0  0  0
  7  8  1  0  0  0  0
  8  9  1  0  0  0  0
  8 10  2  0  0  0  0
 10 11  1  0  0  0  0
 11 12  2  0  0  0  0
 15 23  1  0  0  0  0
 15 16  1  0  0  0  0
 16 19  1  0  0  0  0
 19 22  1  0  0  0  0
 22  2  1  6  0  0  0
 22 23  1  0  0  0  0
 23 24  1  1  0  0  0
 24 25  1  0  0  0  0
 25 26  1  0  0  0  0
M  CHG  2  13  -1  18  -1
M  END
>  <CHROM.1>
-52.09641945,-79.83311273,-19.77793448,-167.77089817,97.67781678,-62.76064124
174.84498139,176.74191461,-23.83413703,-14.29385664,8.31667983,-0.35296783
1.30478438,-2.18505762

>  <Name>
ligand

>  <RI>
0

>  <Rbt.Current_Directory>
/home/itssahil/PROJECTS/Mol_Feturizer/New_Systems/rnas/2GDI

>  <Rbt.Executable>
rbdock ($Id: //depot/dev/client3/rdock/2013.1/src/exe/rbdock.cxx#4 $)

>  <Rbt.Library>
libRbt.so (2013.1, Build901 2013/11/27)

>  <Rbt.Parameter_File>
/export/apps/rDock/src/rDock_2013.1_src/data/scripts/dock_solv.prm

>  <Rbt.Receptor>
prm/blind_docking_40.prm

>  <SCORE>
-10.4688

>  <SCORE.INTER>
-9.3252

>  <SCORE.INTER.CONST>
1

>  <SCORE.INTER.POLAR>
0

>  <SCORE.INTER.ROT>
8

>  <SCORE.INTER.SOLV>
11.4325

>  <SCORE.INTER.VDW>
-18.961

>  <SCORE.INTER.norm>
-0.358662

>  <SCORE.INTRA>
-1.14363

>  <SCORE.INTRA.DIHEDRAL>
-2.59223

>  <SCORE.INTRA.DIHEDRAL.0>
8.13976

>  <SCORE.INTRA.POLAR>
0

>  <SCORE.INTRA.POLAR.0>
0

>  <SCORE.INTRA.REPUL>
0

>  <SCORE.INTRA.REPUL.0>
0

>  <SCORE.INTRA.SOLV>
1.54462

>  <SCORE.INTRA.SOLV.lig_0>
-82.9561

>  <SCORE.INTRA.VDW>
-0.619827

>  <SCORE.INTRA.VDW.0>
-3.29171

>  <SCORE.INTRA.norm>
-0.0439859

>  <SCORE.RESTR>
0

>  <SCORE.RESTR.CAVITY>
0

>  <SCORE.RESTR.norm>
0

>  <SCORE.SYSTEM>
0

>  <SCORE.SYSTEM.CONST>
0

>  <SCORE.SYSTEM.DIHEDRAL>
0

>  <SCORE.SYSTEM.SOLV>
0

>  <SCORE.SYSTEM.norm>
0

>  <SCORE.heavy>
26

>  <SCORE.norm>
-0.402647

>  <RMSD>
11.409

$$$$
ligand
 OpenBabel11021811433D
libRbt.so/2013.1/901 2013/11/27
 26 27  0  0  0  0  0  0  0  0999 V2000
  -22.1071  -19.1617    8.2323 C   0  0  0  0  0  0  0  0  0  0  0  0
  -25.6860  -12.8823   10.4761 C   0  0  0  0  0  0  0  0  0  0  0  0
  -24.2729  -11.8655    5.6676 P   0  0  1  0  0  0  0  0  0  0  0  0
  -22.6355   -9.7207    4.5825 P   0  0  1  0  0  0  0  0  0  0  0  0
  -23.6557  -14.7539   11.5799 C   0  0  0  0  0  0  0  0  0  0  0  0
  -23.1661  -15.7705    9.3178 C   0  0  0  0  0  0  0  0  0  0  0  0
  -23.2561  -15.9230   10.6956 C   0  0  0  0  0  0  0  0  0  0  0  0
  -22.9613  -17.1584   11.2485 C   0  0  0  0  0  0  0  0  0  0  0  0
  -23.0363  -17.3556   12.5871 N   0  0  0  0  0  0  0  0  0  0  0  0
  -22.5948  -18.1797   10.4440 N   0  0  0  0  0  0  0  0  0  0  0  0
  -22.5160  -18.0072    9.1064 C   0  0  0  0  0  0  0  0  0  0  0  0
  -22.8020  -16.8056    8.5481 N   0  0  0  0  0  0  0  0  0  0  0  0
  -25.7418  -12.1953    5.6205 O   0  5  0  0  0  0  0  0  0  0  0  0
  -21.9502   -9.6920    5.9140 O   0  0  0  0  0  0  0  0  0  0  0  0
  -21.8785  -11.5324   10.0797 S   0  0  0  0  0  0  0  0  0  0  0  0
  -21.9751  -13.0806   10.8588 C   0  0  0  0  0  0  0  0  0  0  0  0
  -23.3089  -12.9595    5.3089 O   0  0  0  0  0  0  0  0  0  0  0  0
  -21.8363  -10.5493    3.6329 O   0  5  0  0  0  0  0  0  0  0  0  0
  -23.2717  -13.4835   10.9645 N   0  0  0  0  0  0  0  0  0  0  0  0
  -24.0243  -10.5344    4.7769 O   0  0  0  0  0  0  0  0  0  0  0  0
  -23.0193   -8.3837    4.0095 O   0  0  0  0  0  0  0  0  0  0  0  0
  -24.2023  -12.6276   10.4597 C   0  0  1  0  0  0  0  0  0  0  0  0
  -23.5810  -11.4107    9.8701 C   0  0  1  0  0  0  0  0  0  0  0  0
  -24.1116  -10.1730    9.1967 C   0  0  0  0  0  0  0  0  0  0  0  0
  -24.8044  -10.5794    7.9056 C   0  0  0  0  0  0  0  0  0  0  0  0
  -23.9157  -11.4085    7.1669 O   0  0  0  0  0  0  0  0  0  0  0  0
  1 11  1  0  0  0  0
  3 13  1  6  0  0  0
  3 17  2  0  0  0  0
  3 20  1  0  0  0  0
  3 26  1  0  0  0  0
  4 14  1  1  0  0  0
  4 18  1  0  0  0  0
  4 21  2  0  0  0  0
  4 20  1  0  0  0  0
  5 19  1  0  0  0  0
  5  7  1  0  0  0  0
  6  7  2  0  0  0  0
  6 12  1  0  0  0  0
  7  8  1  0  0  0  0
  8  9  1  0  0  0  0
  8 10  2  0  0  0  0
 10 11  1  0  0  0  0
 11 12  2  0  0  0  0
 15 23  1  0  0  0  0
 15 16  1  0  0  0  0
 16 19  1  0  0  0  0
 19 22  1  0  0  0  0
 22  2  1  6  0  0  0
 22 23  1  0  0  0  0
 23 24  1  1  0  0  0
 24 25  1  0  0  0  0
 25 26  1  0  0  0  0
M  CHG  2  13  -1  18  -1
M  END
>  <CHROM.1>
175.86400306,-70.78428247,-28.00775119,-39.75786194,117.47826112,-50.93098214
-172.52515053,-40.36059623,-23.28153072,-12.91196750,8.03917764,-1.27390565
1.44864932,-0.99827340

>  <Name>
ligand

>  <RI>
0

>  <Rbt.Current_Directory>
/home/itssahil/PROJECTS/Mol_Feturizer/New_Systems/rnas/2GDI

>  <Rbt.Executable>
rbdock ($Id: //depot/dev/client3/rdock/2013.1/src/exe/rbdock.cxx#4 $)

>  <Rbt.Library>
libRbt.so (2013.1, Build901 2013/11/27)

>  <Rbt.Parameter_File>
/export/apps/rDock/src/rDock_2013.1_src/data/scripts/dock_solv.prm

>  <Rbt.Receptor>
prm/blind_docking_80.prm

>  <SCORE>
-13.1982

>  <SCORE.INTER>
-10.9688

>  <SCORE.INTER.CONST>
1

>  <SCORE.INTER.POLAR>
0

>  <SCORE.INTER.ROT>
8

>  <SCORE.INTER.SOLV>
21.0047

>  <SCORE.INTER.VDW>
-23.2475

>  <SCORE.INTER.norm>
-0.421878

>  <SCORE.INTRA>
-2.22938

>  <SCORE.INTRA.DIHEDRAL>
-2.06363

>  <SCORE.INTRA.DIHEDRAL.0>
8.13976

>  <SCORE.INTRA.POLAR>
0

>  <SCORE.INTRA.POLAR.0>
0

>  <SCORE.INTRA.REPUL>
0

>  <SCORE.INTRA.REPUL.0>
0

>  <SCORE.INTRA.SOLV>
-0.967889

>  <SCORE.INTRA.SOLV.lig_0>
-82.9561

>  <SCORE.INTRA.VDW>
-0.713616

>  <SCORE.INTRA.VDW.0>
-3.29171

>  <SCORE.INTRA.norm>
-0.0857453

>  <SCORE.RESTR>
0

>  <SCORE.RESTR.CAVITY>
0

>  <SCORE.RESTR.norm>
0

>  <SCORE.SYSTEM>
0

>  <SCORE.SYSTEM.CONST>
0

>  <SCORE.SYSTEM.DIHEDRAL>
0

>  <SCORE.SYSTEM.SOLV>
0

>  <SCORE.SYSTEM.norm>
0

>  <SCORE.heavy>
26

>  <SCORE.norm>
-0.507623

>  <RMSD>
11.455

$$$$
ligand
 OpenBabel11021811433D
libRbt.so/2013.1/901 2013/11/27
 26 27  0  0  0  0  0  0  0  0999 V2000
  -19.3211  -20.3704   12.3742 C   0  0  0  0  0  0  0  0  0  0  0  0
  -23.5652  -14.7033   11.0133 C   0  0  0  0  0  0  0  0  0  0  0  0
  -25.4209  -12.4963    5.2519 P   0  0  1  0  0  0  0  0  0  0  0  0
  -24.9916  -15.0422    3.9130 P   0  0  1  0  0  0  0  0  0  0  0  0
  -24.0019  -17.6021   10.5140 C   0  0  0  0  0  0  0  0  0  0  0  0
  -22.1753  -19.3276   10.2373 C   0  0  0  0  0  0  0  0  0  0  0  0
  -22.7706  -18.3400   11.0119 C   0  0  0  0  0  0  0  0  0  0  0  0
  -22.2114  -18.0318   12.2412 C   0  0  0  0  0  0  0  0  0  0  0  0
  -22.7574  -17.0767   13.0324 N   0  0  0  0  0  0  0  0  0  0  0  0
  -21.1085  -18.6914   12.6572 N   0  0  0  0  0  0  0  0  0  0  0  0
  -20.5485  -19.6494   11.8866 C   0  0  0  0  0  0  0  0  0  0  0  0
  -21.0829  -19.9646   10.6815 N   0  0  0  0  0  0  0  0  0  0  0  0
  -24.7013  -11.4779    4.4073 O   0  5  0  0  0  0  0  0  0  0  0  0
  -23.5469  -14.6551    3.9938 O   0  0  0  0  0  0  0  0  0  0  0  0
  -23.0927  -15.7480    7.1194 S   0  0  0  0  0  0  0  0  0  0  0  0
  -23.5065  -17.0900    8.1397 C   0  0  0  0  0  0  0  0  0  0  0  0
  -26.5678  -12.0101    6.0904 O   0  0  0  0  0  0  0  0  0  0  0  0
  -25.2996  -16.0301    4.9883 O   0  5  0  0  0  0  0  0  0  0  0  0
  -23.6526  -16.6826    9.4310 N   0  0  0  0  0  0  0  0  0  0  0  0
  -25.8609  -13.7279    4.2945 O   0  0  0  0  0  0  0  0  0  0  0  0
  -25.4819  -15.4807    2.5600 O   0  0  0  0  0  0  0  0  0  0  0  0
  -23.4529  -15.3558    9.6611 C   0  0  1  0  0  0  0  0  0  0  0  0
  -23.1255  -14.6151    8.4127 C   0  0  1  0  0  0  0  0  0  0  0  0
  -22.8163  -13.1782    8.0859 C   0  0  0  0  0  0  0  0  0  0  0  0
  -24.0658  -12.5289    7.5120 C   0  0  0  0  0  0  0  0  0  0  0  0
  -24.3526  -13.1454    6.2627 O   0  0  0  0  0  0  0  0  0  0  0  0
  1 11  1  0  0  0  0
  3 13  1  6  0  0  0
  3 17  2  0  0  0  0
  3 20  1  0  0  0  0
  3 26  1  0  0  0  0
  4 14  1  6  0  0  0
  4 18  1  0  0  0  0
  4 21  2  0  0  0  0
  4 20  1  0  0  0  0
  5 19  1  0  0  0  0
  5  7  1  0  0  0  0
  6  7  2  0  0  0  0
  6 12  1  0  0  0  0
  7  8  1  0  0  0  0
  8  9  1  0  0  0  0
  8 10  2  0  0  0  0
 10 11  1  0  0  0  0
 11 12  2  0  0  0  0
 15 23  1  0  0  0  0
 15 16  1  0  0  0  0
 16 19  1  0  0  0  0
 19 22  1  0  0  0  0
 22  2  1  6  0  0  0
 22 23  1  0  0  0  0
 23 24  1  1  0  0  0
 24 25  1  0  0  0  0
 25 26  1  0  0  0  0
M  CHG  2  13  -1  18  -1
M  END
>  <CHROM.1>
87.69559160,81.77338186,-71.97906819,-27.84992921,80.76786728,-66.10946709
-167.20196356,86.18607261,-23.64572506,-15.59233078,7.77739656,-0.28530563
1.16708739,-2.19844446

>  <Name>
ligand

>  <RI>
0

>  <Rbt.Current_Directory>
/home/itssahil/PROJECTS/Mol_Feturizer/New_Systems/rnas/2GDI

>  <Rbt.Executable>
rbdock ($Id: //depot/dev/client3/rdock/2013.1/src/exe/rbdock.cxx#4 $)

>  <Rbt.Library>
libRbt.so (2013.1, Build901 2013/11/27)

>  <Rbt.Parameter_File>
/export/apps/rDock/src/rDock_2013.1_src/data/scripts/dock_solv.prm

>  <Rbt.Receptor>
prm/blind_docking_80.prm

>  <SCORE>
-10.9158

>  <SCORE.INTER>
-10.7696

>  <SCORE.INTER.CONST>
1

>  <SCORE.INTER.POLAR>
0

>  <SCORE.INTER.ROT>
8

>  <SCORE.INTER.SOLV>
13.7715

>  <SCORE.INTER.VDW>
-20.7036

>  <SCORE.INTER.norm>
-0.414217

>  <SCORE.INTRA>
-0.146192

>  <SCORE.INTRA.DIHEDRAL>
1.0988

>  <SCORE.INTRA.DIHEDRAL.0>
8.13976

>  <SCORE.INTRA.POLAR>
0

>  <SCORE.INTRA.POLAR.0>
0

>  <SCORE.INTRA.REPUL>
0

>  <SCORE.INTRA.REPUL.0>
0

>  <SCORE.INTRA.SOLV>
1.59866

>  <SCORE.INTRA.SOLV.lig_0>
-82.9561

>  <SCORE.INTRA.VDW>
-1.49492

>  <SCORE.INTRA.VDW.0>
-3.29171

>  <SCORE.INTRA.norm>
-0.00562277

>  <SCORE.RESTR>
0

>  <SCORE.RESTR.CAVITY>
0

>  <SCORE.RESTR.norm>
0

>  <SCORE.SYSTEM>
0

>  <SCORE.SYSTEM.CONST>
0

>  <SCORE.SYSTEM.DIHEDRAL>
0

>  <SCORE.SYSTEM.SOLV>
0

>  <SCORE.SYSTEM.norm>
0

>  <SCORE.heavy>
26

>  <SCORE.norm>
-0.41984

>  <RMSD>
11.461

$$$$
ligand
 OpenBabel11021811433D
libRbt.so/2013.1/901 2013/11/27
 26 27  0  0  0  0  0  0  0  0999 V2000
  -22.2364  -19.2568    8.5403 C   0  0  0  0  0  0  0  0  0  0  0  0
  -21.8409  -12.7086   10.8471 C   0  0  0  0  0  0  0  0  0  0  0  0
  -25.3795  -12.2188    6.1263 P   0  0  1  0  0  0  0  0  0  0  0  0
  -24.9502  -11.4887    3.3440 P   0  0  1  0  0  0  0  0  0  0  0  0
  -23.4571  -14.8862   12.0674 C   0  0  0  0  0  0  0  0  0  0  0  0
  -23.3068  -15.9166    9.7640 C   0  0  0  0  0  0  0  0  0  0  0  0
  -23.1437  -16.0460   11.1374 C   0  0  0  0  0  0  0  0  0  0  0  0
  -22.6768  -17.2490   11.6412 C   0  0  0  0  0  0  0  0  0  0  0  0
  -22.5028  -17.4229   12.9738 N   0  0  0  0  0  0  0  0  0  0  0  0
  -22.3915  -18.2618   10.7941 N   0  0  0  0  0  0  0  0  0  0  0  0
  -22.5599  -18.1123    9.4621 C   0  0  0  0  0  0  0  0  0  0  0  0
  -23.0168  -16.9426    8.9518 N   0  0  0  0  0  0  0  0  0  0  0  0
  -26.8111  -11.8096    6.3536 O   0  5  0  0  0  0  0  0  0  0  0  0
  -24.3046  -12.7911    2.9827 O   0  0  0  0  0  0  0  0  0  0  0  0
  -25.8316  -12.2717   10.2471 S   0  0  0  0  0  0  0  0  0  0  0  0
  -25.4314  -13.6916   11.1619 C   0  0  0  0  0  0  0  0  0  0  0  0
  -25.1091  -13.6758    5.8839 O   0  0  0  0  0  0  0  0  0  0  0  0
  -26.4242  -11.5927    3.1346 O   0  5  0  0  0  0  0  0  0  0  0  0
  -24.0836  -13.7872   11.3326 N   0  0  0  0  0  0  0  0  0  0  0  0
  -24.7704  -11.2933    4.9434 O   0  0  0  0  0  0  0  0  0  0  0  0
  -24.3563  -10.2603    2.7104 O   0  0  0  0  0  0  0  0  0  0  0  0
  -23.3424  -12.7910   10.7744 C   0  0  1  0  0  0  0  0  0  0  0  0
  -24.1920  -11.7764   10.0939 C   0  0  1  0  0  0  0  0  0  0  0  0
  -23.9179  -10.5066    9.3326 C   0  0  0  0  0  0  0  0  0  0  0  0
  -24.7171  -10.5314    8.0392 C   0  0  0  0  0  0  0  0  0  0  0  0
  -24.5327  -11.8023    7.4278 O   0  0  0  0  0  0  0  0  0  0  0  0
  1 11  1  0  0  0  0
  3 13  1  1  0  0  0
  3 17  2  0  0  0  0
  3 20  1  0  0  0  0
  3 26  1  0  0  0  0
  4 14  1  6  0  0  0
  4 18  1  0  0  0  0
  4 21  2  0  0  0  0
  4 20  1  0  0  0  0
  5 19  1  0  0  0  0
  5  7  1  0  0  0  0
  6  7  2  0  0  0  0
  6 12  1  0  0  0  0
  7  8  1  0  0  0  0
  8  9  1  0  0  0  0
  8 10  2  0  0  0  0
 10 11  1  0  0  0  0
 11 12  2  0  0  0  0
 15 23  1  0  0  0  0
 15 16  1  0  0  0  0
 16 19  1  0  0  0  0
 19 22  1  0  0  0  0
 22  2  1  1  0  0  0
 22 23  1  0  0  0  0
 23 24  1  6  0  0  0
 24 25  1  0  0  0  0
 25 26  1  0  0  0  0
M  CHG  2  13  -1  18  -1
M  END
>  <CHROM.1>
-81.28587016,89.25905013,7.50757743,-63.48088269,-46.53410077,-47.09380065
172.83525512,-43.98241817,-24.26258085,-13.48976485,8.05123952,-0.71882888
1.22533412,-1.76501127

>  <Name>
ligand

>  <RI>
0

>  <Rbt.Current_Directory>
/home/itssahil/PROJECTS/Mol_Feturizer/New_Systems/rnas/2GDI

>  <Rbt.Executable>
rbdock ($Id: //depot/dev/client3/rdock/2013.1/src/exe/rbdock.cxx#4 $)

>  <Rbt.Library>
libRbt.so (2013.1, Build901 2013/11/27)

>  <Rbt.Parameter_File>
/export/apps/rDock/src/rDock_2013.1_src/data/scripts/dock_solv.prm

>  <Rbt.Receptor>
prm/blind_docking_40.prm

>  <SCORE>
-10.8463

>  <SCORE.INTER>
-10.8084

>  <SCORE.INTER.CONST>
1

>  <SCORE.INTER.POLAR>
0

>  <SCORE.INTER.ROT>
8

>  <SCORE.INTER.SOLV>
19.3249

>  <SCORE.INTER.VDW>
-22.5806

>  <SCORE.INTER.norm>
-0.415708

>  <SCORE.INTRA>
-0.0429672

>  <SCORE.INTRA.DIHEDRAL>
-1.43123

>  <SCORE.INTRA.DIHEDRAL.0>
8.13976

>  <SCORE.INTRA.POLAR>
0

>  <SCORE.INTRA.POLAR.0>
0

>  <SCORE.INTRA.REPUL>
0

>  <SCORE.INTRA.REPUL.0>
0

>  <SCORE.INTRA.SOLV>
0.170515

>  <SCORE.INTRA.SOLV.lig_0>
-82.9561

>  <SCORE.INTRA.VDW>
0.587389

>  <SCORE.INTRA.VDW.0>
-3.29171

>  <SCORE.INTRA.norm>
-0.00165258

>  <SCORE.RESTR>
0.005065

>  <SCORE.RESTR.CAVITY>
0.005065

>  <SCORE.RESTR.norm>
0.000194808

>  <SCORE.SYSTEM>
0

>  <SCORE.SYSTEM.CONST>
0

>  <SCORE.SYSTEM.DIHEDRAL>
0

>  <SCORE.SYSTEM.SOLV>
0

>  <SCORE.SYSTEM.norm>
0

>  <SCORE.heavy>
26

>  <SCORE.norm>
-0.417166

>  <RMSD>
11.487

$$$$
ligand
 OpenBabel11021811433D
libRbt.so/2013.1/901 2013/11/27
 26 27  0  0  0  0  0  0  0  0999 V2000
  -21.9338  -20.5535    9.9031 C   0  0  0  0  0  0  0  0  0  0  0  0
  -25.7658  -13.3446   10.6770 C   0  0  0  0  0  0  0  0  0  0  0  0
  -22.6812   -9.8399    5.8124 P   0  0  1  0  0  0  0  0  0  0  0  0
  -22.6019  -11.3699    3.3402 P   0  0  1  0  0  0  0  0  0  0  0  0
  -23.4344  -15.1386   11.1119 C   0  0  0  0  0  0  0  0  0  0  0  0
  -23.1003  -17.0505    9.4922 C   0  0  0  0  0  0  0  0  0  0  0  0
  -23.0472  -16.5734   10.7958 C   0  0  0  0  0  0  0  0  0  0  0  0
  -22.6212  -17.4276   11.7997 C   0  0  0  0  0  0  0  0  0  0  0  0
  -22.5540  -17.0077   13.0864 N   0  0  0  0  0  0  0  0  0  0  0  0
  -22.2687  -18.6950   11.4930 N   0  0  0  0  0  0  0  0  0  0  0  0
  -22.3305  -19.1365   10.2177 C   0  0  0  0  0  0  0  0  0  0  0  0
  -22.7459  -18.3148    9.2230 N   0  0  0  0  0  0  0  0  0  0  0  0
  -21.7040   -9.7217    6.9523 O   0  5  0  0  0  0  0  0  0  0  0  0
  -23.7364  -10.5348    2.8313 O   0  0  0  0  0  0  0  0  0  0  0  0
  -23.1542  -13.3607    7.5696 S   0  0  0  0  0  0  0  0  0  0  0  0
  -22.6716  -14.4032    8.8710 C   0  0  0  0  0  0  0  0  0  0  0  0
  -23.3894   -8.5889    5.3788 O   0  0  0  0  0  0  0  0  0  0  0  0
  -21.5352  -11.4421    2.2990 O   0  5  0  0  0  0  0  0  0  0  0  0
  -23.5818  -14.3587    9.8830 N   0  0  0  0  0  0  0  0  0  0  0  0
  -21.9266  -10.5598    4.5716 O   0  0  0  0  0  0  0  0  0  0  0  0
  -22.9723  -12.7202    3.8905 O   0  0  0  0  0  0  0  0  0  0  0  0
  -24.6496  -13.5377    9.6854 C   0  0  1  0  0  0  0  0  0  0  0  0
  -24.5968  -12.8610    8.3611 C   0  0  1  0  0  0  0  0  0  0  0  0
  -25.4805  -11.8783    7.6398 C   0  0  0  0  0  0  0  0  0  0  0  0
  -24.6755  -10.6218    7.3476 C   0  0  0  0  0  0  0  0  0  0  0  0
  -23.8201  -10.8895    6.2432 O   0  0  0  0  0  0  0  0  0  0  0  0
  1 11  1  0  0  0  0
  3 13  1  1  0  0  0
  3 17  2  0  0  0  0
  3 20  1  0  0  0  0
  3 26  1  0  0  0  0
  4 14  1  6  0  0  0
  4 18  1  0  0  0  0
  4 21  2  0  0  0  0
  4 20  1  0  0  0  0
  5 19  1  0  0  0  0
  5  7  1  0  0  0  0
  6  7  2  0  0  0  0
  6 12  1  0  0  0  0
  7  8  1  0  0  0  0
  8  9  1  0  0  0  0
  8 10  2  0  0  0  0
 10 11  1  0  0  0  0
 11 12  2  0  0  0  0
 15 23  1  0  0  0  0
 15 16  1  0  0  0  0
 16 19  1  0  0  0  0
 19 22  1  0  0  0  0
 22  2  1  6  0  0  0
 22 23  1  0  0  0  0
 23 24  1  1  0  0  0
 24 25  1  0  0  0  0
 25 26  1  0  0  0  0
M  CHG  2  13  -1  18  -1
M  END
>  <CHROM.1>
157.14167709,-45.99282609,-11.00485614,46.66625073,-58.39059195,76.90239325
-171.02444866,63.11047909,-23.12994617,-13.40079828,7.55430804,-1.56152469
1.12743921,-0.73693930

>  <Name>
ligand

>  <RI>
0

>  <Rbt.Current_Directory>
/home/itssahil/PROJECTS/Mol_Feturizer/New_Systems/rnas/2GDI

>  <Rbt.Executable>
rbdock ($Id: //depot/dev/client3/rdock/2013.1/src/exe/rbdock.cxx#4 $)

>  <Rbt.Library>
libRbt.so (2013.1, Build901 2013/11/27)

>  <Rbt.Parameter_File>
/export/apps/rDock/src/rDock_2013.1_src/data/scripts/dock_solv.prm

>  <Rbt.Receptor>
prm/blind_docking_40.prm

>  <SCORE>
-13.5229

>  <SCORE.INTER>
-13.6253

>  <SCORE.INTER.CONST>
1

>  <SCORE.INTER.POLAR>
0

>  <SCORE.INTER.ROT>
8

>  <SCORE.INTER.SOLV>
20.6508

>  <SCORE.INTER.VDW>
-24.9005

>  <SCORE.INTER.norm>
-0.524051

>  <SCORE.INTRA>
0.102415

>  <SCORE.INTRA.DIHEDRAL>
-0.646952

>  <SCORE.INTRA.DIHEDRAL.0>
8.13976

>  <SCORE.INTRA.POLAR>
0

>  <SCORE.INTRA.POLAR.0>
0

>  <SCORE.INTRA.REPUL>
0

>  <SCORE.INTRA.REPUL.0>
0

>  <SCORE.INTRA.SOLV>
-0.452938

>  <SCORE.INTRA.SOLV.lig_0>
-82.9561

>  <SCORE.INTRA.VDW>
0.65236

>  <SCORE.INTRA.VDW.0>
-3.29171

>  <SCORE.INTRA.norm>
0.00393904

>  <SCORE.RESTR>
0

>  <SCORE.RESTR.CAVITY>
0

>  <SCORE.RESTR.norm>
0

>  <SCORE.SYSTEM>
0

>  <SCORE.SYSTEM.CONST>
0

>  <SCORE.SYSTEM.DIHEDRAL>
0

>  <SCORE.SYSTEM.SOLV>
0

>  <SCORE.SYSTEM.norm>
0

>  <SCORE.heavy>
26

>  <SCORE.norm>
-0.520112

>  <RMSD>
11.489

$$$$
ligand
 OpenBabel11021811433D
libRbt.so/2013.1/901 2013/11/27
 26 27  0  0  0  0  0  0  0  0999 V2000
  -28.2546  -20.8153   -4.6049 C   0  0  0  0  0  0  0  0  0  0  0  0
  -23.9193  -14.1594   -6.0113 C   0  0  0  0  0  0  0  0  0  0  0  0
  -20.9469  -12.8225   -0.9621 P   0  0  1  0  0  0  0  0  0  0  0  0
  -18.5338  -14.1903   -1.8367 P   0  0  1  0  0  0  0  0  0  0  0  0
  -26.4599  -15.6567   -6.3941 C   0  0  0  0  0  0  0  0  0  0  0  0
  -26.0265  -17.9793   -5.4953 C   0  0  0  0  0  0  0  0  0  0  0  0
  -26.9354  -17.0234   -5.9312 C   0  0  0  0  0  0  0  0  0  0  0  0
  -28.2848  -17.3363   -5.9226 C   0  0  0  0  0  0  0  0  0  0  0  0
  -29.2086  -16.4369   -6.3397 N   0  0  0  0  0  0  0  0  0  0  0  0
  -28.6854  -18.5530   -5.4937 N   0  0  0  0  0  0  0  0  0  0  0  0
  -27.7821  -19.4666   -5.0761 C   0  0  0  0  0  0  0  0  0  0  0  0
  -26.4577  -19.1780   -5.0787 N   0  0  0  0  0  0  0  0  0  0  0  0
  -21.4354  -13.9981   -0.1573 O   0  5  0  0  0  0  0  0  0  0  0  0
  -17.7343  -14.0981   -3.0999 O   0  0  0  0  0  0  0  0  0  0  0  0
  -26.6549  -13.4457   -3.0985 S   0  0  0  0  0  0  0  0  0  0  0  0
  -27.2179  -14.5607   -4.3039 C   0  0  0  0  0  0  0  0  0  0  0  0
  -20.3774  -11.6575   -0.2048 O   0  0  0  0  0  0  0  0  0  0  0  0
  -17.8321  -13.4435   -0.7518 O   0  5  0  0  0  0  0  0  0  0  0  0
  -26.2624  -14.7627   -5.2531 N   0  0  0  0  0  0  0  0  0  0  0  0
  -19.9112  -13.3709   -2.0817 O   0  0  0  0  0  0  0  0  0  0  0  0
  -18.9481  -15.5747   -1.4182 O   0  0  0  0  0  0  0  0  0  0  0  0
  -25.0988  -14.0778   -5.0792 C   0  0  1  0  0  0  0  0  0  0  0  0
  -25.1186  -13.2464   -3.8451 C   0  0  1  0  0  0  0  0  0  0  0  0
  -24.1394  -12.3146   -3.1820 C   0  0  0  0  0  0  0  0  0  0  0  0
  -23.0605  -13.1436   -2.5030 C   0  0  0  0  0  0  0  0  0  0  0  0
  -22.1863  -12.2570   -1.8154 O   0  0  0  0  0  0  0  0  0  0  0  0
  1 11  1  0  0  0  0
  3 13  1  1  0  0  0
  3 17  2  0  0  0  0
  3 20  1  0  0  0  0
  3 26  1  0  0  0  0
  4 14  1  6  0  0  0
  4 18  1  0  0  0  0
  4 21  2  0  0  0  0
  4 20  1  0  0  0  0
  5 19  1  0  0  0  0
  5  7  1  0  0  0  0
  6  7  2  0  0  0  0
  6 12  1  0  0  0  0
  7  8  1  0  0  0  0
  8  9  1  0  0  0  0
  8 10  2  0  0  0  0
 10 11  1  0  0  0  0
 11 12  2  0  0  0  0
 15 23  1  0  0  0  0
 15 16  1  0  0  0  0
 16 19  1  0  0  0  0
 19 22  1  0  0  0  0
 22  2  1  1  0  0  0
 22 23  1  0  0  0  0
 23 24  1  6  0  0  0
 24 25  1  0  0  0  0
 25 26  1  0  0  0  0
M  CHG  2  13  -1  18  -1
M  END
>  <CHROM.1>
-58.81543725,-51.54361451,-83.34480051,-162.65572362,105.79731454,-176.65430650
178.67267493,-44.30135277,-23.66658755,-14.85131804,-3.36209595,-2.62837944
-0.34325998,0.24849310

>  <Name>
ligand

>  <RI>
0

>  <Rbt.Current_Directory>
/home/itssahil/PROJECTS/Mol_Feturizer/New_Systems/rnas/2GDI

>  <Rbt.Executable>
rbdock ($Id: //depot/dev/client3/rdock/2013.1/src/exe/rbdock.cxx#4 $)

>  <Rbt.Library>
libRbt.so (2013.1, Build901 2013/11/27)

>  <Rbt.Parameter_File>
/export/apps/rDock/src/rDock_2013.1_src/data/scripts/dock_solv.prm

>  <Rbt.Receptor>
prm/pocket_docking_8.prm

>  <SCORE>
-10.6841

>  <SCORE.INTER>
-10.4155

>  <SCORE.INTER.CONST>
1

>  <SCORE.INTER.POLAR>
0

>  <SCORE.INTER.ROT>
8

>  <SCORE.INTER.SOLV>
10.4536

>  <SCORE.INTER.VDW>
-19.3615

>  <SCORE.INTER.norm>
-0.400595

>  <SCORE.INTRA>
-0.273489

>  <SCORE.INTRA.DIHEDRAL>
-2.75924

>  <SCORE.INTRA.DIHEDRAL.0>
8.13976

>  <SCORE.INTRA.POLAR>
0

>  <SCORE.INTRA.POLAR.0>
0

>  <SCORE.INTRA.REPUL>
0

>  <SCORE.INTRA.REPUL.0>
0

>  <SCORE.INTRA.SOLV>
2.54909

>  <SCORE.INTRA.SOLV.lig_0>
-82.9561

>  <SCORE.INTRA.VDW>
-0.168413

>  <SCORE.INTRA.VDW.0>
-3.29171

>  <SCORE.INTRA.norm>
-0.0105188

>  <SCORE.RESTR>
0.00489615

>  <SCORE.RESTR.CAVITY>
0.00489615

>  <SCORE.RESTR.norm>
0.000188313

>  <SCORE.SYSTEM>
0

>  <SCORE.SYSTEM.CONST>
0

>  <SCORE.SYSTEM.DIHEDRAL>
0

>  <SCORE.SYSTEM.SOLV>
0

>  <SCORE.SYSTEM.norm>
0

>  <SCORE.heavy>
26

>  <SCORE.norm>
-0.410926

>  <RMSD>
11.540

$$$$
ligand
 OpenBabel11021811433D
libRbt.so/2013.1/901 2013/11/27
 26 27  0  0  0  0  0  0  0  0999 V2000
  -21.7144  -20.1667    9.8213 C   0  0  0  0  0  0  0  0  0  0  0  0
  -24.7040  -12.9906    6.7691 C   0  0  0  0  0  0  0  0  0  0  0  0
  -22.8495   -8.3536    5.4452 P   0  0  1  0  0  0  0  0  0  0  0  0
  -21.8540   -5.8194    4.4225 P   0  0  1  0  0  0  0  0  0  0  0  0
  -24.5389  -15.3053    8.6288 C   0  0  0  0  0  0  0  0  0  0  0  0
  -23.8027  -17.1212   10.2259 C   0  0  0  0  0  0  0  0  0  0  0  0
  -23.7832  -16.5850    8.9446 C   0  0  0  0  0  0  0  0  0  0  0  0
  -23.0722  -17.2474    7.9573 C   0  0  0  0  0  0  0  0  0  0  0  0
  -23.0231  -16.7621    6.6930 N   0  0  0  0  0  0  0  0  0  0  0  0
  -22.4193  -18.3910    8.2580 N   0  0  0  0  0  0  0  0  0  0  0  0
  -22.4518  -18.8920    9.5122 C   0  0  0  0  0  0  0  0  0  0  0  0
  -23.1415  -18.2565   10.4909 N   0  0  0  0  0  0  0  0  0  0  0  0
  -23.7720   -8.3213    6.6353 O   0  5  0  0  0  0  0  0  0  0  0  0
  -21.3133   -6.3849    3.1452 O   0  0  0  0  0  0  0  0  0  0  0  0
  -21.8839  -12.5321    9.6524 S   0  0  0  0  0  0  0  0  0  0  0  0
  -22.7379  -14.0389    9.7679 C   0  0  0  0  0  0  0  0  0  0  0  0
  -23.4753   -8.5359    4.0925 O   0  0  0  0  0  0  0  0  0  0  0  0
  -23.2774   -5.4183    4.2222 O   0  5  0  0  0  0  0  0  0  0  0  0
  -23.6687  -14.1389    8.7788 N   0  0  0  0  0  0  0  0  0  0  0  0
  -21.9113   -7.0329    5.4962 O   0  0  0  0  0  0  0  0  0  0  0  0
  -21.0286   -4.7392    5.0668 O   0  0  0  0  0  0  0  0  0  0  0  0
  -23.7455  -13.0799    7.9266 C   0  0  1  0  0  0  0  0  0  0  0  0
  -22.7556  -12.0204    8.2613 C   0  0  1  0  0  0  0  0  0  0  0  0
  -22.4081  -10.6760    7.6790 C   0  0  0  0  0  0  0  0  0  0  0  0
  -22.2676  -10.8191    6.1717 C   0  0  0  0  0  0  0  0  0  0  0  0
  -21.8228   -9.5740    5.6472 O   0  0  0  0  0  0  0  0  0  0  0  0
  1 11  1  0  0  0  0
  3 13  1  1  0  0  0
  3 17  2  0  0  0  0
  3 20  1  0  0  0  0
  3 26  1  0  0  0  0
  4 14  1  6  0  0  0
  4 18  1  0  0  0  0
  4 21  2  0  0  0  0
  4 20  1  0  0  0  0
  5 19  1  0  0  0  0
  5  7  1  0  0  0  0
  6  7  2  0  0  0  0
  6 12  1  0  0  0  0
  7  8  1  0  0  0  0
  8  9  1  0  0  0  0
  8 10  2  0  0  0  0
 10 11  1  0  0  0  0
 11 12  2  0  0  0  0
 15 23  1  0  0  0  0
 15 16  1  0  0  0  0
 16 19  1  0  0  0  0
 19 22  1  0  0  0  0
 22  2  1  6  0  0  0
 22 23  1  0  0  0  0
 23 24  1  1  0  0  0
 24 25  1  0  0  0  0
 25 26  1  0  0  0  0
M  CHG  2  13  -1  18  -1
M  END
>  <CHROM.1>
-116.71767749,-38.02556897,92.91398262,-66.23431076,133.56392975,-174.85462647
-78.31378182,40.50932702,-22.71956271,-11.74082837,7.07666203,1.84880963
1.33597855,2.47527321

>  <Name>
ligand

>  <RI>
0

>  <Rbt.Current_Directory>
/home/itssahil/PROJECTS/Mol_Feturizer/New_Systems/rnas/2GDI

>  <Rbt.Executable>
rbdock ($Id: //depot/dev/client3/rdock/2013.1/src/exe/rbdock.cxx#4 $)

>  <Rbt.Library>
libRbt.so (2013.1, Build901 2013/11/27)

>  <Rbt.Parameter_File>
/export/apps/rDock/src/rDock_2013.1_src/data/scripts/dock_solv.prm

>  <Rbt.Receptor>
prm/blind_docking_80.prm

>  <SCORE>
-13.317

>  <SCORE.INTER>
-16.1829

>  <SCORE.INTER.CONST>
1

>  <SCORE.INTER.POLAR>
0

>  <SCORE.INTER.ROT>
8

>  <SCORE.INTER.SOLV>
28.0018

>  <SCORE.INTER.VDW>
-29.0558

>  <SCORE.INTER.norm>
-0.622418

>  <SCORE.INTRA>
2.65871

>  <SCORE.INTRA.DIHEDRAL>
1.29973

>  <SCORE.INTRA.DIHEDRAL.0>
8.13976

>  <SCORE.INTRA.POLAR>
0

>  <SCORE.INTRA.POLAR.0>
0

>  <SCORE.INTRA.REPUL>
0

>  <SCORE.INTRA.REPUL.0>
0

>  <SCORE.INTRA.SOLV>
2.6795

>  <SCORE.INTRA.SOLV.lig_0>
-82.9561

>  <SCORE.INTRA.VDW>
0.6691

>  <SCORE.INTRA.VDW.0>
-3.29171

>  <SCORE.INTRA.norm>
0.102258

>  <SCORE.RESTR>
0.207166

>  <SCORE.RESTR.CAVITY>
0.207166

>  <SCORE.RESTR.norm>
0.00796794

>  <SCORE.SYSTEM>
0

>  <SCORE.SYSTEM.CONST>
0

>  <SCORE.SYSTEM.DIHEDRAL>
0

>  <SCORE.SYSTEM.SOLV>
0

>  <SCORE.SYSTEM.norm>
0

>  <SCORE.heavy>
26

>  <SCORE.norm>
-0.512192

>  <RMSD>
11.547

$$$$
ligand
 OpenBabel11021811433D
libRbt.so/2013.1/901 2013/11/27
 26 27  0  0  0  0  0  0  0  0999 V2000
  -21.8761  -19.0450    8.3216 C   0  0  0  0  0  0  0  0  0  0  0  0
  -22.5968  -13.2510   11.1896 C   0  0  0  0  0  0  0  0  0  0  0  0
  -23.0800   -9.3415    6.2679 P   0  0  1  0  0  0  0  0  0  0  0  0
  -23.1985  -10.8407    3.7785 P   0  0  1  0  0  0  0  0  0  0  0  0
  -24.9821  -15.0164   10.9968 C   0  0  0  0  0  0  0  0  0  0  0  0
  -24.0624  -16.0989    8.9058 C   0  0  0  0  0  0  0  0  0  0  0  0
  -24.1690  -16.0882   10.2908 C   0  0  0  0  0  0  0  0  0  0  0  0
  -23.5082  -17.0660   11.0161 C   0  0  0  0  0  0  0  0  0  0  0  0
  -23.5836  -17.0971   12.3688 N   0  0  0  0  0  0  0  0  0  0  0  0
  -22.7798  -18.0007   10.3677 N   0  0  0  0  0  0  0  0  0  0  0  0
  -22.6926  -17.9913    9.0196 C   0  0  0  0  0  0  0  0  0  0  0  0
  -23.3334  -17.0427    8.2938 N   0  0  0  0  0  0  0  0  0  0  0  0
  -21.7666   -8.6431    6.0316 O   0  5  0  0  0  0  0  0  0  0  0  0
  -23.9489  -10.6316    2.4992 O   0  0  0  0  0  0  0  0  0  0  0  0
  -25.4980  -11.7668    8.7694 S   0  0  0  0  0  0  0  0  0  0  0  0
  -25.9140  -13.2987    9.4718 C   0  0  0  0  0  0  0  0  0  0  0  0
  -24.0782   -8.6517    7.1525 O   0  0  0  0  0  0  0  0  0  0  0  0
  -21.7562  -10.5234    3.5632 O   0  5  0  0  0  0  0  0  0  0  0  0
  -24.9078  -13.7478   10.2721 N   0  0  0  0  0  0  0  0  0  0  0  0
  -23.7189   -9.7188    4.8270 O   0  0  0  0  0  0  0  0  0  0  0  0
  -23.4091  -12.1667    4.4573 O   0  0  0  0  0  0  0  0  0  0  0  0
  -23.8151  -12.9406   10.3613 C   0  0  1  0  0  0  0  0  0  0  0  0
  -23.9696  -11.6996    9.5547 C   0  0  1  0  0  0  0  0  0  0  0  0
  -23.1051  -10.4955    9.2908 C   0  0  0  0  0  0  0  0  0  0  0  0
  -22.1038  -10.8437    8.2007 C   0  0  0  0  0  0  0  0  0  0  0  0
  -22.7687  -10.7656    6.9458 O   0  0  0  0  0  0  0  0  0  0  0  0
  1 11  1  0  0  0  0
  3 13  1  6  0  0  0
  3 17  2  0  0  0  0
  3 20  1  0  0  0  0
  3 26  1  0  0  0  0
  4 14  1  6  0  0  0
  4 18  1  0  0  0  0
  4 21  2  0  0  0  0
  4 20  1  0  0  0  0
  5 19  1  0  0  0  0
  5  7  1  0  0  0  0
  6  7  2  0  0  0  0
  6 12  1  0  0  0  0
  7  8  1  0  0  0  0
  8  9  1  0  0  0  0
  8 10  2  0  0  0  0
 10 11  1  0  0  0  0
 11 12  2  0  0  0  0
 15 23  1  0  0  0  0
 15 16  1  0  0  0  0
 16 19  1  0  0  0  0
 19 22  1  0  0  0  0
 22  2  1  1  0  0  0
 22 23  1  0  0  0  0
 23 24  1  6  0  0  0
 24 25  1  0  0  0  0
 25 26  1  0  0  0  0
M  CHG  2  13  -1  18  -1
M  END
>  <CHROM.1>
70.55088893,102.00484466,-33.37568786,-169.39018099,-96.89854054,79.11699858
76.71926712,60.60871072,-23.50622963,-12.72346755,7.78366326,-1.75060492
1.29406820,-0.49471127

>  <Name>
ligand

>  <RI>
0

>  <Rbt.Current_Directory>
/home/itssahil/PROJECTS/Mol_Feturizer/New_Systems/rnas/2GDI

>  <Rbt.Executable>
rbdock ($Id: //depot/dev/client3/rdock/2013.1/src/exe/rbdock.cxx#4 $)

>  <Rbt.Library>
libRbt.so (2013.1, Build901 2013/11/27)

>  <Rbt.Parameter_File>
/export/apps/rDock/src/rDock_2013.1_src/data/scripts/dock_solv.prm

>  <Rbt.Receptor>
prm/blind_docking_100.prm

>  <SCORE>
-12.7401

>  <SCORE.INTER>
-13.4567

>  <SCORE.INTER.CONST>
1

>  <SCORE.INTER.POLAR>
0

>  <SCORE.INTER.ROT>
8

>  <SCORE.INTER.SOLV>
19.2952

>  <SCORE.INTER.VDW>
-24.3362

>  <SCORE.INTER.norm>
-0.517564

>  <SCORE.INTRA>
0.588155

>  <SCORE.INTRA.DIHEDRAL>
-0.314536

>  <SCORE.INTRA.DIHEDRAL.0>
8.13976

>  <SCORE.INTRA.POLAR>
0

>  <SCORE.INTRA.POLAR.0>
0

>  <SCORE.INTRA.REPUL>
0

>  <SCORE.INTRA.REPUL.0>
0

>  <SCORE.INTRA.SOLV>
3.35914

>  <SCORE.INTRA.SOLV.lig_0>
-82.9561

>  <SCORE.INTRA.VDW>
-0.934145

>  <SCORE.INTRA.VDW.0>
-3.29171

>  <SCORE.INTRA.norm>
0.0226214

>  <SCORE.RESTR>
0.128427

>  <SCORE.RESTR.CAVITY>
0.128427

>  <SCORE.RESTR.norm>
0.00493948

>  <SCORE.SYSTEM>
0

>  <SCORE.SYSTEM.CONST>
0

>  <SCORE.SYSTEM.DIHEDRAL>
0

>  <SCORE.SYSTEM.SOLV>
0

>  <SCORE.SYSTEM.norm>
0

>  <SCORE.heavy>
26

>  <SCORE.norm>
-0.490003

>  <RMSD>
11.561

$$$$
ligand
 OpenBabel11021811433D
libRbt.so/2013.1/901 2013/11/27
 26 27  0  0  0  0  0  0  0  0999 V2000
  -21.9860  -19.0905    7.8137 C   0  0  0  0  0  0  0  0  0  0  0  0
  -25.8859  -13.9454   11.1532 C   0  0  0  0  0  0  0  0  0  0  0  0
  -23.8187  -11.4076    6.4839 P   0  0  1  0  0  0  0  0  0  0  0  0
  -25.9140  -11.8133    4.5081 P   0  0  1  0  0  0  0  0  0  0  0  0
  -23.4742  -15.4584   12.0120 C   0  0  0  0  0  0  0  0  0  0  0  0
  -23.2218  -16.0590    9.5695 C   0  0  0  0  0  0  0  0  0  0  0  0
  -23.0899  -16.4237   10.9035 C   0  0  0  0  0  0  0  0  0  0  0  0
  -22.5884  -17.6798   11.2030 C   0  0  0  0  0  0  0  0  0  0  0  0
  -22.4428  -18.0806   12.4893 N   0  0  0  0  0  0  0  0  0  0  0  0
  -22.2404  -18.5161   10.2010 N   0  0  0  0  0  0  0  0  0  0  0  0
  -22.3795  -18.1392    8.9111 C   0  0  0  0  0  0  0  0  0  0  0  0
  -22.8695  -16.9144    8.5997 N   0  0  0  0  0  0  0  0  0  0  0  0
  -23.3242  -12.8241    6.3524 O   0  5  0  0  0  0  0  0  0  0  0  0
  -27.3095  -11.2824    4.3884 O   0  0  0  0  0  0  0  0  0  0  0  0
  -22.4599  -11.7846   10.8889 S   0  0  0  0  0  0  0  0  0  0  0  0
  -22.2051  -13.3966   11.4803 C   0  0  0  0  0  0  0  0  0  0  0  0
  -22.9834  -10.3252    5.8630 O   0  0  0  0  0  0  0  0  0  0  0  0
  -25.0353  -11.1210    3.5203 O   0  5  0  0  0  0  0  0  0  0  0  0
  -23.3846  -14.0739   11.5480 N   0  0  0  0  0  0  0  0  0  0  0  0
  -25.3509  -11.3556    5.9579 O   0  0  0  0  0  0  0  0  0  0  0  0
  -25.7723  -13.3105    4.4661 O   0  0  0  0  0  0  0  0  0  0  0  0
  -24.4896  -13.3825   11.1552 C   0  0  1  0  0  0  0  0  0  0  0  0
  -24.1561  -12.0027   10.7086 C   0  0  1  0  0  0  0  0  0  0  0  0
  -24.9555  -10.8368   10.1904 C   0  0  0  0  0  0  0  0  0  0  0  0
  -25.1929  -11.0319    8.7011 C   0  0  0  0  0  0  0  0  0  0  0  0
  -23.9284  -11.0647    8.0507 O   0  0  0  0  0  0  0  0  0  0  0  0
  1 11  1  0  0  0  0
  3 13  1  6  0  0  0
  3 17  2  0  0  0  0
  3 20  1  0  0  0  0
  3 26  1  0  0  0  0
  4 14  1  6  0  0  0
  4 18  1  0  0  0  0
  4 21  2  0  0  0  0
  4 20  1  0  0  0  0
  5 19  1  0  0  0  0
  5  7  1  0  0  0  0
  6  7  2  0  0  0  0
  6 12  1  0  0  0  0
  7  8  1  0  0  0  0
  8  9  1  0  0  0  0
  8 10  2  0  0  0  0
 10 11  1  0  0  0  0
 11 12  2  0  0  0  0
 15 23  1  0  0  0  0
 15 16  1  0  0  0  0
 16 19  1  0  0  0  0
 19 22  1  0  0  0  0
 22  2  1  6  0  0  0
 22 23  1  0  0  0  0
 23 24  1  1  0  0  0
 24 25  1  0  0  0  0
 25 26  1  0  0  0  0
M  CHG  2  13  -1  18  -1
M  END
>  <CHROM.1>
-56.11640579,-80.45685256,-25.20276317,-167.04931074,98.54698944,-61.27363740
173.76106741,-103.87065599,-23.94017657,-13.50994154,8.40094954,0.00367473
1.26275611,-2.38333295

>  <Name>
ligand

>  <RI>
0

>  <Rbt.Current_Directory>
/home/itssahil/PROJECTS/Mol_Feturizer/New_Systems/rnas/2GDI

>  <Rbt.Executable>
rbdock ($Id: //depot/dev/client3/rdock/2013.1/src/exe/rbdock.cxx#4 $)

>  <Rbt.Library>
libRbt.so (2013.1, Build901 2013/11/27)

>  <Rbt.Parameter_File>
/export/apps/rDock/src/rDock_2013.1_src/data/scripts/dock_solv.prm

>  <Rbt.Receptor>
prm/blind_docking_80.prm

>  <SCORE>
-12.0594

>  <SCORE.INTER>
-12.4225

>  <SCORE.INTER.CONST>
1

>  <SCORE.INTER.POLAR>
0

>  <SCORE.INTER.ROT>
8

>  <SCORE.INTER.SOLV>
13.2662

>  <SCORE.INTER.VDW>
-21.637

>  <SCORE.INTER.norm>
-0.477787

>  <SCORE.INTRA>
0.36305

>  <SCORE.INTRA.DIHEDRAL>
-0.622928

>  <SCORE.INTRA.DIHEDRAL.0>
8.13976

>  <SCORE.INTRA.POLAR>
0

>  <SCORE.INTRA.POLAR.0>
0

>  <SCORE.INTRA.REPUL>
0

>  <SCORE.INTRA.REPUL.0>
0

>  <SCORE.INTRA.SOLV>
1.52727

>  <SCORE.INTRA.SOLV.lig_0>
-82.9561

>  <SCORE.INTRA.VDW>
-0.0891199

>  <SCORE.INTRA.VDW.0>
-3.29171

>  <SCORE.INTRA.norm>
0.0139635

>  <SCORE.RESTR>
0

>  <SCORE.RESTR.CAVITY>
0

>  <SCORE.RESTR.norm>
0

>  <SCORE.SYSTEM>
0

>  <SCORE.SYSTEM.CONST>
0

>  <SCORE.SYSTEM.DIHEDRAL>
0

>  <SCORE.SYSTEM.SOLV>
0

>  <SCORE.SYSTEM.norm>
0

>  <SCORE.heavy>
26

>  <SCORE.norm>
-0.463823

>  <RMSD>
11.563

$$$$
ligand
 OpenBabel11021811433D
libRbt.so/2013.1/901 2013/11/27
 26 27  0  0  0  0  0  0  0  0999 V2000
  -25.1413  -18.7172   12.7065 C   0  0  0  0  0  0  0  0  0  0  0  0
  -24.4823  -14.9558    5.8914 C   0  0  0  0  0  0  0  0  0  0  0  0
  -23.1246  -10.5291    4.0786 P   0  0  1  0  0  0  0  0  0  0  0  0
  -22.6799   -8.0553    5.5418 P   0  0  1  0  0  0  0  0  0  0  0  0
  -23.0338  -15.5087    8.4290 C   0  0  0  0  0  0  0  0  0  0  0  0
  -24.4158  -15.7987   10.5257 C   0  0  0  0  0  0  0  0  0  0  0  0
  -23.5816  -16.3561    9.5648 C   0  0  0  0  0  0  0  0  0  0  0  0
  -23.2702  -17.7029    9.6551 C   0  0  0  0  0  0  0  0  0  0  0  0
  -22.4598  -18.2908    8.7419 N   0  0  0  0  0  0  0  0  0  0  0  0
  -23.7801  -18.4398   10.6659 N   0  0  0  0  0  0  0  0  0  0  0  0
  -24.5879  -17.8745   11.5895 C   0  0  0  0  0  0  0  0  0  0  0  0
  -24.9023  -16.5580   11.5173 N   0  0  0  0  0  0  0  0  0  0  0  0
  -23.9269   -9.8324    3.0111 O   0  5  0  0  0  0  0  0  0  0  0  0
  -23.3907   -7.2357    4.5091 O   0  0  0  0  0  0  0  0  0  0  0  0
  -24.9818  -12.0554    8.6869 S   0  0  0  0  0  0  0  0  0  0  0  0
  -23.9676  -13.3560    9.2280 C   0  0  0  0  0  0  0  0  0  0  0  0
  -22.3274  -11.7331    3.6665 O   0  0  0  0  0  0  0  0  0  0  0  0
  -23.6560   -8.4956    6.5813 O   0  5  0  0  0  0  0  0  0  0  0  0
  -23.8349  -14.2974    8.2529 N   0  0  0  0  0  0  0  0  0  0  0  0
  -22.1981   -9.4236    4.8178 O   0  0  0  0  0  0  0  0  0  0  0  0
  -21.4383   -7.4424    6.1300 O   0  0  0  0  0  0  0  0  0  0  0  0
  -24.4976  -14.0456    7.0906 C   0  0  1  0  0  0  0  0  0  0  0  0
  -25.2301  -12.7511    7.1340 C   0  0  1  0  0  0  0  0  0  0  0  0
  -26.1019  -11.9964    6.1658 C   0  0  0  0  0  0  0  0  0  0  0  0
  -25.3139  -11.7525    4.8883 C   0  0  0  0  0  0  0  0  0  0  0  0
  -24.1423  -11.0187    5.2227 O   0  0  0  0  0  0  0  0  0  0  0  0
  1 11  1  0  0  0  0
  3 13  1  6  0  0  0
  3 17  2  0  0  0  0
  3 20  1  0  0  0  0
  3 26  1  0  0  0  0
  4 14  1  6  0  0  0
  4 18  1  0  0  0  0
  4 21  2  0  0  0  0
  4 20  1  0  0  0  0
  5 19  1  0  0  0  0
  5  7  1  0  0  0  0
  6  7  2  0  0  0  0
  6 12  1  0  0  0  0
  7  8  1  0  0  0  0
  8  9  1  0  0  0  0
  8 10  2  0  0  0  0
 10 11  1  0  0  0  0
 11 12  2  0  0  0  0
 15 23  1  0  0  0  0
 15 16  1  0  0  0  0
 16 19  1  0  0  0  0
 19 22  1  0  0  0  0
 22  2  1  6  0  0  0
 22 23  1  0  0  0  0
 23 24  1  1  0  0  0
 24 25  1  0  0  0  0
 25 26  1  0  0  0  0
M  CHG  2  13  -1  18  -1
M  END
>  <CHROM.1>
55.88411278,61.46815471,-19.46820665,-58.81667448,124.08899496,-58.54419461
-176.78120553,50.11603478,-23.79873693,-12.68206729,7.17093823,2.32162531
-1.41414670,-2.99966644

>  <Name>
ligand

>  <RI>
0

>  <Rbt.Current_Directory>
/home/itssahil/PROJECTS/Mol_Feturizer/New_Systems/rnas/2GDI

>  <Rbt.Executable>
rbdock ($Id: //depot/dev/client3/rdock/2013.1/src/exe/rbdock.cxx#4 $)

>  <Rbt.Library>
libRbt.so (2013.1, Build901 2013/11/27)

>  <Rbt.Parameter_File>
/export/apps/rDock/src/rDock_2013.1_src/data/scripts/dock_solv.prm

>  <Rbt.Receptor>
prm/blind_docking_40.prm

>  <SCORE>
-15.0266

>  <SCORE.INTER>
-13.6154

>  <SCORE.INTER.CONST>
1

>  <SCORE.INTER.POLAR>
0

>  <SCORE.INTER.ROT>
8

>  <SCORE.INTER.SOLV>
26.0442

>  <SCORE.INTER.VDW>
-26.6917

>  <SCORE.INTER.norm>
-0.52367

>  <SCORE.INTRA>
-1.42424

>  <SCORE.INTRA.DIHEDRAL>
-3.14466

>  <SCORE.INTRA.DIHEDRAL.0>
8.13976

>  <SCORE.INTRA.POLAR>
0

>  <SCORE.INTRA.POLAR.0>
0

>  <SCORE.INTRA.REPUL>
0

>  <SCORE.INTRA.REPUL.0>
0

>  <SCORE.INTRA.SOLV>
0.379535

>  <SCORE.INTRA.SOLV.lig_0>
-82.9561

>  <SCORE.INTRA.VDW>
-0.0416766

>  <SCORE.INTRA.VDW.0>
-3.29171

>  <SCORE.INTRA.norm>
-0.0547784

>  <SCORE.RESTR>
0.0130308

>  <SCORE.RESTR.CAVITY>
0.0130308

>  <SCORE.RESTR.norm>
0.000501185

>  <SCORE.SYSTEM>
0

>  <SCORE.SYSTEM.CONST>
0

>  <SCORE.SYSTEM.DIHEDRAL>
0

>  <SCORE.SYSTEM.SOLV>
0

>  <SCORE.SYSTEM.norm>
0

>  <SCORE.heavy>
26

>  <SCORE.norm>
-0.577947

>  <RMSD>
11.582

$$$$
ligand
 OpenBabel11021811433D
libRbt.so/2013.1/901 2013/11/27
 26 27  0  0  0  0  0  0  0  0999 V2000
  -25.4841  -11.0363    1.9153 C   0  0  0  0  0  0  0  0  0  0  0  0
  -25.5432  -12.6738   10.4279 C   0  0  0  0  0  0  0  0  0  0  0  0
  -22.3026  -19.1051   11.1430 P   0  0  1  0  0  0  0  0  0  0  0  0
  -22.3987  -21.7866   12.2650 P   0  0  1  0  0  0  0  0  0  0  0  0
  -25.3711  -11.7010    7.6231 C   0  0  0  0  0  0  0  0  0  0  0  0
  -26.5613  -11.7702    5.3940 C   0  0  0  0  0  0  0  0  0  0  0  0
  -25.3963  -11.5347    6.1131 C   0  0  0  0  0  0  0  0  0  0  0  0
  -24.2618  -11.1322    5.4277 C   0  0  0  0  0  0  0  0  0  0  0  0
  -23.1019  -10.8918    6.0859 N   0  0  0  0  0  0  0  0  0  0  0  0
  -24.3115  -10.9776    4.0867 N   0  0  0  0  0  0  0  0  0  0  0  0
  -25.4560  -11.2143    3.4092 C   0  0  0  0  0  0  0  0  0  0  0  0
  -26.5753  -11.6099    4.0634 N   0  0  0  0  0  0  0  0  0  0  0  0
  -21.1146  -18.6475   11.9478 O   0  5  0  0  0  0  0  0  0  0  0  0
  -21.0682  -21.5706   12.9182 O   0  0  0  0  0  0  0  0  0  0  0  0
  -24.1172  -15.4646    7.8482 S   0  0  0  0  0  0  0  0  0  0  0  0
  -24.4976  -13.9560    7.0783 C   0  0  0  0  0  0  0  0  0  0  0  0
  -22.0666  -19.4511    9.7010 O   0  0  0  0  0  0  0  0  0  0  0  0
  -23.3420  -22.3891   13.2521 O   0  5  0  0  0  0  0  0  0  0  0  0
  -24.9700  -13.0596    7.9883 N   0  0  0  0  0  0  0  0  0  0  0  0
  -23.0155  -20.3227   11.9406 O   0  0  0  0  0  0  0  0  0  0  0  0
  -22.3774  -22.5234   10.9535 O   0  0  0  0  0  0  0  0  0  0  0  0
  -25.0494  -13.5036    9.2729 C   0  0  1  0  0  0  0  0  0  0  0  0
  -24.5732  -14.9068    9.4096 C   0  0  1  0  0  0  0  0  0  0  0  0
  -24.4437  -15.8724   10.5577 C   0  0  0  0  0  0  0  0  0  0  0  0
  -23.3001  -16.8302   10.2625 C   0  0  0  0  0  0  0  0  0  0  0  0
  -23.3970  -17.9276   11.1622 O   0  0  0  0  0  0  0  0  0  0  0  0
  1 11  1  0  0  0  0
  3 13  1  1  0  0  0
  3 17  2  0  0  0  0
  3 20  1  0  0  0  0
  3 26  1  0  0  0  0
  4 14  1  1  0  0  0
  4 18  1  0  0  0  0
  4 21  2  0  0  0  0
  4 20  1  0  0  0  0
  5 19  1  0  0  0  0
  5  7  1  0  0  0  0
  6  7  2  0  0  0  0
  6 12  1  0  0  0  0
  7  8  1  0  0  0  0
  8  9  1  0  0  0  0
  8 10  2  0  0  0  0
 10 11  1  0  0  0  0
 11 12  2  0  0  0  0
 15 23  1  0  0  0  0
 15 16  1  0  0  0  0
 16 19  1  0  0  0  0
 19 22  1  0  0  0  0
 22  2  1  1  0  0  0
 22 23  1  0  0  0  0
 23 24  1  6  0  0  0
 24 25  1  0  0  0  0
 25 26  1  0  0  0  0
M  CHG  2  13  -1  18  -1
M  END
>  <CHROM.1>
-64.60662274,9.08243353,91.50259249,52.21126460,29.96478982,-165.47223765
-178.10289657,82.43314913,-23.78939552,-16.10483289,8.93281094,-2.38758577
-1.23321803,1.72442426

>  <Name>
ligand

>  <RI>
0

>  <Rbt.Current_Directory>
/home/itssahil/PROJECTS/Mol_Feturizer/New_Systems/rnas/2GDI

>  <Rbt.Executable>
rbdock ($Id: //depot/dev/client3/rdock/2013.1/src/exe/rbdock.cxx#4 $)

>  <Rbt.Library>
libRbt.so (2013.1, Build901 2013/11/27)

>  <Rbt.Parameter_File>
/export/apps/rDock/src/rDock_2013.1_src/data/scripts/dock_solv.prm

>  <Rbt.Receptor>
prm/blind_docking_80.prm

>  <SCORE>
-11.2821

>  <SCORE.INTER>
-13.324

>  <SCORE.INTER.CONST>
1

>  <SCORE.INTER.POLAR>
0

>  <SCORE.INTER.ROT>
8

>  <SCORE.INTER.SOLV>
15.9621

>  <SCORE.INTER.VDW>
-23.1367

>  <SCORE.INTER.norm>
-0.512461

>  <SCORE.INTRA>
2.04183

>  <SCORE.INTRA.DIHEDRAL>
-1.81206

>  <SCORE.INTRA.DIHEDRAL.0>
8.13976

>  <SCORE.INTRA.POLAR>
0

>  <SCORE.INTRA.POLAR.0>
0

>  <SCORE.INTRA.REPUL>
0

>  <SCORE.INTRA.REPUL.0>
0

>  <SCORE.INTRA.SOLV>
1.04162

>  <SCORE.INTRA.SOLV.lig_0>
-82.9561

>  <SCORE.INTRA.VDW>
2.42705

>  <SCORE.INTRA.VDW.0>
-3.29171

>  <SCORE.INTRA.norm>
0.0785321

>  <SCORE.RESTR>
0

>  <SCORE.RESTR.CAVITY>
0

>  <SCORE.RESTR.norm>
0

>  <SCORE.SYSTEM>
0

>  <SCORE.SYSTEM.CONST>
0

>  <SCORE.SYSTEM.DIHEDRAL>
0

>  <SCORE.SYSTEM.SOLV>
0

>  <SCORE.SYSTEM.norm>
0

>  <SCORE.heavy>
26

>  <SCORE.norm>
-0.433929

>  <RMSD>
11.589

$$$$
ligand
 OpenBabel11021811433D
libRbt.so/2013.1/901 2013/11/27
 26 27  0  0  0  0  0  0  0  0999 V2000
  -19.5701  -20.5481   12.3106 C   0  0  0  0  0  0  0  0  0  0  0  0
  -22.9926  -15.7744    7.9812 C   0  0  0  0  0  0  0  0  0  0  0  0
  -23.5626  -10.8623    5.6410 P   0  0  1  0  0  0  0  0  0  0  0  0
  -22.5986  -11.7047    3.0295 P   0  0  1  0  0  0  0  0  0  0  0  0
  -23.9391  -17.4211   10.2694 C   0  0  0  0  0  0  0  0  0  0  0  0
  -22.3420  -18.0828   12.1138 C   0  0  0  0  0  0  0  0  0  0  0  0
  -22.7773  -18.2413   10.8041 C   0  0  0  0  0  0  0  0  0  0  0  0
  -22.1400  -19.1716    9.9996 C   0  0  0  0  0  0  0  0  0  0  0  0
  -22.5286  -19.3607    8.7152 N   0  0  0  0  0  0  0  0  0  0  0  0
  -21.1184  -19.8993   10.5007 N   0  0  0  0  0  0  0  0  0  0  0  0
  -20.7119  -19.7259   11.7774 C   0  0  0  0  0  0  0  0  0  0  0  0
  -21.3233  -18.8194   12.5785 N   0  0  0  0  0  0  0  0  0  0  0  0
  -23.0751   -9.4795    5.2966 O   0  5  0  0  0  0  0  0  0  0  0  0
  -21.3755  -10.8492    2.9036 O   0  0  0  0  0  0  0  0  0  0  0  0
  -23.4359  -13.6486   11.4106 S   0  0  0  0  0  0  0  0  0  0  0  0
  -23.8402  -15.3270   11.5921 C   0  0  0  0  0  0  0  0  0  0  0  0
  -25.0474  -11.0671    5.7317 O   0  0  0  0  0  0  0  0  0  0  0  0
  -22.3007  -13.0723    2.5117 O   0  5  0  0  0  0  0  0  0  0  0  0
  -23.6733  -15.9898   10.4142 N   0  0  0  0  0  0  0  0  0  0  0  0
  -22.8766  -11.9113    4.6134 O   0  0  0  0  0  0  0  0  0  0  0  0
  -23.8671  -11.1292    2.4612 O   0  0  0  0  0  0  0  0  0  0  0  0
  -23.2400  -15.2372    9.3657 C   0  0  1  0  0  0  0  0  0  0  0  0
  -23.0208  -13.8165    9.7503 C   0  0  1  0  0  0  0  0  0  0  0  0
  -22.5635  -12.5818    9.0200 C   0  0  0  0  0  0  0  0  0  0  0  0
  -23.3707  -12.4461    7.7386 C   0  0  0  0  0  0  0  0  0  0  0  0
  -22.9533  -11.2596    7.0746 O   0  0  0  0  0  0  0  0  0  0  0  0
  1 11  1  0  0  0  0
  3 13  1  6  0  0  0
  3 17  2  0  0  0  0
  3 20  1  0  0  0  0
  3 26  1  0  0  0  0
  4 14  1  6  0  0  0
  4 18  1  0  0  0  0
  4 21  2  0  0  0  0
  4 20  1  0  0  0  0
  5 19  1  0  0  0  0
  5  7  1  0  0  0  0
  6  7  2  0  0  0  0
  6 12  1  0  0  0  0
  7  8  1  0  0  0  0
  8  9  1  0  0  0  0
  8 10  2  0  0  0  0
 10 11  1  0  0  0  0
 11 12  2  0  0  0  0
 15 23  1  0  0  0  0
 15 16  1  0  0  0  0
 16 19  1  0  0  0  0
 19 22  1  0  0  0  0
 22  2  1  1  0  0  0
 22 23  1  0  0  0  0
 23 24  1  6  0  0  0
 24 25  1  0  0  0  0
 25 26  1  0  0  0  0
M  CHG  2  13  -1  18  -1
M  END
>  <CHROM.1>
-38.89375010,-79.82276481,56.62492816,78.53900430,-129.00270394,178.57595029
176.82731939,172.24241761,-22.77356891,-14.37471086,7.90160893,-1.27531788
1.18244250,-1.04974935

>  <Name>
ligand

>  <RI>
0

>  <Rbt.Current_Directory>
/home/itssahil/PROJECTS/Mol_Feturizer/New_Systems/rnas/2GDI

>  <Rbt.Executable>
rbdock ($Id: //depot/dev/client3/rdock/2013.1/src/exe/rbdock.cxx#4 $)

>  <Rbt.Library>
libRbt.so (2013.1, Build901 2013/11/27)

>  <Rbt.Parameter_File>
/export/apps/rDock/src/rDock_2013.1_src/data/scripts/dock_solv.prm

>  <Rbt.Receptor>
prm/blind_docking_80.prm

>  <SCORE>
-10.0753

>  <SCORE.INTER>
-9.92055

>  <SCORE.INTER.CONST>
1

>  <SCORE.INTER.POLAR>
0

>  <SCORE.INTER.ROT>
8

>  <SCORE.INTER.SOLV>
18.2358

>  <SCORE.INTER.VDW>
-21.6256

>  <SCORE.INTER.norm>
-0.38156

>  <SCORE.INTRA>
-0.154714

>  <SCORE.INTRA.DIHEDRAL>
-1.85236

>  <SCORE.INTRA.DIHEDRAL.0>
8.13976

>  <SCORE.INTRA.POLAR>
0

>  <SCORE.INTRA.POLAR.0>
0

>  <SCORE.INTRA.REPUL>
0

>  <SCORE.INTRA.REPUL.0>
0

>  <SCORE.INTRA.SOLV>
1.47611

>  <SCORE.INTRA.SOLV.lig_0>
-82.9561

>  <SCORE.INTRA.VDW>
0.033412

>  <SCORE.INTRA.VDW.0>
-3.29171

>  <SCORE.INTRA.norm>
-0.00595053

>  <SCORE.RESTR>
0

>  <SCORE.RESTR.CAVITY>
0

>  <SCORE.RESTR.norm>
0

>  <SCORE.SYSTEM>
0

>  <SCORE.SYSTEM.CONST>
0

>  <SCORE.SYSTEM.DIHEDRAL>
0

>  <SCORE.SYSTEM.SOLV>
0

>  <SCORE.SYSTEM.norm>
0

>  <SCORE.heavy>
26

>  <SCORE.norm>
-0.38751

>  <RMSD>
11.590

$$$$
ligand
 OpenBabel11021811433D
libRbt.so/2013.1/901 2013/11/27
 26 27  0  0  0  0  0  0  0  0999 V2000
  -22.8532  -17.7989    4.5096 C   0  0  0  0  0  0  0  0  0  0  0  0
  -22.2958  -13.0562    8.8104 C   0  0  0  0  0  0  0  0  0  0  0  0
  -22.5841  -17.5727   12.0493 P   0  0  1  0  0  0  0  0  0  0  0  0
  -22.0428  -19.8609   10.3376 P   0  0  1  0  0  0  0  0  0  0  0  0
  -24.8675  -13.2112    7.3254 C   0  0  0  0  0  0  0  0  0  0  0  0
  -24.0808  -15.6124    7.2505 C   0  0  0  0  0  0  0  0  0  0  0  0
  -24.3253  -14.4198    6.5813 C   0  0  0  0  0  0  0  0  0  0  0  0
  -24.0778  -14.3585    5.2197 C   0  0  0  0  0  0  0  0  0  0  0  0
  -24.2999  -13.2167    4.5245 N   0  0  0  0  0  0  0  0  0  0  0  0
  -23.6089  -15.4498    4.5765 N   0  0  0  0  0  0  0  0  0  0  0  0
  -23.3773  -16.5981    5.2495 C   0  0  0  0  0  0  0  0  0  0  0  0
  -23.6128  -16.6758    6.5821 N   0  0  0  0  0  0  0  0  0  0  0  0
  -23.9553  -18.0071   12.4960 O   0  5  0  0  0  0  0  0  0  0  0  0
  -21.7959  -20.0105    8.8679 O   0  0  0  0  0  0  0  0  0  0  0  0
  -25.4746  -13.8896   11.1930 S   0  0  0  0  0  0  0  0  0  0  0  0
  -25.9064  -13.6988    9.5226 C   0  0  0  0  0  0  0  0  0  0  0  0
  -21.4534  -17.7522   13.0210 O   0  0  0  0  0  0  0  0  0  0  0  0
  -20.8009  -20.2141   11.0861 O   0  5  0  0  0  0  0  0  0  0  0  0
  -24.8045  -13.4217    8.7717 N   0  0  0  0  0  0  0  0  0  0  0  0
  -22.2672  -18.2814   10.6265 O   0  0  0  0  0  0  0  0  0  0  0  0
  -23.2648  -20.5547   10.8749 O   0  0  0  0  0  0  0  0  0  0  0  0
  -23.6264  -13.3504    9.4502 C   0  0  1  0  0  0  0  0  0  0  0  0
  -23.8019  -13.6149   10.9041 C   0  0  1  0  0  0  0  0  0  0  0  0
  -22.8749  -13.6626   12.0896 C   0  0  0  0  0  0  0  0  0  0  0  0
  -22.9495  -15.0482   12.7115 C   0  0  0  0  0  0  0  0  0  0  0  0
  -22.6499  -16.0044   11.7021 O   0  0  0  0  0  0  0  0  0  0  0  0
  1 11  1  0  0  0  0
  3 13  1  1  0  0  0
  3 17  2  0  0  0  0
  3 20  1  0  0  0  0
  3 26  1  0  0  0  0
  4 14  1  6  0  0  0
  4 18  1  0  0  0  0
  4 21  2  0  0  0  0
  4 20  1  0  0  0  0
  5 19  1  0  0  0  0
  5  7  1  0  0  0  0
  6  7  2  0  0  0  0
  6 12  1  0  0  0  0
  7  8  1  0  0  0  0
  8  9  1  0  0  0  0
  8 10  2  0  0  0  0
 10 11  1  0  0  0  0
 11 12  2  0  0  0  0
 15 23  1  0  0  0  0
 15 16  1  0  0  0  0
 16 19  1  0  0  0  0
 19 22  1  0  0  0  0
 22  2  1  6  0  0  0
 22 23  1  0  0  0  0
 23 24  1  1  0  0  0
 24 25  1  0  0  0  0
 25 26  1  0  0  0  0
M  CHG  2  13  -1  18  -1
M  END
>  <CHROM.1>
-67.15647042,-105.14576519,11.61270009,179.39436269,60.79609942,55.64177484
177.45452965,63.41860967,-23.31027544,-16.24324837,9.45629491,-2.46783532
-1.20542499,1.45094355

>  <Name>
ligand

>  <RI>
0

>  <Rbt.Current_Directory>
/home/itssahil/PROJECTS/Mol_Feturizer/New_Systems/rnas/2GDI

>  <Rbt.Executable>
rbdock ($Id: //depot/dev/client3/rdock/2013.1/src/exe/rbdock.cxx#4 $)

>  <Rbt.Library>
libRbt.so (2013.1, Build901 2013/11/27)

>  <Rbt.Parameter_File>
/export/apps/rDock/src/rDock_2013.1_src/data/scripts/dock_solv.prm

>  <Rbt.Receptor>
prm/blind_docking_80.prm

>  <SCORE>
-12.3892

>  <SCORE.INTER>
-11.8586

>  <SCORE.INTER.CONST>
1

>  <SCORE.INTER.POLAR>
0

>  <SCORE.INTER.ROT>
8

>  <SCORE.INTER.SOLV>
13.7091

>  <SCORE.INTER.VDW>
-21.4088

>  <SCORE.INTER.norm>
-0.456102

>  <SCORE.INTRA>
-0.53054

>  <SCORE.INTRA.DIHEDRAL>
-2.81655

>  <SCORE.INTRA.DIHEDRAL.0>
8.13976

>  <SCORE.INTRA.POLAR>
0

>  <SCORE.INTRA.POLAR.0>
0

>  <SCORE.INTRA.REPUL>
0

>  <SCORE.INTRA.REPUL.0>
0

>  <SCORE.INTRA.SOLV>
1.93309

>  <SCORE.INTRA.SOLV.lig_0>
-82.9561

>  <SCORE.INTRA.VDW>
-0.0888092

>  <SCORE.INTRA.VDW.0>
-3.29171

>  <SCORE.INTRA.norm>
-0.0204054

>  <SCORE.RESTR>
0

>  <SCORE.RESTR.CAVITY>
0

>  <SCORE.RESTR.norm>
0

>  <SCORE.SYSTEM>
0

>  <SCORE.SYSTEM.CONST>
0

>  <SCORE.SYSTEM.DIHEDRAL>
0

>  <SCORE.SYSTEM.SOLV>
0

>  <SCORE.SYSTEM.norm>
0

>  <SCORE.heavy>
26

>  <SCORE.norm>
-0.476507

>  <RMSD>
11.595

$$$$
ligand
 OpenBabel11021811433D
libRbt.so/2013.1/901 2013/11/27
 26 27  0  0  0  0  0  0  0  0999 V2000
  -22.2642  -11.1091    4.1597 C   0  0  0  0  0  0  0  0  0  0  0  0
  -21.9245  -12.5209   10.2426 C   0  0  0  0  0  0  0  0  0  0  0  0
  -24.6136  -18.2670   12.1436 P   0  0  1  0  0  0  0  0  0  0  0  0
  -23.6056  -20.9914   12.0010 P   0  0  1  0  0  0  0  0  0  0  0  0
  -24.0867  -10.5880    9.5855 C   0  0  0  0  0  0  0  0  0  0  0  0
  -23.8030  -11.9041    7.4460 C   0  0  0  0  0  0  0  0  0  0  0  0
  -23.5952  -10.7276    8.1547 C   0  0  0  0  0  0  0  0  0  0  0  0
  -22.9428   -9.6793    7.5265 C   0  0  0  0  0  0  0  0  0  0  0  0
  -22.7163   -8.5127    8.1777 N   0  0  0  0  0  0  0  0  0  0  0  0
  -22.5269   -9.8213    6.2493 N   0  0  0  0  0  0  0  0  0  0  0  0
  -22.7392  -10.9762    5.5813 C   0  0  0  0  0  0  0  0  0  0  0  0
  -23.3748  -12.0126    6.1806 N   0  0  0  0  0  0  0  0  0  0  0  0
  -25.9888  -18.5633   12.6816 O   0  5  0  0  0  0  0  0  0  0  0  0
  -23.4673  -21.9671   10.8730 O   0  0  0  0  0  0  0  0  0  0  0  0
  -25.6374  -13.9142   11.1084 S   0  0  0  0  0  0  0  0  0  0  0  0
  -25.6498  -12.3151   10.4333 C   0  0  0  0  0  0  0  0  0  0  0  0
  -23.5899  -17.7517   13.1139 O   0  0  0  0  0  0  0  0  0  0  0  0
  -22.2590  -20.7109   12.5800 O   0  5  0  0  0  0  0  0  0  0  0  0
  -24.3814  -11.8996   10.1627 N   0  0  0  0  0  0  0  0  0  0  0  0
  -24.0834  -19.5817   11.3580 O   0  0  0  0  0  0  0  0  0  0  0  0
  -24.6307  -21.3342   13.0474 O   0  0  0  0  0  0  0  0  0  0  0  0
  -23.3904  -12.7834   10.4631 C   0  0  1  0  0  0  0  0  0  0  0  0
  -23.9257  -14.0544   11.0222 C   0  0  1  0  0  0  0  0  0  0  0  0
  -23.3077  -15.3363   11.5139 C   0  0  0  0  0  0  0  0  0  0  0  0
  -23.6238  -16.4426   10.5196 C   0  0  0  0  0  0  0  0  0  0  0  0
  -24.7610  -17.1536   10.9934 O   0  0  0  0  0  0  0  0  0  0  0  0
  1 11  1  0  0  0  0
  3 13  1  1  0  0  0
  3 17  2  0  0  0  0
  3 20  1  0  0  0  0
  3 26  1  0  0  0  0
  4 14  1  6  0  0  0
  4 18  1  0  0  0  0
  4 21  2  0  0  0  0
  4 20  1  0  0  0  0
  5 19  1  0  0  0  0
  5  7  1  0  0  0  0
  6  7  2  0  0  0  0
  6 12  1  0  0  0  0
  7  8  1  0  0  0  0
  8  9  1  0  0  0  0
  8 10  2  0  0  0  0
 10 11  1  0  0  0  0
 11 12  2  0  0  0  0
 15 23  1  0  0  0  0
 15 16  1  0  0  0  0
 16 19  1  0  0  0  0
 19 22  1  0  0  0  0
 22  2  1  6  0  0  0
 22 23  1  0  0  0  0
 23 24  1  1  0  0  0
 24 25  1  0  0  0  0
 25 26  1  0  0  0  0
M  CHG  2  13  -1  18  -1
M  END
>  <CHROM.1>
-71.90828089,-109.99562783,17.10571483,169.11418563,71.77311016,-96.77746734
-79.94565023,165.00600531,-23.84505792,-15.26921067,10.22702932,-1.40852651
-1.07874466,2.82216583

>  <Name>
ligand

>  <RI>
0

>  <Rbt.Current_Directory>
/home/itssahil/PROJECTS/Mol_Feturizer/New_Systems/rnas/2GDI

>  <Rbt.Executable>
rbdock ($Id: //depot/dev/client3/rdock/2013.1/src/exe/rbdock.cxx#4 $)

>  <Rbt.Library>
libRbt.so (2013.1, Build901 2013/11/27)

>  <Rbt.Parameter_File>
/export/apps/rDock/src/rDock_2013.1_src/data/scripts/dock_solv.prm

>  <Rbt.Receptor>
prm/blind_docking_80.prm

>  <SCORE>
-13.135

>  <SCORE.INTER>
-16.5774

>  <SCORE.INTER.CONST>
1

>  <SCORE.INTER.POLAR>
0

>  <SCORE.INTER.ROT>
8

>  <SCORE.INTER.SOLV>
13.1823

>  <SCORE.INTER.VDW>
-24.379

>  <SCORE.INTER.norm>
-0.637593

>  <SCORE.INTRA>
3.44238

>  <SCORE.INTRA.DIHEDRAL>
3.44832

>  <SCORE.INTRA.DIHEDRAL.0>
8.13976

>  <SCORE.INTRA.POLAR>
0

>  <SCORE.INTRA.POLAR.0>
0

>  <SCORE.INTRA.REPUL>
0

>  <SCORE.INTRA.REPUL.0>
0

>  <SCORE.INTRA.SOLV>
2.79263

>  <SCORE.INTRA.SOLV.lig_0>
-82.9561

>  <SCORE.INTRA.VDW>
0.321906

>  <SCORE.INTRA.VDW.0>
-3.29171

>  <SCORE.INTRA.norm>
0.132399

>  <SCORE.RESTR>
0

>  <SCORE.RESTR.CAVITY>
0

>  <SCORE.RESTR.norm>
0

>  <SCORE.SYSTEM>
0

>  <SCORE.SYSTEM.CONST>
0

>  <SCORE.SYSTEM.DIHEDRAL>
0

>  <SCORE.SYSTEM.SOLV>
0

>  <SCORE.SYSTEM.norm>
0

>  <SCORE.heavy>
26

>  <SCORE.norm>
-0.505194

>  <RMSD>
11.633

$$$$
ligand
 OpenBabel11021811433D
libRbt.so/2013.1/901 2013/11/27
 26 27  0  0  0  0  0  0  0  0999 V2000
  -28.7719  -18.4014   -8.2835 C   0  0  0  0  0  0  0  0  0  0  0  0
  -27.9924  -13.9152   -2.9152 C   0  0  0  0  0  0  0  0  0  0  0  0
  -25.2351  -12.0247    1.8007 P   0  0  1  0  0  0  0  0  0  0  0  0
  -22.9847  -12.7345    3.5009 P   0  0  1  0  0  0  0  0  0  0  0  0
  -27.8991  -13.2828   -5.8194 C   0  0  0  0  0  0  0  0  0  0  0  0
  -27.2693  -15.6967   -6.2274 C   0  0  0  0  0  0  0  0  0  0  0  0
  -28.1255  -14.6323   -6.4798 C   0  0  0  0  0  0  0  0  0  0  0  0
  -29.1975  -14.8294   -7.3347 C   0  0  0  0  0  0  0  0  0  0  0  0
  -30.0589  -13.8207   -7.6120 N   0  0  0  0  0  0  0  0  0  0  0  0
  -29.3869  -16.0417   -7.8995 N   0  0  0  0  0  0  0  0  0  0  0  0
  -28.5394  -17.0612   -7.6399 C   0  0  0  0  0  0  0  0  0  0  0  0
  -27.4847  -16.8860   -6.8068 N   0  0  0  0  0  0  0  0  0  0  0  0
  -26.7138  -12.3081    1.8421 O   0  5  0  0  0  0  0  0  0  0  0  0
  -22.7589  -13.8528    4.4714 O   0  0  0  0  0  0  0  0  0  0  0  0
  -24.2434  -13.1471   -4.2687 S   0  0  0  0  0  0  0  0  0  0  0  0
  -25.4520  -13.0369   -5.5098 C   0  0  0  0  0  0  0  0  0  0  0  0
  -24.8101  -10.5852    1.7557 O   0  0  0  0  0  0  0  0  0  0  0  0
  -22.1928  -12.9879    2.2616 O   0  5  0  0  0  0  0  0  0  0  0  0
  -26.6869  -13.3030   -5.0008 N   0  0  0  0  0  0  0  0  0  0  0  0
  -24.5336  -12.8166    3.0286 O   0  0  0  0  0  0  0  0  0  0  0  0
  -22.7931  -11.3436    4.0414 O   0  0  0  0  0  0  0  0  0  0  0  0
  -26.7311  -13.5928   -3.6713 C   0  0  1  0  0  0  0  0  0  0  0  0
  -25.3837  -13.5376   -3.0422 C   0  0  1  0  0  0  0  0  0  0  0  0
  -24.8568  -13.7632   -1.6498 C   0  0  0  0  0  0  0  0  0  0  0  0
  -25.2901  -12.6009   -0.7703 C   0  0  0  0  0  0  0  0  0  0  0  0
  -24.6331  -12.7253    0.4851 O   0  0  0  0  0  0  0  0  0  0  0  0
  1 11  1  0  0  0  0
  3 13  1  1  0  0  0
  3 17  2  0  0  0  0
  3 20  1  0  0  0  0
  3 26  1  0  0  0  0
  4 14  1  1  0  0  0
  4 18  1  0  0  0  0
  4 21  2  0  0  0  0
  4 20  1  0  0  0  0
  5 19  1  0  0  0  0
  5  7  1  0  0  0  0
  6  7  2  0  0  0  0
  6 12  1  0  0  0  0
  7  8  1  0  0  0  0
  8  9  1  0  0  0  0
  8 10  2  0  0  0  0
 10 11  1  0  0  0  0
 11 12  2  0  0  0  0
 15 23  1  0  0  0  0
 15 16  1  0  0  0  0
 16 19  1  0  0  0  0
 19 22  1  0  0  0  0
 22  2  1  1  0  0  0
 22 23  1  0  0  0  0
 23 24  1  6  0  0  0
 24 25  1  0  0  0  0
 25 26  1  0  0  0  0
M  CHG  2  13  -1  18  -1
M  END
>  <CHROM.1>
-174.02926285,86.72873871,2.57168248,-168.05383765,109.46074421,-171.85911464
-157.37464115,45.76397506,-25.81119308,-13.59718563,-1.99007509,-2.10127531
-0.66162953,0.92339552

>  <Name>
ligand

>  <RI>
0

>  <Rbt.Current_Directory>
/home/itssahil/PROJECTS/Mol_Feturizer/New_Systems/rnas/2GDI

>  <Rbt.Executable>
rbdock ($Id: //depot/dev/client3/rdock/2013.1/src/exe/rbdock.cxx#4 $)

>  <Rbt.Library>
libRbt.so (2013.1, Build901 2013/11/27)

>  <Rbt.Parameter_File>
/export/apps/rDock/src/rDock_2013.1_src/data/scripts/dock_solv.prm

>  <Rbt.Receptor>
prm/blind_docking_60.prm

>  <SCORE>
-7.38225

>  <SCORE.INTER>
-7.97547

>  <SCORE.INTER.CONST>
1

>  <SCORE.INTER.POLAR>
0

>  <SCORE.INTER.ROT>
8

>  <SCORE.INTER.SOLV>
19.1542

>  <SCORE.INTER.VDW>
-20.635

>  <SCORE.INTER.norm>
-0.306749

>  <SCORE.INTRA>
0.430026

>  <SCORE.INTRA.DIHEDRAL>
-0.118632

>  <SCORE.INTRA.DIHEDRAL.0>
8.13976

>  <SCORE.INTRA.POLAR>
0

>  <SCORE.INTRA.POLAR.0>
0

>  <SCORE.INTRA.REPUL>
0

>  <SCORE.INTRA.REPUL.0>
0

>  <SCORE.INTRA.SOLV>
1.31371

>  <SCORE.INTRA.SOLV.lig_0>
-82.9561

>  <SCORE.INTRA.VDW>
-0.167511

>  <SCORE.INTRA.VDW.0>
-3.29171

>  <SCORE.INTRA.norm>
0.0165395

>  <SCORE.RESTR>
0.163192

>  <SCORE.RESTR.CAVITY>
0.163192

>  <SCORE.RESTR.norm>
0.00627662

>  <SCORE.SYSTEM>
0

>  <SCORE.SYSTEM.CONST>
0

>  <SCORE.SYSTEM.DIHEDRAL>
0

>  <SCORE.SYSTEM.SOLV>
0

>  <SCORE.SYSTEM.norm>
0

>  <SCORE.heavy>
26

>  <SCORE.norm>
-0.283933

>  <RMSD>
11.682

$$$$
ligand
 OpenBabel11021811433D
libRbt.so/2013.1/901 2013/11/27
 26 27  0  0  0  0  0  0  0  0999 V2000
  -22.4297  -10.7480    4.4401 C   0  0  0  0  0  0  0  0  0  0  0  0
  -21.8710  -12.4404   11.0118 C   0  0  0  0  0  0  0  0  0  0  0  0
  -22.6176  -18.9554   10.5131 P   0  0  1  0  0  0  0  0  0  0  0  0
  -20.4141  -19.7642   12.2305 P   0  0  1  0  0  0  0  0  0  0  0  0
  -23.9669  -10.6025    9.9763 C   0  0  0  0  0  0  0  0  0  0  0  0
  -22.6753  -11.6025    8.0470 C   0  0  0  0  0  0  0  0  0  0  0  0
  -23.5537  -10.6331    8.5145 C   0  0  0  0  0  0  0  0  0  0  0  0
  -24.0559   -9.7033    7.6189 C   0  0  0  0  0  0  0  0  0  0  0  0
  -24.9145   -8.7382    8.0285 N   0  0  0  0  0  0  0  0  0  0  0  0
  -23.6852   -9.7584    6.3211 N   0  0  0  0  0  0  0  0  0  0  0  0
  -22.8281  -10.7098    5.8906 C   0  0  0  0  0  0  0  0  0  0  0  0
  -22.3260  -11.6269    6.7532 N   0  0  0  0  0  0  0  0  0  0  0  0
  -22.7344  -18.7071    9.0321 O   0  5  0  0  0  0  0  0  0  0  0  0
  -20.2569  -18.3835   12.7894 O   0  0  0  0  0  0  0  0  0  0  0  0
  -25.5939  -14.0569   11.0750 S   0  0  0  0  0  0  0  0  0  0  0  0
  -25.5643  -12.4381   10.4491 C   0  0  0  0  0  0  0  0  0  0  0  0
  -23.7221  -19.7310   11.1714 O   0  0  0  0  0  0  0  0  0  0  0  0
  -21.3610  -20.5388   13.0853 O   0  5  0  0  0  0  0  0  0  0  0  0
  -24.2940  -11.9471   10.4508 N   0  0  0  0  0  0  0  0  0  0  0  0
  -21.1673  -19.6189   10.8021 O   0  0  0  0  0  0  0  0  0  0  0  0
  -19.1387  -20.5106   11.9485 O   0  0  0  0  0  0  0  0  0  0  0  0
  -23.3334  -12.7874   10.9247 C   0  0  1  0  0  0  0  0  0  0  0  0
  -23.8945  -14.1035   11.3338 C   0  0  1  0  0  0  0  0  0  0  0  0
  -23.3138  -15.3675   11.9101 C   0  0  0  0  0  0  0  0  0  0  0  0
  -23.4279  -16.4736   10.8729 C   0  0  0  0  0  0  0  0  0  0  0  0
  -22.5520  -17.5286   11.2509 O   0  0  0  0  0  0  0  0  0  0  0  0
  1 11  1  0  0  0  0
  3 13  1  6  0  0  0
  3 17  2  0  0  0  0
  3 20  1  0  0  0  0
  3 26  1  0  0  0  0
  4 14  1  1  0  0  0
  4 18  1  0  0  0  0
  4 21  2  0  0  0  0
  4 20  1  0  0  0  0
  5 19  1  0  0  0  0
  5  7  1  0  0  0  0
  6  7  2  0  0  0  0
  6 12  1  0  0  0  0
  7  8  1  0  0  0  0
  8  9  1  0  0  0  0
  8 10  2  0  0  0  0
 10 11  1  0  0  0  0
 11 12  2  0  0  0  0
 15 23  1  0  0  0  0
 15 16  1  0  0  0  0
 16 19  1  0  0  0  0
 19 22  1  0  0  0  0
 22  2  1  6  0  0  0
 22 23  1  0  0  0  0
 23 24  1  1  0  0  0
 24 25  1  0  0  0  0
 25 26  1  0  0  0  0
M  CHG  2  13  -1  18  -1
M  END
>  <CHROM.1>
164.78321969,-93.93496696,-44.73191953,-58.42998208,68.70928929,163.27909581
169.23545704,43.92750548,-22.83878892,-15.12960584,10.10996395,-1.93695827
-0.83986739,2.45283005

>  <Name>
ligand

>  <RI>
0

>  <Rbt.Current_Directory>
/home/itssahil/PROJECTS/Mol_Feturizer/New_Systems/rnas/2GDI

>  <Rbt.Executable>
rbdock ($Id: //depot/dev/client3/rdock/2013.1/src/exe/rbdock.cxx#4 $)

>  <Rbt.Library>
libRbt.so (2013.1, Build901 2013/11/27)

>  <Rbt.Parameter_File>
/export/apps/rDock/src/rDock_2013.1_src/data/scripts/dock_solv.prm

>  <Rbt.Receptor>
prm/blind_docking_80.prm

>  <SCORE>
-14.2287

>  <SCORE.INTER>
-13.7506

>  <SCORE.INTER.CONST>
1

>  <SCORE.INTER.POLAR>
0

>  <SCORE.INTER.ROT>
8

>  <SCORE.INTER.SOLV>
18.8663

>  <SCORE.INTER.VDW>
-24.3892

>  <SCORE.INTER.norm>
-0.528868

>  <SCORE.INTRA>
-0.478524

>  <SCORE.INTRA.DIHEDRAL>
-0.603382

>  <SCORE.INTRA.DIHEDRAL.0>
8.13976

>  <SCORE.INTRA.POLAR>
0

>  <SCORE.INTRA.POLAR.0>
0

>  <SCORE.INTRA.REPUL>
0

>  <SCORE.INTRA.REPUL.0>
0

>  <SCORE.INTRA.SOLV>
-0.516154

>  <SCORE.INTRA.SOLV.lig_0>
-82.9561

>  <SCORE.INTRA.VDW>
0.0812444

>  <SCORE.INTRA.VDW.0>
-3.29171

>  <SCORE.INTRA.norm>
-0.0184048

>  <SCORE.RESTR>
0.000368545

>  <SCORE.RESTR.CAVITY>
0.000368545

>  <SCORE.RESTR.norm>
1.41748e-05

>  <SCORE.SYSTEM>
0

>  <SCORE.SYSTEM.CONST>
0

>  <SCORE.SYSTEM.DIHEDRAL>
0

>  <SCORE.SYSTEM.SOLV>
0

>  <SCORE.SYSTEM.norm>
0

>  <SCORE.heavy>
26

>  <SCORE.norm>
-0.547258

>  <RMSD>
11.705

$$$$
ligand
 OpenBabel11021811433D
libRbt.so/2013.1/901 2013/11/27
 26 27  0  0  0  0  0  0  0  0999 V2000
  -19.4673  -19.8854   12.9217 C   0  0  0  0  0  0  0  0  0  0  0  0
  -23.0135  -15.4976    7.7906 C   0  0  0  0  0  0  0  0  0  0  0  0
  -22.8044  -10.9707    6.6853 P   0  0  1  0  0  0  0  0  0  0  0  0
  -23.1435  -10.7917    3.8022 P   0  0  1  0  0  0  0  0  0  0  0  0
  -23.6720  -17.7152    9.6592 C   0  0  0  0  0  0  0  0  0  0  0  0
  -22.1615  -17.6467   11.6850 C   0  0  0  0  0  0  0  0  0  0  0  0
  -22.5533  -18.2849   10.5150 C   0  0  0  0  0  0  0  0  0  0  0  0
  -21.9131  -19.4582   10.1511 C   0  0  0  0  0  0  0  0  0  0  0  0
  -22.2599  -20.1156    9.0180 N   0  0  0  0  0  0  0  0  0  0  0  0
  -20.9306  -19.9534   10.9347 N   0  0  0  0  0  0  0  0  0  0  0  0
  -20.5661  -19.3135   12.0673 C   0  0  0  0  0  0  0  0  0  0  0  0
  -21.1809  -18.1638   12.4382 N   0  0  0  0  0  0  0  0  0  0  0  0
  -22.0484   -9.7252    7.0669 O   0  5  0  0  0  0  0  0  0  0  0  0
  -22.9971   -9.3010    3.7993 O   0  0  0  0  0  0  0  0  0  0  0  0
  -24.6499  -14.2214   11.2792 S   0  0  0  0  0  0  0  0  0  0  0  0
  -24.4838  -15.9472   11.1954 C   0  0  0  0  0  0  0  0  0  0  0  0
  -24.2893  -10.9716    6.9089 O   0  0  0  0  0  0  0  0  0  0  0  0
  -22.3410  -11.3695    2.6845 O   0  5  0  0  0  0  0  0  0  0  0  0
  -23.9310  -16.3181   10.0073 N   0  0  0  0  0  0  0  0  0  0  0  0
  -22.4311  -11.3395    5.1518 O   0  0  0  0  0  0  0  0  0  0  0  0
  -24.5532  -11.3157    3.8400 O   0  0  0  0  0  0  0  0  0  0  0  0
  -23.6290  -15.3039    9.1508 C   0  0  1  0  0  0  0  0  0  0  0  0
  -23.9631  -13.9713    9.7226 C   0  0  1  0  0  0  0  0  0  0  0  0
  -23.8488  -12.5519    9.2334 C   0  0  0  0  0  0  0  0  0  0  0  0
  -22.3855  -12.2498    8.9510 C   0  0  0  0  0  0  0  0  0  0  0  0
  -22.2079  -12.1940    7.5409 O   0  0  0  0  0  0  0  0  0  0  0  0
  1 11  1  0  0  0  0
  3 13  1  1  0  0  0
  3 17  2  0  0  0  0
  3 20  1  0  0  0  0
  3 26  1  0  0  0  0
  4 14  1  6  0  0  0
  4 18  1  0  0  0  0
  4 21  2  0  0  0  0
  4 20  1  0  0  0  0
  5 19  1  0  0  0  0
  5  7  1  0  0  0  0
  6  7  2  0  0  0  0
  6 12  1  0  0  0  0
  7  8  1  0  0  0  0
  8  9  1  0  0  0  0
  8 10  2  0  0  0  0
 10 11  1  0  0  0  0
 11 12  2  0  0  0  0
 15 23  1  0  0  0  0
 15 16  1  0  0  0  0
 16 19  1  0  0  0  0
 19 22  1  0  0  0  0
 22  2  1  1  0  0  0
 22 23  1  0  0  0  0
 23 24  1  6  0  0  0
 24 25  1  0  0  0  0
 25 26  1  0  0  0  0
M  CHG  2  13  -1  18  -1
M  END
>  <CHROM.1>
-87.09034460,-69.04496080,16.84797176,59.73604373,121.04333429,107.36592921
70.93973628,67.45206014,-22.84793695,-14.25535201,8.29340840,-1.31013718
1.10391899,-0.91419598

>  <Name>
ligand

>  <RI>
0

>  <Rbt.Current_Directory>
/home/itssahil/PROJECTS/Mol_Feturizer/New_Systems/rnas/2GDI

>  <Rbt.Executable>
rbdock ($Id: //depot/dev/client3/rdock/2013.1/src/exe/rbdock.cxx#4 $)

>  <Rbt.Library>
libRbt.so (2013.1, Build901 2013/11/27)

>  <Rbt.Parameter_File>
/export/apps/rDock/src/rDock_2013.1_src/data/scripts/dock_solv.prm

>  <Rbt.Receptor>
prm/blind_docking_80.prm

>  <SCORE>
-11.3992

>  <SCORE.INTER>
-14.0803

>  <SCORE.INTER.CONST>
1

>  <SCORE.INTER.POLAR>
0

>  <SCORE.INTER.ROT>
8

>  <SCORE.INTER.SOLV>
22.3414

>  <SCORE.INTER.VDW>
-25.7673

>  <SCORE.INTER.norm>
-0.541551

>  <SCORE.INTRA>
2.68116

>  <SCORE.INTRA.DIHEDRAL>
2.67677

>  <SCORE.INTRA.DIHEDRAL.0>
8.13976

>  <SCORE.INTRA.POLAR>
0

>  <SCORE.INTRA.POLAR.0>
0

>  <SCORE.INTRA.REPUL>
0

>  <SCORE.INTRA.REPUL.0>
0

>  <SCORE.INTRA.SOLV>
1.29828

>  <SCORE.INTRA.SOLV.lig_0>
-82.9561

>  <SCORE.INTRA.VDW>
0.693632

>  <SCORE.INTRA.VDW.0>
-3.29171

>  <SCORE.INTRA.norm>
0.103121

>  <SCORE.RESTR>
0

>  <SCORE.RESTR.CAVITY>
0

>  <SCORE.RESTR.norm>
0

>  <SCORE.SYSTEM>
0

>  <SCORE.SYSTEM.CONST>
0

>  <SCORE.SYSTEM.DIHEDRAL>
0

>  <SCORE.SYSTEM.SOLV>
0

>  <SCORE.SYSTEM.norm>
0

>  <SCORE.heavy>
26

>  <SCORE.norm>
-0.438429

>  <RMSD>
11.727

$$$$
ligand
 OpenBabel11021811433D
libRbt.so/2013.1/901 2013/11/27
 26 27  0  0  0  0  0  0  0  0999 V2000
  -21.8514  -19.9475    9.5973 C   0  0  0  0  0  0  0  0  0  0  0  0
  -22.4351  -12.7518    8.3560 C   0  0  0  0  0  0  0  0  0  0  0  0
  -25.5562   -9.2268    8.0631 P   0  0  1  0  0  0  0  0  0  0  0  0
  -23.0076   -9.1218    6.6657 P   0  0  1  0  0  0  0  0  0  0  0  0
  -24.1556  -15.0650    7.6262 C   0  0  0  0  0  0  0  0  0  0  0  0
  -23.2894  -16.5236    9.5004 C   0  0  0  0  0  0  0  0  0  0  0  0
  -23.5369  -16.3524    8.1442 C   0  0  0  0  0  0  0  0  0  0  0  0
  -23.2211  -17.3838    7.2752 C   0  0  0  0  0  0  0  0  0  0  0  0
  -23.4432  -17.2626    5.9439 N   0  0  0  0  0  0  0  0  0  0  0  0
  -22.6846  -18.5248    7.7601 N   0  0  0  0  0  0  0  0  0  0  0  0
  -22.4516  -18.6670    9.0832 C   0  0  0  0  0  0  0  0  0  0  0  0
  -22.7535  -17.6677    9.9478 N   0  0  0  0  0  0  0  0  0  0  0  0
  -26.2790   -8.2325    8.9335 O   0  5  0  0  0  0  0  0  0  0  0  0
  -22.2027   -9.7146    7.7812 O   0  0  0  0  0  0  0  0  0  0  0  0
  -25.7194  -13.1135   10.7138 S   0  0  0  0  0  0  0  0  0  0  0  0
  -25.6184  -14.3430    9.4926 C   0  0  0  0  0  0  0  0  0  0  0  0
  -26.3801  -10.0148    7.0859 O   0  0  0  0  0  0  0  0  0  0  0  0
  -23.5242  -10.2166    5.7928 O   0  5  0  0  0  0  0  0  0  0  0  0
  -24.5005  -14.1734    8.7336 N   0  0  0  0  0  0  0  0  0  0  0  0
  -24.3306   -8.4605    7.3298 O   0  0  0  0  0  0  0  0  0  0  0  0
  -22.3436   -8.0191    5.8871 O   0  0  0  0  0  0  0  0  0  0  0  0
  -23.7119  -13.1147    9.0665 C   0  0  1  0  0  0  0  0  0  0  0  0
  -24.2500  -12.3615   10.2316 C   0  0  1  0  0  0  0  0  0  0  0  0
  -23.8068  -11.1453   11.0006 C   0  0  0  0  0  0  0  0  0  0  0  0
  -24.3373   -9.9048   10.2992 C   0  0  0  0  0  0  0  0  0  0  0  0
  -24.8344  -10.2940    9.0246 O   0  0  0  0  0  0  0  0  0  0  0  0
  1 11  1  0  0  0  0
  3 13  1  1  0  0  0
  3 17  2  0  0  0  0
  3 20  1  0  0  0  0
  3 26  1  0  0  0  0
  4 14  1  1  0  0  0
  4 18  1  0  0  0  0
  4 21  2  0  0  0  0
  4 20  1  0  0  0  0
  5 19  1  0  0  0  0
  5  7  1  0  0  0  0
  6  7  2  0  0  0  0
  6 12  1  0  0  0  0
  7  8  1  0  0  0  0
  8  9  1  0  0  0  0
  8 10  2  0  0  0  0
 10 11  1  0  0  0  0
 11 12  2  0  0  0  0
 15 23  1  0  0  0  0
 15 16  1  0  0  0  0
 16 19  1  0  0  0  0
 19 22  1  0  0  0  0
 22  2  1  1  0  0  0
 22 23  1  0  0  0  0
 23 24  1  6  0  0  0
 24 25  1  0  0  0  0
 25 26  1  0  0  0  0
M  CHG  2  13  -1  18  -1
M  END
>  <CHROM.1>
159.89577120,-78.83404121,-4.00180059,-66.88187878,-92.72855912,-11.55995251
176.01465366,-32.67884963,-23.97975103,-12.62270671,8.39796537,-1.30776642
0.95951167,-0.33173594

>  <Name>
ligand

>  <RI>
0

>  <Rbt.Current_Directory>
/home/itssahil/PROJECTS/Mol_Feturizer/New_Systems/rnas/2GDI

>  <Rbt.Executable>
rbdock ($Id: //depot/dev/client3/rdock/2013.1/src/exe/rbdock.cxx#4 $)

>  <Rbt.Library>
libRbt.so (2013.1, Build901 2013/11/27)

>  <Rbt.Parameter_File>
/export/apps/rDock/src/rDock_2013.1_src/data/scripts/dock_solv.prm

>  <Rbt.Receptor>
prm/blind_docking_40.prm

>  <SCORE>
-14.3593

>  <SCORE.INTER>
-16.1729

>  <SCORE.INTER.CONST>
1

>  <SCORE.INTER.POLAR>
0

>  <SCORE.INTER.ROT>
8

>  <SCORE.INTER.SOLV>
21.9047

>  <SCORE.INTER.VDW>
-27.0169

>  <SCORE.INTER.norm>
-0.622037

>  <SCORE.INTRA>
1.71993

>  <SCORE.INTRA.DIHEDRAL>
3.02769

>  <SCORE.INTRA.DIHEDRAL.0>
8.13976

>  <SCORE.INTRA.POLAR>
0

>  <SCORE.INTRA.POLAR.0>
0

>  <SCORE.INTRA.REPUL>
0

>  <SCORE.INTRA.REPUL.0>
0

>  <SCORE.INTRA.SOLV>
0.312132

>  <SCORE.INTRA.SOLV.lig_0>
-82.9561

>  <SCORE.INTRA.VDW>
0.0500172

>  <SCORE.INTRA.VDW.0>
-3.29171

>  <SCORE.INTRA.norm>
0.066151

>  <SCORE.RESTR>
0.0936805

>  <SCORE.RESTR.CAVITY>
0.0936805

>  <SCORE.RESTR.norm>
0.0036031

>  <SCORE.SYSTEM>
0

>  <SCORE.SYSTEM.CONST>
0

>  <SCORE.SYSTEM.DIHEDRAL>
0

>  <SCORE.SYSTEM.SOLV>
0

>  <SCORE.SYSTEM.norm>
0

>  <SCORE.heavy>
26

>  <SCORE.norm>
-0.552282

>  <RMSD>
11.752

$$$$
ligand
 OpenBabel11021811433D
libRbt.so/2013.1/901 2013/11/27
 26 27  0  0  0  0  0  0  0  0999 V2000
  -19.2528  -20.2889   12.1816 C   0  0  0  0  0  0  0  0  0  0  0  0
  -24.2632  -14.7006   11.1567 C   0  0  0  0  0  0  0  0  0  0  0  0
  -25.7854  -11.6045    6.6609 P   0  0  1  0  0  0  0  0  0  0  0  0
  -25.3415  -12.4527    3.9146 P   0  0  1  0  0  0  0  0  0  0  0  0
  -24.0639  -17.6039   10.5451 C   0  0  0  0  0  0  0  0  0  0  0  0
  -22.2204  -19.2946   10.1802 C   0  0  0  0  0  0  0  0  0  0  0  0
  -22.7978  -18.3199   10.9841 C   0  0  0  0  0  0  0  0  0  0  0  0
  -22.1888  -18.0041   12.1876 C   0  0  0  0  0  0  0  0  0  0  0  0
  -22.7157  -17.0610   13.0058 N   0  0  0  0  0  0  0  0  0  0  0  0
  -21.0561  -18.6439   12.5509 N   0  0  0  0  0  0  0  0  0  0  0  0
  -20.5143  -19.5897   11.7526 C   0  0  0  0  0  0  0  0  0  0  0  0
  -21.0972  -19.9122   10.5722 N   0  0  0  0  0  0  0  0  0  0  0  0
  -24.6504  -10.6153    6.7024 O   0  5  0  0  0  0  0  0  0  0  0  0
  -26.5090  -11.6052    3.5118 O   0  0  0  0  0  0  0  0  0  0  0  0
  -23.0985  -15.4589    7.3430 S   0  0  0  0  0  0  0  0  0  0  0  0
  -23.3739  -16.8999    8.2707 C   0  0  0  0  0  0  0  0  0  0  0  0
  -27.1753  -11.0537    6.5217 O   0  0  0  0  0  0  0  0  0  0  0  0
  -24.0810  -11.6729    3.7405 O   0  5  0  0  0  0  0  0  0  0  0  0
  -23.7616  -16.5867    9.5381 N   0  0  0  0  0  0  0  0  0  0  0  0
  -25.4594  -12.7008    5.5125 O   0  0  0  0  0  0  0  0  0  0  0  0
  -25.2726  -13.8198    3.2904 O   0  0  0  0  0  0  0  0  0  0  0  0
  -23.8532  -15.2579    9.8196 C   0  0  1  0  0  0  0  0  0  0  0  0
  -23.5163  -14.4126    8.6422 C   0  0  1  0  0  0  0  0  0  0  0  0
  -23.4506  -12.9298    8.3890 C   0  0  0  0  0  0  0  0  0  0  0  0
  -24.6994  -12.2811    8.9649 C   0  0  0  0  0  0  0  0  0  0  0  0
  -25.7578  -12.4477    8.0294 O   0  0  0  0  0  0  0  0  0  0  0  0
  1 11  1  0  0  0  0
  3 13  1  1  0  0  0
  3 17  2  0  0  0  0
  3 20  1  0  0  0  0
  3 26  1  0  0  0  0
  4 14  1  6  0  0  0
  4 18  1  0  0  0  0
  4 21  2  0  0  0  0
  4 20  1  0  0  0  0
  5 19  1  0  0  0  0
  5  7  1  0  0  0  0
  6  7  2  0  0  0  0
  6 12  1  0  0  0  0
  7  8  1  0  0  0  0
  8  9  1  0  0  0  0
  8 10  2  0  0  0  0
 10 11  1  0  0  0  0
 11 12  2  0  0  0  0
 15 23  1  0  0  0  0
 15 16  1  0  0  0  0
 16 19  1  0  0  0  0
 19 22  1  0  0  0  0
 22  2  1  6  0  0  0
 22 23  1  0  0  0  0
 23 24  1  1  0  0  0
 24 25  1  0  0  0  0
 25 26  1  0  0  0  0
M  CHG  2  13  -1  18  -1
M  END
>  <CHROM.1>
-64.98741459,70.10797889,-77.28991828,-45.74701916,135.29807373,-81.22348488
-72.60883223,-5.92017565,-23.90500679,-14.78509564,8.13993061,-0.68260210
1.04490796,-1.57346525

>  <Name>
ligand

>  <RI>
0

>  <Rbt.Current_Directory>
/home/itssahil/PROJECTS/Mol_Feturizer/New_Systems/rnas/2GDI

>  <Rbt.Executable>
rbdock ($Id: //depot/dev/client3/rdock/2013.1/src/exe/rbdock.cxx#4 $)

>  <Rbt.Library>
libRbt.so (2013.1, Build901 2013/11/27)

>  <Rbt.Parameter_File>
/export/apps/rDock/src/rDock_2013.1_src/data/scripts/dock_solv.prm

>  <Rbt.Receptor>
prm/blind_docking_80.prm

>  <SCORE>
-12.341

>  <SCORE.INTER>
-14.2877

>  <SCORE.INTER.CONST>
1

>  <SCORE.INTER.POLAR>
0

>  <SCORE.INTER.ROT>
8

>  <SCORE.INTER.SOLV>
13.3345

>  <SCORE.INTER.VDW>
-22.9033

>  <SCORE.INTER.norm>
-0.549528

>  <SCORE.INTRA>
1.94673

>  <SCORE.INTRA.DIHEDRAL>
1.20256

>  <SCORE.INTRA.DIHEDRAL.0>
8.13976

>  <SCORE.INTRA.POLAR>
0

>  <SCORE.INTRA.POLAR.0>
0

>  <SCORE.INTRA.REPUL>
0

>  <SCORE.INTRA.REPUL.0>
0

>  <SCORE.INTRA.SOLV>
2.77597

>  <SCORE.INTRA.SOLV.lig_0>
-82.9561

>  <SCORE.INTRA.VDW>
-0.0425422

>  <SCORE.INTRA.VDW.0>
-3.29171

>  <SCORE.INTRA.norm>
0.0748741

>  <SCORE.RESTR>
0

>  <SCORE.RESTR.CAVITY>
0

>  <SCORE.RESTR.norm>
0

>  <SCORE.SYSTEM>
0

>  <SCORE.SYSTEM.CONST>
0

>  <SCORE.SYSTEM.DIHEDRAL>
0

>  <SCORE.SYSTEM.SOLV>
0

>  <SCORE.SYSTEM.norm>
0

>  <SCORE.heavy>
26

>  <SCORE.norm>
-0.474654

>  <RMSD>
11.790

$$$$
ligand
 OpenBabel11021811433D
libRbt.so/2013.1/901 2013/11/27
 26 27  0  0  0  0  0  0  0  0999 V2000
  -21.9868  -19.9579    9.2916 C   0  0  0  0  0  0  0  0  0  0  0  0
  -22.0944  -12.7804   10.6908 C   0  0  0  0  0  0  0  0  0  0  0  0
  -22.9746   -9.7895    4.2639 P   0  0  1  0  0  0  0  0  0  0  0  0
  -22.1202   -7.0232    4.5401 P   0  0  1  0  0  0  0  0  0  0  0  0
  -24.0735  -14.9458   11.1779 C   0  0  0  0  0  0  0  0  0  0  0  0
  -23.6307  -16.6269    9.3427 C   0  0  0  0  0  0  0  0  0  0  0  0
  -23.5305  -16.2757   10.6830 C   0  0  0  0  0  0  0  0  0  0  0  0
  -22.9136  -17.1560   11.5567 C   0  0  0  0  0  0  0  0  0  0  0  0
  -22.7935  -16.8576   12.8731 N   0  0  0  0  0  0  0  0  0  0  0  0
  -22.4260  -18.3266   11.0916 N   0  0  0  0  0  0  0  0  0  0  0  0
  -22.5369  -18.6466    9.7838 C   0  0  0  0  0  0  0  0  0  0  0  0
  -23.1384  -17.7978    8.9148 N   0  0  0  0  0  0  0  0  0  0  0  0
  -24.2505  -10.4480    3.8089 O   0  5  0  0  0  0  0  0  0  0  0  0
  -21.0951   -6.8022    3.4706 O   0  0  0  0  0  0  0  0  0  0  0  0
  -25.1446  -12.7963    8.0125 S   0  0  0  0  0  0  0  0  0  0  0  0
  -25.2731  -14.0566    9.1992 C   0  0  0  0  0  0  0  0  0  0  0  0
  -21.6863  -10.3260    3.7097 O   0  0  0  0  0  0  0  0  0  0  0  0
  -22.9843   -5.8118    4.6547 O   0  5  0  0  0  0  0  0  0  0  0  0
  -24.2268  -14.0036   10.0694 N   0  0  0  0  0  0  0  0  0  0  0  0
  -23.1127   -8.1937    4.0168 O   0  0  0  0  0  0  0  0  0  0  0  0
  -21.5954   -7.4933    5.8694 O   0  0  0  0  0  0  0  0  0  0  0  0
  -23.3198  -13.0127    9.8475 C   0  0  1  0  0  0  0  0  0  0  0  0
  -23.6888  -12.1687    8.6788 C   0  0  1  0  0  0  0  0  0  0  0  0
  -23.0715  -10.9752    7.9995 C   0  0  0  0  0  0  0  0  0  0  0  0
  -23.1353  -11.1836    6.4946 C   0  0  0  0  0  0  0  0  0  0  0  0
  -22.8854   -9.9342    5.8625 O   0  0  0  0  0  0  0  0  0  0  0  0
  1 11  1  0  0  0  0
  3 13  1  6  0  0  0
  3 17  2  0  0  0  0
  3 20  1  0  0  0  0
  3 26  1  0  0  0  0
  4 14  1  6  0  0  0
  4 18  1  0  0  0  0
  4 21  2  0  0  0  0
  4 20  1  0  0  0  0
  5 19  1  0  0  0  0
  5  7  1  0  0  0  0
  6  7  2  0  0  0  0
  6 12  1  0  0  0  0
  7  8  1  0  0  0  0
  8  9  1  0  0  0  0
  8 10  2  0  0  0  0
 10 11  1  0  0  0  0
 11 12  2  0  0  0  0
 15 23  1  0  0  0  0
 15 16  1  0  0  0  0
 16 19  1  0  0  0  0
 19 22  1  0  0  0  0
 22  2  1  1  0  0  0
 22 23  1  0  0  0  0
 23 24  1  6  0  0  0
 24 25  1  0  0  0  0
 25 26  1  0  0  0  0
M  CHG  2  13  -1  18  -1
M  END
>  <CHROM.1>
169.82583608,78.36225638,-19.89431350,91.22030993,-42.75148014,164.89450422
-176.04721526,47.14516635,-23.07301748,-12.24732330,7.46859152,-1.89812035
1.37804685,-0.27085240

>  <Name>
ligand

>  <RI>
0

>  <Rbt.Current_Directory>
/home/itssahil/PROJECTS/Mol_Feturizer/New_Systems/rnas/2GDI

>  <Rbt.Executable>
rbdock ($Id: //depot/dev/client3/rdock/2013.1/src/exe/rbdock.cxx#4 $)

>  <Rbt.Library>
libRbt.so (2013.1, Build901 2013/11/27)

>  <Rbt.Parameter_File>
/export/apps/rDock/src/rDock_2013.1_src/data/scripts/dock_solv.prm

>  <Rbt.Receptor>
prm/blind_docking_80.prm

>  <SCORE>
-14.9196

>  <SCORE.INTER>
-16.1565

>  <SCORE.INTER.CONST>
1

>  <SCORE.INTER.POLAR>
0

>  <SCORE.INTER.ROT>
8

>  <SCORE.INTER.SOLV>
25.8231

>  <SCORE.INTER.VDW>
-28.312

>  <SCORE.INTER.norm>
-0.621405

>  <SCORE.INTRA>
1.23692

>  <SCORE.INTRA.DIHEDRAL>
-0.492704

>  <SCORE.INTRA.DIHEDRAL.0>
8.13976

>  <SCORE.INTRA.POLAR>
0

>  <SCORE.INTRA.POLAR.0>
0

>  <SCORE.INTRA.REPUL>
0

>  <SCORE.INTRA.REPUL.0>
0

>  <SCORE.INTRA.SOLV>
0.666597

>  <SCORE.INTRA.SOLV.lig_0>
-82.9561

>  <SCORE.INTRA.VDW>
1.14997

>  <SCORE.INTRA.VDW.0>
-3.29171

>  <SCORE.INTRA.norm>
0.0475739

>  <SCORE.RESTR>
0

>  <SCORE.RESTR.CAVITY>
0

>  <SCORE.RESTR.norm>
0

>  <SCORE.SYSTEM>
0

>  <SCORE.SYSTEM.CONST>
0

>  <SCORE.SYSTEM.DIHEDRAL>
0

>  <SCORE.SYSTEM.SOLV>
0

>  <SCORE.SYSTEM.norm>
0

>  <SCORE.heavy>
26

>  <SCORE.norm>
-0.573831

>  <RMSD>
11.843

$$$$
ligand
 OpenBabel11021811433D
libRbt.so/2013.1/901 2013/11/27
 26 27  0  0  0  0  0  0  0  0999 V2000
  -19.5826  -14.9337   13.8109 C   0  0  0  0  0  0  0  0  0  0  0  0
  -23.9126  -15.9058    8.2793 C   0  0  0  0  0  0  0  0  0  0  0  0
  -23.2209  -10.0414    4.9094 P   0  0  1  0  0  0  0  0  0  0  0  0
  -22.7539   -7.2982    5.7552 P   0  0  1  0  0  0  0  0  0  0  0  0
  -24.6161  -15.7702   11.1655 C   0  0  0  0  0  0  0  0  0  0  0  0
  -22.8089  -14.2664   12.0945 C   0  0  0  0  0  0  0  0  0  0  0  0
  -23.2805  -15.5511   11.8557 C   0  0  0  0  0  0  0  0  0  0  0  0
  -22.5152  -16.6283   12.2716 C   0  0  0  0  0  0  0  0  0  0  0  0
  -22.9332  -17.8998   12.0597 N   0  0  0  0  0  0  0  0  0  0  0  0
  -21.3374  -16.4092   12.8957 N   0  0  0  0  0  0  0  0  0  0  0  0
  -20.8991  -15.1503   13.1150 C   0  0  0  0  0  0  0  0  0  0  0  0
  -21.6344  -14.0845   12.7140 N   0  0  0  0  0  0  0  0  0  0  0  0
  -23.6210   -9.6725    3.5050 O   0  5  0  0  0  0  0  0  0  0  0  0
  -23.1981   -6.6817    4.4644 O   0  0  0  0  0  0  0  0  0  0  0  0
  -25.7261  -12.4282    9.3252 S   0  0  0  0  0  0  0  0  0  0  0  0
  -25.5267  -13.5209   10.6592 C   0  0  0  0  0  0  0  0  0  0  0  0
  -21.8504  -10.6228    5.1056 O   0  0  0  0  0  0  0  0  0  0  0  0
  -23.3139   -6.5152    6.8956 O   0  5  0  0  0  0  0  0  0  0  0  0
  -24.9146  -14.6673   10.2519 N   0  0  0  0  0  0  0  0  0  0  0  0
  -23.4645   -8.7518    5.8603 O   0  0  0  0  0  0  0  0  0  0  0  0
  -21.2773   -7.5519    5.8910 O   0  0  0  0  0  0  0  0  0  0  0  0
  -24.5919  -14.7308    8.9308 C   0  0  1  0  0  0  0  0  0  0  0  0
  -24.9743  -13.4912    8.2018 C   0  0  1  0  0  0  0  0  0  0  0  0
  -24.8627  -13.0272    6.7738 C   0  0  0  0  0  0  0  0  0  0  0  0
  -24.1230  -11.6988    6.7491 C   0  0  0  0  0  0  0  0  0  0  0  0
  -24.2680  -11.1340    5.4518 O   0  0  0  0  0  0  0  0  0  0  0  0
  1 11  1  0  0  0  0
  3 13  1  6  0  0  0
  3 17  2  0  0  0  0
  3 20  1  0  0  0  0
  3 26  1  0  0  0  0
  4 14  1  6  0  0  0
  4 18  1  0  0  0  0
  4 21  2  0  0  0  0
  4 20  1  0  0  0  0
  5 19  1  0  0  0  0
  5  7  1  0  0  0  0
  6  7  2  0  0  0  0
  6 12  1  0  0  0  0
  7  8  1  0  0  0  0
  8  9  1  0  0  0  0
  8 10  2  0  0  0  0
 10 11  1  0  0  0  0
 11 12  2  0  0  0  0
 15 23  1  0  0  0  0
 15 16  1  0  0  0  0
 16 19  1  0  0  0  0
 19 22  1  0  0  0  0
 22  2  1  1  0  0  0
 22 23  1  0  0  0  0
 23 24  1  6  0  0  0
 24 25  1  0  0  0  0
 25 26  1  0  0  0  0
M  CHG  2  13  -1  18  -1
M  END
>  <CHROM.1>
-61.96786299,-86.11672430,29.33610759,65.57199478,56.42346570,-167.87312423
-157.89210973,178.40706718,-23.33486579,-12.11343622,8.36820832,-1.52342009
-0.68907954,-0.71780773

>  <Name>
ligand

>  <RI>
0

>  <Rbt.Current_Directory>
/home/itssahil/PROJECTS/Mol_Feturizer/New_Systems/rnas/2GDI

>  <Rbt.Executable>
rbdock ($Id: //depot/dev/client3/rdock/2013.1/src/exe/rbdock.cxx#4 $)

>  <Rbt.Library>
libRbt.so (2013.1, Build901 2013/11/27)

>  <Rbt.Parameter_File>
/export/apps/rDock/src/rDock_2013.1_src/data/scripts/dock_solv.prm

>  <Rbt.Receptor>
prm/blind_docking_60.prm

>  <SCORE>
-11.2649

>  <SCORE.INTER>
-11.8862

>  <SCORE.INTER.CONST>
1

>  <SCORE.INTER.POLAR>
0

>  <SCORE.INTER.ROT>
8

>  <SCORE.INTER.SOLV>
22.8726

>  <SCORE.INTER.VDW>
-24.4817

>  <SCORE.INTER.norm>
-0.457162

>  <SCORE.INTRA>
0.621314

>  <SCORE.INTRA.DIHEDRAL>
-0.205563

>  <SCORE.INTRA.DIHEDRAL.0>
8.13976

>  <SCORE.INTRA.POLAR>
0

>  <SCORE.INTRA.POLAR.0>
0

>  <SCORE.INTRA.REPUL>
0

>  <SCORE.INTRA.REPUL.0>
0

>  <SCORE.INTRA.SOLV>
0.557377

>  <SCORE.INTRA.SOLV.lig_0>
-82.9561

>  <SCORE.INTRA.VDW>
0.445407

>  <SCORE.INTRA.VDW.0>
-3.29171

>  <SCORE.INTRA.norm>
0.0238967

>  <SCORE.RESTR>
0

>  <SCORE.RESTR.CAVITY>
0

>  <SCORE.RESTR.norm>
0

>  <SCORE.SYSTEM>
0

>  <SCORE.SYSTEM.CONST>
0

>  <SCORE.SYSTEM.DIHEDRAL>
0

>  <SCORE.SYSTEM.SOLV>
0

>  <SCORE.SYSTEM.norm>
0

>  <SCORE.heavy>
26

>  <SCORE.norm>
-0.433266

>  <RMSD>
11.946

$$$$
ligand
 OpenBabel11021811433D
libRbt.so/2013.1/901 2013/11/27
 26 27  0  0  0  0  0  0  0  0999 V2000
  -22.6088  -22.1866   11.3704 C   0  0  0  0  0  0  0  0  0  0  0  0
  -23.4770  -13.6578   10.4364 C   0  0  0  0  0  0  0  0  0  0  0  0
  -23.2710  -11.4462    4.5871 P   0  0  1  0  0  0  0  0  0  0  0  0
  -25.3559  -11.0008    2.6089 P   0  0  1  0  0  0  0  0  0  0  0  0
  -23.7257  -16.5582   11.0441 C   0  0  0  0  0  0  0  0  0  0  0  0
  -22.3157  -18.5859   10.5049 C   0  0  0  0  0  0  0  0  0  0  0  0
  -23.4376  -18.0479   11.1228 C   0  0  0  0  0  0  0  0  0  0  0  0
  -24.2810  -18.8944   11.8234 C   0  0  0  0  0  0  0  0  0  0  0  0
  -25.3880  -18.4158   12.4415 N   0  0  0  0  0  0  0  0  0  0  0  0
  -23.9974  -20.2133   11.8915 N   0  0  0  0  0  0  0  0  0  0  0  0
  -22.9010  -20.7133   11.2807 C   0  0  0  0  0  0  0  0  0  0  0  0
  -22.0652  -19.8998   10.5899 N   0  0  0  0  0  0  0  0  0  0  0  0
  -22.8493  -12.7539    3.9701 O   0  5  0  0  0  0  0  0  0  0  0  0
  -25.7158   -9.8355    1.7393 O   0  0  0  0  0  0  0  0  0  0  0  0
  -23.3592  -16.0047    7.1266 S   0  0  0  0  0  0  0  0  0  0  0  0
  -23.5436  -16.9088    8.5969 C   0  0  0  0  0  0  0  0  0  0  0  0
  -22.2124  -10.6383    5.2812 O   0  0  0  0  0  0  0  0  0  0  0  0
  -24.9101  -12.1383    1.7519 O   0  5  0  0  0  0  0  0  0  0  0  0
  -23.5772  -16.0733    9.6718 N   0  0  0  0  0  0  0  0  0  0  0  0
  -24.0395  -10.5772    3.4553 O   0  0  0  0  0  0  0  0  0  0  0  0
  -26.3863  -11.4065    3.6273 O   0  0  0  0  0  0  0  0  0  0  0  0
  -23.4634  -14.7451    9.3952 C   0  0  1  0  0  0  0  0  0  0  0  0
  -23.3403  -14.4870    7.9348 C   0  0  1  0  0  0  0  0  0  0  0  0
  -23.1896  -13.2508    7.0885 C   0  0  0  0  0  0  0  0  0  0  0  0
  -24.4783  -13.0316    6.3117 C   0  0  0  0  0  0  0  0  0  0  0  0
  -24.4058  -11.7582    5.6821 O   0  0  0  0  0  0  0  0  0  0  0  0
  1 11  1  0  0  0  0
  3 13  1  6  0  0  0
  3 17  2  0  0  0  0
  3 20  1  0  0  0  0
  3 26  1  0  0  0  0
  4 14  1  6  0  0  0
  4 18  1  0  0  0  0
  4 21  2  0  0  0  0
  4 20  1  0  0  0  0
  5 19  1  0  0  0  0
  5  7  1  0  0  0  0
  6  7  2  0  0  0  0
  6 12  1  0  0  0  0
  7  8  1  0  0  0  0
  8  9  1  0  0  0  0
  8 10  2  0  0  0  0
 10 11  1  0  0  0  0
 11 12  2  0  0  0  0
 15 23  1  0  0  0  0
 15 16  1  0  0  0  0
 16 19  1  0  0  0  0
 19 22  1  0  0  0  0
 22  2  1  6  0  0  0
 22 23  1  0  0  0  0
 23 24  1  1  0  0  0
 24 25  1  0  0  0  0
 25 26  1  0  0  0  0
M  CHG  2  13  -1  18  -1
M  END
>  <CHROM.1>
57.59030891,16.09006869,46.72738377,177.35975940,71.24852093,171.00963907
62.11874731,25.29605507,-23.83650785,-14.65305079,7.18099277,0.86625577,1.40783179
3.06903240

>  <Name>
ligand

>  <RI>
0

>  <Rbt.Current_Directory>
/home/itssahil/PROJECTS/Mol_Feturizer/New_Systems/rnas/2GDI

>  <Rbt.Executable>
rbdock ($Id: //depot/dev/client3/rdock/2013.1/src/exe/rbdock.cxx#4 $)

>  <Rbt.Library>
libRbt.so (2013.1, Build901 2013/11/27)

>  <Rbt.Parameter_File>
/export/apps/rDock/src/rDock_2013.1_src/data/scripts/dock_solv.prm

>  <Rbt.Receptor>
prm/blind_docking_80.prm

>  <SCORE>
-13.289

>  <SCORE.INTER>
-15.9373

>  <SCORE.INTER.CONST>
1

>  <SCORE.INTER.POLAR>
0

>  <SCORE.INTER.ROT>
8

>  <SCORE.INTER.SOLV>
20.5299

>  <SCORE.INTER.VDW>
-26.4015

>  <SCORE.INTER.norm>
-0.612974

>  <SCORE.INTRA>
2.64836

>  <SCORE.INTRA.DIHEDRAL>
-0.865352

>  <SCORE.INTRA.DIHEDRAL.0>
8.13976

>  <SCORE.INTRA.POLAR>
0

>  <SCORE.INTRA.POLAR.0>
0

>  <SCORE.INTRA.REPUL>
0

>  <SCORE.INTRA.REPUL.0>
0

>  <SCORE.INTRA.SOLV>
3.1774

>  <SCORE.INTRA.SOLV.lig_0>
-82.9561

>  <SCORE.INTRA.VDW>
1.49233

>  <SCORE.INTRA.VDW.0>
-3.29171

>  <SCORE.INTRA.norm>
0.10186

>  <SCORE.RESTR>
0

>  <SCORE.RESTR.CAVITY>
0

>  <SCORE.RESTR.norm>
0

>  <SCORE.SYSTEM>
0

>  <SCORE.SYSTEM.CONST>
0

>  <SCORE.SYSTEM.DIHEDRAL>
0

>  <SCORE.SYSTEM.SOLV>
0

>  <SCORE.SYSTEM.norm>
0

>  <SCORE.heavy>
26

>  <SCORE.norm>
-0.511114

>  <RMSD>
11.958

$$$$
ligand
 OpenBabel11021811433D
libRbt.so/2013.1/901 2013/11/27
 26 27  0  0  0  0  0  0  0  0999 V2000
  -20.5952  -21.7830   12.6024 C   0  0  0  0  0  0  0  0  0  0  0  0
  -23.8819  -14.7335   11.2265 C   0  0  0  0  0  0  0  0  0  0  0  0
  -23.5897  -13.3743    5.2088 P   0  0  1  0  0  0  0  0  0  0  0  0
  -25.4689  -11.8338    3.6106 P   0  0  1  0  0  0  0  0  0  0  0  0
  -24.3392  -17.6709   11.1509 C   0  0  0  0  0  0  0  0  0  0  0  0
  -23.5791  -20.0815   11.1875 C   0  0  0  0  0  0  0  0  0  0  0  0
  -23.3535  -18.7581   11.5444 C   0  0  0  0  0  0  0  0  0  0  0  0
  -22.2053  -18.4472   12.2543 C   0  0  0  0  0  0  0  0  0  0  0  0
  -21.9429  -17.1707   12.6256 N   0  0  0  0  0  0  0  0  0  0  0  0
  -21.3363  -19.4283   12.5812 N   0  0  0  0  0  0  0  0  0  0  0  0
  -21.5785  -20.7086   12.2242 C   0  0  0  0  0  0  0  0  0  0  0  0
  -22.6974  -21.0310   11.5304 N   0  0  0  0  0  0  0  0  0  0  0  0
  -22.8792  -14.6864    5.0034 O   0  5  0  0  0  0  0  0  0  0  0  0
  -26.2807  -12.1475    2.3916 O   0  0  0  0  0  0  0  0  0  0  0  0
  -23.0566  -16.3917    7.6146 S   0  0  0  0  0  0  0  0  0  0  0  0
  -23.6013  -17.5495    8.7876 C   0  0  0  0  0  0  0  0  0  0  0  0
  -22.7387  -12.1523    5.4019 O   0  0  0  0  0  0  0  0  0  0  0  0
  -26.3834  -11.5954    4.7657 O   0  5  0  0  0  0  0  0  0  0  0  0
  -23.8630  -16.9396    9.9768 N   0  0  0  0  0  0  0  0  0  0  0  0
  -24.6504  -13.1784    3.9991 O   0  0  0  0  0  0  0  0  0  0  0  0
  -24.4338  -10.7535    3.4534 O   0  0  0  0  0  0  0  0  0  0  0  0
  -23.6540  -15.5948   10.0129 C   0  0  1  0  0  0  0  0  0  0  0  0
  -23.1877  -15.0663    8.7023 C   0  0  1  0  0  0  0  0  0  0  0  0
  -22.8126  -13.7030    8.1850 C   0  0  0  0  0  0  0  0  0  0  0  0
  -24.0801  -12.9742    7.7671 C   0  0  0  0  0  0  0  0  0  0  0  0
  -24.5090  -13.5088    6.5207 O   0  0  0  0  0  0  0  0  0  0  0  0
  1 11  1  0  0  0  0
  3 13  1  6  0  0  0
  3 17  2  0  0  0  0
  3 20  1  0  0  0  0
  3 26  1  0  0  0  0
  4 14  1  6  0  0  0
  4 18  1  0  0  0  0
  4 21  2  0  0  0  0
  4 20  1  0  0  0  0
  5 19  1  0  0  0  0
  5  7  1  0  0  0  0
  6  7  2  0  0  0  0
  6 12  1  0  0  0  0
  7  8  1  0  0  0  0
  8  9  1  0  0  0  0
  8 10  2  0  0  0  0
 10 11  1  0  0  0  0
 11 12  2  0  0  0  0
 15 23  1  0  0  0  0
 15 16  1  0  0  0  0
 16 19  1  0  0  0  0
 19 22  1  0  0  0  0
 22  2  1  6  0  0  0
 22 23  1  0  0  0  0
 23 24  1  1  0  0  0
 24 25  1  0  0  0  0
 25 26  1  0  0  0  0
M  CHG  2  13  -1  18  -1
M  END
>  <CHROM.1>
-168.32900081,58.60553820,-100.18714660,178.01556158,97.59822104,-76.21493159
-62.91510226,100.36864280,-23.59918512,-15.41161555,7.91846929,-0.41676964
1.31352963,-1.95959512

>  <Name>
ligand

>  <RI>
0

>  <Rbt.Current_Directory>
/home/itssahil/PROJECTS/Mol_Feturizer/New_Systems/rnas/2GDI

>  <Rbt.Executable>
rbdock ($Id: //depot/dev/client3/rdock/2013.1/src/exe/rbdock.cxx#4 $)

>  <Rbt.Library>
libRbt.so (2013.1, Build901 2013/11/27)

>  <Rbt.Parameter_File>
/export/apps/rDock/src/rDock_2013.1_src/data/scripts/dock_solv.prm

>  <Rbt.Receptor>
prm/blind_docking_80.prm

>  <SCORE>
-7.05893

>  <SCORE.INTER>
-9.27854

>  <SCORE.INTER.CONST>
1

>  <SCORE.INTER.POLAR>
0

>  <SCORE.INTER.ROT>
8

>  <SCORE.INTER.SOLV>
15.1419

>  <SCORE.INTER.VDW>
-20.1663

>  <SCORE.INTER.norm>
-0.356867

>  <SCORE.INTRA>
2.21961

>  <SCORE.INTRA.DIHEDRAL>
-0.279535

>  <SCORE.INTRA.DIHEDRAL.0>
8.13976

>  <SCORE.INTRA.POLAR>
0

>  <SCORE.INTRA.POLAR.0>
0

>  <SCORE.INTRA.REPUL>
0

>  <SCORE.INTRA.REPUL.0>
0

>  <SCORE.INTRA.SOLV>
5.99858

>  <SCORE.INTRA.SOLV.lig_0>
-82.9561

>  <SCORE.INTRA.VDW>
-0.63991

>  <SCORE.INTRA.VDW.0>
-3.29171

>  <SCORE.INTRA.norm>
0.0853696

>  <SCORE.RESTR>
0

>  <SCORE.RESTR.CAVITY>
0

>  <SCORE.RESTR.norm>
0

>  <SCORE.SYSTEM>
0

>  <SCORE.SYSTEM.CONST>
0

>  <SCORE.SYSTEM.DIHEDRAL>
0

>  <SCORE.SYSTEM.SOLV>
0

>  <SCORE.SYSTEM.norm>
0

>  <SCORE.heavy>
26

>  <SCORE.norm>
-0.271497

>  <RMSD>
12.055

$$$$
ligand
 OpenBabel11021811433D
libRbt.so/2013.1/901 2013/11/27
 26 27  0  0  0  0  0  0  0  0999 V2000
  -18.8261  -20.1848   12.4175 C   0  0  0  0  0  0  0  0  0  0  0  0
  -24.9370  -14.4040   11.3057 C   0  0  0  0  0  0  0  0  0  0  0  0
  -23.5616  -10.5193    6.6017 P   0  0  1  0  0  0  0  0  0  0  0  0
  -23.2499  -10.1544    3.7332 P   0  0  1  0  0  0  0  0  0  0  0  0
  -23.5646  -16.9720   11.9101 C   0  0  0  0  0  0  0  0  0  0  0  0
  -22.1856  -19.0146   11.3476 C   0  0  0  0  0  0  0  0  0  0  0  0
  -22.3156  -17.8251   12.0534 C   0  0  0  0  0  0  0  0  0  0  0  0
  -21.2783  -17.4256   12.8800 C   0  0  0  0  0  0  0  0  0  0  0  0
  -21.3600  -16.2737   13.5892 N   0  0  0  0  0  0  0  0  0  0  0  0
  -20.1715  -18.1933   12.9810 N   0  0  0  0  0  0  0  0  0  0  0  0
  -20.0691  -19.3471   12.2857 C   0  0  0  0  0  0  0  0  0  0  0  0
  -21.0747  -19.7540   11.4731 N   0  0  0  0  0  0  0  0  0  0  0  0
  -22.0925  -10.6933    6.8841 O   0  5  0  0  0  0  0  0  0  0  0  0
  -23.3298   -8.6814    3.9924 O   0  0  0  0  0  0  0  0  0  0  0  0
  -23.5555  -16.3013    7.9939 S   0  0  0  0  0  0  0  0  0  0  0  0
  -23.2186  -17.1623    9.4629 C   0  0  0  0  0  0  0  0  0  0  0  0
  -24.1806   -9.1986    6.9587 O   0  0  0  0  0  0  0  0  0  0  0  0
  -21.8174  -10.5659    3.6565 O   0  5  0  0  0  0  0  0  0  0  0  0
  -23.7033  -16.4821   10.5387 N   0  0  0  0  0  0  0  0  0  0  0  0
  -23.8276  -10.9037    5.0498 O   0  0  0  0  0  0  0  0  0  0  0  0
  -24.0664  -10.6659    2.5778 O   0  0  0  0  0  0  0  0  0  0  0  0
  -24.3318  -15.3062   10.2635 C   0  0  1  0  0  0  0  0  0  0  0  0
  -24.3680  -15.0202    8.8036 C   0  0  1  0  0  0  0  0  0  0  0  0
  -24.9148  -13.9002    7.9588 C   0  0  0  0  0  0  0  0  0  0  0  0
  -23.7888  -12.9248    7.6541 C   0  0  0  0  0  0  0  0  0  0  0  0
  -24.3614  -11.6424    7.4283 O   0  0  0  0  0  0  0  0  0  0  0  0
  1 11  1  0  0  0  0
  3 13  1  1  0  0  0
  3 17  2  0  0  0  0
  3 20  1  0  0  0  0
  3 26  1  0  0  0  0
  4 14  1  1  0  0  0
  4 18  1  0  0  0  0
  4 21  2  0  0  0  0
  4 20  1  0  0  0  0
  5 19  1  0  0  0  0
  5  7  1  0  0  0  0
  6  7  2  0  0  0  0
  6 12  1  0  0  0  0
  7  8  1  0  0  0  0
  8  9  1  0  0  0  0
  8 10  2  0  0  0  0
 10 11  1  0  0  0  0
 11 12  2  0  0  0  0
 15 23  1  0  0  0  0
 15 16  1  0  0  0  0
 16 19  1  0  0  0  0
 19 22  1  0  0  0  0
 22  2  1  6  0  0  0
 22 23  1  0  0  0  0
 23 24  1  1  0  0  0
 24 25  1  0  0  0  0
 25 26  1  0  0  0  0
M  CHG  2  13  -1  18  -1
M  END
>  <CHROM.1>
-63.82566478,28.83184622,-63.30537480,-41.20519942,-82.17963793,-153.56166258
-158.56916583,-33.20753376,-22.95080766,-14.10557728,8.39278344,-1.33333955
0.70775108,-0.88715551

>  <Name>
ligand

>  <RI>
0

>  <Rbt.Current_Directory>
/home/itssahil/PROJECTS/Mol_Feturizer/New_Systems/rnas/2GDI

>  <Rbt.Executable>
rbdock ($Id: //depot/dev/client3/rdock/2013.1/src/exe/rbdock.cxx#4 $)

>  <Rbt.Library>
libRbt.so (2013.1, Build901 2013/11/27)

>  <Rbt.Parameter_File>
/export/apps/rDock/src/rDock_2013.1_src/data/scripts/dock_solv.prm

>  <Rbt.Receptor>
prm/blind_docking_80.prm

>  <SCORE>
-11.961

>  <SCORE.INTER>
-13.9432

>  <SCORE.INTER.CONST>
1

>  <SCORE.INTER.POLAR>
0

>  <SCORE.INTER.ROT>
8

>  <SCORE.INTER.SOLV>
22.3158

>  <SCORE.INTER.VDW>
-25.6674

>  <SCORE.INTER.norm>
-0.536276

>  <SCORE.INTRA>
1.98215

>  <SCORE.INTRA.DIHEDRAL>
2.24819

>  <SCORE.INTRA.DIHEDRAL.0>
8.13976

>  <SCORE.INTRA.POLAR>
0

>  <SCORE.INTRA.POLAR.0>
0

>  <SCORE.INTRA.REPUL>
0

>  <SCORE.INTRA.REPUL.0>
0

>  <SCORE.INTRA.SOLV>
0.14101

>  <SCORE.INTRA.SOLV.lig_0>
-82.9561

>  <SCORE.INTRA.VDW>
0.787548

>  <SCORE.INTRA.VDW.0>
-3.29171

>  <SCORE.INTRA.norm>
0.0762364

>  <SCORE.RESTR>
0

>  <SCORE.RESTR.CAVITY>
0

>  <SCORE.RESTR.norm>
0

>  <SCORE.SYSTEM>
0

>  <SCORE.SYSTEM.CONST>
0

>  <SCORE.SYSTEM.DIHEDRAL>
0

>  <SCORE.SYSTEM.SOLV>
0

>  <SCORE.SYSTEM.norm>
0

>  <SCORE.heavy>
26

>  <SCORE.norm>
-0.46004

>  <RMSD>
12.080

$$$$
ligand
 OpenBabel11021811433D
libRbt.so/2013.1/901 2013/11/27
 26 27  0  0  0  0  0  0  0  0999 V2000
  -19.9264  -20.7140   11.9635 C   0  0  0  0  0  0  0  0  0  0  0  0
  -23.1179  -14.0070   12.0757 C   0  0  0  0  0  0  0  0  0  0  0  0
  -22.5991   -9.2628    6.8105 P   0  0  1  0  0  0  0  0  0  0  0  0
  -22.5600  -10.8897    4.4000 P   0  0  1  0  0  0  0  0  0  0  0  0
  -23.9575  -16.7013   11.1380 C   0  0  0  0  0  0  0  0  0  0  0  0
  -22.6246  -18.7110   10.3799 C   0  0  0  0  0  0  0  0  0  0  0  0
  -22.8987  -17.7676   11.3621 C   0  0  0  0  0  0  0  0  0  0  0  0
  -22.1781  -17.8100   12.5444 C   0  0  0  0  0  0  0  0  0  0  0  0
  -22.4108  -16.9116   13.5319 N   0  0  0  0  0  0  0  0  0  0  0  0
  -21.2319  -18.7586   12.7159 N   0  0  0  0  0  0  0  0  0  0  0  0
  -20.9846  -19.6665   11.7465 C   0  0  0  0  0  0  0  0  0  0  0  0
  -21.6808  -19.6405   10.5837 N   0  0  0  0  0  0  0  0  0  0  0  0
  -22.0073   -7.9046    7.0819 O   0  5  0  0  0  0  0  0  0  0  0  0
  -21.4696  -11.2882    3.4536 O   0  0  0  0  0  0  0  0  0  0  0  0
  -22.7802  -14.4833    8.0588 S   0  0  0  0  0  0  0  0  0  0  0  0
  -23.3841  -15.8973    8.8643 C   0  0  0  0  0  0  0  0  0  0  0  0
  -24.0963   -9.3644    6.7578 O   0  0  0  0  0  0  0  0  0  0  0  0
  -22.9658  -12.0734    5.2133 O   0  5  0  0  0  0  0  0  0  0  0  0
  -23.4770  -15.6814   10.2058 N   0  0  0  0  0  0  0  0  0  0  0  0
  -21.9126   -9.8546    5.4668 O   0  0  0  0  0  0  0  0  0  0  0  0
  -23.7326  -10.1713    3.7900 O   0  0  0  0  0  0  0  0  0  0  0  0
  -23.0928  -14.4484   10.6366 C   0  0  1  0  0  0  0  0  0  0  0  0
  -22.6584  -13.5742    9.5134 C   0  0  1  0  0  0  0  0  0  0  0  0
  -22.1478  -12.1616    9.4094 C   0  0  0  0  0  0  0  0  0  0  0  0
  -22.7354  -11.5214    8.1615 C   0  0  0  0  0  0  0  0  0  0  0  0
  -22.1094  -10.2580    7.9741 O   0  0  0  0  0  0  0  0  0  0  0  0
  1 11  1  0  0  0  0
  3 13  1  1  0  0  0
  3 17  2  0  0  0  0
  3 20  1  0  0  0  0
  3 26  1  0  0  0  0
  4 14  1  6  0  0  0
  4 18  1  0  0  0  0
  4 21  2  0  0  0  0
  4 20  1  0  0  0  0
  5 19  1  0  0  0  0
  5  7  1  0  0  0  0
  6  7  2  0  0  0  0
  6 12  1  0  0  0  0
  7  8  1  0  0  0  0
  8  9  1  0  0  0  0
  8 10  2  0  0  0  0
 10 11  1  0  0  0  0
 11 12  2  0  0  0  0
 15 23  1  0  0  0  0
 15 16  1  0  0  0  0
 16 19  1  0  0  0  0
 19 22  1  0  0  0  0
 22  2  1  6  0  0  0
 22 23  1  0  0  0  0
 23 24  1  1  0  0  0
 24 25  1  0  0  0  0
 25 26  1  0  0  0  0
M  CHG  2  13  -1  18  -1
M  END
>  <CHROM.1>
-151.33796300,74.92776703,-73.93926858,-171.68024020,39.65169260,-172.22705543
-174.53990554,165.78757441,-22.50733460,-13.68000253,8.52516381,-1.18822351
1.39859347,-1.01213563

>  <Name>
ligand

>  <RI>
0

>  <Rbt.Current_Directory>
/home/itssahil/PROJECTS/Mol_Feturizer/New_Systems/rnas/2GDI

>  <Rbt.Executable>
rbdock ($Id: //depot/dev/client3/rdock/2013.1/src/exe/rbdock.cxx#4 $)

>  <Rbt.Library>
libRbt.so (2013.1, Build901 2013/11/27)

>  <Rbt.Parameter_File>
/export/apps/rDock/src/rDock_2013.1_src/data/scripts/dock_solv.prm

>  <Rbt.Receptor>
prm/blind_docking_80.prm

>  <SCORE>
-12.2055

>  <SCORE.INTER>
-14.7847

>  <SCORE.INTER.CONST>
1

>  <SCORE.INTER.POLAR>
0

>  <SCORE.INTER.ROT>
8

>  <SCORE.INTER.SOLV>
15.7274

>  <SCORE.INTER.VDW>
-24.0323

>  <SCORE.INTER.norm>
-0.568642

>  <SCORE.INTRA>
2.57909

>  <SCORE.INTRA.DIHEDRAL>
-0.838769

>  <SCORE.INTRA.DIHEDRAL.0>
8.13976

>  <SCORE.INTRA.POLAR>
0

>  <SCORE.INTRA.POLAR.0>
0

>  <SCORE.INTRA.REPUL>
0

>  <SCORE.INTRA.REPUL.0>
0

>  <SCORE.INTRA.SOLV>
4.6062

>  <SCORE.INTRA.SOLV.lig_0>
-82.9561

>  <SCORE.INTRA.VDW>
0.695371

>  <SCORE.INTRA.VDW.0>
-3.29171

>  <SCORE.INTRA.norm>
0.0991957

>  <SCORE.RESTR>
0.000122856

>  <SCORE.RESTR.CAVITY>
0.000122856

>  <SCORE.RESTR.norm>
4.72524e-06

>  <SCORE.SYSTEM>
0

>  <SCORE.SYSTEM.CONST>
0

>  <SCORE.SYSTEM.DIHEDRAL>
0

>  <SCORE.SYSTEM.SOLV>
0

>  <SCORE.SYSTEM.norm>
0

>  <SCORE.heavy>
26

>  <SCORE.norm>
-0.469442

>  <RMSD>
12.089

$$$$
ligand
 OpenBabel11021811433D
libRbt.so/2013.1/901 2013/11/27
 26 27  0  0  0  0  0  0  0  0999 V2000
  -25.4630  -11.5957    1.6226 C   0  0  0  0  0  0  0  0  0  0  0  0
  -26.5240  -15.7290   -5.8408 C   0  0  0  0  0  0  0  0  0  0  0  0
  -31.6290  -13.1738   -7.2049 P   0  0  1  0  0  0  0  0  0  0  0  0
  -34.0013  -11.4917   -7.1638 P   0  0  1  0  0  0  0  0  0  0  0  0
  -25.9223  -13.7865   -3.6711 C   0  0  0  0  0  0  0  0  0  0  0  0
  -26.6924  -13.5717   -1.2730 C   0  0  0  0  0  0  0  0  0  0  0  0
  -25.8056  -13.1985   -2.2750 C   0  0  0  0  0  0  0  0  0  0  0  0
  -24.8046  -12.2900   -1.9725 C   0  0  0  0  0  0  0  0  0  0  0  0
  -23.9169  -11.8951   -2.9172 N   0  0  0  0  0  0  0  0  0  0  0  0
  -24.7117  -11.7910   -0.7208 N   0  0  0  0  0  0  0  0  0  0  0  0
  -25.5873  -12.1680    0.2365 C   0  0  0  0  0  0  0  0  0  0  0  0
  -26.5737  -13.0550   -0.0419 N   0  0  0  0  0  0  0  0  0  0  0  0
  -31.6692  -13.4565   -8.6837 O   0  5  0  0  0  0  0  0  0  0  0  0
  -33.1457  -10.2825   -6.9413 O   0  0  0  0  0  0  0  0  0  0  0  0
  -29.8143  -14.5810   -3.7594 S   0  0  0  0  0  0  0  0  0  0  0  0
  -28.3540  -13.8331   -3.1925 C   0  0  0  0  0  0  0  0  0  0  0  0
  -30.6151  -12.1777   -6.7207 O   0  0  0  0  0  0  0  0  0  0  0  0
  -34.2357  -11.6690   -8.6269 O   0  5  0  0  0  0  0  0  0  0  0  0
  -27.2854  -14.2531   -3.9248 N   0  0  0  0  0  0  0  0  0  0  0  0
  -33.1267  -12.7839   -6.7233 O   0  0  0  0  0  0  0  0  0  0  0  0
  -35.2694  -11.5595   -6.3573 O   0  0  0  0  0  0  0  0  0  0  0  0
  -27.5593  -15.1425   -4.9185 C   0  0  1  0  0  0  0  0  0  0  0  0
  -29.0111  -15.4584   -5.0012 C   0  0  1  0  0  0  0  0  0  0  0  0
  -29.8514  -16.3482   -5.8782 C   0  0  0  0  0  0  0  0  0  0  0  0
  -30.4297  -15.5123   -7.0092 C   0  0  0  0  0  0  0  0  0  0  0  0
  -31.3182  -14.5558   -6.4447 O   0  0  0  0  0  0  0  0  0  0  0  0
  1 11  1  0  0  0  0
  3 13  1  6  0  0  0
  3 17  2  0  0  0  0
  3 20  1  0  0  0  0
  3 26  1  0  0  0  0
  4 14  1  1  0  0  0
  4 18  1  0  0  0  0
  4 21  2  0  0  0  0
  4 20  1  0  0  0  0
  5 19  1  0  0  0  0
  5  7  1  0  0  0  0
  6  7  2  0  0  0  0
  6 12  1  0  0  0  0
  7  8  1  0  0  0  0
  8  9  1  0  0  0  0
  8 10  2  0  0  0  0
 10 11  1  0  0  0  0
 11 12  2  0  0  0  0
 15 23  1  0  0  0  0
 15 16  1  0  0  0  0
 16 19  1  0  0  0  0
 19 22  1  0  0  0  0
 22  2  1  6  0  0  0
 22 23  1  0  0  0  0
 23 24  1  1  0  0  0
 24 25  1  0  0  0  0
 25 26  1  0  0  0  0
M  CHG  2  13  -1  18  -1
M  END
>  <CHROM.1>
-64.70492826,19.01274286,23.79644382,-51.72739421,85.28727214,-65.01421809
154.71171823,36.55658035,-29.50514383,-13.22037507,-4.77379735,0.38469884
-0.56839414,0.72701151

>  <Name>
ligand

>  <RI>
0

>  <Rbt.Current_Directory>
/home/itssahil/PROJECTS/Mol_Feturizer/New_Systems/rnas/2GDI

>  <Rbt.Executable>
rbdock ($Id: //depot/dev/client3/rdock/2013.1/src/exe/rbdock.cxx#4 $)

>  <Rbt.Library>
libRbt.so (2013.1, Build901 2013/11/27)

>  <Rbt.Parameter_File>
/export/apps/rDock/src/rDock_2013.1_src/data/scripts/dock_solv.prm

>  <Rbt.Receptor>
prm/blind_docking_40.prm

>  <SCORE>
-15.8384

>  <SCORE.INTER>
-18.7697

>  <SCORE.INTER.CONST>
1

>  <SCORE.INTER.POLAR>
0

>  <SCORE.INTER.ROT>
8

>  <SCORE.INTER.SOLV>
22.1208

>  <SCORE.INTER.VDW>
-28.8201

>  <SCORE.INTER.norm>
-0.721913

>  <SCORE.INTRA>
2.9313

>  <SCORE.INTRA.DIHEDRAL>
0.786421

>  <SCORE.INTRA.DIHEDRAL.0>
8.13976

>  <SCORE.INTRA.POLAR>
0

>  <SCORE.INTRA.POLAR.0>
0

>  <SCORE.INTRA.REPUL>
0

>  <SCORE.INTRA.REPUL.0>
0

>  <SCORE.INTRA.SOLV>
0.48822

>  <SCORE.INTRA.SOLV.lig_0>
-82.9561

>  <SCORE.INTRA.VDW>
2.29398

>  <SCORE.INTRA.VDW.0>
-3.29171

>  <SCORE.INTRA.norm>
0.112742

>  <SCORE.RESTR>
0

>  <SCORE.RESTR.CAVITY>
0

>  <SCORE.RESTR.norm>
0

>  <SCORE.SYSTEM>
0

>  <SCORE.SYSTEM.CONST>
0

>  <SCORE.SYSTEM.DIHEDRAL>
0

>  <SCORE.SYSTEM.SOLV>
0

>  <SCORE.SYSTEM.norm>
0

>  <SCORE.heavy>
26

>  <SCORE.norm>
-0.609171

>  <RMSD>
12.321

$$$$
ligand
 OpenBabel11021811433D
libRbt.so/2013.1/901 2013/11/27
 26 27  0  0  0  0  0  0  0  0999 V2000
  -19.2095  -20.2372   12.4755 C   0  0  0  0  0  0  0  0  0  0  0  0
  -24.3854  -14.7263    9.9211 C   0  0  0  0  0  0  0  0  0  0  0  0
  -24.9287  -11.3290    7.0443 P   0  0  1  0  0  0  0  0  0  0  0  0
  -25.1144   -9.2867    9.1067 P   0  0  1  0  0  0  0  0  0  0  0  0
  -23.9408  -17.5968   10.5581 C   0  0  0  0  0  0  0  0  0  0  0  0
  -22.1492  -19.3709   10.3760 C   0  0  0  0  0  0  0  0  0  0  0  0
  -22.6959  -18.3001   11.0719 C   0  0  0  0  0  0  0  0  0  0  0  0
  -22.0759  -17.8777   12.2364 C   0  0  0  0  0  0  0  0  0  0  0  0
  -22.5730  -16.8384   12.9500 N   0  0  0  0  0  0  0  0  0  0  0  0
  -20.9622  -18.5094   12.6668 N   0  0  0  0  0  0  0  0  0  0  0  0
  -20.4502  -19.5497   11.9734 C   0  0  0  0  0  0  0  0  0  0  0  0
  -21.0444  -19.9771   10.8326 N   0  0  0  0  0  0  0  0  0  0  0  0
  -25.9213  -12.2398    6.3707 O   0  5  0  0  0  0  0  0  0  0  0  0
  -24.2113   -8.4097    8.2951 O   0  0  0  0  0  0  0  0  0  0  0  0
  -23.1404  -16.9023    6.7286 S   0  0  0  0  0  0  0  0  0  0  0  0
  -23.2995  -17.8463    8.1766 C   0  0  0  0  0  0  0  0  0  0  0  0
  -24.0306  -10.5132    6.1595 O   0  0  0  0  0  0  0  0  0  0  0  0
  -26.2909   -8.4927    9.5678 O   0  5  0  0  0  0  0  0  0  0  0  0
  -23.7190  -17.0678    9.2123 N   0  0  0  0  0  0  0  0  0  0  0  0
  -25.7317  -10.3985    8.1009 O   0  0  0  0  0  0  0  0  0  0  0  0
  -24.4588  -10.0581   10.2195 O   0  0  0  0  0  0  0  0  0  0  0  0
  -23.9229  -15.7533    8.9222 C   0  0  1  0  0  0  0  0  0  0  0  0
  -23.6513  -15.4481    7.4913 C   0  0  1  0  0  0  0  0  0  0  0  0
  -23.7083  -14.2032    6.6463 C   0  0  0  0  0  0  0  0  0  0  0  0
  -22.9900  -13.0821    7.3807 C   0  0  0  0  0  0  0  0  0  0  0  0
  -23.9712  -12.2343    7.9651 O   0  0  0  0  0  0  0  0  0  0  0  0
  1 11  1  0  0  0  0
  3 13  1  6  0  0  0
  3 17  2  0  0  0  0
  3 20  1  0  0  0  0
  3 26  1  0  0  0  0
  4 14  1  6  0  0  0
  4 18  1  0  0  0  0
  4 21  2  0  0  0  0
  4 20  1  0  0  0  0
  5 19  1  0  0  0  0
  5  7  1  0  0  0  0
  6  7  2  0  0  0  0
  6 12  1  0  0  0  0
  7  8  1  0  0  0  0
  8  9  1  0  0  0  0
  8 10  2  0  0  0  0
 10 11  1  0  0  0  0
 11 12  2  0  0  0  0
 15 23  1  0  0  0  0
 15 16  1  0  0  0  0
 16 19  1  0  0  0  0
 19 22  1  0  0  0  0
 22  2  1  6  0  0  0
 22 23  1  0  0  0  0
 23 24  1  1  0  0  0
 24 25  1  0  0  0  0
 25 26  1  0  0  0  0
M  CHG  2  13  -1  18  -1
M  END
>  <CHROM.1>
177.99685231,55.05575166,-58.32408505,49.14069758,-130.82455377,-102.08013059
-68.27078968,72.40890538,-23.59646667,-14.34103584,9.05590323,-0.27453931
-1.20480912,0.94737804

>  <Name>
ligand

>  <RI>
0

>  <Rbt.Current_Directory>
/home/itssahil/PROJECTS/Mol_Feturizer/New_Systems/rnas/2GDI

>  <Rbt.Executable>
rbdock ($Id: //depot/dev/client3/rdock/2013.1/src/exe/rbdock.cxx#4 $)

>  <Rbt.Library>
libRbt.so (2013.1, Build901 2013/11/27)

>  <Rbt.Parameter_File>
/export/apps/rDock/src/rDock_2013.1_src/data/scripts/dock_solv.prm

>  <Rbt.Receptor>
prm/blind_docking_80.prm

>  <SCORE>
-11.0256

>  <SCORE.INTER>
-13.1558

>  <SCORE.INTER.CONST>
1

>  <SCORE.INTER.POLAR>
0

>  <SCORE.INTER.ROT>
8

>  <SCORE.INTER.SOLV>
17.1065

>  <SCORE.INTER.VDW>
-23.406

>  <SCORE.INTER.norm>
-0.505992

>  <SCORE.INTRA>
2.13021

>  <SCORE.INTRA.DIHEDRAL>
1.70721

>  <SCORE.INTRA.DIHEDRAL.0>
8.13976

>  <SCORE.INTRA.POLAR>
0

>  <SCORE.INTRA.POLAR.0>
0

>  <SCORE.INTRA.REPUL>
0

>  <SCORE.INTRA.REPUL.0>
0

>  <SCORE.INTRA.SOLV>
1.83304

>  <SCORE.INTRA.SOLV.lig_0>
-82.9561

>  <SCORE.INTRA.VDW>
0.360086

>  <SCORE.INTRA.VDW.0>
-3.29171

>  <SCORE.INTRA.norm>
0.0819312

>  <SCORE.RESTR>
0

>  <SCORE.RESTR.CAVITY>
0

>  <SCORE.RESTR.norm>
0

>  <SCORE.SYSTEM>
0

>  <SCORE.SYSTEM.CONST>
0

>  <SCORE.SYSTEM.DIHEDRAL>
0

>  <SCORE.SYSTEM.SOLV>
0

>  <SCORE.SYSTEM.norm>
0

>  <SCORE.heavy>
26

>  <SCORE.norm>
-0.42406

>  <RMSD>
12.344

$$$$
ligand
 OpenBabel11021811433D
libRbt.so/2013.1/901 2013/11/27
 26 27  0  0  0  0  0  0  0  0999 V2000
  -22.3787  -21.5042   12.5113 C   0  0  0  0  0  0  0  0  0  0  0  0
  -25.2685  -13.8015    9.9444 C   0  0  0  0  0  0  0  0  0  0  0  0
  -22.8095  -10.4428    7.5703 P   0  0  1  0  0  0  0  0  0  0  0  0
  -22.6954   -9.8479    4.7257 P   0  0  1  0  0  0  0  0  0  0  0  0
  -23.9466  -16.1185   11.2587 C   0  0  0  0  0  0  0  0  0  0  0  0
  -24.3175  -18.6184   11.2023 C   0  0  0  0  0  0  0  0  0  0  0  0
  -23.5358  -17.5410   11.5996 C   0  0  0  0  0  0  0  0  0  0  0  0
  -22.3675  -17.7899   12.3011 C   0  0  0  0  0  0  0  0  0  0  0  0
  -21.5733  -16.7712   12.7107 N   0  0  0  0  0  0  0  0  0  0  0  0
  -22.0153  -19.0635   12.5809 N   0  0  0  0  0  0  0  0  0  0  0  0
  -22.7930  -20.0949   12.1852 C   0  0  0  0  0  0  0  0  0  0  0  0
  -23.9400  -19.8698   11.4989 N   0  0  0  0  0  0  0  0  0  0  0  0
  -21.7804  -10.7924    8.6130 O   0  5  0  0  0  0  0  0  0  0  0  0
  -21.7598  -10.2957    3.6451 O   0  0  0  0  0  0  0  0  0  0  0  0
  -23.1076  -16.0832    7.3751 S   0  0  0  0  0  0  0  0  0  0  0  0
  -23.0628  -16.6680    9.0088 C   0  0  0  0  0  0  0  0  0  0  0  0
  -23.6816   -9.2495    7.8354 O   0  0  0  0  0  0  0  0  0  0  0  0
  -23.9803  -10.5980    4.6093 O   0  5  0  0  0  0  0  0  0  0  0  0
  -23.8027  -15.8670    9.8247 N   0  0  0  0  0  0  0  0  0  0  0  0
  -22.0600  -10.3286    6.1378 O   0  0  0  0  0  0  0  0  0  0  0  0
  -22.8964   -8.3622    4.8500 O   0  0  0  0  0  0  0  0  0  0  0  0
  -24.4084  -14.8057    9.2244 C   0  0  1  0  0  0  0  0  0  0  0  0
  -24.1359  -14.7603    7.7622 C   0  0  1  0  0  0  0  0  0  0  0  0
  -24.5342  -13.8384    6.6405 C   0  0  0  0  0  0  0  0  0  0  0  0
  -23.4749  -12.7568    6.4988 C   0  0  0  0  0  0  0  0  0  0  0  0
  -23.7917  -11.7042    7.4014 O   0  0  0  0  0  0  0  0  0  0  0  0
  1 11  1  0  0  0  0
  3 13  1  1  0  0  0
  3 17  2  0  0  0  0
  3 20  1  0  0  0  0
  3 26  1  0  0  0  0
  4 14  1  6  0  0  0
  4 18  1  0  0  0  0
  4 21  2  0  0  0  0
  4 20  1  0  0  0  0
  5 19  1  0  0  0  0
  5  7  1  0  0  0  0
  6  7  2  0  0  0  0
  6 12  1  0  0  0  0
  7  8  1  0  0  0  0
  8  9  1  0  0  0  0
  8 10  2  0  0  0  0
 10 11  1  0  0  0  0
 11 12  2  0  0  0  0
 15 23  1  0  0  0  0
 15 16  1  0  0  0  0
 16 19  1  0  0  0  0
 19 22  1  0  0  0  0
 22  2  1  6  0  0  0
 22 23  1  0  0  0  0
 23 24  1  1  0  0  0
 24 25  1  0  0  0  0
 25 26  1  0  0  0  0
M  CHG  2  13  -1  18  -1
M  END
>  <CHROM.1>
-174.11582985,-16.65761228,-70.21498772,-163.31869857,-87.38162186,-86.12871084
175.91553767,-87.04141686,-23.17135219,-14.01633542,8.41518825,1.67295361
1.42314728,2.43616577

>  <Name>
ligand

>  <RI>
0

>  <Rbt.Current_Directory>
/home/itssahil/PROJECTS/Mol_Feturizer/New_Systems/rnas/2GDI

>  <Rbt.Executable>
rbdock ($Id: //depot/dev/client3/rdock/2013.1/src/exe/rbdock.cxx#4 $)

>  <Rbt.Library>
libRbt.so (2013.1, Build901 2013/11/27)

>  <Rbt.Parameter_File>
/export/apps/rDock/src/rDock_2013.1_src/data/scripts/dock_solv.prm

>  <Rbt.Receptor>
prm/blind_docking_80.prm

>  <SCORE>
-11.3322

>  <SCORE.INTER>
-13.1208

>  <SCORE.INTER.CONST>
1

>  <SCORE.INTER.POLAR>
0

>  <SCORE.INTER.ROT>
8

>  <SCORE.INTER.SOLV>
18.2654

>  <SCORE.INTER.VDW>
-23.769

>  <SCORE.INTER.norm>
-0.504645

>  <SCORE.INTRA>
1.78853

>  <SCORE.INTRA.DIHEDRAL>
0.75763

>  <SCORE.INTRA.DIHEDRAL.0>
8.13976

>  <SCORE.INTRA.POLAR>
0

>  <SCORE.INTRA.POLAR.0>
0

>  <SCORE.INTRA.REPUL>
0

>  <SCORE.INTRA.REPUL.0>
0

>  <SCORE.INTRA.SOLV>
2.56298

>  <SCORE.INTRA.SOLV.lig_0>
-82.9561

>  <SCORE.INTRA.VDW>
0.128229

>  <SCORE.INTRA.VDW.0>
-3.29171

>  <SCORE.INTRA.norm>
0.0687898

>  <SCORE.RESTR>
0

>  <SCORE.RESTR.CAVITY>
0

>  <SCORE.RESTR.norm>
0

>  <SCORE.SYSTEM>
0

>  <SCORE.SYSTEM.CONST>
0

>  <SCORE.SYSTEM.DIHEDRAL>
0

>  <SCORE.SYSTEM.SOLV>
0

>  <SCORE.SYSTEM.norm>
0

>  <SCORE.heavy>
26

>  <SCORE.norm>
-0.435856

>  <RMSD>
12.344

$$$$
ligand
 OpenBabel11021811433D
libRbt.so/2013.1/901 2013/11/27
 26 27  0  0  0  0  0  0  0  0999 V2000
  -18.7460  -20.1855   12.3172 C   0  0  0  0  0  0  0  0  0  0  0  0
  -23.2634  -17.3466    8.1683 C   0  0  0  0  0  0  0  0  0  0  0  0
  -25.0469  -10.5034    7.3888 P   0  0  1  0  0  0  0  0  0  0  0  0
  -22.5790   -9.1792    6.6050 P   0  0  1  0  0  0  0  0  0  0  0  0
  -24.0017  -18.3726   10.8600 C   0  0  0  0  0  0  0  0  0  0  0  0
  -21.9461  -19.7919   10.4722 C   0  0  0  0  0  0  0  0  0  0  0  0
  -22.6166  -18.8584   11.2524 C   0  0  0  0  0  0  0  0  0  0  0  0
  -21.9919  -18.3690   12.3877 C   0  0  0  0  0  0  0  0  0  0  0  0
  -22.6068  -17.4581   13.1805 N   0  0  0  0  0  0  0  0  0  0  0  0
  -20.7545  -18.8051   12.7094 N   0  0  0  0  0  0  0  0  0  0  0  0
  -20.1233  -19.7149   11.9356 C   0  0  0  0  0  0  0  0  0  0  0  0
  -20.7200  -20.2053   10.8217 N   0  0  0  0  0  0  0  0  0  0  0  0
  -25.1276   -9.9806    8.7990 O   0  5  0  0  0  0  0  0  0  0  0  0
  -21.8863  -10.4792    6.3331 O   0  0  0  0  0  0  0  0  0  0  0  0
  -24.1775  -14.4035   10.8102 S   0  0  0  0  0  0  0  0  0  0  0  0
  -24.3014  -15.9947   11.4927 C   0  0  0  0  0  0  0  0  0  0  0  0
  -26.3390  -10.8534    6.7084 O   0  0  0  0  0  0  0  0  0  0  0  0
  -22.2913   -8.2241    5.4950 O   0  5  0  0  0  0  0  0  0  0  0  0
  -23.9843  -16.9399   10.5649 N   0  0  0  0  0  0  0  0  0  0  0  0
  -24.1734   -9.4581    6.5108 O   0  0  0  0  0  0  0  0  0  0  0  0
  -22.3463   -8.5800    7.9652 O   0  0  0  0  0  0  0  0  0  0  0  0
  -23.6462  -16.4716    9.3321 C   0  0  1  0  0  0  0  0  0  0  0  0
  -23.6815  -14.9852    9.2698 C   0  0  1  0  0  0  0  0  0  0  0  0
  -23.4115  -13.9652    8.1957 C   0  0  0  0  0  0  0  0  0  0  0  0
  -24.5670  -12.9773    8.1599 C   0  0  0  0  0  0  0  0  0  0  0  0
  -24.1573  -11.8422    7.4071 O   0  0  0  0  0  0  0  0  0  0  0  0
  1 11  1  0  0  0  0
  3 13  1  1  0  0  0
  3 17  2  0  0  0  0
  3 20  1  0  0  0  0
  3 26  1  0  0  0  0
  4 14  1  6  0  0  0
  4 18  1  0  0  0  0
  4 21  2  0  0  0  0
  4 20  1  0  0  0  0
  5 19  1  0  0  0  0
  5  7  1  0  0  0  0
  6  7  2  0  0  0  0
  6 12  1  0  0  0  0
  7  8  1  0  0  0  0
  8  9  1  0  0  0  0
  8 10  2  0  0  0  0
 10 11  1  0  0  0  0
 11 12  2  0  0  0  0
 15 23  1  0  0  0  0
 15 16  1  0  0  0  0
 16 19  1  0  0  0  0
 19 22  1  0  0  0  0
 22  2  1  1  0  0  0
 22 23  1  0  0  0  0
 23 24  1  6  0  0  0
 24 25  1  0  0  0  0
 25 26  1  0  0  0  0
M  CHG  2  13  -1  18  -1
M  END
>  <CHROM.1>
70.47071961,-94.88333286,-116.46303119,58.84839604,-47.67269253,165.14481217
-169.29226964,61.39296179,-23.16161294,-14.11038510,9.16650856,-1.37383193
0.10974915,-0.49307182

>  <Name>
ligand

>  <RI>
0

>  <Rbt.Current_Directory>
/home/itssahil/PROJECTS/Mol_Feturizer/New_Systems/rnas/2GDI

>  <Rbt.Executable>
rbdock ($Id: //depot/dev/client3/rdock/2013.1/src/exe/rbdock.cxx#4 $)

>  <Rbt.Library>
libRbt.so (2013.1, Build901 2013/11/27)

>  <Rbt.Parameter_File>
/export/apps/rDock/src/rDock_2013.1_src/data/scripts/dock_solv.prm

>  <Rbt.Receptor>
prm/blind_docking_80.prm

>  <SCORE>
-12.6819

>  <SCORE.INTER>
-12.9047

>  <SCORE.INTER.CONST>
1

>  <SCORE.INTER.POLAR>
0

>  <SCORE.INTER.ROT>
8

>  <SCORE.INTER.SOLV>
16.1666

>  <SCORE.INTER.VDW>
-22.9253

>  <SCORE.INTER.norm>
-0.496335

>  <SCORE.INTRA>
0.213849

>  <SCORE.INTRA.DIHEDRAL>
-1.1926

>  <SCORE.INTRA.DIHEDRAL.0>
8.13976

>  <SCORE.INTRA.POLAR>
0

>  <SCORE.INTRA.POLAR.0>
0

>  <SCORE.INTRA.REPUL>
0

>  <SCORE.INTRA.REPUL.0>
0

>  <SCORE.INTRA.SOLV>
1.20471

>  <SCORE.INTRA.SOLV.lig_0>
-82.9561

>  <SCORE.INTRA.VDW>
0.207794

>  <SCORE.INTRA.VDW.0>
-3.29171

>  <SCORE.INTRA.norm>
0.00822497

>  <SCORE.RESTR>
0.00894631

>  <SCORE.RESTR.CAVITY>
0.00894631

>  <SCORE.RESTR.norm>
0.000344089

>  <SCORE.SYSTEM>
0

>  <SCORE.SYSTEM.CONST>
0

>  <SCORE.SYSTEM.DIHEDRAL>
0

>  <SCORE.SYSTEM.SOLV>
0

>  <SCORE.SYSTEM.norm>
0

>  <SCORE.heavy>
26

>  <SCORE.norm>
-0.487766

>  <RMSD>
12.500

$$$$
ligand
 OpenBabel11021811433D
libRbt.so/2013.1/901 2013/11/27
 26 27  0  0  0  0  0  0  0  0999 V2000
  -25.1558  -22.4612   12.7556 C   0  0  0  0  0  0  0  0  0  0  0  0
  -23.5590  -14.9950   10.4566 C   0  0  0  0  0  0  0  0  0  0  0  0
  -23.0262  -11.2054    6.3479 P   0  0  1  0  0  0  0  0  0  0  0  0
  -22.3922  -11.3968    3.5160 P   0  0  1  0  0  0  0  0  0  0  0  0
  -22.4343  -17.6543   11.1682 C   0  0  0  0  0  0  0  0  0  0  0  0
  -24.4239  -18.8710   12.1435 C   0  0  0  0  0  0  0  0  0  0  0  0
  -23.1480  -18.9252   11.5967 C   0  0  0  0  0  0  0  0  0  0  0  0
  -22.5449  -20.1621   11.4374 C   0  0  0  0  0  0  0  0  0  0  0  0
  -21.3010  -20.2651   10.9097 N   0  0  0  0  0  0  0  0  0  0  0  0
  -23.2041  -21.2797   11.8128 N   0  0  0  0  0  0  0  0  0  0  0  0
  -24.4438  -21.2012   12.3439 C   0  0  0  0  0  0  0  0  0  0  0  0
  -25.0488  -19.9993   12.5081 N   0  0  0  0  0  0  0  0  0  0  0  0
  -22.2017  -11.0194    7.5946 O   0  5  0  0  0  0  0  0  0  0  0  0
  -21.1031  -11.4140    2.7534 O   0  0  0  0  0  0  0  0  0  0  0  0
  -23.0980  -17.4488    7.2561 S   0  0  0  0  0  0  0  0  0  0  0  0
  -22.5956  -18.1757    8.7501 C   0  0  0  0  0  0  0  0  0  0  0  0
  -24.0918  -10.1852    6.0676 O   0  0  0  0  0  0  0  0  0  0  0  0
  -23.1044  -12.6924    3.3124 O   0  5  0  0  0  0  0  0  0  0  0  0
  -22.7722  -17.3105    9.7870 N   0  0  0  0  0  0  0  0  0  0  0  0
  -22.0149  -11.3732    5.0926 O   0  0  0  0  0  0  0  0  0  0  0  0
  -23.2777  -10.2023    3.2873 O   0  0  0  0  0  0  0  0  0  0  0  0
  -23.2870  -16.0926    9.4627 C   0  0  1  0  0  0  0  0  0  0  0  0
  -23.5684  -15.9746    8.0062 C   0  0  1  0  0  0  0  0  0  0  0  0
  -24.1212  -14.8897    7.1206 C   0  0  0  0  0  0  0  0  0  0  0  0
  -23.1405  -13.7277    7.1030 C   0  0  0  0  0  0  0  0  0  0  0  0
  -23.7657  -12.6290    6.4510 O   0  0  0  0  0  0  0  0  0  0  0  0
  1 11  1  0  0  0  0
  3 13  1  1  0  0  0
  3 17  2  0  0  0  0
  3 20  1  0  0  0  0
  3 26  1  0  0  0  0
  4 14  1  6  0  0  0
  4 18  1  0  0  0  0
  4 21  2  0  0  0  0
  4 20  1  0  0  0  0
  5 19  1  0  0  0  0
  5  7  1  0  0  0  0
  6  7  2  0  0  0  0
  6 12  1  0  0  0  0
  7  8  1  0  0  0  0
  8  9  1  0  0  0  0
  8 10  2  0  0  0  0
 10 11  1  0  0  0  0
 11 12  2  0  0  0  0
 15 23  1  0  0  0  0
 15 16  1  0  0  0  0
 16 19  1  0  0  0  0
 19 22  1  0  0  0  0
 22  2  1  1  0  0  0
 22 23  1  0  0  0  0
 23 24  1  6  0  0  0
 24 25  1  0  0  0  0
 25 26  1  0  0  0  0
M  CHG  2  13  -1  18  -1
M  END
>  <CHROM.1>
-170.93790685,-55.41262098,-87.83575216,173.57190680,-112.80234638,-170.49650873
176.08065862,-33.44693424,-23.12766200,-15.30783143,7.91969433,-1.83576041
1.26022953,-0.41751289

>  <Name>
ligand

>  <RI>
0

>  <Rbt.Current_Directory>
/home/itssahil/PROJECTS/Mol_Feturizer/New_Systems/rnas/2GDI

>  <Rbt.Executable>
rbdock ($Id: //depot/dev/client3/rdock/2013.1/src/exe/rbdock.cxx#4 $)

>  <Rbt.Library>
libRbt.so (2013.1, Build901 2013/11/27)

>  <Rbt.Parameter_File>
/export/apps/rDock/src/rDock_2013.1_src/data/scripts/dock_solv.prm

>  <Rbt.Receptor>
prm/blind_docking_80.prm

>  <SCORE>
-14.3491

>  <SCORE.INTER>
-14.3286

>  <SCORE.INTER.CONST>
1

>  <SCORE.INTER.POLAR>
0

>  <SCORE.INTER.ROT>
8

>  <SCORE.INTER.SOLV>
19.0171

>  <SCORE.INTER.VDW>
-24.8248

>  <SCORE.INTER.norm>
-0.551101

>  <SCORE.INTRA>
-0.0269795

>  <SCORE.INTRA.DIHEDRAL>
-1.96914

>  <SCORE.INTRA.DIHEDRAL.0>
8.13976

>  <SCORE.INTRA.POLAR>
0

>  <SCORE.INTRA.POLAR.0>
0

>  <SCORE.INTRA.REPUL>
0

>  <SCORE.INTRA.REPUL.0>
0

>  <SCORE.INTRA.SOLV>
2.6475

>  <SCORE.INTRA.SOLV.lig_0>
-82.9561

>  <SCORE.INTRA.VDW>
-0.366158

>  <SCORE.INTRA.VDW.0>
-3.29171

>  <SCORE.INTRA.norm>
-0.00103767

>  <SCORE.RESTR>
0.00650329

>  <SCORE.RESTR.CAVITY>
0.00650329

>  <SCORE.RESTR.norm>
0.000250127

>  <SCORE.SYSTEM>
0

>  <SCORE.SYSTEM.CONST>
0

>  <SCORE.SYSTEM.DIHEDRAL>
0

>  <SCORE.SYSTEM.SOLV>
0

>  <SCORE.SYSTEM.norm>
0

>  <SCORE.heavy>
26

>  <SCORE.norm>
-0.551888

>  <RMSD>
12.544

$$$$
ligand
 OpenBabel11021811433D
libRbt.so/2013.1/901 2013/11/27
 26 27  0  0  0  0  0  0  0  0999 V2000
  -33.0061  -12.6460   -8.8864 C   0  0  0  0  0  0  0  0  0  0  0  0
  -25.2205  -13.6949   -5.4240 C   0  0  0  0  0  0  0  0  0  0  0  0
  -25.1938  -12.4261    0.5585 P   0  0  1  0  0  0  0  0  0  0  0  0
  -24.3183  -11.3993    3.1349 P   0  0  1  0  0  0  0  0  0  0  0  0
  -27.7701  -13.9806   -6.9277 C   0  0  0  0  0  0  0  0  0  0  0  0
  -29.4529  -12.3341   -7.8482 C   0  0  0  0  0  0  0  0  0  0  0  0
  -29.1577  -13.6273   -7.4356 C   0  0  0  0  0  0  0  0  0  0  0  0
  -30.1497  -14.5914   -7.5091 C   0  0  0  0  0  0  0  0  0  0  0  0
  -29.9093  -15.8661   -7.1170 N   0  0  0  0  0  0  0  0  0  0  0  0
  -31.3721  -14.2574   -7.9769 N   0  0  0  0  0  0  0  0  0  0  0  0
  -31.6355  -12.9923   -8.3708 C   0  0  0  0  0  0  0  0  0  0  0  0
  -30.6773  -12.0359   -8.3048 N   0  0  0  0  0  0  0  0  0  0  0  0
  -25.3982  -13.8874    0.8608 O   0  5  0  0  0  0  0  0  0  0  0  0
  -23.3802  -10.2646    3.4106 O   0  0  0  0  0  0  0  0  0  0  0  0
  -28.4658  -14.0840   -3.0172 S   0  0  0  0  0  0  0  0  0  0  0  0
  -28.8622  -14.1193   -4.7067 C   0  0  0  0  0  0  0  0  0  0  0  0
  -26.4160  -11.5553    0.5067 O   0  0  0  0  0  0  0  0  0  0  0  0
  -25.7244  -10.9015    3.1848 O   0  5  0  0  0  0  0  0  0  0  0  0
  -27.7390  -13.9854   -5.4651 N   0  0  0  0  0  0  0  0  0  0  0  0
  -24.0896  -11.8449    1.5928 O   0  0  0  0  0  0  0  0  0  0  0  0
  -24.1098  -12.6418    3.9570 O   0  0  0  0  0  0  0  0  0  0  0  0
  -26.5710  -13.8544   -4.7781 C   0  0  1  0  0  0  0  0  0  0  0  0
  -26.7801  -13.9044   -3.3056 C   0  0  1  0  0  0  0  0  0  0  0  0
  -25.8757  -13.8115   -2.1054 C   0  0  0  0  0  0  0  0  0  0  0  0
  -25.2444  -12.4284   -2.0764 C   0  0  0  0  0  0  0  0  0  0  0  0
  -24.4846  -12.3123   -0.8797 O   0  0  0  0  0  0  0  0  0  0  0  0
  1 11  1  0  0  0  0
  3 13  1  1  0  0  0
  3 17  2  0  0  0  0
  3 20  1  0  0  0  0
  3 26  1  0  0  0  0
  4 14  1  1  0  0  0
  4 18  1  0  0  0  0
  4 21  2  0  0  0  0
  4 20  1  0  0  0  0
  5 19  1  0  0  0  0
  5  7  1  0  0  0  0
  6  7  2  0  0  0  0
  6 12  1  0  0  0  0
  7  8  1  0  0  0  0
  8  9  1  0  0  0  0
  8 10  2  0  0  0  0
 10 11  1  0  0  0  0
 11 12  2  0  0  0  0
 15 23  1  0  0  0  0
 15 16  1  0  0  0  0
 16 19  1  0  0  0  0
 19 22  1  0  0  0  0
 22  2  1  6  0  0  0
 22 23  1  0  0  0  0
 23 24  1  1  0  0  0
 24 25  1  0  0  0  0
 25 26  1  0  0  0  0
M  CHG  2  13  -1  18  -1
M  END
>  <CHROM.1>
-79.77726465,20.91113087,98.85527914,-147.09800288,-114.67450620,175.06063711
-61.46543569,80.11850432,-27.05472300,-12.95062869,-2.59028076,2.13999819
0.41630303,-2.01406133

>  <Name>
ligand

>  <RI>
0

>  <Rbt.Current_Directory>
/home/itssahil/PROJECTS/Mol_Feturizer/New_Systems/rnas/2GDI

>  <Rbt.Executable>
rbdock ($Id: //depot/dev/client3/rdock/2013.1/src/exe/rbdock.cxx#4 $)

>  <Rbt.Library>
libRbt.so (2013.1, Build901 2013/11/27)

>  <Rbt.Parameter_File>
/export/apps/rDock/src/rDock_2013.1_src/data/scripts/dock_solv.prm

>  <Rbt.Receptor>
prm/blind_docking_60.prm

>  <SCORE>
-13.0083

>  <SCORE.INTER>
-15.3773

>  <SCORE.INTER.CONST>
1

>  <SCORE.INTER.POLAR>
0

>  <SCORE.INTER.ROT>
8

>  <SCORE.INTER.SOLV>
17.3267

>  <SCORE.INTER.VDW>
-24.9604

>  <SCORE.INTER.norm>
-0.591433

>  <SCORE.INTRA>
2.36717

>  <SCORE.INTRA.DIHEDRAL>
-1.48675

>  <SCORE.INTRA.DIHEDRAL.0>
8.13976

>  <SCORE.INTRA.POLAR>
0

>  <SCORE.INTRA.POLAR.0>
0

>  <SCORE.INTRA.REPUL>
0

>  <SCORE.INTRA.REPUL.0>
0

>  <SCORE.INTRA.SOLV>
4.42492

>  <SCORE.INTRA.SOLV.lig_0>
-82.9561

>  <SCORE.INTRA.VDW>
0.898082

>  <SCORE.INTRA.VDW.0>
-3.29171

>  <SCORE.INTRA.norm>
0.091045

>  <SCORE.RESTR>
0.00182045

>  <SCORE.RESTR.CAVITY>
0.00182045

>  <SCORE.RESTR.norm>
7.00173e-05

>  <SCORE.SYSTEM>
0

>  <SCORE.SYSTEM.CONST>
0

>  <SCORE.SYSTEM.DIHEDRAL>
0

>  <SCORE.SYSTEM.SOLV>
0

>  <SCORE.SYSTEM.norm>
0

>  <SCORE.heavy>
26

>  <SCORE.norm>
-0.500318

>  <RMSD>
12.558

$$$$
ligand
 OpenBabel11021811433D
libRbt.so/2013.1/901 2013/11/27
 26 27  0  0  0  0  0  0  0  0999 V2000
  -20.5483  -21.1819   12.3321 C   0  0  0  0  0  0  0  0  0  0  0  0
  -23.8411  -14.7357   11.7256 C   0  0  0  0  0  0  0  0  0  0  0  0
  -24.7687  -10.4626    8.3702 P   0  0  1  0  0  0  0  0  0  0  0  0
  -25.6193  -11.9399    6.0138 P   0  0  1  0  0  0  0  0  0  0  0  0
  -24.5132  -17.4019   10.5931 C   0  0  0  0  0  0  0  0  0  0  0  0
  -22.2464  -18.5034   10.3975 C   0  0  0  0  0  0  0  0  0  0  0  0
  -23.4703  -18.4089   11.0478 C   0  0  0  0  0  0  0  0  0  0  0  0
  -23.7158  -19.2414   12.1273 C   0  0  0  0  0  0  0  0  0  0  0  0
  -24.8953  -19.1865   12.7923 N   0  0  0  0  0  0  0  0  0  0  0  0
  -22.7683  -20.1194   12.5224 N   0  0  0  0  0  0  0  0  0  0  0  0
  -21.5861  -20.1939   11.8729 C   0  0  0  0  0  0  0  0  0  0  0  0
  -21.3293  -19.3877   10.8139 N   0  0  0  0  0  0  0  0  0  0  0  0
  -23.4465  -10.2341    7.6861 O   0  5  0  0  0  0  0  0  0  0  0  0
  -25.2867  -13.2753    6.6050 O   0  0  0  0  0  0  0  0  0  0  0  0
  -22.8899  -15.0939    7.7958 S   0  0  0  0  0  0  0  0  0  0  0  0
  -23.6026  -16.5314    8.4582 C   0  0  0  0  0  0  0  0  0  0  0  0
  -25.2987   -9.3544    9.2338 O   0  0  0  0  0  0  0  0  0  0  0  0
  -26.9440  -12.0177    5.3308 O   0  5  0  0  0  0  0  0  0  0  0  0
  -23.9009  -16.3548    9.7753 N   0  0  0  0  0  0  0  0  0  0  0  0
  -25.8478  -10.9139    7.2482 O   0  0  0  0  0  0  0  0  0  0  0  0
  -24.5548  -11.3164    5.1527 O   0  0  0  0  0  0  0  0  0  0  0  0
  -23.5937  -15.1347   10.2952 C   0  0  1  0  0  0  0  0  0  0  0  0
  -22.9970  -14.2277    9.2774 C   0  0  1  0  0  0  0  0  0  0  0  0
  -22.4838  -12.8123    9.2936 C   0  0  0  0  0  0  0  0  0  0  0  0
  -23.4481  -11.9532   10.0963 C   0  0  0  0  0  0  0  0  0  0  0  0
  -24.6204  -11.7542    9.3159 O   0  0  0  0  0  0  0  0  0  0  0  0
  1 11  1  0  0  0  0
  3 13  1  6  0  0  0
  3 17  2  0  0  0  0
  3 20  1  0  0  0  0
  3 26  1  0  0  0  0
  4 14  1  1  0  0  0
  4 18  1  0  0  0  0
  4 21  2  0  0  0  0
  4 20  1  0  0  0  0
  5 19  1  0  0  0  0
  5  7  1  0  0  0  0
  6  7  2  0  0  0  0
  6 12  1  0  0  0  0
  7  8  1  0  0  0  0
  8  9  1  0  0  0  0
  8 10  2  0  0  0  0
 10 11  1  0  0  0  0
 11 12  2  0  0  0  0
 15 23  1  0  0  0  0
 15 16  1  0  0  0  0
 16 19  1  0  0  0  0
 19 22  1  0  0  0  0
 22  2  1  6  0  0  0
 22 23  1  0  0  0  0
 23 24  1  1  0  0  0
 24 25  1  0  0  0  0
 25 26  1  0  0  0  0
M  CHG  2  13  -1  18  -1
M  END
>  <CHROM.1>
41.53464036,79.90245246,-18.61316834,62.25314784,138.66451968,-73.51624515
-92.97324689,41.68916891,-23.91684998,-14.56164506,9.11481656,0.50693280
1.26865534,-2.59436055

>  <Name>
ligand

>  <RI>
0

>  <Rbt.Current_Directory>
/home/itssahil/PROJECTS/Mol_Feturizer/New_Systems/rnas/2GDI

>  <Rbt.Executable>
rbdock ($Id: //depot/dev/client3/rdock/2013.1/src/exe/rbdock.cxx#4 $)

>  <Rbt.Library>
libRbt.so (2013.1, Build901 2013/11/27)

>  <Rbt.Parameter_File>
/export/apps/rDock/src/rDock_2013.1_src/data/scripts/dock_solv.prm

>  <Rbt.Receptor>
prm/blind_docking_80.prm

>  <SCORE>
-7.05731

>  <SCORE.INTER>
-8.05518

>  <SCORE.INTER.CONST>
1

>  <SCORE.INTER.POLAR>
0

>  <SCORE.INTER.ROT>
8

>  <SCORE.INTER.SOLV>
16.1795

>  <SCORE.INTER.VDW>
-19.6966

>  <SCORE.INTER.norm>
-0.309815

>  <SCORE.INTRA>
0.65532

>  <SCORE.INTRA.DIHEDRAL>
2.37679

>  <SCORE.INTRA.DIHEDRAL.0>
8.13976

>  <SCORE.INTRA.POLAR>
0

>  <SCORE.INTRA.POLAR.0>
0

>  <SCORE.INTRA.REPUL>
0

>  <SCORE.INTRA.REPUL.0>
0

>  <SCORE.INTRA.SOLV>
0.391588

>  <SCORE.INTRA.SOLV.lig_0>
-82.9561

>  <SCORE.INTRA.VDW>
-0.728868

>  <SCORE.INTRA.VDW.0>
-3.29171

>  <SCORE.INTRA.norm>
0.0252046

>  <SCORE.RESTR>
0.342553

>  <SCORE.RESTR.CAVITY>
0.342553

>  <SCORE.RESTR.norm>
0.0131751

>  <SCORE.SYSTEM>
0

>  <SCORE.SYSTEM.CONST>
0

>  <SCORE.SYSTEM.DIHEDRAL>
0

>  <SCORE.SYSTEM.SOLV>
0

>  <SCORE.SYSTEM.norm>
0

>  <SCORE.heavy>
26

>  <SCORE.norm>
-0.271435

>  <RMSD>
12.566

$$$$
ligand
 OpenBabel11021811433D
libRbt.so/2013.1/901 2013/11/27
 26 27  0  0  0  0  0  0  0  0999 V2000
  -25.7540  -21.9714   13.2575 C   0  0  0  0  0  0  0  0  0  0  0  0
  -24.1081  -14.8115   10.6289 C   0  0  0  0  0  0  0  0  0  0  0  0
  -24.2639  -11.9350    5.9273 P   0  0  1  0  0  0  0  0  0  0  0  0
  -25.0668  -11.4570    3.1731 P   0  0  1  0  0  0  0  0  0  0  0  0
  -22.8250  -17.3465   11.5067 C   0  0  0  0  0  0  0  0  0  0  0  0
  -24.8601  -18.4390   12.5339 C   0  0  0  0  0  0  0  0  0  0  0  0
  -23.5935  -18.5693   11.9784 C   0  0  0  0  0  0  0  0  0  0  0  0
  -23.0508  -19.8374   11.8506 C   0  0  0  0  0  0  0  0  0  0  0  0
  -21.8182  -20.0143   11.3159 N   0  0  0  0  0  0  0  0  0  0  0  0
  -23.7581  -20.9112   12.2642 N   0  0  0  0  0  0  0  0  0  0  0  0
  -24.9876  -20.7588   12.8030 C   0  0  0  0  0  0  0  0  0  0  0  0
  -25.5338  -19.5255   12.9367 N   0  0  0  0  0  0  0  0  0  0  0  0
  -23.1111  -11.4322    6.7560 O   0  5  0  0  0  0  0  0  0  0  0  0
  -24.5878  -12.8204    2.7789 O   0  0  0  0  0  0  0  0  0  0  0  0
  -23.2457  -17.3194    7.5558 S   0  0  0  0  0  0  0  0  0  0  0  0
  -22.7860  -17.9555    9.1041 C   0  0  0  0  0  0  0  0  0  0  0  0
  -25.6093  -12.0078    6.5902 O   0  0  0  0  0  0  0  0  0  0  0  0
  -26.5151  -11.5249    3.5267 O   0  5  0  0  0  0  0  0  0  0  0  0
  -23.0981  -17.0752   10.0954 N   0  0  0  0  0  0  0  0  0  0  0  0
  -24.3186  -11.0693    4.5582 O   0  0  0  0  0  0  0  0  0  0  0  0
  -24.7528  -10.3441    2.2108 O   0  0  0  0  0  0  0  0  0  0  0  0
  -23.6855  -15.9141    9.6949 C   0  0  1  0  0  0  0  0  0  0  0  0
  -23.8795  -15.8655    8.2203 C   0  0  1  0  0  0  0  0  0  0  0  0
  -24.4574  -14.8577    7.2625 C   0  0  0  0  0  0  0  0  0  0  0  0
  -23.3512  -14.3728    6.3388 C   0  0  0  0  0  0  0  0  0  0  0  0
  -23.9093  -13.4245    5.4375 O   0  0  0  0  0  0  0  0  0  0  0  0
  1 11  1  0  0  0  0
  3 13  1  1  0  0  0
  3 17  2  0  0  0  0
  3 20  1  0  0  0  0
  3 26  1  0  0  0  0
  4 14  1  6  0  0  0
  4 18  1  0  0  0  0
  4 21  2  0  0  0  0
  4 20  1  0  0  0  0
  5 19  1  0  0  0  0
  5  7  1  0  0  0  0
  6  7  2  0  0  0  0
  6 12  1  0  0  0  0
  7  8  1  0  0  0  0
  8  9  1  0  0  0  0
  8 10  2  0  0  0  0
 10 11  1  0  0  0  0
 11 12  2  0  0  0  0
 15 23  1  0  0  0  0
 15 16  1  0  0  0  0
 16 19  1  0  0  0  0
 19 22  1  0  0  0  0
 22  2  1  1  0  0  0
 22 23  1  0  0  0  0
 23 24  1  6  0  0  0
 24 25  1  0  0  0  0
 25 26  1  0  0  0  0
M  CHG  2  13  -1  18  -1
M  END
>  <CHROM.1>
161.15091936,-62.01007851,-91.24952056,-53.14180471,-63.01599185,179.86836041
75.12488804,44.42382114,-24.15238222,-15.35758947,7.92115199,-1.34673343
1.26907568,-0.99101137

>  <Name>
ligand

>  <RI>
0

>  <Rbt.Current_Directory>
/home/itssahil/PROJECTS/Mol_Feturizer/New_Systems/rnas/2GDI

>  <Rbt.Executable>
rbdock ($Id: //depot/dev/client3/rdock/2013.1/src/exe/rbdock.cxx#4 $)

>  <Rbt.Library>
libRbt.so (2013.1, Build901 2013/11/27)

>  <Rbt.Parameter_File>
/export/apps/rDock/src/rDock_2013.1_src/data/scripts/dock_solv.prm

>  <Rbt.Receptor>
prm/blind_docking_80.prm

>  <SCORE>
-12.2647

>  <SCORE.INTER>
-13.1013

>  <SCORE.INTER.CONST>
1

>  <SCORE.INTER.POLAR>
0

>  <SCORE.INTER.ROT>
8

>  <SCORE.INTER.SOLV>
16.3586

>  <SCORE.INTER.VDW>
-23.1204

>  <SCORE.INTER.norm>
-0.503896

>  <SCORE.INTRA>
0.380274

>  <SCORE.INTRA.DIHEDRAL>
-1.02286

>  <SCORE.INTRA.DIHEDRAL.0>
8.13976

>  <SCORE.INTRA.POLAR>
0

>  <SCORE.INTRA.POLAR.0>
0

>  <SCORE.INTRA.REPUL>
0

>  <SCORE.INTRA.REPUL.0>
0

>  <SCORE.INTRA.SOLV>
1.71052

>  <SCORE.INTRA.SOLV.lig_0>
-82.9561

>  <SCORE.INTRA.VDW>
0.0364467

>  <SCORE.INTRA.VDW.0>
-3.29171

>  <SCORE.INTRA.norm>
0.0146259

>  <SCORE.RESTR>
0.456342

>  <SCORE.RESTR.CAVITY>
0.456342

>  <SCORE.RESTR.norm>
0.0175516

>  <SCORE.SYSTEM>
0

>  <SCORE.SYSTEM.CONST>
0

>  <SCORE.SYSTEM.DIHEDRAL>
0

>  <SCORE.SYSTEM.SOLV>
0

>  <SCORE.SYSTEM.norm>
0

>  <SCORE.heavy>
26

>  <SCORE.norm>
-0.471719

>  <RMSD>
12.651

$$$$
ligand
 OpenBabel11021811433D
libRbt.so/2013.1/901 2013/11/27
 26 27  0  0  0  0  0  0  0  0999 V2000
  -25.1183  -22.7819   12.5743 C   0  0  0  0  0  0  0  0  0  0  0  0
  -24.0427  -15.8407    9.7967 C   0  0  0  0  0  0  0  0  0  0  0  0
  -23.4166  -12.1502    7.1288 P   0  0  1  0  0  0  0  0  0  0  0  0
  -23.6362  -11.2771    4.3633 P   0  0  1  0  0  0  0  0  0  0  0  0
  -22.3459  -18.0938   10.7390 C   0  0  0  0  0  0  0  0  0  0  0  0
  -22.7833  -20.5832   10.6997 C   0  0  0  0  0  0  0  0  0  0  0  0
  -23.0869  -19.3306   11.2179 C   0  0  0  0  0  0  0  0  0  0  0  0
  -24.0693  -19.2333   12.1897 C   0  0  0  0  0  0  0  0  0  0  0  0
  -24.4009  -18.0329   12.7240 N   0  0  0  0  0  0  0  0  0  0  0  0
  -24.7053  -20.3484   12.6102 N   0  0  0  0  0  0  0  0  0  0  0  0
  -24.3935  -21.5555   12.0898 C   0  0  0  0  0  0  0  0  0  0  0  0
  -23.4357  -21.6692   11.1374 N   0  0  0  0  0  0  0  0  0  0  0  0
  -22.0157  -11.5983    7.0919 O   0  5  0  0  0  0  0  0  0  0  0  0
  -22.6334  -10.1726    4.4970 O   0  0  0  0  0  0  0  0  0  0  0  0
  -22.5512  -18.0983    6.7710 S   0  0  0  0  0  0  0  0  0  0  0  0
  -22.0618  -18.6539    8.3410 C   0  0  0  0  0  0  0  0  0  0  0  0
  -24.1962  -11.9678    8.3992 O   0  0  0  0  0  0  0  0  0  0  0  0
  -22.9365  -12.5352    3.9698 O   0  5  0  0  0  0  0  0  0  0  0  0
  -22.5898  -17.8622    9.3152 N   0  0  0  0  0  0  0  0  0  0  0  0
  -24.2218  -11.5734    5.8459 O   0  0  0  0  0  0  0  0  0  0  0  0
  -24.8325  -10.9807    3.5006 O   0  0  0  0  0  0  0  0  0  0  0  0
  -23.3668  -16.8302    8.8853 C   0  0  1  0  0  0  0  0  0  0  0  0
  -23.4870  -16.8012    7.4024 C   0  0  1  0  0  0  0  0  0  0  0  0
  -24.1954  -15.9109    6.4162 C   0  0  0  0  0  0  0  0  0  0  0  0
  -24.4640  -14.5680    7.0770 C   0  0  0  0  0  0  0  0  0  0  0  0
  -23.3326  -13.7332    6.8619 O   0  0  0  0  0  0  0  0  0  0  0  0
  1 11  1  0  0  0  0
  3 13  1  1  0  0  0
  3 17  2  0  0  0  0
  3 20  1  0  0  0  0
  3 26  1  0  0  0  0
  4 14  1  1  0  0  0
  4 18  1  0  0  0  0
  4 21  2  0  0  0  0
  4 20  1  0  0  0  0
  5 19  1  0  0  0  0
  5  7  1  0  0  0  0
  6  7  2  0  0  0  0
  6 12  1  0  0  0  0
  7  8  1  0  0  0  0
  8  9  1  0  0  0  0
  8 10  2  0  0  0  0
 10 11  1  0  0  0  0
 11 12  2  0  0  0  0
 15 23  1  0  0  0  0
 15 16  1  0  0  0  0
 16 19  1  0  0  0  0
 19 22  1  0  0  0  0
 22  2  1  1  0  0  0
 22 23  1  0  0  0  0
 23 24  1  6  0  0  0
 24 25  1  0  0  0  0
 25 26  1  0  0  0  0
M  CHG  2  13  -1  18  -1
M  END
>  <CHROM.1>
35.17951890,-71.50344314,63.05749126,-64.96713394,-157.07120698,88.20547942
165.78083442,168.45102398,-23.51509574,-15.72574923,8.09051744,-1.66977834
1.31056568,-0.51770527

>  <Name>
ligand

>  <RI>
0

>  <Rbt.Current_Directory>
/home/itssahil/PROJECTS/Mol_Feturizer/New_Systems/rnas/2GDI

>  <Rbt.Executable>
rbdock ($Id: //depot/dev/client3/rdock/2013.1/src/exe/rbdock.cxx#4 $)

>  <Rbt.Library>
libRbt.so (2013.1, Build901 2013/11/27)

>  <Rbt.Parameter_File>
/export/apps/rDock/src/rDock_2013.1_src/data/scripts/dock_solv.prm

>  <Rbt.Receptor>
prm/blind_docking_80.prm

>  <SCORE>
-11.1223

>  <SCORE.INTER>
-13.6342

>  <SCORE.INTER.CONST>
1

>  <SCORE.INTER.POLAR>
0

>  <SCORE.INTER.ROT>
8

>  <SCORE.INTER.SOLV>
14.389

>  <SCORE.INTER.VDW>
-22.8191

>  <SCORE.INTER.norm>
-0.524394

>  <SCORE.INTRA>
2.50054

>  <SCORE.INTRA.DIHEDRAL>
1.43736

>  <SCORE.INTRA.DIHEDRAL.0>
8.13976

>  <SCORE.INTRA.POLAR>
0

>  <SCORE.INTRA.POLAR.0>
0

>  <SCORE.INTRA.REPUL>
0

>  <SCORE.INTRA.REPUL.0>
0

>  <SCORE.INTRA.SOLV>
2.11343

>  <SCORE.INTRA.SOLV.lig_0>
-82.9561

>  <SCORE.INTRA.VDW>
0.725145

>  <SCORE.INTRA.VDW.0>
-3.29171

>  <SCORE.INTRA.norm>
0.0961746

>  <SCORE.RESTR>
0.0113701

>  <SCORE.RESTR.CAVITY>
0.0113701

>  <SCORE.RESTR.norm>
0.000437311

>  <SCORE.SYSTEM>
0

>  <SCORE.SYSTEM.CONST>
0

>  <SCORE.SYSTEM.DIHEDRAL>
0

>  <SCORE.SYSTEM.SOLV>
0

>  <SCORE.SYSTEM.norm>
0

>  <SCORE.heavy>
26

>  <SCORE.norm>
-0.427782

>  <RMSD>
12.682

$$$$
ligand
 OpenBabel11021811433D
libRbt.so/2013.1/901 2013/11/27
 26 27  0  0  0  0  0  0  0  0999 V2000
  -25.4097  -22.4070   12.8822 C   0  0  0  0  0  0  0  0  0  0  0  0
  -24.0922  -15.6357   11.1249 C   0  0  0  0  0  0  0  0  0  0  0  0
  -22.9000  -11.5601    7.6835 P   0  0  1  0  0  0  0  0  0  0  0  0
  -22.7295  -10.7077    4.9080 P   0  0  1  0  0  0  0  0  0  0  0  0
  -22.2203  -17.9460   11.1618 C   0  0  0  0  0  0  0  0  0  0  0  0
  -24.3341  -18.9300   12.1383 C   0  0  0  0  0  0  0  0  0  0  0  0
  -23.0579  -19.1256   11.6257 C   0  0  0  0  0  0  0  0  0  0  0  0
  -22.5695  -20.4186   11.5332 C   0  0  0  0  0  0  0  0  0  0  0  0
  -21.3301  -20.6589   11.0409 N   0  0  0  0  0  0  0  0  0  0  0  0
  -23.3376  -21.4531   11.9388 N   0  0  0  0  0  0  0  0  0  0  0  0
  -24.5752  -21.2373   12.4356 C   0  0  0  0  0  0  0  0  0  0  0  0
  -25.0688  -19.9787   12.5344 N   0  0  0  0  0  0  0  0  0  0  0  0
  -21.8883  -11.6003    8.7985 O   0  5  0  0  0  0  0  0  0  0  0  0
  -22.7582   -9.2140    5.0162 O   0  0  0  0  0  0  0  0  0  0  0  0
  -23.1985  -17.0337    7.4204 S   0  0  0  0  0  0  0  0  0  0  0  0
  -22.4053  -17.9123    8.6901 C   0  0  0  0  0  0  0  0  0  0  0  0
  -24.0750  -10.6403    7.8516 O   0  0  0  0  0  0  0  0  0  0  0  0
  -21.7461  -11.1087    3.8596 O   0  5  0  0  0  0  0  0  0  0  0  0
  -22.7406  -17.4020    9.9075 N   0  0  0  0  0  0  0  0  0  0  0  0
  -22.1126  -11.2758    6.2957 O   0  0  0  0  0  0  0  0  0  0  0  0
  -24.0640  -11.3827    4.7448 O   0  0  0  0  0  0  0  0  0  0  0  0
  -23.5975  -16.3442    9.8921 C   0  0  1  0  0  0  0  0  0  0  0  0
  -24.0061  -15.9759    8.5094 C   0  0  1  0  0  0  0  0  0  0  0  0
  -24.9031  -14.9215    7.9173 C   0  0  0  0  0  0  0  0  0  0  0  0
  -24.4516  -13.5591    8.4196 C   0  0  0  0  0  0  0  0  0  0  0  0
  -23.4960  -13.0420    7.5017 O   0  0  0  0  0  0  0  0  0  0  0  0
  1 11  1  0  0  0  0
  3 13  1  1  0  0  0
  3 17  2  0  0  0  0
  3 20  1  0  0  0  0
  3 26  1  0  0  0  0
  4 14  1  1  0  0  0
  4 18  1  0  0  0  0
  4 21  2  0  0  0  0
  4 20  1  0  0  0  0
  5 19  1  0  0  0  0
  5  7  1  0  0  0  0
  6  7  2  0  0  0  0
  6 12  1  0  0  0  0
  7  8  1  0  0  0  0
  8  9  1  0  0  0  0
  8 10  2  0  0  0  0
 10 11  1  0  0  0  0
 11 12  2  0  0  0  0
 15 23  1  0  0  0  0
 15 16  1  0  0  0  0
 16 19  1  0  0  0  0
 19 22  1  0  0  0  0
 22  2  1  1  0  0  0
 22 23  1  0  0  0  0
 23 24  1  6  0  0  0
 24 25  1  0  0  0  0
 25 26  1  0  0  0  0
M  CHG  2  13  -1  18  -1
M  END
>  <CHROM.1>
-160.10261195,-84.64649198,-72.38923625,84.24707289,-124.24438143,90.50998257
175.32822366,76.30176612,-23.28492734,-15.26655742,8.64192900,1.73839244
-1.11126844,2.72998718

>  <Name>
ligand

>  <RI>
0

>  <Rbt.Current_Directory>
/home/itssahil/PROJECTS/Mol_Feturizer/New_Systems/rnas/2GDI

>  <Rbt.Executable>
rbdock ($Id: //depot/dev/client3/rdock/2013.1/src/exe/rbdock.cxx#4 $)

>  <Rbt.Library>
libRbt.so (2013.1, Build901 2013/11/27)

>  <Rbt.Parameter_File>
/export/apps/rDock/src/rDock_2013.1_src/data/scripts/dock_solv.prm

>  <Rbt.Receptor>
prm/blind_docking_80.prm

>  <SCORE>
-13.4107

>  <SCORE.INTER>
-13.9546

>  <SCORE.INTER.CONST>
1

>  <SCORE.INTER.POLAR>
0

>  <SCORE.INTER.ROT>
8

>  <SCORE.INTER.SOLV>
17.9963

>  <SCORE.INTER.VDW>
-24.2351

>  <SCORE.INTER.norm>
-0.536714

>  <SCORE.INTRA>
0.507012

>  <SCORE.INTRA.DIHEDRAL>
1.21566

>  <SCORE.INTRA.DIHEDRAL.0>
8.13976

>  <SCORE.INTRA.POLAR>
0

>  <SCORE.INTRA.POLAR.0>
0

>  <SCORE.INTRA.REPUL>
0

>  <SCORE.INTRA.REPUL.0>
0

>  <SCORE.INTRA.SOLV>
0.6496

>  <SCORE.INTRA.SOLV.lig_0>
-82.9561

>  <SCORE.INTRA.VDW>
-0.42562

>  <SCORE.INTRA.VDW.0>
-3.29171

>  <SCORE.INTRA.norm>
0.0195005

>  <SCORE.RESTR>
0.0368646

>  <SCORE.RESTR.CAVITY>
0.0368646

>  <SCORE.RESTR.norm>
0.00141787

>  <SCORE.SYSTEM>
0

>  <SCORE.SYSTEM.CONST>
0

>  <SCORE.SYSTEM.DIHEDRAL>
0

>  <SCORE.SYSTEM.SOLV>
0

>  <SCORE.SYSTEM.norm>
0

>  <SCORE.heavy>
26

>  <SCORE.norm>
-0.515795

>  <RMSD>
12.928

$$$$
ligand
 OpenBabel11021811433D
libRbt.so/2013.1/901 2013/11/27
 26 27  0  0  0  0  0  0  0  0999 V2000
  -25.1793  -22.7301   12.8247 C   0  0  0  0  0  0  0  0  0  0  0  0
  -23.9028  -15.4652   11.2209 C   0  0  0  0  0  0  0  0  0  0  0  0
  -22.1737  -12.2678    9.5104 P   0  0  1  0  0  0  0  0  0  0  0  0
  -22.7705  -10.6781    7.1492 P   0  0  1  0  0  0  0  0  0  0  0  0
  -22.2989  -17.9624   11.4086 C   0  0  0  0  0  0  0  0  0  0  0  0
  -24.3799  -19.1553   12.2065 C   0  0  0  0  0  0  0  0  0  0  0  0
  -23.0556  -19.2227   11.7924 C   0  0  0  0  0  0  0  0  0  0  0  0
  -22.4428  -20.4632   11.7233 C   0  0  0  0  0  0  0  0  0  0  0  0
  -21.1524  -20.5788   11.3262 N   0  0  0  0  0  0  0  0  0  0  0  0
  -23.1395  -21.5715   12.0562 N   0  0  0  0  0  0  0  0  0  0  0  0
  -24.4262  -21.4802   12.4577 C   0  0  0  0  0  0  0  0  0  0  0  0
  -25.0413  -20.2747   12.5322 N   0  0  0  0  0  0  0  0  0  0  0  0
  -20.8845  -12.7843   10.0931 O   0  5  0  0  0  0  0  0  0  0  0  0
  -23.1200  -11.8716    6.3144 O   0  0  0  0  0  0  0  0  0  0  0  0
  -23.2048  -17.1966    7.6165 S   0  0  0  0  0  0  0  0  0  0  0  0
  -22.5024  -18.0721    8.9406 C   0  0  0  0  0  0  0  0  0  0  0  0
  -23.1928  -11.7207   10.4681 O   0  0  0  0  0  0  0  0  0  0  0  0
  -23.9987  -10.1758    7.8323 O   0  5  0  0  0  0  0  0  0  0  0  0
  -22.7674  -17.4481   10.1217 N   0  0  0  0  0  0  0  0  0  0  0  0
  -21.8110  -11.1977    8.3484 O   0  0  0  0  0  0  0  0  0  0  0  0
  -22.0033   -9.5877    6.4522 O   0  0  0  0  0  0  0  0  0  0  0  0
  -23.5015  -16.3046   10.0373 C   0  0  1  0  0  0  0  0  0  0  0  0
  -23.8796  -15.9855    8.6339 C   0  0  1  0  0  0  0  0  0  0  0  0
  -24.6594  -14.8792    7.9744 C   0  0  0  0  0  0  0  0  0  0  0  0
  -24.2995  -13.5625    8.6444 C   0  0  0  0  0  0  0  0  0  0  0  0
  -22.8819  -13.4780    8.7243 O   0  0  0  0  0  0  0  0  0  0  0  0
  1 11  1  0  0  0  0
  3 13  1  1  0  0  0
  3 17  2  0  0  0  0
  3 20  1  0  0  0  0
  3 26  1  0  0  0  0
  4 14  1  6  0  0  0
  4 18  1  0  0  0  0
  4 21  2  0  0  0  0
  4 20  1  0  0  0  0
  5 19  1  0  0  0  0
  5  7  1  0  0  0  0
  6  7  2  0  0  0  0
  6 12  1  0  0  0  0
  7  8  1  0  0  0  0
  8  9  1  0  0  0  0
  8 10  2  0  0  0  0
 10 11  1  0  0  0  0
 11 12  2  0  0  0  0
 15 23  1  0  0  0  0
 15 16  1  0  0  0  0
 16 19  1  0  0  0  0
 19 22  1  0  0  0  0
 22  2  1  1  0  0  0
 22 23  1  0  0  0  0
 23 24  1  6  0  0  0
 24 25  1  0  0  0  0
 25 26  1  0  0  0  0
M  CHG  2  13  -1  18  -1
M  END
>  <CHROM.1>
161.04534669,-71.07848918,-72.58583269,-61.76365528,-138.53512903,48.42283368
-174.04714409,148.47520867,-23.10006248,-15.46558919,9.56753769,1.90493992
1.29381463,2.42012049

>  <Name>
ligand

>  <RI>
0

>  <Rbt.Current_Directory>
/home/itssahil/PROJECTS/Mol_Feturizer/New_Systems/rnas/2GDI

>  <Rbt.Executable>
rbdock ($Id: //depot/dev/client3/rdock/2013.1/src/exe/rbdock.cxx#4 $)

>  <Rbt.Library>
libRbt.so (2013.1, Build901 2013/11/27)

>  <Rbt.Parameter_File>
/export/apps/rDock/src/rDock_2013.1_src/data/scripts/dock_solv.prm

>  <Rbt.Receptor>
prm/blind_docking_80.prm

>  <SCORE>
-12.4102

>  <SCORE.INTER>
-12.4139

>  <SCORE.INTER.CONST>
1

>  <SCORE.INTER.POLAR>
0

>  <SCORE.INTER.ROT>
8

>  <SCORE.INTER.SOLV>
17.3375

>  <SCORE.INTER.VDW>
-22.9884

>  <SCORE.INTER.norm>
-0.477457

>  <SCORE.INTRA>
-0.0386827

>  <SCORE.INTRA.DIHEDRAL>
-0.840414

>  <SCORE.INTRA.DIHEDRAL.0>
8.13976

>  <SCORE.INTRA.POLAR>
0

>  <SCORE.INTRA.POLAR.0>
0

>  <SCORE.INTRA.REPUL>
0

>  <SCORE.INTRA.REPUL.0>
0

>  <SCORE.INTRA.SOLV>
1.6817

>  <SCORE.INTRA.SOLV.lig_0>
-82.9561

>  <SCORE.INTRA.VDW>
-0.459324

>  <SCORE.INTRA.VDW.0>
-3.29171

>  <SCORE.INTRA.norm>
-0.0014878

>  <SCORE.RESTR>
0.0423509

>  <SCORE.RESTR.CAVITY>
0.0423509

>  <SCORE.RESTR.norm>
0.00162888

>  <SCORE.SYSTEM>
0

>  <SCORE.SYSTEM.CONST>
0

>  <SCORE.SYSTEM.DIHEDRAL>
0

>  <SCORE.SYSTEM.SOLV>
0

>  <SCORE.SYSTEM.norm>
0

>  <SCORE.heavy>
26

>  <SCORE.norm>
-0.477315

>  <RMSD>
13.272

$$$$
ligand
 OpenBabel11021811433D
libRbt.so/2013.1/901 2013/11/27
 26 27  0  0  0  0  0  0  0  0999 V2000
  -23.9324  -12.6010   -1.3669 C   0  0  0  0  0  0  0  0  0  0  0  0
  -30.1008  -16.0332   -5.7487 C   0  0  0  0  0  0  0  0  0  0  0  0
  -33.1720  -12.5556   -6.4949 P   0  0  1  0  0  0  0  0  0  0  0  0
  -34.7332  -10.2399   -7.3068 P   0  0  1  0  0  0  0  0  0  0  0  0
  -28.9266  -14.4878   -3.4956 C   0  0  0  0  0  0  0  0  0  0  0  0
  -27.5147  -13.5515   -1.6194 C   0  0  0  0  0  0  0  0  0  0  0  0
  -27.6079  -13.9797   -2.9376 C   0  0  0  0  0  0  0  0  0  0  0  0
  -26.4717  -13.9470   -3.7293 C   0  0  0  0  0  0  0  0  0  0  0  0
  -26.5138  -14.3534   -5.0214 N   0  0  0  0  0  0  0  0  0  0  0  0
  -25.3070  -13.5043   -3.2077 N   0  0  0  0  0  0  0  0  0  0  0  0
  -25.2418  -13.0914   -1.9230 C   0  0  0  0  0  0  0  0  0  0  0  0
  -26.3439  -13.1155   -1.1342 N   0  0  0  0  0  0  0  0  0  0  0  0
  -32.1182  -12.7976   -5.4463 O   0  5  0  0  0  0  0  0  0  0  0  0
  -34.5142   -8.7654   -7.1604 O   0  0  0  0  0  0  0  0  0  0  0  0
  -29.4427  -12.1311   -6.6527 S   0  0  0  0  0  0  0  0  0  0  0  0
  -28.9788  -12.5427   -5.0314 C   0  0  0  0  0  0  0  0  0  0  0  0
  -34.3922  -13.4299   -6.4607 O   0  0  0  0  0  0  0  0  0  0  0  0
  -34.4956  -10.6367   -8.7257 O   0  5  0  0  0  0  0  0  0  0  0  0
  -29.2207  -13.8598   -4.7838 N   0  0  0  0  0  0  0  0  0  0  0  0
  -33.5629  -10.9829   -6.4658 O   0  0  0  0  0  0  0  0  0  0  0  0
  -36.0311  -10.7710   -6.7621 O   0  0  0  0  0  0  0  0  0  0  0  0
  -29.7584  -14.5686   -5.8143 C   0  0  1  0  0  0  0  0  0  0  0  0
  -29.9547  -13.7293   -7.0274 C   0  0  1  0  0  0  0  0  0  0  0  0
  -30.4961  -13.9794   -8.4099 C   0  0  0  0  0  0  0  0  0  0  0  0
  -32.0134  -14.0445   -8.3351 C   0  0  0  0  0  0  0  0  0  0  0  0
  -32.4934  -12.7661   -7.9369 O   0  0  0  0  0  0  0  0  0  0  0  0
  1 11  1  0  0  0  0
  3 13  1  1  0  0  0
  3 17  2  0  0  0  0
  3 20  1  0  0  0  0
  3 26  1  0  0  0  0
  4 14  1  1  0  0  0
  4 18  1  0  0  0  0
  4 21  2  0  0  0  0
  4 20  1  0  0  0  0
  5 19  1  0  0  0  0
  5  7  1  0  0  0  0
  6  7  2  0  0  0  0
  6 12  1  0  0  0  0
  7  8  1  0  0  0  0
  8  9  1  0  0  0  0
  8 10  2  0  0  0  0
 10 11  1  0  0  0  0
 11 12  2  0  0  0  0
 15 23  1  0  0  0  0
 15 16  1  0  0  0  0
 16 19  1  0  0  0  0
 19 22  1  0  0  0  0
 22  2  1  6  0  0  0
 22 23  1  0  0  0  0
 23 24  1  1  0  0  0
 24 25  1  0  0  0  0
 25 26  1  0  0  0  0
M  CHG  2  13  -1  18  -1
M  END
>  <CHROM.1>
-174.28817400,-40.12672710,131.78994467,-168.34340218,-102.24204897,64.66538956
-111.57482314,65.18369348,-30.59442301,-12.71500876,-5.61955485,0.09994969
-0.56159144,0.67215402

>  <Name>
ligand

>  <RI>
0

>  <Rbt.Current_Directory>
/home/itssahil/PROJECTS/Mol_Feturizer/New_Systems/rnas/2GDI

>  <Rbt.Executable>
rbdock ($Id: //depot/dev/client3/rdock/2013.1/src/exe/rbdock.cxx#4 $)

>  <Rbt.Library>
libRbt.so (2013.1, Build901 2013/11/27)

>  <Rbt.Parameter_File>
/export/apps/rDock/src/rDock_2013.1_src/data/scripts/dock_solv.prm

>  <Rbt.Receptor>
prm/blind_docking_80.prm

>  <SCORE>
-9.78628

>  <SCORE.INTER>
-13.5082

>  <SCORE.INTER.CONST>
1

>  <SCORE.INTER.POLAR>
0

>  <SCORE.INTER.ROT>
8

>  <SCORE.INTER.SOLV>
23.9555

>  <SCORE.INTER.VDW>
-25.924

>  <SCORE.INTER.norm>
-0.519545

>  <SCORE.INTRA>
3.7219

>  <SCORE.INTRA.DIHEDRAL>
3.77088

>  <SCORE.INTRA.DIHEDRAL.0>
8.13976

>  <SCORE.INTRA.POLAR>
0

>  <SCORE.INTRA.POLAR.0>
0

>  <SCORE.INTRA.REPUL>
0

>  <SCORE.INTRA.REPUL.0>
0

>  <SCORE.INTRA.SOLV>
7.6655

>  <SCORE.INTRA.SOLV.lig_0>
-82.9561

>  <SCORE.INTRA.VDW>
-1.99629

>  <SCORE.INTRA.VDW.0>
-3.29171

>  <SCORE.INTRA.norm>
0.14315

>  <SCORE.RESTR>
0

>  <SCORE.RESTR.CAVITY>
0

>  <SCORE.RESTR.norm>
0

>  <SCORE.SYSTEM>
0

>  <SCORE.SYSTEM.CONST>
0

>  <SCORE.SYSTEM.DIHEDRAL>
0

>  <SCORE.SYSTEM.SOLV>
0

>  <SCORE.SYSTEM.norm>
0

>  <SCORE.heavy>
26

>  <SCORE.norm>
-0.376395

>  <RMSD>
13.616

$$$$
ligand
 OpenBabel11021811433D
libRbt.so/2013.1/901 2013/11/27
 26 27  0  0  0  0  0  0  0  0999 V2000
  -23.5513  -11.9211   -2.3434 C   0  0  0  0  0  0  0  0  0  0  0  0
  -29.1548  -13.0283   -7.4139 C   0  0  0  0  0  0  0  0  0  0  0  0
  -33.6751  -11.4880   -7.6745 P   0  0  1  0  0  0  0  0  0  0  0  0
  -36.2078  -10.8160   -8.9365 P   0  0  1  0  0  0  0  0  0  0  0  0
  -26.6885  -14.3981   -6.4733 C   0  0  0  0  0  0  0  0  0  0  0  0
  -24.4751  -13.8403   -5.3870 C   0  0  0  0  0  0  0  0  0  0  0  0
  -25.8614  -13.7514   -5.3751 C   0  0  0  0  0  0  0  0  0  0  0  0
  -26.4739  -13.0499   -4.3496 C   0  0  0  0  0  0  0  0  0  0  0  0
  -27.8232  -12.9369   -4.2951 N   0  0  0  0  0  0  0  0  0  0  0  0
  -25.7175  -12.4714   -3.3916 N   0  0  0  0  0  0  0  0  0  0  0  0
  -24.3708  -12.5733   -3.4239 C   0  0  0  0  0  0  0  0  0  0  0  0
  -23.7546  -13.2567   -4.4192 N   0  0  0  0  0  0  0  0  0  0  0  0
  -33.0773  -11.7661   -9.0286 O   0  5  0  0  0  0  0  0  0  0  0  0
  -37.6358  -10.9962   -8.5221 O   0  0  0  0  0  0  0  0  0  0  0  0
  -29.8823  -15.9447   -4.6858 S   0  0  0  0  0  0  0  0  0  0  0  0
  -28.1961  -15.7628   -5.0558 C   0  0  0  0  0  0  0  0  0  0  0  0
  -33.2204  -10.2470   -6.9618 O   0  0  0  0  0  0  0  0  0  0  0  0
  -35.8472   -9.3703   -8.8523 O   0  5  0  0  0  0  0  0  0  0  0  0
  -28.0111  -14.7735   -5.9733 N   0  0  0  0  0  0  0  0  0  0  0  0
  -35.2891  -11.5396   -7.8135 O   0  0  0  0  0  0  0  0  0  0  0  0
  -35.8186  -11.4388  -10.2495 O   0  0  0  0  0  0  0  0  0  0  0  0
  -29.1393  -14.1456   -6.4049 C   0  0  1  0  0  0  0  0  0  0  0  0
  -30.3628  -14.6811   -5.7486 C   0  0  1  0  0  0  0  0  0  0  0  0
  -31.8338  -14.3736   -5.8424 C   0  0  0  0  0  0  0  0  0  0  0  0
  -32.0029  -12.9092   -6.2152 C   0  0  0  0  0  0  0  0  0  0  0  0
  -33.3227  -12.7276   -6.7135 O   0  0  0  0  0  0  0  0  0  0  0  0
  1 11  1  0  0  0  0
  3 13  1  6  0  0  0
  3 17  2  0  0  0  0
  3 20  1  0  0  0  0
  3 26  1  0  0  0  0
  4 14  1  1  0  0  0
  4 18  1  0  0  0  0
  4 21  2  0  0  0  0
  4 20  1  0  0  0  0
  5 19  1  0  0  0  0
  5  7  1  0  0  0  0
  6  7  2  0  0  0  0
  6 12  1  0  0  0  0
  7  8  1  0  0  0  0
  8  9  1  0  0  0  0
  8 10  2  0  0  0  0
 10 11  1  0  0  0  0
 11 12  2  0  0  0  0
 15 23  1  0  0  0  0
 15 16  1  0  0  0  0
 16 19  1  0  0  0  0
 19 22  1  0  0  0  0
 22  2  1  1  0  0  0
 22 23  1  0  0  0  0
 23 24  1  6  0  0  0
 24 25  1  0  0  0  0
 25 26  1  0  0  0  0
M  CHG  2  13  -1  18  -1
M  END
>  <CHROM.1>
-47.81805866,-67.99888768,151.65364053,-171.77631347,152.05114489,161.68482948
-157.43890340,73.34266107,-30.68838412,-12.75371201,-6.41746786,-0.29704185
-0.36474136,-0.16308438

>  <Name>
ligand

>  <RI>
0

>  <Rbt.Current_Directory>
/home/itssahil/PROJECTS/Mol_Feturizer/New_Systems/rnas/2GDI

>  <Rbt.Executable>
rbdock ($Id: //depot/dev/client3/rdock/2013.1/src/exe/rbdock.cxx#4 $)

>  <Rbt.Library>
libRbt.so (2013.1, Build901 2013/11/27)

>  <Rbt.Parameter_File>
/export/apps/rDock/src/rDock_2013.1_src/data/scripts/dock_solv.prm

>  <Rbt.Receptor>
prm/blind_docking_40.prm

>  <SCORE>
-8.89697

>  <SCORE.INTER>
-14.387

>  <SCORE.INTER.CONST>
1

>  <SCORE.INTER.POLAR>
0

>  <SCORE.INTER.ROT>
8

>  <SCORE.INTER.SOLV>
17.9563

>  <SCORE.INTER.VDW>
-24.5101

>  <SCORE.INTER.norm>
-0.553348

>  <SCORE.INTRA>
5.42959

>  <SCORE.INTRA.DIHEDRAL>
0.748778

>  <SCORE.INTRA.DIHEDRAL.0>
8.13976

>  <SCORE.INTRA.POLAR>
0

>  <SCORE.INTRA.POLAR.0>
0

>  <SCORE.INTRA.REPUL>
0

>  <SCORE.INTRA.REPUL.0>
0

>  <SCORE.INTRA.SOLV>
7.46925

>  <SCORE.INTRA.SOLV.lig_0>
-82.9561

>  <SCORE.INTRA.VDW>
1.32057

>  <SCORE.INTRA.VDW.0>
-3.29171

>  <SCORE.INTRA.norm>
0.20883

>  <SCORE.RESTR>
0.0604858

>  <SCORE.RESTR.CAVITY>
0.0604858

>  <SCORE.RESTR.norm>
0.00232638

>  <SCORE.SYSTEM>
0

>  <SCORE.SYSTEM.CONST>
0

>  <SCORE.SYSTEM.DIHEDRAL>
0

>  <SCORE.SYSTEM.SOLV>
0

>  <SCORE.SYSTEM.norm>
0

>  <SCORE.heavy>
26

>  <SCORE.norm>
-0.342191

>  <RMSD>
13.971

$$$$
ligand
 OpenBabel11021811433D
libRbt.so/2013.1/901 2013/11/27
 26 27  0  0  0  0  0  0  0  0999 V2000
  -23.8465  -12.0226   -2.3361 C   0  0  0  0  0  0  0  0  0  0  0  0
  -29.0629  -12.6483   -7.6199 C   0  0  0  0  0  0  0  0  0  0  0  0
  -34.3477  -11.8049   -7.7560 P   0  0  1  0  0  0  0  0  0  0  0  0
  -35.2059   -9.3039   -8.9674 P   0  0  1  0  0  0  0  0  0  0  0  0
  -26.8853  -14.3966   -6.5979 C   0  0  0  0  0  0  0  0  0  0  0  0
  -24.6949  -13.7931   -5.4898 C   0  0  0  0  0  0  0  0  0  0  0  0
  -26.0837  -13.7776   -5.4654 C   0  0  0  0  0  0  0  0  0  0  0  0
  -26.7232  -13.1747   -4.3947 C   0  0  0  0  0  0  0  0  0  0  0  0
  -28.0761  -13.1360   -4.3263 N   0  0  0  0  0  0  0  0  0  0  0  0
  -25.9899  -12.6186   -3.4059 N   0  0  0  0  0  0  0  0  0  0  0  0
  -24.6400  -12.6478   -3.4513 C   0  0  0  0  0  0  0  0  0  0  0  0
  -23.9975  -13.2344   -4.4908 N   0  0  0  0  0  0  0  0  0  0  0  0
  -34.7580  -12.2368   -6.3727 O   0  5  0  0  0  0  0  0  0  0  0  0
  -34.4681   -9.5156  -10.2536 O   0  0  0  0  0  0  0  0  0  0  0  0
  -30.3795  -15.5331   -5.0859 S   0  0  0  0  0  0  0  0  0  0  0  0
  -28.6636  -15.5830   -5.3429 C   0  0  0  0  0  0  0  0  0  0  0  0
  -35.0365  -12.4633   -8.9165 O   0  0  0  0  0  0  0  0  0  0  0  0
  -36.5706   -9.8979   -9.0766 O   0  5  0  0  0  0  0  0  0  0  0  0
  -28.2785  -14.5958   -6.1984 N   0  0  0  0  0  0  0  0  0  0  0  0
  -34.4564  -10.1897   -7.8349 O   0  0  0  0  0  0  0  0  0  0  0  0
  -35.2235   -7.8944   -8.4416 O   0  0  0  0  0  0  0  0  0  0  0  0
  -29.2744  -13.7946   -6.6672 C   0  0  1  0  0  0  0  0  0  0  0  0
  -30.6030  -14.1726   -6.1137 C   0  0  1  0  0  0  0  0  0  0  0  0
  -32.0056  -13.6518   -6.2821 C   0  0  0  0  0  0  0  0  0  0  0  0
  -32.2652  -13.4199   -7.7624 C   0  0  0  0  0  0  0  0  0  0  0  0
  -32.7766  -12.1024   -7.9222 O   0  0  0  0  0  0  0  0  0  0  0  0
  1 11  1  0  0  0  0
  3 13  1  1  0  0  0
  3 17  2  0  0  0  0
  3 20  1  0  0  0  0
  3 26  1  0  0  0  0
  4 14  1  6  0  0  0
  4 18  1  0  0  0  0
  4 21  2  0  0  0  0
  4 20  1  0  0  0  0
  5 19  1  0  0  0  0
  5  7  1  0  0  0  0
  6  7  2  0  0  0  0
  6 12  1  0  0  0  0
  7  8  1  0  0  0  0
  8  9  1  0  0  0  0
  8 10  2  0  0  0  0
 10 11  1  0  0  0  0
 11 12  2  0  0  0  0
 15 23  1  0  0  0  0
 15 16  1  0  0  0  0
 16 19  1  0  0  0  0
 19 22  1  0  0  0  0
 22  2  1  1  0  0  0
 22 23  1  0  0  0  0
 23 24  1  6  0  0  0
 24 25  1  0  0  0  0
 25 26  1  0  0  0  0
M  CHG  2  13  -1  18  -1
M  END
>  <CHROM.1>
-129.78823628,-74.16263088,164.37533407,-65.69090115,-133.33159844,-129.12878649
-85.42138122,58.39720832,-30.78179893,-12.45186275,-6.60565993,-0.37866857
-0.37176961,-0.16589252

>  <Name>
ligand

>  <RI>
0

>  <Rbt.Current_Directory>
/home/itssahil/PROJECTS/Mol_Feturizer/New_Systems/rnas/2GDI

>  <Rbt.Executable>
rbdock ($Id: //depot/dev/client3/rdock/2013.1/src/exe/rbdock.cxx#4 $)

>  <Rbt.Library>
libRbt.so (2013.1, Build901 2013/11/27)

>  <Rbt.Parameter_File>
/export/apps/rDock/src/rDock_2013.1_src/data/scripts/dock_solv.prm

>  <Rbt.Receptor>
prm/blind_docking_40.prm

>  <SCORE>
-7.73705

>  <SCORE.INTER>
-16.4955

>  <SCORE.INTER.CONST>
1

>  <SCORE.INTER.POLAR>
0

>  <SCORE.INTER.ROT>
8

>  <SCORE.INTER.SOLV>
18.3221

>  <SCORE.INTER.VDW>
-26.0377

>  <SCORE.INTER.norm>
-0.634441

>  <SCORE.INTRA>
8.75842

>  <SCORE.INTRA.DIHEDRAL>
7.00001

>  <SCORE.INTRA.DIHEDRAL.0>
8.13976

>  <SCORE.INTRA.POLAR>
0

>  <SCORE.INTRA.POLAR.0>
0

>  <SCORE.INTRA.REPUL>
0

>  <SCORE.INTRA.REPUL.0>
0

>  <SCORE.INTRA.SOLV>
6.81729

>  <SCORE.INTRA.SOLV.lig_0>
-82.9561

>  <SCORE.INTRA.VDW>
1.84977

>  <SCORE.INTRA.VDW.0>
-3.29171

>  <SCORE.INTRA.norm>
0.336862

>  <SCORE.RESTR>
0

>  <SCORE.RESTR.CAVITY>
0

>  <SCORE.RESTR.norm>
0

>  <SCORE.SYSTEM>
0

>  <SCORE.SYSTEM.CONST>
0

>  <SCORE.SYSTEM.DIHEDRAL>
0

>  <SCORE.SYSTEM.SOLV>
0

>  <SCORE.SYSTEM.norm>
0

>  <SCORE.heavy>
26

>  <SCORE.norm>
-0.297579

>  <RMSD>
14.232

$$$$
ligand
 OpenBabel11021811433D
libRbt.so/2013.1/901 2013/11/27
 26 27  0  0  0  0  0  0  0  0999 V2000
  -23.7595  -11.9192   -2.4770 C   0  0  0  0  0  0  0  0  0  0  0  0
  -29.8485  -15.7004   -5.1353 C   0  0  0  0  0  0  0  0  0  0  0  0
  -34.9080  -11.8014   -8.1431 P   0  0  1  0  0  0  0  0  0  0  0  0
  -34.8085   -9.8553  -10.3022 P   0  0  1  0  0  0  0  0  0  0  0  0
  -27.3030  -14.5519   -6.1575 C   0  0  0  0  0  0  0  0  0  0  0  0
  -25.0822  -13.4975   -5.5689 C   0  0  0  0  0  0  0  0  0  0  0  0
  -26.3641  -13.8653   -5.1801 C   0  0  0  0  0  0  0  0  0  0  0  0
  -26.7741  -13.5815   -3.8877 C   0  0  0  0  0  0  0  0  0  0  0  0
  -28.0149  -13.9221   -3.4624 N   0  0  0  0  0  0  0  0  0  0  0  0
  -25.9270  -12.9579   -3.0403 N   0  0  0  0  0  0  0  0  0  0  0  0
  -24.6843  -12.6115   -3.4413 C   0  0  0  0  0  0  0  0  0  0  0  0
  -24.2660  -12.8824   -4.7019 N   0  0  0  0  0  0  0  0  0  0  0  0
  -35.9846  -10.9814   -7.4819 O   0  5  0  0  0  0  0  0  0  0  0  0
  -34.0072   -9.9717  -11.5623 O   0  0  0  0  0  0  0  0  0  0  0  0
  -30.2988  -12.0177   -6.7820 S   0  0  0  0  0  0  0  0  0  0  0  0
  -28.6596  -12.5872   -6.8240 C   0  0  0  0  0  0  0  0  0  0  0  0
  -35.3150  -13.1139   -8.7485 O   0  0  0  0  0  0  0  0  0  0  0  0
  -36.1788  -10.3983  -10.5357 O   0  5  0  0  0  0  0  0  0  0  0  0
  -28.5675  -13.8235   -6.2603 N   0  0  0  0  0  0  0  0  0  0  0  0
  -34.1426  -10.8597   -9.2175 O   0  0  0  0  0  0  0  0  0  0  0  0
  -34.8216   -8.4986   -9.6521 O   0  0  0  0  0  0  0  0  0  0  0  0
  -29.7321  -14.3506   -5.7918 C   0  0  1  0  0  0  0  0  0  0  0  0
  -30.8883  -13.4417   -6.0193 C   0  0  1  0  0  0  0  0  0  0  0  0
  -32.3612  -13.5078   -5.7143 C   0  0  0  0  0  0  0  0  0  0  0  0
  -33.1348  -13.3939   -7.0185 C   0  0  0  0  0  0  0  0  0  0  0  0
  -33.7871  -12.1301   -7.0386 O   0  0  0  0  0  0  0  0  0  0  0  0
  1 11  1  0  0  0  0
  3 13  1  1  0  0  0
  3 17  2  0  0  0  0
  3 20  1  0  0  0  0
  3 26  1  0  0  0  0
  4 14  1  6  0  0  0
  4 18  1  0  0  0  0
  4 21  2  0  0  0  0
  4 20  1  0  0  0  0
  5 19  1  0  0  0  0
  5  7  1  0  0  0  0
  6  7  2  0  0  0  0
  6 12  1  0  0  0  0
  7  8  1  0  0  0  0
  8  9  1  0  0  0  0
  8 10  2  0  0  0  0
 10 11  1  0  0  0  0
 11 12  2  0  0  0  0
 15 23  1  0  0  0  0
 15 16  1  0  0  0  0
 16 19  1  0  0  0  0
 19 22  1  0  0  0  0
 22  2  1  6  0  0  0
 22 23  1  0  0  0  0
 23 24  1  1  0  0  0
 24 25  1  0  0  0  0
 25 26  1  0  0  0  0
M  CHG  2  13  -1  18  -1
M  END
>  <CHROM.1>
-45.55121897,68.11717219,-125.35337965,-140.60226277,60.32252790,-109.92886601
-168.36399564,142.40016592,-30.96175849,-12.30539022,-6.88933776,-0.50670902
-0.27359228,-0.64607738

>  <Name>
ligand

>  <RI>
0

>  <Rbt.Current_Directory>
/home/itssahil/PROJECTS/Mol_Feturizer/New_Systems/rnas/2GDI

>  <Rbt.Executable>
rbdock ($Id: //depot/dev/client3/rdock/2013.1/src/exe/rbdock.cxx#4 $)

>  <Rbt.Library>
libRbt.so (2013.1, Build901 2013/11/27)

>  <Rbt.Parameter_File>
/export/apps/rDock/src/rDock_2013.1_src/data/scripts/dock_solv.prm

>  <Rbt.Receptor>
prm/blind_docking_100.prm

>  <SCORE>
-8.098

>  <SCORE.INTER>
-14.754

>  <SCORE.INTER.CONST>
1

>  <SCORE.INTER.POLAR>
0

>  <SCORE.INTER.ROT>
8

>  <SCORE.INTER.SOLV>
19.6281

>  <SCORE.INTER.VDW>
-25.312

>  <SCORE.INTER.norm>
-0.567462

>  <SCORE.INTRA>
6.65601

>  <SCORE.INTRA.DIHEDRAL>
6.90754

>  <SCORE.INTRA.DIHEDRAL.0>
8.13976

>  <SCORE.INTRA.POLAR>
0

>  <SCORE.INTRA.POLAR.0>
0

>  <SCORE.INTRA.REPUL>
0

>  <SCORE.INTRA.REPUL.0>
0

>  <SCORE.INTRA.SOLV>
5.50889

>  <SCORE.INTRA.SOLV.lig_0>
-82.9561

>  <SCORE.INTRA.VDW>
0.447794

>  <SCORE.INTRA.VDW.0>
-3.29171

>  <SCORE.INTRA.norm>
0.256

>  <SCORE.RESTR>
0

>  <SCORE.RESTR.CAVITY>
0

>  <SCORE.RESTR.norm>
0

>  <SCORE.SYSTEM>
0

>  <SCORE.SYSTEM.CONST>
0

>  <SCORE.SYSTEM.DIHEDRAL>
0

>  <SCORE.SYSTEM.SOLV>
0

>  <SCORE.SYSTEM.norm>
0

>  <SCORE.heavy>
26

>  <SCORE.norm>
-0.311461

>  <RMSD>
14.495

$$$$
ligand
 OpenBabel11021811433D
libRbt.so/2013.1/901 2013/11/27
 26 27  0  0  0  0  0  0  0  0999 V2000
  -26.2364  -13.3132    0.0510 C   0  0  0  0  0  0  0  0  0  0  0  0
  -29.0120  -12.6010   -7.6223 C   0  0  0  0  0  0  0  0  0  0  0  0
  -34.6959  -10.9179   -7.6437 P   0  0  1  0  0  0  0  0  0  0  0  0
  -34.6261  -11.0659  -10.5475 P   0  0  1  0  0  0  0  0  0  0  0  0
  -27.3563  -13.9464   -5.5507 C   0  0  0  0  0  0  0  0  0  0  0  0
  -28.0837  -13.8098   -3.1336 C   0  0  0  0  0  0  0  0  0  0  0  0
  -27.0596  -13.7686   -4.0712 C   0  0  0  0  0  0  0  0  0  0  0  0
  -25.7609  -13.5756   -3.6295 C   0  0  0  0  0  0  0  0  0  0  0  0
  -24.7292  -13.5270   -4.5068 N   0  0  0  0  0  0  0  0  0  0  0  0
  -25.5193  -13.4337   -2.3081 N   0  0  0  0  0  0  0  0  0  0  0  0
  -26.5324  -13.4758   -1.4154 C   0  0  0  0  0  0  0  0  0  0  0  0
  -27.8094  -13.6627   -1.8299 N   0  0  0  0  0  0  0  0  0  0  0  0
  -33.9344  -10.0469   -6.6793 O   0  5  0  0  0  0  0  0  0  0  0  0
  -33.6741  -12.2201  -10.4774 O   0  0  0  0  0  0  0  0  0  0  0  0
  -31.0439  -15.4256   -5.5320 S   0  0  0  0  0  0  0  0  0  0  0  0
  -29.3917  -15.2605   -5.0261 C   0  0  0  0  0  0  0  0  0  0  0  0
  -36.1313  -11.2155   -7.3182 O   0  0  0  0  0  0  0  0  0  0  0  0
  -36.0248  -11.5821  -10.6147 O   0  5  0  0  0  0  0  0  0  0  0  0
  -28.7601  -14.3019   -5.7588 N   0  0  0  0  0  0  0  0  0  0  0  0
  -34.5384  -10.2869   -9.1282 O   0  0  0  0  0  0  0  0  0  0  0  0
  -34.3340  -10.0333  -11.6018 O   0  0  0  0  0  0  0  0  0  0  0  0
  -29.5168  -13.6851   -6.7077 C   0  0  1  0  0  0  0  0  0  0  0  0
  -30.9144  -14.1958   -6.7269 C   0  0  1  0  0  0  0  0  0  0  0  0
  -32.1417  -13.8875   -7.5427 C   0  0  0  0  0  0  0  0  0  0  0  0
  -32.6575  -12.5128   -7.1471 C   0  0  0  0  0  0  0  0  0  0  0  0
  -33.9401  -12.3337   -7.7353 O   0  0  0  0  0  0  0  0  0  0  0  0
  1 11  1  0  0  0  0
  3 13  1  1  0  0  0
  3 17  2  0  0  0  0
  3 20  1  0  0  0  0
  3 26  1  0  0  0  0
  4 14  1  6  0  0  0
  4 18  1  0  0  0  0
  4 21  2  0  0  0  0
  4 20  1  0  0  0  0
  5 19  1  0  0  0  0
  5  7  1  0  0  0  0
  6  7  2  0  0  0  0
  6 12  1  0  0  0  0
  7  8  1  0  0  0  0
  8  9  1  0  0  0  0
  8 10  2  0  0  0  0
 10 11  1  0  0  0  0
 11 12  2  0  0  0  0
 15 23  1  0  0  0  0
 15 16  1  0  0  0  0
 16 19  1  0  0  0  0
 19 22  1  0  0  0  0
 22  2  1  1  0  0  0
 22 23  1  0  0  0  0
 23 24  1  6  0  0  0
 24 25  1  0  0  0  0
 25 26  1  0  0  0  0
M  CHG  2  13  -1  18  -1
M  END
>  <CHROM.1>
153.73122728,-46.48823949,-6.52563951,-52.53557003,110.35373819,-169.50535892
-173.32404607,-9.91047344,-31.11071435,-12.71492800,-6.51753658,0.61702604
-0.39507386,1.47623796

>  <Name>
ligand

>  <RI>
0

>  <Rbt.Current_Directory>
/home/itssahil/PROJECTS/Mol_Feturizer/New_Systems/rnas/2GDI

>  <Rbt.Executable>
rbdock ($Id: //depot/dev/client3/rdock/2013.1/src/exe/rbdock.cxx#4 $)

>  <Rbt.Library>
libRbt.so (2013.1, Build901 2013/11/27)

>  <Rbt.Parameter_File>
/export/apps/rDock/src/rDock_2013.1_src/data/scripts/dock_solv.prm

>  <Rbt.Receptor>
prm/blind_docking_100.prm

>  <SCORE>
-12.106

>  <SCORE.INTER>
-12.9023

>  <SCORE.INTER.CONST>
1

>  <SCORE.INTER.POLAR>
0

>  <SCORE.INTER.ROT>
8

>  <SCORE.INTER.SOLV>
21.3354

>  <SCORE.INTER.VDW>
-24.6467

>  <SCORE.INTER.norm>
-0.496243

>  <SCORE.INTRA>
0.794446

>  <SCORE.INTRA.DIHEDRAL>
-0.0750589

>  <SCORE.INTRA.DIHEDRAL.0>
8.13976

>  <SCORE.INTRA.POLAR>
0

>  <SCORE.INTRA.POLAR.0>
0

>  <SCORE.INTRA.REPUL>
0

>  <SCORE.INTRA.REPUL.0>
0

>  <SCORE.INTRA.SOLV>
-0.751554

>  <SCORE.INTRA.SOLV.lig_0>
-82.9561

>  <SCORE.INTRA.VDW>
1.20775

>  <SCORE.INTRA.VDW.0>
-3.29171

>  <SCORE.INTRA.norm>
0.0305556

>  <SCORE.RESTR>
0.00183263

>  <SCORE.RESTR.CAVITY>
0.00183263

>  <SCORE.RESTR.norm>
7.04857e-05

>  <SCORE.SYSTEM>
0

>  <SCORE.SYSTEM.CONST>
0

>  <SCORE.SYSTEM.DIHEDRAL>
0

>  <SCORE.SYSTEM.SOLV>
0

>  <SCORE.SYSTEM.norm>
0

>  <SCORE.heavy>
26

>  <SCORE.norm>
-0.465617

>  <RMSD>
14.514

$$$$
ligand
 OpenBabel11021811433D
libRbt.so/2013.1/901 2013/11/27
 26 27  0  0  0  0  0  0  0  0999 V2000
  -24.0346  -12.0583   -2.4935 C   0  0  0  0  0  0  0  0  0  0  0  0
  -30.9209  -14.2359   -5.4765 C   0  0  0  0  0  0  0  0  0  0  0  0
  -34.9306  -11.5052   -6.8899 P   0  0  1  0  0  0  0  0  0  0  0  0
  -35.6129  -10.2991   -9.4469 P   0  0  1  0  0  0  0  0  0  0  0  0
  -27.9891  -14.6359   -5.7725 C   0  0  0  0  0  0  0  0  0  0  0  0
  -25.7026  -13.6154   -5.4250 C   0  0  0  0  0  0  0  0  0  0  0  0
  -26.9412  -13.9638   -4.9014 C   0  0  0  0  0  0  0  0  0  0  0  0
  -27.2070  -13.6742   -3.5731 C   0  0  0  0  0  0  0  0  0  0  0  0
  -28.4004  -13.9960   -3.0178 N   0  0  0  0  0  0  0  0  0  0  0  0
  -26.2652  -13.0637   -2.8215 N   0  0  0  0  0  0  0  0  0  0  0  0
  -25.0671  -12.7361   -3.3530 C   0  0  0  0  0  0  0  0  0  0  0  0
  -24.7895  -13.0130   -4.6505 N   0  0  0  0  0  0  0  0  0  0  0  0
  -36.1455  -10.8578   -6.2790 O   0  5  0  0  0  0  0  0  0  0  0  0
  -34.7237   -9.1287   -9.1587 O   0  0  0  0  0  0  0  0  0  0  0  0
  -29.2432  -11.7984   -8.2550 S   0  0  0  0  0  0  0  0  0  0  0  0
  -28.0952  -12.8530   -7.4914 C   0  0  0  0  0  0  0  0  0  0  0  0
  -34.5331  -12.8559   -6.3678 O   0  0  0  0  0  0  0  0  0  0  0  0
  -35.3688  -10.7741  -10.8404 O   0  5  0  0  0  0  0  0  0  0  0  0
  -28.7114  -13.6459   -6.5715 N   0  0  0  0  0  0  0  0  0  0  0  0
  -35.1199  -11.5190   -8.4995 O   0  0  0  0  0  0  0  0  0  0  0  0
  -37.0739  -10.1076   -9.1433 O   0  0  0  0  0  0  0  0  0  0  0  0
  -30.0537  -13.4639   -6.4348 C   0  0  1  0  0  0  0  0  0  0  0  0
  -30.5730  -12.4196   -7.3591 C   0  0  1  0  0  0  0  0  0  0  0  0
  -31.9303  -11.8260   -7.6281 C   0  0  0  0  0  0  0  0  0  0  0  0
  -32.3808  -11.0600   -6.3942 C   0  0  0  0  0  0  0  0  0  0  0  0
  -33.6757  -10.5297   -6.6492 O   0  0  0  0  0  0  0  0  0  0  0  0
  1 11  1  0  0  0  0
  3 13  1  1  0  0  0
  3 17  2  0  0  0  0
  3 20  1  0  0  0  0
  3 26  1  0  0  0  0
  4 14  1  1  0  0  0
  4 18  1  0  0  0  0
  4 21  2  0  0  0  0
  4 20  1  0  0  0  0
  5 19  1  0  0  0  0
  5  7  1  0  0  0  0
  6  7  2  0  0  0  0
  6 12  1  0  0  0  0
  7  8  1  0  0  0  0
  8  9  1  0  0  0  0
  8 10  2  0  0  0  0
 10 11  1  0  0  0  0
 11 12  2  0  0  0  0
 15 23  1  0  0  0  0
 15 16  1  0  0  0  0
 16 19  1  0  0  0  0
 19 22  1  0  0  0  0
 22  2  1  6  0  0  0
 22 23  1  0  0  0  0
 23 24  1  1  0  0  0
 24 25  1  0  0  0  0
 25 26  1  0  0  0  0
M  CHG  2  13  -1  18  -1
M  END
>  <CHROM.1>
46.12658024,61.67869498,-81.71125855,53.86038646,-112.52926159,-178.70860641
64.19746105,144.35327095,-31.15411178,-12.08282291,-6.64897397,0.47766641
-0.13507777,1.86479696

>  <Name>
ligand

>  <RI>
0

>  <Rbt.Current_Directory>
/home/itssahil/PROJECTS/Mol_Feturizer/New_Systems/rnas/2GDI

>  <Rbt.Executable>
rbdock ($Id: //depot/dev/client3/rdock/2013.1/src/exe/rbdock.cxx#4 $)

>  <Rbt.Library>
libRbt.so (2013.1, Build901 2013/11/27)

>  <Rbt.Parameter_File>
/export/apps/rDock/src/rDock_2013.1_src/data/scripts/dock_solv.prm

>  <Rbt.Receptor>
prm/blind_docking_100.prm

>  <SCORE>
-14.6974

>  <SCORE.INTER>
-15.4311

>  <SCORE.INTER.CONST>
1

>  <SCORE.INTER.POLAR>
0

>  <SCORE.INTER.ROT>
8

>  <SCORE.INTER.SOLV>
25.6422

>  <SCORE.INTER.VDW>
-27.7681

>  <SCORE.INTER.norm>
-0.593505

>  <SCORE.INTRA>
0.712663

>  <SCORE.INTRA.DIHEDRAL>
-1.46246

>  <SCORE.INTRA.DIHEDRAL.0>
8.13976

>  <SCORE.INTRA.POLAR>
0

>  <SCORE.INTRA.POLAR.0>
0

>  <SCORE.INTRA.REPUL>
0

>  <SCORE.INTRA.REPUL.0>
0

>  <SCORE.INTRA.SOLV>
2.68059

>  <SCORE.INTRA.SOLV.lig_0>
-82.9561

>  <SCORE.INTRA.VDW>
0.103593

>  <SCORE.INTRA.VDW.0>
-3.29171

>  <SCORE.INTRA.norm>
0.0274101

>  <SCORE.RESTR>
0.0210466

>  <SCORE.RESTR.CAVITY>
0.0210466

>  <SCORE.RESTR.norm>
0.000809485

>  <SCORE.SYSTEM>
0

>  <SCORE.SYSTEM.CONST>
0

>  <SCORE.SYSTEM.DIHEDRAL>
0

>  <SCORE.SYSTEM.SOLV>
0

>  <SCORE.SYSTEM.norm>
0

>  <SCORE.heavy>
26

>  <SCORE.norm>
-0.565285

>  <RMSD>
14.517

$$$$
ligand
 OpenBabel11021811433D
libRbt.so/2013.1/901 2013/11/27
 26 27  0  0  0  0  0  0  0  0999 V2000
  -25.5570  -13.0030   -0.5079 C   0  0  0  0  0  0  0  0  0  0  0  0
  -29.8551  -12.4141   -5.9094 C   0  0  0  0  0  0  0  0  0  0  0  0
  -34.8895  -11.5563   -7.7376 P   0  0  1  0  0  0  0  0  0  0  0  0
  -35.4625  -12.6121  -10.3863 P   0  0  1  0  0  0  0  0  0  0  0  0
  -27.6510  -14.3967   -5.6756 C   0  0  0  0  0  0  0  0  0  0  0  0
  -27.9186  -14.0140   -3.1913 C   0  0  0  0  0  0  0  0  0  0  0  0
  -27.0980  -14.0181   -4.3121 C   0  0  0  0  0  0  0  0  0  0  0  0
  -25.7625  -13.6832   -4.1597 C   0  0  0  0  0  0  0  0  0  0  0  0
  -24.9238  -13.6720   -5.2240 N   0  0  0  0  0  0  0  0  0  0  0  0
  -25.2899  -13.3634   -2.9354 N   0  0  0  0  0  0  0  0  0  0  0  0
  -26.1082  -13.3649   -1.8604 C   0  0  0  0  0  0  0  0  0  0  0  0
  -27.4179  -13.6890   -1.9913 N   0  0  0  0  0  0  0  0  0  0  0  0
  -33.9083  -10.5898   -8.3472 O   0  5  0  0  0  0  0  0  0  0  0  0
  -34.1648  -12.3002  -11.0663 O   0  0  0  0  0  0  0  0  0  0  0  0
  -31.1682  -16.2057   -5.2958 S   0  0  0  0  0  0  0  0  0  0  0  0
  -29.4379  -16.0868   -5.3665 C   0  0  0  0  0  0  0  0  0  0  0  0
  -36.1779  -10.9915   -7.2125 O   0  0  0  0  0  0  0  0  0  0  0  0
  -35.9268  -13.9672  -10.8050 O   0  5  0  0  0  0  0  0  0  0  0  0
  -29.0546  -14.7963   -5.5731 N   0  0  0  0  0  0  0  0  0  0  0  0
  -35.1505  -12.7510   -8.8013 O   0  0  0  0  0  0  0  0  0  0  0  0
  -36.5366  -11.5653  -10.5035 O   0  0  0  0  0  0  0  0  0  0  0  0
  -30.0626  -13.8876   -5.6804 C   0  0  1  0  0  0  0  0  0  0  0  0
  -31.4019  -14.5178   -5.5274 C   0  0  1  0  0  0  0  0  0  0  0  0
  -32.8191  -14.0101   -5.5570 C   0  0  0  0  0  0  0  0  0  0  0  0
  -32.9519  -13.0008   -6.6866 C   0  0  0  0  0  0  0  0  0  0  0  0
  -34.1652  -12.2825   -6.4997 O   0  0  0  0  0  0  0  0  0  0  0  0
  1 11  1  0  0  0  0
  3 13  1  6  0  0  0
  3 17  2  0  0  0  0
  3 20  1  0  0  0  0
  3 26  1  0  0  0  0
  4 14  1  6  0  0  0
  4 18  1  0  0  0  0
  4 21  2  0  0  0  0
  4 20  1  0  0  0  0
  5 19  1  0  0  0  0
  5  7  1  0  0  0  0
  6  7  2  0  0  0  0
  6 12  1  0  0  0  0
  7  8  1  0  0  0  0
  8  9  1  0  0  0  0
  8 10  2  0  0  0  0
 10 11  1  0  0  0  0
 11 12  2  0  0  0  0
 15 23  1  0  0  0  0
 15 16  1  0  0  0  0
 16 19  1  0  0  0  0
 19 22  1  0  0  0  0
 22  2  1  1  0  0  0
 22 23  1  0  0  0  0
 23 24  1  6  0  0  0
 24 25  1  0  0  0  0
 25 26  1  0  0  0  0
M  CHG  2  13  -1  18  -1
M  END
>  <CHROM.1>
-46.79809881,-90.82096586,-3.20824282,76.66020941,-137.08423119,-165.32945131
-157.01282858,-57.24739066,-31.38777115,-13.28327828,-6.38951820,0.15112428
-0.61145089,0.53570271

>  <Name>
ligand

>  <RI>
0

>  <Rbt.Current_Directory>
/home/itssahil/PROJECTS/Mol_Feturizer/New_Systems/rnas/2GDI

>  <Rbt.Executable>
rbdock ($Id: //depot/dev/client3/rdock/2013.1/src/exe/rbdock.cxx#4 $)

>  <Rbt.Library>
libRbt.so (2013.1, Build901 2013/11/27)

>  <Rbt.Parameter_File>
/export/apps/rDock/src/rDock_2013.1_src/data/scripts/dock_solv.prm

>  <Rbt.Receptor>
prm/blind_docking_100.prm

>  <SCORE>
-13.9935

>  <SCORE.INTER>
-14.7654

>  <SCORE.INTER.CONST>
1

>  <SCORE.INTER.POLAR>
0

>  <SCORE.INTER.ROT>
8

>  <SCORE.INTER.SOLV>
16.5171

>  <SCORE.INTER.VDW>
-24.2826

>  <SCORE.INTER.norm>
-0.5679

>  <SCORE.INTRA>
0.769831

>  <SCORE.INTRA.DIHEDRAL>
0.545731

>  <SCORE.INTRA.DIHEDRAL.0>
8.13976

>  <SCORE.INTRA.POLAR>
0

>  <SCORE.INTRA.POLAR.0>
0

>  <SCORE.INTRA.REPUL>
0

>  <SCORE.INTRA.REPUL.0>
0

>  <SCORE.INTRA.SOLV>
0.204985

>  <SCORE.INTRA.SOLV.lig_0>
-82.9561

>  <SCORE.INTRA.VDW>
0.394473

>  <SCORE.INTRA.VDW.0>
-3.29171

>  <SCORE.INTRA.norm>
0.0296089

>  <SCORE.RESTR>
0.0020541

>  <SCORE.RESTR.CAVITY>
0.0020541

>  <SCORE.RESTR.norm>
7.9004e-05

>  <SCORE.SYSTEM>
0

>  <SCORE.SYSTEM.CONST>
0

>  <SCORE.SYSTEM.DIHEDRAL>
0

>  <SCORE.SYSTEM.SOLV>
0

>  <SCORE.SYSTEM.norm>
0

>  <SCORE.heavy>
26

>  <SCORE.norm>
-0.538212

>  <RMSD>
14.555

$$$$
ligand
 OpenBabel11021811433D
libRbt.so/2013.1/901 2013/11/27
 26 27  0  0  0  0  0  0  0  0999 V2000
  -22.9968  -14.9631   -4.9842 C   0  0  0  0  0  0  0  0  0  0  0  0
  -29.6505  -12.3286   -6.3445 C   0  0  0  0  0  0  0  0  0  0  0  0
  -34.1633  -12.2151   -9.4869 P   0  0  1  0  0  0  0  0  0  0  0  0
  -36.0347  -10.8665   -7.7154 P   0  0  1  0  0  0  0  0  0  0  0  0
  -28.4583  -13.5364   -3.9026 C   0  0  0  0  0  0  0  0  0  0  0  0
  -26.1283  -14.1667   -3.1514 C   0  0  0  0  0  0  0  0  0  0  0  0
  -27.0122  -13.9034   -4.1902 C   0  0  0  0  0  0  0  0  0  0  0  0
  -26.5526  -13.9952   -5.4937 C   0  0  0  0  0  0  0  0  0  0  0  0
  -27.3774  -13.7463   -6.5398 N   0  0  0  0  0  0  0  0  0  0  0  0
  -25.2665  -14.3366   -5.7257 N   0  0  0  0  0  0  0  0  0  0  0  0
  -24.4253  -14.5864   -4.6985 C   0  0  0  0  0  0  0  0  0  0  0  0
  -24.8576  -14.5002   -3.4167 N   0  0  0  0  0  0  0  0  0  0  0  0
  -35.0277  -13.2049  -10.2229 O   0  5  0  0  0  0  0  0  0  0  0  0
  -36.1900  -10.8310   -6.2261 O   0  0  0  0  0  0  0  0  0  0  0  0
  -30.8066  -16.1705   -5.7285 S   0  0  0  0  0  0  0  0  0  0  0  0
  -29.7200  -15.5820   -4.5094 C   0  0  0  0  0  0  0  0  0  0  0  0
  -33.8078  -10.9440  -10.2030 O   0  0  0  0  0  0  0  0  0  0  0  0
  -35.5219   -9.5480   -8.1906 O   0  5  0  0  0  0  0  0  0  0  0  0
  -29.3663  -14.2920   -4.7655 N   0  0  0  0  0  0  0  0  0  0  0  0
  -34.8466  -11.9187   -8.0474 O   0  0  0  0  0  0  0  0  0  0  0  0
  -37.2326  -11.3409   -8.4921 O   0  0  0  0  0  0  0  0  0  0  0  0
  -29.9113  -13.7378   -5.8832 C   0  0  1  0  0  0  0  0  0  0  0  0
  -30.8141  -14.6841   -6.5931 C   0  0  1  0  0  0  0  0  0  0  0  0
  -31.6530  -14.6103   -7.8411 C   0  0  0  0  0  0  0  0  0  0  0  0
  -32.4965  -13.3462   -7.7876 C   0  0  0  0  0  0  0  0  0  0  0  0
  -32.7771  -12.9430   -9.1225 O   0  0  0  0  0  0  0  0  0  0  0  0
  1 11  1  0  0  0  0
  3 13  1  6  0  0  0
  3 17  2  0  0  0  0
  3 20  1  0  0  0  0
  3 26  1  0  0  0  0
  4 14  1  1  0  0  0
  4 18  1  0  0  0  0
  4 21  2  0  0  0  0
  4 20  1  0  0  0  0
  5 19  1  0  0  0  0
  5  7  1  0  0  0  0
  6  7  2  0  0  0  0
  6 12  1  0  0  0  0
  7  8  1  0  0  0  0
  8  9  1  0  0  0  0
  8 10  2  0  0  0  0
 10 11  1  0  0  0  0
 11 12  2  0  0  0  0
 15 23  1  0  0  0  0
 15 16  1  0  0  0  0
 16 19  1  0  0  0  0
 19 22  1  0  0  0  0
 22  2  1  1  0  0  0
 22 23  1  0  0  0  0
 23 24  1  6  0  0  0
 24 25  1  0  0  0  0
 25 26  1  0  0  0  0
M  CHG  2  13  -1  18  -1
M  END
>  <CHROM.1>
-83.57090893,79.96637182,-133.86755417,-172.69775291,131.36335593,152.97833031
147.31386362,-106.18918205,-31.11144417,-13.20463084,-6.76576121,-0.34613157
0.35472289,-1.66742648

>  <Name>
ligand

>  <RI>
0

>  <Rbt.Current_Directory>
/home/itssahil/PROJECTS/Mol_Feturizer/New_Systems/rnas/2GDI

>  <Rbt.Executable>
rbdock ($Id: //depot/dev/client3/rdock/2013.1/src/exe/rbdock.cxx#4 $)

>  <Rbt.Library>
libRbt.so (2013.1, Build901 2013/11/27)

>  <Rbt.Parameter_File>
/export/apps/rDock/src/rDock_2013.1_src/data/scripts/dock_solv.prm

>  <Rbt.Receptor>
prm/blind_docking_40.prm

>  <SCORE>
-1.72739

>  <SCORE.INTER>
-11.3737

>  <SCORE.INTER.CONST>
1

>  <SCORE.INTER.POLAR>
0

>  <SCORE.INTER.ROT>
8

>  <SCORE.INTER.SOLV>
18.1093

>  <SCORE.INTER.VDW>
-22.5522

>  <SCORE.INTER.norm>
-0.437448

>  <SCORE.INTRA>
8.87954

>  <SCORE.INTRA.DIHEDRAL>
5.68643

>  <SCORE.INTRA.DIHEDRAL.0>
8.13976

>  <SCORE.INTRA.POLAR>
0

>  <SCORE.INTRA.POLAR.0>
0

>  <SCORE.INTRA.REPUL>
0

>  <SCORE.INTRA.REPUL.0>
0

>  <SCORE.INTRA.SOLV>
6.6719

>  <SCORE.INTRA.SOLV.lig_0>
-82.9561

>  <SCORE.INTRA.VDW>
2.70038

>  <SCORE.INTRA.VDW.0>
-3.29171

>  <SCORE.INTRA.norm>
0.341521

>  <SCORE.RESTR>
0.766717

>  <SCORE.RESTR.CAVITY>
0.766717

>  <SCORE.RESTR.norm>
0.0294891

>  <SCORE.SYSTEM>
0

>  <SCORE.SYSTEM.CONST>
0

>  <SCORE.SYSTEM.DIHEDRAL>
0

>  <SCORE.SYSTEM.SOLV>
0

>  <SCORE.SYSTEM.norm>
0

>  <SCORE.heavy>
26

>  <SCORE.norm>
-0.0664381

>  <RMSD>
14.562

$$$$
ligand
 OpenBabel11021811433D
libRbt.so/2013.1/901 2013/11/27
 26 27  0  0  0  0  0  0  0  0999 V2000
  -23.5373  -14.5202   -6.9029 C   0  0  0  0  0  0  0  0  0  0  0  0
  -31.0683  -15.4180   -5.4440 C   0  0  0  0  0  0  0  0  0  0  0  0
  -34.8350  -10.6813   -7.6016 P   0  0  1  0  0  0  0  0  0  0  0  0
  -35.1582  -12.2655  -10.0192 P   0  0  1  0  0  0  0  0  0  0  0  0
  -28.7033  -13.9081   -4.4591 C   0  0  0  0  0  0  0  0  0  0  0  0
  -27.2222  -14.3909   -6.4500 C   0  0  0  0  0  0  0  0  0  0  0  0
  -27.3369  -14.0797   -5.1011 C   0  0  0  0  0  0  0  0  0  0  0  0
  -26.1808  -13.9154   -4.3559 C   0  0  0  0  0  0  0  0  0  0  0  0
  -26.2424  -13.6125   -3.0365 N   0  0  0  0  0  0  0  0  0  0  0  0
  -24.9767  -14.0591   -4.9511 N   0  0  0  0  0  0  0  0  0  0  0  0
  -24.8909  -14.3638   -6.2645 C   0  0  0  0  0  0  0  0  0  0  0  0
  -26.0117  -14.5292   -7.0086 N   0  0  0  0  0  0  0  0  0  0  0  0
  -34.3758   -9.2594   -7.4127 O   0  5  0  0  0  0  0  0  0  0  0  0
  -35.3975  -13.4653   -9.1550 O   0  0  0  0  0  0  0  0  0  0  0  0
  -30.8031  -11.6720   -6.9845 S   0  0  0  0  0  0  0  0  0  0  0  0
  -29.5108  -12.0517   -5.8896 C   0  0  0  0  0  0  0  0  0  0  0  0
  -36.2739  -10.9870   -7.3003 O   0  0  0  0  0  0  0  0  0  0  0  0
  -36.4681  -11.6539  -10.3898 O   0  5  0  0  0  0  0  0  0  0  0  0
  -29.6498  -13.3168   -5.4049 N   0  0  0  0  0  0  0  0  0  0  0  0
  -34.4250  -11.1510   -9.0977 O   0  0  0  0  0  0  0  0  0  0  0  0
  -34.2565  -12.4762  -11.2048 O   0  0  0  0  0  0  0  0  0  0  0  0
  -30.7322  -14.0092   -5.8548 C   0  0  1  0  0  0  0  0  0  0  0  0
  -31.5418  -13.2160   -6.8190 C   0  0  1  0  0  0  0  0  0  0  0  0
  -32.8017  -13.4712   -7.6030 C   0  0  0  0  0  0  0  0  0  0  0  0
  -33.9937  -13.0349   -6.7658 C   0  0  0  0  0  0  0  0  0  0  0  0
  -33.9525  -11.6188   -6.6389 O   0  0  0  0  0  0  0  0  0  0  0  0
  1 11  1  0  0  0  0
  3 13  1  1  0  0  0
  3 17  2  0  0  0  0
  3 20  1  0  0  0  0
  3 26  1  0  0  0  0
  4 14  1  1  0  0  0
  4 18  1  0  0  0  0
  4 21  2  0  0  0  0
  4 20  1  0  0  0  0
  5 19  1  0  0  0  0
  5  7  1  0  0  0  0
  6  7  2  0  0  0  0
  6 12  1  0  0  0  0
  7  8  1  0  0  0  0
  8  9  1  0  0  0  0
  8 10  2  0  0  0  0
 10 11  1  0  0  0  0
 11 12  2  0  0  0  0
 15 23  1  0  0  0  0
 15 16  1  0  0  0  0
 16 19  1  0  0  0  0
 19 22  1  0  0  0  0
 22  2  1  6  0  0  0
 22 23  1  0  0  0  0
 23 24  1  1  0  0  0
 24 25  1  0  0  0  0
 25 26  1  0  0  0  0
M  CHG  2  13  -1  18  -1
M  END
>  <CHROM.1>
-152.45337343,-65.34106850,-34.31440036,-46.58976724,-88.92092757,67.83409828
97.62774742,-168.94197297,-31.33593969,-12.72584599,-7.10951309,-0.25979690
0.36327412,-1.87052804

>  <Name>
ligand

>  <RI>
0

>  <Rbt.Current_Directory>
/home/itssahil/PROJECTS/Mol_Feturizer/New_Systems/rnas/2GDI

>  <Rbt.Executable>
rbdock ($Id: //depot/dev/client3/rdock/2013.1/src/exe/rbdock.cxx#4 $)

>  <Rbt.Library>
libRbt.so (2013.1, Build901 2013/11/27)

>  <Rbt.Parameter_File>
/export/apps/rDock/src/rDock_2013.1_src/data/scripts/dock_solv.prm

>  <Rbt.Receptor>
prm/blind_docking_40.prm

>  <SCORE>
-11.2075

>  <SCORE.INTER>
-12.7892

>  <SCORE.INTER.CONST>
1

>  <SCORE.INTER.POLAR>
0

>  <SCORE.INTER.ROT>
8

>  <SCORE.INTER.SOLV>
22.4111

>  <SCORE.INTER.VDW>
-24.9299

>  <SCORE.INTER.norm>
-0.491894

>  <SCORE.INTRA>
1.56325

>  <SCORE.INTRA.DIHEDRAL>
3.57167

>  <SCORE.INTRA.DIHEDRAL.0>
8.13976

>  <SCORE.INTRA.POLAR>
0

>  <SCORE.INTRA.POLAR.0>
0

>  <SCORE.INTRA.REPUL>
0

>  <SCORE.INTRA.REPUL.0>
0

>  <SCORE.INTRA.SOLV>
0.976356

>  <SCORE.INTRA.SOLV.lig_0>
-82.9561

>  <SCORE.INTRA.VDW>
-0.71076

>  <SCORE.INTRA.VDW.0>
-3.29171

>  <SCORE.INTRA.norm>
0.0601251

>  <SCORE.RESTR>
0.0185074

>  <SCORE.RESTR.CAVITY>
0.0185074

>  <SCORE.RESTR.norm>
0.000711824

>  <SCORE.SYSTEM>
0

>  <SCORE.SYSTEM.CONST>
0

>  <SCORE.SYSTEM.DIHEDRAL>
0

>  <SCORE.SYSTEM.SOLV>
0

>  <SCORE.SYSTEM.norm>
0

>  <SCORE.heavy>
26

>  <SCORE.norm>
-0.431057

>  <RMSD>
14.829

$$$$
ligand
 OpenBabel11021811433D
libRbt.so/2013.1/901 2013/11/27
 26 27  0  0  0  0  0  0  0  0999 V2000
  -24.4768  -12.5524   -2.7045 C   0  0  0  0  0  0  0  0  0  0  0  0
  -29.2335  -14.5318   -7.9639 C   0  0  0  0  0  0  0  0  0  0  0  0
  -35.1108  -11.9294   -8.5047 P   0  0  1  0  0  0  0  0  0  0  0  0
  -34.9874   -9.5722  -10.2040 P   0  0  1  0  0  0  0  0  0  0  0  0
  -28.6662  -15.5662   -5.2342 C   0  0  0  0  0  0  0  0  0  0  0  0
  -27.7808  -14.1188   -3.3604 C   0  0  0  0  0  0  0  0  0  0  0  0
  -27.5606  -14.7615   -4.5721 C   0  0  0  0  0  0  0  0  0  0  0  0
  -26.3090  -14.6653   -5.1579 C   0  0  0  0  0  0  0  0  0  0  0  0
  -26.0472  -15.2741   -6.3399 N   0  0  0  0  0  0  0  0  0  0  0  0
  -25.3372  -13.9558   -4.5441 N   0  0  0  0  0  0  0  0  0  0  0  0
  -25.5762  -13.3380   -3.3666 C   0  0  0  0  0  0  0  0  0  0  0  0
  -26.7951  -13.4205   -2.7796 N   0  0  0  0  0  0  0  0  0  0  0  0
  -34.9560  -12.1509   -7.0230 O   0  5  0  0  0  0  0  0  0  0  0  0
  -33.9845  -10.0541  -11.2067 O   0  0  0  0  0  0  0  0  0  0  0  0
  -31.9711  -13.3608   -5.2052 S   0  0  0  0  0  0  0  0  0  0  0  0
  -30.7175  -14.3602   -4.5397 C   0  0  0  0  0  0  0  0  0  0  0  0
  -36.4241  -12.3102   -9.1252 O   0  0  0  0  0  0  0  0  0  0  0  0
  -36.3553   -9.9847  -10.6353 O   0  5  0  0  0  0  0  0  0  0  0  0
  -29.8296  -14.7223   -5.5069 N   0  0  0  0  0  0  0  0  0  0  0  0
  -34.7206  -10.3902   -8.8298 O   0  0  0  0  0  0  0  0  0  0  0  0
  -34.9059   -8.1154   -9.8375 O   0  0  0  0  0  0  0  0  0  0  0  0
  -30.0881  -14.2495   -6.7571 C   0  0  1  0  0  0  0  0  0  0  0  0
  -31.3106  -13.4018   -6.7924 C   0  0  1  0  0  0  0  0  0  0  0  0
  -32.0435  -12.6473   -7.8697 C   0  0  0  0  0  0  0  0  0  0  0  0
  -33.0564  -13.5799   -8.5152 C   0  0  0  0  0  0  0  0  0  0  0  0
  -33.9789  -12.7895   -9.2551 O   0  0  0  0  0  0  0  0  0  0  0  0
  1 11  1  0  0  0  0
  3 13  1  1  0  0  0
  3 17  2  0  0  0  0
  3 20  1  0  0  0  0
  3 26  1  0  0  0  0
  4 14  1  6  0  0  0
  4 18  1  0  0  0  0
  4 21  2  0  0  0  0
  4 20  1  0  0  0  0
  5 19  1  0  0  0  0
  5  7  1  0  0  0  0
  6  7  2  0  0  0  0
  6 12  1  0  0  0  0
  7  8  1  0  0  0  0
  8  9  1  0  0  0  0
  8 10  2  0  0  0  0
 10 11  1  0  0  0  0
 11 12  2  0  0  0  0
 15 23  1  0  0  0  0
 15 16  1  0  0  0  0
 16 19  1  0  0  0  0
 19 22  1  0  0  0  0
 22  2  1  1  0  0  0
 22 23  1  0  0  0  0
 23 24  1  6  0  0  0
 24 25  1  0  0  0  0
 25 26  1  0  0  0  0
M  CHG  2  13  -1  18  -1
M  END
>  <CHROM.1>
-167.26315369,-77.74934484,59.26705440,-75.49533355,-90.17890637,164.28560414
-74.60079014,0.02500050,-31.44282000,-12.65218464,-7.04835002,-0.57602170
-0.32163635,-0.53190213

>  <Name>
ligand

>  <RI>
0

>  <Rbt.Current_Directory>
/home/itssahil/PROJECTS/Mol_Feturizer/New_Systems/rnas/2GDI

>  <Rbt.Executable>
rbdock ($Id: //depot/dev/client3/rdock/2013.1/src/exe/rbdock.cxx#4 $)

>  <Rbt.Library>
libRbt.so (2013.1, Build901 2013/11/27)

>  <Rbt.Parameter_File>
/export/apps/rDock/src/rDock_2013.1_src/data/scripts/dock_solv.prm

>  <Rbt.Receptor>
prm/blind_docking_60.prm

>  <SCORE>
-7.51277

>  <SCORE.INTER>
-9.59687

>  <SCORE.INTER.CONST>
1

>  <SCORE.INTER.POLAR>
0

>  <SCORE.INTER.ROT>
8

>  <SCORE.INTER.SOLV>
14.6033

>  <SCORE.INTER.VDW>
-20.199

>  <SCORE.INTER.norm>
-0.369111

>  <SCORE.INTRA>
2.08411

>  <SCORE.INTRA.DIHEDRAL>
1.90799

>  <SCORE.INTRA.DIHEDRAL.0>
8.13976

>  <SCORE.INTRA.POLAR>
0

>  <SCORE.INTRA.POLAR.0>
0

>  <SCORE.INTRA.REPUL>
0

>  <SCORE.INTRA.REPUL.0>
0

>  <SCORE.INTRA.SOLV>
2.38763

>  <SCORE.INTRA.SOLV.lig_0>
-82.9561

>  <SCORE.INTRA.VDW>
-0.0637053

>  <SCORE.INTRA.VDW.0>
-3.29171

>  <SCORE.INTRA.norm>
0.080158

>  <SCORE.RESTR>
0

>  <SCORE.RESTR.CAVITY>
0

>  <SCORE.RESTR.norm>
0

>  <SCORE.SYSTEM>
0

>  <SCORE.SYSTEM.CONST>
0

>  <SCORE.SYSTEM.DIHEDRAL>
0

>  <SCORE.SYSTEM.SOLV>
0

>  <SCORE.SYSTEM.norm>
0

>  <SCORE.heavy>
26

>  <SCORE.norm>
-0.288953

>  <RMSD>
15.019

$$$$
ligand
 OpenBabel11021811433D
libRbt.so/2013.1/901 2013/11/27
 26 27  0  0  0  0  0  0  0  0999 V2000
  -25.1427  -12.6480   -2.3298 C   0  0  0  0  0  0  0  0  0  0  0  0
  -30.5829  -15.8137   -7.2588 C   0  0  0  0  0  0  0  0  0  0  0  0
  -34.5652  -10.6597   -7.2594 P   0  0  1  0  0  0  0  0  0  0  0  0
  -35.3271  -10.4938  -10.0613 P   0  0  1  0  0  0  0  0  0  0  0  0
  -27.8624  -14.6451   -6.9826 C   0  0  0  0  0  0  0  0  0  0  0  0
  -25.8248  -13.6923   -5.8290 C   0  0  0  0  0  0  0  0  0  0  0  0
  -27.1418  -14.1271   -5.7494 C   0  0  0  0  0  0  0  0  0  0  0  0
  -27.7893  -14.0663   -4.5263 C   0  0  0  0  0  0  0  0  0  0  0  0
  -29.0734  -14.4802   -4.3993 N   0  0  0  0  0  0  0  0  0  0  0  0
  -27.1330  -13.5891   -3.4464 N   0  0  0  0  0  0  0  0  0  0  0  0
  -25.8516  -13.1736   -3.5486 C   0  0  0  0  0  0  0  0  0  0  0  0
  -25.2022  -13.2269   -4.7372 N   0  0  0  0  0  0  0  0  0  0  0  0
  -34.0733   -9.2368   -7.2176 O   0  5  0  0  0  0  0  0  0  0  0  0
  -34.6822   -9.1694  -10.3325 O   0  0  0  0  0  0  0  0  0  0  0  0
  -30.5004  -11.7945   -7.8208 S   0  0  0  0  0  0  0  0  0  0  0  0
  -28.9386  -12.4657   -7.4695 C   0  0  0  0  0  0  0  0  0  0  0  0
  -35.8803  -10.9543   -6.5972 O   0  0  0  0  0  0  0  0  0  0  0  0
  -35.0609  -11.4165  -11.2037 O   0  5  0  0  0  0  0  0  0  0  0  0
  -29.0255  -13.8131   -7.2911 N   0  0  0  0  0  0  0  0  0  0  0  0
  -34.5488  -11.1557   -8.8023 O   0  0  0  0  0  0  0  0  0  0  0  0
  -36.7794  -10.4524   -9.6710 O   0  0  0  0  0  0  0  0  0  0  0  0
  -30.2704  -14.3495   -7.4172 C   0  0  1  0  0  0  0  0  0  0  0  0
  -31.2919  -13.3194   -7.7486 C   0  0  1  0  0  0  0  0  0  0  0  0
  -32.7776  -13.3434   -7.9919 C   0  0  0  0  0  0  0  0  0  0  0  0
  -33.4900  -12.9984   -6.6936 C   0  0  0  0  0  0  0  0  0  0  0  0
  -33.4669  -11.5849   -6.5367 O   0  0  0  0  0  0  0  0  0  0  0  0
  1 11  1  0  0  0  0
  3 13  1  1  0  0  0
  3 17  2  0  0  0  0
  3 20  1  0  0  0  0
  3 26  1  0  0  0  0
  4 14  1  6  0  0  0
  4 18  1  0  0  0  0
  4 21  2  0  0  0  0
  4 20  1  0  0  0  0
  5 19  1  0  0  0  0
  5  7  1  0  0  0  0
  6  7  2  0  0  0  0
  6 12  1  0  0  0  0
  7  8  1  0  0  0  0
  8  9  1  0  0  0  0
  8 10  2  0  0  0  0
 10 11  1  0  0  0  0
 11 12  2  0  0  0  0
 15 23  1  0  0  0  0
 15 16  1  0  0  0  0
 16 19  1  0  0  0  0
 19 22  1  0  0  0  0
 22  2  1  6  0  0  0
 22 23  1  0  0  0  0
 23 24  1  1  0  0  0
 24 25  1  0  0  0  0
 25 26  1  0  0  0  0
M  CHG  2  13  -1  18  -1
M  END
>  <CHROM.1>
-58.12953011,54.92500779,-118.42845978,68.82854560,-83.32208591,80.42029643
83.48094546,-164.98712843,-31.38465489,-12.27691307,-7.14239626,0.20168869
-0.53117196,1.00932796

>  <Name>
ligand

>  <RI>
0

>  <Rbt.Current_Directory>
/home/itssahil/PROJECTS/Mol_Feturizer/New_Systems/rnas/2GDI

>  <Rbt.Executable>
rbdock ($Id: //depot/dev/client3/rdock/2013.1/src/exe/rbdock.cxx#4 $)

>  <Rbt.Library>
libRbt.so (2013.1, Build901 2013/11/27)

>  <Rbt.Parameter_File>
/export/apps/rDock/src/rDock_2013.1_src/data/scripts/dock_solv.prm

>  <Rbt.Receptor>
prm/blind_docking_60.prm

>  <SCORE>
-14.689

>  <SCORE.INTER>
-16.2579

>  <SCORE.INTER.CONST>
1

>  <SCORE.INTER.POLAR>
0

>  <SCORE.INTER.ROT>
8

>  <SCORE.INTER.SOLV>
20.0503

>  <SCORE.INTER.VDW>
-26.4554

>  <SCORE.INTER.norm>
-0.625303

>  <SCORE.INTRA>
1.55357

>  <SCORE.INTRA.DIHEDRAL>
0.958746

>  <SCORE.INTRA.DIHEDRAL.0>
8.13976

>  <SCORE.INTRA.POLAR>
0

>  <SCORE.INTRA.POLAR.0>
0

>  <SCORE.INTRA.REPUL>
0

>  <SCORE.INTRA.REPUL.0>
0

>  <SCORE.INTRA.SOLV>
3.97888

>  <SCORE.INTRA.SOLV.lig_0>
-82.9561

>  <SCORE.INTRA.VDW>
-0.915241

>  <SCORE.INTRA.VDW.0>
-3.29171

>  <SCORE.INTRA.norm>
0.0597528

>  <SCORE.RESTR>
0.0152686

>  <SCORE.RESTR.CAVITY>
0.0152686

>  <SCORE.RESTR.norm>
0.000587256

>  <SCORE.SYSTEM>
0

>  <SCORE.SYSTEM.CONST>
0

>  <SCORE.SYSTEM.DIHEDRAL>
0

>  <SCORE.SYSTEM.SOLV>
0

>  <SCORE.SYSTEM.norm>
0

>  <SCORE.heavy>
26

>  <SCORE.norm>
-0.564963

>  <RMSD>
15.040

$$$$
ligand
 OpenBabel11021811433D
libRbt.so/2013.1/901 2013/11/27
 26 27  0  0  0  0  0  0  0  0999 V2000
  -35.4562   -7.4980   -8.8798 C   0  0  0  0  0  0  0  0  0  0  0  0
  -31.8783  -14.3095   -5.6850 C   0  0  0  0  0  0  0  0  0  0  0  0
  -26.3649  -13.7848   -3.6017 P   0  0  1  0  0  0  0  0  0  0  0  0
  -25.7083  -13.3845   -0.7968 P   0  0  1  0  0  0  0  0  0  0  0  0
  -33.2571  -12.6893   -7.7627 C   0  0  0  0  0  0  0  0  0  0  0  0
  -33.7748  -10.3013   -7.1149 C   0  0  0  0  0  0  0  0  0  0  0  0
  -33.8481  -11.3206   -8.0558 C   0  0  0  0  0  0  0  0  0  0  0  0
  -34.4586  -11.0605   -9.2717 C   0  0  0  0  0  0  0  0  0  0  0  0
  -34.5550  -12.0236  -10.2202 N   0  0  0  0  0  0  0  0  0  0  0  0
  -34.9648   -9.8321   -9.5155 N   0  0  0  0  0  0  0  0  0  0  0  0
  -34.8828   -8.8573   -8.5838 C   0  0  0  0  0  0  0  0  0  0  0  0
  -34.2898   -9.0944   -7.3882 N   0  0  0  0  0  0  0  0  0  0  0  0
  -26.1752  -12.2962   -3.7307 O   0  5  0  0  0  0  0  0  0  0  0  0
  -27.0702  -12.7988   -0.5829 O   0  0  0  0  0  0  0  0  0  0  0  0
  -29.3613  -11.9080   -7.7764 S   0  0  0  0  0  0  0  0  0  0  0  0
  -31.0149  -11.7708   -8.2862 C   0  0  0  0  0  0  0  0  0  0  0  0
  -25.8495  -14.6449   -4.7193 O   0  0  0  0  0  0  0  0  0  0  0  0
  -25.4267  -14.3852    0.2740 O   0  5  0  0  0  0  0  0  0  0  0  0
  -31.8123  -12.5958   -7.5525 N   0  0  0  0  0  0  0  0  0  0  0  0
  -25.7691  -14.2484   -2.1674 O   0  0  0  0  0  0  0  0  0  0  0  0
  -24.5879  -12.3978   -0.9823 O   0  0  0  0  0  0  0  0  0  0  0  0
  -31.1825  -13.3383   -6.6010 C   0  0  1  0  0  0  0  0  0  0  0  0
  -29.7201  -13.0664   -6.5572 C   0  0  1  0  0  0  0  0  0  0  0  0
  -28.5724  -13.5852   -5.7321 C   0  0  0  0  0  0  0  0  0  0  0  0
  -28.8763  -13.3365   -4.2631 C   0  0  0  0  0  0  0  0  0  0  0  0
  -27.9419  -14.0748   -3.4854 O   0  0  0  0  0  0  0  0  0  0  0  0
  1 11  1  0  0  0  0
  3 13  1  6  0  0  0
  3 17  2  0  0  0  0
  3 20  1  0  0  0  0
  3 26  1  0  0  0  0
  4 14  1  1  0  0  0
  4 18  1  0  0  0  0
  4 21  2  0  0  0  0
  4 20  1  0  0  0  0
  5 19  1  0  0  0  0
  5  7  1  0  0  0  0
  6  7  2  0  0  0  0
  6 12  1  0  0  0  0
  7  8  1  0  0  0  0
  8  9  1  0  0  0  0
  8 10  2  0  0  0  0
 10 11  1  0  0  0  0
 11 12  2  0  0  0  0
 15 23  1  0  0  0  0
 15 16  1  0  0  0  0
 16 19  1  0  0  0  0
 19 22  1  0  0  0  0
 22  2  1  1  0  0  0
 22 23  1  0  0  0  0
 23 24  1  6  0  0  0
 24 25  1  0  0  0  0
 25 26  1  0  0  0  0
M  CHG  2  13  -1  18  -1
M  END
>  <CHROM.1>
30.46722296,-38.86129337,-62.06074171,48.74956682,123.88445775,167.67660279
60.99439919,39.09173108,-29.67702014,-12.41263818,-5.35518048,2.82637739
0.68574481,-2.23297844

>  <Name>
ligand

>  <RI>
0

>  <Rbt.Current_Directory>
/home/itssahil/PROJECTS/Mol_Feturizer/New_Systems/rnas/2GDI

>  <Rbt.Executable>
rbdock ($Id: //depot/dev/client3/rdock/2013.1/src/exe/rbdock.cxx#4 $)

>  <Rbt.Library>
libRbt.so (2013.1, Build901 2013/11/27)

>  <Rbt.Parameter_File>
/export/apps/rDock/src/rDock_2013.1_src/data/scripts/dock_solv.prm

>  <Rbt.Receptor>
prm/blind_docking_40.prm

>  <SCORE>
-12.6501

>  <SCORE.INTER>
-13.6009

>  <SCORE.INTER.CONST>
1

>  <SCORE.INTER.POLAR>
0

>  <SCORE.INTER.ROT>
8

>  <SCORE.INTER.SOLV>
20.0543

>  <SCORE.INTER.VDW>
-24.6853

>  <SCORE.INTER.norm>
-0.52311

>  <SCORE.INTRA>
0.792583

>  <SCORE.INTRA.DIHEDRAL>
-0.975862

>  <SCORE.INTRA.DIHEDRAL.0>
8.13976

>  <SCORE.INTRA.POLAR>
0

>  <SCORE.INTRA.POLAR.0>
0

>  <SCORE.INTRA.REPUL>
0

>  <SCORE.INTRA.REPUL.0>
0

>  <SCORE.INTRA.SOLV>
0.987837

>  <SCORE.INTRA.SOLV.lig_0>
-82.9561

>  <SCORE.INTRA.VDW>
0.786595

>  <SCORE.INTRA.VDW.0>
-3.29171

>  <SCORE.INTRA.norm>
0.030484

>  <SCORE.RESTR>
0.158219

>  <SCORE.RESTR.CAVITY>
0.158219

>  <SCORE.RESTR.norm>
0.00608535

>  <SCORE.SYSTEM>
0

>  <SCORE.SYSTEM.CONST>
0

>  <SCORE.SYSTEM.DIHEDRAL>
0

>  <SCORE.SYSTEM.SOLV>
0

>  <SCORE.SYSTEM.norm>
0

>  <SCORE.heavy>
26

>  <SCORE.norm>
-0.486541

>  <RMSD>
15.482

$$$$
ligand
 OpenBabel11021811433D
libRbt.so/2013.1/901 2013/11/27
 26 27  0  0  0  0  0  0  0  0999 V2000
  -26.1009  -13.2035   -1.3498 C   0  0  0  0  0  0  0  0  0  0  0  0
  -29.1360  -12.8997   -7.6027 C   0  0  0  0  0  0  0  0  0  0  0  0
  -35.0897  -13.0373   -9.9143 P   0  0  1  0  0  0  0  0  0  0  0  0
  -34.9746  -10.6022  -11.5005 P   0  0  1  0  0  0  0  0  0  0  0  0
  -29.0807  -15.2707   -5.8086 C   0  0  0  0  0  0  0  0  0  0  0  0
  -28.9278  -14.4079   -3.4374 C   0  0  0  0  0  0  0  0  0  0  0  0
  -28.2931  -14.7146   -4.6343 C   0  0  0  0  0  0  0  0  0  0  0  0
  -26.9256  -14.5162   -4.7317 C   0  0  0  0  0  0  0  0  0  0  0  0
  -26.2629  -14.7998   -5.8792 N   0  0  0  0  0  0  0  0  0  0  0  0
  -26.2436  -14.0339   -3.6701 N   0  0  0  0  0  0  0  0  0  0  0  0
  -26.8837  -13.7414   -2.5169 C   0  0  0  0  0  0  0  0  0  0  0  0
  -28.2215  -13.9282   -2.4042 N   0  0  0  0  0  0  0  0  0  0  0  0
  -36.5357  -12.7460   -9.6099 O   0  5  0  0  0  0  0  0  0  0  0  0
  -34.1279   -9.8009  -10.5601 O   0  0  0  0  0  0  0  0  0  0  0  0
  -32.7292  -13.6992   -5.8920 S   0  0  0  0  0  0  0  0  0  0  0  0
  -31.4864  -14.8156   -5.4205 C   0  0  0  0  0  0  0  0  0  0  0  0
  -34.6922  -14.4781  -10.0585 O   0  0  0  0  0  0  0  0  0  0  0  0
  -34.5128  -10.3710  -12.9007 O   0  5  0  0  0  0  0  0  0  0  0  0
  -30.3060  -14.5004   -6.0222 N   0  0  0  0  0  0  0  0  0  0  0  0
  -34.6604  -12.1665  -11.2121 O   0  0  0  0  0  0  0  0  0  0  0  0
  -36.4627  -10.4463  -11.3438 O   0  0  0  0  0  0  0  0  0  0  0  0
  -30.3297  -13.4152   -6.8439 C   0  0  1  0  0  0  0  0  0  0  0  0
  -31.6752  -12.7815   -6.8941 C   0  0  1  0  0  0  0  0  0  0  0  0
  -32.2594  -11.5958   -7.6151 C   0  0  0  0  0  0  0  0  0  0  0  0
  -32.8419  -12.0681   -8.9380 C   0  0  0  0  0  0  0  0  0  0  0  0
  -34.2001  -12.4301   -8.7209 O   0  0  0  0  0  0  0  0  0  0  0  0
  1 11  1  0  0  0  0
  3 13  1  1  0  0  0
  3 17  2  0  0  0  0
  3 20  1  0  0  0  0
  3 26  1  0  0  0  0
  4 14  1  1  0  0  0
  4 18  1  0  0  0  0
  4 21  2  0  0  0  0
  4 20  1  0  0  0  0
  5 19  1  0  0  0  0
  5  7  1  0  0  0  0
  6  7  2  0  0  0  0
  6 12  1  0  0  0  0
  7  8  1  0  0  0  0
  8  9  1  0  0  0  0
  8 10  2  0  0  0  0
 10 11  1  0  0  0  0
 11 12  2  0  0  0  0
 15 23  1  0  0  0  0
 15 16  1  0  0  0  0
 16 19  1  0  0  0  0
 19 22  1  0  0  0  0
 22  2  1  1  0  0  0
 22 23  1  0  0  0  0
 23 24  1  6  0  0  0
 24 25  1  0  0  0  0
 25 26  1  0  0  0  0
M  CHG  2  13  -1  18  -1
M  END
>  <CHROM.1>
45.59713935,-90.10435005,46.49556075,71.10415365,-87.16261701,89.80115277
-177.24221128,-154.97969496,-31.81214382,-12.94132351,-7.54756382,-0.74107433
-0.29684031,-0.90364872

>  <Name>
ligand

>  <RI>
0

>  <Rbt.Current_Directory>
/home/itssahil/PROJECTS/Mol_Feturizer/New_Systems/rnas/2GDI

>  <Rbt.Executable>
rbdock ($Id: //depot/dev/client3/rdock/2013.1/src/exe/rbdock.cxx#4 $)

>  <Rbt.Library>
libRbt.so (2013.1, Build901 2013/11/27)

>  <Rbt.Parameter_File>
/export/apps/rDock/src/rDock_2013.1_src/data/scripts/dock_solv.prm

>  <Rbt.Receptor>
prm/blind_docking_60.prm

>  <SCORE>
-16.5053

>  <SCORE.INTER>
-16.1923

>  <SCORE.INTER.CONST>
1

>  <SCORE.INTER.POLAR>
0

>  <SCORE.INTER.ROT>
8

>  <SCORE.INTER.SOLV>
17.2701

>  <SCORE.INTER.VDW>
-25.4849

>  <SCORE.INTER.norm>
-0.622779

>  <SCORE.INTRA>
-0.31308

>  <SCORE.INTRA.DIHEDRAL>
0.378815

>  <SCORE.INTRA.DIHEDRAL.0>
8.13976

>  <SCORE.INTRA.POLAR>
0

>  <SCORE.INTRA.POLAR.0>
0

>  <SCORE.INTRA.REPUL>
0

>  <SCORE.INTRA.REPUL.0>
0

>  <SCORE.INTRA.SOLV>
0.782167

>  <SCORE.INTRA.SOLV.lig_0>
-82.9561

>  <SCORE.INTRA.VDW>
-0.89357

>  <SCORE.INTRA.VDW.0>
-3.29171

>  <SCORE.INTRA.norm>
-0.0120415

>  <SCORE.RESTR>
0

>  <SCORE.RESTR.CAVITY>
0

>  <SCORE.RESTR.norm>
0

>  <SCORE.SYSTEM>
0

>  <SCORE.SYSTEM.CONST>
0

>  <SCORE.SYSTEM.DIHEDRAL>
0

>  <SCORE.SYSTEM.SOLV>
0

>  <SCORE.SYSTEM.norm>
0

>  <SCORE.heavy>
26

>  <SCORE.norm>
-0.63482

>  <RMSD>
15.620

$$$$
ligand
 OpenBabel11021811433D
libRbt.so/2013.1/901 2013/11/27
 26 27  0  0  0  0  0  0  0  0999 V2000
  -25.9451  -13.3621   -1.4066 C   0  0  0  0  0  0  0  0  0  0  0  0
  -29.6365  -12.5931   -8.1675 C   0  0  0  0  0  0  0  0  0  0  0  0
  -35.2174  -11.3151   -9.8033 P   0  0  1  0  0  0  0  0  0  0  0  0
  -36.0685   -8.5345   -9.7489 P   0  0  1  0  0  0  0  0  0  0  0  0
  -28.7306  -14.6841   -6.2570 C   0  0  0  0  0  0  0  0  0  0  0  0
  -28.6737  -14.2435   -3.7684 C   0  0  0  0  0  0  0  0  0  0  0  0
  -27.9944  -14.3244   -4.9775 C   0  0  0  0  0  0  0  0  0  0  0  0
  -26.6303  -14.0840   -4.9913 C   0  0  0  0  0  0  0  0  0  0  0  0
  -25.9253  -14.1502   -6.1467 N   0  0  0  0  0  0  0  0  0  0  0  0
  -25.9943  -13.7795   -3.8391 N   0  0  0  0  0  0  0  0  0  0  0  0
  -26.6771  -13.7050   -2.6758 C   0  0  0  0  0  0  0  0  0  0  0  0
  -28.0123  -13.9361   -2.6439 N   0  0  0  0  0  0  0  0  0  0  0  0
  -35.7825  -12.5596  -10.4360 O   0  5  0  0  0  0  0  0  0  0  0  0
  -34.9771   -8.3883   -8.7336 O   0  0  0  0  0  0  0  0  0  0  0  0
  -32.5409  -13.7760   -5.5904 S   0  0  0  0  0  0  0  0  0  0  0  0
  -31.0332  -14.5997   -5.3427 C   0  0  0  0  0  0  0  0  0  0  0  0
  -33.8465  -10.8824  -10.2374 O   0  0  0  0  0  0  0  0  0  0  0  0
  -35.5881   -8.0274  -11.0677 O   0  5  0  0  0  0  0  0  0  0  0  0
  -30.0980  -14.1645   -6.2319 N   0  0  0  0  0  0  0  0  0  0  0  0
  -36.3021  -10.1230   -9.9744 O   0  0  0  0  0  0  0  0  0  0  0  0
  -37.4093   -7.9729   -9.3612 O   0  0  0  0  0  0  0  0  0  0  0  0
  -30.5113  -13.2072   -7.1073 C   0  0  1  0  0  0  0  0  0  0  0  0
  -31.9312  -12.8217   -6.8845 C   0  0  1  0  0  0  0  0  0  0  0  0
  -32.8775  -11.8489   -7.5364 C   0  0  0  0  0  0  0  0  0  0  0  0
  -34.2419  -12.5079   -7.6653 C   0  0  0  0  0  0  0  0  0  0  0  0
  -35.1443  -11.5560   -8.2155 O   0  0  0  0  0  0  0  0  0  0  0  0
  1 11  1  0  0  0  0
  3 13  1  6  0  0  0
  3 17  2  0  0  0  0
  3 20  1  0  0  0  0
  3 26  1  0  0  0  0
  4 14  1  1  0  0  0
  4 18  1  0  0  0  0
  4 21  2  0  0  0  0
  4 20  1  0  0  0  0
  5 19  1  0  0  0  0
  5  7  1  0  0  0  0
  6  7  2  0  0  0  0
  6 12  1  0  0  0  0
  7  8  1  0  0  0  0
  8  9  1  0  0  0  0
  8 10  2  0  0  0  0
 10 11  1  0  0  0  0
 11 12  2  0  0  0  0
 15 23  1  0  0  0  0
 15 16  1  0  0  0  0
 16 19  1  0  0  0  0
 19 22  1  0  0  0  0
 22  2  1  1  0  0  0
 22 23  1  0  0  0  0
 23 24  1  6  0  0  0
 24 25  1  0  0  0  0
 25 26  1  0  0  0  0
M  CHG  2  13  -1  18  -1
M  END
>  <CHROM.1>
-166.29667885,-65.00942595,33.18276294,-28.26783513,-40.08776521,176.90934918
82.96472752,67.72743597,-32.03973785,-12.08855526,-7.20060760,-0.41717731
-0.59062018,-0.01782981

>  <Name>
ligand

>  <RI>
0

>  <Rbt.Current_Directory>
/home/itssahil/PROJECTS/Mol_Feturizer/New_Systems/rnas/2GDI

>  <Rbt.Executable>
rbdock ($Id: //depot/dev/client3/rdock/2013.1/src/exe/rbdock.cxx#4 $)

>  <Rbt.Library>
libRbt.so (2013.1, Build901 2013/11/27)

>  <Rbt.Parameter_File>
/export/apps/rDock/src/rDock_2013.1_src/data/scripts/dock_solv.prm

>  <Rbt.Receptor>
prm/blind_docking_60.prm

>  <SCORE>
-10.8554

>  <SCORE.INTER>
-13.2359

>  <SCORE.INTER.CONST>
1

>  <SCORE.INTER.POLAR>
0

>  <SCORE.INTER.ROT>
8

>  <SCORE.INTER.SOLV>
14.8611

>  <SCORE.INTER.VDW>
-22.711

>  <SCORE.INTER.norm>
-0.509073

>  <SCORE.INTRA>
2.38048

>  <SCORE.INTRA.DIHEDRAL>
0.983496

>  <SCORE.INTRA.DIHEDRAL.0>
8.13976

>  <SCORE.INTRA.POLAR>
0

>  <SCORE.INTRA.POLAR.0>
0

>  <SCORE.INTRA.REPUL>
0

>  <SCORE.INTRA.REPUL.0>
0

>  <SCORE.INTRA.SOLV>
0.420949

>  <SCORE.INTRA.SOLV.lig_0>
-82.9561

>  <SCORE.INTRA.VDW>
1.67826

>  <SCORE.INTRA.VDW.0>
-3.29171

>  <SCORE.INTRA.norm>
0.091557

>  <SCORE.RESTR>
0

>  <SCORE.RESTR.CAVITY>
0

>  <SCORE.RESTR.norm>
0

>  <SCORE.SYSTEM>
0

>  <SCORE.SYSTEM.CONST>
0

>  <SCORE.SYSTEM.DIHEDRAL>
0

>  <SCORE.SYSTEM.SOLV>
0

>  <SCORE.SYSTEM.norm>
0

>  <SCORE.heavy>
26

>  <SCORE.norm>
-0.417516

>  <RMSD>
15.729

$$$$
ligand
 OpenBabel11021811433D
libRbt.so/2013.1/901 2013/11/27
 26 27  0  0  0  0  0  0  0  0999 V2000
  -29.0656  -19.5653   -7.5454 C   0  0  0  0  0  0  0  0  0  0  0  0
  -30.2146  -13.8455   -4.6060 C   0  0  0  0  0  0  0  0  0  0  0  0
  -35.3742  -11.4127   -8.2877 P   0  0  1  0  0  0  0  0  0  0  0  0
  -36.0322  -13.7516   -9.8863 P   0  0  1  0  0  0  0  0  0  0  0  0
  -27.6161  -14.2220   -6.0022 C   0  0  0  0  0  0  0  0  0  0  0  0
  -29.3256  -16.0416   -6.3980 C   0  0  0  0  0  0  0  0  0  0  0  0
  -27.9964  -15.6380   -6.4005 C   0  0  0  0  0  0  0  0  0  0  0  0
  -27.0259  -16.5480   -6.7865 C   0  0  0  0  0  0  0  0  0  0  0  0
  -25.7161  -16.2006   -6.8037 N   0  0  0  0  0  0  0  0  0  0  0  0
  -27.3888  -17.7973   -7.1499 N   0  0  0  0  0  0  0  0  0  0  0  0
  -28.6882  -18.1669   -7.1377 C   0  0  0  0  0  0  0  0  0  0  0  0
  -29.6510  -17.2899   -6.7618 N   0  0  0  0  0  0  0  0  0  0  0  0
  -34.8674  -10.7855   -9.5598 O   0  5  0  0  0  0  0  0  0  0  0  0
  -37.1002  -14.7218   -9.4842 O   0  0  0  0  0  0  0  0  0  0  0  0
  -29.7903  -11.4709   -7.8707 S   0  0  0  0  0  0  0  0  0  0  0  0
  -28.4147  -12.4906   -7.5862 C   0  0  0  0  0  0  0  0  0  0  0  0
  -36.6124  -10.8246   -7.6747 O   0  0  0  0  0  0  0  0  0  0  0  0
  -36.6350  -12.6697  -10.7188 O   0  5  0  0  0  0  0  0  0  0  0  0
  -28.6115  -13.2634   -6.4822 N   0  0  0  0  0  0  0  0  0  0  0  0
  -35.5300  -13.0067   -8.5366 O   0  0  0  0  0  0  0  0  0  0  0  0
  -34.7996  -14.3486  -10.5090 O   0  0  0  0  0  0  0  0  0  0  0  0
  -29.8007  -13.0920   -5.8419 C   0  0  1  0  0  0  0  0  0  0  0  0
  -30.6582  -12.0805   -6.5171 C   0  0  1  0  0  0  0  0  0  0  0  0
  -32.0264  -11.5095   -6.2544 C   0  0  0  0  0  0  0  0  0  0  0  0
  -32.9577  -11.9387   -7.3772 C   0  0  0  0  0  0  0  0  0  0  0  0
  -34.2127  -11.2984   -7.1822 O   0  0  0  0  0  0  0  0  0  0  0  0
  1 11  1  0  0  0  0
  3 13  1  6  0  0  0
  3 17  2  0  0  0  0
  3 20  1  0  0  0  0
  3 26  1  0  0  0  0
  4 14  1  1  0  0  0
  4 18  1  0  0  0  0
  4 21  2  0  0  0  0
  4 20  1  0  0  0  0
  5 19  1  0  0  0  0
  5  7  1  0  0  0  0
  6  7  2  0  0  0  0
  6 12  1  0  0  0  0
  7  8  1  0  0  0  0
  8  9  1  0  0  0  0
  8 10  2  0  0  0  0
 10 11  1  0  0  0  0
 11 12  2  0  0  0  0
 15 23  1  0  0  0  0
 15 16  1  0  0  0  0
 16 19  1  0  0  0  0
 19 22  1  0  0  0  0
 22  2  1  6  0  0  0
 22 23  1  0  0  0  0
 23 24  1  1  0  0  0
 24 25  1  0  0  0  0
 25 26  1  0  0  0  0
M  CHG  2  13  -1  18  -1
M  END
>  <CHROM.1>
-37.46204874,-101.81822375,-37.20861420,-129.76512365,67.60323261,-174.92803304
173.22441230,-62.09004410,-31.88937877,-13.71004605,-7.73073597,0.34227869
0.38709145,-2.91109543

>  <Name>
ligand

>  <RI>
0

>  <Rbt.Current_Directory>
/home/itssahil/PROJECTS/Mol_Feturizer/New_Systems/rnas/2GDI

>  <Rbt.Executable>
rbdock ($Id: //depot/dev/client3/rdock/2013.1/src/exe/rbdock.cxx#4 $)

>  <Rbt.Library>
libRbt.so (2013.1, Build901 2013/11/27)

>  <Rbt.Parameter_File>
/export/apps/rDock/src/rDock_2013.1_src/data/scripts/dock_solv.prm

>  <Rbt.Receptor>
prm/blind_docking_60.prm

>  <SCORE>
-9.63431

>  <SCORE.INTER>
-11.8954

>  <SCORE.INTER.CONST>
1

>  <SCORE.INTER.POLAR>
0

>  <SCORE.INTER.ROT>
8

>  <SCORE.INTER.SOLV>
14.7168

>  <SCORE.INTER.VDW>
-21.7692

>  <SCORE.INTER.norm>
-0.457517

>  <SCORE.INTRA>
2.25375

>  <SCORE.INTRA.DIHEDRAL>
0.660826

>  <SCORE.INTRA.DIHEDRAL.0>
8.13976

>  <SCORE.INTRA.POLAR>
0

>  <SCORE.INTRA.POLAR.0>
0

>  <SCORE.INTRA.REPUL>
0

>  <SCORE.INTRA.REPUL.0>
0

>  <SCORE.INTRA.SOLV>
1.62654

>  <SCORE.INTRA.SOLV.lig_0>
-82.9561

>  <SCORE.INTRA.VDW>
1.11007

>  <SCORE.INTRA.VDW.0>
-3.29171

>  <SCORE.INTRA.norm>
0.0866829

>  <SCORE.RESTR>
0.00736747

>  <SCORE.RESTR.CAVITY>
0.00736747

>  <SCORE.RESTR.norm>
0.000283364

>  <SCORE.SYSTEM>
0

>  <SCORE.SYSTEM.CONST>
0

>  <SCORE.SYSTEM.DIHEDRAL>
0

>  <SCORE.SYSTEM.SOLV>
0

>  <SCORE.SYSTEM.norm>
0

>  <SCORE.heavy>
26

>  <SCORE.norm>
-0.37055

>  <RMSD>
15.949

$$$$
ligand
 OpenBabel11021811433D
libRbt.so/2013.1/901 2013/11/27
 26 27  0  0  0  0  0  0  0  0999 V2000
  -29.0590  -19.6092   -5.6452 C   0  0  0  0  0  0  0  0  0  0  0  0
  -31.6792  -13.6988   -5.7458 C   0  0  0  0  0  0  0  0  0  0  0  0
  -35.1817  -10.0915   -7.7107 P   0  0  1  0  0  0  0  0  0  0  0  0
  -37.2277  -11.2799   -9.4019 P   0  0  1  0  0  0  0  0  0  0  0  0
  -28.8104  -13.9046   -4.9904 C   0  0  0  0  0  0  0  0  0  0  0  0
  -30.0465  -16.1075   -4.8946 C   0  0  0  0  0  0  0  0  0  0  0  0
  -28.8713  -15.4138   -5.1542 C   0  0  0  0  0  0  0  0  0  0  0  0
  -27.7599  -16.1237   -5.5783 C   0  0  0  0  0  0  0  0  0  0  0  0
  -26.5912  -15.4908   -5.8426 N   0  0  0  0  0  0  0  0  0  0  0  0
  -27.8414  -17.4634   -5.7302 N   0  0  0  0  0  0  0  0  0  0  0  0
  -28.9953  -18.1161   -5.4698 C   0  0  0  0  0  0  0  0  0  0  0  0
  -30.0922  -17.4377   -5.0529 N   0  0  0  0  0  0  0  0  0  0  0  0
  -35.4889   -8.7842   -8.3927 O   0  5  0  0  0  0  0  0  0  0  0  0
  -37.9826  -10.0034   -9.6119 O   0  0  0  0  0  0  0  0  0  0  0  0
  -29.1851  -11.9575   -8.4336 S   0  0  0  0  0  0  0  0  0  0  0  0
  -28.3491  -12.6640   -7.0863 C   0  0  0  0  0  0  0  0  0  0  0  0
  -34.8554  -10.0448   -6.2457 O   0  0  0  0  0  0  0  0  0  0  0  0
  -36.1868  -11.4189  -10.4623 O   0  5  0  0  0  0  0  0  0  0  0  0
  -29.2323  -13.2323   -6.2193 N   0  0  0  0  0  0  0  0  0  0  0  0
  -36.3947  -11.1210   -8.0200 O   0  0  0  0  0  0  0  0  0  0  0  0
  -38.0628  -12.5204   -9.2380 O   0  0  0  0  0  0  0  0  0  0  0  0
  -30.5461  -13.1388   -6.5638 C   0  0  1  0  0  0  0  0  0  0  0  0
  -30.7353  -12.4301   -7.8585 C   0  0  1  0  0  0  0  0  0  0  0  0
  -31.9307  -12.0517   -8.6921 C   0  0  0  0  0  0  0  0  0  0  0  0
  -33.0721  -11.6702   -7.7626 C   0  0  0  0  0  0  0  0  0  0  0  0
  -33.9114  -10.7473   -8.4459 O   0  0  0  0  0  0  0  0  0  0  0  0
  1 11  1  0  0  0  0
  3 13  1  6  0  0  0
  3 17  2  0  0  0  0
  3 20  1  0  0  0  0
  3 26  1  0  0  0  0
  4 14  1  6  0  0  0
  4 18  1  0  0  0  0
  4 21  2  0  0  0  0
  4 20  1  0  0  0  0
  5 19  1  0  0  0  0
  5  7  1  0  0  0  0
  6  7  2  0  0  0  0
  6 12  1  0  0  0  0
  7  8  1  0  0  0  0
  8  9  1  0  0  0  0
  8 10  2  0  0  0  0
 10 11  1  0  0  0  0
 11 12  2  0  0  0  0
 15 23  1  0  0  0  0
 15 16  1  0  0  0  0
 16 19  1  0  0  0  0
 19 22  1  0  0  0  0
 22  2  1  6  0  0  0
 22 23  1  0  0  0  0
 23 24  1  1  0  0  0
 24 25  1  0  0  0  0
 25 26  1  0  0  0  0
M  CHG  2  13  -1  18  -1
M  END
>  <CHROM.1>
37.69637439,-103.26947749,-87.27667832,-65.25456646,-142.21991435,152.39156744
-177.14713609,155.42554856,-32.30738233,-12.93054869,-7.34199368,0.65142932
0.19093838,2.87118882

>  <Name>
ligand

>  <RI>
0

>  <Rbt.Current_Directory>
/home/itssahil/PROJECTS/Mol_Feturizer/New_Systems/rnas/2GDI

>  <Rbt.Executable>
rbdock ($Id: //depot/dev/client3/rdock/2013.1/src/exe/rbdock.cxx#4 $)

>  <Rbt.Library>
libRbt.so (2013.1, Build901 2013/11/27)

>  <Rbt.Parameter_File>
/export/apps/rDock/src/rDock_2013.1_src/data/scripts/dock_solv.prm

>  <Rbt.Receptor>
prm/blind_docking_60.prm

>  <SCORE>
-12.9186

>  <SCORE.INTER>
-14.754

>  <SCORE.INTER.CONST>
1

>  <SCORE.INTER.POLAR>
0

>  <SCORE.INTER.ROT>
8

>  <SCORE.INTER.SOLV>
17.9228

>  <SCORE.INTER.VDW>
-24.7436

>  <SCORE.INTER.norm>
-0.567461

>  <SCORE.INTRA>
1.82621

>  <SCORE.INTRA.DIHEDRAL>
0.787375

>  <SCORE.INTRA.DIHEDRAL.0>
8.13976

>  <SCORE.INTRA.POLAR>
0

>  <SCORE.INTRA.POLAR.0>
0

>  <SCORE.INTRA.REPUL>
0

>  <SCORE.INTRA.REPUL.0>
0

>  <SCORE.INTRA.SOLV>
1.05921

>  <SCORE.INTRA.SOLV.lig_0>
-82.9561

>  <SCORE.INTRA.VDW>
0.902917

>  <SCORE.INTRA.VDW.0>
-3.29171

>  <SCORE.INTRA.norm>
0.0702388

>  <SCORE.RESTR>
0.00917624

>  <SCORE.RESTR.CAVITY>
0.00917624

>  <SCORE.RESTR.norm>
0.000352932

>  <SCORE.SYSTEM>
0

>  <SCORE.SYSTEM.CONST>
0

>  <SCORE.SYSTEM.DIHEDRAL>
0

>  <SCORE.SYSTEM.SOLV>
0

>  <SCORE.SYSTEM.norm>
0

>  <SCORE.heavy>
26

>  <SCORE.norm>
-0.496869

>  <RMSD>
16.254

$$$$
ligand
 OpenBabel11021811433D
libRbt.so/2013.1/901 2013/11/27
 26 27  0  0  0  0  0  0  0  0999 V2000
   -0.8651   -8.6399    6.1799 C   0  0  0  0  0  0  0  0  0  0  0  0
   -7.0635   -2.8699    8.1036 C   0  0  0  0  0  0  0  0  0  0  0  0
  -10.5855   -6.6958   10.2566 P   0  0  1  0  0  0  0  0  0  0  0  0
   -8.9317   -7.8259   12.3653 P   0  0  1  0  0  0  0  0  0  0  0  0
   -4.7255   -4.6632    7.7019 C   0  0  0  0  0  0  0  0  0  0  0  0
   -3.2175   -5.7702    6.0017 C   0  0  0  0  0  0  0  0  0  0  0  0
   -3.7128   -5.7215    7.2987 C   0  0  0  0  0  0  0  0  0  0  0  0
   -3.2549   -6.6486    8.2206 C   0  0  0  0  0  0  0  0  0  0  0  0
   -3.7098   -6.6412    9.4971 N   0  0  0  0  0  0  0  0  0  0  0  0
   -2.3439   -7.5717    7.8431 N   0  0  0  0  0  0  0  0  0  0  0  0
   -1.8783   -7.6000    6.5752 C   0  0  0  0  0  0  0  0  0  0  0  0
   -2.3161   -6.7013    5.6597 N   0  0  0  0  0  0  0  0  0  0  0  0
  -11.4078   -7.7215    9.5216 O   0  5  0  0  0  0  0  0  0  0  0  0
   -7.5389   -8.3763   12.3940 O   0  0  0  0  0  0  0  0  0  0  0  0
   -8.0608   -6.4749    6.5269 S   0  0  0  0  0  0  0  0  0  0  0  0
   -6.3586   -6.3079    6.8229 C   0  0  0  0  0  0  0  0  0  0  0  0
  -11.2760   -5.8927   11.3211 O   0  0  0  0  0  0  0  0  0  0  0  0
   -8.9683   -6.5341   13.1115 O   0  5  0  0  0  0  0  0  0  0  0  0
   -6.0821   -5.0832    7.3505 N   0  0  0  0  0  0  0  0  0  0  0  0
   -9.2567   -7.4272   10.8277 O   0  0  0  0  0  0  0  0  0  0  0  0
  -10.0235   -8.7726   12.7838 O   0  0  0  0  0  0  0  0  0  0  0  0
   -7.1515   -4.2611    7.5349 C   0  0  1  0  0  0  0  0  0  0  0  0
   -8.4286   -4.9046    7.1235 C   0  0  1  0  0  0  0  0  0  0  0  0
   -9.8715   -4.4747    7.1055 C   0  0  0  0  0  0  0  0  0  0  0  0
  -10.6841   -5.4598    7.9311 C   0  0  0  0  0  0  0  0  0  0  0  0
  -10.0238   -5.6452    9.1772 O   0  0  0  0  0  0  0  0  0  0  0  0
  1 11  1  0  0  0  0
  3 13  1  6  0  0  0
  3 17  2  0  0  0  0
  3 20  1  0  0  0  0
  3 26  1  0  0  0  0
  4 14  1  1  0  0  0
  4 18  1  0  0  0  0
  4 21  2  0  0  0  0
  4 20  1  0  0  0  0
  5 19  1  0  0  0  0
  5  7  1  0  0  0  0
  6  7  2  0  0  0  0
  6 12  1  0  0  0  0
  7  8  1  0  0  0  0
  8  9  1  0  0  0  0
  8 10  2  0  0  0  0
 10 11  1  0  0  0  0
 11 12  2  0  0  0  0
 15 23  1  0  0  0  0
 15 16  1  0  0  0  0
 16 19  1  0  0  0  0
 19 22  1  0  0  0  0
 22  2  1  1  0  0  0
 22 23  1  0  0  0  0
 23 24  1  6  0  0  0
 24 25  1  0  0  0  0
 25 26  1  0  0  0  0
M  CHG  2  13  -1  18  -1
M  END
>  <CHROM.1>
-106.54131726,4.32573746,83.98024788,-175.47558414,58.67143852,48.81344263
-176.60518304,23.51909022,-7.27658222,-6.45590110,8.91883490,-0.47613870
-0.26570904,2.12426521

>  <Name>
ligand

>  <RI>
0

>  <Rbt.Current_Directory>
/home/itssahil/PROJECTS/Mol_Feturizer/New_Systems/rnas/2GDI

>  <Rbt.Executable>
rbdock ($Id: //depot/dev/client3/rdock/2013.1/src/exe/rbdock.cxx#4 $)

>  <Rbt.Library>
libRbt.so (2013.1, Build901 2013/11/27)

>  <Rbt.Parameter_File>
/export/apps/rDock/src/rDock_2013.1_src/data/scripts/dock_solv.prm

>  <Rbt.Receptor>
prm/blind_docking_20.prm

>  <SCORE>
-8.90289

>  <SCORE.INTER>
-11.4436

>  <SCORE.INTER.CONST>
1

>  <SCORE.INTER.POLAR>
0

>  <SCORE.INTER.ROT>
8

>  <SCORE.INTER.SOLV>
16.5874

>  <SCORE.INTER.VDW>
-22.0915

>  <SCORE.INTER.norm>
-0.440138

>  <SCORE.INTRA>
2.52607

>  <SCORE.INTRA.DIHEDRAL>
1.23735

>  <SCORE.INTRA.DIHEDRAL.0>
8.13976

>  <SCORE.INTRA.POLAR>
0

>  <SCORE.INTRA.POLAR.0>
0

>  <SCORE.INTRA.REPUL>
0

>  <SCORE.INTRA.REPUL.0>
0

>  <SCORE.INTRA.SOLV>
2.21679

>  <SCORE.INTRA.SOLV.lig_0>
-82.9561

>  <SCORE.INTRA.VDW>
0.799006

>  <SCORE.INTRA.VDW.0>
-3.29171

>  <SCORE.INTRA.norm>
0.0971567

>  <SCORE.RESTR>
0.0146312

>  <SCORE.RESTR.CAVITY>
0.0146312

>  <SCORE.RESTR.norm>
0.000562737

>  <SCORE.SYSTEM>
0

>  <SCORE.SYSTEM.CONST>
0

>  <SCORE.SYSTEM.DIHEDRAL>
0

>  <SCORE.SYSTEM.SOLV>
0

>  <SCORE.SYSTEM.norm>
0

>  <SCORE.heavy>
26

>  <SCORE.norm>
-0.342419

>  <RMSD>
16.321

$$$$
ligand
 OpenBabel11021811433D
libRbt.so/2013.1/901 2013/11/27
 26 27  0  0  0  0  0  0  0  0999 V2000
   -1.4296   -9.9721    5.9803 C   0  0  0  0  0  0  0  0  0  0  0  0
   -6.3951   -3.2647    8.3588 C   0  0  0  0  0  0  0  0  0  0  0  0
  -10.7979   -6.5104   10.2914 P   0  0  1  0  0  0  0  0  0  0  0  0
   -8.0735   -6.9859   11.1918 P   0  0  1  0  0  0  0  0  0  0  0  0
   -4.4269   -5.4301    7.8295 C   0  0  0  0  0  0  0  0  0  0  0  0
   -3.6065   -7.8087    8.0733 C   0  0  0  0  0  0  0  0  0  0  0  0
   -3.6257   -6.6264    7.3443 C   0  0  0  0  0  0  0  0  0  0  0  0
   -2.9109   -6.5641    6.1594 C   0  0  0  0  0  0  0  0  0  0  0  0
   -2.8986   -5.4320    5.4147 N   0  0  0  0  0  0  0  0  0  0  0  0
   -2.2169   -7.6447    5.7407 N   0  0  0  0  0  0  0  0  0  0  0  0
   -2.2123   -8.7831    6.4681 C   0  0  0  0  0  0  0  0  0  0  0  0
   -2.9052   -8.8615    7.6305 N   0  0  0  0  0  0  0  0  0  0  0  0
  -11.3031   -7.6681    9.4711 O   0  5  0  0  0  0  0  0  0  0  0  0
   -7.7316   -7.3317    9.7751 O   0  0  0  0  0  0  0  0  0  0  0  0
   -8.0506   -6.5519    6.6471 S   0  0  0  0  0  0  0  0  0  0  0  0
   -6.3426   -6.7095    6.9140 C   0  0  0  0  0  0  0  0  0  0  0  0
  -11.8214   -5.6579   10.9846 O   0  0  0  0  0  0  0  0  0  0  0  0
   -7.7442   -5.5523   11.4441 O   0  5  0  0  0  0  0  0  0  0  0  0
   -5.8416   -5.5811    7.4888 N   0  0  0  0  0  0  0  0  0  0  0  0
   -9.6867   -7.0722   11.3291 O   0  0  0  0  0  0  0  0  0  0  0  0
   -7.5215   -7.9056   12.2467 O   0  0  0  0  0  0  0  0  0  0  0  0
   -6.7415   -4.5888    7.7317 C   0  0  1  0  0  0  0  0  0  0  0  0
   -8.1195   -4.9708    7.3196 C   0  0  1  0  0  0  0  0  0  0  0  0
   -9.4604   -4.2868    7.3510 C   0  0  0  0  0  0  0  0  0  0  0  0
  -10.4636   -5.2110    8.0231 C   0  0  0  0  0  0  0  0  0  0  0  0
   -9.9696   -5.5367    9.3166 O   0  0  0  0  0  0  0  0  0  0  0  0
  1 11  1  0  0  0  0
  3 13  1  6  0  0  0
  3 17  2  0  0  0  0
  3 20  1  0  0  0  0
  3 26  1  0  0  0  0
  4 14  1  6  0  0  0
  4 18  1  0  0  0  0
  4 21  2  0  0  0  0
  4 20  1  0  0  0  0
  5 19  1  0  0  0  0
  5  7  1  0  0  0  0
  6  7  2  0  0  0  0
  6 12  1  0  0  0  0
  7  8  1  0  0  0  0
  8  9  1  0  0  0  0
  8 10  2  0  0  0  0
 10 11  1  0  0  0  0
 11 12  2  0  0  0  0
 15 23  1  0  0  0  0
 15 16  1  0  0  0  0
 16 19  1  0  0  0  0
 19 22  1  0  0  0  0
 22  2  1  1  0  0  0
 22 23  1  0  0  0  0
 23 24  1  6  0  0  0
 24 25  1  0  0  0  0
 25 26  1  0  0  0  0
M  CHG  2  13  -1  18  -1
M  END
>  <CHROM.1>
100.58147273,5.00159687,-80.49111783,-43.58525435,52.83995784,56.67702327
-179.71081882,43.47768400,-7.05663547,-6.50947774,8.56247541,-0.26706354
-0.42631664,2.23069030

>  <Name>
ligand

>  <RI>
0

>  <Rbt.Current_Directory>
/home/itssahil/PROJECTS/Mol_Feturizer/New_Systems/rnas/2GDI

>  <Rbt.Executable>
rbdock ($Id: //depot/dev/client3/rdock/2013.1/src/exe/rbdock.cxx#4 $)

>  <Rbt.Library>
libRbt.so (2013.1, Build901 2013/11/27)

>  <Rbt.Parameter_File>
/export/apps/rDock/src/rDock_2013.1_src/data/scripts/dock_solv.prm

>  <Rbt.Receptor>
prm/blind_docking_20.prm

>  <SCORE>
-11.1295

>  <SCORE.INTER>
-10.0526

>  <SCORE.INTER.CONST>
1

>  <SCORE.INTER.POLAR>
0

>  <SCORE.INTER.ROT>
8

>  <SCORE.INTER.SOLV>
17.3988

>  <SCORE.INTER.VDW>
-21.4346

>  <SCORE.INTER.norm>
-0.386637

>  <SCORE.INTRA>
-1.07696

>  <SCORE.INTRA.DIHEDRAL>
-0.0142021

>  <SCORE.INTRA.DIHEDRAL.0>
8.13976

>  <SCORE.INTRA.POLAR>
0

>  <SCORE.INTRA.POLAR.0>
0

>  <SCORE.INTRA.REPUL>
0

>  <SCORE.INTRA.REPUL.0>
0

>  <SCORE.INTRA.SOLV>
-0.21989

>  <SCORE.INTRA.SOLV.lig_0>
-82.9561

>  <SCORE.INTRA.VDW>
-0.959912

>  <SCORE.INTRA.VDW.0>
-3.29171

>  <SCORE.INTRA.norm>
-0.0414215

>  <SCORE.RESTR>
0

>  <SCORE.RESTR.CAVITY>
0

>  <SCORE.RESTR.norm>
0

>  <SCORE.SYSTEM>
0

>  <SCORE.SYSTEM.CONST>
0

>  <SCORE.SYSTEM.DIHEDRAL>
0

>  <SCORE.SYSTEM.SOLV>
0

>  <SCORE.SYSTEM.norm>
0

>  <SCORE.heavy>
26

>  <SCORE.norm>
-0.428058

>  <RMSD>
16.352

$$$$
ligand
 OpenBabel11021811433D
libRbt.so/2013.1/901 2013/11/27
 26 27  0  0  0  0  0  0  0  0999 V2000
   -5.0327   -8.5022    3.9013 C   0  0  0  0  0  0  0  0  0  0  0  0
   -5.6274   -6.0315   11.0186 C   0  0  0  0  0  0  0  0  0  0  0  0
  -10.2057   -6.3260    9.9759 P   0  0  1  0  0  0  0  0  0  0  0  0
   -9.3745   -5.5705    7.2931 P   0  0  1  0  0  0  0  0  0  0  0  0
   -3.7829   -5.6309    8.7207 C   0  0  0  0  0  0  0  0  0  0  0  0
   -5.3402   -6.2249    6.8202 C   0  0  0  0  0  0  0  0  0  0  0  0
   -4.1155   -6.3985    7.4524 C   0  0  0  0  0  0  0  0  0  0  0  0
   -3.1983   -7.2751    6.8962 C   0  0  0  0  0  0  0  0  0  0  0  0
   -1.9912   -7.4781    7.4777 N   0  0  0  0  0  0  0  0  0  0  0  0
   -3.5106   -7.9363    5.7605 N   0  0  0  0  0  0  0  0  0  0  0  0
   -4.7090   -7.7519    5.1648 C   0  0  0  0  0  0  0  0  0  0  0  0
   -5.6189   -6.8989    5.6957 N   0  0  0  0  0  0  0  0  0  0  0  0
  -11.4545   -5.4862   10.0381 O   0  5  0  0  0  0  0  0  0  0  0  0
   -9.2764   -6.3179    5.9988 O   0  0  0  0  0  0  0  0  0  0  0  0
   -6.3655   -2.6199    8.9467 S   0  0  0  0  0  0  0  0  0  0  0  0
   -5.0386   -3.5350    8.3024 C   0  0  0  0  0  0  0  0  0  0  0  0
  -10.1774   -7.5815   10.7992 O   0  0  0  0  0  0  0  0  0  0  0  0
  -10.4709   -4.5624    7.2001 O   0  5  0  0  0  0  0  0  0  0  0  0
   -4.8367   -4.6658    9.0340 N   0  0  0  0  0  0  0  0  0  0  0  0
   -9.8746   -6.6258    8.4179 O   0  0  0  0  0  0  0  0  0  0  0  0
   -8.0901   -4.9888    7.8176 O   0  0  0  0  0  0  0  0  0  0  0  0
   -5.6804   -4.8505   10.0864 C   0  0  1  0  0  0  0  0  0  0  0  0
   -6.6790   -3.7532   10.2014 C   0  0  1  0  0  0  0  0  0  0  0  0
   -7.8123   -3.4495   11.1451 C   0  0  0  0  0  0  0  0  0  0  0  0
   -9.0993   -4.0057   10.5565 C   0  0  0  0  0  0  0  0  0  0  0  0
   -8.9743   -5.4200   10.4730 O   0  0  0  0  0  0  0  0  0  0  0  0
  1 11  1  0  0  0  0
  3 13  1  1  0  0  0
  3 17  2  0  0  0  0
  3 20  1  0  0  0  0
  3 26  1  0  0  0  0
  4 14  1  6  0  0  0
  4 18  1  0  0  0  0
  4 21  2  0  0  0  0
  4 20  1  0  0  0  0
  5 19  1  0  0  0  0
  5  7  1  0  0  0  0
  6  7  2  0  0  0  0
  6 12  1  0  0  0  0
  7  8  1  0  0  0  0
  8  9  1  0  0  0  0
  8 10  2  0  0  0  0
 10 11  1  0  0  0  0
 11 12  2  0  0  0  0
 15 23  1  0  0  0  0
 15 16  1  0  0  0  0
 16 19  1  0  0  0  0
 19 22  1  0  0  0  0
 22  2  1  6  0  0  0
 22 23  1  0  0  0  0
 23 24  1  1  0  0  0
 24 25  1  0  0  0  0
 25 26  1  0  0  0  0
M  CHG  2  13  -1  18  -1
M  END
>  <CHROM.1>
69.08731221,-71.28699918,-5.54389837,-177.15248865,87.61257710,63.34774117
176.11178300,-15.66320929,-7.16109736,-5.65688467,8.35865343,0.52574345,-0.10608460
-2.22476632

>  <Name>
ligand

>  <RI>
0

>  <Rbt.Current_Directory>
/home/itssahil/PROJECTS/Mol_Feturizer/New_Systems/rnas/2GDI

>  <Rbt.Executable>
rbdock ($Id: //depot/dev/client3/rdock/2013.1/src/exe/rbdock.cxx#4 $)

>  <Rbt.Library>
libRbt.so (2013.1, Build901 2013/11/27)

>  <Rbt.Parameter_File>
/export/apps/rDock/src/rDock_2013.1_src/data/scripts/dock_solv.prm

>  <Rbt.Receptor>
prm/blind_docking_20.prm

>  <SCORE>
-5.99516

>  <SCORE.INTER>
-5.98918

>  <SCORE.INTER.CONST>
1

>  <SCORE.INTER.POLAR>
0

>  <SCORE.INTER.ROT>
8

>  <SCORE.INTER.SOLV>
17.7086

>  <SCORE.INTER.VDW>
-18.829

>  <SCORE.INTER.norm>
-0.230353

>  <SCORE.INTRA>
-0.00660862

>  <SCORE.INTRA.DIHEDRAL>
-0.878924

>  <SCORE.INTRA.DIHEDRAL.0>
8.13976

>  <SCORE.INTRA.POLAR>
0

>  <SCORE.INTRA.POLAR.0>
0

>  <SCORE.INTRA.REPUL>
0

>  <SCORE.INTRA.REPUL.0>
0

>  <SCORE.INTRA.SOLV>
4.93654

>  <SCORE.INTRA.SOLV.lig_0>
-82.9561

>  <SCORE.INTRA.VDW>
-2.03542

>  <SCORE.INTRA.VDW.0>
-3.29171

>  <SCORE.INTRA.norm>
-0.000254178

>  <SCORE.RESTR>
0.000632874

>  <SCORE.RESTR.CAVITY>
0.000632874

>  <SCORE.RESTR.norm>
2.43413e-05

>  <SCORE.SYSTEM>
0

>  <SCORE.SYSTEM.CONST>
0

>  <SCORE.SYSTEM.DIHEDRAL>
0

>  <SCORE.SYSTEM.SOLV>
0

>  <SCORE.SYSTEM.norm>
0

>  <SCORE.heavy>
26

>  <SCORE.norm>
-0.230583

>  <RMSD>
16.471

$$$$
ligand
 OpenBabel11021811433D
libRbt.so/2013.1/901 2013/11/27
 26 27  0  0  0  0  0  0  0  0999 V2000
   -5.1331   -9.0280    5.1676 C   0  0  0  0  0  0  0  0  0  0  0  0
   -5.9723   -5.8773   11.5470 C   0  0  0  0  0  0  0  0  0  0  0  0
   -9.8610   -6.7324    9.8558 P   0  0  1  0  0  0  0  0  0  0  0  0
   -9.4381   -5.7280    7.1593 P   0  0  1  0  0  0  0  0  0  0  0  0
   -4.0164   -5.2875    9.3860 C   0  0  0  0  0  0  0  0  0  0  0  0
   -4.7352   -7.5657    8.5593 C   0  0  0  0  0  0  0  0  0  0  0  0
   -4.3013   -6.2782    8.2698 C   0  0  0  0  0  0  0  0  0  0  0  0
   -4.1465   -5.9112    6.9431 C   0  0  0  0  0  0  0  0  0  0  0  0
   -3.7245   -4.6668    6.6117 N   0  0  0  0  0  0  0  0  0  0  0  0
   -4.4189   -6.8044    5.9671 N   0  0  0  0  0  0  0  0  0  0  0  0
   -4.8381   -8.0515    6.2738 C   0  0  0  0  0  0  0  0  0  0  0  0
   -4.9941   -8.4281    7.5665 N   0  0  0  0  0  0  0  0  0  0  0  0
  -11.3466   -6.7562   10.1025 O   0  5  0  0  0  0  0  0  0  0  0  0
  -10.6090   -4.8060    7.3095 O   0  0  0  0  0  0  0  0  0  0  0  0
   -6.8809   -2.5343    9.4315 S   0  0  0  0  0  0  0  0  0  0  0  0
   -5.4316   -3.3157    8.8819 C   0  0  0  0  0  0  0  0  0  0  0  0
   -9.0143   -7.6813   10.6543 O   0  0  0  0  0  0  0  0  0  0  0  0
   -8.1903   -5.0108    7.5541 O   0  5  0  0  0  0  0  0  0  0  0  0
   -5.1760   -4.4281    9.6248 N   0  0  0  0  0  0  0  0  0  0  0  0
   -9.6096   -6.9026    8.2637 O   0  0  0  0  0  0  0  0  0  0  0  0
   -9.3147   -6.4262    5.8325 O   0  0  0  0  0  0  0  0  0  0  0  0
   -6.0705   -4.6994   10.6146 C   0  0  1  0  0  0  0  0  0  0  0  0
   -7.1738   -3.7018   10.6596 C   0  0  1  0  0  0  0  0  0  0  0  0
   -8.3943   -3.5131   11.5210 C   0  0  0  0  0  0  0  0  0  0  0  0
   -9.1916   -4.8079   11.5270 C   0  0  0  0  0  0  0  0  0  0  0  0
   -9.3282   -5.2513   10.1825 O   0  0  0  0  0  0  0  0  0  0  0  0
  1 11  1  0  0  0  0
  3 13  1  1  0  0  0
  3 17  2  0  0  0  0
  3 20  1  0  0  0  0
  3 26  1  0  0  0  0
  4 14  1  1  0  0  0
  4 18  1  0  0  0  0
  4 21  2  0  0  0  0
  4 20  1  0  0  0  0
  5 19  1  0  0  0  0
  5  7  1  0  0  0  0
  6  7  2  0  0  0  0
  6 12  1  0  0  0  0
  7  8  1  0  0  0  0
  8  9  1  0  0  0  0
  8 10  2  0  0  0  0
 10 11  1  0  0  0  0
 11 12  2  0  0  0  0
 15 23  1  0  0  0  0
 15 16  1  0  0  0  0
 16 19  1  0  0  0  0
 19 22  1  0  0  0  0
 22  2  1  6  0  0  0
 22 23  1  0  0  0  0
 23 24  1  1  0  0  0
 24 25  1  0  0  0  0
 25 26  1  0  0  0  0
M  CHG  2  13  -1  18  -1
M  END
>  <CHROM.1>
92.81867209,-83.10584974,-95.86351389,-52.21941164,128.42790981,-48.00952917
167.74790102,74.92062179,-7.32610184,-5.69738083,8.68855674,0.47343512,-0.18308732
-2.30199812

>  <Name>
ligand

>  <RI>
0

>  <Rbt.Current_Directory>
/home/itssahil/PROJECTS/Mol_Feturizer/New_Systems/rnas/2GDI

>  <Rbt.Executable>
rbdock ($Id: //depot/dev/client3/rdock/2013.1/src/exe/rbdock.cxx#4 $)

>  <Rbt.Library>
libRbt.so (2013.1, Build901 2013/11/27)

>  <Rbt.Parameter_File>
/export/apps/rDock/src/rDock_2013.1_src/data/scripts/dock_solv.prm

>  <Rbt.Receptor>
prm/blind_docking_20.prm

>  <SCORE>
-7.2371

>  <SCORE.INTER>
-6.15651

>  <SCORE.INTER.CONST>
1

>  <SCORE.INTER.POLAR>
0

>  <SCORE.INTER.ROT>
8

>  <SCORE.INTER.SOLV>
20.3079

>  <SCORE.INTER.VDW>
-19.807

>  <SCORE.INTER.norm>
-0.236789

>  <SCORE.INTRA>
-1.08059

>  <SCORE.INTRA.DIHEDRAL>
-0.435468

>  <SCORE.INTRA.DIHEDRAL.0>
8.13976

>  <SCORE.INTRA.POLAR>
0

>  <SCORE.INTRA.POLAR.0>
0

>  <SCORE.INTRA.REPUL>
0

>  <SCORE.INTRA.REPUL.0>
0

>  <SCORE.INTRA.SOLV>
2.8176

>  <SCORE.INTRA.SOLV.lig_0>
-82.9561

>  <SCORE.INTRA.VDW>
-2.27165

>  <SCORE.INTRA.VDW.0>
-3.29171

>  <SCORE.INTRA.norm>
-0.0415611

>  <SCORE.RESTR>
0

>  <SCORE.RESTR.CAVITY>
0

>  <SCORE.RESTR.norm>
0

>  <SCORE.SYSTEM>
0

>  <SCORE.SYSTEM.CONST>
0

>  <SCORE.SYSTEM.DIHEDRAL>
0

>  <SCORE.SYSTEM.SOLV>
0

>  <SCORE.SYSTEM.norm>
0

>  <SCORE.heavy>
26

>  <SCORE.norm>
-0.27835

>  <RMSD>
16.521

$$$$
ligand
 OpenBabel11021811433D
libRbt.so/2013.1/901 2013/11/27
 26 27  0  0  0  0  0  0  0  0999 V2000
   -2.8918   -3.4754    3.1547 C   0  0  0  0  0  0  0  0  0  0  0  0
   -8.0035   -3.9220    9.5093 C   0  0  0  0  0  0  0  0  0  0  0  0
   -9.3943   -7.8878   12.0443 P   0  0  1  0  0  0  0  0  0  0  0  0
   -6.5416   -7.3233   11.9938 P   0  0  1  0  0  0  0  0  0  0  0  0
   -5.4411   -4.6277    8.1754 C   0  0  0  0  0  0  0  0  0  0  0  0
   -4.9620   -3.1030    6.2167 C   0  0  0  0  0  0  0  0  0  0  0  0
   -4.7746   -4.3287    6.8432 C   0  0  0  0  0  0  0  0  0  0  0  0
   -3.9572   -5.2678    6.2358 C   0  0  0  0  0  0  0  0  0  0  0  0
   -3.7452   -6.4776    6.8083 N   0  0  0  0  0  0  0  0  0  0  0  0
   -3.3640   -4.9747    5.0582 N   0  0  0  0  0  0  0  0  0  0  0  0
   -3.5630   -3.7761    4.4675 C   0  0  0  0  0  0  0  0  0  0  0  0
   -4.3604   -2.8457    5.0470 N   0  0  0  0  0  0  0  0  0  0  0  0
  -10.2199   -9.1263   12.2746 O   0  5  0  0  0  0  0  0  0  0  0  0
   -5.3510   -8.0767   12.5023 O   0  0  0  0  0  0  0  0  0  0  0  0
   -8.2670   -7.2390    7.1845 S   0  0  0  0  0  0  0  0  0  0  0  0
   -6.6811   -6.5334    7.1879 C   0  0  0  0  0  0  0  0  0  0  0  0
   -9.7176   -6.6793   12.8749 O   0  0  0  0  0  0  0  0  0  0  0  0
   -6.4067   -7.1208   10.5214 O   0  5  0  0  0  0  0  0  0  0  0  0
   -6.6507   -5.4274    7.9820 N   0  0  0  0  0  0  0  0  0  0  0  0
   -7.8296   -8.2934   12.1637 O   0  0  0  0  0  0  0  0  0  0  0  0
   -6.8824   -6.0554   12.7283 O   0  0  0  0  0  0  0  0  0  0  0  0
   -7.8231   -5.1031    8.5932 C   0  0  1  0  0  0  0  0  0  0  0  0
   -8.9097   -6.0652    8.2644 C   0  0  1  0  0  0  0  0  0  0  0  0
  -10.3613   -6.1910    8.6440 C   0  0  0  0  0  0  0  0  0  0  0  0
  -10.4559   -6.3977   10.1475 C   0  0  0  0  0  0  0  0  0  0  0  0
   -9.5722   -7.4527   10.5070 O   0  0  0  0  0  0  0  0  0  0  0  0
  1 11  1  0  0  0  0
  3 13  1  1  0  0  0
  3 17  2  0  0  0  0
  3 20  1  0  0  0  0
  3 26  1  0  0  0  0
  4 14  1  1  0  0  0
  4 18  1  0  0  0  0
  4 21  2  0  0  0  0
  4 20  1  0  0  0  0
  5 19  1  0  0  0  0
  5  7  1  0  0  0  0
  6  7  2  0  0  0  0
  6 12  1  0  0  0  0
  7  8  1  0  0  0  0
  8  9  1  0  0  0  0
  8 10  2  0  0  0  0
 10 11  1  0  0  0  0
 11 12  2  0  0  0  0
 15 23  1  0  0  0  0
 15 16  1  0  0  0  0
 16 19  1  0  0  0  0
 19 22  1  0  0  0  0
 22  2  1  1  0  0  0
 22 23  1  0  0  0  0
 23 24  1  6  0  0  0
 24 25  1  0  0  0  0
 25 26  1  0  0  0  0
M  CHG  2  13  -1  18  -1
M  END
>  <CHROM.1>
179.79116985,47.41129956,99.33418916,167.10367708,118.69202140,-50.42417621
177.77454636,100.59707114,-7.00215654,-6.18656763,9.09391751,1.00673155,-0.11229030
-1.16904031

>  <Name>
ligand

>  <RI>
0

>  <Rbt.Current_Directory>
/home/itssahil/PROJECTS/Mol_Feturizer/New_Systems/rnas/2GDI

>  <Rbt.Executable>
rbdock ($Id: //depot/dev/client3/rdock/2013.1/src/exe/rbdock.cxx#4 $)

>  <Rbt.Library>
libRbt.so (2013.1, Build901 2013/11/27)

>  <Rbt.Parameter_File>
/export/apps/rDock/src/rDock_2013.1_src/data/scripts/dock_solv.prm

>  <Rbt.Receptor>
prm/blind_docking_20.prm

>  <SCORE>
-9.8065

>  <SCORE.INTER>
-10.3919

>  <SCORE.INTER.CONST>
1

>  <SCORE.INTER.POLAR>
0

>  <SCORE.INTER.ROT>
8

>  <SCORE.INTER.SOLV>
11.1411

>  <SCORE.INTER.VDW>
-19.575

>  <SCORE.INTER.norm>
-0.399688

>  <SCORE.INTRA>
0.574183

>  <SCORE.INTRA.DIHEDRAL>
-1.12532

>  <SCORE.INTRA.DIHEDRAL.0>
8.13976

>  <SCORE.INTRA.POLAR>
0

>  <SCORE.INTRA.POLAR.0>
0

>  <SCORE.INTRA.REPUL>
0

>  <SCORE.INTRA.REPUL.0>
0

>  <SCORE.INTRA.SOLV>
5.77369

>  <SCORE.INTRA.SOLV.lig_0>
-82.9561

>  <SCORE.INTRA.VDW>
-1.75

>  <SCORE.INTRA.VDW.0>
-3.29171

>  <SCORE.INTRA.norm>
0.022084

>  <SCORE.RESTR>
0.0111919

>  <SCORE.RESTR.CAVITY>
0.0111919

>  <SCORE.RESTR.norm>
0.000430459

>  <SCORE.SYSTEM>
0

>  <SCORE.SYSTEM.CONST>
0

>  <SCORE.SYSTEM.DIHEDRAL>
0

>  <SCORE.SYSTEM.SOLV>
0

>  <SCORE.SYSTEM.norm>
0

>  <SCORE.heavy>
26

>  <SCORE.norm>
-0.377173

>  <RMSD>
16.623

$$$$
ligand
 OpenBabel11021811433D
libRbt.so/2013.1/901 2013/11/27
 26 27  0  0  0  0  0  0  0  0999 V2000
   -3.2232   -7.6052   12.5978 C   0  0  0  0  0  0  0  0  0  0  0  0
   -7.7426   -6.8693    6.9588 C   0  0  0  0  0  0  0  0  0  0  0  0
  -10.3880   -5.5085   10.4151 P   0  0  1  0  0  0  0  0  0  0  0  0
   -8.8586   -7.4105   11.9969 P   0  0  1  0  0  0  0  0  0  0  0  0
   -5.0533   -5.7155    7.4877 C   0  0  0  0  0  0  0  0  0  0  0  0
   -5.3378   -6.0328    9.9794 C   0  0  0  0  0  0  0  0  0  0  0  0
   -4.5633   -6.2066    8.8394 C   0  0  0  0  0  0  0  0  0  0  0  0
   -3.3414   -6.8485    8.9572 C   0  0  0  0  0  0  0  0  0  0  0  0
   -2.5505   -7.0400    7.8735 N   0  0  0  0  0  0  0  0  0  0  0  0
   -2.9324   -7.2889   10.1669 N   0  0  0  0  0  0  0  0  0  0  0  0
   -3.7028   -7.1066   11.2615 C   0  0  0  0  0  0  0  0  0  0  0  0
   -4.9007   -6.4796   11.1650 N   0  0  0  0  0  0  0  0  0  0  0  0
  -11.8455   -5.1378   10.3329 O   0  5  0  0  0  0  0  0  0  0  0  0
   -8.2329   -7.9423   10.7442 O   0  0  0  0  0  0  0  0  0  0  0  0
   -7.8647   -2.9742    8.0944 S   0  0  0  0  0  0  0  0  0  0  0  0
   -6.2522   -3.6125    8.0213 C   0  0  0  0  0  0  0  0  0  0  0  0
   -9.4010   -4.3903   10.5895 O   0  0  0  0  0  0  0  0  0  0  0  0
   -7.9840   -6.3477   12.5737 O   0  5  0  0  0  0  0  0  0  0  0  0
   -6.2711   -4.9186    7.6360 N   0  0  0  0  0  0  0  0  0  0  0  0
  -10.2176   -6.6401   11.5628 O   0  0  0  0  0  0  0  0  0  0  0  0
   -9.2756   -8.4382   13.0134 O   0  0  0  0  0  0  0  0  0  0  0  0
   -7.5017   -5.4483    7.3936 C   0  0  1  0  0  0  0  0  0  0  0  0
   -8.5883   -4.4511    7.5920 C   0  0  1  0  0  0  0  0  0  0  0  0
  -10.0887   -4.4842    7.4717 C   0  0  0  0  0  0  0  0  0  0  0  0
  -10.5745   -5.8841    7.8133 C   0  0  0  0  0  0  0  0  0  0  0  0
   -9.9920   -6.2657    9.0535 O   0  0  0  0  0  0  0  0  0  0  0  0
  1 11  1  0  0  0  0
  3 13  1  6  0  0  0
  3 17  2  0  0  0  0
  3 20  1  0  0  0  0
  3 26  1  0  0  0  0
  4 14  1  6  0  0  0
  4 18  1  0  0  0  0
  4 21  2  0  0  0  0
  4 20  1  0  0  0  0
  5 19  1  0  0  0  0
  5  7  1  0  0  0  0
  6  7  2  0  0  0  0
  6 12  1  0  0  0  0
  7  8  1  0  0  0  0
  8  9  1  0  0  0  0
  8 10  2  0  0  0  0
 10 11  1  0  0  0  0
 11 12  2  0  0  0  0
 15 23  1  0  0  0  0
 15 16  1  0  0  0  0
 16 19  1  0  0  0  0
 19 22  1  0  0  0  0
 22  2  1  6  0  0  0
 22 23  1  0  0  0  0
 23 24  1  1  0  0  0
 24 25  1  0  0  0  0
 25 26  1  0  0  0  0
M  CHG  2  13  -1  18  -1
M  END
>  <CHROM.1>
177.35724221,79.94765688,8.22592731,-50.67099460,-147.85196521,50.53151988
66.60664220,35.27743007,-7.53167454,-5.97374952,9.74105655,0.04997491,-0.16647264
2.13503907

>  <Name>
ligand

>  <RI>
0

>  <Rbt.Current_Directory>
/home/itssahil/PROJECTS/Mol_Feturizer/New_Systems/rnas/2GDI

>  <Rbt.Executable>
rbdock ($Id: //depot/dev/client3/rdock/2013.1/src/exe/rbdock.cxx#4 $)

>  <Rbt.Library>
libRbt.so (2013.1, Build901 2013/11/27)

>  <Rbt.Parameter_File>
/export/apps/rDock/src/rDock_2013.1_src/data/scripts/dock_solv.prm

>  <Rbt.Receptor>
prm/blind_docking_20.prm

>  <SCORE>
-8.51139

>  <SCORE.INTER>
-8.09507

>  <SCORE.INTER.CONST>
1

>  <SCORE.INTER.POLAR>
0

>  <SCORE.INTER.ROT>
8

>  <SCORE.INTER.SOLV>
12.1595

>  <SCORE.INTER.VDW>
-18.3832

>  <SCORE.INTER.norm>
-0.311349

>  <SCORE.INTRA>
-0.41632

>  <SCORE.INTRA.DIHEDRAL>
-1.46225

>  <SCORE.INTRA.DIHEDRAL.0>
8.13976

>  <SCORE.INTRA.POLAR>
0

>  <SCORE.INTRA.POLAR.0>
0

>  <SCORE.INTRA.REPUL>
0

>  <SCORE.INTRA.REPUL.0>
0

>  <SCORE.INTRA.SOLV>
1.83155

>  <SCORE.INTRA.SOLV.lig_0>
-82.9561

>  <SCORE.INTRA.VDW>
-0.600971

>  <SCORE.INTRA.VDW.0>
-3.29171

>  <SCORE.INTRA.norm>
-0.0160123

>  <SCORE.RESTR>
0

>  <SCORE.RESTR.CAVITY>
0

>  <SCORE.RESTR.norm>
0

>  <SCORE.SYSTEM>
0

>  <SCORE.SYSTEM.CONST>
0

>  <SCORE.SYSTEM.DIHEDRAL>
0

>  <SCORE.SYSTEM.SOLV>
0

>  <SCORE.SYSTEM.norm>
0

>  <SCORE.heavy>
26

>  <SCORE.norm>
-0.327361

>  <RMSD>
16.656

$$$$
ligand
 OpenBabel11021811433D
libRbt.so/2013.1/901 2013/11/27
 26 27  0  0  0  0  0  0  0  0999 V2000
   -1.4560   -9.8447    6.0163 C   0  0  0  0  0  0  0  0  0  0  0  0
   -6.4125   -2.9877    7.9572 C   0  0  0  0  0  0  0  0  0  0  0  0
  -10.0244   -5.1078   10.9008 P   0  0  1  0  0  0  0  0  0  0  0  0
   -8.0337   -7.1952   11.2732 P   0  0  1  0  0  0  0  0  0  0  0  0
   -4.4637   -5.2006    7.5717 C   0  0  0  0  0  0  0  0  0  0  0  0
   -3.4169   -6.6955    5.8225 C   0  0  0  0  0  0  0  0  0  0  0  0
   -3.6772   -6.4342    7.1618 C   0  0  0  0  0  0  0  0  0  0  0  0
   -3.1939   -7.3134    8.1169 C   0  0  0  0  0  0  0  0  0  0  0  0
   -3.4235   -7.1010    9.4355 N   0  0  0  0  0  0  0  0  0  0  0  0
   -2.4853   -8.3963    7.7299 N   0  0  0  0  0  0  0  0  0  0  0  0
   -2.2466   -8.6300    6.4209 C   0  0  0  0  0  0  0  0  0  0  0  0
   -2.7127   -7.7810    5.4727 N   0  0  0  0  0  0  0  0  0  0  0  0
  -11.5085   -5.0118   11.1386 O   0  5  0  0  0  0  0  0  0  0  0  0
   -7.1585   -6.2783   12.0712 O   0  0  0  0  0  0  0  0  0  0  0  0
   -8.1244   -6.4161    6.6186 S   0  0  0  0  0  0  0  0  0  0  0  0
   -6.4088   -6.5539    6.8438 C   0  0  0  0  0  0  0  0  0  0  0  0
   -9.1583   -4.0427   11.5093 O   0  0  0  0  0  0  0  0  0  0  0  0
   -8.1238   -8.5162   11.9618 O   0  5  0  0  0  0  0  0  0  0  0  0
   -5.8888   -5.3780    7.2928 N   0  0  0  0  0  0  0  0  0  0  0  0
   -9.5377   -6.5923   11.3323 O   0  0  0  0  0  0  0  0  0  0  0  0
   -7.6984   -7.3206    9.8120 O   0  0  0  0  0  0  0  0  0  0  0  0
   -6.7798   -4.3639    7.4697 C   0  0  1  0  0  0  0  0  0  0  0  0
   -8.1706   -4.7782    7.1404 C   0  0  1  0  0  0  0  0  0  0  0  0
   -9.5095   -4.0895    7.1504 C   0  0  0  0  0  0  0  0  0  0  0  0
   -9.9181   -3.8388    8.5935 C   0  0  0  0  0  0  0  0  0  0  0  0
   -9.7727   -5.0566    9.3139 O   0  0  0  0  0  0  0  0  0  0  0  0
  1 11  1  0  0  0  0
  3 13  1  1  0  0  0
  3 17  2  0  0  0  0
  3 20  1  0  0  0  0
  3 26  1  0  0  0  0
  4 14  1  1  0  0  0
  4 18  1  0  0  0  0
  4 21  2  0  0  0  0
  4 20  1  0  0  0  0
  5 19  1  0  0  0  0
  5  7  1  0  0  0  0
  6  7  2  0  0  0  0
  6 12  1  0  0  0  0
  7  8  1  0  0  0  0
  8  9  1  0  0  0  0
  8 10  2  0  0  0  0
 10 11  1  0  0  0  0
 11 12  2  0  0  0  0
 15 23  1  0  0  0  0
 15 16  1  0  0  0  0
 16 19  1  0  0  0  0
 19 22  1  0  0  0  0
 22  2  1  1  0  0  0
 22 23  1  0  0  0  0
 23 24  1  6  0  0  0
 24 25  1  0  0  0  0
 25 26  1  0  0  0  0
M  CHG  2  13  -1  18  -1
M  END
>  <CHROM.1>
-179.81148257,5.63472114,75.25495213,56.04898827,111.22473338,-49.93893115
175.58856174,73.46031377,-6.91165797,-6.18765948,8.79317538,-0.26008596,-0.54325550
2.11755907

>  <Name>
ligand

>  <RI>
0

>  <Rbt.Current_Directory>
/home/itssahil/PROJECTS/Mol_Feturizer/New_Systems/rnas/2GDI

>  <Rbt.Executable>
rbdock ($Id: //depot/dev/client3/rdock/2013.1/src/exe/rbdock.cxx#4 $)

>  <Rbt.Library>
libRbt.so (2013.1, Build901 2013/11/27)

>  <Rbt.Parameter_File>
/export/apps/rDock/src/rDock_2013.1_src/data/scripts/dock_solv.prm

>  <Rbt.Receptor>
prm/blind_docking_20.prm

>  <SCORE>
-6.26669

>  <SCORE.INTER>
-4.50762

>  <SCORE.INTER.CONST>
1

>  <SCORE.INTER.POLAR>
0

>  <SCORE.INTER.ROT>
8

>  <SCORE.INTER.SOLV>
12.9037

>  <SCORE.INTER.VDW>
-16.2397

>  <SCORE.INTER.norm>
-0.17337

>  <SCORE.INTRA>
-1.85982

>  <SCORE.INTRA.DIHEDRAL>
-2.70919

>  <SCORE.INTRA.DIHEDRAL.0>
8.13976

>  <SCORE.INTRA.POLAR>
0

>  <SCORE.INTRA.POLAR.0>
0

>  <SCORE.INTRA.REPUL>
0

>  <SCORE.INTRA.REPUL.0>
0

>  <SCORE.INTRA.SOLV>
1.2502

>  <SCORE.INTRA.SOLV.lig_0>
-82.9561

>  <SCORE.INTRA.VDW>
-1.13032

>  <SCORE.INTRA.VDW.0>
-3.29171

>  <SCORE.INTRA.norm>
-0.0715315

>  <SCORE.RESTR>
0.100747

>  <SCORE.RESTR.CAVITY>
0.100747

>  <SCORE.RESTR.norm>
0.00387489

>  <SCORE.SYSTEM>
0

>  <SCORE.SYSTEM.CONST>
0

>  <SCORE.SYSTEM.DIHEDRAL>
0

>  <SCORE.SYSTEM.SOLV>
0

>  <SCORE.SYSTEM.norm>
0

>  <SCORE.heavy>
26

>  <SCORE.norm>
-0.241027

>  <RMSD>
16.681

$$$$
ligand
 OpenBabel11021811433D
libRbt.so/2013.1/901 2013/11/27
 26 27  0  0  0  0  0  0  0  0999 V2000
   -5.1471   -8.7501    4.8500 C   0  0  0  0  0  0  0  0  0  0  0  0
   -6.1394   -4.6238   10.2918 C   0  0  0  0  0  0  0  0  0  0  0  0
  -10.2442   -5.8787   10.1343 P   0  0  1  0  0  0  0  0  0  0  0  0
   -9.5552   -4.9438    7.4679 P   0  0  1  0  0  0  0  0  0  0  0  0
   -3.5953   -6.0328    9.6709 C   0  0  0  0  0  0  0  0  0  0  0  0
   -4.2419   -8.1183    8.3971 C   0  0  0  0  0  0  0  0  0  0  0  0
   -3.9954   -6.7512    8.3933 C   0  0  0  0  0  0  0  0  0  0  0  0
   -4.1348   -6.0536    7.2047 C   0  0  0  0  0  0  0  0  0  0  0  0
   -3.9039   -4.7193    7.1516 N   0  0  0  0  0  0  0  0  0  0  0  0
   -4.5050   -6.7110    6.0842 N   0  0  0  0  0  0  0  0  0  0  0  0
   -4.7376   -8.0414    6.1126 C   0  0  0  0  0  0  0  0  0  0  0  0
   -4.6050   -8.7401    7.2666 N   0  0  0  0  0  0  0  0  0  0  0  0
  -11.4266   -5.4932   10.9838 O   0  5  0  0  0  0  0  0  0  0  0  0
  -10.5806   -5.7993    6.7897 O   0  0  0  0  0  0  0  0  0  0  0  0
   -5.3555   -7.7041   12.8166 S   0  0  0  0  0  0  0  0  0  0  0  0
   -4.1333   -7.4899   11.6027 C   0  0  0  0  0  0  0  0  0  0  0  0
  -10.2433   -7.2572    9.5389 O   0  0  0  0  0  0  0  0  0  0  0  0
   -9.5800   -3.5758    6.8718 O   0  5  0  0  0  0  0  0  0  0  0  0
   -4.4468   -6.4458   10.7864 N   0  0  0  0  0  0  0  0  0  0  0  0
  -10.0421   -4.7382    9.0007 O   0  0  0  0  0  0  0  0  0  0  0  0
   -8.1675   -5.5187    7.5511 O   0  0  0  0  0  0  0  0  0  0  0  0
   -5.6114   -5.7999   11.0694 C   0  0  1  0  0  0  0  0  0  0  0  0
   -6.2996   -6.3816   12.2536 C   0  0  1  0  0  0  0  0  0  0  0  0
   -7.5783   -6.0780   12.9883 C   0  0  0  0  0  0  0  0  0  0  0  0
   -8.7466   -6.6125   12.1750 C   0  0  0  0  0  0  0  0  0  0  0  0
   -8.9235   -5.7680   11.0443 O   0  0  0  0  0  0  0  0  0  0  0  0
  1 11  1  0  0  0  0
  3 13  1  1  0  0  0
  3 17  2  0  0  0  0
  3 20  1  0  0  0  0
  3 26  1  0  0  0  0
  4 14  1  6  0  0  0
  4 18  1  0  0  0  0
  4 21  2  0  0  0  0
  4 20  1  0  0  0  0
  5 19  1  0  0  0  0
  5  7  1  0  0  0  0
  6  7  2  0  0  0  0
  6 12  1  0  0  0  0
  7  8  1  0  0  0  0
  8  9  1  0  0  0  0
  8 10  2  0  0  0  0
 10 11  1  0  0  0  0
 11 12  2  0  0  0  0
 15 23  1  0  0  0  0
 15 16  1  0  0  0  0
 16 19  1  0  0  0  0
 19 22  1  0  0  0  0
 22  2  1  1  0  0  0
 22 23  1  0  0  0  0
 23 24  1  6  0  0  0
 24 25  1  0  0  0  0
 25 26  1  0  0  0  0
M  CHG  2  13  -1  18  -1
M  END
>  <CHROM.1>
-144.23089988,90.79966069,-45.49689304,62.45488213,-102.26995118,-73.02858644
-167.98205282,64.16796118,-7.12535403,-6.24797294,9.27703457,0.13651843,0.29154237
-1.50946568

>  <Name>
ligand

>  <RI>
0

>  <Rbt.Current_Directory>
/home/itssahil/PROJECTS/Mol_Feturizer/New_Systems/rnas/2GDI

>  <Rbt.Executable>
rbdock ($Id: //depot/dev/client3/rdock/2013.1/src/exe/rbdock.cxx#4 $)

>  <Rbt.Library>
libRbt.so (2013.1, Build901 2013/11/27)

>  <Rbt.Parameter_File>
/export/apps/rDock/src/rDock_2013.1_src/data/scripts/dock_solv.prm

>  <Rbt.Receptor>
prm/blind_docking_20.prm

>  <SCORE>
-5.91866

>  <SCORE.INTER>
-5.5415

>  <SCORE.INTER.CONST>
1

>  <SCORE.INTER.POLAR>
0

>  <SCORE.INTER.ROT>
8

>  <SCORE.INTER.SOLV>
12.6227

>  <SCORE.INTER.VDW>
-16.8352

>  <SCORE.INTER.norm>
-0.213135

>  <SCORE.INTRA>
-0.377154

>  <SCORE.INTRA.DIHEDRAL>
-0.332262

>  <SCORE.INTRA.DIHEDRAL.0>
8.13976

>  <SCORE.INTRA.POLAR>
0

>  <SCORE.INTRA.POLAR.0>
0

>  <SCORE.INTRA.REPUL>
0

>  <SCORE.INTRA.REPUL.0>
0

>  <SCORE.INTRA.SOLV>
2.02008

>  <SCORE.INTRA.SOLV.lig_0>
-82.9561

>  <SCORE.INTRA.VDW>
-1.22106

>  <SCORE.INTRA.VDW.0>
-3.29171

>  <SCORE.INTRA.norm>
-0.0145059

>  <SCORE.RESTR>
0

>  <SCORE.RESTR.CAVITY>
0

>  <SCORE.RESTR.norm>
0

>  <SCORE.SYSTEM>
0

>  <SCORE.SYSTEM.CONST>
0

>  <SCORE.SYSTEM.DIHEDRAL>
0

>  <SCORE.SYSTEM.SOLV>
0

>  <SCORE.SYSTEM.norm>
0

>  <SCORE.heavy>
26

>  <SCORE.norm>
-0.227641

>  <RMSD>
16.793

$$$$
ligand
 OpenBabel11021811433D
libRbt.so/2013.1/901 2013/11/27
 26 27  0  0  0  0  0  0  0  0999 V2000
   -3.0667   -7.4583   12.8670 C   0  0  0  0  0  0  0  0  0  0  0  0
   -6.8996   -2.8431    7.9627 C   0  0  0  0  0  0  0  0  0  0  0  0
  -10.5520   -6.2252   10.1601 P   0  0  1  0  0  0  0  0  0  0  0  0
   -9.2863   -6.9093   12.6877 P   0  0  1  0  0  0  0  0  0  0  0  0
   -4.5305   -4.6367    8.0786 C   0  0  0  0  0  0  0  0  0  0  0  0
   -4.6508   -4.9988   10.5775 C   0  0  0  0  0  0  0  0  0  0  0  0
   -4.1344   -5.3773    9.3447 C   0  0  0  0  0  0  0  0  0  0  0  0
   -3.2618   -6.4519    9.2908 C   0  0  0  0  0  0  0  0  0  0  0  0
   -2.7316   -6.8571    8.1114 N   0  0  0  0  0  0  0  0  0  0  0  0
   -2.9347   -7.1040   10.4276 N   0  0  0  0  0  0  0  0  0  0  0  0
   -3.4487   -6.7160   11.6152 C   0  0  0  0  0  0  0  0  0  0  0  0
   -4.3031   -5.6661   11.6867 N   0  0  0  0  0  0  0  0  0  0  0  0
  -11.1140   -7.4832    9.5519 O   0  5  0  0  0  0  0  0  0  0  0  0
  -10.6453   -6.5447   13.2011 O   0  0  0  0  0  0  0  0  0  0  0  0
   -7.6694   -6.6026    6.6399 S   0  0  0  0  0  0  0  0  0  0  0  0
   -6.0256   -6.3839    7.1528 C   0  0  0  0  0  0  0  0  0  0  0  0
  -11.5078   -5.3251   10.8888 O   0  0  0  0  0  0  0  0  0  0  0  0
   -9.0861   -8.3822   12.8212 O   0  5  0  0  0  0  0  0  0  0  0  0
   -5.8246   -5.1083    7.5855 N   0  0  0  0  0  0  0  0  0  0  0  0
   -9.2888   -6.6332   11.0901 O   0  0  0  0  0  0  0  0  0  0  0  0
   -8.1368   -6.1119   13.2408 O   0  0  0  0  0  0  0  0  0  0  0  0
   -6.9083   -4.2859    7.5330 C   0  0  1  0  0  0  0  0  0  0  0  0
   -8.1156   -4.9848    7.0149 C   0  0  1  0  0  0  0  0  0  0  0  0
   -9.5411   -4.5781    6.7510 C   0  0  0  0  0  0  0  0  0  0  0  0
  -10.4540   -5.3788    7.6662 C   0  0  0  0  0  0  0  0  0  0  0  0
   -9.9039   -5.3499    8.9776 O   0  0  0  0  0  0  0  0  0  0  0  0
  1 11  1  0  0  0  0
  3 13  1  6  0  0  0
  3 17  2  0  0  0  0
  3 20  1  0  0  0  0
  3 26  1  0  0  0  0
  4 14  1  1  0  0  0
  4 18  1  0  0  0  0
  4 21  2  0  0  0  0
  4 20  1  0  0  0  0
  5 19  1  0  0  0  0
  5  7  1  0  0  0  0
  6  7  2  0  0  0  0
  6 12  1  0  0  0  0
  7  8  1  0  0  0  0
  8  9  1  0  0  0  0
  8 10  2  0  0  0  0
 10 11  1  0  0  0  0
 11 12  2  0  0  0  0
 15 23  1  0  0  0  0
 15 16  1  0  0  0  0
 16 19  1  0  0  0  0
 19 22  1  0  0  0  0
 22  2  1  1  0  0  0
 22 23  1  0  0  0  0
 23 24  1  6  0  0  0
 24 25  1  0  0  0  0
 25 26  1  0  0  0  0
M  CHG  2  13  -1  18  -1
M  END
>  <CHROM.1>
-95.02664764,-64.05345974,-81.23866217,-7.25041639,64.90660826,46.24693541
-173.90874940,32.29698914,-7.48166693,-6.04561045,9.81744940,-0.20889856
-0.01567609,1.87973912

>  <Name>
ligand

>  <RI>
0

>  <Rbt.Current_Directory>
/home/itssahil/PROJECTS/Mol_Feturizer/New_Systems/rnas/2GDI

>  <Rbt.Executable>
rbdock ($Id: //depot/dev/client3/rdock/2013.1/src/exe/rbdock.cxx#4 $)

>  <Rbt.Library>
libRbt.so (2013.1, Build901 2013/11/27)

>  <Rbt.Parameter_File>
/export/apps/rDock/src/rDock_2013.1_src/data/scripts/dock_solv.prm

>  <Rbt.Receptor>
prm/blind_docking_20.prm

>  <SCORE>
-9.14444

>  <SCORE.INTER>
-10.9492

>  <SCORE.INTER.CONST>
1

>  <SCORE.INTER.POLAR>
0

>  <SCORE.INTER.ROT>
8

>  <SCORE.INTER.SOLV>
15.0404

>  <SCORE.INTER.VDW>
-21.2463

>  <SCORE.INTER.norm>
-0.421125

>  <SCORE.INTRA>
1.56666

>  <SCORE.INTRA.DIHEDRAL>
2.59346

>  <SCORE.INTRA.DIHEDRAL.0>
8.13976

>  <SCORE.INTRA.POLAR>
0

>  <SCORE.INTRA.POLAR.0>
0

>  <SCORE.INTRA.REPUL>
0

>  <SCORE.INTRA.REPUL.0>
0

>  <SCORE.INTRA.SOLV>
0.498464

>  <SCORE.INTRA.SOLV.lig_0>
-82.9561

>  <SCORE.INTRA.VDW>
0.0206961

>  <SCORE.INTRA.VDW.0>
-3.29171

>  <SCORE.INTRA.norm>
0.0602561

>  <SCORE.RESTR>
0.23814

>  <SCORE.RESTR.CAVITY>
0.23814

>  <SCORE.RESTR.norm>
0.00915924

>  <SCORE.SYSTEM>
0

>  <SCORE.SYSTEM.CONST>
0

>  <SCORE.SYSTEM.DIHEDRAL>
0

>  <SCORE.SYSTEM.SOLV>
0

>  <SCORE.SYSTEM.norm>
0

>  <SCORE.heavy>
26

>  <SCORE.norm>
-0.351709

>  <RMSD>
16.830

$$$$
ligand
 OpenBabel11021811433D
libRbt.so/2013.1/901 2013/11/27
 26 27  0  0  0  0  0  0  0  0999 V2000
   -3.2360   -7.6137   13.0972 C   0  0  0  0  0  0  0  0  0  0  0  0
   -6.9076   -3.1052    8.5903 C   0  0  0  0  0  0  0  0  0  0  0  0
  -10.3797   -5.7053   10.0650 P   0  0  1  0  0  0  0  0  0  0  0  0
   -8.6119   -7.4308   11.6000 P   0  0  1  0  0  0  0  0  0  0  0  0
   -4.4272   -4.7157    8.2790 C   0  0  0  0  0  0  0  0  0  0  0  0
   -4.6226   -5.0675   10.7746 C   0  0  0  0  0  0  0  0  0  0  0  0
   -4.1028   -5.4770    9.5531 C   0  0  0  0  0  0  0  0  0  0  0  0
   -3.2941   -6.6011    9.5179 C   0  0  0  0  0  0  0  0  0  0  0  0
   -2.7632   -7.0381    8.3501 N   0  0  0  0  0  0  0  0  0  0  0  0
   -3.0306   -7.2702   10.6613 N   0  0  0  0  0  0  0  0  0  0  0  0
   -3.5464   -6.8514   11.8376 C   0  0  0  0  0  0  0  0  0  0  0  0
   -4.3389   -5.7530   11.8909 N   0  0  0  0  0  0  0  0  0  0  0  0
  -11.6150   -6.4247   10.5392 O   0  5  0  0  0  0  0  0  0  0  0  0
   -7.7885   -7.9700   10.4709 O   0  0  0  0  0  0  0  0  0  0  0  0
   -7.4799   -6.5443    6.5114 S   0  0  0  0  0  0  0  0  0  0  0  0
   -5.8376   -6.3264    7.0294 C   0  0  0  0  0  0  0  0  0  0  0  0
  -10.5092   -4.2407    9.7600 O   0  0  0  0  0  0  0  0  0  0  0  0
   -7.7221   -7.1240   12.7582 O   0  5  0  0  0  0  0  0  0  0  0  0
   -5.7040   -5.1603    7.7202 N   0  0  0  0  0  0  0  0  0  0  0  0
   -9.1886   -5.9914   11.1263 O   0  0  0  0  0  0  0  0  0  0  0  0
   -9.8141   -8.2477   11.9881 O   0  0  0  0  0  0  0  0  0  0  0  0
   -6.8388   -4.4219    7.8635 C   0  0  1  0  0  0  0  0  0  0  0  0
   -8.0154   -5.0768    7.2303 C   0  0  1  0  0  0  0  0  0  0  0  0
   -9.4715   -4.7226    7.0847 C   0  0  0  0  0  0  0  0  0  0  0  0
  -10.3079   -5.9414    7.4412 C   0  0  0  0  0  0  0  0  0  0  0  0
   -9.8811   -6.4163    8.7122 O   0  0  0  0  0  0  0  0  0  0  0  0
  1 11  1  0  0  0  0
  3 13  1  1  0  0  0
  3 17  2  0  0  0  0
  3 20  1  0  0  0  0
  3 26  1  0  0  0  0
  4 14  1  6  0  0  0
  4 18  1  0  0  0  0
  4 21  2  0  0  0  0
  4 20  1  0  0  0  0
  5 19  1  0  0  0  0
  5  7  1  0  0  0  0
  6  7  2  0  0  0  0
  6 12  1  0  0  0  0
  7  8  1  0  0  0  0
  8  9  1  0  0  0  0
  8 10  2  0  0  0  0
 10 11  1  0  0  0  0
 11 12  2  0  0  0  0
 15 23  1  0  0  0  0
 15 16  1  0  0  0  0
 16 19  1  0  0  0  0
 19 22  1  0  0  0  0
 22  2  1  1  0  0  0
 22 23  1  0  0  0  0
 23 24  1  6  0  0  0
 24 25  1  0  0  0  0
 25 26  1  0  0  0  0
M  CHG  2  13  -1  18  -1
M  END
>  <CHROM.1>
56.60255449,-77.23503544,-84.16622642,74.23837944,47.95331998,51.90330888
79.68933226,92.60724421,-7.27224269,-6.13916919,9.65611555,0.13871825,-0.01616689
1.95737954

>  <Name>
ligand

>  <RI>
0

>  <Rbt.Current_Directory>
/home/itssahil/PROJECTS/Mol_Feturizer/New_Systems/rnas/2GDI

>  <Rbt.Executable>
rbdock ($Id: //depot/dev/client3/rdock/2013.1/src/exe/rbdock.cxx#4 $)

>  <Rbt.Library>
libRbt.so (2013.1, Build901 2013/11/27)

>  <Rbt.Parameter_File>
/export/apps/rDock/src/rDock_2013.1_src/data/scripts/dock_solv.prm

>  <Rbt.Receptor>
prm/blind_docking_20.prm

>  <SCORE>
-9.81786

>  <SCORE.INTER>
-10.5983

>  <SCORE.INTER.CONST>
1

>  <SCORE.INTER.POLAR>
0

>  <SCORE.INTER.ROT>
8

>  <SCORE.INTER.SOLV>
15.8239

>  <SCORE.INTER.VDW>
-21.2735

>  <SCORE.INTER.norm>
-0.407627

>  <SCORE.INTRA>
0.735403

>  <SCORE.INTRA.DIHEDRAL>
0.24511

>  <SCORE.INTRA.DIHEDRAL.0>
8.13976

>  <SCORE.INTRA.POLAR>
0

>  <SCORE.INTRA.POLAR.0>
0

>  <SCORE.INTRA.REPUL>
0

>  <SCORE.INTRA.REPUL.0>
0

>  <SCORE.INTRA.SOLV>
2.58313

>  <SCORE.INTRA.SOLV.lig_0>
-82.9561

>  <SCORE.INTRA.VDW>
-0.678717

>  <SCORE.INTRA.VDW.0>
-3.29171

>  <SCORE.INTRA.norm>
0.0282847

>  <SCORE.RESTR>
0.0450389

>  <SCORE.RESTR.CAVITY>
0.0450389

>  <SCORE.RESTR.norm>
0.00173227

>  <SCORE.SYSTEM>
0

>  <SCORE.SYSTEM.CONST>
0

>  <SCORE.SYSTEM.DIHEDRAL>
0

>  <SCORE.SYSTEM.SOLV>
0

>  <SCORE.SYSTEM.norm>
0

>  <SCORE.heavy>
26

>  <SCORE.norm>
-0.37761

>  <RMSD>
16.874

$$$$
ligand
 OpenBabel11021811433D
libRbt.so/2013.1/901 2013/11/27
 26 27  0  0  0  0  0  0  0  0999 V2000
  -29.1709  -19.4299   -5.8844 C   0  0  0  0  0  0  0  0  0  0  0  0
  -32.7596  -13.5941   -5.9749 C   0  0  0  0  0  0  0  0  0  0  0  0
  -35.4996  -11.6719  -10.1660 P   0  0  1  0  0  0  0  0  0  0  0  0
  -35.5517   -8.8118   -9.6408 P   0  0  1  0  0  0  0  0  0  0  0  0
  -30.0548  -13.8616   -4.7682 C   0  0  0  0  0  0  0  0  0  0  0  0
  -30.8863  -16.2190   -5.1441 C   0  0  0  0  0  0  0  0  0  0  0  0
  -29.8185  -15.3351   -5.0532 C   0  0  0  0  0  0  0  0  0  0  0  0
  -28.5350  -15.8213   -5.2408 C   0  0  0  0  0  0  0  0  0  0  0  0
  -27.4620  -14.9975   -5.1606 N   0  0  0  0  0  0  0  0  0  0  0  0
  -28.3500  -17.1326   -5.5068 N   0  0  0  0  0  0  0  0  0  0  0  0
  -29.4045  -17.9731   -5.5887 C   0  0  0  0  0  0  0  0  0  0  0  0
  -30.6672  -17.5150   -5.4068 N   0  0  0  0  0  0  0  0  0  0  0  0
  -36.4637  -12.2317   -9.1532 O   0  5  0  0  0  0  0  0  0  0  0  0
  -34.6429   -7.8881   -8.8896 O   0  0  0  0  0  0  0  0  0  0  0  0
  -29.8581  -11.7291   -8.1150 S   0  0  0  0  0  0  0  0  0  0  0  0
  -29.2554  -12.5133   -6.6885 C   0  0  0  0  0  0  0  0  0  0  0  0
  -35.9990  -11.5002  -11.5717 O   0  0  0  0  0  0  0  0  0  0  0  0
  -35.5375   -8.4499  -11.0886 O   0  5  0  0  0  0  0  0  0  0  0  0
  -30.2688  -13.1210   -6.0115 N   0  0  0  0  0  0  0  0  0  0  0  0
  -34.8906  -10.2908   -9.5756 O   0  0  0  0  0  0  0  0  0  0  0  0
  -36.9439   -8.9592   -9.0900 O   0  0  0  0  0  0  0  0  0  0  0  0
  -31.5077  -12.9993   -6.5627 C   0  0  1  0  0  0  0  0  0  0  0  0
  -31.4813  -12.2205   -7.8305 C   0  0  1  0  0  0  0  0  0  0  0  0
  -32.5231  -11.7889   -8.8282 C   0  0  0  0  0  0  0  0  0  0  0  0
  -33.4683  -12.9529   -9.0806 C   0  0  0  0  0  0  0  0  0  0  0  0
  -34.2334  -12.6594  -10.2432 O   0  0  0  0  0  0  0  0  0  0  0  0
  1 11  1  0  0  0  0
  3 13  1  1  0  0  0
  3 17  2  0  0  0  0
  3 20  1  0  0  0  0
  3 26  1  0  0  0  0
  4 14  1  1  0  0  0
  4 18  1  0  0  0  0
  4 21  2  0  0  0  0
  4 20  1  0  0  0  0
  5 19  1  0  0  0  0
  5  7  1  0  0  0  0
  6  7  2  0  0  0  0
  6 12  1  0  0  0  0
  7  8  1  0  0  0  0
  8  9  1  0  0  0  0
  8 10  2  0  0  0  0
 10 11  1  0  0  0  0
 11 12  2  0  0  0  0
 15 23  1  0  0  0  0
 15 16  1  0  0  0  0
 16 19  1  0  0  0  0
 19 22  1  0  0  0  0
 22  2  1  6  0  0  0
 22 23  1  0  0  0  0
 23 24  1  1  0  0  0
 24 25  1  0  0  0  0
 25 26  1  0  0  0  0
M  CHG  2  13  -1  18  -1
M  END
>  <CHROM.1>
-83.50760215,-92.37150313,-88.10414861,176.86273191,138.57547407,-165.92889195
-79.54857677,-57.48077719,-32.47712420,-12.71313959,-7.88727385,0.76756112
0.50084736,2.98944449

>  <Name>
ligand

>  <RI>
0

>  <Rbt.Current_Directory>
/home/itssahil/PROJECTS/Mol_Feturizer/New_Systems/rnas/2GDI

>  <Rbt.Executable>
rbdock ($Id: //depot/dev/client3/rdock/2013.1/src/exe/rbdock.cxx#4 $)

>  <Rbt.Library>
libRbt.so (2013.1, Build901 2013/11/27)

>  <Rbt.Parameter_File>
/export/apps/rDock/src/rDock_2013.1_src/data/scripts/dock_solv.prm

>  <Rbt.Receptor>
prm/blind_docking_60.prm

>  <SCORE>
-14.6868

>  <SCORE.INTER>
-16.2634

>  <SCORE.INTER.CONST>
1

>  <SCORE.INTER.POLAR>
0

>  <SCORE.INTER.ROT>
8

>  <SCORE.INTER.SOLV>
12.1526

>  <SCORE.INTER.VDW>
-23.8264

>  <SCORE.INTER.norm>
-0.625514

>  <SCORE.INTRA>
1.57657

>  <SCORE.INTRA.DIHEDRAL>
-0.493119

>  <SCORE.INTRA.DIHEDRAL.0>
8.13976

>  <SCORE.INTRA.POLAR>
0

>  <SCORE.INTRA.POLAR.0>
0

>  <SCORE.INTRA.REPUL>
0

>  <SCORE.INTRA.REPUL.0>
0

>  <SCORE.INTRA.SOLV>
3.2463

>  <SCORE.INTRA.SOLV.lig_0>
-82.9561

>  <SCORE.INTRA.VDW>
0.19998

>  <SCORE.INTRA.VDW.0>
-3.29171

>  <SCORE.INTRA.norm>
0.0606373

>  <SCORE.RESTR>
0

>  <SCORE.RESTR.CAVITY>
0

>  <SCORE.RESTR.norm>
0

>  <SCORE.SYSTEM>
0

>  <SCORE.SYSTEM.CONST>
0

>  <SCORE.SYSTEM.DIHEDRAL>
0

>  <SCORE.SYSTEM.SOLV>
0

>  <SCORE.SYSTEM.norm>
0

>  <SCORE.heavy>
26

>  <SCORE.norm>
-0.564876

>  <RMSD>
16.882

$$$$
ligand
 OpenBabel11021811433D
libRbt.so/2013.1/901 2013/11/27
 26 27  0  0  0  0  0  0  0  0999 V2000
   -2.8430   -3.5503    2.7590 C   0  0  0  0  0  0  0  0  0  0  0  0
   -7.9778   -3.5803    9.3074 C   0  0  0  0  0  0  0  0  0  0  0  0
   -8.9437   -7.2046   12.0465 P   0  0  1  0  0  0  0  0  0  0  0  0
   -6.1160   -6.5320   11.9449 P   0  0  1  0  0  0  0  0  0  0  0  0
   -5.4543   -4.1553    7.8431 C   0  0  0  0  0  0  0  0  0  0  0  0
   -4.1698   -5.0815    5.8727 C   0  0  0  0  0  0  0  0  0  0  0  0
   -4.7555   -3.9914    6.5040 C   0  0  0  0  0  0  0  0  0  0  0  0
   -4.7015   -2.7548    5.8821 C   0  0  0  0  0  0  0  0  0  0  0  0
   -5.2575   -1.6623    6.4598 N   0  0  0  0  0  0  0  0  0  0  0  0
   -4.0869   -2.6357    4.6851 N   0  0  0  0  0  0  0  0  0  0  0  0
   -3.5231   -3.7104    4.0916 C   0  0  0  0  0  0  0  0  0  0  0  0
   -3.5655   -4.9278    4.6863 N   0  0  0  0  0  0  0  0  0  0  0  0
   -8.5948   -8.6113   11.6365 O   0  5  0  0  0  0  0  0  0  0  0  0
   -6.2742   -6.2734   10.4780 O   0  0  0  0  0  0  0  0  0  0  0  0
   -8.1870   -6.9139    7.0009 S   0  0  0  0  0  0  0  0  0  0  0  0
   -6.6421   -6.1264    6.9220 C   0  0  0  0  0  0  0  0  0  0  0  0
  -10.0945   -7.0282   12.9948 O   0  0  0  0  0  0  0  0  0  0  0  0
   -5.3880   -5.3904   12.5725 O   0  5  0  0  0  0  0  0  0  0  0  0
   -6.6287   -5.0178    7.7129 N   0  0  0  0  0  0  0  0  0  0  0  0
   -7.5983   -6.4905   12.6004 O   0  0  0  0  0  0  0  0  0  0  0  0
   -5.5380   -7.8694   12.3200 O   0  0  0  0  0  0  0  0  0  0  0  0
   -7.7834   -4.7532    8.3838 C   0  0  1  0  0  0  0  0  0  0  0  0
   -8.8336   -5.7718    8.1121 C   0  0  1  0  0  0  0  0  0  0  0  0
  -10.2551   -5.9721    8.5663 C   0  0  0  0  0  0  0  0  0  0  0  0
  -10.2543   -6.8848    9.7825 C   0  0  0  0  0  0  0  0  0  0  0  0
   -9.3098   -6.3777   10.7173 O   0  0  0  0  0  0  0  0  0  0  0  0
  1 11  1  0  0  0  0
  3 13  1  6  0  0  0
  3 17  2  0  0  0  0
  3 20  1  0  0  0  0
  3 26  1  0  0  0  0
  4 14  1  6  0  0  0
  4 18  1  0  0  0  0
  4 21  2  0  0  0  0
  4 20  1  0  0  0  0
  5 19  1  0  0  0  0
  5  7  1  0  0  0  0
  6  7  2  0  0  0  0
  6 12  1  0  0  0  0
  7  8  1  0  0  0  0
  8  9  1  0  0  0  0
  8 10  2  0  0  0  0
 10 11  1  0  0  0  0
 11 12  2  0  0  0  0
 15 23  1  0  0  0  0
 15 16  1  0  0  0  0
 16 19  1  0  0  0  0
 19 22  1  0  0  0  0
 22  2  1  1  0  0  0
 22 23  1  0  0  0  0
 23 24  1  6  0  0  0
 24 25  1  0  0  0  0
 25 26  1  0  0  0  0
M  CHG  2  13  -1  18  -1
M  END
>  <CHROM.1>
44.62860824,39.13604172,-64.58237918,46.01693552,87.95353630,50.19022970
-173.10061619,50.91310632,-6.83685699,-5.61313365,8.91539129,-1.05577819
0.30431593,1.85542664

>  <Name>
ligand

>  <RI>
0

>  <Rbt.Current_Directory>
/home/itssahil/PROJECTS/Mol_Feturizer/New_Systems/rnas/2GDI

>  <Rbt.Executable>
rbdock ($Id: //depot/dev/client3/rdock/2013.1/src/exe/rbdock.cxx#4 $)

>  <Rbt.Library>
libRbt.so (2013.1, Build901 2013/11/27)

>  <Rbt.Parameter_File>
/export/apps/rDock/src/rDock_2013.1_src/data/scripts/dock_solv.prm

>  <Rbt.Receptor>
prm/blind_docking_20.prm

>  <SCORE>
-9.78367

>  <SCORE.INTER>
-7.52227

>  <SCORE.INTER.CONST>
1

>  <SCORE.INTER.POLAR>
0

>  <SCORE.INTER.ROT>
8

>  <SCORE.INTER.SOLV>
11.6755

>  <SCORE.INTER.VDW>
-17.84

>  <SCORE.INTER.norm>
-0.289318

>  <SCORE.INTRA>
-2.3382

>  <SCORE.INTRA.DIHEDRAL>
-1.68191

>  <SCORE.INTRA.DIHEDRAL.0>
8.13976

>  <SCORE.INTRA.POLAR>
0

>  <SCORE.INTRA.POLAR.0>
0

>  <SCORE.INTRA.REPUL>
0

>  <SCORE.INTRA.REPUL.0>
0

>  <SCORE.INTRA.SOLV>
0.038399

>  <SCORE.INTRA.SOLV.lig_0>
-82.9561

>  <SCORE.INTRA.VDW>
-1.51644

>  <SCORE.INTRA.VDW.0>
-3.29171

>  <SCORE.INTRA.norm>
-0.0899307

>  <SCORE.RESTR>
0.0767929

>  <SCORE.RESTR.CAVITY>
0.0767929

>  <SCORE.RESTR.norm>
0.00295357

>  <SCORE.SYSTEM>
0

>  <SCORE.SYSTEM.CONST>
0

>  <SCORE.SYSTEM.DIHEDRAL>
0

>  <SCORE.SYSTEM.SOLV>
0

>  <SCORE.SYSTEM.norm>
0

>  <SCORE.heavy>
26

>  <SCORE.norm>
-0.376295

>  <RMSD>
16.975

$$$$
ligand
 OpenBabel11021811433D
libRbt.so/2013.1/901 2013/11/27
 26 27  0  0  0  0  0  0  0  0999 V2000
  -35.5197   -6.2336   -9.0678 C   0  0  0  0  0  0  0  0  0  0  0  0
  -34.1224  -13.3182   -6.4526 C   0  0  0  0  0  0  0  0  0  0  0  0
  -30.0963  -16.8890   -6.9431 P   0  0  1  0  0  0  0  0  0  0  0  0
  -27.2249  -17.3319   -6.8088 P   0  0  1  0  0  0  0  0  0  0  0  0
  -34.2828  -11.8463   -9.0315 C   0  0  0  0  0  0  0  0  0  0  0  0
  -34.7628   -9.6772  -10.2377 C   0  0  0  0  0  0  0  0  0  0  0  0
  -34.5997  -10.3604   -9.0392 C   0  0  0  0  0  0  0  0  0  0  0  0
  -34.7449   -9.6629   -7.8512 C   0  0  0  0  0  0  0  0  0  0  0  0
  -34.5939  -10.2861   -6.6574 N   0  0  0  0  0  0  0  0  0  0  0  0
  -35.0403   -8.3452   -7.8824 N   0  0  0  0  0  0  0  0  0  0  0  0
  -35.1925   -7.7023   -9.0608 C   0  0  0  0  0  0  0  0  0  0  0  0
  -35.0530   -8.3687  -10.2329 N   0  0  0  0  0  0  0  0  0  0  0  0
  -30.2790  -17.3766   -8.3564 O   0  5  0  0  0  0  0  0  0  0  0  0
  -27.1850  -18.1076   -5.5282 O   0  0  0  0  0  0  0  0  0  0  0  0
  -30.4987  -12.1484   -7.8585 S   0  0  0  0  0  0  0  0  0  0  0  0
  -31.8133  -11.6829   -8.8920 C   0  0  0  0  0  0  0  0  0  0  0  0
  -30.5182  -17.8112   -5.8357 O   0  0  0  0  0  0  0  0  0  0  0  0
  -27.4435  -18.2701   -7.9486 O   0  5  0  0  0  0  0  0  0  0  0  0
  -33.0014  -12.0997   -8.3728 N   0  0  0  0  0  0  0  0  0  0  0  0
  -28.5579  -16.4098   -6.7680 O   0  0  0  0  0  0  0  0  0  0  0  0
  -26.0783  -16.3865   -7.0431 O   0  0  0  0  0  0  0  0  0  0  0  0
  -32.9295  -12.7738   -7.1922 C   0  0  1  0  0  0  0  0  0  0  0  0
  -31.5294  -12.8974   -6.7036 C   0  0  1  0  0  0  0  0  0  0  0  0
  -30.8818  -13.5240   -5.4973 C   0  0  0  0  0  0  0  0  0  0  0  0
  -31.2179  -15.0069   -5.4786 C   0  0  0  0  0  0  0  0  0  0  0  0
  -30.9515  -15.5388   -6.7706 O   0  0  0  0  0  0  0  0  0  0  0  0
  1 11  1  0  0  0  0
  3 13  1  6  0  0  0
  3 17  2  0  0  0  0
  3 20  1  0  0  0  0
  3 26  1  0  0  0  0
  4 14  1  1  0  0  0
  4 18  1  0  0  0  0
  4 21  2  0  0  0  0
  4 20  1  0  0  0  0
  5 19  1  0  0  0  0
  5  7  1  0  0  0  0
  6  7  2  0  0  0  0
  6 12  1  0  0  0  0
  7  8  1  0  0  0  0
  8  9  1  0  0  0  0
  8 10  2  0  0  0  0
 10 11  1  0  0  0  0
 11 12  2  0  0  0  0
 15 23  1  0  0  0  0
 15 16  1  0  0  0  0
 16 19  1  0  0  0  0
 19 22  1  0  0  0  0
 22  2  1  1  0  0  0
 22 23  1  0  0  0  0
 23 24  1  6  0  0  0
 24 25  1  0  0  0  0
 25 26  1  0  0  0  0
M  CHG  2  13  -1  18  -1
M  END
>  <CHROM.1>
-66.66646562,-66.77457244,119.47751432,-73.49504048,-119.79292115,48.89813103
131.46172012,165.94395619,-31.38342652,-13.56500386,-7.49893950,-2.26386035
-0.31314870,2.65530205

>  <Name>
ligand

>  <RI>
0

>  <Rbt.Current_Directory>
/home/itssahil/PROJECTS/Mol_Feturizer/New_Systems/rnas/2GDI

>  <Rbt.Executable>
rbdock ($Id: //depot/dev/client3/rdock/2013.1/src/exe/rbdock.cxx#4 $)

>  <Rbt.Library>
libRbt.so (2013.1, Build901 2013/11/27)

>  <Rbt.Parameter_File>
/export/apps/rDock/src/rDock_2013.1_src/data/scripts/dock_solv.prm

>  <Rbt.Receptor>
prm/blind_docking_60.prm

>  <SCORE>
-9.63072

>  <SCORE.INTER>
-13.3065

>  <SCORE.INTER.CONST>
1

>  <SCORE.INTER.POLAR>
0

>  <SCORE.INTER.ROT>
8

>  <SCORE.INTER.SOLV>
19.7551

>  <SCORE.INTER.VDW>
-24.3894

>  <SCORE.INTER.norm>
-0.51179

>  <SCORE.INTRA>
3.65543

>  <SCORE.INTRA.DIHEDRAL>
4.40093

>  <SCORE.INTRA.DIHEDRAL.0>
8.13976

>  <SCORE.INTRA.POLAR>
0

>  <SCORE.INTRA.POLAR.0>
0

>  <SCORE.INTRA.REPUL>
0

>  <SCORE.INTRA.REPUL.0>
0

>  <SCORE.INTRA.SOLV>
3.96219

>  <SCORE.INTRA.SOLV.lig_0>
-82.9561

>  <SCORE.INTRA.VDW>
-0.526128

>  <SCORE.INTRA.VDW.0>
-3.29171

>  <SCORE.INTRA.norm>
0.140594

>  <SCORE.RESTR>
0.0203945

>  <SCORE.RESTR.CAVITY>
0.0203945

>  <SCORE.RESTR.norm>
0.000784403

>  <SCORE.SYSTEM>
0

>  <SCORE.SYSTEM.CONST>
0

>  <SCORE.SYSTEM.DIHEDRAL>
0

>  <SCORE.SYSTEM.SOLV>
0

>  <SCORE.SYSTEM.norm>
0

>  <SCORE.heavy>
26

>  <SCORE.norm>
-0.370412

>  <RMSD>
17.001

$$$$
ligand
 OpenBabel11021811433D
libRbt.so/2013.1/901 2013/11/27
 26 27  0  0  0  0  0  0  0  0999 V2000
   -3.2927   -7.5978   13.4537 C   0  0  0  0  0  0  0  0  0  0  0  0
   -7.4502   -3.8283    8.4521 C   0  0  0  0  0  0  0  0  0  0  0  0
  -10.2869   -6.7856    9.9577 P   0  0  1  0  0  0  0  0  0  0  0  0
   -7.6717   -6.9989   11.2122 P   0  0  1  0  0  0  0  0  0  0  0  0
   -4.5871   -4.5800    8.7366 C   0  0  0  0  0  0  0  0  0  0  0  0
   -4.7999   -5.0478   11.2117 C   0  0  0  0  0  0  0  0  0  0  0  0
   -4.2358   -5.3725    9.9844 C   0  0  0  0  0  0  0  0  0  0  0  0
   -3.3573   -6.4414    9.9183 C   0  0  0  0  0  0  0  0  0  0  0  0
   -2.7813   -6.7950    8.7437 N   0  0  0  0  0  0  0  0  0  0  0  0
   -3.0704   -7.1402   11.0382 N   0  0  0  0  0  0  0  0  0  0  0  0
   -3.6304   -6.8041   12.2208 C   0  0  0  0  0  0  0  0  0  0  0  0
   -4.4914   -5.7605   12.3042 N   0  0  0  0  0  0  0  0  0  0  0  0
  -11.4625   -7.7200    9.8422 O   0  5  0  0  0  0  0  0  0  0  0  0
   -7.6789   -5.5236   11.4709 O   0  0  0  0  0  0  0  0  0  0  0  0
   -6.4230   -7.0861    6.2594 S   0  0  0  0  0  0  0  0  0  0  0  0
   -5.0960   -6.4274    7.1640 C   0  0  0  0  0  0  0  0  0  0  0  0
  -10.5751   -5.3560   10.3154 O   0  0  0  0  0  0  0  0  0  0  0  0
   -7.2526   -7.7162   12.4519 O   0  5  0  0  0  0  0  0  0  0  0  0
   -5.4968   -5.3398    7.8790 N   0  0  0  0  0  0  0  0  0  0  0  0
   -9.2103   -7.4496   10.9710 O   0  0  0  0  0  0  0  0  0  0  0  0
   -6.9152   -7.4507    9.9928 O   0  0  0  0  0  0  0  0  0  0  0  0
   -6.8073   -4.9944    7.7497 C   0  0  1  0  0  0  0  0  0  0  0  0
   -7.5415   -5.9171    6.8420 C   0  0  1  0  0  0  0  0  0  0  0  0
   -8.9616   -6.0085    6.3502 C   0  0  0  0  0  0  0  0  0  0  0  0
   -9.8999   -5.8280    7.5331 C   0  0  0  0  0  0  0  0  0  0  0  0
   -9.5308   -6.7632    8.5392 O   0  0  0  0  0  0  0  0  0  0  0  0
  1 11  1  0  0  0  0
  3 13  1  6  0  0  0
  3 17  2  0  0  0  0
  3 20  1  0  0  0  0
  3 26  1  0  0  0  0
  4 14  1  1  0  0  0
  4 18  1  0  0  0  0
  4 21  2  0  0  0  0
  4 20  1  0  0  0  0
  5 19  1  0  0  0  0
  5  7  1  0  0  0  0
  6  7  2  0  0  0  0
  6 12  1  0  0  0  0
  7  8  1  0  0  0  0
  8  9  1  0  0  0  0
  8 10  2  0  0  0  0
 10 11  1  0  0  0  0
 11 12  2  0  0  0  0
 15 23  1  0  0  0  0
 15 16  1  0  0  0  0
 16 19  1  0  0  0  0
 19 22  1  0  0  0  0
 22  2  1  1  0  0  0
 22 23  1  0  0  0  0
 23 24  1  6  0  0  0
 24 25  1  0  0  0  0
 25 26  1  0  0  0  0
M  CHG  2  13  -1  18  -1
M  END
>  <CHROM.1>
167.14697012,-71.90582317,-104.84807089,50.83126229,135.33847066,-53.44492601
177.06168322,89.55361438,-6.93936299,-6.37647568,9.61586155,0.31276931,0.07182533
1.76193280

>  <Name>
ligand

>  <RI>
0

>  <Rbt.Current_Directory>
/home/itssahil/PROJECTS/Mol_Feturizer/New_Systems/rnas/2GDI

>  <Rbt.Executable>
rbdock ($Id: //depot/dev/client3/rdock/2013.1/src/exe/rbdock.cxx#4 $)

>  <Rbt.Library>
libRbt.so (2013.1, Build901 2013/11/27)

>  <Rbt.Parameter_File>
/export/apps/rDock/src/rDock_2013.1_src/data/scripts/dock_solv.prm

>  <Rbt.Receptor>
prm/blind_docking_20.prm

>  <SCORE>
-12.1926

>  <SCORE.INTER>
-10.1283

>  <SCORE.INTER.CONST>
1

>  <SCORE.INTER.POLAR>
0

>  <SCORE.INTER.ROT>
8

>  <SCORE.INTER.SOLV>
19.8509

>  <SCORE.INTER.VDW>
-22.3025

>  <SCORE.INTER.norm>
-0.389552

>  <SCORE.INTRA>
-2.06429

>  <SCORE.INTRA.DIHEDRAL>
-2.08191

>  <SCORE.INTRA.DIHEDRAL.0>
8.13976

>  <SCORE.INTRA.POLAR>
0

>  <SCORE.INTRA.POLAR.0>
0

>  <SCORE.INTRA.REPUL>
0

>  <SCORE.INTRA.REPUL.0>
0

>  <SCORE.INTRA.SOLV>
5.85738

>  <SCORE.INTRA.SOLV.lig_0>
-82.9561

>  <SCORE.INTRA.VDW>
-3.95203

>  <SCORE.INTRA.VDW.0>
-3.29171

>  <SCORE.INTRA.norm>
-0.0793958

>  <SCORE.RESTR>
0

>  <SCORE.RESTR.CAVITY>
0

>  <SCORE.RESTR.norm>
0

>  <SCORE.SYSTEM>
0

>  <SCORE.SYSTEM.CONST>
0

>  <SCORE.SYSTEM.DIHEDRAL>
0

>  <SCORE.SYSTEM.SOLV>
0

>  <SCORE.SYSTEM.norm>
0

>  <SCORE.heavy>
26

>  <SCORE.norm>
-0.468948

>  <RMSD>
17.013

$$$$
ligand
 OpenBabel11021811433D
libRbt.so/2013.1/901 2013/11/27
 26 27  0  0  0  0  0  0  0  0999 V2000
   -5.9376   -0.9891    5.7608 C   0  0  0  0  0  0  0  0  0  0  0  0
   -4.6549   -6.8000    5.2758 C   0  0  0  0  0  0  0  0  0  0  0  0
   -6.7398   -6.7403    8.6109 P   0  0  1  0  0  0  0  0  0  0  0  0
   -9.4365   -6.1689    7.6837 P   0  0  1  0  0  0  0  0  0  0  0  0
   -2.3960   -5.2221    4.1573 C   0  0  0  0  0  0  0  0  0  0  0  0
   -3.6490   -3.9110    5.9183 C   0  0  0  0  0  0  0  0  0  0  0  0
   -3.3405   -4.1091    4.5784 C   0  0  0  0  0  0  0  0  0  0  0  0
   -3.9004   -3.2631    3.6351 C   0  0  0  0  0  0  0  0  0  0  0  0
   -3.6300   -3.4180    2.3162 N   0  0  0  0  0  0  0  0  0  0  0  0
   -4.7266   -2.2717    4.0340 N   0  0  0  0  0  0  0  0  0  0  0  0
   -5.0128   -2.1001    5.3431 C   0  0  0  0  0  0  0  0  0  0  0  0
   -4.4748   -2.9191    6.2797 N   0  0  0  0  0  0  0  0  0  0  0  0
   -6.1833   -5.3444    8.7133 O   0  5  0  0  0  0  0  0  0  0  0  0
  -10.1433   -7.0890    8.6310 O   0  0  0  0  0  0  0  0  0  0  0  0
   -1.1042   -7.5837    7.0799 S   0  0  0  0  0  0  0  0  0  0  0  0
   -0.9805   -6.3980    5.8181 C   0  0  0  0  0  0  0  0  0  0  0  0
   -7.1741   -7.4046    9.8856 O   0  0  0  0  0  0  0  0  0  0  0  0
   -9.2732   -4.8306    8.3237 O   0  5  0  0  0  0  0  0  0  0  0  0
   -2.1978   -6.1748    5.2497 N   0  0  0  0  0  0  0  0  0  0  0  0
   -7.9265   -6.7322    7.5071 O   0  0  0  0  0  0  0  0  0  0  0  0
  -10.0091   -6.0854    6.2950 O   0  0  0  0  0  0  0  0  0  0  0  0
   -3.2329   -6.8965    5.7607 C   0  0  1  0  0  0  0  0  0  0  0  0
   -2.7993   -7.7856    6.8724 C   0  0  1  0  0  0  0  0  0  0  0  0
   -3.4966   -8.7728    7.7703 C   0  0  0  0  0  0  0  0  0  0  0  0
   -4.4335   -8.0127    8.6960 C   0  0  0  0  0  0  0  0  0  0  0  0
   -5.6064   -7.6790    7.9639 O   0  0  0  0  0  0  0  0  0  0  0  0
  1 11  1  0  0  0  0
  3 13  1  1  0  0  0
  3 17  2  0  0  0  0
  3 20  1  0  0  0  0
  3 26  1  0  0  0  0
  4 14  1  1  0  0  0
  4 18  1  0  0  0  0
  4 21  2  0  0  0  0
  4 20  1  0  0  0  0
  5 19  1  0  0  0  0
  5  7  1  0  0  0  0
  6  7  2  0  0  0  0
  6 12  1  0  0  0  0
  7  8  1  0  0  0  0
  8  9  1  0  0  0  0
  8 10  2  0  0  0  0
 10 11  1  0  0  0  0
 11 12  2  0  0  0  0
 15 23  1  0  0  0  0
 15 16  1  0  0  0  0
 16 19  1  0  0  0  0
 19 22  1  0  0  0  0
 22  2  1  1  0  0  0
 22 23  1  0  0  0  0
 23 24  1  6  0  0  0
 24 25  1  0  0  0  0
 25 26  1  0  0  0  0
M  CHG  2  13  -1  18  -1
M  END
>  <CHROM.1>
-76.51432273,-117.93895946,14.74278318,-69.27952972,112.91780922,78.53255952
-173.77330879,69.99447167,-5.32524177,-5.76776094,6.71824411,0.41905440,0.28283481
-0.61859939

>  <Name>
ligand

>  <RI>
0

>  <Rbt.Current_Directory>
/home/itssahil/PROJECTS/Mol_Feturizer/New_Systems/rnas/2GDI

>  <Rbt.Executable>
rbdock ($Id: //depot/dev/client3/rdock/2013.1/src/exe/rbdock.cxx#4 $)

>  <Rbt.Library>
libRbt.so (2013.1, Build901 2013/11/27)

>  <Rbt.Parameter_File>
/export/apps/rDock/src/rDock_2013.1_src/data/scripts/dock_solv.prm

>  <Rbt.Receptor>
prm/blind_docking_20.prm

>  <SCORE>
-8.26972

>  <SCORE.INTER>
-8.37707

>  <SCORE.INTER.CONST>
1

>  <SCORE.INTER.POLAR>
0

>  <SCORE.INTER.ROT>
8

>  <SCORE.INTER.SOLV>
23.1826

>  <SCORE.INTER.VDW>
-22.2456

>  <SCORE.INTER.norm>
-0.322195

>  <SCORE.INTRA>
-1.37754e-05

>  <SCORE.INTRA.DIHEDRAL>
-1.62555

>  <SCORE.INTRA.DIHEDRAL.0>
8.13976

>  <SCORE.INTRA.POLAR>
0

>  <SCORE.INTRA.POLAR.0>
0

>  <SCORE.INTRA.REPUL>
0

>  <SCORE.INTRA.REPUL.0>
0

>  <SCORE.INTRA.SOLV>
1.48488

>  <SCORE.INTRA.SOLV.lig_0>
-82.9561

>  <SCORE.INTRA.VDW>
0.0703214

>  <SCORE.INTRA.VDW.0>
-3.29171

>  <SCORE.INTRA.norm>
-5.29824e-07

>  <SCORE.RESTR>
0.107365

>  <SCORE.RESTR.CAVITY>
0.107365

>  <SCORE.RESTR.norm>
0.00412943

>  <SCORE.SYSTEM>
0

>  <SCORE.SYSTEM.CONST>
0

>  <SCORE.SYSTEM.DIHEDRAL>
0

>  <SCORE.SYSTEM.SOLV>
0

>  <SCORE.SYSTEM.norm>
0

>  <SCORE.heavy>
26

>  <SCORE.norm>
-0.318066

>  <RMSD>
17.062

$$$$
ligand
 OpenBabel11021811433D
libRbt.so/2013.1/901 2013/11/27
 26 27  0  0  0  0  0  0  0  0999 V2000
   -3.0099   -1.9191    6.7479 C   0  0  0  0  0  0  0  0  0  0  0  0
   -6.9241   -7.2771    9.5396 C   0  0  0  0  0  0  0  0  0  0  0  0
   -7.9344   -4.6937   12.2444 P   0  0  1  0  0  0  0  0  0  0  0  0
   -6.9579   -3.3329    9.8667 P   0  0  1  0  0  0  0  0  0  0  0  0
   -5.9636   -6.8494    6.7579 C   0  0  0  0  0  0  0  0  0  0  0  0
   -5.7741   -4.3636    7.1761 C   0  0  0  0  0  0  0  0  0  0  0  0
   -5.1845   -5.5452    6.7449 C   0  0  0  0  0  0  0  0  0  0  0  0
   -3.8678   -5.5132    6.3155 C   0  0  0  0  0  0  0  0  0  0  0  0
   -3.2505   -6.6400    5.8847 N   0  0  0  0  0  0  0  0  0  0  0  0
   -3.1904   -4.3446    6.3257 N   0  0  0  0  0  0  0  0  0  0  0  0
   -3.7862   -3.2080    6.7482 C   0  0  0  0  0  0  0  0  0  0  0  0
   -5.0741   -3.2206    7.1707 N   0  0  0  0  0  0  0  0  0  0  0  0
   -6.5931   -5.2538   12.6391 O   0  5  0  0  0  0  0  0  0  0  0  0
   -5.6714   -4.0903    9.9880 O   0  0  0  0  0  0  0  0  0  0  0  0
   -9.8410   -6.0196    7.0123 S   0  0  0  0  0  0  0  0  0  0  0  0
   -8.2968   -6.1929    6.2385 C   0  0  0  0  0  0  0  0  0  0  0  0
   -8.9138   -4.4086   13.3463 O   0  0  0  0  0  0  0  0  0  0  0  0
   -7.8781   -4.0652    8.9480 O   0  5  0  0  0  0  0  0  0  0  0  0
   -7.3589   -6.6161    7.1306 N   0  0  0  0  0  0  0  0  0  0  0  0
   -7.6846   -3.3896   11.3150 O   0  0  0  0  0  0  0  0  0  0  0  0
   -6.8338   -1.8728    9.5261 O   0  0  0  0  0  0  0  0  0  0  0  0
   -7.7971   -6.8122    8.4046 C   0  0  1  0  0  0  0  0  0  0  0  0
   -9.2513   -6.5294    8.5451 C   0  0  1  0  0  0  0  0  0  0  0  0
  -10.2320   -6.5751    9.6867 C   0  0  0  0  0  0  0  0  0  0  0  0
   -9.8983   -5.4565   10.6612 C   0  0  0  0  0  0  0  0  0  0  0  0
   -8.6417   -5.7494   11.2597 O   0  0  0  0  0  0  0  0  0  0  0  0
  1 11  1  0  0  0  0
  3 13  1  1  0  0  0
  3 17  2  0  0  0  0
  3 20  1  0  0  0  0
  3 26  1  0  0  0  0
  4 14  1  1  0  0  0
  4 18  1  0  0  0  0
  4 21  2  0  0  0  0
  4 20  1  0  0  0  0
  5 19  1  0  0  0  0
  5  7  1  0  0  0  0
  6  7  2  0  0  0  0
  6 12  1  0  0  0  0
  7  8  1  0  0  0  0
  8  9  1  0  0  0  0
  8 10  2  0  0  0  0
 10 11  1  0  0  0  0
 11 12  2  0  0  0  0
 15 23  1  0  0  0  0
 15 16  1  0  0  0  0
 16 19  1  0  0  0  0
 19 22  1  0  0  0  0
 22  2  1  6  0  0  0
 22 23  1  0  0  0  0
 23 24  1  1  0  0  0
 24 25  1  0  0  0  0
 25 26  1  0  0  0  0
M  CHG  2  13  -1  18  -1
M  END
>  <CHROM.1>
62.96684638,81.94062525,5.84896361,-48.62729166,-109.49559854,-67.10045041
174.39882184,-176.47774844,-6.98114533,-4.91561983,8.94437775,-0.65935848
0.56123348,1.06759861

>  <Name>
ligand

>  <RI>
0

>  <Rbt.Current_Directory>
/home/itssahil/PROJECTS/Mol_Feturizer/New_Systems/rnas/2GDI

>  <Rbt.Executable>
rbdock ($Id: //depot/dev/client3/rdock/2013.1/src/exe/rbdock.cxx#4 $)

>  <Rbt.Library>
libRbt.so (2013.1, Build901 2013/11/27)

>  <Rbt.Parameter_File>
/export/apps/rDock/src/rDock_2013.1_src/data/scripts/dock_solv.prm

>  <Rbt.Receptor>
prm/blind_docking_20.prm

>  <SCORE>
-8.70079

>  <SCORE.INTER>
-7.11019

>  <SCORE.INTER.CONST>
1

>  <SCORE.INTER.POLAR>
0

>  <SCORE.INTER.ROT>
8

>  <SCORE.INTER.SOLV>
7.65173

>  <SCORE.INTER.VDW>
-16.224

>  <SCORE.INTER.norm>
-0.273469

>  <SCORE.INTRA>
-1.60943

>  <SCORE.INTRA.DIHEDRAL>
-2.96109

>  <SCORE.INTRA.DIHEDRAL.0>
8.13976

>  <SCORE.INTRA.POLAR>
0

>  <SCORE.INTRA.POLAR.0>
0

>  <SCORE.INTRA.REPUL>
0

>  <SCORE.INTRA.REPUL.0>
0

>  <SCORE.INTRA.SOLV>
5.6435

>  <SCORE.INTRA.SOLV.lig_0>
-82.9561

>  <SCORE.INTRA.VDW>
-2.95063

>  <SCORE.INTRA.VDW.0>
-3.29171

>  <SCORE.INTRA.norm>
-0.0619012

>  <SCORE.RESTR>
0.0188313

>  <SCORE.RESTR.CAVITY>
0.0188313

>  <SCORE.RESTR.norm>
0.00072428

>  <SCORE.SYSTEM>
0

>  <SCORE.SYSTEM.CONST>
0

>  <SCORE.SYSTEM.DIHEDRAL>
0

>  <SCORE.SYSTEM.SOLV>
0

>  <SCORE.SYSTEM.norm>
0

>  <SCORE.heavy>
26

>  <SCORE.norm>
-0.334646

>  <RMSD>
17.126

$$$$
ligand
 OpenBabel11021811433D
libRbt.so/2013.1/901 2013/11/27
 26 27  0  0  0  0  0  0  0  0999 V2000
   -4.9579   -1.7624    5.5309 C   0  0  0  0  0  0  0  0  0  0  0  0
   -5.5225   -7.7988    8.9934 C   0  0  0  0  0  0  0  0  0  0  0  0
   -9.6364   -6.1546    8.3999 P   0  0  1  0  0  0  0  0  0  0  0  0
   -8.0848   -3.7353    8.8453 P   0  0  1  0  0  0  0  0  0  0  0  0
   -3.5515   -5.6388    9.5345 C   0  0  0  0  0  0  0  0  0  0  0  0
   -4.2218   -3.3058    8.8288 C   0  0  0  0  0  0  0  0  0  0  0  0
   -3.9331   -4.6180    8.4759 C   0  0  0  0  0  0  0  0  0  0  0  0
   -3.9869   -4.9740    7.1382 C   0  0  0  0  0  0  0  0  0  0  0  0
   -3.7146   -6.2422    6.7458 N   0  0  0  0  0  0  0  0  0  0  0  0
   -4.3151   -4.0461    6.2130 N   0  0  0  0  0  0  0  0  0  0  0  0
   -4.5933   -2.7764    6.5811 C   0  0  0  0  0  0  0  0  0  0  0  0
   -4.5466   -2.4107    7.8855 N   0  0  0  0  0  0  0  0  0  0  0  0
  -11.0713   -6.5449    8.6391 O   0  5  0  0  0  0  0  0  0  0  0  0
   -6.9206   -4.6777    8.8407 O   0  0  0  0  0  0  0  0  0  0  0  0
   -6.3014   -5.7349   12.4008 S   0  0  0  0  0  0  0  0  0  0  0  0
   -4.8870   -5.1685   11.5692 C   0  0  0  0  0  0  0  0  0  0  0  0
   -9.0956   -6.3339    7.0106 O   0  0  0  0  0  0  0  0  0  0  0  0
   -8.1687   -3.0468    7.5239 O   0  5  0  0  0  0  0  0  0  0  0  0
   -4.6744   -5.8945   10.4367 N   0  0  0  0  0  0  0  0  0  0  0  0
   -9.4296   -4.6371    8.9302 O   0  0  0  0  0  0  0  0  0  0  0  0
   -8.1560   -2.7809   10.0060 O   0  0  0  0  0  0  0  0  0  0  0  0
   -5.5759   -6.8838   10.1877 C   0  0  1  0  0  0  0  0  0  0  0  0
   -6.6375   -6.9474   11.2286 C   0  0  1  0  0  0  0  0  0  0  0  0
   -7.8464   -7.8161   11.4543 C   0  0  0  0  0  0  0  0  0  0  0  0
   -9.0378   -7.1863   10.7499 C   0  0  0  0  0  0  0  0  0  0  0  0
   -8.7132   -7.0410    9.3727 O   0  0  0  0  0  0  0  0  0  0  0  0
  1 11  1  0  0  0  0
  3 13  1  1  0  0  0
  3 17  2  0  0  0  0
  3 20  1  0  0  0  0
  3 26  1  0  0  0  0
  4 14  1  1  0  0  0
  4 18  1  0  0  0  0
  4 21  2  0  0  0  0
  4 20  1  0  0  0  0
  5 19  1  0  0  0  0
  5  7  1  0  0  0  0
  6  7  2  0  0  0  0
  6 12  1  0  0  0  0
  7  8  1  0  0  0  0
  8  9  1  0  0  0  0
  8 10  2  0  0  0  0
 10 11  1  0  0  0  0
 11 12  2  0  0  0  0
 15 23  1  0  0  0  0
 15 16  1  0  0  0  0
 16 19  1  0  0  0  0
 19 22  1  0  0  0  0
 22  2  1  6  0  0  0
 22 23  1  0  0  0  0
 23 24  1  1  0  0  0
 24 25  1  0  0  0  0
 25 26  1  0  0  0  0
M  CHG  2  13  -1  18  -1
M  END
>  <CHROM.1>
-177.26335088,-89.33581540,65.64406673,-27.71830892,91.96432050,57.21611142
-168.14129122,-47.24018789,-6.76140213,-5.16751121,9.00731353,0.67390089
-0.13441220,-0.90055933

>  <Name>
ligand

>  <RI>
0

>  <Rbt.Current_Directory>
/home/itssahil/PROJECTS/Mol_Feturizer/New_Systems/rnas/2GDI

>  <Rbt.Executable>
rbdock ($Id: //depot/dev/client3/rdock/2013.1/src/exe/rbdock.cxx#4 $)

>  <Rbt.Library>
libRbt.so (2013.1, Build901 2013/11/27)

>  <Rbt.Parameter_File>
/export/apps/rDock/src/rDock_2013.1_src/data/scripts/dock_solv.prm

>  <Rbt.Receptor>
prm/blind_docking_20.prm

>  <SCORE>
-8.23463

>  <SCORE.INTER>
-4.26548

>  <SCORE.INTER.CONST>
1

>  <SCORE.INTER.POLAR>
0

>  <SCORE.INTER.ROT>
8

>  <SCORE.INTER.SOLV>
12.6986

>  <SCORE.INTER.VDW>
-16.0098

>  <SCORE.INTER.norm>
-0.164057

>  <SCORE.INTRA>
-3.96915

>  <SCORE.INTRA.DIHEDRAL>
-1.08522

>  <SCORE.INTRA.DIHEDRAL.0>
8.13976

>  <SCORE.INTRA.POLAR>
0

>  <SCORE.INTRA.POLAR.0>
0

>  <SCORE.INTRA.REPUL>
0

>  <SCORE.INTRA.REPUL.0>
0

>  <SCORE.INTRA.SOLV>
1.81154

>  <SCORE.INTRA.SOLV.lig_0>
-82.9561

>  <SCORE.INTRA.VDW>
-4.33232

>  <SCORE.INTRA.VDW.0>
-3.29171

>  <SCORE.INTRA.norm>
-0.15266

>  <SCORE.RESTR>
0

>  <SCORE.RESTR.CAVITY>
0

>  <SCORE.RESTR.norm>
0

>  <SCORE.SYSTEM>
0

>  <SCORE.SYSTEM.CONST>
0

>  <SCORE.SYSTEM.DIHEDRAL>
0

>  <SCORE.SYSTEM.SOLV>
0

>  <SCORE.SYSTEM.norm>
0

>  <SCORE.heavy>
26

>  <SCORE.norm>
-0.316717

>  <RMSD>
17.195

$$$$
ligand
 OpenBabel11021811433D
libRbt.so/2013.1/901 2013/11/27
 26 27  0  0  0  0  0  0  0  0999 V2000
   -4.8088   -1.8578    5.4610 C   0  0  0  0  0  0  0  0  0  0  0  0
   -5.8667   -7.4062    8.6933 C   0  0  0  0  0  0  0  0  0  0  0  0
   -8.5516   -4.8454   10.7479 P   0  0  1  0  0  0  0  0  0  0  0  0
  -10.0107   -6.3435    8.7266 P   0  0  1  0  0  0  0  0  0  0  0  0
   -3.1117   -6.8660    7.7129 C   0  0  0  0  0  0  0  0  0  0  0  0
   -4.1744   -4.5806    7.9073 C   0  0  0  0  0  0  0  0  0  0  0  0
   -3.5689   -5.5468    7.1138 C   0  0  0  0  0  0  0  0  0  0  0  0
   -3.3781   -5.2782    5.7683 C   0  0  0  0  0  0  0  0  0  0  0  0
   -2.7931   -6.1903    4.9544 N   0  0  0  0  0  0  0  0  0  0  0  0
   -3.7803   -4.0929    5.2604 N   0  0  0  0  0  0  0  0  0  0  0  0
   -4.3684   -3.1696    6.0521 C   0  0  0  0  0  0  0  0  0  0  0  0
   -4.5640   -3.4158    7.3706 N   0  0  0  0  0  0  0  0  0  0  0  0
   -7.8261   -3.5255   10.7626 O   0  5  0  0  0  0  0  0  0  0  0  0
  -11.0132   -6.6575    9.7941 O   0  0  0  0  0  0  0  0  0  0  0  0
   -3.1788   -6.8611   11.6857 S   0  0  0  0  0  0  0  0  0  0  0  0
   -2.4745   -6.7296   10.1046 C   0  0  0  0  0  0  0  0  0  0  0  0
   -9.6091   -5.0625   11.7916 O   0  0  0  0  0  0  0  0  0  0  0  0
  -10.7199   -5.8318    7.5173 O   0  5  0  0  0  0  0  0  0  0  0  0
   -3.4190   -6.9204    9.1422 N   0  0  0  0  0  0  0  0  0  0  0  0
   -9.1287   -5.0890    9.2530 O   0  0  0  0  0  0  0  0  0  0  0  0
   -9.0246   -7.4337    8.4068 O   0  0  0  0  0  0  0  0  0  0  0  0
   -4.6808   -7.1679    9.5895 C   0  0  1  0  0  0  0  0  0  0  0  0
   -4.7586   -7.1592   11.0755 C   0  0  1  0  0  0  0  0  0  0  0  0
   -5.8626   -7.3683   12.0778 C   0  0  0  0  0  0  0  0  0  0  0  0
   -6.7058   -6.1047   12.1452 C   0  0  0  0  0  0  0  0  0  0  0  0
   -7.4625   -6.0114   10.9445 O   0  0  0  0  0  0  0  0  0  0  0  0
  1 11  1  0  0  0  0
  3 13  1  1  0  0  0
  3 17  2  0  0  0  0
  3 20  1  0  0  0  0
  3 26  1  0  0  0  0
  4 14  1  1  0  0  0
  4 18  1  0  0  0  0
  4 21  2  0  0  0  0
  4 20  1  0  0  0  0
  5 19  1  0  0  0  0
  5  7  1  0  0  0  0
  6  7  2  0  0  0  0
  6 12  1  0  0  0  0
  7  8  1  0  0  0  0
  8  9  1  0  0  0  0
  8 10  2  0  0  0  0
 10 11  1  0  0  0  0
 11 12  2  0  0  0  0
 15 23  1  0  0  0  0
 15 16  1  0  0  0  0
 16 19  1  0  0  0  0
 19 22  1  0  0  0  0
 22  2  1  6  0  0  0
 22 23  1  0  0  0  0
 23 24  1  1  0  0  0
 24 25  1  0  0  0  0
 25 26  1  0  0  0  0
M  CHG  2  13  -1  18  -1
M  END
>  <CHROM.1>
-178.47454195,-102.81063717,0.66865673,41.51342437,103.88097052,71.80535724
175.01212308,63.52072051,-6.28047189,-5.71344097,9.08631314,0.42272338,0.10558177
-1.14197221

>  <Name>
ligand

>  <RI>
0

>  <Rbt.Current_Directory>
/home/itssahil/PROJECTS/Mol_Feturizer/New_Systems/rnas/2GDI

>  <Rbt.Executable>
rbdock ($Id: //depot/dev/client3/rdock/2013.1/src/exe/rbdock.cxx#4 $)

>  <Rbt.Library>
libRbt.so (2013.1, Build901 2013/11/27)

>  <Rbt.Parameter_File>
/export/apps/rDock/src/rDock_2013.1_src/data/scripts/dock_solv.prm

>  <Rbt.Receptor>
prm/blind_docking_20.prm

>  <SCORE>
-9.96887

>  <SCORE.INTER>
-8.39657

>  <SCORE.INTER.CONST>
1

>  <SCORE.INTER.POLAR>
0

>  <SCORE.INTER.ROT>
8

>  <SCORE.INTER.SOLV>
13.0118

>  <SCORE.INTER.VDW>
-18.8683

>  <SCORE.INTER.norm>
-0.322945

>  <SCORE.INTRA>
-1.5723

>  <SCORE.INTRA.DIHEDRAL>
-1.99782

>  <SCORE.INTRA.DIHEDRAL.0>
8.13976

>  <SCORE.INTRA.POLAR>
0

>  <SCORE.INTRA.POLAR.0>
0

>  <SCORE.INTRA.REPUL>
0

>  <SCORE.INTRA.REPUL.0>
0

>  <SCORE.INTRA.SOLV>
0.565358

>  <SCORE.INTRA.SOLV.lig_0>
-82.9561

>  <SCORE.INTRA.VDW>
-0.856072

>  <SCORE.INTRA.VDW.0>
-3.29171

>  <SCORE.INTRA.norm>
-0.0604732

>  <SCORE.RESTR>
0

>  <SCORE.RESTR.CAVITY>
0

>  <SCORE.RESTR.norm>
0

>  <SCORE.SYSTEM>
0

>  <SCORE.SYSTEM.CONST>
0

>  <SCORE.SYSTEM.DIHEDRAL>
0

>  <SCORE.SYSTEM.SOLV>
0

>  <SCORE.SYSTEM.norm>
0

>  <SCORE.heavy>
26

>  <SCORE.norm>
-0.383418

>  <RMSD>
17.246

$$$$
ligand
 OpenBabel11021811433D
libRbt.so/2013.1/901 2013/11/27
 26 27  0  0  0  0  0  0  0  0999 V2000
   -3.8284   -2.8352    4.0894 C   0  0  0  0  0  0  0  0  0  0  0  0
   -5.5680   -7.6634    8.2124 C   0  0  0  0  0  0  0  0  0  0  0  0
   -7.9169   -4.2265    9.4154 P   0  0  1  0  0  0  0  0  0  0  0  0
   -9.2163   -5.9063    7.4283 P   0  0  1  0  0  0  0  0  0  0  0  0
   -2.7059   -7.3450    7.4710 C   0  0  0  0  0  0  0  0  0  0  0  0
   -3.9157   -5.1835    6.9666 C   0  0  0  0  0  0  0  0  0  0  0  0
   -3.0090   -6.1589    6.5712 C   0  0  0  0  0  0  0  0  0  0  0  0
   -2.3767   -6.0216    5.3464 C   0  0  0  0  0  0  0  0  0  0  0  0
   -1.4855   -6.9480    4.9175 N   0  0  0  0  0  0  0  0  0  0  0  0
   -2.6516   -4.9515    4.5692 N   0  0  0  0  0  0  0  0  0  0  0  0
   -3.5387   -4.0168    4.9749 C   0  0  0  0  0  0  0  0  0  0  0  0
   -4.1675   -4.1356    6.1698 N   0  0  0  0  0  0  0  0  0  0  0  0
   -7.3480   -2.8494    9.1955 O   0  5  0  0  0  0  0  0  0  0  0  0
   -9.3778   -7.0346    8.4000 O   0  0  0  0  0  0  0  0  0  0  0  0
   -3.2277   -6.4997   11.3181 S   0  0  0  0  0  0  0  0  0  0  0  0
   -2.3437   -6.7063    9.8386 C   0  0  0  0  0  0  0  0  0  0  0  0
   -9.2074   -4.3258   10.1767 O   0  0  0  0  0  0  0  0  0  0  0  0
  -10.4284   -5.0370    7.4741 O   0  5  0  0  0  0  0  0  0  0  0  0
   -3.1762   -7.0956    8.8336 N   0  0  0  0  0  0  0  0  0  0  0  0
   -8.0123   -4.9701    7.9784 O   0  0  0  0  0  0  0  0  0  0  0  0
   -8.8285   -6.2933    6.0271 O   0  0  0  0  0  0  0  0  0  0  0  0
   -4.4869   -7.2419    9.1716 C   0  0  1  0  0  0  0  0  0  0  0  0
   -4.7344   -6.9190   10.6030 C   0  0  1  0  0  0  0  0  0  0  0  0
   -5.9509   -6.9104   11.4900 C   0  0  0  0  0  0  0  0  0  0  0  0
   -7.1365   -6.3991   10.6867 C   0  0  0  0  0  0  0  0  0  0  0  0
   -6.8316   -5.0862   10.2324 O   0  0  0  0  0  0  0  0  0  0  0  0
  1 11  1  0  0  0  0
  3 13  1  6  0  0  0
  3 17  2  0  0  0  0
  3 20  1  0  0  0  0
  3 26  1  0  0  0  0
  4 14  1  1  0  0  0
  4 18  1  0  0  0  0
  4 21  2  0  0  0  0
  4 20  1  0  0  0  0
  5 19  1  0  0  0  0
  5  7  1  0  0  0  0
  6  7  2  0  0  0  0
  6 12  1  0  0  0  0
  7  8  1  0  0  0  0
  8  9  1  0  0  0  0
  8 10  2  0  0  0  0
 10 11  1  0  0  0  0
 11 12  2  0  0  0  0
 15 23  1  0  0  0  0
 15 16  1  0  0  0  0
 16 19  1  0  0  0  0
 19 22  1  0  0  0  0
 22  2  1  6  0  0  0
 22 23  1  0  0  0  0
 23 24  1  1  0  0  0
 24 25  1  0  0  0  0
 25 26  1  0  0  0  0
M  CHG  2  13  -1  18  -1
M  END
>  <CHROM.1>
-139.02179410,-100.58566428,-15.46820132,-57.86032743,143.19482897,-59.53814955
-176.62947664,174.64165808,-5.76540142,-5.66814119,8.18247519,0.30186429
0.20067095,-1.26441233

>  <Name>
ligand

>  <RI>
0

>  <Rbt.Current_Directory>
/home/itssahil/PROJECTS/Mol_Feturizer/New_Systems/rnas/2GDI

>  <Rbt.Executable>
rbdock ($Id: //depot/dev/client3/rdock/2013.1/src/exe/rbdock.cxx#4 $)

>  <Rbt.Library>
libRbt.so (2013.1, Build901 2013/11/27)

>  <Rbt.Parameter_File>
/export/apps/rDock/src/rDock_2013.1_src/data/scripts/dock_solv.prm

>  <Rbt.Receptor>
prm/blind_docking_20.prm

>  <SCORE>
-10.1492

>  <SCORE.INTER>
-9.43499

>  <SCORE.INTER.CONST>
1

>  <SCORE.INTER.POLAR>
0

>  <SCORE.INTER.ROT>
8

>  <SCORE.INTER.SOLV>
14.8121

>  <SCORE.INTER.VDW>
-20.1607

>  <SCORE.INTER.norm>
-0.362884

>  <SCORE.INTRA>
-0.749697

>  <SCORE.INTRA.DIHEDRAL>
-1.13549

>  <SCORE.INTRA.DIHEDRAL.0>
8.13976

>  <SCORE.INTRA.POLAR>
0

>  <SCORE.INTRA.POLAR.0>
0

>  <SCORE.INTRA.REPUL>
0

>  <SCORE.INTRA.REPUL.0>
0

>  <SCORE.INTRA.SOLV>
0.752043

>  <SCORE.INTRA.SOLV.lig_0>
-82.9561

>  <SCORE.INTRA.VDW>
-0.557975

>  <SCORE.INTRA.VDW.0>
-3.29171

>  <SCORE.INTRA.norm>
-0.0288345

>  <SCORE.RESTR>
0.0354855

>  <SCORE.RESTR.CAVITY>
0.0354855

>  <SCORE.RESTR.norm>
0.00136483

>  <SCORE.SYSTEM>
0

>  <SCORE.SYSTEM.CONST>
0

>  <SCORE.SYSTEM.DIHEDRAL>
0

>  <SCORE.SYSTEM.SOLV>
0

>  <SCORE.SYSTEM.norm>
0

>  <SCORE.heavy>
26

>  <SCORE.norm>
-0.390354

>  <RMSD>
17.259

$$$$
ligand
 OpenBabel11021811433D
libRbt.so/2013.1/901 2013/11/27
 26 27  0  0  0  0  0  0  0  0999 V2000
   -1.0164  -10.4670    5.5111 C   0  0  0  0  0  0  0  0  0  0  0  0
   -6.3637   -5.9750    9.2215 C   0  0  0  0  0  0  0  0  0  0  0  0
   -9.7122   -7.6750   12.7428 P   0  0  1  0  0  0  0  0  0  0  0  0
  -10.4419   -6.6224   10.1316 P   0  0  1  0  0  0  0  0  0  0  0  0
   -3.6849   -5.9881    7.9304 C   0  0  0  0  0  0  0  0  0  0  0  0
   -3.1751   -8.4590    7.7713 C   0  0  0  0  0  0  0  0  0  0  0  0
   -2.9707   -7.1697    7.2962 C   0  0  0  0  0  0  0  0  0  0  0  0
   -2.1133   -6.9843    6.2241 C   0  0  0  0  0  0  0  0  0  0  0  0
   -1.8816   -5.7452    5.7267 N   0  0  0  0  0  0  0  0  0  0  0  0
   -1.5000   -8.0513    5.6673 N   0  0  0  0  0  0  0  0  0  0  0  0
   -1.7135   -9.2955    6.1483 C   0  0  0  0  0  0  0  0  0  0  0  0
   -2.5483   -9.4954    7.1973 N   0  0  0  0  0  0  0  0  0  0  0  0
  -10.4909   -6.4788   13.2235 O   0  5  0  0  0  0  0  0  0  0  0  0
  -10.8630   -7.3174    8.8734 O   0  0  0  0  0  0  0  0  0  0  0  0
   -3.3250   -6.5940   11.8407 S   0  0  0  0  0  0  0  0  0  0  0  0
   -2.7836   -6.3937   10.2037 C   0  0  0  0  0  0  0  0  0  0  0  0
  -10.0083   -8.9965   13.3914 O   0  0  0  0  0  0  0  0  0  0  0  0
  -11.6483   -6.0875   10.8285 O   0  5  0  0  0  0  0  0  0  0  0  0
   -3.8416   -6.1895    9.3709 N   0  0  0  0  0  0  0  0  0  0  0  0
   -9.8535   -7.7561   11.1302 O   0  0  0  0  0  0  0  0  0  0  0  0
   -9.3505   -5.5974    9.9850 O   0  0  0  0  0  0  0  0  0  0  0  0
   -5.0687   -6.1833    9.9606 C   0  0  1  0  0  0  0  0  0  0  0  0
   -4.9828   -6.3902   11.4317 C   0  0  1  0  0  0  0  0  0  0  0  0
   -5.9895   -6.4741   12.5483 C   0  0  0  0  0  0  0  0  0  0  0  0
   -7.3467   -6.8200   11.9562 C   0  0  0  0  0  0  0  0  0  0  0  0
   -8.1508   -7.3804   12.9869 O   0  0  0  0  0  0  0  0  0  0  0  0
  1 11  1  0  0  0  0
  3 13  1  1  0  0  0
  3 17  2  0  0  0  0
  3 20  1  0  0  0  0
  3 26  1  0  0  0  0
  4 14  1  6  0  0  0
  4 18  1  0  0  0  0
  4 21  2  0  0  0  0
  4 20  1  0  0  0  0
  5 19  1  0  0  0  0
  5  7  1  0  0  0  0
  6  7  2  0  0  0  0
  6 12  1  0  0  0  0
  7  8  1  0  0  0  0
  8  9  1  0  0  0  0
  8 10  2  0  0  0  0
 10 11  1  0  0  0  0
 11 12  2  0  0  0  0
 15 23  1  0  0  0  0
 15 16  1  0  0  0  0
 16 19  1  0  0  0  0
 19 22  1  0  0  0  0
 22  2  1  1  0  0  0
 22 23  1  0  0  0  0
 23 24  1  6  0  0  0
 24 25  1  0  0  0  0
 25 26  1  0  0  0  0
M  CHG  2  13  -1  18  -1
M  END
>  <CHROM.1>
12.01373161,57.95837720,34.75217570,-158.27284265,-157.82351149,158.49565625
171.80758206,-93.72921422,-6.25733694,-7.14804010,9.92684338,0.54419507,0.00315892
-1.72712691

>  <Name>
ligand

>  <RI>
0

>  <Rbt.Current_Directory>
/home/itssahil/PROJECTS/Mol_Feturizer/New_Systems/rnas/2GDI

>  <Rbt.Executable>
rbdock ($Id: //depot/dev/client3/rdock/2013.1/src/exe/rbdock.cxx#4 $)

>  <Rbt.Library>
libRbt.so (2013.1, Build901 2013/11/27)

>  <Rbt.Parameter_File>
/export/apps/rDock/src/rDock_2013.1_src/data/scripts/dock_solv.prm

>  <Rbt.Receptor>
prm/blind_docking_20.prm

>  <SCORE>
-6.12988

>  <SCORE.INTER>
-11.9814

>  <SCORE.INTER.CONST>
1

>  <SCORE.INTER.POLAR>
0

>  <SCORE.INTER.ROT>
8

>  <SCORE.INTER.SOLV>
13.2391

>  <SCORE.INTER.VDW>
-21.3339

>  <SCORE.INTER.norm>
-0.460821

>  <SCORE.INTRA>
4.95928

>  <SCORE.INTRA.DIHEDRAL>
2.91873

>  <SCORE.INTRA.DIHEDRAL.0>
8.13976

>  <SCORE.INTRA.POLAR>
0

>  <SCORE.INTRA.POLAR.0>
0

>  <SCORE.INTRA.REPUL>
0

>  <SCORE.INTRA.REPUL.0>
0

>  <SCORE.INTRA.SOLV>
3.6705

>  <SCORE.INTRA.SOLV.lig_0>
-82.9561

>  <SCORE.INTRA.VDW>
1.66467

>  <SCORE.INTRA.VDW.0>
-3.29171

>  <SCORE.INTRA.norm>
0.190742

>  <SCORE.RESTR>
0.892193

>  <SCORE.RESTR.CAVITY>
0.892193

>  <SCORE.RESTR.norm>
0.0343151

>  <SCORE.SYSTEM>
0

>  <SCORE.SYSTEM.CONST>
0

>  <SCORE.SYSTEM.DIHEDRAL>
0

>  <SCORE.SYSTEM.SOLV>
0

>  <SCORE.SYSTEM.norm>
0

>  <SCORE.heavy>
26

>  <SCORE.norm>
-0.235765

>  <RMSD>
17.276

$$$$
ligand
 OpenBabel11021811433D
libRbt.so/2013.1/901 2013/11/27
 26 27  0  0  0  0  0  0  0  0999 V2000
   -5.1458   -9.0203    4.7102 C   0  0  0  0  0  0  0  0  0  0  0  0
   -4.5128   -4.5537    9.8137 C   0  0  0  0  0  0  0  0  0  0  0  0
   -9.2072   -7.0759   10.9594 P   0  0  1  0  0  0  0  0  0  0  0  0
   -8.4683   -6.4757    8.2111 P   0  0  1  0  0  0  0  0  0  0  0  0
   -2.5230   -6.6943    9.2647 C   0  0  0  0  0  0  0  0  0  0  0  0
   -3.3350   -8.6860    7.9365 C   0  0  0  0  0  0  0  0  0  0  0  0
   -3.2076   -7.3078    8.0550 C   0  0  0  0  0  0  0  0  0  0  0  0
   -3.7290   -6.5034    7.0550 C   0  0  0  0  0  0  0  0  0  0  0  0
   -3.6279   -5.1539    7.1262 N   0  0  0  0  0  0  0  0  0  0  0  0
   -4.3457   -7.0705    5.9955 N   0  0  0  0  0  0  0  0  0  0  0  0
   -4.4557   -8.4138    5.9018 C   0  0  0  0  0  0  0  0  0  0  0  0
   -3.9504   -9.2162    6.8704 N   0  0  0  0  0  0  0  0  0  0  0  0
  -10.3428   -6.1021   11.1345 O   0  5  0  0  0  0  0  0  0  0  0  0
   -8.5860   -7.2347    6.9252 O   0  0  0  0  0  0  0  0  0  0  0  0
   -4.5243   -7.5055   12.6000 S   0  0  0  0  0  0  0  0  0  0  0  0
   -3.3581   -7.7620   11.3401 C   0  0  0  0  0  0  0  0  0  0  0  0
   -9.2317   -8.3216   11.7975 O   0  0  0  0  0  0  0  0  0  0  0  0
   -9.3731   -5.2895    8.1697 O   0  5  0  0  0  0  0  0  0  0  0  0
   -3.3978   -6.7442   10.4362 N   0  0  0  0  0  0  0  0  0  0  0  0
   -9.0747   -7.4203    9.3811 O   0  0  0  0  0  0  0  0  0  0  0  0
   -7.0707   -6.1284    8.6463 O   0  0  0  0  0  0  0  0  0  0  0  0
   -4.3084   -5.7635   10.6861 C   0  0  1  0  0  0  0  0  0  0  0  0
   -5.0725   -6.0161   11.9379 C   0  0  1  0  0  0  0  0  0  0  0  0
   -6.1677   -5.2900   12.6730 C   0  0  0  0  0  0  0  0  0  0  0  0
   -7.4187   -6.1543   12.6615 C   0  0  0  0  0  0  0  0  0  0  0  0
   -7.8387   -6.3094   11.3114 O   0  0  0  0  0  0  0  0  0  0  0  0
  1 11  1  0  0  0  0
  3 13  1  1  0  0  0
  3 17  2  0  0  0  0
  3 20  1  0  0  0  0
  3 26  1  0  0  0  0
  4 14  1  6  0  0  0
  4 18  1  0  0  0  0
  4 21  2  0  0  0  0
  4 20  1  0  0  0  0
  5 19  1  0  0  0  0
  5  7  1  0  0  0  0
  6  7  2  0  0  0  0
  6 12  1  0  0  0  0
  7  8  1  0  0  0  0
  8  9  1  0  0  0  0
  8 10  2  0  0  0  0
 10 11  1  0  0  0  0
 11 12  2  0  0  0  0
 15 23  1  0  0  0  0
 15 16  1  0  0  0  0
 16 19  1  0  0  0  0
 19 22  1  0  0  0  0
 22  2  1  1  0  0  0
 22 23  1  0  0  0  0
 23 24  1  6  0  0  0
 24 25  1  0  0  0  0
 25 26  1  0  0  0  0
M  CHG  2  13  -1  18  -1
M  END
>  <CHROM.1>
74.51548053,93.54465268,-75.53036998,-179.16142016,-63.48562408,-63.51951290
-175.07024948,81.86400337,-6.19825682,-6.85823935,9.47041808,0.65272577,0.04989919
-1.73212299

>  <Name>
ligand

>  <RI>
0

>  <Rbt.Current_Directory>
/home/itssahil/PROJECTS/Mol_Feturizer/New_Systems/rnas/2GDI

>  <Rbt.Executable>
rbdock ($Id: //depot/dev/client3/rdock/2013.1/src/exe/rbdock.cxx#4 $)

>  <Rbt.Library>
libRbt.so (2013.1, Build901 2013/11/27)

>  <Rbt.Parameter_File>
/export/apps/rDock/src/rDock_2013.1_src/data/scripts/dock_solv.prm

>  <Rbt.Receptor>
prm/blind_docking_20.prm

>  <SCORE>
-4.55758

>  <SCORE.INTER>
-5.64412

>  <SCORE.INTER.CONST>
1

>  <SCORE.INTER.POLAR>
0

>  <SCORE.INTER.ROT>
8

>  <SCORE.INTER.SOLV>
11.389

>  <SCORE.INTER.VDW>
-16.4924

>  <SCORE.INTER.norm>
-0.217082

>  <SCORE.INTRA>
1.08654

>  <SCORE.INTRA.DIHEDRAL>
-1.74522

>  <SCORE.INTRA.DIHEDRAL.0>
8.13976

>  <SCORE.INTRA.POLAR>
0

>  <SCORE.INTRA.POLAR.0>
0

>  <SCORE.INTRA.REPUL>
0

>  <SCORE.INTRA.REPUL.0>
0

>  <SCORE.INTRA.SOLV>
6.22284

>  <SCORE.INTRA.SOLV.lig_0>
-82.9561

>  <SCORE.INTRA.VDW>
-1.15227

>  <SCORE.INTRA.VDW.0>
-3.29171

>  <SCORE.INTRA.norm>
0.0417901

>  <SCORE.RESTR>
0

>  <SCORE.RESTR.CAVITY>
0

>  <SCORE.RESTR.norm>
0

>  <SCORE.SYSTEM>
0

>  <SCORE.SYSTEM.CONST>
0

>  <SCORE.SYSTEM.DIHEDRAL>
0

>  <SCORE.SYSTEM.SOLV>
0

>  <SCORE.SYSTEM.norm>
0

>  <SCORE.heavy>
26

>  <SCORE.norm>
-0.175292

>  <RMSD>
17.282

$$$$
ligand
 OpenBabel11021811433D
libRbt.so/2013.1/901 2013/11/27
 26 27  0  0  0  0  0  0  0  0999 V2000
  -28.9234  -19.8423   -7.5123 C   0  0  0  0  0  0  0  0  0  0  0  0
  -30.6282  -11.5716   -8.3030 C   0  0  0  0  0  0  0  0  0  0  0  0
  -36.6589  -10.5665   -9.2562 P   0  0  1  0  0  0  0  0  0  0  0  0
  -35.0439  -10.9627  -11.6424 P   0  0  1  0  0  0  0  0  0  0  0  0
  -29.3791  -14.1140   -7.3980 C   0  0  0  0  0  0  0  0  0  0  0  0
  -30.2589  -16.4088   -7.9898 C   0  0  0  0  0  0  0  0  0  0  0  0
  -29.2617  -15.6287   -7.4181 C   0  0  0  0  0  0  0  0  0  0  0  0
  -28.1519  -16.2584   -6.8789 C   0  0  0  0  0  0  0  0  0  0  0  0
  -27.1542  -15.5395   -6.3095 N   0  0  0  0  0  0  0  0  0  0  0  0
  -28.0627  -17.6056   -6.9205 N   0  0  0  0  0  0  0  0  0  0  0  0
  -29.0465  -18.3429   -7.4805 C   0  0  0  0  0  0  0  0  0  0  0  0
  -30.1400  -17.7437   -8.0119 N   0  0  0  0  0  0  0  0  0  0  0  0
  -37.7129   -9.5448   -8.9193 O   0  5  0  0  0  0  0  0  0  0  0  0
  -33.8551  -11.5223  -10.9234 O   0  0  0  0  0  0  0  0  0  0  0  0
  -32.9541  -13.6702   -5.7218 S   0  0  0  0  0  0  0  0  0  0  0  0
  -31.4408  -14.4490   -6.0631 C   0  0  0  0  0  0  0  0  0  0  0  0
  -37.1016  -11.9950   -9.3911 O   0  0  0  0  0  0  0  0  0  0  0  0
  -35.9736  -12.0739  -12.0001 O   0  5  0  0  0  0  0  0  0  0  0  0
  -30.7033  -13.7029   -6.9315 N   0  0  0  0  0  0  0  0  0  0  0  0
  -35.8662  -10.0597  -10.5760 O   0  0  0  0  0  0  0  0  0  0  0  0
  -34.7447  -10.0555  -12.8046 O   0  0  0  0  0  0  0  0  0  0  0  0
  -31.2739  -12.5387   -7.3468 C   0  0  1  0  0  0  0  0  0  0  0  0
  -32.6107  -12.3205   -6.7305 C   0  0  1  0  0  0  0  0  0  0  0  0
  -33.6563  -11.2414   -6.8272 C   0  0  0  0  0  0  0  0  0  0  0  0
  -34.4738  -11.4663   -8.0895 C   0  0  0  0  0  0  0  0  0  0  0  0
  -35.5489  -10.5350   -8.0938 O   0  0  0  0  0  0  0  0  0  0  0  0
  1 11  1  0  0  0  0
  3 13  1  1  0  0  0
  3 17  2  0  0  0  0
  3 20  1  0  0  0  0
  3 26  1  0  0  0  0
  4 14  1  1  0  0  0
  4 18  1  0  0  0  0
  4 21  2  0  0  0  0
  4 20  1  0  0  0  0
  5 19  1  0  0  0  0
  5  7  1  0  0  0  0
  6  7  2  0  0  0  0
  6 12  1  0  0  0  0
  7  8  1  0  0  0  0
  8  9  1  0  0  0  0
  8 10  2  0  0  0  0
 10 11  1  0  0  0  0
 11 12  2  0  0  0  0
 15 23  1  0  0  0  0
 15 16  1  0  0  0  0
 16 19  1  0  0  0  0
 19 22  1  0  0  0  0
 22  2  1  1  0  0  0
 22 23  1  0  0  0  0
 23 24  1  6  0  0  0
 24 25  1  0  0  0  0
 25 26  1  0  0  0  0
M  CHG  2  13  -1  18  -1
M  END
>  <CHROM.1>
-156.28591094,29.23190456,47.70573148,-66.72738149,-97.89911131,173.58580480
-176.31233849,175.33504910,-32.81639300,-13.11076229,-8.46103921,-0.18146461
0.76457872,-1.79599991

>  <Name>
ligand

>  <RI>
0

>  <Rbt.Current_Directory>
/home/itssahil/PROJECTS/Mol_Feturizer/New_Systems/rnas/2GDI

>  <Rbt.Executable>
rbdock ($Id: //depot/dev/client3/rdock/2013.1/src/exe/rbdock.cxx#4 $)

>  <Rbt.Library>
libRbt.so (2013.1, Build901 2013/11/27)

>  <Rbt.Parameter_File>
/export/apps/rDock/src/rDock_2013.1_src/data/scripts/dock_solv.prm

>  <Rbt.Receptor>
prm/blind_docking_60.prm

>  <SCORE>
-15.2264

>  <SCORE.INTER>
-14.9674

>  <SCORE.INTER.CONST>
1

>  <SCORE.INTER.POLAR>
0

>  <SCORE.INTER.ROT>
8

>  <SCORE.INTER.SOLV>
11.7558

>  <SCORE.INTER.VDW>
-22.8302

>  <SCORE.INTER.norm>
-0.57567

>  <SCORE.INTRA>
-0.5541

>  <SCORE.INTRA.DIHEDRAL>
-1.84174

>  <SCORE.INTRA.DIHEDRAL.0>
8.13976

>  <SCORE.INTRA.POLAR>
0

>  <SCORE.INTRA.POLAR.0>
0

>  <SCORE.INTRA.REPUL>
0

>  <SCORE.INTRA.REPUL.0>
0

>  <SCORE.INTRA.SOLV>
0.219557

>  <SCORE.INTRA.SOLV.lig_0>
-82.9561

>  <SCORE.INTRA.VDW>
0.256989

>  <SCORE.INTRA.VDW.0>
-3.29171

>  <SCORE.INTRA.norm>
-0.0213115

>  <SCORE.RESTR>
0.295081

>  <SCORE.RESTR.CAVITY>
0.295081

>  <SCORE.RESTR.norm>
0.0113493

>  <SCORE.SYSTEM>
0

>  <SCORE.SYSTEM.CONST>
0

>  <SCORE.SYSTEM.DIHEDRAL>
0

>  <SCORE.SYSTEM.SOLV>
0

>  <SCORE.SYSTEM.norm>
0

>  <SCORE.heavy>
26

>  <SCORE.norm>
-0.585633

>  <RMSD>
17.287

$$$$
ligand
 OpenBabel11021811433D
libRbt.so/2013.1/901 2013/11/27
 26 27  0  0  0  0  0  0  0  0999 V2000
   -6.0702   -0.9017    5.5926 C   0  0  0  0  0  0  0  0  0  0  0  0
   -5.2306   -7.9603    9.0341 C   0  0  0  0  0  0  0  0  0  0  0  0
   -8.7108   -5.8222   12.0822 P   0  0  1  0  0  0  0  0  0  0  0  0
  -10.3810   -5.9167    9.7030 P   0  0  1  0  0  0  0  0  0  0  0  0
   -3.7862   -5.7536    7.6604 C   0  0  0  0  0  0  0  0  0  0  0  0
   -5.2843   -3.7284    7.8713 C   0  0  0  0  0  0  0  0  0  0  0  0
   -4.3969   -4.4767    7.1082 C   0  0  0  0  0  0  0  0  0  0  0  0
   -4.0694   -4.0285    5.8390 C   0  0  0  0  0  0  0  0  0  0  0  0
   -3.2093   -4.7252    5.0571 N   0  0  0  0  0  0  0  0  0  0  0  0
   -4.6141   -2.8831    5.3742 N   0  0  0  0  0  0  0  0  0  0  0  0
   -5.4761   -2.1734    6.1347 C   0  0  0  0  0  0  0  0  0  0  0  0
   -5.8087   -2.5976    7.3784 N   0  0  0  0  0  0  0  0  0  0  0  0
   -8.9082   -4.3348   12.2127 O   0  5  0  0  0  0  0  0  0  0  0  0
  -11.5498   -6.2621   10.5737 O   0  0  0  0  0  0  0  0  0  0  0  0
   -3.7048   -5.2051   11.5948 S   0  0  0  0  0  0  0  0  0  0  0  0
   -3.3744   -4.8442    9.9294 C   0  0  0  0  0  0  0  0  0  0  0  0
   -9.4288   -6.7018   13.0648 O   0  0  0  0  0  0  0  0  0  0  0  0
  -10.3457   -4.4407    9.4854 O   0  5  0  0  0  0  0  0  0  0  0  0
   -3.9082   -5.7986    9.1175 N   0  0  0  0  0  0  0  0  0  0  0  0
   -9.0390   -6.2440   10.5520 O   0  0  0  0  0  0  0  0  0  0  0  0
  -10.2584   -6.6981    8.4233 O   0  0  0  0  0  0  0  0  0  0  0  0
   -4.5697   -6.8096    9.7450 C   0  0  1  0  0  0  0  0  0  0  0  0
   -4.5802   -6.6378   11.2231 C   0  0  1  0  0  0  0  0  0  0  0  0
   -5.1444   -7.4261   12.3752 C   0  0  0  0  0  0  0  0  0  0  0  0
   -6.6586   -7.4679   12.2424 C   0  0  0  0  0  0  0  0  0  0  0  0
   -7.1417   -6.1301   12.2476 O   0  0  0  0  0  0  0  0  0  0  0  0
  1 11  1  0  0  0  0
  3 13  1  1  0  0  0
  3 17  2  0  0  0  0
  3 20  1  0  0  0  0
  3 26  1  0  0  0  0
  4 14  1  1  0  0  0
  4 18  1  0  0  0  0
  4 21  2  0  0  0  0
  4 20  1  0  0  0  0
  5 19  1  0  0  0  0
  5  7  1  0  0  0  0
  6  7  2  0  0  0  0
  6 12  1  0  0  0  0
  7  8  1  0  0  0  0
  8  9  1  0  0  0  0
  8 10  2  0  0  0  0
 10 11  1  0  0  0  0
 11 12  2  0  0  0  0
 15 23  1  0  0  0  0
 15 16  1  0  0  0  0
 16 19  1  0  0  0  0
 19 22  1  0  0  0  0
 22  2  1  6  0  0  0
 22 23  1  0  0  0  0
 23 24  1  1  0  0  0
 24 25  1  0  0  0  0
 25 26  1  0  0  0  0
M  CHG  2  13  -1  18  -1
M  END
>  <CHROM.1>
-53.05417375,-58.96645827,-18.12823700,-47.62965152,118.47864982,-59.08048100
178.34363274,176.58957540,-6.67638822,-5.31541707,9.60194961,0.79706749,0.06056782
-1.03292299

>  <Name>
ligand

>  <RI>
0

>  <Rbt.Current_Directory>
/home/itssahil/PROJECTS/Mol_Feturizer/New_Systems/rnas/2GDI

>  <Rbt.Executable>
rbdock ($Id: //depot/dev/client3/rdock/2013.1/src/exe/rbdock.cxx#4 $)

>  <Rbt.Library>
libRbt.so (2013.1, Build901 2013/11/27)

>  <Rbt.Parameter_File>
/export/apps/rDock/src/rDock_2013.1_src/data/scripts/dock_solv.prm

>  <Rbt.Receptor>
prm/blind_docking_20.prm

>  <SCORE>
-7.92204

>  <SCORE.INTER>
-6.13867

>  <SCORE.INTER.CONST>
1

>  <SCORE.INTER.POLAR>
0

>  <SCORE.INTER.ROT>
8

>  <SCORE.INTER.SOLV>
10.6647

>  <SCORE.INTER.VDW>
-16.5807

>  <SCORE.INTER.norm>
-0.236103

>  <SCORE.INTRA>
-1.78337

>  <SCORE.INTRA.DIHEDRAL>
-3.00939

>  <SCORE.INTRA.DIHEDRAL.0>
8.13976

>  <SCORE.INTRA.POLAR>
0

>  <SCORE.INTRA.POLAR.0>
0

>  <SCORE.INTRA.REPUL>
0

>  <SCORE.INTRA.REPUL.0>
0

>  <SCORE.INTRA.SOLV>
-0.203027

>  <SCORE.INTRA.SOLV.lig_0>
-82.9561

>  <SCORE.INTRA.VDW>
-0.177163

>  <SCORE.INTRA.VDW.0>
-3.29171

>  <SCORE.INTRA.norm>
-0.0685913

>  <SCORE.RESTR>
0

>  <SCORE.RESTR.CAVITY>
0

>  <SCORE.RESTR.norm>
0

>  <SCORE.SYSTEM>
0

>  <SCORE.SYSTEM.CONST>
0

>  <SCORE.SYSTEM.DIHEDRAL>
0

>  <SCORE.SYSTEM.SOLV>
0

>  <SCORE.SYSTEM.norm>
0

>  <SCORE.heavy>
26

>  <SCORE.norm>
-0.304694

>  <RMSD>
17.360

$$$$
ligand
 OpenBabel11021811433D
libRbt.so/2013.1/901 2013/11/27
 26 27  0  0  0  0  0  0  0  0999 V2000
  -29.4725  -19.4172   -5.9989 C   0  0  0  0  0  0  0  0  0  0  0  0
  -30.6419  -11.6763   -7.1023 C   0  0  0  0  0  0  0  0  0  0  0  0
  -35.4948   -8.9348   -9.5642 P   0  0  1  0  0  0  0  0  0  0  0  0
  -37.6072  -10.7689   -8.7686 P   0  0  1  0  0  0  0  0  0  0  0  0
  -30.5726  -13.8520   -5.0763 C   0  0  0  0  0  0  0  0  0  0  0  0
  -31.3121  -16.2508   -5.3747 C   0  0  0  0  0  0  0  0  0  0  0  0
  -30.2791  -15.3243   -5.3100 C   0  0  0  0  0  0  0  0  0  0  0  0
  -28.9772  -15.7673   -5.4764 C   0  0  0  0  0  0  0  0  0  0  0  0
  -27.9366  -14.9010   -5.4203 N   0  0  0  0  0  0  0  0  0  0  0  0
  -28.7412  -17.0789   -5.6968 N   0  0  0  0  0  0  0  0  0  0  0  0
  -29.7627  -17.9612   -5.7538 C   0  0  0  0  0  0  0  0  0  0  0  0
  -31.0427  -17.5456   -5.5922 N   0  0  0  0  0  0  0  0  0  0  0  0
  -34.7136   -8.8390  -10.8483 O   0  5  0  0  0  0  0  0  0  0  0  0
  -37.2989  -10.8691   -7.3063 O   0  0  0  0  0  0  0  0  0  0  0  0
  -34.2762  -13.3529   -6.4261 S   0  0  0  0  0  0  0  0  0  0  0  0
  -33.0111  -14.0597   -5.4705 C   0  0  0  0  0  0  0  0  0  0  0  0
  -36.4538   -7.8213   -9.2559 O   0  0  0  0  0  0  0  0  0  0  0  0
  -38.5116   -9.6055   -9.0046 O   0  5  0  0  0  0  0  0  0  0  0  0
  -31.8177  -13.4603   -5.7371 N   0  0  0  0  0  0  0  0  0  0  0  0
  -36.2255  -10.3810   -9.5231 O   0  0  0  0  0  0  0  0  0  0  0  0
  -38.0951  -12.0302   -9.4276 O   0  0  0  0  0  0  0  0  0  0  0  0
  -31.8478  -12.4641   -6.6646 C   0  0  1  0  0  0  0  0  0  0  0  0
  -33.2209  -12.2290   -7.1878 C   0  0  1  0  0  0  0  0  0  0  0  0
  -33.8210  -11.2859   -8.1965 C   0  0  0  0  0  0  0  0  0  0  0  0
  -34.4195  -10.0988   -7.4584 C   0  0  0  0  0  0  0  0  0  0  0  0
  -34.4445   -8.9896   -8.3484 O   0  0  0  0  0  0  0  0  0  0  0  0
  1 11  1  0  0  0  0
  3 13  1  6  0  0  0
  3 17  2  0  0  0  0
  3 20  1  0  0  0  0
  3 26  1  0  0  0  0
  4 14  1  1  0  0  0
  4 18  1  0  0  0  0
  4 21  2  0  0  0  0
  4 20  1  0  0  0  0
  5 19  1  0  0  0  0
  5  7  1  0  0  0  0
  6  7  2  0  0  0  0
  6 12  1  0  0  0  0
  7  8  1  0  0  0  0
  8  9  1  0  0  0  0
  8 10  2  0  0  0  0
 10 11  1  0  0  0  0
 11 12  2  0  0  0  0
 15 23  1  0  0  0  0
 15 16  1  0  0  0  0
 16 19  1  0  0  0  0
 19 22  1  0  0  0  0
 22  2  1  1  0  0  0
 22 23  1  0  0  0  0
 23 24  1  6  0  0  0
 24 25  1  0  0  0  0
 25 26  1  0  0  0  0
M  CHG  2  13  -1  18  -1
M  END
>  <CHROM.1>
-151.78492415,57.91182273,-35.37123630,-75.62671226,83.55468444,154.85071216
72.69563635,-120.61833791,-33.57357988,-12.50116657,-7.38953703,0.83198184
0.18411737,2.82154066

>  <Name>
ligand

>  <RI>
0

>  <Rbt.Current_Directory>
/home/itssahil/PROJECTS/Mol_Feturizer/New_Systems/rnas/2GDI

>  <Rbt.Executable>
rbdock ($Id: //depot/dev/client3/rdock/2013.1/src/exe/rbdock.cxx#4 $)

>  <Rbt.Library>
libRbt.so (2013.1, Build901 2013/11/27)

>  <Rbt.Parameter_File>
/export/apps/rDock/src/rDock_2013.1_src/data/scripts/dock_solv.prm

>  <Rbt.Receptor>
prm/blind_docking_60.prm

>  <SCORE>
-13.4988

>  <SCORE.INTER>
-17.5722

>  <SCORE.INTER.CONST>
1

>  <SCORE.INTER.POLAR>
0

>  <SCORE.INTER.ROT>
8

>  <SCORE.INTER.SOLV>
16.0476

>  <SCORE.INTER.VDW>
-25.9974

>  <SCORE.INTER.norm>
-0.675855

>  <SCORE.INTRA>
4.05421

>  <SCORE.INTRA.DIHEDRAL>
4.03358

>  <SCORE.INTRA.DIHEDRAL.0>
8.13976

>  <SCORE.INTRA.POLAR>
0

>  <SCORE.INTRA.POLAR.0>
0

>  <SCORE.INTRA.REPUL>
0

>  <SCORE.INTRA.REPUL.0>
0

>  <SCORE.INTRA.SOLV>
1.90927

>  <SCORE.INTRA.SOLV.lig_0>
-82.9561

>  <SCORE.INTRA.VDW>
1.08278

>  <SCORE.INTRA.VDW.0>
-3.29171

>  <SCORE.INTRA.norm>
0.155931

>  <SCORE.RESTR>
0.0192686

>  <SCORE.RESTR.CAVITY>
0.0192686

>  <SCORE.RESTR.norm>
0.000741101

>  <SCORE.SYSTEM>
0

>  <SCORE.SYSTEM.CONST>
0

>  <SCORE.SYSTEM.DIHEDRAL>
0

>  <SCORE.SYSTEM.SOLV>
0

>  <SCORE.SYSTEM.norm>
0

>  <SCORE.heavy>
26

>  <SCORE.norm>
-0.519183

>  <RMSD>
17.375

$$$$
ligand
 OpenBabel11021811433D
libRbt.so/2013.1/901 2013/11/27
 26 27  0  0  0  0  0  0  0  0999 V2000
   -4.1872   -2.3624    4.6876 C   0  0  0  0  0  0  0  0  0  0  0  0
   -5.7452   -7.6081    8.8156 C   0  0  0  0  0  0  0  0  0  0  0  0
   -7.9022   -4.1293   10.4724 P   0  0  1  0  0  0  0  0  0  0  0  0
   -9.6070   -5.9718    9.0035 P   0  0  1  0  0  0  0  0  0  0  0  0
   -3.0349   -7.1250    7.6914 C   0  0  0  0  0  0  0  0  0  0  0  0
   -4.0956   -4.8430    7.4513 C   0  0  0  0  0  0  0  0  0  0  0  0
   -3.3472   -5.8712    6.8922 C   0  0  0  0  0  0  0  0  0  0  0  0
   -2.8798   -5.7247    5.5965 C   0  0  0  0  0  0  0  0  0  0  0  0
   -2.1467   -6.7010    5.0084 N   0  0  0  0  0  0  0  0  0  0  0  0
   -3.1582   -4.5952    4.9099 N   0  0  0  0  0  0  0  0  0  0  0  0
   -3.8897   -3.6098    5.4747 C   0  0  0  0  0  0  0  0  0  0  0  0
   -4.3560   -3.7365    6.7412 N   0  0  0  0  0  0  0  0  0  0  0  0
   -7.3009   -2.8155   10.0469 O   0  5  0  0  0  0  0  0  0  0  0  0
   -9.2322   -7.1951    9.7822 O   0  0  0  0  0  0  0  0  0  0  0  0
   -3.0577   -6.3618   11.5906 S   0  0  0  0  0  0  0  0  0  0  0  0
   -2.3794   -6.4999    9.9988 C   0  0  0  0  0  0  0  0  0  0  0  0
   -8.9868   -4.0872   11.5100 O   0  0  0  0  0  0  0  0  0  0  0  0
  -10.7622   -5.2984    9.6663 O   0  5  0  0  0  0  0  0  0  0  0  0
   -3.3228   -6.9201    9.1110 N   0  0  0  0  0  0  0  0  0  0  0  0
   -8.3790   -4.9221    9.1416 O   0  0  0  0  0  0  0  0  0  0  0  0
   -9.8154   -6.1684    7.5266 O   0  0  0  0  0  0  0  0  0  0  0  0
   -4.5641   -7.1418    9.6243 C   0  0  1  0  0  0  0  0  0  0  0  0
   -4.6257   -6.8522   11.0826 C   0  0  1  0  0  0  0  0  0  0  0  0
   -5.7054   -6.9217   12.1298 C   0  0  0  0  0  0  0  0  0  0  0  0
   -6.9901   -6.3576   11.5437 C   0  0  0  0  0  0  0  0  0  0  0  0
   -6.7233   -5.0421   11.0734 O   0  0  0  0  0  0  0  0  0  0  0  0
  1 11  1  0  0  0  0
  3 13  1  6  0  0  0
  3 17  2  0  0  0  0
  3 20  1  0  0  0  0
  3 26  1  0  0  0  0
  4 14  1  1  0  0  0
  4 18  1  0  0  0  0
  4 21  2  0  0  0  0
  4 20  1  0  0  0  0
  5 19  1  0  0  0  0
  5  7  1  0  0  0  0
  6  7  2  0  0  0  0
  6 12  1  0  0  0  0
  7  8  1  0  0  0  0
  8  9  1  0  0  0  0
  8 10  2  0  0  0  0
 10 11  1  0  0  0  0
 11 12  2  0  0  0  0
 15 23  1  0  0  0  0
 15 16  1  0  0  0  0
 16 19  1  0  0  0  0
 19 22  1  0  0  0  0
 22  2  1  6  0  0  0
 22 23  1  0  0  0  0
 23 24  1  1  0  0  0
 24 25  1  0  0  0  0
 25 26  1  0  0  0  0
M  CHG  2  13  -1  18  -1
M  END
>  <CHROM.1>
-150.06344790,-92.87609311,-13.89445710,-68.25251904,138.61353682,-55.69183290
-176.28143020,-179.14969677,-5.93182144,-5.53683979,8.97233203,0.48984424
0.21780265,-1.20381345

>  <Name>
ligand

>  <RI>
0

>  <Rbt.Current_Directory>
/home/itssahil/PROJECTS/Mol_Feturizer/New_Systems/rnas/2GDI

>  <Rbt.Executable>
rbdock ($Id: //depot/dev/client3/rdock/2013.1/src/exe/rbdock.cxx#4 $)

>  <Rbt.Library>
libRbt.so (2013.1, Build901 2013/11/27)

>  <Rbt.Parameter_File>
/export/apps/rDock/src/rDock_2013.1_src/data/scripts/dock_solv.prm

>  <Rbt.Receptor>
prm/blind_docking_20.prm

>  <SCORE>
-9.66942

>  <SCORE.INTER>
-8.55984

>  <SCORE.INTER.CONST>
1

>  <SCORE.INTER.POLAR>
0

>  <SCORE.INTER.ROT>
8

>  <SCORE.INTER.SOLV>
9.46687

>  <SCORE.INTER.VDW>
-17.7955

>  <SCORE.INTER.norm>
-0.329225

>  <SCORE.INTRA>
-1.13021

>  <SCORE.INTRA.DIHEDRAL>
-1.6069

>  <SCORE.INTRA.DIHEDRAL.0>
8.13976

>  <SCORE.INTRA.POLAR>
0

>  <SCORE.INTRA.POLAR.0>
0

>  <SCORE.INTRA.REPUL>
0

>  <SCORE.INTRA.REPUL.0>
0

>  <SCORE.INTRA.SOLV>
0.777459

>  <SCORE.INTRA.SOLV.lig_0>
-82.9561

>  <SCORE.INTRA.VDW>
-0.715489

>  <SCORE.INTRA.VDW.0>
-3.29171

>  <SCORE.INTRA.norm>
-0.0434696

>  <SCORE.RESTR>
0.0206251

>  <SCORE.RESTR.CAVITY>
0.0206251

>  <SCORE.RESTR.norm>
0.000793272

>  <SCORE.SYSTEM>
0

>  <SCORE.SYSTEM.CONST>
0

>  <SCORE.SYSTEM.DIHEDRAL>
0

>  <SCORE.SYSTEM.SOLV>
0

>  <SCORE.SYSTEM.norm>
0

>  <SCORE.heavy>
26

>  <SCORE.norm>
-0.371901

>  <RMSD>
17.512

$$$$
ligand
 OpenBabel11021811433D
libRbt.so/2013.1/901 2013/11/27
 26 27  0  0  0  0  0  0  0  0999 V2000
   -3.7128   -2.9102    4.0567 C   0  0  0  0  0  0  0  0  0  0  0  0
   -5.6810   -7.5793    8.4543 C   0  0  0  0  0  0  0  0  0  0  0  0
   -7.3983   -4.0560    9.3871 P   0  0  1  0  0  0  0  0  0  0  0  0
   -8.9415   -5.3331    7.2784 P   0  0  1  0  0  0  0  0  0  0  0  0
   -2.8897   -7.4883    7.4326 C   0  0  0  0  0  0  0  0  0  0  0  0
   -4.0297   -5.3000    6.8831 C   0  0  0  0  0  0  0  0  0  0  0  0
   -3.1134   -6.2839    6.5339 C   0  0  0  0  0  0  0  0  0  0  0  0
   -2.3978   -6.1384    5.3567 C   0  0  0  0  0  0  0  0  0  0  0  0
   -1.4939   -7.0726    4.9738 N   0  0  0  0  0  0  0  0  0  0  0  0
   -2.6034   -5.0524    4.5803 N   0  0  0  0  0  0  0  0  0  0  0  0
   -3.5015   -4.1096    4.9405 C   0  0  0  0  0  0  0  0  0  0  0  0
   -4.2112   -4.2361    6.0883 N   0  0  0  0  0  0  0  0  0  0  0  0
   -6.5810   -3.5239    8.2394 O   0  5  0  0  0  0  0  0  0  0  0  0
   -9.1999   -3.9555    6.7500 O   0  0  0  0  0  0  0  0  0  0  0  0
   -2.9759   -6.4876   11.2769 S   0  0  0  0  0  0  0  0  0  0  0  0
   -2.2563   -6.8028    9.7291 C   0  0  0  0  0  0  0  0  0  0  0  0
   -8.1048   -3.0535   10.2535 O   0  0  0  0  0  0  0  0  0  0  0  0
   -7.7899   -5.9359    6.5451 O   0  5  0  0  0  0  0  0  0  0  0  0
   -3.2072   -7.1634    8.8233 N   0  0  0  0  0  0  0  0  0  0  0  0
   -8.4222   -5.1698    8.8056 O   0  0  0  0  0  0  0  0  0  0  0  0
  -10.1338   -6.2480    7.3453 O   0  0  0  0  0  0  0  0  0  0  0  0
   -4.4855   -7.2056    9.2896 C   0  0  1  0  0  0  0  0  0  0  0  0
   -4.5699   -6.8211   10.7247 C   0  0  1  0  0  0  0  0  0  0  0  0
   -5.6909   -6.6984   11.7223 C   0  0  0  0  0  0  0  0  0  0  0  0
   -6.8811   -6.0422   11.0402 C   0  0  0  0  0  0  0  0  0  0  0  0
   -6.4166   -4.8883   10.3504 O   0  0  0  0  0  0  0  0  0  0  0  0
  1 11  1  0  0  0  0
  3 13  1  6  0  0  0
  3 17  2  0  0  0  0
  3 20  1  0  0  0  0
  3 26  1  0  0  0  0
  4 14  1  6  0  0  0
  4 18  1  0  0  0  0
  4 21  2  0  0  0  0
  4 20  1  0  0  0  0
  5 19  1  0  0  0  0
  5  7  1  0  0  0  0
  6  7  2  0  0  0  0
  6 12  1  0  0  0  0
  7  8  1  0  0  0  0
  8  9  1  0  0  0  0
  8 10  2  0  0  0  0
 10 11  1  0  0  0  0
 11 12  2  0  0  0  0
 15 23  1  0  0  0  0
 15 16  1  0  0  0  0
 16 19  1  0  0  0  0
 19 22  1  0  0  0  0
 22  2  1  6  0  0  0
 22 23  1  0  0  0  0
 23 24  1  1  0  0  0
 24 25  1  0  0  0  0
 25 26  1  0  0  0  0
M  CHG  2  13  -1  18  -1
M  END
>  <CHROM.1>
-21.92709623,-96.93818132,-26.47721525,-40.48490908,139.38913646,-48.32063131
173.09995552,-145.75332302,-5.54632494,-5.51465636,8.14506014,0.24759659
0.28749218,-1.29451296

>  <Name>
ligand

>  <RI>
0

>  <Rbt.Current_Directory>
/home/itssahil/PROJECTS/Mol_Feturizer/New_Systems/rnas/2GDI

>  <Rbt.Executable>
rbdock ($Id: //depot/dev/client3/rdock/2013.1/src/exe/rbdock.cxx#4 $)

>  <Rbt.Library>
libRbt.so (2013.1, Build901 2013/11/27)

>  <Rbt.Parameter_File>
/export/apps/rDock/src/rDock_2013.1_src/data/scripts/dock_solv.prm

>  <Rbt.Receptor>
prm/blind_docking_20.prm

>  <SCORE>
-8.68932

>  <SCORE.INTER>
-9.39317

>  <SCORE.INTER.CONST>
1

>  <SCORE.INTER.POLAR>
0

>  <SCORE.INTER.ROT>
8

>  <SCORE.INTER.SOLV>
12.1939

>  <SCORE.INTER.VDW>
-19.2601

>  <SCORE.INTER.norm>
-0.361276

>  <SCORE.INTRA>
0.639279

>  <SCORE.INTRA.DIHEDRAL>
0.863791

>  <SCORE.INTRA.DIHEDRAL.0>
8.13976

>  <SCORE.INTRA.POLAR>
0

>  <SCORE.INTRA.POLAR.0>
0

>  <SCORE.INTRA.REPUL>
0

>  <SCORE.INTRA.REPUL.0>
0

>  <SCORE.INTRA.SOLV>
1.94278

>  <SCORE.INTRA.SOLV.lig_0>
-82.9561

>  <SCORE.INTRA.VDW>
-0.764006

>  <SCORE.INTRA.VDW.0>
-3.29171

>  <SCORE.INTRA.norm>
0.0245877

>  <SCORE.RESTR>
0.0645689

>  <SCORE.RESTR.CAVITY>
0.0645689

>  <SCORE.RESTR.norm>
0.00248342

>  <SCORE.SYSTEM>
0

>  <SCORE.SYSTEM.CONST>
0

>  <SCORE.SYSTEM.DIHEDRAL>
0

>  <SCORE.SYSTEM.SOLV>
0

>  <SCORE.SYSTEM.norm>
0

>  <SCORE.heavy>
26

>  <SCORE.norm>
-0.334205

>  <RMSD>
17.514

$$$$
ligand
 OpenBabel11021811433D
libRbt.so/2013.1/901 2013/11/27
 26 27  0  0  0  0  0  0  0  0999 V2000
   -1.5178   -7.5399    7.0453 C   0  0  0  0  0  0  0  0  0  0  0  0
   -8.0185   -4.4196    9.7781 C   0  0  0  0  0  0  0  0  0  0  0  0
   -7.8585   -1.3334    7.1679 P   0  0  1  0  0  0  0  0  0  0  0  0
   -5.2935   -2.6996    7.2827 P   0  0  1  0  0  0  0  0  0  0  0  0
   -6.7860   -7.0829    9.2971 C   0  0  0  0  0  0  0  0  0  0  0  0
   -5.1986   -7.8093    7.4688 C   0  0  0  0  0  0  0  0  0  0  0  0
   -5.3915   -7.2120    8.7081 C   0  0  0  0  0  0  0  0  0  0  0  0
   -4.2887   -6.7243    9.3900 C   0  0  0  0  0  0  0  0  0  0  0  0
   -4.4270   -6.1348   10.6023 N   0  0  0  0  0  0  0  0  0  0  0  0
   -3.0600   -6.8379    8.8405 N   0  0  0  0  0  0  0  0  0  0  0  0
   -2.8976   -7.4244    7.6344 C   0  0  0  0  0  0  0  0  0  0  0  0
   -3.9652   -7.9081    6.9536 N   0  0  0  0  0  0  0  0  0  0  0  0
   -8.2534   -1.5144    8.6100 O   0  5  0  0  0  0  0  0  0  0  0  0
   -5.3431   -2.9140    8.7642 O   0  0  0  0  0  0  0  0  0  0  0  0
   -9.1481   -6.0964    6.2583 S   0  0  0  0  0  0  0  0  0  0  0  0
   -8.0469   -7.0874    7.1629 C   0  0  0  0  0  0  0  0  0  0  0  0
   -7.3401    0.0153    6.7591 O   0  0  0  0  0  0  0  0  0  0  0  0
   -4.8169   -3.9480    6.6181 O   0  5  0  0  0  0  0  0  0  0  0  0
   -7.7028   -6.4776    8.3310 N   0  0  0  0  0  0  0  0  0  0  0  0
   -6.8223   -2.5159    6.7747 O   0  0  0  0  0  0  0  0  0  0  0  0
   -4.5560   -1.4734    6.8182 O   0  0  0  0  0  0  0  0  0  0  0  0
   -8.2662   -5.2582    8.5525 C   0  0  1  0  0  0  0  0  0  0  0  0
   -9.1747   -4.8529    7.4458 C   0  0  1  0  0  0  0  0  0  0  0  0
  -10.0317   -3.6462    7.1694 C   0  0  0  0  0  0  0  0  0  0  0  0
   -9.5143   -2.9574    5.9164 C   0  0  0  0  0  0  0  0  0  0  0  0
   -9.1523   -1.6253    6.2596 O   0  0  0  0  0  0  0  0  0  0  0  0
  1 11  1  0  0  0  0
  3 13  1  1  0  0  0
  3 17  2  0  0  0  0
  3 20  1  0  0  0  0
  3 26  1  0  0  0  0
  4 14  1  1  0  0  0
  4 18  1  0  0  0  0
  4 21  2  0  0  0  0
  4 20  1  0  0  0  0
  5 19  1  0  0  0  0
  5  7  1  0  0  0  0
  6  7  2  0  0  0  0
  6 12  1  0  0  0  0
  7  8  1  0  0  0  0
  8  9  1  0  0  0  0
  8 10  2  0  0  0  0
 10 11  1  0  0  0  0
 11 12  2  0  0  0  0
 15 23  1  0  0  0  0
 15 16  1  0  0  0  0
 16 19  1  0  0  0  0
 19 22  1  0  0  0  0
 22  2  1  1  0  0  0
 22 23  1  0  0  0  0
 23 24  1  6  0  0  0
 24 25  1  0  0  0  0
 25 26  1  0  0  0  0
M  CHG  2  13  -1  18  -1
M  END
>  <CHROM.1>
-70.07511895,65.23156885,-51.12369594,63.63322408,-61.98078545,-120.84210899
70.76674890,-82.56239681,-6.55541601,-4.43717025,7.62245143,-0.89441287,-0.11374981
-0.13359667

>  <Name>
ligand

>  <RI>
0

>  <Rbt.Current_Directory>
/home/itssahil/PROJECTS/Mol_Feturizer/New_Systems/rnas/2GDI

>  <Rbt.Executable>
rbdock ($Id: //depot/dev/client3/rdock/2013.1/src/exe/rbdock.cxx#4 $)

>  <Rbt.Library>
libRbt.so (2013.1, Build901 2013/11/27)

>  <Rbt.Parameter_File>
/export/apps/rDock/src/rDock_2013.1_src/data/scripts/dock_solv.prm

>  <Rbt.Receptor>
prm/blind_docking_100.prm

>  <SCORE>
-7.43827

>  <SCORE.INTER>
-9.57941

>  <SCORE.INTER.CONST>
1

>  <SCORE.INTER.POLAR>
0

>  <SCORE.INTER.ROT>
8

>  <SCORE.INTER.SOLV>
6.99714

>  <SCORE.INTER.VDW>
-17.652

>  <SCORE.INTER.norm>
-0.368439

>  <SCORE.INTRA>
2.14114

>  <SCORE.INTRA.DIHEDRAL>
4.15904

>  <SCORE.INTRA.DIHEDRAL.0>
8.13976

>  <SCORE.INTRA.POLAR>
0

>  <SCORE.INTRA.POLAR.0>
0

>  <SCORE.INTRA.REPUL>
0

>  <SCORE.INTRA.REPUL.0>
0

>  <SCORE.INTRA.SOLV>
4.12116

>  <SCORE.INTRA.SOLV.lig_0>
-82.9561

>  <SCORE.INTRA.VDW>
-1.99896

>  <SCORE.INTRA.VDW.0>
-3.29171

>  <SCORE.INTRA.norm>
0.0823515

>  <SCORE.RESTR>
0

>  <SCORE.RESTR.CAVITY>
0

>  <SCORE.RESTR.norm>
0

>  <SCORE.SYSTEM>
0

>  <SCORE.SYSTEM.CONST>
0

>  <SCORE.SYSTEM.DIHEDRAL>
0

>  <SCORE.SYSTEM.SOLV>
0

>  <SCORE.SYSTEM.norm>
0

>  <SCORE.heavy>
26

>  <SCORE.norm>
-0.286087

>  <RMSD>
17.542

$$$$
ligand
 OpenBabel11021811433D
libRbt.so/2013.1/901 2013/11/27
 26 27  0  0  0  0  0  0  0  0999 V2000
  -10.8364   -2.4930    5.9348 C   0  0  0  0  0  0  0  0  0  0  0  0
   -4.7686   -4.0713    9.3536 C   0  0  0  0  0  0  0  0  0  0  0  0
   -5.7890   -7.5001    6.8125 P   0  0  1  0  0  0  0  0  0  0  0  0
   -3.3722   -8.9622    6.1195 P   0  0  1  0  0  0  0  0  0  0  0  0
   -7.2015   -2.7051   10.3818 C   0  0  0  0  0  0  0  0  0  0  0  0
   -9.1264   -3.6313    9.0300 C   0  0  0  0  0  0  0  0  0  0  0  0
   -8.1549   -2.6530    9.2000 C   0  0  0  0  0  0  0  0  0  0  0  0
   -8.0813   -1.6217    8.2780 C   0  0  0  0  0  0  0  0  0  0  0  0
   -7.1497   -0.6454    8.4014 N   0  0  0  0  0  0  0  0  0  0  0  0
   -8.9484   -1.5884    7.2428 N   0  0  0  0  0  0  0  0  0  0  0  0
   -9.8836   -2.5525    7.0979 C   0  0  0  0  0  0  0  0  0  0  0  0
   -9.9694   -3.5696    7.9898 N   0  0  0  0  0  0  0  0  0  0  0  0
   -6.2846   -6.1074    6.5239 O   0  5  0  0  0  0  0  0  0  0  0  0
   -3.2307   -9.5536    7.4884 O   0  0  0  0  0  0  0  0  0  0  0  0
   -7.0306   -6.4259   11.7652 S   0  0  0  0  0  0  0  0  0  0  0  0
   -7.6899   -4.8341   11.5539 C   0  0  0  0  0  0  0  0  0  0  0  0
   -6.6362   -8.6455    6.3380 O   0  0  0  0  0  0  0  0  0  0  0  0
   -4.1920   -9.8743    5.2692 O   0  5  0  0  0  0  0  0  0  0  0  0
   -6.8927   -4.0900   10.7381 N   0  0  0  0  0  0  0  0  0  0  0  0
   -4.2665   -7.6181    6.2695 O   0  0  0  0  0  0  0  0  0  0  0  0
   -2.0944   -8.5333    5.4513 O   0  0  0  0  0  0  0  0  0  0  0  0
   -5.7784   -4.7141   10.2666 C   0  0  1  0  0  0  0  0  0  0  0  0
   -5.6800   -6.1195   10.7459 C   0  0  1  0  0  0  0  0  0  0  0  0
   -4.6909   -7.2373   10.5481 C   0  0  0  0  0  0  0  0  0  0  0  0
   -4.4172   -7.3886    9.0600 C   0  0  0  0  0  0  0  0  0  0  0  0
   -5.6518   -7.6567    8.4066 O   0  0  0  0  0  0  0  0  0  0  0  0
  1 11  1  0  0  0  0
  3 13  1  6  0  0  0
  3 17  2  0  0  0  0
  3 20  1  0  0  0  0
  3 26  1  0  0  0  0
  4 14  1  1  0  0  0
  4 18  1  0  0  0  0
  4 21  2  0  0  0  0
  4 20  1  0  0  0  0
  5 19  1  0  0  0  0
  5  7  1  0  0  0  0
  6  7  2  0  0  0  0
  6 12  1  0  0  0  0
  7  8  1  0  0  0  0
  8  9  1  0  0  0  0
  8 10  2  0  0  0  0
 10 11  1  0  0  0  0
 11 12  2  0  0  0  0
 15 23  1  0  0  0  0
 15 16  1  0  0  0  0
 16 19  1  0  0  0  0
 19 22  1  0  0  0  0
 22  2  1  6  0  0  0
 22 23  1  0  0  0  0
 23 24  1  1  0  0  0
 24 25  1  0  0  0  0
 25 26  1  0  0  0  0
M  CHG  2  13  -1  18  -1
M  END
>  <CHROM.1>
-169.27616907,-84.62730638,33.62155636,-60.89767157,131.40786072,-58.51524570
164.23378737,-92.93333878,-6.22874985,-5.82865092,8.21603997,2.73582522,-0.88133003
1.40944223

>  <Name>
ligand

>  <RI>
0

>  <Rbt.Current_Directory>
/home/itssahil/PROJECTS/Mol_Feturizer/New_Systems/rnas/2GDI

>  <Rbt.Executable>
rbdock ($Id: //depot/dev/client3/rdock/2013.1/src/exe/rbdock.cxx#4 $)

>  <Rbt.Library>
libRbt.so (2013.1, Build901 2013/11/27)

>  <Rbt.Parameter_File>
/export/apps/rDock/src/rDock_2013.1_src/data/scripts/dock_solv.prm

>  <Rbt.Receptor>
prm/blind_docking_100.prm

>  <SCORE>
-1.50783

>  <SCORE.INTER>
-1.55656

>  <SCORE.INTER.CONST>
1

>  <SCORE.INTER.POLAR>
0

>  <SCORE.INTER.ROT>
8

>  <SCORE.INTER.SOLV>
15.452

>  <SCORE.INTER.VDW>
-15.1217

>  <SCORE.INTER.norm>
-0.0598675

>  <SCORE.INTRA>
0.0422911

>  <SCORE.INTRA.DIHEDRAL>
-0.36122

>  <SCORE.INTRA.DIHEDRAL.0>
8.13976

>  <SCORE.INTRA.POLAR>
0

>  <SCORE.INTRA.POLAR.0>
0

>  <SCORE.INTRA.REPUL>
0

>  <SCORE.INTRA.REPUL.0>
0

>  <SCORE.INTRA.SOLV>
1.12912

>  <SCORE.INTRA.SOLV.lig_0>
-82.9561

>  <SCORE.INTRA.VDW>
-0.341659

>  <SCORE.INTRA.VDW.0>
-3.29171

>  <SCORE.INTRA.norm>
0.00162658

>  <SCORE.RESTR>
0.0064331

>  <SCORE.RESTR.CAVITY>
0.0064331

>  <SCORE.RESTR.norm>
0.000247427

>  <SCORE.SYSTEM>
0

>  <SCORE.SYSTEM.CONST>
0

>  <SCORE.SYSTEM.DIHEDRAL>
0

>  <SCORE.SYSTEM.SOLV>
0

>  <SCORE.SYSTEM.norm>
0

>  <SCORE.heavy>
26

>  <SCORE.norm>
-0.0579935

>  <RMSD>
17.579

$$$$
ligand
 OpenBabel11021811433D
libRbt.so/2013.1/901 2013/11/27
 26 27  0  0  0  0  0  0  0  0999 V2000
   -3.0819   -8.9747    6.8488 C   0  0  0  0  0  0  0  0  0  0  0  0
   -8.1066   -3.7928    8.3545 C   0  0  0  0  0  0  0  0  0  0  0  0
   -6.2764   -5.4084   12.2026 P   0  0  1  0  0  0  0  0  0  0  0  0
   -3.6687   -5.8714   11.0009 P   0  0  1  0  0  0  0  0  0  0  0  0
   -8.0699   -6.1376    6.5260 C   0  0  0  0  0  0  0  0  0  0  0  0
   -6.7154   -8.2720    6.5261 C   0  0  0  0  0  0  0  0  0  0  0  0
   -6.7515   -6.8866    6.6218 C   0  0  0  0  0  0  0  0  0  0  0  0
   -5.5602   -6.2006    6.7928 C   0  0  0  0  0  0  0  0  0  0  0  0
   -5.5454   -4.8493    6.8925 N   0  0  0  0  0  0  0  0  0  0  0  0
   -4.3987   -6.8867    6.8614 N   0  0  0  0  0  0  0  0  0  0  0  0
   -4.3894   -8.2343    6.7674 C   0  0  0  0  0  0  0  0  0  0  0  0
   -5.5456   -8.9219    6.6010 N   0  0  0  0  0  0  0  0  0  0  0  0
   -6.6811   -6.8027   12.6035 O   0  5  0  0  0  0  0  0  0  0  0  0
   -2.9373   -4.5875   11.2463 O   0  0  0  0  0  0  0  0  0  0  0  0
  -10.1854   -6.9727    9.7839 S   0  0  0  0  0  0  0  0  0  0  0  0
   -9.4640   -7.2713    8.2336 C   0  0  0  0  0  0  0  0  0  0  0  0
   -5.7416   -4.5092   13.2797 O   0  0  0  0  0  0  0  0  0  0  0  0
   -3.5115   -6.7643   12.1863 O   0  5  0  0  0  0  0  0  0  0  0  0
   -8.7810   -6.1742    7.8039 N   0  0  0  0  0  0  0  0  0  0  0  0
   -5.2505   -5.5189   10.9527 O   0  0  0  0  0  0  0  0  0  0  0  0
   -3.3628   -6.5666    9.7023 O   0  0  0  0  0  0  0  0  0  0  0  0
   -8.7970   -5.0998    8.6400 C   0  0  1  0  0  0  0  0  0  0  0  0
   -9.5655   -5.3719    9.8849 C   0  0  1  0  0  0  0  0  0  0  0  0
   -9.9030   -4.5723   11.1152 C   0  0  0  0  0  0  0  0  0  0  0  0
   -8.8510   -4.8461   12.1785 C   0  0  0  0  0  0  0  0  0  0  0  0
   -7.5683   -4.6752   11.5881 O   0  0  0  0  0  0  0  0  0  0  0  0
  1 11  1  0  0  0  0
  3 13  1  1  0  0  0
  3 17  2  0  0  0  0
  3 20  1  0  0  0  0
  3 26  1  0  0  0  0
  4 14  1  1  0  0  0
  4 18  1  0  0  0  0
  4 21  2  0  0  0  0
  4 20  1  0  0  0  0
  5 19  1  0  0  0  0
  5  7  1  0  0  0  0
  6  7  2  0  0  0  0
  6 12  1  0  0  0  0
  7  8  1  0  0  0  0
  8  9  1  0  0  0  0
  8 10  2  0  0  0  0
 10 11  1  0  0  0  0
 11 12  2  0  0  0  0
 15 23  1  0  0  0  0
 15 16  1  0  0  0  0
 16 19  1  0  0  0  0
 19 22  1  0  0  0  0
 22  2  1  1  0  0  0
 22 23  1  0  0  0  0
 23 24  1  6  0  0  0
 24 25  1  0  0  0  0
 25 26  1  0  0  0  0
M  CHG  2  13  -1  18  -1
M  END
>  <CHROM.1>
-79.49544051,-77.30682591,80.50047150,-85.79984791,88.28333757,50.07235906
-155.99181034,40.52103202,-6.44414631,-6.11640490,9.61305023,-1.13095625
-0.13869640,1.19672713

>  <Name>
ligand

>  <RI>
0

>  <Rbt.Current_Directory>
/home/itssahil/PROJECTS/Mol_Feturizer/New_Systems/rnas/2GDI

>  <Rbt.Executable>
rbdock ($Id: //depot/dev/client3/rdock/2013.1/src/exe/rbdock.cxx#4 $)

>  <Rbt.Library>
libRbt.so (2013.1, Build901 2013/11/27)

>  <Rbt.Parameter_File>
/export/apps/rDock/src/rDock_2013.1_src/data/scripts/dock_solv.prm

>  <Rbt.Receptor>
prm/blind_docking_20.prm

>  <SCORE>
-5.14739

>  <SCORE.INTER>
-7.24821

>  <SCORE.INTER.CONST>
1

>  <SCORE.INTER.POLAR>
0

>  <SCORE.INTER.ROT>
8

>  <SCORE.INTER.SOLV>
11.6401

>  <SCORE.INTER.VDW>
-17.6455

>  <SCORE.INTER.norm>
-0.278777

>  <SCORE.INTRA>
2.09727

>  <SCORE.INTRA.DIHEDRAL>
1.9556

>  <SCORE.INTRA.DIHEDRAL.0>
8.13976

>  <SCORE.INTRA.POLAR>
0

>  <SCORE.INTRA.POLAR.0>
0

>  <SCORE.INTRA.REPUL>
0

>  <SCORE.INTRA.REPUL.0>
0

>  <SCORE.INTRA.SOLV>
5.49834

>  <SCORE.INTRA.SOLV.lig_0>
-82.9561

>  <SCORE.INTRA.VDW>
-1.6297

>  <SCORE.INTRA.VDW.0>
-3.29171

>  <SCORE.INTRA.norm>
0.0806642

>  <SCORE.RESTR>
0.00354545

>  <SCORE.RESTR.CAVITY>
0.00354545

>  <SCORE.RESTR.norm>
0.000136363

>  <SCORE.SYSTEM>
0

>  <SCORE.SYSTEM.CONST>
0

>  <SCORE.SYSTEM.DIHEDRAL>
0

>  <SCORE.SYSTEM.SOLV>
0

>  <SCORE.SYSTEM.norm>
0

>  <SCORE.heavy>
26

>  <SCORE.norm>
-0.197977

>  <RMSD>
17.603

$$$$
ligand
 OpenBabel11021811433D
libRbt.so/2013.1/901 2013/11/27
 26 27  0  0  0  0  0  0  0  0999 V2000
   -5.4033   -9.2638    5.3254 C   0  0  0  0  0  0  0  0  0  0  0  0
   -4.0437   -4.8015   10.0133 C   0  0  0  0  0  0  0  0  0  0  0  0
   -8.3800   -5.9562   10.5430 P   0  0  1  0  0  0  0  0  0  0  0  0
   -9.1102   -5.8287    7.7307 P   0  0  1  0  0  0  0  0  0  0  0  0
   -2.1849   -7.0771    9.5555 C   0  0  0  0  0  0  0  0  0  0  0  0
   -4.3897   -7.8922    8.6257 C   0  0  0  0  0  0  0  0  0  0  0  0
   -3.0320   -7.6648    8.4395 C   0  0  0  0  0  0  0  0  0  0  0  0
   -2.4686   -7.9718    7.2118 C   0  0  0  0  0  0  0  0  0  0  0  0
   -1.1484   -7.7685    6.9836 N   0  0  0  0  0  0  0  0  0  0  0  0
   -3.2440   -8.4806    6.2298 N   0  0  0  0  0  0  0  0  0  0  0  0
   -4.5620   -8.6945    6.4355 C   0  0  0  0  0  0  0  0  0  0  0  0
   -5.1299   -8.4009    7.6307 N   0  0  0  0  0  0  0  0  0  0  0  0
   -9.5692   -5.2812   11.1745 O   0  5  0  0  0  0  0  0  0  0  0  0
   -8.8609   -4.7989    6.6720 O   0  0  0  0  0  0  0  0  0  0  0  0
   -3.9345   -7.4290   13.1054 S   0  0  0  0  0  0  0  0  0  0  0  0
   -2.8856   -7.8737   11.7958 C   0  0  0  0  0  0  0  0  0  0  0  0
   -8.3309   -7.4561   10.5943 O   0  0  0  0  0  0  0  0  0  0  0  0
   -8.5399   -7.1363    7.2926 O   0  5  0  0  0  0  0  0  0  0  0  0
   -2.9621   -6.9595   10.7893 N   0  0  0  0  0  0  0  0  0  0  0  0
   -8.2318   -5.4052    9.0260 O   0  0  0  0  0  0  0  0  0  0  0  0
  -10.5293   -5.9445    8.2165 O   0  0  0  0  0  0  0  0  0  0  0  0
   -3.8128   -5.9172   10.9975 C   0  0  1  0  0  0  0  0  0  0  0  0
   -4.4805   -5.9973   12.3250 C   0  0  1  0  0  0  0  0  0  0  0  0
   -5.4846   -5.1467   13.0566 C   0  0  0  0  0  0  0  0  0  0  0  0
   -6.8828   -5.6144   12.6848 C   0  0  0  0  0  0  0  0  0  0  0  0
   -7.0568   -5.4253   11.2858 O   0  0  0  0  0  0  0  0  0  0  0  0
  1 11  1  0  0  0  0
  3 13  1  1  0  0  0
  3 17  2  0  0  0  0
  3 20  1  0  0  0  0
  3 26  1  0  0  0  0
  4 14  1  6  0  0  0
  4 18  1  0  0  0  0
  4 21  2  0  0  0  0
  4 20  1  0  0  0  0
  5 19  1  0  0  0  0
  5  7  1  0  0  0  0
  6  7  2  0  0  0  0
  6 12  1  0  0  0  0
  7  8  1  0  0  0  0
  8  9  1  0  0  0  0
  8 10  2  0  0  0  0
 10 11  1  0  0  0  0
 11 12  2  0  0  0  0
 15 23  1  0  0  0  0
 15 16  1  0  0  0  0
 16 19  1  0  0  0  0
 19 22  1  0  0  0  0
 22  2  1  1  0  0  0
 22 23  1  0  0  0  0
 23 24  1  6  0  0  0
 24 25  1  0  0  0  0
 25 26  1  0  0  0  0
M  CHG  2  13  -1  18  -1
M  END
>  <CHROM.1>
-77.26364764,99.01352131,6.19010711,164.72298093,-89.91565872,-62.08781158
173.88930837,59.60481899,-5.91652969,-6.68361177,9.50085485,0.04089585,0.28480621
-1.83493691

>  <Name>
ligand

>  <RI>
0

>  <Rbt.Current_Directory>
/home/itssahil/PROJECTS/Mol_Feturizer/New_Systems/rnas/2GDI

>  <Rbt.Executable>
rbdock ($Id: //depot/dev/client3/rdock/2013.1/src/exe/rbdock.cxx#4 $)

>  <Rbt.Library>
libRbt.so (2013.1, Build901 2013/11/27)

>  <Rbt.Parameter_File>
/export/apps/rDock/src/rDock_2013.1_src/data/scripts/dock_solv.prm

>  <Rbt.Receptor>
prm/blind_docking_20.prm

>  <SCORE>
-9.55671

>  <SCORE.INTER>
-8.47652

>  <SCORE.INTER.CONST>
1

>  <SCORE.INTER.POLAR>
0

>  <SCORE.INTER.ROT>
8

>  <SCORE.INTER.SOLV>
18.4865

>  <SCORE.INTER.VDW>
-20.7465

>  <SCORE.INTER.norm>
-0.32602

>  <SCORE.INTRA>
-1.08019

>  <SCORE.INTRA.DIHEDRAL>
-2.36712

>  <SCORE.INTRA.DIHEDRAL.0>
8.13976

>  <SCORE.INTRA.POLAR>
0

>  <SCORE.INTRA.POLAR.0>
0

>  <SCORE.INTRA.REPUL>
0

>  <SCORE.INTRA.REPUL.0>
0

>  <SCORE.INTRA.SOLV>
2.26519

>  <SCORE.INTRA.SOLV.lig_0>
-82.9561

>  <SCORE.INTRA.VDW>
-1.02922

>  <SCORE.INTRA.VDW.0>
-3.29171

>  <SCORE.INTRA.norm>
-0.0415457

>  <SCORE.RESTR>
0

>  <SCORE.RESTR.CAVITY>
0

>  <SCORE.RESTR.norm>
0

>  <SCORE.SYSTEM>
0

>  <SCORE.SYSTEM.CONST>
0

>  <SCORE.SYSTEM.DIHEDRAL>
0

>  <SCORE.SYSTEM.SOLV>
0

>  <SCORE.SYSTEM.norm>
0

>  <SCORE.heavy>
26

>  <SCORE.norm>
-0.367566

>  <RMSD>
17.614

$$$$
ligand
 OpenBabel11021811433D
libRbt.so/2013.1/901 2013/11/27
 26 27  0  0  0  0  0  0  0  0999 V2000
  -11.4602   -5.6078   10.7788 C   0  0  0  0  0  0  0  0  0  0  0  0
   -5.5100   -4.6554    8.2320 C   0  0  0  0  0  0  0  0  0  0  0  0
   -4.4016   -7.6109   12.7374 P   0  0  1  0  0  0  0  0  0  0  0  0
   -7.1343   -7.1108   11.8765 P   0  0  1  0  0  0  0  0  0  0  0  0
   -7.4688   -6.2854    6.6992 C   0  0  0  0  0  0  0  0  0  0  0  0
   -8.9799   -7.1918    8.5117 C   0  0  0  0  0  0  0  0  0  0  0  0
   -8.5314   -6.1061    7.7702 C   0  0  0  0  0  0  0  0  0  0  0  0
   -9.0623   -4.8545    8.0359 C   0  0  0  0  0  0  0  0  0  0  0  0
   -8.6569   -3.7660    7.3379 N   0  0  0  0  0  0  0  0  0  0  0  0
   -9.9961   -4.7167    9.0022 N   0  0  0  0  0  0  0  0  0  0  0  0
  -10.4176   -5.7882    9.7089 C   0  0  0  0  0  0  0  0  0  0  0  0
   -9.9098   -7.0204    9.4616 N   0  0  0  0  0  0  0  0  0  0  0  0
   -3.4171   -6.8704   13.6040 O   0  5  0  0  0  0  0  0  0  0  0  0
   -7.6996   -8.3557   12.4881 O   0  0  0  0  0  0  0  0  0  0  0  0
   -4.4483   -8.5607    7.9187 S   0  0  0  0  0  0  0  0  0  0  0  0
   -5.9509   -8.1975    7.1291 C   0  0  0  0  0  0  0  0  0  0  0  0
   -4.6603   -9.0532   13.0655 O   0  0  0  0  0  0  0  0  0  0  0  0
   -8.0531   -5.9661   12.1463 O   0  5  0  0  0  0  0  0  0  0  0  0
   -6.2567   -6.8774    7.2655 N   0  0  0  0  0  0  0  0  0  0  0  0
   -5.7763   -6.7538   12.6872 O   0  0  0  0  0  0  0  0  0  0  0  0
   -6.7350   -7.2098   10.4294 O   0  0  0  0  0  0  0  0  0  0  0  0
   -5.3609   -6.1299    7.9671 C   0  0  1  0  0  0  0  0  0  0  0  0
   -4.2007   -6.9380    8.4312 C   0  0  1  0  0  0  0  0  0  0  0  0
   -2.9552   -6.6418    9.2236 C   0  0  0  0  0  0  0  0  0  0  0  0
   -3.3491   -6.3667   10.6663 C   0  0  0  0  0  0  0  0  0  0  0  0
   -3.8576   -7.5717   11.2252 O   0  0  0  0  0  0  0  0  0  0  0  0
  1 11  1  0  0  0  0
  3 13  1  1  0  0  0
  3 17  2  0  0  0  0
  3 20  1  0  0  0  0
  3 26  1  0  0  0  0
  4 14  1  1  0  0  0
  4 18  1  0  0  0  0
  4 21  2  0  0  0  0
  4 20  1  0  0  0  0
  5 19  1  0  0  0  0
  5  7  1  0  0  0  0
  6  7  2  0  0  0  0
  6 12  1  0  0  0  0
  7  8  1  0  0  0  0
  8  9  1  0  0  0  0
  8 10  2  0  0  0  0
 10 11  1  0  0  0  0
 11 12  2  0  0  0  0
 15 23  1  0  0  0  0
 15 16  1  0  0  0  0
 16 19  1  0  0  0  0
 19 22  1  0  0  0  0
 22  2  1  6  0  0  0
 22 23  1  0  0  0  0
 23 24  1  1  0  0  0
 24 25  1  0  0  0  0
 25 26  1  0  0  0  0
M  CHG  2  13  -1  18  -1
M  END
>  <CHROM.1>
179.18153740,101.05228875,-57.17775988,65.69891531,-108.61565120,66.72039301
-178.39033081,-44.65117015,-6.47865921,-6.79077057,10.04113616,2.53659958
0.27371370,-1.41136282

>  <Name>
ligand

>  <RI>
0

>  <Rbt.Current_Directory>
/home/itssahil/PROJECTS/Mol_Feturizer/New_Systems/rnas/2GDI

>  <Rbt.Executable>
rbdock ($Id: //depot/dev/client3/rdock/2013.1/src/exe/rbdock.cxx#4 $)

>  <Rbt.Library>
libRbt.so (2013.1, Build901 2013/11/27)

>  <Rbt.Parameter_File>
/export/apps/rDock/src/rDock_2013.1_src/data/scripts/dock_solv.prm

>  <Rbt.Receptor>
prm/blind_docking_20.prm

>  <SCORE>
-9.30959

>  <SCORE.INTER>
-6.87247

>  <SCORE.INTER.CONST>
1

>  <SCORE.INTER.POLAR>
0

>  <SCORE.INTER.ROT>
8

>  <SCORE.INTER.SOLV>
14.4277

>  <SCORE.INTER.VDW>
-18.3242

>  <SCORE.INTER.norm>
-0.264326

>  <SCORE.INTRA>
-2.45577

>  <SCORE.INTRA.DIHEDRAL>
-3.08452

>  <SCORE.INTRA.DIHEDRAL.0>
8.13976

>  <SCORE.INTRA.POLAR>
0

>  <SCORE.INTRA.POLAR.0>
0

>  <SCORE.INTRA.REPUL>
0

>  <SCORE.INTRA.REPUL.0>
0

>  <SCORE.INTRA.SOLV>
6.19786

>  <SCORE.INTRA.SOLV.lig_0>
-82.9561

>  <SCORE.INTRA.VDW>
-4.01244

>  <SCORE.INTRA.VDW.0>
-3.29171

>  <SCORE.INTRA.norm>
-0.0944526

>  <SCORE.RESTR>
0.0186411

>  <SCORE.RESTR.CAVITY>
0.0186411

>  <SCORE.RESTR.norm>
0.000716966

>  <SCORE.SYSTEM>
0

>  <SCORE.SYSTEM.CONST>
0

>  <SCORE.SYSTEM.DIHEDRAL>
0

>  <SCORE.SYSTEM.SOLV>
0

>  <SCORE.SYSTEM.norm>
0

>  <SCORE.heavy>
26

>  <SCORE.norm>
-0.358061

>  <RMSD>
17.617

$$$$
ligand
 OpenBabel11021811433D
libRbt.so/2013.1/901 2013/11/27
 26 27  0  0  0  0  0  0  0  0999 V2000
  -35.6149   -5.8531   -8.6585 C   0  0  0  0  0  0  0  0  0  0  0  0
  -33.6164  -11.8939  -10.2427 C   0  0  0  0  0  0  0  0  0  0  0  0
  -29.2146  -13.6696   -6.0443 P   0  0  1  0  0  0  0  0  0  0  0  0
  -26.8593  -15.1307   -6.9255 P   0  0  1  0  0  0  0  0  0  0  0  0
  -35.8899  -11.5857   -8.3508 C   0  0  0  0  0  0  0  0  0  0  0  0
  -34.8344   -9.3692   -7.7484 C   0  0  0  0  0  0  0  0  0  0  0  0
  -35.8250  -10.0696   -8.4250 C   0  0  0  0  0  0  0  0  0  0  0  0
  -36.7442   -9.3593   -9.1797 C   0  0  0  0  0  0  0  0  0  0  0  0
  -37.7291   -9.9987   -9.8561 N   0  0  0  0  0  0  0  0  0  0  0  0
  -36.6586   -8.0127   -9.2421 N   0  0  0  0  0  0  0  0  0  0  0  0
  -35.6870   -7.3537   -8.5737 C   0  0  0  0  0  0  0  0  0  0  0  0
  -34.7798   -8.0324   -7.8296 N   0  0  0  0  0  0  0  0  0  0  0  0
  -30.0902  -14.8484   -6.3791 O   0  5  0  0  0  0  0  0  0  0  0  0
  -27.5179  -16.1181   -7.8391 O   0  0  0  0  0  0  0  0  0  0  0  0
  -32.7515  -13.1468   -6.4799 S   0  0  0  0  0  0  0  0  0  0  0  0
  -34.3712  -12.5441   -6.6421 C   0  0  0  0  0  0  0  0  0  0  0  0
  -28.9775  -13.3777   -4.5906 O   0  0  0  0  0  0  0  0  0  0  0  0
  -25.5968  -14.6419   -7.5535 O   0  5  0  0  0  0  0  0  0  0  0  0
  -34.6057  -12.1392   -7.9211 N   0  0  0  0  0  0  0  0  0  0  0  0
  -27.8212  -13.8272   -6.8570 O   0  0  0  0  0  0  0  0  0  0  0  0
  -26.6681  -15.5757   -5.5012 O   0  0  0  0  0  0  0  0  0  0  0  0
  -33.5657  -12.2796   -8.7883 C   0  0  1  0  0  0  0  0  0  0  0  0
  -32.3700  -12.8778   -8.1349 C   0  0  1  0  0  0  0  0  0  0  0  0
  -30.9851  -13.2452   -8.5975 C   0  0  0  0  0  0  0  0  0  0  0  0
  -30.0065  -12.2007   -8.0841 C   0  0  0  0  0  0  0  0  0  0  0  0
  -29.8916  -12.3548   -6.6748 O   0  0  0  0  0  0  0  0  0  0  0  0
  1 11  1  0  0  0  0
  3 13  1  6  0  0  0
  3 17  2  0  0  0  0
  3 20  1  0  0  0  0
  3 26  1  0  0  0  0
  4 14  1  6  0  0  0
  4 18  1  0  0  0  0
  4 21  2  0  0  0  0
  4 20  1  0  0  0  0
  5 19  1  0  0  0  0
  5  7  1  0  0  0  0
  6  7  2  0  0  0  0
  6 12  1  0  0  0  0
  7  8  1  0  0  0  0
  8  9  1  0  0  0  0
  8 10  2  0  0  0  0
 10 11  1  0  0  0  0
 11 12  2  0  0  0  0
 15 23  1  0  0  0  0
 15 16  1  0  0  0  0
 16 19  1  0  0  0  0
 19 22  1  0  0  0  0
 22  2  1  6  0  0  0
 22 23  1  0  0  0  0
 23 24  1  1  0  0  0
 24 25  1  0  0  0  0
 25 26  1  0  0  0  0
M  CHG  2  13  -1  18  -1
M  END
>  <CHROM.1>
-50.01433928,100.53800695,-19.35528734,75.64363981,-74.63130053,70.27602781
67.08765492,-65.43533315,-31.72395617,-12.27357350,-7.53058691,-2.56421130
0.25927149,-3.12632327

>  <Name>
ligand

>  <RI>
0

>  <Rbt.Current_Directory>
/home/itssahil/PROJECTS/Mol_Feturizer/New_Systems/rnas/2GDI

>  <Rbt.Executable>
rbdock ($Id: //depot/dev/client3/rdock/2013.1/src/exe/rbdock.cxx#4 $)

>  <Rbt.Library>
libRbt.so (2013.1, Build901 2013/11/27)

>  <Rbt.Parameter_File>
/export/apps/rDock/src/rDock_2013.1_src/data/scripts/dock_solv.prm

>  <Rbt.Receptor>
prm/blind_docking_60.prm

>  <SCORE>
-14.0705

>  <SCORE.INTER>
-14.1759

>  <SCORE.INTER.CONST>
1

>  <SCORE.INTER.POLAR>
0

>  <SCORE.INTER.ROT>
8

>  <SCORE.INTER.SOLV>
16.2102

>  <SCORE.INTER.VDW>
-23.7874

>  <SCORE.INTER.norm>
-0.545228

>  <SCORE.INTRA>
0.105475

>  <SCORE.INTRA.DIHEDRAL>
-1.64879

>  <SCORE.INTRA.DIHEDRAL.0>
8.13976

>  <SCORE.INTRA.POLAR>
0

>  <SCORE.INTRA.POLAR.0>
0

>  <SCORE.INTRA.REPUL>
0

>  <SCORE.INTRA.REPUL.0>
0

>  <SCORE.INTRA.SOLV>
2.20497

>  <SCORE.INTRA.SOLV.lig_0>
-82.9561

>  <SCORE.INTRA.VDW>
-0.172614

>  <SCORE.INTRA.VDW.0>
-3.29171

>  <SCORE.INTRA.norm>
0.00405675

>  <SCORE.RESTR>
0

>  <SCORE.RESTR.CAVITY>
0

>  <SCORE.RESTR.norm>
0

>  <SCORE.SYSTEM>
0

>  <SCORE.SYSTEM.CONST>
0

>  <SCORE.SYSTEM.DIHEDRAL>
0

>  <SCORE.SYSTEM.SOLV>
0

>  <SCORE.SYSTEM.norm>
0

>  <SCORE.heavy>
26

>  <SCORE.norm>
-0.541171

>  <RMSD>
17.643

$$$$
ligand
 OpenBabel11021811433D
libRbt.so/2013.1/901 2013/11/27
 26 27  0  0  0  0  0  0  0  0999 V2000
   -4.9684   -4.2829   14.5450 C   0  0  0  0  0  0  0  0  0  0  0  0
   -6.3987   -6.3323    6.9401 C   0  0  0  0  0  0  0  0  0  0  0  0
   -9.4240   -2.2556    7.4727 P   0  0  1  0  0  0  0  0  0  0  0  0
   -6.9620   -0.7991    6.9475 P   0  0  1  0  0  0  0  0  0  0  0  0
   -5.8714   -7.2637    9.7146 C   0  0  0  0  0  0  0  0  0  0  0  0
   -6.6388   -5.6951   11.5423 C   0  0  0  0  0  0  0  0  0  0  0  0
   -5.6277   -6.4683   10.9859 C   0  0  0  0  0  0  0  0  0  0  0  0
   -4.3971   -6.5104   11.6205 C   0  0  0  0  0  0  0  0  0  0  0  0
   -3.3801   -7.2496   11.1147 N   0  0  0  0  0  0  0  0  0  0  0  0
   -4.2076   -5.8059   12.7574 N   0  0  0  0  0  0  0  0  0  0  0  0
   -5.2061   -5.0598   13.2784 C   0  0  0  0  0  0  0  0  0  0  0  0
   -6.4163   -5.0061   12.6702 N   0  0  0  0  0  0  0  0  0  0  0  0
   -9.3645   -1.8545    8.9232 O   0  5  0  0  0  0  0  0  0  0  0  0
   -6.7200   -0.5489    8.4044 O   0  0  0  0  0  0  0  0  0  0  0  0
   -9.7823   -6.9182    9.1045 S   0  0  0  0  0  0  0  0  0  0  0  0
   -8.3342   -7.2656    9.9963 C   0  0  0  0  0  0  0  0  0  0  0  0
  -10.4690   -1.5983    6.6179 O   0  0  0  0  0  0  0  0  0  0  0  0
   -5.6881   -1.2324    6.3020 O   0  5  0  0  0  0  0  0  0  0  0  0
   -7.2331   -7.0521    9.2237 N   0  0  0  0  0  0  0  0  0  0  0  0
   -7.9415   -2.0866    6.8397 O   0  0  0  0  0  0  0  0  0  0  0  0
   -7.6512    0.3059    6.1943 O   0  0  0  0  0  0  0  0  0  0  0  0
   -7.4730   -6.6258    7.9532 C   0  0  1  0  0  0  0  0  0  0  0  0
   -8.9275   -6.4651    7.6828 C   0  0  1  0  0  0  0  0  0  0  0  0
   -9.7404   -6.0380    6.4896 C   0  0  0  0  0  0  0  0  0  0  0  0
   -9.4629   -4.5691    6.2111 C   0  0  0  0  0  0  0  0  0  0  0  0
   -9.7021   -3.8376    7.4073 O   0  0  0  0  0  0  0  0  0  0  0  0
  1 11  1  0  0  0  0
  3 13  1  1  0  0  0
  3 17  2  0  0  0  0
  3 20  1  0  0  0  0
  3 26  1  0  0  0  0
  4 14  1  1  0  0  0
  4 18  1  0  0  0  0
  4 21  2  0  0  0  0
  4 20  1  0  0  0  0
  5 19  1  0  0  0  0
  5  7  1  0  0  0  0
  6  7  2  0  0  0  0
  6 12  1  0  0  0  0
  7  8  1  0  0  0  0
  8  9  1  0  0  0  0
  8 10  2  0  0  0  0
 10 11  1  0  0  0  0
 11 12  2  0  0  0  0
 15 23  1  0  0  0  0
 15 16  1  0  0  0  0
 16 19  1  0  0  0  0
 19 22  1  0  0  0  0
 22  2  1  1  0  0  0
 22 23  1  0  0  0  0
 23 24  1  6  0  0  0
 24 25  1  0  0  0  0
 25 26  1  0  0  0  0
M  CHG  2  13  -1  18  -1
M  END
>  <CHROM.1>
-49.44770812,-54.77368377,1.20415110,58.62320055,114.51715200,-53.92304118
176.73179116,-163.20027458,-7.46323335,-4.25965683,8.85940718,-0.97256897
-0.77813060,-0.37095502

>  <Name>
ligand

>  <RI>
0

>  <Rbt.Current_Directory>
/home/itssahil/PROJECTS/Mol_Feturizer/New_Systems/rnas/2GDI

>  <Rbt.Executable>
rbdock ($Id: //depot/dev/client3/rdock/2013.1/src/exe/rbdock.cxx#4 $)

>  <Rbt.Library>
libRbt.so (2013.1, Build901 2013/11/27)

>  <Rbt.Parameter_File>
/export/apps/rDock/src/rDock_2013.1_src/data/scripts/dock_solv.prm

>  <Rbt.Receptor>
prm/blind_docking_100.prm

>  <SCORE>
-8.11606

>  <SCORE.INTER>
-7.14994

>  <SCORE.INTER.CONST>
1

>  <SCORE.INTER.POLAR>
0

>  <SCORE.INTER.ROT>
8

>  <SCORE.INTER.SOLV>
12.049

>  <SCORE.INTER.VDW>
-17.7163

>  <SCORE.INTER.norm>
-0.274998

>  <SCORE.INTRA>
-1.07431

>  <SCORE.INTRA.DIHEDRAL>
-2.63991

>  <SCORE.INTRA.DIHEDRAL.0>
8.13976

>  <SCORE.INTRA.POLAR>
0

>  <SCORE.INTRA.POLAR.0>
0

>  <SCORE.INTRA.REPUL>
0

>  <SCORE.INTRA.REPUL.0>
0

>  <SCORE.INTRA.SOLV>
-0.213241

>  <SCORE.INTRA.SOLV.lig_0>
-82.9561

>  <SCORE.INTRA.VDW>
0.352261

>  <SCORE.INTRA.VDW.0>
-3.29171

>  <SCORE.INTRA.norm>
-0.0413198

>  <SCORE.RESTR>
0.108203

>  <SCORE.RESTR.CAVITY>
0.108203

>  <SCORE.RESTR.norm>
0.00416165

>  <SCORE.SYSTEM>
0

>  <SCORE.SYSTEM.CONST>
0

>  <SCORE.SYSTEM.DIHEDRAL>
0

>  <SCORE.SYSTEM.SOLV>
0

>  <SCORE.SYSTEM.norm>
0

>  <SCORE.heavy>
26

>  <SCORE.norm>
-0.312156

>  <RMSD>
17.662

$$$$
ligand
 OpenBabel11021811433D
libRbt.so/2013.1/901 2013/11/27
 26 27  0  0  0  0  0  0  0  0999 V2000
   -5.0841   -8.9831    4.5134 C   0  0  0  0  0  0  0  0  0  0  0  0
   -4.4165   -4.2796    9.1745 C   0  0  0  0  0  0  0  0  0  0  0  0
   -7.4732   -4.8814   13.2233 P   0  0  1  0  0  0  0  0  0  0  0  0
   -8.5266   -7.2808   11.9615 P   0  0  1  0  0  0  0  0  0  0  0  0
   -3.8110   -3.6795    6.3256 C   0  0  0  0  0  0  0  0  0  0  0  0
   -5.1744   -5.8053    6.4353 C   0  0  0  0  0  0  0  0  0  0  0  0
   -4.1394   -5.0853    5.8522 C   0  0  0  0  0  0  0  0  0  0  0  0
   -3.4216   -5.6692    4.8213 C   0  0  0  0  0  0  0  0  0  0  0  0
   -2.4026   -5.0063    4.2225 N   0  0  0  0  0  0  0  0  0  0  0  0
   -3.7404   -6.9150    4.4077 N   0  0  0  0  0  0  0  0  0  0  0  0
   -4.7504   -7.5960    4.9918 C   0  0  0  0  0  0  0  0  0  0  0  0
   -5.4627   -7.0406    6.0025 N   0  0  0  0  0  0  0  0  0  0  0  0
   -7.7676   -4.1741   14.5201 O   0  5  0  0  0  0  0  0  0  0  0  0
   -8.4959   -6.6654   10.5963 O   0  0  0  0  0  0  0  0  0  0  0  0
   -7.0575   -1.7027    7.4830 S   0  0  0  0  0  0  0  0  0  0  0  0
   -5.8135   -2.2198    6.3884 C   0  0  0  0  0  0  0  0  0  0  0  0
   -6.0728   -5.3807   13.0128 O   0  0  0  0  0  0  0  0  0  0  0  0
   -7.2323   -7.9778   12.2189 O   0  5  0  0  0  0  0  0  0  0  0  0
   -4.9586   -3.0806    7.0072 N   0  0  0  0  0  0  0  0  0  0  0  0
   -8.5642   -6.0649   13.0334 O   0  0  0  0  0  0  0  0  0  0  0  0
   -9.7229   -8.1388   12.2712 O   0  0  0  0  0  0  0  0  0  0  0  0
   -5.2345   -3.3562    8.3115 C   0  0  1  0  0  0  0  0  0  0  0  0
   -6.4551   -2.6495    8.7860 C   0  0  1  0  0  0  0  0  0  0  0  0
   -7.1991   -2.5858   10.0934 C   0  0  0  0  0  0  0  0  0  0  0  0
   -7.0457   -3.9197   10.8072 C   0  0  0  0  0  0  0  0  0  0  0  0
   -7.7854   -3.8613   12.0207 O   0  0  0  0  0  0  0  0  0  0  0  0
  1 11  1  0  0  0  0
  3 13  1  1  0  0  0
  3 17  2  0  0  0  0
  3 20  1  0  0  0  0
  3 26  1  0  0  0  0
  4 14  1  6  0  0  0
  4 18  1  0  0  0  0
  4 21  2  0  0  0  0
  4 20  1  0  0  0  0
  5 19  1  0  0  0  0
  5  7  1  0  0  0  0
  6  7  2  0  0  0  0
  6 12  1  0  0  0  0
  7  8  1  0  0  0  0
  8  9  1  0  0  0  0
  8 10  2  0  0  0  0
 10 11  1  0  0  0  0
 11 12  2  0  0  0  0
 15 23  1  0  0  0  0
 15 16  1  0  0  0  0
 16 19  1  0  0  0  0
 19 22  1  0  0  0  0
 22  2  1  6  0  0  0
 22 23  1  0  0  0  0
 23 24  1  1  0  0  0
 24 25  1  0  0  0  0
 25 26  1  0  0  0  0
M  CHG  2  13  -1  18  -1
M  END
>  <CHROM.1>
-167.59742753,-98.50020820,-21.48578215,-59.30217294,149.77075368,-178.26960339
-160.11633908,148.60664725,-6.36076152,-5.13421986,9.23127363,0.08372130
-1.10409921,-2.98356410

>  <Name>
ligand

>  <RI>
0

>  <Rbt.Current_Directory>
/home/itssahil/PROJECTS/Mol_Feturizer/New_Systems/rnas/2GDI

>  <Rbt.Executable>
rbdock ($Id: //depot/dev/client3/rdock/2013.1/src/exe/rbdock.cxx#4 $)

>  <Rbt.Library>
libRbt.so (2013.1, Build901 2013/11/27)

>  <Rbt.Parameter_File>
/export/apps/rDock/src/rDock_2013.1_src/data/scripts/dock_solv.prm

>  <Rbt.Receptor>
prm/blind_docking_20.prm

>  <SCORE>
-2.2745

>  <SCORE.INTER>
-3.72691

>  <SCORE.INTER.CONST>
1

>  <SCORE.INTER.POLAR>
0

>  <SCORE.INTER.ROT>
8

>  <SCORE.INTER.SOLV>
11.6716

>  <SCORE.INTER.VDW>
-15.3085

>  <SCORE.INTER.norm>
-0.143343

>  <SCORE.INTRA>
1.40837

>  <SCORE.INTRA.DIHEDRAL>
0.501785

>  <SCORE.INTRA.DIHEDRAL.0>
8.13976

>  <SCORE.INTRA.POLAR>
0

>  <SCORE.INTRA.POLAR.0>
0

>  <SCORE.INTRA.REPUL>
0

>  <SCORE.INTRA.REPUL.0>
0

>  <SCORE.INTRA.SOLV>
0.280667

>  <SCORE.INTRA.SOLV.lig_0>
-82.9561

>  <SCORE.INTRA.VDW>
1.01715

>  <SCORE.INTRA.VDW.0>
-3.29171

>  <SCORE.INTRA.norm>
0.0541682

>  <SCORE.RESTR>
0.044029

>  <SCORE.RESTR.CAVITY>
0.044029

>  <SCORE.RESTR.norm>
0.00169342

>  <SCORE.SYSTEM>
0

>  <SCORE.SYSTEM.CONST>
0

>  <SCORE.SYSTEM.DIHEDRAL>
0

>  <SCORE.SYSTEM.SOLV>
0

>  <SCORE.SYSTEM.norm>
0

>  <SCORE.heavy>
26

>  <SCORE.norm>
-0.0874809

>  <RMSD>
17.681

$$$$
ligand
 OpenBabel11021811433D
libRbt.so/2013.1/901 2013/11/27
 26 27  0  0  0  0  0  0  0  0999 V2000
   -3.6628   -7.7123   12.2599 C   0  0  0  0  0  0  0  0  0  0  0  0
   -9.2534   -4.2798   10.1310 C   0  0  0  0  0  0  0  0  0  0  0  0
   -5.4776   -2.7487    7.6004 P   0  0  1  0  0  0  0  0  0  0  0  0
   -4.3461   -5.3424    6.9286 P   0  0  1  0  0  0  0  0  0  0  0  0
   -9.0515   -7.2408   10.3175 C   0  0  0  0  0  0  0  0  0  0  0  0
   -6.5475   -7.2213    9.9713 C   0  0  0  0  0  0  0  0  0  0  0  0
   -7.6279   -7.3760   10.8307 C   0  0  0  0  0  0  0  0  0  0  0  0
   -7.3813   -7.6424   12.1676 C   0  0  0  0  0  0  0  0  0  0  0  0
   -8.4028   -7.8024   13.0435 N   0  0  0  0  0  0  0  0  0  0  0  0
   -6.1071   -7.7446   12.6040 N   0  0  0  0  0  0  0  0  0  0  0  0
   -5.0728   -7.5918   11.7484 C   0  0  0  0  0  0  0  0  0  0  0  0
   -5.2955   -7.3318   10.4369 N   0  0  0  0  0  0  0  0  0  0  0  0
   -5.4167   -2.9943    9.0851 O   0  5  0  0  0  0  0  0  0  0  0  0
   -5.6153   -5.8444    6.3115 O   0  0  0  0  0  0  0  0  0  0  0  0
   -9.0566   -6.1041    6.5103 S   0  0  0  0  0  0  0  0  0  0  0  0
   -9.0044   -7.2196    7.8392 C   0  0  0  0  0  0  0  0  0  0  0  0
   -5.3406   -1.3292    7.1302 O   0  0  0  0  0  0  0  0  0  0  0  0
   -3.1925   -5.7125    6.0571 O   0  5  0  0  0  0  0  0  0  0  0  0
   -9.0739   -6.5546    9.0257 N   0  0  0  0  0  0  0  0  0  0  0  0
   -4.3996   -3.7226    6.8817 O   0  0  0  0  0  0  0  0  0  0  0  0
   -4.1265   -5.7047    8.3721 O   0  0  0  0  0  0  0  0  0  0  0  0
   -9.1662   -5.1989    8.9418 C   0  0  1  0  0  0  0  0  0  0  0  0
   -9.1887   -4.7265    7.5309 C   0  0  1  0  0  0  0  0  0  0  0  0
   -9.2741   -3.3768    6.8690 C   0  0  0  0  0  0  0  0  0  0  0  0
   -8.0894   -2.5368    7.3199 C   0  0  0  0  0  0  0  0  0  0  0  0
   -6.9003   -3.2758    7.0690 O   0  0  0  0  0  0  0  0  0  0  0  0
  1 11  1  0  0  0  0
  3 13  1  1  0  0  0
  3 17  2  0  0  0  0
  3 20  1  0  0  0  0
  3 26  1  0  0  0  0
  4 14  1  6  0  0  0
  4 18  1  0  0  0  0
  4 21  2  0  0  0  0
  4 20  1  0  0  0  0
  5 19  1  0  0  0  0
  5  7  1  0  0  0  0
  6  7  2  0  0  0  0
  6 12  1  0  0  0  0
  7  8  1  0  0  0  0
  8  9  1  0  0  0  0
  8 10  2  0  0  0  0
 10 11  1  0  0  0  0
 11 12  2  0  0  0  0
 15 23  1  0  0  0  0
 15 16  1  0  0  0  0
 16 19  1  0  0  0  0
 19 22  1  0  0  0  0
 22  2  1  6  0  0  0
 22 23  1  0  0  0  0
 23 24  1  1  0  0  0
 24 25  1  0  0  0  0
 25 26  1  0  0  0  0
M  CHG  2  13  -1  18  -1
M  END
>  <CHROM.1>
59.43050282,90.86350776,-17.48101474,61.69256571,-119.25581680,53.47246235
-172.25682731,74.90745392,-6.62783924,-5.36736851,8.64195915,-1.76040409
-0.02739786,-0.86706532

>  <Name>
ligand

>  <RI>
0

>  <Rbt.Current_Directory>
/home/itssahil/PROJECTS/Mol_Feturizer/New_Systems/rnas/2GDI

>  <Rbt.Executable>
rbdock ($Id: //depot/dev/client3/rdock/2013.1/src/exe/rbdock.cxx#4 $)

>  <Rbt.Library>
libRbt.so (2013.1, Build901 2013/11/27)

>  <Rbt.Parameter_File>
/export/apps/rDock/src/rDock_2013.1_src/data/scripts/dock_solv.prm

>  <Rbt.Receptor>
prm/blind_docking_20.prm

>  <SCORE>
-11.3268

>  <SCORE.INTER>
-8.42362

>  <SCORE.INTER.CONST>
1

>  <SCORE.INTER.POLAR>
0

>  <SCORE.INTER.ROT>
8

>  <SCORE.INTER.SOLV>
11.1428

>  <SCORE.INTER.VDW>
-18.2633

>  <SCORE.INTER.norm>
-0.323985

>  <SCORE.INTRA>
-2.93042

>  <SCORE.INTRA.DIHEDRAL>
-2.83028

>  <SCORE.INTRA.DIHEDRAL.0>
8.13976

>  <SCORE.INTRA.POLAR>
0

>  <SCORE.INTRA.POLAR.0>
0

>  <SCORE.INTRA.REPUL>
0

>  <SCORE.INTRA.REPUL.0>
0

>  <SCORE.INTRA.SOLV>
0.771631

>  <SCORE.INTRA.SOLV.lig_0>
-82.9561

>  <SCORE.INTRA.VDW>
-1.9011

>  <SCORE.INTRA.VDW.0>
-3.29171

>  <SCORE.INTRA.norm>
-0.112708

>  <SCORE.RESTR>
0.0272296

>  <SCORE.RESTR.CAVITY>
0.0272296

>  <SCORE.RESTR.norm>
0.00104729

>  <SCORE.SYSTEM>
0

>  <SCORE.SYSTEM.CONST>
0

>  <SCORE.SYSTEM.DIHEDRAL>
0

>  <SCORE.SYSTEM.SOLV>
0

>  <SCORE.SYSTEM.norm>
0

>  <SCORE.heavy>
26

>  <SCORE.norm>
-0.435646

>  <RMSD>
17.739

$$$$
ligand
 OpenBabel11021811433D
libRbt.so/2013.1/901 2013/11/27
 26 27  0  0  0  0  0  0  0  0999 V2000
   -2.9665   -3.7977    2.8258 C   0  0  0  0  0  0  0  0  0  0  0  0
   -6.2904   -6.2183    8.7261 C   0  0  0  0  0  0  0  0  0  0  0  0
   -7.2986   -5.9982   12.0844 P   0  0  1  0  0  0  0  0  0  0  0  0
   -9.9539   -6.8858   11.2967 P   0  0  1  0  0  0  0  0  0  0  0  0
   -5.4309   -3.4637    8.0074 C   0  0  0  0  0  0  0  0  0  0  0  0
   -4.2114   -4.7387    6.1971 C   0  0  0  0  0  0  0  0  0  0  0  0
   -4.7707   -3.5474    6.6415 C   0  0  0  0  0  0  0  0  0  0  0  0
   -4.7267   -2.4409    5.8093 C   0  0  0  0  0  0  0  0  0  0  0  0
   -5.2580   -1.2569    6.1998 N   0  0  0  0  0  0  0  0  0  0  0  0
   -4.1469   -2.5424    4.5935 N   0  0  0  0  0  0  0  0  0  0  0  0
   -3.6081   -3.7117    4.1842 C   0  0  0  0  0  0  0  0  0  0  0  0
   -3.6412   -4.8043    4.9858 N   0  0  0  0  0  0  0  0  0  0  0  0
   -6.4748   -4.8057   11.6747 O   0  5  0  0  0  0  0  0  0  0  0  0
  -10.5713   -7.1206    9.9524 O   0  0  0  0  0  0  0  0  0  0  0  0
   -2.9689   -5.0045   10.7189 S   0  0  0  0  0  0  0  0  0  0  0  0
   -3.5854   -3.8041    9.6271 C   0  0  0  0  0  0  0  0  0  0  0  0
   -7.7617   -6.0586   13.5116 O   0  0  0  0  0  0  0  0  0  0  0  0
   -9.5920   -8.1971   11.9105 O   0  5  0  0  0  0  0  0  0  0  0  0
   -4.6967   -4.2636    8.9879 N   0  0  0  0  0  0  0  0  0  0  0  0
   -8.5369   -6.1380   11.0481 O   0  0  0  0  0  0  0  0  0  0  0  0
  -10.7285   -5.9979   12.2321 O   0  0  0  0  0  0  0  0  0  0  0  0
   -5.0914   -5.5246    9.3158 C   0  0  1  0  0  0  0  0  0  0  0  0
   -4.2067   -6.1377   10.3434 C   0  0  1  0  0  0  0  0  0  0  0  0
   -4.1701   -7.4665   11.0504 C   0  0  0  0  0  0  0  0  0  0  0  0
   -5.0706   -7.3930   12.2736 C   0  0  0  0  0  0  0  0  0  0  0  0
   -6.4193   -7.3194   11.8280 O   0  0  0  0  0  0  0  0  0  0  0  0
  1 11  1  0  0  0  0
  3 13  1  6  0  0  0
  3 17  2  0  0  0  0
  3 20  1  0  0  0  0
  3 26  1  0  0  0  0
  4 14  1  6  0  0  0
  4 18  1  0  0  0  0
  4 21  2  0  0  0  0
  4 20  1  0  0  0  0
  5 19  1  0  0  0  0
  5  7  1  0  0  0  0
  6  7  2  0  0  0  0
  6 12  1  0  0  0  0
  7  8  1  0  0  0  0
  8  9  1  0  0  0  0
  8 10  2  0  0  0  0
 10 11  1  0  0  0  0
 11 12  2  0  0  0  0
 15 23  1  0  0  0  0
 15 16  1  0  0  0  0
 16 19  1  0  0  0  0
 19 22  1  0  0  0  0
 22  2  1  1  0  0  0
 22 23  1  0  0  0  0
 23 24  1  6  0  0  0
 24 25  1  0  0  0  0
 25 26  1  0  0  0  0
M  CHG  2  13  -1  18  -1
M  END
>  <CHROM.1>
-157.24769199,82.32346184,37.61284780,-162.51960238,94.83242211,69.44861316
-114.02010315,47.73069197,-6.08981983,-5.34767999,9.48790209,0.97849399,-0.12815209
-1.18034743

>  <Name>
ligand

>  <RI>
0

>  <Rbt.Current_Directory>
/home/itssahil/PROJECTS/Mol_Feturizer/New_Systems/rnas/2GDI

>  <Rbt.Executable>
rbdock ($Id: //depot/dev/client3/rdock/2013.1/src/exe/rbdock.cxx#4 $)

>  <Rbt.Library>
libRbt.so (2013.1, Build901 2013/11/27)

>  <Rbt.Parameter_File>
/export/apps/rDock/src/rDock_2013.1_src/data/scripts/dock_solv.prm

>  <Rbt.Receptor>
prm/blind_docking_20.prm

>  <SCORE>
-7.4756

>  <SCORE.INTER>
-10.8204

>  <SCORE.INTER.CONST>
1

>  <SCORE.INTER.POLAR>
0

>  <SCORE.INTER.ROT>
8

>  <SCORE.INTER.SOLV>
8.77786

>  <SCORE.INTER.VDW>
-19.0729

>  <SCORE.INTER.norm>
-0.416169

>  <SCORE.INTRA>
3.31169

>  <SCORE.INTRA.DIHEDRAL>
5.89427

>  <SCORE.INTRA.DIHEDRAL.0>
8.13976

>  <SCORE.INTRA.POLAR>
0

>  <SCORE.INTRA.POLAR.0>
0

>  <SCORE.INTRA.REPUL>
0

>  <SCORE.INTRA.REPUL.0>
0

>  <SCORE.INTRA.SOLV>
4.84398

>  <SCORE.INTRA.SOLV.lig_0>
-82.9561

>  <SCORE.INTRA.VDW>
-2.05744

>  <SCORE.INTRA.VDW.0>
-3.29171

>  <SCORE.INTRA.norm>
0.127373

>  <SCORE.RESTR>
0.0331231

>  <SCORE.RESTR.CAVITY>
0.0331231

>  <SCORE.RESTR.norm>
0.00127397

>  <SCORE.SYSTEM>
0

>  <SCORE.SYSTEM.CONST>
0

>  <SCORE.SYSTEM.DIHEDRAL>
0

>  <SCORE.SYSTEM.SOLV>
0

>  <SCORE.SYSTEM.norm>
0

>  <SCORE.heavy>
26

>  <SCORE.norm>
-0.287523

>  <RMSD>
17.753

$$$$
ligand
 OpenBabel11021811433D
libRbt.so/2013.1/901 2013/11/27
 26 27  0  0  0  0  0  0  0  0999 V2000
  -37.8768  -15.8175  -12.0760 C   0  0  0  0  0  0  0  0  0  0  0  0
  -33.4596  -10.7897   -6.6588 C   0  0  0  0  0  0  0  0  0  0  0  0
  -28.1803  -14.4161   -5.4153 P   0  0  1  0  0  0  0  0  0  0  0  0
  -26.4330  -13.7748   -3.1804 P   0  0  1  0  0  0  0  0  0  0  0  0
  -34.9113  -12.0179   -8.9452 C   0  0  0  0  0  0  0  0  0  0  0  0
  -36.2609  -14.1424   -9.1806 C   0  0  0  0  0  0  0  0  0  0  0  0
  -35.6862  -13.0266   -9.7761 C   0  0  0  0  0  0  0  0  0  0  0  0
  -35.8450  -12.8449  -11.1402 C   0  0  0  0  0  0  0  0  0  0  0  0
  -35.3016  -11.7725  -11.7656 N   0  0  0  0  0  0  0  0  0  0  0  0
  -36.5497  -13.7476  -11.8564 N   0  0  0  0  0  0  0  0  0  0  0  0
  -37.0979  -14.8259  -11.2549 C   0  0  0  0  0  0  0  0  0  0  0  0
  -36.9517  -15.0202   -9.9214 N   0  0  0  0  0  0  0  0  0  0  0  0
  -27.8106  -13.1717   -6.1790 O   0  5  0  0  0  0  0  0  0  0  0  0
  -26.2517  -12.4097   -3.7696 O   0  0  0  0  0  0  0  0  0  0  0  0
  -31.7307  -14.2062   -8.0060 S   0  0  0  0  0  0  0  0  0  0  0  0
  -33.1618  -13.7731   -8.8877 C   0  0  0  0  0  0  0  0  0  0  0  0
  -28.5516  -15.6313   -6.2154 O   0  0  0  0  0  0  0  0  0  0  0  0
  -27.5299  -13.7353   -2.1694 O   0  5  0  0  0  0  0  0  0  0  0  0
  -33.6982  -12.6225   -8.3947 N   0  0  0  0  0  0  0  0  0  0  0  0
  -26.9908  -14.7352   -4.3616 O   0  0  0  0  0  0  0  0  0  0  0  0
  -25.1869  -14.4406   -2.6635 O   0  0  0  0  0  0  0  0  0  0  0  0
  -33.0347  -12.0591   -7.3479 C   0  0  1  0  0  0  0  0  0  0  0  0
  -31.8234  -12.8366   -6.9702 C   0  0  1  0  0  0  0  0  0  0  0  0
  -30.7540  -12.6850   -5.9212 C   0  0  0  0  0  0  0  0  0  0  0  0
  -30.7449  -13.9315   -5.0504 C   0  0  0  0  0  0  0  0  0  0  0  0
  -29.4463  -14.0699   -4.4870 O   0  0  0  0  0  0  0  0  0  0  0  0
  1 11  1  0  0  0  0
  3 13  1  6  0  0  0
  3 17  2  0  0  0  0
  3 20  1  0  0  0  0
  3 26  1  0  0  0  0
  4 14  1  6  0  0  0
  4 18  1  0  0  0  0
  4 21  2  0  0  0  0
  4 20  1  0  0  0  0
  5 19  1  0  0  0  0
  5  7  1  0  0  0  0
  6  7  2  0  0  0  0
  6 12  1  0  0  0  0
  7  8  1  0  0  0  0
  8  9  1  0  0  0  0
  8 10  2  0  0  0  0
 10 11  1  0  0  0  0
 11 12  2  0  0  0  0
 15 23  1  0  0  0  0
 15 16  1  0  0  0  0
 16 19  1  0  0  0  0
 19 22  1  0  0  0  0
 22  2  1  6  0  0  0
 22 23  1  0  0  0  0
 23 24  1  1  0  0  0
 24 25  1  0  0  0  0
 25 26  1  0  0  0  0
M  CHG  2  13  -1  18  -1
M  END
>  <CHROM.1>
58.39239442,17.90113388,65.72327921,-46.01106750,-57.10822707,154.85340210
-67.76914968,74.77794981,-31.35736404,-13.65042735,-6.99157155,-2.96417675
-0.61595563,0.33543917

>  <Name>
ligand

>  <RI>
0

>  <Rbt.Current_Directory>
/home/itssahil/PROJECTS/Mol_Feturizer/New_Systems/rnas/2GDI

>  <Rbt.Executable>
rbdock ($Id: //depot/dev/client3/rdock/2013.1/src/exe/rbdock.cxx#4 $)

>  <Rbt.Library>
libRbt.so (2013.1, Build901 2013/11/27)

>  <Rbt.Parameter_File>
/export/apps/rDock/src/rDock_2013.1_src/data/scripts/dock_solv.prm

>  <Rbt.Receptor>
prm/blind_docking_100.prm

>  <SCORE>
-4.20484

>  <SCORE.INTER>
-5.50883

>  <SCORE.INTER.CONST>
1

>  <SCORE.INTER.POLAR>
0

>  <SCORE.INTER.ROT>
8

>  <SCORE.INTER.SOLV>
19.1522

>  <SCORE.INTER.VDW>
-18.99

>  <SCORE.INTER.norm>
-0.211878

>  <SCORE.INTRA>
1.30399

>  <SCORE.INTRA.DIHEDRAL>
-0.149658

>  <SCORE.INTRA.DIHEDRAL.0>
8.13976

>  <SCORE.INTRA.POLAR>
0

>  <SCORE.INTRA.POLAR.0>
0

>  <SCORE.INTRA.REPUL>
0

>  <SCORE.INTRA.REPUL.0>
0

>  <SCORE.INTRA.SOLV>
1.07485

>  <SCORE.INTRA.SOLV.lig_0>
-82.9561

>  <SCORE.INTRA.VDW>
0.841395

>  <SCORE.INTRA.VDW.0>
-3.29171

>  <SCORE.INTRA.norm>
0.0501535

>  <SCORE.RESTR>
0

>  <SCORE.RESTR.CAVITY>
0

>  <SCORE.RESTR.norm>
0

>  <SCORE.SYSTEM>
0

>  <SCORE.SYSTEM.CONST>
0

>  <SCORE.SYSTEM.DIHEDRAL>
0

>  <SCORE.SYSTEM.SOLV>
0

>  <SCORE.SYSTEM.norm>
0

>  <SCORE.heavy>
26

>  <SCORE.norm>
-0.161725

>  <RMSD>
17.791

$$$$
ligand
 OpenBabel11021811433D
libRbt.so/2013.1/901 2013/11/27
 26 27  0  0  0  0  0  0  0  0999 V2000
   -3.0709   -3.2516    3.9437 C   0  0  0  0  0  0  0  0  0  0  0  0
   -6.1272   -7.3608    9.9060 C   0  0  0  0  0  0  0  0  0  0  0  0
   -7.7537   -3.9843   11.4055 P   0  0  1  0  0  0  0  0  0  0  0  0
   -9.8838   -5.3483    9.9699 P   0  0  1  0  0  0  0  0  0  0  0  0
   -4.0258   -7.4028    7.8023 C   0  0  0  0  0  0  0  0  0  0  0  0
   -2.6838   -6.3696    5.9257 C   0  0  0  0  0  0  0  0  0  0  0  0
   -3.7692   -6.2994    6.7899 C   0  0  0  0  0  0  0  0  0  0  0  0
   -4.6205   -5.2102    6.7011 C   0  0  0  0  0  0  0  0  0  0  0  0
   -5.6916   -5.0974    7.5235 N   0  0  0  0  0  0  0  0  0  0  0  0
   -4.3803   -4.2481    5.7839 N   0  0  0  0  0  0  0  0  0  0  0  0
   -3.3170   -4.3379    4.9554 C   0  0  0  0  0  0  0  0  0  0  0  0
   -2.4730   -5.3960    5.0289 N   0  0  0  0  0  0  0  0  0  0  0  0
   -7.6220   -3.2080   10.1216 O   0  5  0  0  0  0  0  0  0  0  0  0
  -11.1194   -5.9324   10.5827 O   0  0  0  0  0  0  0  0  0  0  0  0
   -2.5247   -6.0223   11.2123 S   0  0  0  0  0  0  0  0  0  0  0  0
   -2.5104   -6.4983    9.5431 C   0  0  0  0  0  0  0  0  0  0  0  0
   -8.1061   -3.2128   12.6446 O   0  0  0  0  0  0  0  0  0  0  0  0
  -10.1606   -3.9464    9.5395 O   0  5  0  0  0  0  0  0  0  0  0  0
   -3.7413   -6.9372    9.1597 N   0  0  0  0  0  0  0  0  0  0  0  0
   -8.7830   -5.2104   11.1523 O   0  0  0  0  0  0  0  0  0  0  0  0
   -9.2297   -6.1707    8.8933 O   0  0  0  0  0  0  0  0  0  0  0  0
   -4.7044   -6.9187   10.1218 C   0  0  1  0  0  0  0  0  0  0  0  0
   -4.1917   -6.3919   11.4157 C   0  0  1  0  0  0  0  0  0  0  0  0
   -4.7946   -6.1580   12.7754 C   0  0  0  0  0  0  0  0  0  0  0  0
   -6.2616   -5.7970   12.6028 C   0  0  0  0  0  0  0  0  0  0  0  0
   -6.3462   -4.7051   11.6952 O   0  0  0  0  0  0  0  0  0  0  0  0
  1 11  1  0  0  0  0
  3 13  1  6  0  0  0
  3 17  2  0  0  0  0
  3 20  1  0  0  0  0
  3 26  1  0  0  0  0
  4 14  1  1  0  0  0
  4 18  1  0  0  0  0
  4 21  2  0  0  0  0
  4 20  1  0  0  0  0
  5 19  1  0  0  0  0
  5  7  1  0  0  0  0
  6  7  2  0  0  0  0
  6 12  1  0  0  0  0
  7  8  1  0  0  0  0
  8  9  1  0  0  0  0
  8 10  2  0  0  0  0
 10 11  1  0  0  0  0
 11 12  2  0  0  0  0
 15 23  1  0  0  0  0
 15 16  1  0  0  0  0
 16 19  1  0  0  0  0
 19 22  1  0  0  0  0
 22  2  1  6  0  0  0
 22 23  1  0  0  0  0
 23 24  1  1  0  0  0
 24 25  1  0  0  0  0
 25 26  1  0  0  0  0
M  CHG  2  13  -1  18  -1
M  END
>  <CHROM.1>
-19.77628836,-60.28130562,108.90903545,-139.40612658,149.34514084,-53.66080756
-173.96925161,-161.83972248,-5.96974928,-5.35507030,9.42096047,0.62010122
0.23817950,-1.39003773

>  <Name>
ligand

>  <RI>
0

>  <Rbt.Current_Directory>
/home/itssahil/PROJECTS/Mol_Feturizer/New_Systems/rnas/2GDI

>  <Rbt.Executable>
rbdock ($Id: //depot/dev/client3/rdock/2013.1/src/exe/rbdock.cxx#4 $)

>  <Rbt.Library>
libRbt.so (2013.1, Build901 2013/11/27)

>  <Rbt.Parameter_File>
/export/apps/rDock/src/rDock_2013.1_src/data/scripts/dock_solv.prm

>  <Rbt.Receptor>
prm/blind_docking_20.prm

>  <SCORE>
-3.73802

>  <SCORE.INTER>
-7.74126

>  <SCORE.INTER.CONST>
1

>  <SCORE.INTER.POLAR>
0

>  <SCORE.INTER.ROT>
8

>  <SCORE.INTER.SOLV>
6.31388

>  <SCORE.INTER.VDW>
-16.1988

>  <SCORE.INTER.norm>
-0.297741

>  <SCORE.INTRA>
3.99714

>  <SCORE.INTRA.DIHEDRAL>
1.0283

>  <SCORE.INTRA.DIHEDRAL.0>
8.13976

>  <SCORE.INTRA.POLAR>
0

>  <SCORE.INTRA.POLAR.0>
0

>  <SCORE.INTRA.REPUL>
0.00492564

>  <SCORE.INTRA.REPUL.0>
0

>  <SCORE.INTRA.SOLV>
7.30632

>  <SCORE.INTRA.SOLV.lig_0>
-82.9561

>  <SCORE.INTRA.VDW>
-0.194806

>  <SCORE.INTRA.VDW.0>
-3.29171

>  <SCORE.INTRA.norm>
0.153736

>  <SCORE.RESTR>
0.00609629

>  <SCORE.RESTR.CAVITY>
0.00609629

>  <SCORE.RESTR.norm>
0.000234473

>  <SCORE.SYSTEM>
0

>  <SCORE.SYSTEM.CONST>
0

>  <SCORE.SYSTEM.DIHEDRAL>
0

>  <SCORE.SYSTEM.SOLV>
0

>  <SCORE.SYSTEM.norm>
0

>  <SCORE.heavy>
26

>  <SCORE.norm>
-0.14377

>  <RMSD>
17.857

$$$$
ligand
 OpenBabel11021811433D
libRbt.so/2013.1/901 2013/11/27
 26 27  0  0  0  0  0  0  0  0999 V2000
   -3.6486   -2.7948    3.9546 C   0  0  0  0  0  0  0  0  0  0  0  0
   -9.2184   -3.3684    7.1933 C   0  0  0  0  0  0  0  0  0  0  0  0
   -6.1913   -6.6596    9.0448 P   0  0  1  0  0  0  0  0  0  0  0  0
   -3.9756   -5.4035   10.4490 P   0  0  1  0  0  0  0  0  0  0  0  0
   -7.2792   -1.3334    8.1636 C   0  0  0  0  0  0  0  0  0  0  0  0
   -5.3138   -2.6497    7.2722 C   0  0  0  0  0  0  0  0  0  0  0  0
   -6.3139   -1.7109    7.0527 C   0  0  0  0  0  0  0  0  0  0  0  0
   -6.4223   -1.1359    5.7971 C   0  0  0  0  0  0  0  0  0  0  0  0
   -7.3811   -0.2146    5.5359 N   0  0  0  0  0  0  0  0  0  0  0  0
   -5.5615   -1.4971    4.8208 N   0  0  0  0  0  0  0  0  0  0  0  0
   -4.5958   -2.4113    5.0590 C   0  0  0  0  0  0  0  0  0  0  0  0
   -4.4745   -2.9834    6.2819 N   0  0  0  0  0  0  0  0  0  0  0  0
   -6.4236   -5.4993    8.1130 O   0  5  0  0  0  0  0  0  0  0  0  0
   -4.0530   -4.1274    9.6687 O   0  0  0  0  0  0  0  0  0  0  0  0
   -7.7206   -4.2074   10.8715 S   0  0  0  0  0  0  0  0  0  0  0  0
   -7.0917   -2.7359   10.1990 C   0  0  0  0  0  0  0  0  0  0  0  0
   -5.5029   -7.8693    8.4812 O   0  0  0  0  0  0  0  0  0  0  0  0
   -3.7837   -5.0881   11.8950 O   0  5  0  0  0  0  0  0  0  0  0  0
   -7.6271   -2.5046    8.9683 N   0  0  0  0  0  0  0  0  0  0  0  0
   -5.4356   -6.1038   10.3665 O   0  0  0  0  0  0  0  0  0  0  0  0
   -2.9988   -6.4288    9.9410 O   0  0  0  0  0  0  0  0  0  0  0  0
   -8.5150   -3.4355    8.5227 C   0  0  1  0  0  0  0  0  0  0  0  0
   -8.7260   -4.5258    9.5132 C   0  0  1  0  0  0  0  0  0  0  0  0
   -9.5666   -5.7745    9.5483 C   0  0  0  0  0  0  0  0  0  0  0  0
   -8.8091   -6.8922    8.8489 C   0  0  0  0  0  0  0  0  0  0  0  0
   -7.6217   -7.1532    9.5873 O   0  0  0  0  0  0  0  0  0  0  0  0
  1 11  1  0  0  0  0
  3 13  1  6  0  0  0
  3 17  2  0  0  0  0
  3 20  1  0  0  0  0
  3 26  1  0  0  0  0
  4 14  1  6  0  0  0
  4 18  1  0  0  0  0
  4 21  2  0  0  0  0
  4 20  1  0  0  0  0
  5 19  1  0  0  0  0
  5  7  1  0  0  0  0
  6  7  2  0  0  0  0
  6 12  1  0  0  0  0
  7  8  1  0  0  0  0
  8  9  1  0  0  0  0
  8 10  2  0  0  0  0
 10 11  1  0  0  0  0
 11 12  2  0  0  0  0
 15 23  1  0  0  0  0
 15 16  1  0  0  0  0
 16 19  1  0  0  0  0
 19 22  1  0  0  0  0
 22  2  1  1  0  0  0
 22 23  1  0  0  0  0
 23 24  1  6  0  0  0
 24 25  1  0  0  0  0
 25 26  1  0  0  0  0
M  CHG  2  13  -1  18  -1
M  END
>  <CHROM.1>
-62.08218154,103.03534520,-37.60491389,63.62843441,-94.10242829,63.47973367
-105.14248579,23.67362976,-6.22550973,-4.29920809,8.56304236,-1.59166201
-0.17604307,2.36479112

>  <Name>
ligand

>  <RI>
0

>  <Rbt.Current_Directory>
/home/itssahil/PROJECTS/Mol_Feturizer/New_Systems/rnas/2GDI

>  <Rbt.Executable>
rbdock ($Id: //depot/dev/client3/rdock/2013.1/src/exe/rbdock.cxx#4 $)

>  <Rbt.Library>
libRbt.so (2013.1, Build901 2013/11/27)

>  <Rbt.Parameter_File>
/export/apps/rDock/src/rDock_2013.1_src/data/scripts/dock_solv.prm

>  <Rbt.Receptor>
prm/blind_docking_100.prm

>  <SCORE>
-4.05966

>  <SCORE.INTER>
-4.96421

>  <SCORE.INTER.CONST>
1

>  <SCORE.INTER.POLAR>
0

>  <SCORE.INTER.ROT>
8

>  <SCORE.INTER.SOLV>
15.8389

>  <SCORE.INTER.VDW>
-17.5225

>  <SCORE.INTER.norm>
-0.190931

>  <SCORE.INTRA>
0.904559

>  <SCORE.INTRA.DIHEDRAL>
4.6847

>  <SCORE.INTRA.DIHEDRAL.0>
8.13976

>  <SCORE.INTRA.POLAR>
0

>  <SCORE.INTRA.POLAR.0>
0

>  <SCORE.INTRA.REPUL>
0

>  <SCORE.INTRA.REPUL.0>
0

>  <SCORE.INTRA.SOLV>
4.23864

>  <SCORE.INTRA.SOLV.lig_0>
-82.9561

>  <SCORE.INTRA.VDW>
-3.55711

>  <SCORE.INTRA.VDW.0>
-3.29171

>  <SCORE.INTRA.norm>
0.0347907

>  <SCORE.RESTR>
0

>  <SCORE.RESTR.CAVITY>
0

>  <SCORE.RESTR.norm>
0

>  <SCORE.SYSTEM>
0

>  <SCORE.SYSTEM.CONST>
0

>  <SCORE.SYSTEM.DIHEDRAL>
0

>  <SCORE.SYSTEM.SOLV>
0

>  <SCORE.SYSTEM.norm>
0

>  <SCORE.heavy>
26

>  <SCORE.norm>
-0.156141

>  <RMSD>
17.895

$$$$
ligand
 OpenBabel11021811433D
libRbt.so/2013.1/901 2013/11/27
 26 27  0  0  0  0  0  0  0  0999 V2000
   -9.3039   -8.6539   13.4165 C   0  0  0  0  0  0  0  0  0  0  0  0
   -9.5722   -3.4496    6.5284 C   0  0  0  0  0  0  0  0  0  0  0  0
   -3.7980   -2.8659    5.5553 P   0  0  1  0  0  0  0  0  0  0  0  0
   -4.6601   -5.5665    6.2054 P   0  0  1  0  0  0  0  0  0  0  0  0
   -9.4971   -5.6640    8.5118 C   0  0  0  0  0  0  0  0  0  0  0  0
   -8.4509   -7.3963   10.0267 C   0  0  0  0  0  0  0  0  0  0  0  0
   -9.4536   -6.4608    9.8047 C   0  0  0  0  0  0  0  0  0  0  0  0
  -10.4051   -6.2592   10.7910 C   0  0  0  0  0  0  0  0  0  0  0  0
  -11.4029   -5.3584   10.6194 N   0  0  0  0  0  0  0  0  0  0  0  0
  -10.3384   -6.9693   11.9382 N   0  0  0  0  0  0  0  0  0  0  0  0
   -9.3544   -7.8748   12.1302 C   0  0  0  0  0  0  0  0  0  0  0  0
   -8.4157   -8.0858   11.1755 N   0  0  0  0  0  0  0  0  0  0  0  0
   -2.5288   -3.0154    6.3523 O   0  5  0  0  0  0  0  0  0  0  0  0
   -5.9012   -5.1982    6.9587 O   0  0  0  0  0  0  0  0  0  0  0  0
   -6.5408   -3.1015    9.2054 S   0  0  0  0  0  0  0  0  0  0  0  0
   -7.5187   -4.5125    9.4627 C   0  0  0  0  0  0  0  0  0  0  0  0
   -3.7526   -1.9753    4.3472 O   0  0  0  0  0  0  0  0  0  0  0  0
   -4.9451   -6.7375    5.3253 O   0  5  0  0  0  0  0  0  0  0  0  0
   -8.5169   -4.5784    8.5386 N   0  0  0  0  0  0  0  0  0  0  0  0
   -4.3406   -4.3476    5.1851 O   0  0  0  0  0  0  0  0  0  0  0  0
   -3.4162   -5.7471    7.0322 O   0  0  0  0  0  0  0  0  0  0  0  0
   -8.5526   -3.5652    7.6300 C   0  0  1  0  0  0  0  0  0  0  0  0
   -7.4511   -2.5870    7.8402 C   0  0  1  0  0  0  0  0  0  0  0  0
   -7.0217   -1.3154    7.1579 C   0  0  0  0  0  0  0  0  0  0  0  0
   -6.1044   -1.6701    5.9981 C   0  0  0  0  0  0  0  0  0  0  0  0
   -4.9269   -2.2652    6.5296 O   0  0  0  0  0  0  0  0  0  0  0  0
  1 11  1  0  0  0  0
  3 13  1  1  0  0  0
  3 17  2  0  0  0  0
  3 20  1  0  0  0  0
  3 26  1  0  0  0  0
  4 14  1  1  0  0  0
  4 18  1  0  0  0  0
  4 21  2  0  0  0  0
  4 20  1  0  0  0  0
  5 19  1  0  0  0  0
  5  7  1  0  0  0  0
  6  7  2  0  0  0  0
  6 12  1  0  0  0  0
  7  8  1  0  0  0  0
  8  9  1  0  0  0  0
  8 10  2  0  0  0  0
 10 11  1  0  0  0  0
 11 12  2  0  0  0  0
 15 23  1  0  0  0  0
 15 16  1  0  0  0  0
 16 19  1  0  0  0  0
 19 22  1  0  0  0  0
 22  2  1  6  0  0  0
 22 23  1  0  0  0  0
 23 24  1  1  0  0  0
 24 25  1  0  0  0  0
 25 26  1  0  0  0  0
M  CHG  2  13  -1  18  -1
M  END
>  <CHROM.1>
55.01104555,13.92455050,-77.97818866,71.36970127,94.66732082,-64.55143379
175.02542915,162.39593588,-6.75749363,-4.65462076,7.97574347,-2.40887612
0.53500012,-0.46872629

>  <Name>
ligand

>  <RI>
0

>  <Rbt.Current_Directory>
/home/itssahil/PROJECTS/Mol_Feturizer/New_Systems/rnas/2GDI

>  <Rbt.Executable>
rbdock ($Id: //depot/dev/client3/rdock/2013.1/src/exe/rbdock.cxx#4 $)

>  <Rbt.Library>
libRbt.so (2013.1, Build901 2013/11/27)

>  <Rbt.Parameter_File>
/export/apps/rDock/src/rDock_2013.1_src/data/scripts/dock_solv.prm

>  <Rbt.Receptor>
prm/blind_docking_20.prm

>  <SCORE>
-8.89679

>  <SCORE.INTER>
-5.91027

>  <SCORE.INTER.CONST>
1

>  <SCORE.INTER.POLAR>
0

>  <SCORE.INTER.ROT>
8

>  <SCORE.INTER.SOLV>
16.4552

>  <SCORE.INTER.VDW>
-18.3586

>  <SCORE.INTER.norm>
-0.227318

>  <SCORE.INTRA>
-2.98652

>  <SCORE.INTRA.DIHEDRAL>
-2.24756

>  <SCORE.INTRA.DIHEDRAL.0>
8.13976

>  <SCORE.INTRA.POLAR>
0

>  <SCORE.INTRA.POLAR.0>
0

>  <SCORE.INTRA.REPUL>
0

>  <SCORE.INTRA.REPUL.0>
0

>  <SCORE.INTRA.SOLV>
-0.540798

>  <SCORE.INTRA.SOLV.lig_0>
-82.9561

>  <SCORE.INTRA.VDW>
-1.59233

>  <SCORE.INTRA.VDW.0>
-3.29171

>  <SCORE.INTRA.norm>
-0.114866

>  <SCORE.RESTR>
0

>  <SCORE.RESTR.CAVITY>
0

>  <SCORE.RESTR.norm>
0

>  <SCORE.SYSTEM>
0

>  <SCORE.SYSTEM.CONST>
0

>  <SCORE.SYSTEM.DIHEDRAL>
0

>  <SCORE.SYSTEM.SOLV>
0

>  <SCORE.SYSTEM.norm>
0

>  <SCORE.heavy>
26

>  <SCORE.norm>
-0.342184

>  <RMSD>
17.897

$$$$
ligand
 OpenBabel11021811433D
libRbt.so/2013.1/901 2013/11/27
 26 27  0  0  0  0  0  0  0  0999 V2000
   -9.4379   -8.9657   13.5771 C   0  0  0  0  0  0  0  0  0  0  0  0
   -7.7520   -6.1514    6.8487 C   0  0  0  0  0  0  0  0  0  0  0  0
   -4.4270   -8.0936    7.0430 P   0  0  1  0  0  0  0  0  0  0  0  0
   -1.5765   -7.5958    6.7504 P   0  0  1  0  0  0  0  0  0  0  0  0
   -9.6089   -5.4234    9.0543 C   0  0  0  0  0  0  0  0  0  0  0  0
   -8.6018   -7.3561   10.3352 C   0  0  0  0  0  0  0  0  0  0  0  0
   -9.5716   -6.3655   10.2457 C   0  0  0  0  0  0  0  0  0  0  0  0
  -10.4955   -6.2450   11.2708 C   0  0  0  0  0  0  0  0  0  0  0  0
  -11.4607   -5.2948   11.2272 N   0  0  0  0  0  0  0  0  0  0  0  0
  -10.4345   -7.0849   12.3269 N   0  0  0  0  0  0  0  0  0  0  0  0
   -9.4828   -8.0417   12.3904 C   0  0  0  0  0  0  0  0  0  0  0  0
   -8.5713   -8.1747   11.3960 N   0  0  0  0  0  0  0  0  0  0  0  0
   -5.4153   -8.9982    6.3548 O   0  5  0  0  0  0  0  0  0  0  0  0
   -1.5128   -6.3171    5.9729 O   0  0  0  0  0  0  0  0  0  0  0  0
   -6.3293   -3.1871    9.2290 S   0  0  0  0  0  0  0  0  0  0  0  0
   -7.8939   -3.7601    9.7155 C   0  0  0  0  0  0  0  0  0  0  0  0
   -4.3545   -8.1646    8.5412 O   0  0  0  0  0  0  0  0  0  0  0  0
   -1.6974   -7.2844    8.2050 O   0  5  0  0  0  0  0  0  0  0  0  0
   -8.3208   -4.7511    8.8845 N   0  0  0  0  0  0  0  0  0  0  0  0
   -2.9735   -8.3219    6.3632 O   0  0  0  0  0  0  0  0  0  0  0  0
   -0.4959   -8.6005    6.4568 O   0  0  0  0  0  0  0  0  0  0  0  0
   -7.4717   -5.0854    7.8742 C   0  0  1  0  0  0  0  0  0  0  0  0
   -6.2186   -4.2835    7.9089 C   0  0  1  0  0  0  0  0  0  0  0  0
   -4.9737   -4.2301    7.0637 C   0  0  0  0  0  0  0  0  0  0  0  0
   -4.1565   -5.4867    7.3192 C   0  0  0  0  0  0  0  0  0  0  0  0
   -4.8020   -6.5755    6.6703 O   0  0  0  0  0  0  0  0  0  0  0  0
  1 11  1  0  0  0  0
  3 13  1  6  0  0  0
  3 17  2  0  0  0  0
  3 20  1  0  0  0  0
  3 26  1  0  0  0  0
  4 14  1  6  0  0  0
  4 18  1  0  0  0  0
  4 21  2  0  0  0  0
  4 20  1  0  0  0  0
  5 19  1  0  0  0  0
  5  7  1  0  0  0  0
  6  7  2  0  0  0  0
  6 12  1  0  0  0  0
  7  8  1  0  0  0  0
  8  9  1  0  0  0  0
  8 10  2  0  0  0  0
 10 11  1  0  0  0  0
 11 12  2  0  0  0  0
 15 23  1  0  0  0  0
 15 16  1  0  0  0  0
 16 19  1  0  0  0  0
 19 22  1  0  0  0  0
 22  2  1  1  0  0  0
 22 23  1  0  0  0  0
 23 24  1  6  0  0  0
 24 25  1  0  0  0  0
 25 26  1  0  0  0  0
M  CHG  2  13  -1  18  -1
M  END
>  <CHROM.1>
-179.57686499,-73.30399720,-55.10703336,-86.66233763,109.79274526,74.10906088
-164.08895283,171.38908953,-6.00332660,-6.56176019,8.57748658,-3.07405395
0.55504693,-0.37319250

>  <Name>
ligand

>  <RI>
0

>  <Rbt.Current_Directory>
/home/itssahil/PROJECTS/Mol_Feturizer/New_Systems/rnas/2GDI

>  <Rbt.Executable>
rbdock ($Id: //depot/dev/client3/rdock/2013.1/src/exe/rbdock.cxx#4 $)

>  <Rbt.Library>
libRbt.so (2013.1, Build901 2013/11/27)

>  <Rbt.Parameter_File>
/export/apps/rDock/src/rDock_2013.1_src/data/scripts/dock_solv.prm

>  <Rbt.Receptor>
prm/blind_docking_20.prm

>  <SCORE>
-5.60607

>  <SCORE.INTER>
-5.77169

>  <SCORE.INTER.CONST>
1

>  <SCORE.INTER.POLAR>
0

>  <SCORE.INTER.ROT>
8

>  <SCORE.INTER.SOLV>
18.6527

>  <SCORE.INTER.VDW>
-18.9987

>  <SCORE.INTER.norm>
-0.221988

>  <SCORE.INTRA>
0.165134

>  <SCORE.INTRA.DIHEDRAL>
-0.0813615

>  <SCORE.INTRA.DIHEDRAL.0>
8.13976

>  <SCORE.INTRA.POLAR>
0

>  <SCORE.INTRA.POLAR.0>
0

>  <SCORE.INTRA.REPUL>
0

>  <SCORE.INTRA.REPUL.0>
0

>  <SCORE.INTRA.SOLV>
2.2305

>  <SCORE.INTRA.SOLV.lig_0>
-82.9561

>  <SCORE.INTRA.VDW>
-0.909436

>  <SCORE.INTRA.VDW.0>
-3.29171

>  <SCORE.INTRA.norm>
0.0063513

>  <SCORE.RESTR>
0.000484766

>  <SCORE.RESTR.CAVITY>
0.000484766

>  <SCORE.RESTR.norm>
1.86448e-05

>  <SCORE.SYSTEM>
0

>  <SCORE.SYSTEM.CONST>
0

>  <SCORE.SYSTEM.DIHEDRAL>
0

>  <SCORE.SYSTEM.SOLV>
0

>  <SCORE.SYSTEM.norm>
0

>  <SCORE.heavy>
26

>  <SCORE.norm>
-0.215618

>  <RMSD>
17.946

$$$$
ligand
 OpenBabel11021811433D
libRbt.so/2013.1/901 2013/11/27
 26 27  0  0  0  0  0  0  0  0999 V2000
   -7.6555   -0.8368   11.1094 C   0  0  0  0  0  0  0  0  0  0  0  0
   -8.3968   -6.4443    6.6967 C   0  0  0  0  0  0  0  0  0  0  0  0
   -3.7253   -4.3996    5.4965 P   0  0  1  0  0  0  0  0  0  0  0  0
   -4.6491   -3.6690    8.1558 P   0  0  1  0  0  0  0  0  0  0  0  0
   -8.5664   -6.3243    9.6632 C   0  0  0  0  0  0  0  0  0  0  0  0
   -8.7556   -3.8422    9.2232 C   0  0  0  0  0  0  0  0  0  0  0  0
   -8.3156   -4.8745   10.0421 C   0  0  0  0  0  0  0  0  0  0  0  0
   -7.6557   -4.5556   11.2176 C   0  0  0  0  0  0  0  0  0  0  0  0
   -7.2071   -5.5282   12.0477 N   0  0  0  0  0  0  0  0  0  0  0  0
   -7.4563   -3.2593   11.5407 N   0  0  0  0  0  0  0  0  0  0  0  0
   -7.8921   -2.2728   10.7271 C   0  0  0  0  0  0  0  0  0  0  0  0
   -8.5387   -2.5665    9.5725 N   0  0  0  0  0  0  0  0  0  0  0  0
   -4.4210   -3.2071    4.8945 O   0  5  0  0  0  0  0  0  0  0  0  0
   -5.7769   -4.6494    8.0533 O   0  0  0  0  0  0  0  0  0  0  0  0
   -5.1324   -7.9860    8.5525 S   0  0  0  0  0  0  0  0  0  0  0  0
   -6.3312   -7.3959    9.6606 C   0  0  0  0  0  0  0  0  0  0  0  0
   -2.4498   -4.8541    4.8473 O   0  0  0  0  0  0  0  0  0  0  0  0
   -3.9878   -3.8134    9.4858 O   0  5  0  0  0  0  0  0  0  0  0  0
   -7.4010   -6.8919    8.9852 N   0  0  0  0  0  0  0  0  0  0  0  0
   -3.5232   -4.1213    7.0804 O   0  0  0  0  0  0  0  0  0  0  0  0
   -4.9848   -2.2407    7.8232 O   0  0  0  0  0  0  0  0  0  0  0  0
   -7.3247   -6.9461    7.6270 C   0  0  1  0  0  0  0  0  0  0  0  0
   -6.0597   -7.5778    7.1630 C   0  0  1  0  0  0  0  0  0  0  0  0
   -5.4642   -7.8860    5.8149 C   0  0  0  0  0  0  0  0  0  0  0  0
   -4.2655   -6.9773    5.5921 C   0  0  0  0  0  0  0  0  0  0  0  0
   -4.7404   -5.6450    5.4419 O   0  0  0  0  0  0  0  0  0  0  0  0
  1 11  1  0  0  0  0
  3 13  1  6  0  0  0
  3 17  2  0  0  0  0
  3 20  1  0  0  0  0
  3 26  1  0  0  0  0
  4 14  1  6  0  0  0
  4 18  1  0  0  0  0
  4 21  2  0  0  0  0
  4 20  1  0  0  0  0
  5 19  1  0  0  0  0
  5  7  1  0  0  0  0
  6  7  2  0  0  0  0
  6 12  1  0  0  0  0
  7  8  1  0  0  0  0
  8  9  1  0  0  0  0
  8 10  2  0  0  0  0
 10 11  1  0  0  0  0
 11 12  2  0  0  0  0
 15 23  1  0  0  0  0
 15 16  1  0  0  0  0
 16 19  1  0  0  0  0
 19 22  1  0  0  0  0
 22  2  1  1  0  0  0
 22 23  1  0  0  0  0
 23 24  1  6  0  0  0
 24 25  1  0  0  0  0
 25 26  1  0  0  0  0
M  CHG  2  13  -1  18  -1
M  END
>  <CHROM.1>
51.69858116,83.33673416,96.19236918,53.28569147,-68.14299433,-68.53377103
167.18883613,162.67459726,-5.87502241,-4.96020873,8.13203338,-2.64592418
-0.83288661,-2.84364065

>  <Name>
ligand

>  <RI>
0

>  <Rbt.Current_Directory>
/home/itssahil/PROJECTS/Mol_Feturizer/New_Systems/rnas/2GDI

>  <Rbt.Executable>
rbdock ($Id: //depot/dev/client3/rdock/2013.1/src/exe/rbdock.cxx#4 $)

>  <Rbt.Library>
libRbt.so (2013.1, Build901 2013/11/27)

>  <Rbt.Parameter_File>
/export/apps/rDock/src/rDock_2013.1_src/data/scripts/dock_solv.prm

>  <Rbt.Receptor>
prm/blind_docking_100.prm

>  <SCORE>
-9.03655

>  <SCORE.INTER>
-4.85661

>  <SCORE.INTER.CONST>
1

>  <SCORE.INTER.POLAR>
0

>  <SCORE.INTER.ROT>
8

>  <SCORE.INTER.SOLV>
17.4337

>  <SCORE.INTER.VDW>
-17.9823

>  <SCORE.INTER.norm>
-0.186793

>  <SCORE.INTRA>
-4.17994

>  <SCORE.INTRA.DIHEDRAL>
-1.08639

>  <SCORE.INTRA.DIHEDRAL.0>
8.13976

>  <SCORE.INTRA.POLAR>
0

>  <SCORE.INTRA.POLAR.0>
0

>  <SCORE.INTRA.REPUL>
0

>  <SCORE.INTRA.REPUL.0>
0

>  <SCORE.INTRA.SOLV>
0.224436

>  <SCORE.INTRA.SOLV.lig_0>
-82.9561

>  <SCORE.INTRA.VDW>
-3.74896

>  <SCORE.INTRA.VDW.0>
-3.29171

>  <SCORE.INTRA.norm>
-0.160767

>  <SCORE.RESTR>
0

>  <SCORE.RESTR.CAVITY>
0

>  <SCORE.RESTR.norm>
0

>  <SCORE.SYSTEM>
0

>  <SCORE.SYSTEM.CONST>
0

>  <SCORE.SYSTEM.DIHEDRAL>
0

>  <SCORE.SYSTEM.SOLV>
0

>  <SCORE.SYSTEM.norm>
0

>  <SCORE.heavy>
26

>  <SCORE.norm>
-0.34756

>  <RMSD>
18.076

$$$$
ligand
 OpenBabel11021811433D
libRbt.so/2013.1/901 2013/11/27
 26 27  0  0  0  0  0  0  0  0999 V2000
  -11.3415   -5.3771   10.8699 C   0  0  0  0  0  0  0  0  0  0  0  0
   -5.7554   -8.5818    6.2343 C   0  0  0  0  0  0  0  0  0  0  0  0
   -3.2728   -6.5576   11.0296 P   0  0  1  0  0  0  0  0  0  0  0  0
   -5.6804   -5.6807   12.4057 P   0  0  1  0  0  0  0  0  0  0  0  0
   -7.7872   -6.4239    6.4762 C   0  0  0  0  0  0  0  0  0  0  0  0
   -9.8871   -5.4094    7.4518 C   0  0  0  0  0  0  0  0  0  0  0  0
   -8.7204   -6.1394    7.6409 C   0  0  0  0  0  0  0  0  0  0  0  0
   -8.4316   -6.6144    8.9097 C   0  0  0  0  0  0  0  0  0  0  0  0
   -7.3049   -7.3302    9.1432 N   0  0  0  0  0  0  0  0  0  0  0  0
   -9.2829   -6.3610    9.9274 N   0  0  0  0  0  0  0  0  0  0  0  0
  -10.4107   -5.6470    9.7188 C   0  0  0  0  0  0  0  0  0  0  0  0
  -10.7087   -5.1736    8.4841 N   0  0  0  0  0  0  0  0  0  0  0  0
   -2.3933   -5.3448   10.8744 O   0  5  0  0  0  0  0  0  0  0  0  0
   -4.8629   -4.7163   13.2089 O   0  0  0  0  0  0  0  0  0  0  0  0
   -4.2451   -5.1168    7.7140 S   0  0  0  0  0  0  0  0  0  0  0  0
   -5.9411   -5.0232    7.3563 C   0  0  0  0  0  0  0  0  0  0  0  0
   -2.9525   -7.5024   12.1519 O   0  0  0  0  0  0  0  0  0  0  0  0
   -6.8911   -4.9845   11.8798 O   0  5  0  0  0  0  0  0  0  0  0  0
   -6.3931   -6.2101    6.8647 N   0  0  0  0  0  0  0  0  0  0  0  0
   -4.8144   -6.0606   11.0887 O   0  0  0  0  0  0  0  0  0  0  0  0
   -6.0042   -6.9882   13.0758 O   0  0  0  0  0  0  0  0  0  0  0  0
   -5.4640   -7.1990    6.7533 C   0  0  1  0  0  0  0  0  0  0  0  0
   -4.1217   -6.7600    7.2222 C   0  0  1  0  0  0  0  0  0  0  0  0
   -2.7699   -7.4155    7.3216 C   0  0  0  0  0  0  0  0  0  0  0  0
   -2.1877   -7.1265    8.6963 C   0  0  0  0  0  0  0  0  0  0  0  0
   -3.1857   -7.4100    9.6694 O   0  0  0  0  0  0  0  0  0  0  0  0
  1 11  1  0  0  0  0
  3 13  1  6  0  0  0
  3 17  2  0  0  0  0
  3 20  1  0  0  0  0
  3 26  1  0  0  0  0
  4 14  1  1  0  0  0
  4 18  1  0  0  0  0
  4 21  2  0  0  0  0
  4 20  1  0  0  0  0
  5 19  1  0  0  0  0
  5  7  1  0  0  0  0
  6  7  2  0  0  0  0
  6 12  1  0  0  0  0
  7  8  1  0  0  0  0
  8  9  1  0  0  0  0
  8 10  2  0  0  0  0
 10 11  1  0  0  0  0
 11 12  2  0  0  0  0
 15 23  1  0  0  0  0
 15 16  1  0  0  0  0
 16 19  1  0  0  0  0
 19 22  1  0  0  0  0
 22  2  1  1  0  0  0
 22 23  1  0  0  0  0
 23 24  1  6  0  0  0
 24 25  1  0  0  0  0
 25 26  1  0  0  0  0
M  CHG  2  13  -1  18  -1
M  END
>  <CHROM.1>
-91.26836409,-57.13976842,136.03344014,50.50387081,48.14972923,48.34464815
-147.08038007,12.52760239,-5.86972917,-6.21708994,9.56433942,2.87465349,0.13982744
-1.72141368

>  <Name>
ligand

>  <RI>
0

>  <Rbt.Current_Directory>
/home/itssahil/PROJECTS/Mol_Feturizer/New_Systems/rnas/2GDI

>  <Rbt.Executable>
rbdock ($Id: //depot/dev/client3/rdock/2013.1/src/exe/rbdock.cxx#4 $)

>  <Rbt.Library>
libRbt.so (2013.1, Build901 2013/11/27)

>  <Rbt.Parameter_File>
/export/apps/rDock/src/rDock_2013.1_src/data/scripts/dock_solv.prm

>  <Rbt.Receptor>
prm/blind_docking_20.prm

>  <SCORE>
-2.36325

>  <SCORE.INTER>
-8.2611

>  <SCORE.INTER.CONST>
1

>  <SCORE.INTER.POLAR>
0

>  <SCORE.INTER.ROT>
8

>  <SCORE.INTER.SOLV>
17.863

>  <SCORE.INTER.VDW>
-20.3951

>  <SCORE.INTER.norm>
-0.317735

>  <SCORE.INTRA>
5.89785

>  <SCORE.INTRA.DIHEDRAL>
5.01165

>  <SCORE.INTRA.DIHEDRAL.0>
8.13976

>  <SCORE.INTRA.POLAR>
0

>  <SCORE.INTRA.POLAR.0>
0

>  <SCORE.INTRA.REPUL>
0.108643

>  <SCORE.INTRA.REPUL.0>
0

>  <SCORE.INTRA.SOLV>
7.64255

>  <SCORE.INTRA.SOLV.lig_0>
-82.9561

>  <SCORE.INTRA.VDW>
-0.97246

>  <SCORE.INTRA.VDW.0>
-3.29171

>  <SCORE.INTRA.norm>
0.22684

>  <SCORE.RESTR>
0

>  <SCORE.RESTR.CAVITY>
0

>  <SCORE.RESTR.norm>
0

>  <SCORE.SYSTEM>
0

>  <SCORE.SYSTEM.CONST>
0

>  <SCORE.SYSTEM.DIHEDRAL>
0

>  <SCORE.SYSTEM.SOLV>
0

>  <SCORE.SYSTEM.norm>
0

>  <SCORE.heavy>
26

>  <SCORE.norm>
-0.0908943

>  <RMSD>
18.077

$$$$
ligand
 OpenBabel11021811433D
libRbt.so/2013.1/901 2013/11/27
 26 27  0  0  0  0  0  0  0  0999 V2000
  -34.5337   -8.5272  -14.4696 C   0  0  0  0  0  0  0  0  0  0  0  0
  -34.9136  -11.0047   -6.7638 C   0  0  0  0  0  0  0  0  0  0  0  0
  -30.6181  -15.8267   -5.4631 P   0  0  1  0  0  0  0  0  0  0  0  0
  -29.0678  -17.9986   -6.6199 P   0  0  1  0  0  0  0  0  0  0  0  0
  -35.4723  -11.5016   -9.6420 C   0  0  0  0  0  0  0  0  0  0  0  0
  -34.5128  -11.2751  -11.9697 C   0  0  0  0  0  0  0  0  0  0  0  0
  -35.2163  -10.7102  -10.9134 C   0  0  0  0  0  0  0  0  0  0  0  0
  -35.6915   -9.4159  -11.0475 C   0  0  0  0  0  0  0  0  0  0  0  0
  -36.3819   -8.8224  -10.0438 N   0  0  0  0  0  0  0  0  0  0  0  0
  -35.4637   -8.7363  -12.1924 N   0  0  0  0  0  0  0  0  0  0  0  0
  -34.7753   -9.3067  -13.2053 C   0  0  0  0  0  0  0  0  0  0  0  0
  -34.3021  -10.5717  -13.0910 N   0  0  0  0  0  0  0  0  0  0  0  0
  -31.8024  -16.7041   -5.1530 O   0  5  0  0  0  0  0  0  0  0  0  0
  -30.0509  -18.9419   -5.9977 O   0  0  0  0  0  0  0  0  0  0  0  0
  -31.8725  -12.8850   -8.6854 S   0  0  0  0  0  0  0  0  0  0  0  0
  -33.2239  -12.5423   -9.7197 C   0  0  0  0  0  0  0  0  0  0  0  0
  -29.7440  -15.4165   -4.3131 O   0  0  0  0  0  0  0  0  0  0  0  0
  -28.8806  -18.3563   -8.0566 O   0  5  0  0  0  0  0  0  0  0  0  0
  -34.2114  -11.9128   -9.0246 N   0  0  0  0  0  0  0  0  0  0  0  0
  -29.7604  -16.5328   -6.6432 O   0  0  0  0  0  0  0  0  0  0  0  0
  -27.7652  -17.8260   -5.8872 O   0  0  0  0  0  0  0  0  0  0  0  0
  -33.9571  -11.6847   -7.7067 C   0  0  1  0  0  0  0  0  0  0  0  0
  -32.6096  -12.1720   -7.3051 C   0  0  1  0  0  0  0  0  0  0  0  0
  -31.8304  -12.1845   -6.0168 C   0  0  0  0  0  0  0  0  0  0  0  0
  -31.9602  -13.5601   -5.3818 C   0  0  0  0  0  0  0  0  0  0  0  0
  -31.1671  -14.4719   -6.1320 O   0  0  0  0  0  0  0  0  0  0  0  0
  1 11  1  0  0  0  0
  3 13  1  1  0  0  0
  3 17  2  0  0  0  0
  3 20  1  0  0  0  0
  3 26  1  0  0  0  0
  4 14  1  1  0  0  0
  4 18  1  0  0  0  0
  4 21  2  0  0  0  0
  4 20  1  0  0  0  0
  5 19  1  0  0  0  0
  5  7  1  0  0  0  0
  6  7  2  0  0  0  0
  6 12  1  0  0  0  0
  7  8  1  0  0  0  0
  8  9  1  0  0  0  0
  8 10  2  0  0  0  0
 10 11  1  0  0  0  0
 11 12  2  0  0  0  0
 15 23  1  0  0  0  0
 15 16  1  0  0  0  0
 16 19  1  0  0  0  0
 19 22  1  0  0  0  0
 22  2  1  6  0  0  0
 22 23  1  0  0  0  0
 23 24  1  1  0  0  0
 24 25  1  0  0  0  0
 25 26  1  0  0  0  0
M  CHG  2  13  -1  18  -1
M  END
>  <CHROM.1>
-59.34427725,-50.60443113,59.31517179,42.87374519,-79.62804801,73.37627798
156.26322339,66.11281233,-32.28168166,-13.52237941,-8.19207607,-2.51961558
-0.90126458,1.65855160

>  <Name>
ligand

>  <RI>
0

>  <Rbt.Current_Directory>
/home/itssahil/PROJECTS/Mol_Feturizer/New_Systems/rnas/2GDI

>  <Rbt.Executable>
rbdock ($Id: //depot/dev/client3/rdock/2013.1/src/exe/rbdock.cxx#4 $)

>  <Rbt.Library>
libRbt.so (2013.1, Build901 2013/11/27)

>  <Rbt.Parameter_File>
/export/apps/rDock/src/rDock_2013.1_src/data/scripts/dock_solv.prm

>  <Rbt.Receptor>
prm/blind_docking_60.prm

>  <SCORE>
-14.889

>  <SCORE.INTER>
-15.7743

>  <SCORE.INTER.CONST>
1

>  <SCORE.INTER.POLAR>
0

>  <SCORE.INTER.ROT>
8

>  <SCORE.INTER.SOLV>
19.1392

>  <SCORE.INTER.VDW>
-25.8293

>  <SCORE.INTER.norm>
-0.606705

>  <SCORE.INTRA>
0.721615

>  <SCORE.INTRA.DIHEDRAL>
0.600564

>  <SCORE.INTRA.DIHEDRAL.0>
8.13976

>  <SCORE.INTRA.POLAR>
0

>  <SCORE.INTRA.POLAR.0>
0

>  <SCORE.INTRA.REPUL>
0

>  <SCORE.INTRA.REPUL.0>
0

>  <SCORE.INTRA.SOLV>
0.774448

>  <SCORE.INTRA.SOLV.lig_0>
-82.9561

>  <SCORE.INTRA.VDW>
0.0341089

>  <SCORE.INTRA.VDW.0>
-3.29171

>  <SCORE.INTRA.norm>
0.0277544

>  <SCORE.RESTR>
0.163676

>  <SCORE.RESTR.CAVITY>
0.163676

>  <SCORE.RESTR.norm>
0.00629522

>  <SCORE.SYSTEM>
0

>  <SCORE.SYSTEM.CONST>
0

>  <SCORE.SYSTEM.DIHEDRAL>
0

>  <SCORE.SYSTEM.SOLV>
0

>  <SCORE.SYSTEM.norm>
0

>  <SCORE.heavy>
26

>  <SCORE.norm>
-0.572655

>  <RMSD>
18.081

$$$$
ligand
 OpenBabel11021811433D
libRbt.so/2013.1/901 2013/11/27
 26 27  0  0  0  0  0  0  0  0999 V2000
  -10.6819   -6.1399    9.4203 C   0  0  0  0  0  0  0  0  0  0  0  0
   -4.8263   -4.7255   10.0232 C   0  0  0  0  0  0  0  0  0  0  0  0
   -4.5091   -6.2419    6.7881 P   0  0  1  0  0  0  0  0  0  0  0  0
   -7.3532   -6.6709    7.2194 P   0  0  1  0  0  0  0  0  0  0  0  0
   -6.0647   -5.1424   12.6945 C   0  0  0  0  0  0  0  0  0  0  0  0
   -7.8274   -4.4007   11.0413 C   0  0  0  0  0  0  0  0  0  0  0  0
   -7.2915   -5.4050   11.8375 C   0  0  0  0  0  0  0  0  0  0  0  0
   -7.8895   -6.6545   11.8242 C   0  0  0  0  0  0  0  0  0  0  0  0
   -7.4032   -7.6650   12.5849 N   0  0  0  0  0  0  0  0  0  0  0  0
   -8.9711   -6.8688   11.0438 N   0  0  0  0  0  0  0  0  0  0  0  0
   -9.4751   -5.8755   10.2793 C   0  0  0  0  0  0  0  0  0  0  0  0
   -8.9034   -4.6465   10.2808 N   0  0  0  0  0  0  0  0  0  0  0  0
   -3.4998   -6.8160    5.8288 O   0  5  0  0  0  0  0  0  0  0  0  0
   -8.2499   -7.7858    6.7761 O   0  0  0  0  0  0  0  0  0  0  0  0
   -3.0616   -7.6891   12.1632 S   0  0  0  0  0  0  0  0  0  0  0  0
   -4.3795   -6.9338   13.0033 C   0  0  0  0  0  0  0  0  0  0  0  0
   -4.5194   -4.7511    6.9676 O   0  0  0  0  0  0  0  0  0  0  0  0
   -6.9579   -6.8902    8.6417 O   0  5  0  0  0  0  0  0  0  0  0  0
   -4.9327   -5.9504   12.2407 N   0  0  0  0  0  0  0  0  0  0  0  0
   -5.9730   -6.8046    6.3791 O   0  0  0  0  0  0  0  0  0  0  0  0
   -7.8575   -5.2771    6.9623 O   0  0  0  0  0  0  0  0  0  0  0  0
   -4.3667   -5.7583   11.0176 C   0  0  1  0  0  0  0  0  0  0  0  0
   -3.2451   -6.7034   10.7662 C   0  0  1  0  0  0  0  0  0  0  0  0
   -2.2930   -6.9342    9.6228 C   0  0  0  0  0  0  0  0  0  0  0  0
   -3.0452   -7.6192    8.4926 C   0  0  0  0  0  0  0  0  0  0  0  0
   -4.2331   -6.8796    8.2378 O   0  0  0  0  0  0  0  0  0  0  0  0
  1 11  1  0  0  0  0
  3 13  1  6  0  0  0
  3 17  2  0  0  0  0
  3 20  1  0  0  0  0
  3 26  1  0  0  0  0
  4 14  1  6  0  0  0
  4 18  1  0  0  0  0
  4 21  2  0  0  0  0
  4 20  1  0  0  0  0
  5 19  1  0  0  0  0
  5  7  1  0  0  0  0
  6  7  2  0  0  0  0
  6 12  1  0  0  0  0
  7  8  1  0  0  0  0
  8  9  1  0  0  0  0
  8 10  2  0  0  0  0
 10 11  1  0  0  0  0
 11 12  2  0  0  0  0
 15 23  1  0  0  0  0
 15 16  1  0  0  0  0
 16 19  1  0  0  0  0
 19 22  1  0  0  0  0
 22  2  1  6  0  0  0
 22 23  1  0  0  0  0
 23 24  1  1  0  0  0
 24 25  1  0  0  0  0
 25 26  1  0  0  0  0
M  CHG  2  13  -1  18  -1
M  END
>  <CHROM.1>
169.95884194,-114.60648738,-114.95605265,-156.37753573,107.33454733,50.54712467
120.70610250,11.48808611,-5.92133463,-6.36588339,9.44273463,1.88087680,0.13990004
-1.57738827

>  <Name>
ligand

>  <RI>
0

>  <Rbt.Current_Directory>
/home/itssahil/PROJECTS/Mol_Feturizer/New_Systems/rnas/2GDI

>  <Rbt.Executable>
rbdock ($Id: //depot/dev/client3/rdock/2013.1/src/exe/rbdock.cxx#4 $)

>  <Rbt.Library>
libRbt.so (2013.1, Build901 2013/11/27)

>  <Rbt.Parameter_File>
/export/apps/rDock/src/rDock_2013.1_src/data/scripts/dock_solv.prm

>  <Rbt.Receptor>
prm/blind_docking_20.prm

>  <SCORE>
-3.15723

>  <SCORE.INTER>
-9.46471

>  <SCORE.INTER.CONST>
1

>  <SCORE.INTER.POLAR>
0

>  <SCORE.INTER.ROT>
8

>  <SCORE.INTER.SOLV>
10.7846

>  <SCORE.INTER.VDW>
-18.838

>  <SCORE.INTER.norm>
-0.364027

>  <SCORE.INTRA>
6.30748

>  <SCORE.INTRA.DIHEDRAL>
7.0692

>  <SCORE.INTRA.DIHEDRAL.0>
8.13976

>  <SCORE.INTRA.POLAR>
0

>  <SCORE.INTRA.POLAR.0>
0

>  <SCORE.INTRA.REPUL>
0

>  <SCORE.INTRA.REPUL.0>
0

>  <SCORE.INTRA.SOLV>
9.49374

>  <SCORE.INTRA.SOLV.lig_0>
-82.9561

>  <SCORE.INTRA.VDW>
-1.97398

>  <SCORE.INTRA.VDW.0>
-3.29171

>  <SCORE.INTRA.norm>
0.242596

>  <SCORE.RESTR>
0

>  <SCORE.RESTR.CAVITY>
0

>  <SCORE.RESTR.norm>
0

>  <SCORE.SYSTEM>
0

>  <SCORE.SYSTEM.CONST>
0

>  <SCORE.SYSTEM.DIHEDRAL>
0

>  <SCORE.SYSTEM.SOLV>
0

>  <SCORE.SYSTEM.norm>
0

>  <SCORE.heavy>
26

>  <SCORE.norm>
-0.121432

>  <RMSD>
18.109

$$$$
ligand
 OpenBabel11021811433D
libRbt.so/2013.1/901 2013/11/27
 26 27  0  0  0  0  0  0  0  0999 V2000
  -10.0413   -9.0283   12.9960 C   0  0  0  0  0  0  0  0  0  0  0  0
   -6.4730   -3.3759    8.1617 C   0  0  0  0  0  0  0  0  0  0  0  0
   -2.3062   -8.0234    7.3513 P   0  0  1  0  0  0  0  0  0  0  0  0
   -3.1840   -7.0018    9.9290 P   0  0  1  0  0  0  0  0  0  0  0  0
   -8.7710   -5.0342    9.0633 C   0  0  0  0  0  0  0  0  0  0  0  0
  -10.2478   -6.8697    9.9797 C   0  0  0  0  0  0  0  0  0  0  0  0
   -9.1106   -6.0825   10.1092 C   0  0  0  0  0  0  0  0  0  0  0  0
   -8.2853   -6.2815   11.2038 C   0  0  0  0  0  0  0  0  0  0  0  0
   -7.1657   -5.5371   11.3735 N   0  0  0  0  0  0  0  0  0  0  0  0
   -8.5999   -7.2288   12.1138 N   0  0  0  0  0  0  0  0  0  0  0  0
   -9.7125   -7.9809   11.9669 C   0  0  0  0  0  0  0  0  0  0  0  0
  -10.5321   -7.7991   10.9026 N   0  0  0  0  0  0  0  0  0  0  0  0
   -1.0761   -7.7448    6.5281 O   0  5  0  0  0  0  0  0  0  0  0  0
   -2.6783   -7.4198   11.2755 O   0  0  0  0  0  0  0  0  0  0  0  0
   -6.5192   -7.0838    6.5107 S   0  0  0  0  0  0  0  0  0  0  0  0
   -7.8461   -6.8037    7.5942 C   0  0  0  0  0  0  0  0  0  0  0  0
   -2.8031   -9.4399    7.3907 O   0  0  0  0  0  0  0  0  0  0  0  0
   -3.2303   -5.5118    9.8590 O   0  5  0  0  0  0  0  0  0  0  0  0
   -7.7805   -5.5478    8.1170 N   0  0  0  0  0  0  0  0  0  0  0  0
   -2.0621   -7.4344    8.8414 O   0  0  0  0  0  0  0  0  0  0  0  0
   -4.4655   -7.6471    9.4764 O   0  0  0  0  0  0  0  0  0  0  0  0
   -6.7290   -4.7875    7.7053 C   0  0  1  0  0  0  0  0  0  0  0  0
   -5.8644   -5.5093    6.7326 C   0  0  1  0  0  0  0  0  0  0  0  0
   -4.6078   -5.1664    5.9774 C   0  0  0  0  0  0  0  0  0  0  0  0
   -3.4135   -5.7098    6.7460 C   0  0  0  0  0  0  0  0  0  0  0  0
   -3.5069   -7.1289    6.7661 O   0  0  0  0  0  0  0  0  0  0  0  0
  1 11  1  0  0  0  0
  3 13  1  6  0  0  0
  3 17  2  0  0  0  0
  3 20  1  0  0  0  0
  3 26  1  0  0  0  0
  4 14  1  1  0  0  0
  4 18  1  0  0  0  0
  4 21  2  0  0  0  0
  4 20  1  0  0  0  0
  5 19  1  0  0  0  0
  5  7  1  0  0  0  0
  6  7  2  0  0  0  0
  6 12  1  0  0  0  0
  7  8  1  0  0  0  0
  8  9  1  0  0  0  0
  8 10  2  0  0  0  0
 10 11  1  0  0  0  0
 11 12  2  0  0  0  0
 15 23  1  0  0  0  0
 15 16  1  0  0  0  0
 16 19  1  0  0  0  0
 19 22  1  0  0  0  0
 22  2  1  6  0  0  0
 22 23  1  0  0  0  0
 23 24  1  1  0  0  0
 24 25  1  0  0  0  0
 25 26  1  0  0  0  0
M  CHG  2  13  -1  18  -1
M  END
>  <CHROM.1>
156.77303680,43.20352496,-98.16548567,141.89895043,-82.41273834,64.38041831
172.70118514,-60.43437488,-5.62221493,-6.78382221,8.86878056,-2.76194886
0.25478609,-1.12163230

>  <Name>
ligand

>  <RI>
0

>  <Rbt.Current_Directory>
/home/itssahil/PROJECTS/Mol_Feturizer/New_Systems/rnas/2GDI

>  <Rbt.Executable>
rbdock ($Id: //depot/dev/client3/rdock/2013.1/src/exe/rbdock.cxx#4 $)

>  <Rbt.Library>
libRbt.so (2013.1, Build901 2013/11/27)

>  <Rbt.Parameter_File>
/export/apps/rDock/src/rDock_2013.1_src/data/scripts/dock_solv.prm

>  <Rbt.Receptor>
prm/blind_docking_20.prm

>  <SCORE>
-8.69424

>  <SCORE.INTER>
-9.54734

>  <SCORE.INTER.CONST>
1

>  <SCORE.INTER.POLAR>
0

>  <SCORE.INTER.ROT>
8

>  <SCORE.INTER.SOLV>
15.6749

>  <SCORE.INTER.VDW>
-20.5232

>  <SCORE.INTER.norm>
-0.367205

>  <SCORE.INTRA>
0.853093

>  <SCORE.INTRA.DIHEDRAL>
-0.531674

>  <SCORE.INTRA.DIHEDRAL.0>
8.13976

>  <SCORE.INTRA.POLAR>
0

>  <SCORE.INTRA.POLAR.0>
0

>  <SCORE.INTRA.REPUL>
0

>  <SCORE.INTRA.REPUL.0>
0

>  <SCORE.INTRA.SOLV>
6.01805

>  <SCORE.INTRA.SOLV.lig_0>
-82.9561

>  <SCORE.INTRA.VDW>
-1.89009

>  <SCORE.INTRA.VDW.0>
-3.29171

>  <SCORE.INTRA.norm>
0.0328113

>  <SCORE.RESTR>
0

>  <SCORE.RESTR.CAVITY>
0

>  <SCORE.RESTR.norm>
0

>  <SCORE.SYSTEM>
0

>  <SCORE.SYSTEM.CONST>
0

>  <SCORE.SYSTEM.DIHEDRAL>
0

>  <SCORE.SYSTEM.SOLV>
0

>  <SCORE.SYSTEM.norm>
0

>  <SCORE.heavy>
26

>  <SCORE.norm>
-0.334394

>  <RMSD>
18.153

$$$$
ligand
 OpenBabel11021811433D
libRbt.so/2013.1/901 2013/11/27
 26 27  0  0  0  0  0  0  0  0999 V2000
   -9.8388   -8.5176   13.2086 C   0  0  0  0  0  0  0  0  0  0  0  0
   -7.3895   -3.3259    8.5394 C   0  0  0  0  0  0  0  0  0  0  0  0
   -3.7449   -4.9804   10.3187 P   0  0  1  0  0  0  0  0  0  0  0  0
   -5.9857   -5.6850   12.0338 P   0  0  1  0  0  0  0  0  0  0  0  0
   -9.2206   -5.6528    8.2645 C   0  0  0  0  0  0  0  0  0  0  0  0
   -8.5100   -7.4318    9.9139 C   0  0  0  0  0  0  0  0  0  0  0  0
   -9.3917   -6.4159    9.5671 C   0  0  0  0  0  0  0  0  0  0  0  0
  -10.4219   -6.1033   10.4388 C   0  0  0  0  0  0  0  0  0  0  0  0
  -11.3074   -5.1209   10.1433 N   0  0  0  0  0  0  0  0  0  0  0  0
  -10.5463   -6.7860   11.5978 N   0  0  0  0  0  0  0  0  0  0  0  0
   -9.6770   -7.7712   11.9121 C   0  0  0  0  0  0  0  0  0  0  0  0
   -8.6638   -8.0912   11.0706 N   0  0  0  0  0  0  0  0  0  0  0  0
   -2.4042   -4.3402   10.5659 O   0  5  0  0  0  0  0  0  0  0  0  0
   -6.7714   -5.3485   10.8037 O   0  0  0  0  0  0  0  0  0  0  0  0
   -5.6338   -6.5516    6.8105 S   0  0  0  0  0  0  0  0  0  0  0  0
   -7.2952   -6.8246    7.2329 C   0  0  0  0  0  0  0  0  0  0  0  0
   -3.7748   -6.2040    9.4488 O   0  0  0  0  0  0  0  0  0  0  0  0
   -5.9396   -7.1672   12.2009 O   0  5  0  0  0  0  0  0  0  0  0  0
   -7.8323   -5.7127    7.8072 N   0  0  0  0  0  0  0  0  0  0  0  0
   -4.4491   -5.2502   11.7534 O   0  0  0  0  0  0  0  0  0  0  0  0
   -6.3924   -4.9684   13.2925 O   0  0  0  0  0  0  0  0  0  0  0  0
   -6.9951   -4.6466    7.9337 C   0  0  1  0  0  0  0  0  0  0  0  0
   -5.6411   -4.9311    7.3860 C   0  0  1  0  0  0  0  0  0  0  0  0
   -4.3623   -4.1455    7.2665 C   0  0  0  0  0  0  0  0  0  0  0  0
   -4.2611   -3.1957    8.4496 C   0  0  0  0  0  0  0  0  0  0  0  0
   -4.6924   -3.8896    9.6139 O   0  0  0  0  0  0  0  0  0  0  0  0
  1 11  1  0  0  0  0
  3 13  1  1  0  0  0
  3 17  2  0  0  0  0
  3 20  1  0  0  0  0
  3 26  1  0  0  0  0
  4 14  1  6  0  0  0
  4 18  1  0  0  0  0
  4 21  2  0  0  0  0
  4 20  1  0  0  0  0
  5 19  1  0  0  0  0
  5  7  1  0  0  0  0
  6  7  2  0  0  0  0
  6 12  1  0  0  0  0
  7  8  1  0  0  0  0
  8  9  1  0  0  0  0
  8 10  2  0  0  0  0
 10 11  1  0  0  0  0
 11 12  2  0  0  0  0
 15 23  1  0  0  0  0
 15 16  1  0  0  0  0
 16 19  1  0  0  0  0
 19 22  1  0  0  0  0
 22  2  1  6  0  0  0
 22 23  1  0  0  0  0
 23 24  1  1  0  0  0
 24 25  1  0  0  0  0
 25 26  1  0  0  0  0
M  CHG  2  13  -1  18  -1
M  END
>  <CHROM.1>
168.83881567,75.63281682,-24.00259741,-19.03581548,-146.50103376,41.19750325
75.60030925,52.26152423,-6.63484146,-5.70340368,9.94392392,-2.73637349,-0.30890910
-1.37746357

>  <Name>
ligand

>  <RI>
0

>  <Rbt.Current_Directory>
/home/itssahil/PROJECTS/Mol_Feturizer/New_Systems/rnas/2GDI

>  <Rbt.Executable>
rbdock ($Id: //depot/dev/client3/rdock/2013.1/src/exe/rbdock.cxx#4 $)

>  <Rbt.Library>
libRbt.so (2013.1, Build901 2013/11/27)

>  <Rbt.Parameter_File>
/export/apps/rDock/src/rDock_2013.1_src/data/scripts/dock_solv.prm

>  <Rbt.Receptor>
prm/blind_docking_20.prm

>  <SCORE>
-8.12215

>  <SCORE.INTER>
-8.0829

>  <SCORE.INTER.CONST>
1

>  <SCORE.INTER.POLAR>
0

>  <SCORE.INTER.ROT>
8

>  <SCORE.INTER.SOLV>
16.4187

>  <SCORE.INTER.VDW>
-19.7948

>  <SCORE.INTER.norm>
-0.310881

>  <SCORE.INTRA>
-0.0392513

>  <SCORE.INTRA.DIHEDRAL>
1.1533

>  <SCORE.INTRA.DIHEDRAL.0>
8.13976

>  <SCORE.INTRA.POLAR>
0

>  <SCORE.INTRA.POLAR.0>
0

>  <SCORE.INTRA.REPUL>
0

>  <SCORE.INTRA.REPUL.0>
0

>  <SCORE.INTRA.SOLV>
2.32616

>  <SCORE.INTRA.SOLV.lig_0>
-82.9561

>  <SCORE.INTRA.VDW>
-1.77898

>  <SCORE.INTRA.VDW.0>
-3.29171

>  <SCORE.INTRA.norm>
-0.00150967

>  <SCORE.RESTR>
0

>  <SCORE.RESTR.CAVITY>
0

>  <SCORE.RESTR.norm>
0

>  <SCORE.SYSTEM>
0

>  <SCORE.SYSTEM.CONST>
0

>  <SCORE.SYSTEM.DIHEDRAL>
0

>  <SCORE.SYSTEM.SOLV>
0

>  <SCORE.SYSTEM.norm>
0

>  <SCORE.heavy>
26

>  <SCORE.norm>
-0.31239

>  <RMSD>
18.162

$$$$
ligand
 OpenBabel11021811433D
libRbt.so/2013.1/901 2013/11/27
 26 27  0  0  0  0  0  0  0  0999 V2000
   -3.2219   -2.4838    5.3567 C   0  0  0  0  0  0  0  0  0  0  0  0
   -9.5664   -4.9401    8.1266 C   0  0  0  0  0  0  0  0  0  0  0  0
   -5.7085   -6.9852   10.0366 P   0  0  1  0  0  0  0  0  0  0  0  0
   -3.8933   -6.5407   12.2651 P   0  0  1  0  0  0  0  0  0  0  0  0
   -8.2038   -2.2984    8.2166 C   0  0  0  0  0  0  0  0  0  0  0  0
   -6.1584   -3.5255    7.3795 C   0  0  0  0  0  0  0  0  0  0  0  0
   -6.8820   -2.3431    7.4689 C   0  0  0  0  0  0  0  0  0  0  0  0
   -6.3812   -1.2088    6.8513 C   0  0  0  0  0  0  0  0  0  0  0  0
   -7.0508   -0.0322    6.9121 N   0  0  0  0  0  0  0  0  0  0  0  0
   -5.2107   -1.2755    6.1804 N   0  0  0  0  0  0  0  0  0  0  0  0
   -4.5243   -2.4369    6.1089 C   0  0  0  0  0  0  0  0  0  0  0  0
   -4.9988   -3.5563    6.7081 N   0  0  0  0  0  0  0  0  0  0  0  0
   -5.7770   -5.5049    9.7676 O   0  5  0  0  0  0  0  0  0  0  0  0
   -3.6353   -5.1060   11.9207 O   0  0  0  0  0  0  0  0  0  0  0  0
   -7.7215   -4.2081   11.6674 S   0  0  0  0  0  0  0  0  0  0  0  0
   -7.5464   -2.9114   10.5268 C   0  0  0  0  0  0  0  0  0  0  0  0
   -5.8167   -7.9063    8.8556 O   0  0  0  0  0  0  0  0  0  0  0  0
   -5.0690   -6.6258   13.1803 O   0  5  0  0  0  0  0  0  0  0  0  0
   -8.1833   -3.2100    9.3606 N   0  0  0  0  0  0  0  0  0  0  0  0
   -4.3716   -7.2807   10.9040 O   0  0  0  0  0  0  0  0  0  0  0  0
   -2.7084   -7.3225   12.7632 O   0  0  0  0  0  0  0  0  0  0  0  0
   -8.8075   -4.4192    9.3179 C   0  0  1  0  0  0  0  0  0  0  0  0
   -8.6681   -5.1656   10.5977 C   0  0  1  0  0  0  0  0  0  0  0  0
   -9.1379   -6.5064   11.0964 C   0  0  0  0  0  0  0  0  0  0  0  0
   -8.2273   -7.5840   10.5290 C   0  0  0  0  0  0  0  0  0  0  0  0
   -6.9142   -7.3645   11.0299 O   0  0  0  0  0  0  0  0  0  0  0  0
  1 11  1  0  0  0  0
  3 13  1  6  0  0  0
  3 17  2  0  0  0  0
  3 20  1  0  0  0  0
  3 26  1  0  0  0  0
  4 14  1  6  0  0  0
  4 18  1  0  0  0  0
  4 21  2  0  0  0  0
  4 20  1  0  0  0  0
  5 19  1  0  0  0  0
  5  7  1  0  0  0  0
  6  7  2  0  0  0  0
  6 12  1  0  0  0  0
  7  8  1  0  0  0  0
  8  9  1  0  0  0  0
  8 10  2  0  0  0  0
 10 11  1  0  0  0  0
 11 12  2  0  0  0  0
 15 23  1  0  0  0  0
 15 16  1  0  0  0  0
 16 19  1  0  0  0  0
 19 22  1  0  0  0  0
 22  2  1  1  0  0  0
 22 23  1  0  0  0  0
 23 24  1  6  0  0  0
 24 25  1  0  0  0  0
 25 26  1  0  0  0  0
M  CHG  2  13  -1  18  -1
M  END
>  <CHROM.1>
50.85219467,77.51467391,33.85505706,-63.72569236,-100.21587061,62.97817957
-115.61362145,82.21824837,-6.19011067,-4.84526427,9.68047798,-1.72669130
-0.11826124,2.34174681

>  <Name>
ligand

>  <RI>
0

>  <Rbt.Current_Directory>
/home/itssahil/PROJECTS/Mol_Feturizer/New_Systems/rnas/2GDI

>  <Rbt.Executable>
rbdock ($Id: //depot/dev/client3/rdock/2013.1/src/exe/rbdock.cxx#4 $)

>  <Rbt.Library>
libRbt.so (2013.1, Build901 2013/11/27)

>  <Rbt.Parameter_File>
/export/apps/rDock/src/rDock_2013.1_src/data/scripts/dock_solv.prm

>  <Rbt.Receptor>
prm/blind_docking_100.prm

>  <SCORE>
-0.629154

>  <SCORE.INTER>
-1.59242

>  <SCORE.INTER.CONST>
1

>  <SCORE.INTER.POLAR>
0

>  <SCORE.INTER.ROT>
8

>  <SCORE.INTER.SOLV>
13.0269

>  <SCORE.INTER.VDW>
-14.3372

>  <SCORE.INTER.norm>
-0.0612471

>  <SCORE.INTRA>
0.96327

>  <SCORE.INTRA.DIHEDRAL>
4.25329

>  <SCORE.INTRA.DIHEDRAL.0>
8.13976

>  <SCORE.INTRA.POLAR>
0

>  <SCORE.INTRA.POLAR.0>
0

>  <SCORE.INTRA.REPUL>
0

>  <SCORE.INTRA.REPUL.0>
0

>  <SCORE.INTRA.SOLV>
3.18328

>  <SCORE.INTRA.SOLV.lig_0>
-82.9561

>  <SCORE.INTRA.VDW>
-2.75502

>  <SCORE.INTRA.VDW.0>
-3.29171

>  <SCORE.INTRA.norm>
0.0370489

>  <SCORE.RESTR>
0

>  <SCORE.RESTR.CAVITY>
0

>  <SCORE.RESTR.norm>
0

>  <SCORE.SYSTEM>
0

>  <SCORE.SYSTEM.CONST>
0

>  <SCORE.SYSTEM.DIHEDRAL>
0

>  <SCORE.SYSTEM.SOLV>
0

>  <SCORE.SYSTEM.norm>
0

>  <SCORE.heavy>
26

>  <SCORE.norm>
-0.0241982

>  <RMSD>
18.166

$$$$
ligand
 OpenBabel11021811433D
libRbt.so/2013.1/901 2013/11/27
 26 27  0  0  0  0  0  0  0  0999 V2000
   -1.3037   -6.3265    5.3901 C   0  0  0  0  0  0  0  0  0  0  0  0
   -7.0958   -4.2327   10.3265 C   0  0  0  0  0  0  0  0  0  0  0  0
   -5.8600   -7.1211   12.1517 P   0  0  1  0  0  0  0  0  0  0  0  0
   -3.1717   -6.4997   11.2321 P   0  0  1  0  0  0  0  0  0  0  0  0
   -6.0587   -3.9321    7.5558 C   0  0  0  0  0  0  0  0  0  0  0  0
   -4.4824   -5.8863    7.2615 C   0  0  0  0  0  0  0  0  0  0  0  0
   -4.7960   -4.5604    6.9908 C   0  0  0  0  0  0  0  0  0  0  0  0
   -3.9416   -3.8263    6.1845 C   0  0  0  0  0  0  0  0  0  0  0  0
   -4.2050   -2.5293    5.8935 N   0  0  0  0  0  0  0  0  0  0  0  0
   -2.8318   -4.4099    5.6820 N   0  0  0  0  0  0  0  0  0  0  0  0
   -2.5473   -5.7008    5.9610 C   0  0  0  0  0  0  0  0  0  0  0  0
   -3.3715   -6.4337    6.7490 N   0  0  0  0  0  0  0  0  0  0  0  0
   -5.5621   -8.3099   13.0273 O   0  5  0  0  0  0  0  0  0  0  0  0
   -3.2321   -5.0205   11.4597 O   0  0  0  0  0  0  0  0  0  0  0  0
   -8.6759   -6.9169    7.7236 S   0  0  0  0  0  0  0  0  0  0  0  0
   -7.5379   -5.8365    6.9815 C   0  0  0  0  0  0  0  0  0  0  0  0
   -6.0932   -5.8038   12.8336 O   0  0  0  0  0  0  0  0  0  0  0  0
   -2.7029   -7.1730   12.4787 O   0  5  0  0  0  0  0  0  0  0  0  0
   -7.0409   -4.9607    7.8984 N   0  0  0  0  0  0  0  0  0  0  0  0
   -4.6956   -7.0149   11.0293 O   0  0  0  0  0  0  0  0  0  0  0  0
   -2.4199   -6.9484   10.0087 O   0  0  0  0  0  0  0  0  0  0  0  0
   -7.5149   -5.0971    9.1673 C   0  0  1  0  0  0  0  0  0  0  0  0
   -8.4884   -6.2166    9.2830 C   0  0  1  0  0  0  0  0  0  0  0  0
   -9.3006   -6.7995   10.4088 C   0  0  0  0  0  0  0  0  0  0  0  0
   -8.4348   -6.8532   11.6577 C   0  0  0  0  0  0  0  0  0  0  0  0
   -7.1901   -7.4471   11.3097 O   0  0  0  0  0  0  0  0  0  0  0  0
  1 11  1  0  0  0  0
  3 13  1  1  0  0  0
  3 17  2  0  0  0  0
  3 20  1  0  0  0  0
  3 26  1  0  0  0  0
  4 14  1  1  0  0  0
  4 18  1  0  0  0  0
  4 21  2  0  0  0  0
  4 20  1  0  0  0  0
  5 19  1  0  0  0  0
  5  7  1  0  0  0  0
  6  7  2  0  0  0  0
  6 12  1  0  0  0  0
  7  8  1  0  0  0  0
  8  9  1  0  0  0  0
  8 10  2  0  0  0  0
 10 11  1  0  0  0  0
 11 12  2  0  0  0  0
 15 23  1  0  0  0  0
 15 16  1  0  0  0  0
 16 19  1  0  0  0  0
 19 22  1  0  0  0  0
 22  2  1  1  0  0  0
 22 23  1  0  0  0  0
 23 24  1  6  0  0  0
 24 25  1  0  0  0  0
 25 26  1  0  0  0  0
M  CHG  2  13  -1  18  -1
M  END
>  <CHROM.1>
-74.75420806,-59.11646861,-22.00289039,-70.79324839,140.08222467,-48.74412962
154.11511603,104.36349932,-5.36700148,-6.01353299,9.39096072,-1.12821672
0.01805037,1.91822889

>  <Name>
ligand

>  <RI>
0

>  <Rbt.Current_Directory>
/home/itssahil/PROJECTS/Mol_Feturizer/New_Systems/rnas/2GDI

>  <Rbt.Executable>
rbdock ($Id: //depot/dev/client3/rdock/2013.1/src/exe/rbdock.cxx#4 $)

>  <Rbt.Library>
libRbt.so (2013.1, Build901 2013/11/27)

>  <Rbt.Parameter_File>
/export/apps/rDock/src/rDock_2013.1_src/data/scripts/dock_solv.prm

>  <Rbt.Receptor>
prm/blind_docking_20.prm

>  <SCORE>
-5.90267

>  <SCORE.INTER>
-7.58578

>  <SCORE.INTER.CONST>
1

>  <SCORE.INTER.POLAR>
0

>  <SCORE.INTER.ROT>
8

>  <SCORE.INTER.SOLV>
16.5298

>  <SCORE.INTER.VDW>
-19.5004

>  <SCORE.INTER.norm>
-0.291761

>  <SCORE.INTRA>
1.68311

>  <SCORE.INTRA.DIHEDRAL>
2.10384

>  <SCORE.INTRA.DIHEDRAL.0>
8.13976

>  <SCORE.INTRA.POLAR>
0

>  <SCORE.INTRA.POLAR.0>
0

>  <SCORE.INTRA.REPUL>
0

>  <SCORE.INTRA.REPUL.0>
0

>  <SCORE.INTRA.SOLV>
2.40331

>  <SCORE.INTRA.SOLV.lig_0>
-82.9561

>  <SCORE.INTRA.VDW>
-0.570468

>  <SCORE.INTRA.VDW.0>
-3.29171

>  <SCORE.INTRA.norm>
0.064735

>  <SCORE.RESTR>
0

>  <SCORE.RESTR.CAVITY>
0

>  <SCORE.RESTR.norm>
0

>  <SCORE.SYSTEM>
0

>  <SCORE.SYSTEM.CONST>
0

>  <SCORE.SYSTEM.DIHEDRAL>
0

>  <SCORE.SYSTEM.SOLV>
0

>  <SCORE.SYSTEM.norm>
0

>  <SCORE.heavy>
26

>  <SCORE.norm>
-0.227026

>  <RMSD>
18.198

$$$$
ligand
 OpenBabel11021811433D
libRbt.so/2013.1/901 2013/11/27
 26 27  0  0  0  0  0  0  0  0999 V2000
  -37.6429  -16.0656  -12.1158 C   0  0  0  0  0  0  0  0  0  0  0  0
  -34.6966  -11.3284   -6.5571 C   0  0  0  0  0  0  0  0  0  0  0  0
  -30.1101  -15.3844   -5.7341 P   0  0  1  0  0  0  0  0  0  0  0  0
  -27.4522  -14.2129   -5.5853 P   0  0  1  0  0  0  0  0  0  0  0  0
  -35.2794  -11.5467   -9.4650 C   0  0  0  0  0  0  0  0  0  0  0  0
  -36.3368  -13.8427   -9.4413 C   0  0  0  0  0  0  0  0  0  0  0  0
  -35.8946  -12.7447  -10.1684 C   0  0  0  0  0  0  0  0  0  0  0  0
  -36.0380  -12.7580  -11.5461 C   0  0  0  0  0  0  0  0  0  0  0  0
  -35.6205  -11.7105  -12.2977 N   0  0  0  0  0  0  0  0  0  0  0  0
  -36.6005  -13.8282  -12.1486 N   0  0  0  0  0  0  0  0  0  0  0  0
  -37.0213  -14.8851  -11.4199 C   0  0  0  0  0  0  0  0  0  0  0  0
  -36.8880  -14.8897  -10.0711 N   0  0  0  0  0  0  0  0  0  0  0  0
  -30.2628  -15.0185   -7.1871 O   0  5  0  0  0  0  0  0  0  0  0  0
  -27.8190  -13.4988   -6.8498 O   0  0  0  0  0  0  0  0  0  0  0  0
  -31.5253  -12.6240   -8.7346 S   0  0  0  0  0  0  0  0  0  0  0  0
  -32.9345  -12.3156   -9.7000 C   0  0  0  0  0  0  0  0  0  0  0  0
  -30.8016  -16.6302   -5.2605 O   0  0  0  0  0  0  0  0  0  0  0  0
  -27.6679  -13.3023   -4.4227 O   0  5  0  0  0  0  0  0  0  0  0  0
  -33.9644  -11.8844   -8.9201 N   0  0  0  0  0  0  0  0  0  0  0  0
  -28.5282  -15.4086   -5.3820 O   0  0  0  0  0  0  0  0  0  0  0  0
  -26.0991  -14.8704   -5.5681 O   0  0  0  0  0  0  0  0  0  0  0  0
  -33.6991  -11.7841   -7.5886 C   0  0  1  0  0  0  0  0  0  0  0  0
  -32.2959  -12.1622   -7.2683 C   0  0  1  0  0  0  0  0  0  0  0  0
  -31.4838  -12.2377   -6.0027 C   0  0  0  0  0  0  0  0  0  0  0  0
  -31.8798  -13.4943   -5.2434 C   0  0  0  0  0  0  0  0  0  0  0  0
  -30.6909  -14.1709   -4.8540 O   0  0  0  0  0  0  0  0  0  0  0  0
  1 11  1  0  0  0  0
  3 13  1  6  0  0  0
  3 17  2  0  0  0  0
  3 20  1  0  0  0  0
  3 26  1  0  0  0  0
  4 14  1  6  0  0  0
  4 18  1  0  0  0  0
  4 21  2  0  0  0  0
  4 20  1  0  0  0  0
  5 19  1  0  0  0  0
  5  7  1  0  0  0  0
  6  7  2  0  0  0  0
  6 12  1  0  0  0  0
  7  8  1  0  0  0  0
  8  9  1  0  0  0  0
  8 10  2  0  0  0  0
 10 11  1  0  0  0  0
 11 12  2  0  0  0  0
 15 23  1  0  0  0  0
 15 16  1  0  0  0  0
 16 19  1  0  0  0  0
 19 22  1  0  0  0  0
 22  2  1  6  0  0  0
 22 23  1  0  0  0  0
 23 24  1  1  0  0  0
 24 25  1  0  0  0  0
 25 26  1  0  0  0  0
M  CHG  2  13  -1  18  -1
M  END
>  <CHROM.1>
55.82590373,59.48975034,70.24217784,-36.45599888,-101.85311330,132.22608795
-96.80565733,40.47547891,-32.11415336,-13.68105851,-7.76792888,3.04722164
-0.60453808,0.02553958

>  <Name>
ligand

>  <RI>
0

>  <Rbt.Current_Directory>
/home/itssahil/PROJECTS/Mol_Feturizer/New_Systems/rnas/2GDI

>  <Rbt.Executable>
rbdock ($Id: //depot/dev/client3/rdock/2013.1/src/exe/rbdock.cxx#4 $)

>  <Rbt.Library>
libRbt.so (2013.1, Build901 2013/11/27)

>  <Rbt.Parameter_File>
/export/apps/rDock/src/rDock_2013.1_src/data/scripts/dock_solv.prm

>  <Rbt.Receptor>
prm/blind_docking_100.prm

>  <SCORE>
-4.30936

>  <SCORE.INTER>
-7.90767

>  <SCORE.INTER.CONST>
1

>  <SCORE.INTER.POLAR>
0

>  <SCORE.INTER.ROT>
8

>  <SCORE.INTER.SOLV>
15.6386

>  <SCORE.INTER.VDW>
-19.418

>  <SCORE.INTER.norm>
-0.304141

>  <SCORE.INTRA>
3.34976

>  <SCORE.INTRA.DIHEDRAL>
7.81537

>  <SCORE.INTRA.DIHEDRAL.0>
8.13976

>  <SCORE.INTRA.POLAR>
0

>  <SCORE.INTRA.POLAR.0>
0

>  <SCORE.INTRA.REPUL>
0

>  <SCORE.INTRA.REPUL.0>
0

>  <SCORE.INTRA.SOLV>
1.42092

>  <SCORE.INTRA.SOLV.lig_0>
-82.9561

>  <SCORE.INTRA.VDW>
-1.26839

>  <SCORE.INTRA.VDW.0>
-3.29171

>  <SCORE.INTRA.norm>
0.128837

>  <SCORE.RESTR>
0.24855

>  <SCORE.RESTR.CAVITY>
0.24855

>  <SCORE.RESTR.norm>
0.00955963

>  <SCORE.SYSTEM>
0

>  <SCORE.SYSTEM.CONST>
0

>  <SCORE.SYSTEM.DIHEDRAL>
0

>  <SCORE.SYSTEM.SOLV>
0

>  <SCORE.SYSTEM.norm>
0

>  <SCORE.heavy>
26

>  <SCORE.norm>
-0.165745

>  <RMSD>
18.335

$$$$
ligand
 OpenBabel11021811433D
libRbt.so/2013.1/901 2013/11/27
 26 27  0  0  0  0  0  0  0  0999 V2000
   -9.7550   -5.6136    6.8402 C   0  0  0  0  0  0  0  0  0  0  0  0
   -7.4553   -7.5996   12.0231 C   0  0  0  0  0  0  0  0  0  0  0  0
   -3.6602   -6.3160    9.3142 P   0  0  1  0  0  0  0  0  0  0  0  0
   -4.8657   -6.4885    6.6730 P   0  0  1  0  0  0  0  0  0  0  0  0
   -9.0705   -5.1544   12.5282 C   0  0  0  0  0  0  0  0  0  0  0  0
   -8.1719   -5.1284   10.1656 C   0  0  0  0  0  0  0  0  0  0  0  0
   -9.2552   -5.2659   11.0243 C   0  0  0  0  0  0  0  0  0  0  0  0
  -10.5047   -5.5201   10.4829 C   0  0  0  0  0  0  0  0  0  0  0  0
  -11.5912   -5.6607   11.2804 N   0  0  0  0  0  0  0  0  0  0  0  0
  -10.6425   -5.6289    9.1436 N   0  0  0  0  0  0  0  0  0  0  0  0
   -9.5740   -5.4896    8.3288 C   0  0  0  0  0  0  0  0  0  0  0  0
   -8.3442   -5.2396    8.8411 N   0  0  0  0  0  0  0  0  0  0  0  0
   -2.3175   -6.9378    9.0331 O   0  5  0  0  0  0  0  0  0  0  0  0
   -5.0458   -5.0026    6.6186 O   0  0  0  0  0  0  0  0  0  0  0  0
   -5.3291   -4.6018   13.7463 S   0  0  0  0  0  0  0  0  0  0  0  0
   -6.9892   -4.1829   13.4604 C   0  0  0  0  0  0  0  0  0  0  0  0
   -3.7218   -4.8182    9.4011 O   0  0  0  0  0  0  0  0  0  0  0  0
   -3.5534   -6.8502    6.0612 O   0  5  0  0  0  0  0  0  0  0  0  0
   -7.6529   -5.2225   12.8829 N   0  0  0  0  0  0  0  0  0  0  0  0
   -4.7221   -6.8959    8.2357 O   0  0  0  0  0  0  0  0  0  0  0  0
   -6.0056   -7.3110    6.1369 O   0  0  0  0  0  0  0  0  0  0  0  0
   -6.9146   -6.3426   12.6510 C   0  0  1  0  0  0  0  0  0  0  0  0
   -5.5067   -6.1885   13.1075 C   0  0  1  0  0  0  0  0  0  0  0  0
   -4.2894   -7.0746   13.0992 C   0  0  0  0  0  0  0  0  0  0  0  0
   -3.4194   -6.6968   11.9108 C   0  0  0  0  0  0  0  0  0  0  0  0
   -4.1828   -6.8823   10.7250 O   0  0  0  0  0  0  0  0  0  0  0  0
  1 11  1  0  0  0  0
  3 13  1  6  0  0  0
  3 17  2  0  0  0  0
  3 20  1  0  0  0  0
  3 26  1  0  0  0  0
  4 14  1  6  0  0  0
  4 18  1  0  0  0  0
  4 21  2  0  0  0  0
  4 20  1  0  0  0  0
  5 19  1  0  0  0  0
  5  7  1  0  0  0  0
  6  7  2  0  0  0  0
  6 12  1  0  0  0  0
  7  8  1  0  0  0  0
  8  9  1  0  0  0  0
  8 10  2  0  0  0  0
 10 11  1  0  0  0  0
 11 12  2  0  0  0  0
 15 23  1  0  0  0  0
 15 16  1  0  0  0  0
 16 19  1  0  0  0  0
 19 22  1  0  0  0  0
 22  2  1  1  0  0  0
 22 23  1  0  0  0  0
 23 24  1  6  0  0  0
 24 25  1  0  0  0  0
 25 26  1  0  0  0  0
M  CHG  2  13  -1  18  -1
M  END
>  <CHROM.1>
-75.58980158,115.88916104,-13.60739262,-55.25586791,-79.99902681,-59.79920003
168.42776107,58.54760646,-6.26627264,-5.94350754,10.01119141,2.39220147,-0.13498398
1.46178010

>  <Name>
ligand

>  <RI>
0

>  <Rbt.Current_Directory>
/home/itssahil/PROJECTS/Mol_Feturizer/New_Systems/rnas/2GDI

>  <Rbt.Executable>
rbdock ($Id: //depot/dev/client3/rdock/2013.1/src/exe/rbdock.cxx#4 $)

>  <Rbt.Library>
libRbt.so (2013.1, Build901 2013/11/27)

>  <Rbt.Parameter_File>
/export/apps/rDock/src/rDock_2013.1_src/data/scripts/dock_solv.prm

>  <Rbt.Receptor>
prm/blind_docking_20.prm

>  <SCORE>
-4.83897

>  <SCORE.INTER>
-3.51823

>  <SCORE.INTER.CONST>
1

>  <SCORE.INTER.POLAR>
0

>  <SCORE.INTER.ROT>
8

>  <SCORE.INTER.SOLV>
15.2352

>  <SCORE.INTER.VDW>
-16.3572

>  <SCORE.INTER.norm>
-0.135316

>  <SCORE.INTRA>
-1.33571

>  <SCORE.INTRA.DIHEDRAL>
-2.26548

>  <SCORE.INTRA.DIHEDRAL.0>
8.13976

>  <SCORE.INTRA.POLAR>
0

>  <SCORE.INTRA.POLAR.0>
0

>  <SCORE.INTRA.REPUL>
0

>  <SCORE.INTRA.REPUL.0>
0

>  <SCORE.INTRA.SOLV>
0.86492

>  <SCORE.INTRA.SOLV.lig_0>
-82.9561

>  <SCORE.INTRA.VDW>
-0.635425

>  <SCORE.INTRA.VDW.0>
-3.29171

>  <SCORE.INTRA.norm>
-0.0513733

>  <SCORE.RESTR>
0.0149622

>  <SCORE.RESTR.CAVITY>
0.0149622

>  <SCORE.RESTR.norm>
0.00057547

>  <SCORE.SYSTEM>
0

>  <SCORE.SYSTEM.CONST>
0

>  <SCORE.SYSTEM.DIHEDRAL>
0

>  <SCORE.SYSTEM.SOLV>
0

>  <SCORE.SYSTEM.norm>
0

>  <SCORE.heavy>
26

>  <SCORE.norm>
-0.186114

>  <RMSD>
18.379

$$$$
ligand
 OpenBabel11021811433D
libRbt.so/2013.1/901 2013/11/27
 26 27  0  0  0  0  0  0  0  0999 V2000
   -7.3135   -0.5562    5.9678 C   0  0  0  0  0  0  0  0  0  0  0  0
   -3.9012   -7.7780    8.3939 C   0  0  0  0  0  0  0  0  0  0  0  0
   -7.2168   -6.7091   12.0483 P   0  0  1  0  0  0  0  0  0  0  0  0
   -7.7197   -3.8942   11.5174 P   0  0  1  0  0  0  0  0  0  0  0  0
   -3.9874   -5.1074    7.0888 C   0  0  0  0  0  0  0  0  0  0  0  0
   -6.0371   -3.6878    7.5053 C   0  0  0  0  0  0  0  0  0  0  0  0
   -4.8707   -3.9094    6.7841 C   0  0  0  0  0  0  0  0  0  0  0  0
   -4.5219   -3.0090    5.7909 C   0  0  0  0  0  0  0  0  0  0  0  0
   -3.3941   -3.1839    5.0601 N   0  0  0  0  0  0  0  0  0  0  0  0
   -5.3155   -1.9435    5.5469 N   0  0  0  0  0  0  0  0  0  0  0  0
   -6.4460   -1.7503    6.2607 C   0  0  0  0  0  0  0  0  0  0  0  0
   -6.8033   -2.6217    7.2356 N   0  0  0  0  0  0  0  0  0  0  0  0
   -7.7994   -7.6884   13.0332 O   0  5  0  0  0  0  0  0  0  0  0  0
   -7.5359   -2.7222   12.4318 O   0  0  0  0  0  0  0  0  0  0  0  0
   -3.4089   -4.7043   10.9990 S   0  0  0  0  0  0  0  0  0  0  0  0
   -3.6246   -4.1794    9.3585 C   0  0  0  0  0  0  0  0  0  0  0  0
   -7.4201   -6.9962   10.5884 O   0  0  0  0  0  0  0  0  0  0  0  0
   -6.5110   -4.0424   10.6546 O   0  5  0  0  0  0  0  0  0  0  0  0
   -3.7849   -5.2489    8.5307 N   0  0  0  0  0  0  0  0  0  0  0  0
   -7.7353   -5.2252   12.4431 O   0  0  0  0  0  0  0  0  0  0  0  0
   -9.0033   -3.9238   10.7333 O   0  0  0  0  0  0  0  0  0  0  0  0
   -3.7456   -6.4722    9.1268 C   0  0  1  0  0  0  0  0  0  0  0  0
   -3.5470   -6.3708   10.5981 C   0  0  1  0  0  0  0  0  0  0  0  0
   -3.4279   -7.3677   11.7202 C   0  0  0  0  0  0  0  0  0  0  0  0
   -4.8239   -7.8105   12.1292 C   0  0  0  0  0  0  0  0  0  0  0  0
   -5.6287   -6.6488   12.2902 O   0  0  0  0  0  0  0  0  0  0  0  0
  1 11  1  0  0  0  0
  3 13  1  1  0  0  0
  3 17  2  0  0  0  0
  3 20  1  0  0  0  0
  3 26  1  0  0  0  0
  4 14  1  1  0  0  0
  4 18  1  0  0  0  0
  4 21  2  0  0  0  0
  4 20  1  0  0  0  0
  5 19  1  0  0  0  0
  5  7  1  0  0  0  0
  6  7  2  0  0  0  0
  6 12  1  0  0  0  0
  7  8  1  0  0  0  0
  8  9  1  0  0  0  0
  8 10  2  0  0  0  0
 10 11  1  0  0  0  0
 11 12  2  0  0  0  0
 15 23  1  0  0  0  0
 15 16  1  0  0  0  0
 16 19  1  0  0  0  0
 19 22  1  0  0  0  0
 22  2  1  1  0  0  0
 22 23  1  0  0  0  0
 23 24  1  6  0  0  0
 24 25  1  0  0  0  0
 25 26  1  0  0  0  0
M  CHG  2  13  -1  18  -1
M  END
>  <CHROM.1>
-163.07360265,-38.04553653,-45.81176976,-148.53140547,99.95252742,-48.08076490
151.54414777,61.05897653,-5.74408438,-4.82944260,9.76023739,1.35291285,0.56366869
-0.89061753

>  <Name>
ligand

>  <RI>
0

>  <Rbt.Current_Directory>
/home/itssahil/PROJECTS/Mol_Feturizer/New_Systems/rnas/2GDI

>  <Rbt.Executable>
rbdock ($Id: //depot/dev/client3/rdock/2013.1/src/exe/rbdock.cxx#4 $)

>  <Rbt.Library>
libRbt.so (2013.1, Build901 2013/11/27)

>  <Rbt.Parameter_File>
/export/apps/rDock/src/rDock_2013.1_src/data/scripts/dock_solv.prm

>  <Rbt.Receptor>
prm/blind_docking_20.prm

>  <SCORE>
-6.0169

>  <SCORE.INTER>
-7.44798

>  <SCORE.INTER.CONST>
1

>  <SCORE.INTER.POLAR>
0

>  <SCORE.INTER.ROT>
8

>  <SCORE.INTER.SOLV>
8.65045

>  <SCORE.INTER.VDW>
-16.7821

>  <SCORE.INTER.norm>
-0.286461

>  <SCORE.INTRA>
0.918484

>  <SCORE.INTRA.DIHEDRAL>
2.37265

>  <SCORE.INTRA.DIHEDRAL.0>
8.13976

>  <SCORE.INTRA.POLAR>
0

>  <SCORE.INTRA.POLAR.0>
0

>  <SCORE.INTRA.REPUL>
0

>  <SCORE.INTRA.REPUL.0>
0

>  <SCORE.INTRA.SOLV>
3.06865

>  <SCORE.INTRA.SOLV.lig_0>
-82.9561

>  <SCORE.INTRA.VDW>
-1.80217

>  <SCORE.INTRA.VDW.0>
-3.29171

>  <SCORE.INTRA.norm>
0.0353263

>  <SCORE.RESTR>
0.512598

>  <SCORE.RESTR.CAVITY>
0.512598

>  <SCORE.RESTR.norm>
0.0197153

>  <SCORE.SYSTEM>
0

>  <SCORE.SYSTEM.CONST>
0

>  <SCORE.SYSTEM.DIHEDRAL>
0

>  <SCORE.SYSTEM.SOLV>
0

>  <SCORE.SYSTEM.norm>
0

>  <SCORE.heavy>
26

>  <SCORE.norm>
-0.231419

>  <RMSD>
18.414

$$$$
ligand
 OpenBabel11021811433D
libRbt.so/2013.1/901 2013/11/27
 26 27  0  0  0  0  0  0  0  0999 V2000
   -4.6999   -4.4004   14.2632 C   0  0  0  0  0  0  0  0  0  0  0  0
   -5.0259   -7.7484    9.2144 C   0  0  0  0  0  0  0  0  0  0  0  0
   -4.3694   -2.8764    7.3883 P   0  0  1  0  0  0  0  0  0  0  0  0
   -6.9386   -1.6034    6.9013 P   0  0  1  0  0  0  0  0  0  0  0  0
   -7.6638   -7.6749   10.5854 C   0  0  0  0  0  0  0  0  0  0  0  0
   -5.7982   -7.3265   12.2553 C   0  0  0  0  0  0  0  0  0  0  0  0
   -6.8878   -6.8107   11.5649 C   0  0  0  0  0  0  0  0  0  0  0  0
   -7.2444   -5.4891   11.7771 C   0  0  0  0  0  0  0  0  0  0  0  0
   -8.3004   -4.9421   11.1275 N   0  0  0  0  0  0  0  0  0  0  0  0
   -6.5313   -4.7358   12.6424 N   0  0  0  0  0  0  0  0  0  0  0  0
   -5.4765   -5.2605   13.3034 C   0  0  0  0  0  0  0  0  0  0  0  0
   -5.1140   -6.5521   13.1089 N   0  0  0  0  0  0  0  0  0  0  0  0
   -3.6034   -2.3145    6.2196 O   0  5  0  0  0  0  0  0  0  0  0  0
   -7.7677   -2.8446    7.0257 O   0  0  0  0  0  0  0  0  0  0  0  0
   -7.9836   -6.1839    6.9164 S   0  0  0  0  0  0  0  0  0  0  0  0
   -8.5286   -6.6686    8.4916 C   0  0  0  0  0  0  0  0  0  0  0  0
   -3.5836   -3.2503    8.6121 O   0  0  0  0  0  0  0  0  0  0  0  0
   -7.6225   -0.4794    7.6058 O   0  5  0  0  0  0  0  0  0  0  0  0
   -7.4979   -7.1843    9.2172 N   0  0  0  0  0  0  0  0  0  0  0  0
   -5.5751   -1.8527    7.7424 O   0  0  0  0  0  0  0  0  0  0  0  0
   -6.5017   -1.2391    5.5086 O   0  0  0  0  0  0  0  0  0  0  0  0
   -6.2897   -7.2187    8.5908 C   0  0  1  0  0  0  0  0  0  0  0  0
   -6.3567   -6.6535    7.2159 C   0  0  1  0  0  0  0  0  0  0  0  0
   -5.3589   -6.4483    6.1071 C   0  0  0  0  0  0  0  0  0  0  0  0
   -4.3757   -5.3680    6.5297 C   0  0  0  0  0  0  0  0  0  0  0  0
   -5.1178   -4.2107    6.8947 O   0  0  0  0  0  0  0  0  0  0  0  0
  1 11  1  0  0  0  0
  3 13  1  6  0  0  0
  3 17  2  0  0  0  0
  3 20  1  0  0  0  0
  3 26  1  0  0  0  0
  4 14  1  6  0  0  0
  4 18  1  0  0  0  0
  4 21  2  0  0  0  0
  4 20  1  0  0  0  0
  5 19  1  0  0  0  0
  5  7  1  0  0  0  0
  6  7  2  0  0  0  0
  6 12  1  0  0  0  0
  7  8  1  0  0  0  0
  8  9  1  0  0  0  0
  8 10  2  0  0  0  0
 10 11  1  0  0  0  0
 11 12  2  0  0  0  0
 15 23  1  0  0  0  0
 15 16  1  0  0  0  0
 16 19  1  0  0  0  0
 19 22  1  0  0  0  0
 22  2  1  1  0  0  0
 22 23  1  0  0  0  0
 23 24  1  6  0  0  0
 24 25  1  0  0  0  0
 25 26  1  0  0  0  0
M  CHG  2  13  -1  18  -1
M  END
>  <CHROM.1>
72.81893780,-114.25611878,-113.41847331,68.85454439,112.24309177,-54.39210874
-179.78617058,67.07366098,-6.16053816,-4.60409805,8.75444511,-1.75853262
-1.23141505,-1.09144363

>  <Name>
ligand

>  <RI>
0

>  <Rbt.Current_Directory>
/home/itssahil/PROJECTS/Mol_Feturizer/New_Systems/rnas/2GDI

>  <Rbt.Executable>
rbdock ($Id: //depot/dev/client3/rdock/2013.1/src/exe/rbdock.cxx#4 $)

>  <Rbt.Library>
libRbt.so (2013.1, Build901 2013/11/27)

>  <Rbt.Parameter_File>
/export/apps/rDock/src/rDock_2013.1_src/data/scripts/dock_solv.prm

>  <Rbt.Receptor>
prm/blind_docking_100.prm

>  <SCORE>
-7.55116

>  <SCORE.INTER>
-5.76303

>  <SCORE.INTER.CONST>
1

>  <SCORE.INTER.POLAR>
0

>  <SCORE.INTER.ROT>
8

>  <SCORE.INTER.SOLV>
12.8188

>  <SCORE.INTER.VDW>
-17.0483

>  <SCORE.INTER.norm>
-0.221655

>  <SCORE.INTRA>
-2.06296

>  <SCORE.INTRA.DIHEDRAL>
-2.79946

>  <SCORE.INTRA.DIHEDRAL.0>
8.13976

>  <SCORE.INTRA.POLAR>
0

>  <SCORE.INTRA.POLAR.0>
0

>  <SCORE.INTRA.REPUL>
0

>  <SCORE.INTRA.REPUL.0>
0

>  <SCORE.INTRA.SOLV>
1.07834

>  <SCORE.INTRA.SOLV.lig_0>
-82.9561

>  <SCORE.INTRA.VDW>
-1.2024

>  <SCORE.INTRA.VDW.0>
-3.29171

>  <SCORE.INTRA.norm>
-0.0793447

>  <SCORE.RESTR>
0.274833

>  <SCORE.RESTR.CAVITY>
0.274833

>  <SCORE.RESTR.norm>
0.0105705

>  <SCORE.SYSTEM>
0

>  <SCORE.SYSTEM.CONST>
0

>  <SCORE.SYSTEM.DIHEDRAL>
0

>  <SCORE.SYSTEM.SOLV>
0

>  <SCORE.SYSTEM.norm>
0

>  <SCORE.heavy>
26

>  <SCORE.norm>
-0.290429

>  <RMSD>
18.453

$$$$
ligand
 OpenBabel11021811433D
libRbt.so/2013.1/901 2013/11/27
 26 27  0  0  0  0  0  0  0  0999 V2000
  -35.4809   -4.1313   -9.6240 C   0  0  0  0  0  0  0  0  0  0  0  0
  -34.7930  -12.3319  -10.1597 C   0  0  0  0  0  0  0  0  0  0  0  0
  -29.6964  -14.2453   -7.7634 P   0  0  1  0  0  0  0  0  0  0  0  0
  -29.6167  -16.9707   -6.7511 P   0  0  1  0  0  0  0  0  0  0  0  0
  -36.2437   -9.8261   -9.4815 C   0  0  0  0  0  0  0  0  0  0  0  0
  -34.8017   -7.7636   -9.2431 C   0  0  0  0  0  0  0  0  0  0  0  0
  -36.0464   -8.3199   -9.5096 C   0  0  0  0  0  0  0  0  0  0  0  0
  -37.1008   -7.4750   -9.8146 C   0  0  0  0  0  0  0  0  0  0  0  0
  -38.3335   -7.9711  -10.0806 N   0  0  0  0  0  0  0  0  0  0  0  0
  -36.8986   -6.1398   -9.8473 N   0  0  0  0  0  0  0  0  0  0  0  0
  -35.6791   -5.6223   -9.5827 C   0  0  0  0  0  0  0  0  0  0  0  0
  -34.6362   -6.4341   -9.2813 N   0  0  0  0  0  0  0  0  0  0  0  0
  -28.3111  -13.9426   -7.2555 O   0  5  0  0  0  0  0  0  0  0  0  0
  -28.3683  -16.5964   -6.0129 O   0  0  0  0  0  0  0  0  0  0  0  0
  -33.9187  -10.9267   -6.4533 S   0  0  0  0  0  0  0  0  0  0  0  0
  -35.0605   -9.9356   -7.3060 C   0  0  0  0  0  0  0  0  0  0  0  0
  -30.1435  -13.5376   -9.0100 O   0  0  0  0  0  0  0  0  0  0  0  0
  -30.7910  -16.8264   -5.8416 O   0  5  0  0  0  0  0  0  0  0  0  0
  -35.3164  -10.4530   -8.5396 N   0  0  0  0  0  0  0  0  0  0  0  0
  -29.8438  -15.8532   -7.9037 O   0  0  0  0  0  0  0  0  0  0  0  0
  -29.5896  -18.2957   -7.4630 O   0  0  0  0  0  0  0  0  0  0  0  0
  -34.6529  -11.6001   -8.8515 C   0  0  1  0  0  0  0  0  0  0  0  0
  -33.7801  -12.0613   -7.7380 C   0  0  1  0  0  0  0  0  0  0  0  0
  -32.8490  -13.2275   -7.5377 C   0  0  0  0  0  0  0  0  0  0  0  0
  -31.6258  -12.7489   -6.7716 C   0  0  0  0  0  0  0  0  0  0  0  0
  -30.7440  -13.8530   -6.6088 O   0  0  0  0  0  0  0  0  0  0  0  0
  1 11  1  0  0  0  0
  3 13  1  1  0  0  0
  3 17  2  0  0  0  0
  3 20  1  0  0  0  0
  3 26  1  0  0  0  0
  4 14  1  1  0  0  0
  4 18  1  0  0  0  0
  4 21  2  0  0  0  0
  4 20  1  0  0  0  0
  5 19  1  0  0  0  0
  5  7  1  0  0  0  0
  6  7  2  0  0  0  0
  6 12  1  0  0  0  0
  7  8  1  0  0  0  0
  8  9  1  0  0  0  0
  8 10  2  0  0  0  0
 10 11  1  0  0  0  0
 11 12  2  0  0  0  0
 15 23  1  0  0  0  0
 15 16  1  0  0  0  0
 16 19  1  0  0  0  0
 19 22  1  0  0  0  0
 22  2  1  1  0  0  0
 22 23  1  0  0  0  0
 23 24  1  6  0  0  0
 24 25  1  0  0  0  0
 25 26  1  0  0  0  0
M  CHG  2  13  -1  18  -1
M  END
>  <CHROM.1>
56.07222952,43.04058411,29.44535546,-43.87052619,-37.43656147,-179.01034366
84.80532701,111.17021070,-32.80316793,-11.94847721,-8.04069161,-2.20518114
0.19414152,3.01444125

>  <Name>
ligand

>  <RI>
0

>  <Rbt.Current_Directory>
/home/itssahil/PROJECTS/Mol_Feturizer/New_Systems/rnas/2GDI

>  <Rbt.Executable>
rbdock ($Id: //depot/dev/client3/rdock/2013.1/src/exe/rbdock.cxx#4 $)

>  <Rbt.Library>
libRbt.so (2013.1, Build901 2013/11/27)

>  <Rbt.Parameter_File>
/export/apps/rDock/src/rDock_2013.1_src/data/scripts/dock_solv.prm

>  <Rbt.Receptor>
prm/blind_docking_60.prm

>  <SCORE>
-8.9864

>  <SCORE.INTER>
-12.7869

>  <SCORE.INTER.CONST>
1

>  <SCORE.INTER.POLAR>
0

>  <SCORE.INTER.ROT>
8

>  <SCORE.INTER.SOLV>
16.3327

>  <SCORE.INTER.VDW>
-22.9022

>  <SCORE.INTER.norm>
-0.491805

>  <SCORE.INTRA>
3.51791

>  <SCORE.INTRA.DIHEDRAL>
1.95998

>  <SCORE.INTRA.DIHEDRAL.0>
8.13976

>  <SCORE.INTRA.POLAR>
0

>  <SCORE.INTRA.POLAR.0>
0

>  <SCORE.INTRA.REPUL>
0

>  <SCORE.INTRA.REPUL.0>
0

>  <SCORE.INTRA.SOLV>
0.504218

>  <SCORE.INTRA.SOLV.lig_0>
-82.9561

>  <SCORE.INTRA.VDW>
2.28581

>  <SCORE.INTRA.VDW.0>
-3.29171

>  <SCORE.INTRA.norm>
0.135304

>  <SCORE.RESTR>
0.282612

>  <SCORE.RESTR.CAVITY>
0.282612

>  <SCORE.RESTR.norm>
0.0108697

>  <SCORE.SYSTEM>
0

>  <SCORE.SYSTEM.CONST>
0

>  <SCORE.SYSTEM.DIHEDRAL>
0

>  <SCORE.SYSTEM.SOLV>
0

>  <SCORE.SYSTEM.norm>
0

>  <SCORE.heavy>
26

>  <SCORE.norm>
-0.345631

>  <RMSD>
18.458

$$$$
ligand
 OpenBabel11021811433D
libRbt.so/2013.1/901 2013/11/27
 26 27  0  0  0  0  0  0  0  0999 V2000
  -11.8461   -5.4435   11.9927 C   0  0  0  0  0  0  0  0  0  0  0  0
   -3.6539   -4.3421    9.7834 C   0  0  0  0  0  0  0  0  0  0  0  0
   -2.9584   -4.8969    4.9465 P   0  0  1  0  0  0  0  0  0  0  0  0
   -4.8077   -6.8686    6.0194 P   0  0  1  0  0  0  0  0  0  0  0  0
   -6.3718   -5.4584   10.2420 C   0  0  0  0  0  0  0  0  0  0  0  0
   -8.8176   -6.0085    9.9168 C   0  0  0  0  0  0  0  0  0  0  0  0
   -7.8198   -5.4444   10.7017 C   0  0  0  0  0  0  0  0  0  0  0  0
   -8.1694   -4.8810   11.9180 C   0  0  0  0  0  0  0  0  0  0  0  0
   -7.2312   -4.3179   12.7174 N   0  0  0  0  0  0  0  0  0  0  0  0
   -9.4612   -4.8924   12.3125 N   0  0  0  0  0  0  0  0  0  0  0  0
  -10.4141   -5.4455   11.5307 C   0  0  0  0  0  0  0  0  0  0  0  0
  -10.0903   -6.0004   10.3371 N   0  0  0  0  0  0  0  0  0  0  0  0
   -1.7907   -5.4508    5.7198 O   0  5  0  0  0  0  0  0  0  0  0  0
   -5.5566   -8.0066    5.3967 O   0  0  0  0  0  0  0  0  0  0  0  0
   -6.4959   -2.6630    7.4211 S   0  0  0  0  0  0  0  0  0  0  0  0
   -7.1264   -3.8814    8.4846 C   0  0  0  0  0  0  0  0  0  0  0  0
   -2.6661   -4.2603    3.6182 O   0  0  0  0  0  0  0  0  0  0  0  0
   -3.6918   -7.4073    6.8511 O   0  5  0  0  0  0  0  0  0  0  0  0
   -6.1322   -4.4088    9.2515 N   0  0  0  0  0  0  0  0  0  0  0  0
   -4.0781   -6.0616    4.8172 O   0  0  0  0  0  0  0  0  0  0  0  0
   -5.6416   -5.8518    6.7501 O   0  0  0  0  0  0  0  0  0  0  0  0
   -4.8873   -3.8987    9.0426 C   0  0  1  0  0  0  0  0  0  0  0  0
   -4.8869   -2.8335    8.0036 C   0  0  1  0  0  0  0  0  0  0  0  0
   -3.8288   -1.9560    7.3892 C   0  0  0  0  0  0  0  0  0  0  0  0
   -2.8841   -2.8274    6.5765 C   0  0  0  0  0  0  0  0  0  0  0  0
   -3.6635   -3.7716    5.8525 O   0  0  0  0  0  0  0  0  0  0  0  0
  1 11  1  0  0  0  0
  3 13  1  1  0  0  0
  3 17  2  0  0  0  0
  3 20  1  0  0  0  0
  3 26  1  0  0  0  0
  4 14  1  6  0  0  0
  4 18  1  0  0  0  0
  4 21  2  0  0  0  0
  4 20  1  0  0  0  0
  5 19  1  0  0  0  0
  5  7  1  0  0  0  0
  6  7  2  0  0  0  0
  6 12  1  0  0  0  0
  7  8  1  0  0  0  0
  8  9  1  0  0  0  0
  8 10  2  0  0  0  0
 10 11  1  0  0  0  0
 11 12  2  0  0  0  0
 15 23  1  0  0  0  0
 15 16  1  0  0  0  0
 16 19  1  0  0  0  0
 19 22  1  0  0  0  0
 22  2  1  1  0  0  0
 22 23  1  0  0  0  0
 23 24  1  6  0  0  0
 24 25  1  0  0  0  0
 25 26  1  0  0  0  0
M  CHG  2  13  -1  18  -1
M  END
>  <CHROM.1>
57.46036053,-23.84668412,78.94892177,-169.45366169,-111.58305231,42.42013502
-176.86963294,42.83857893,-5.70423087,-4.91897387,7.96039553,2.75399591,0.70791412
0.57356624

>  <Name>
ligand

>  <RI>
0

>  <Rbt.Current_Directory>
/home/itssahil/PROJECTS/Mol_Feturizer/New_Systems/rnas/2GDI

>  <Rbt.Executable>
rbdock ($Id: //depot/dev/client3/rdock/2013.1/src/exe/rbdock.cxx#4 $)

>  <Rbt.Library>
libRbt.so (2013.1, Build901 2013/11/27)

>  <Rbt.Parameter_File>
/export/apps/rDock/src/rDock_2013.1_src/data/scripts/dock_solv.prm

>  <Rbt.Receptor>
prm/blind_docking_20.prm

>  <SCORE>
-1.64569

>  <SCORE.INTER>
-1.8897

>  <SCORE.INTER.CONST>
1

>  <SCORE.INTER.POLAR>
0

>  <SCORE.INTER.ROT>
8

>  <SCORE.INTER.SOLV>
12.196

>  <SCORE.INTER.VDW>
-14.2585

>  <SCORE.INTER.norm>
-0.0726809

>  <SCORE.INTRA>
-0.0356768

>  <SCORE.INTRA.DIHEDRAL>
-1.60123

>  <SCORE.INTRA.DIHEDRAL.0>
8.13976

>  <SCORE.INTRA.POLAR>
0

>  <SCORE.INTRA.POLAR.0>
0

>  <SCORE.INTRA.REPUL>
0

>  <SCORE.INTRA.REPUL.0>
0

>  <SCORE.INTRA.SOLV>
4.93508

>  <SCORE.INTRA.SOLV.lig_0>
-82.9561

>  <SCORE.INTRA.VDW>
-1.7026

>  <SCORE.INTRA.VDW.0>
-3.29171

>  <SCORE.INTRA.norm>
-0.00137219

>  <SCORE.RESTR>
0.27969

>  <SCORE.RESTR.CAVITY>
0.27969

>  <SCORE.RESTR.norm>
0.0107573

>  <SCORE.SYSTEM>
0

>  <SCORE.SYSTEM.CONST>
0

>  <SCORE.SYSTEM.DIHEDRAL>
0

>  <SCORE.SYSTEM.SOLV>
0

>  <SCORE.SYSTEM.norm>
0

>  <SCORE.heavy>
26

>  <SCORE.norm>
-0.0632957

>  <RMSD>
18.511

$$$$
ligand
 OpenBabel11021811433D
libRbt.so/2013.1/901 2013/11/27
 26 27  0  0  0  0  0  0  0  0999 V2000
  -10.4498   -5.5756    6.9378 C   0  0  0  0  0  0  0  0  0  0  0  0
   -6.8272   -4.5181   11.4352 C   0  0  0  0  0  0  0  0  0  0  0  0
   -2.9293   -7.1561    8.2290 P   0  0  1  0  0  0  0  0  0  0  0  0
   -3.3076   -5.6505    5.7696 P   0  0  1  0  0  0  0  0  0  0  0  0
   -8.5334   -6.8272   12.2098 C   0  0  0  0  0  0  0  0  0  0  0  0
   -8.3032   -6.8421    9.6925 C   0  0  0  0  0  0  0  0  0  0  0  0
   -9.0366   -6.4864   10.8174 C   0  0  0  0  0  0  0  0  0  0  0  0
  -10.2424   -5.8268   10.6438 C   0  0  0  0  0  0  0  0  0  0  0  0
  -10.9922   -5.4587   11.7109 N   0  0  0  0  0  0  0  0  0  0  0  0
  -10.6765   -5.5465    9.3958 N   0  0  0  0  0  0  0  0  0  0  0  0
   -9.9445   -5.9013    8.3172 C   0  0  0  0  0  0  0  0  0  0  0  0
   -8.7619   -6.5463    8.4683 N   0  0  0  0  0  0  0  0  0  0  0  0
   -3.6495   -8.4271    7.8626 O   0  5  0  0  0  0  0  0  0  0  0  0
   -1.8275   -5.5488    5.5633 O   0  0  0  0  0  0  0  0  0  0  0  0
   -4.6926   -7.8028   12.4984 S   0  0  0  0  0  0  0  0  0  0  0  0
   -6.4088   -8.0452   12.5934 C   0  0  0  0  0  0  0  0  0  0  0  0
   -1.4291   -7.1713    8.1670 O   0  0  0  0  0  0  0  0  0  0  0  0
   -3.8228   -6.8619    5.0664 O   0  5  0  0  0  0  0  0  0  0  0  0
   -7.0732   -6.9144   12.2264 N   0  0  0  0  0  0  0  0  0  0  0  0
   -3.5515   -5.9489    7.3445 O   0  0  0  0  0  0  0  0  0  0  0  0
   -4.1034   -4.4124    5.4578 O   0  0  0  0  0  0  0  0  0  0  0  0
   -6.2933   -5.8564   11.8716 C   0  0  1  0  0  0  0  0  0  0  0  0
   -4.8430   -6.1806   11.9481 C   0  0  1  0  0  0  0  0  0  0  0  0
   -3.5732   -5.4168   11.6811 C   0  0  0  0  0  0  0  0  0  0  0  0
   -3.3019   -5.4296   10.1850 C   0  0  0  0  0  0  0  0  0  0  0  0
   -3.3251   -6.7808    9.7412 O   0  0  0  0  0  0  0  0  0  0  0  0
  1 11  1  0  0  0  0
  3 13  1  6  0  0  0
  3 17  2  0  0  0  0
  3 20  1  0  0  0  0
  3 26  1  0  0  0  0
  4 14  1  6  0  0  0
  4 18  1  0  0  0  0
  4 21  2  0  0  0  0
  4 20  1  0  0  0  0
  5 19  1  0  0  0  0
  5  7  1  0  0  0  0
  6  7  2  0  0  0  0
  6 12  1  0  0  0  0
  7  8  1  0  0  0  0
  8  9  1  0  0  0  0
  8 10  2  0  0  0  0
 10 11  1  0  0  0  0
 11 12  2  0  0  0  0
 15 23  1  0  0  0  0
 15 16  1  0  0  0  0
 16 19  1  0  0  0  0
 19 22  1  0  0  0  0
 22  2  1  6  0  0  0
 22 23  1  0  0  0  0
 23 24  1  1  0  0  0
 24 25  1  0  0  0  0
 25 26  1  0  0  0  0
M  CHG  2  13  -1  18  -1
M  END
>  <CHROM.1>
-74.65083614,-120.83784604,27.47162676,-55.10911463,99.82068359,-53.09078139
-173.90729046,-152.89660281,-5.62717788,-6.34472368,9.25901497,2.58366068
-0.13595283,1.75825251

>  <Name>
ligand

>  <RI>
0

>  <Rbt.Current_Directory>
/home/itssahil/PROJECTS/Mol_Feturizer/New_Systems/rnas/2GDI

>  <Rbt.Executable>
rbdock ($Id: //depot/dev/client3/rdock/2013.1/src/exe/rbdock.cxx#4 $)

>  <Rbt.Library>
libRbt.so (2013.1, Build901 2013/11/27)

>  <Rbt.Parameter_File>
/export/apps/rDock/src/rDock_2013.1_src/data/scripts/dock_solv.prm

>  <Rbt.Receptor>
prm/blind_docking_20.prm

>  <SCORE>
-6.76115

>  <SCORE.INTER>
-6.20232

>  <SCORE.INTER.CONST>
1

>  <SCORE.INTER.POLAR>
0

>  <SCORE.INTER.ROT>
8

>  <SCORE.INTER.SOLV>
16.5303

>  <SCORE.INTER.VDW>
-18.5783

>  <SCORE.INTER.norm>
-0.238551

>  <SCORE.INTRA>
-0.59181

>  <SCORE.INTRA.DIHEDRAL>
-2.0666

>  <SCORE.INTRA.DIHEDRAL.0>
8.13976

>  <SCORE.INTRA.POLAR>
0

>  <SCORE.INTRA.POLAR.0>
0

>  <SCORE.INTRA.REPUL>
0

>  <SCORE.INTRA.REPUL.0>
0

>  <SCORE.INTRA.SOLV>
0.550084

>  <SCORE.INTRA.SOLV.lig_0>
-82.9561

>  <SCORE.INTRA.VDW>
0.166447

>  <SCORE.INTRA.VDW.0>
-3.29171

>  <SCORE.INTRA.norm>
-0.0227619

>  <SCORE.RESTR>
0.0329797

>  <SCORE.RESTR.CAVITY>
0.0329797

>  <SCORE.RESTR.norm>
0.00126845

>  <SCORE.SYSTEM>
0

>  <SCORE.SYSTEM.CONST>
0

>  <SCORE.SYSTEM.DIHEDRAL>
0

>  <SCORE.SYSTEM.SOLV>
0

>  <SCORE.SYSTEM.norm>
0

>  <SCORE.heavy>
26

>  <SCORE.norm>
-0.260044

>  <RMSD>
18.516

$$$$
ligand
 OpenBabel11021811433D
libRbt.so/2013.1/901 2013/11/27
 26 27  0  0  0  0  0  0  0  0999 V2000
  -10.4238   -5.6328    7.5708 C   0  0  0  0  0  0  0  0  0  0  0  0
   -4.6655   -4.4422    9.6605 C   0  0  0  0  0  0  0  0  0  0  0  0
   -1.8390   -8.1539    6.1974 P   0  0  1  0  0  0  0  0  0  0  0  0
   -4.1853   -6.5720    5.5259 P   0  0  1  0  0  0  0  0  0  0  0  0
   -6.6554   -4.8316   11.8358 C   0  0  0  0  0  0  0  0  0  0  0  0
   -7.7343   -4.1431    9.6559 C   0  0  0  0  0  0  0  0  0  0  0  0
   -7.6592   -5.0395   10.7145 C   0  0  0  0  0  0  0  0  0  0  0  0
   -8.5085   -6.1339   10.7206 C   0  0  0  0  0  0  0  0  0  0  0  0
   -8.4728   -7.0346   11.7324 N   0  0  0  0  0  0  0  0  0  0  0  0
   -9.3834   -6.3057    9.7059 N   0  0  0  0  0  0  0  0  0  0  0  0
   -9.4387   -5.4191    8.6880 C   0  0  0  0  0  0  0  0  0  0  0  0
   -8.6161   -4.3421    8.6663 N   0  0  0  0  0  0  0  0  0  0  0  0
   -1.5664   -9.6288    6.3347 O   0  5  0  0  0  0  0  0  0  0  0  0
   -5.6195   -6.9181    5.2673 O   0  0  0  0  0  0  0  0  0  0  0  0
   -3.8411   -7.6293   12.0352 S   0  0  0  0  0  0  0  0  0  0  0  0
   -5.2813   -6.7827   12.5065 C   0  0  0  0  0  0  0  0  0  0  0  0
   -0.9500   -7.3715    5.2741 O   0  0  0  0  0  0  0  0  0  0  0  0
   -4.0854   -5.7957    6.7966 O   0  5  0  0  0  0  0  0  0  0  0  0
   -5.5088   -5.7263   11.6776 N   0  0  0  0  0  0  0  0  0  0  0  0
   -3.4045   -7.9611    5.8250 O   0  0  0  0  0  0  0  0  0  0  0  0
   -3.4478   -5.9232    4.3864 O   0  0  0  0  0  0  0  0  0  0  0  0
   -4.5986   -5.5467   10.6813 C   0  0  1  0  0  0  0  0  0  0  0  0
   -3.5316   -6.5838   10.7055 C   0  0  1  0  0  0  0  0  0  0  0  0
   -2.3102   -6.8639    9.8707 C   0  0  0  0  0  0  0  0  0  0  0  0
   -2.7386   -7.6023    8.6123 C   0  0  0  0  0  0  0  0  0  0  0  0
   -1.6952   -7.4861    7.6527 O   0  0  0  0  0  0  0  0  0  0  0  0
  1 11  1  0  0  0  0
  3 13  1  1  0  0  0
  3 17  2  0  0  0  0
  3 20  1  0  0  0  0
  3 26  1  0  0  0  0
  4 14  1  6  0  0  0
  4 18  1  0  0  0  0
  4 21  2  0  0  0  0
  4 20  1  0  0  0  0
  5 19  1  0  0  0  0
  5  7  1  0  0  0  0
  6  7  2  0  0  0  0
  6 12  1  0  0  0  0
  7  8  1  0  0  0  0
  8  9  1  0  0  0  0
  8 10  2  0  0  0  0
 10 11  1  0  0  0  0
 11 12  2  0  0  0  0
 15 23  1  0  0  0  0
 15 16  1  0  0  0  0
 16 19  1  0  0  0  0
 19 22  1  0  0  0  0
 22  2  1  6  0  0  0
 22 23  1  0  0  0  0
 23 24  1  1  0  0  0
 24 25  1  0  0  0  0
 25 26  1  0  0  0  0
M  CHG  2  13  -1  18  -1
M  END
>  <CHROM.1>
-177.90014540,-109.45897558,-102.48536756,-178.57089926,100.00438099,161.58862611
-179.59010910,-78.26584815,-4.88347964,-6.56126465,8.53057500,2.48946189
-0.34268909,1.56722165

>  <Name>
ligand

>  <RI>
0

>  <Rbt.Current_Directory>
/home/itssahil/PROJECTS/Mol_Feturizer/New_Systems/rnas/2GDI

>  <Rbt.Executable>
rbdock ($Id: //depot/dev/client3/rdock/2013.1/src/exe/rbdock.cxx#4 $)

>  <Rbt.Library>
libRbt.so (2013.1, Build901 2013/11/27)

>  <Rbt.Parameter_File>
/export/apps/rDock/src/rDock_2013.1_src/data/scripts/dock_solv.prm

>  <Rbt.Receptor>
prm/blind_docking_20.prm

>  <SCORE>
-7.35147

>  <SCORE.INTER>
-8.64554

>  <SCORE.INTER.CONST>
1

>  <SCORE.INTER.POLAR>
0

>  <SCORE.INTER.ROT>
8

>  <SCORE.INTER.SOLV>
12.1583

>  <SCORE.INTER.VDW>
-18.7498

>  <SCORE.INTER.norm>
-0.332521

>  <SCORE.INTRA>
1.24002

>  <SCORE.INTRA.DIHEDRAL>
-1.33683

>  <SCORE.INTRA.DIHEDRAL.0>
8.13976

>  <SCORE.INTRA.POLAR>
0

>  <SCORE.INTRA.POLAR.0>
0

>  <SCORE.INTRA.REPUL>
0

>  <SCORE.INTRA.REPUL.0>
0

>  <SCORE.INTRA.SOLV>
4.51924

>  <SCORE.INTRA.SOLV.lig_0>
-82.9561

>  <SCORE.INTRA.VDW>
-0.351188

>  <SCORE.INTRA.VDW.0>
-3.29171

>  <SCORE.INTRA.norm>
0.047693

>  <SCORE.RESTR>
0.0540547

>  <SCORE.RESTR.CAVITY>
0.0540547

>  <SCORE.RESTR.norm>
0.00207903

>  <SCORE.SYSTEM>
0

>  <SCORE.SYSTEM.CONST>
0

>  <SCORE.SYSTEM.DIHEDRAL>
0

>  <SCORE.SYSTEM.SOLV>
0

>  <SCORE.SYSTEM.norm>
0

>  <SCORE.heavy>
26

>  <SCORE.norm>
-0.282749

>  <RMSD>
18.558

$$$$
ligand
 OpenBabel11021811433D
libRbt.so/2013.1/901 2013/11/27
 26 27  0  0  0  0  0  0  0  0999 V2000
  -34.5072   -3.1318   -9.7214 C   0  0  0  0  0  0  0  0  0  0  0  0
  -35.0274  -10.8441  -11.1481 C   0  0  0  0  0  0  0  0  0  0  0  0
  -29.4998  -13.3257   -7.5725 P   0  0  1  0  0  0  0  0  0  0  0  0
  -29.7113  -16.2125   -7.2886 P   0  0  1  0  0  0  0  0  0  0  0  0
  -36.3910   -8.5609   -9.8174 C   0  0  0  0  0  0  0  0  0  0  0  0
  -35.3281   -6.5907   -8.6432 C   0  0  0  0  0  0  0  0  0  0  0  0
  -35.9029   -7.1224   -9.7907 C   0  0  0  0  0  0  0  0  0  0  0  0
  -36.0100   -6.3192  -10.9142 C   0  0  0  0  0  0  0  0  0  0  0  0
  -36.5644   -6.7933  -12.0562 N   0  0  0  0  0  0  0  0  0  0  0  0
  -35.5566   -5.0475  -10.8715 N   0  0  0  0  0  0  0  0  0  0  0  0
  -35.0028   -4.5524   -9.7431 C   0  0  0  0  0  0  0  0  0  0  0  0
  -34.8909   -5.3237   -8.6341 N   0  0  0  0  0  0  0  0  0  0  0  0
  -29.7682  -13.1261   -6.1040 O   0  5  0  0  0  0  0  0  0  0  0  0
  -30.9989  -16.3372   -8.0436 O   0  0  0  0  0  0  0  0  0  0  0  0
  -34.0615  -10.4671   -7.2236 S   0  0  0  0  0  0  0  0  0  0  0  0
  -35.1833   -9.2596   -7.7684 C   0  0  0  0  0  0  0  0  0  0  0  0
  -28.5932  -12.3376   -8.2482 O   0  0  0  0  0  0  0  0  0  0  0  0
  -28.7869  -17.3082   -7.7033 O   0  5  0  0  0  0  0  0  0  0  0  0
  -35.4712   -9.4340   -9.0881 N   0  0  0  0  0  0  0  0  0  0  0  0
  -28.9921  -14.8492   -7.7916 O   0  0  0  0  0  0  0  0  0  0  0  0
  -29.8326  -16.0858   -5.7944 O   0  0  0  0  0  0  0  0  0  0  0  0
  -34.8476  -10.4789   -9.6987 C   0  0  1  0  0  0  0  0  0  0  0  0
  -33.9749  -11.2348   -8.7599 C   0  0  1  0  0  0  0  0  0  0  0  0
  -33.0777  -12.4374   -8.8862 C   0  0  0  0  0  0  0  0  0  0  0  0
  -31.7247  -12.1023   -8.2786 C   0  0  0  0  0  0  0  0  0  0  0  0
  -30.9076  -13.2646   -8.3462 O   0  0  0  0  0  0  0  0  0  0  0  0
  1 11  1  0  0  0  0
  3 13  1  1  0  0  0
  3 17  2  0  0  0  0
  3 20  1  0  0  0  0
  3 26  1  0  0  0  0
  4 14  1  6  0  0  0
  4 18  1  0  0  0  0
  4 21  2  0  0  0  0
  4 20  1  0  0  0  0
  5 19  1  0  0  0  0
  5  7  1  0  0  0  0
  6  7  2  0  0  0  0
  6 12  1  0  0  0  0
  7  8  1  0  0  0  0
  8  9  1  0  0  0  0
  8 10  2  0  0  0  0
 10 11  1  0  0  0  0
 11 12  2  0  0  0  0
 15 23  1  0  0  0  0
 15 16  1  0  0  0  0
 16 19  1  0  0  0  0
 19 22  1  0  0  0  0
 22  2  1  1  0  0  0
 22 23  1  0  0  0  0
 23 24  1  6  0  0  0
 24 25  1  0  0  0  0
 25 26  1  0  0  0  0
M  CHG  2  13  -1  18  -1
M  END
>  <CHROM.1>
52.31422768,59.69110667,-39.11563239,66.45423973,-48.34240223,177.27118381
-169.81281109,59.53852490,-32.68376909,-11.04022707,-8.53664032,-2.20345369
0.44280991,-3.11648112

>  <Name>
ligand

>  <RI>
0

>  <Rbt.Current_Directory>
/home/itssahil/PROJECTS/Mol_Feturizer/New_Systems/rnas/2GDI

>  <Rbt.Executable>
rbdock ($Id: //depot/dev/client3/rdock/2013.1/src/exe/rbdock.cxx#4 $)

>  <Rbt.Library>
libRbt.so (2013.1, Build901 2013/11/27)

>  <Rbt.Parameter_File>
/export/apps/rDock/src/rDock_2013.1_src/data/scripts/dock_solv.prm

>  <Rbt.Receptor>
prm/blind_docking_60.prm

>  <SCORE>
-15.9495

>  <SCORE.INTER>
-15.9504

>  <SCORE.INTER.CONST>
1

>  <SCORE.INTER.POLAR>
0

>  <SCORE.INTER.ROT>
8

>  <SCORE.INTER.SOLV>
14.9498

>  <SCORE.INTER.VDW>
-24.5502

>  <SCORE.INTER.norm>
-0.613476

>  <SCORE.INTRA>
0.000843902

>  <SCORE.INTRA.DIHEDRAL>
-2.3232

>  <SCORE.INTRA.DIHEDRAL.0>
8.13976

>  <SCORE.INTRA.POLAR>
0

>  <SCORE.INTRA.POLAR.0>
0

>  <SCORE.INTRA.REPUL>
0

>  <SCORE.INTRA.REPUL.0>
0

>  <SCORE.INTRA.SOLV>
0.0681733

>  <SCORE.INTRA.SOLV.lig_0>
-82.9561

>  <SCORE.INTRA.VDW>
1.12836

>  <SCORE.INTRA.VDW.0>
-3.29171

>  <SCORE.INTRA.norm>
3.24578e-05

>  <SCORE.RESTR>
0

>  <SCORE.RESTR.CAVITY>
0

>  <SCORE.RESTR.norm>
0

>  <SCORE.SYSTEM>
0

>  <SCORE.SYSTEM.CONST>
0

>  <SCORE.SYSTEM.DIHEDRAL>
0

>  <SCORE.SYSTEM.SOLV>
0

>  <SCORE.SYSTEM.norm>
0

>  <SCORE.heavy>
26

>  <SCORE.norm>
-0.613443

>  <RMSD>
18.615

$$$$
ligand
 OpenBabel11021811433D
libRbt.so/2013.1/901 2013/11/27
 26 27  0  0  0  0  0  0  0  0999 V2000
   -9.3942   -5.9101    6.1359 C   0  0  0  0  0  0  0  0  0  0  0  0
   -7.7959   -7.5911   11.5903 C   0  0  0  0  0  0  0  0  0  0  0  0
   -3.6537   -5.1868    9.9298 P   0  0  1  0  0  0  0  0  0  0  0  0
   -4.3898   -3.3258    7.8194 P   0  0  1  0  0  0  0  0  0  0  0  0
   -9.8665   -5.4722   11.8472 C   0  0  0  0  0  0  0  0  0  0  0  0
  -10.0847   -6.7634    9.6849 C   0  0  0  0  0  0  0  0  0  0  0  0
   -9.7313   -5.5896   10.3384 C   0  0  0  0  0  0  0  0  0  0  0  0
   -9.2660   -4.5238    9.5859 C   0  0  0  0  0  0  0  0  0  0  0  0
   -8.9080   -3.3591   10.1789 N   0  0  0  0  0  0  0  0  0  0  0  0
   -9.1672   -4.6464    8.2443 N   0  0  0  0  0  0  0  0  0  0  0  0
   -9.5155   -5.7989    7.6316 C   0  0  0  0  0  0  0  0  0  0  0  0
   -9.9718   -6.8524    8.3523 N   0  0  0  0  0  0  0  0  0  0  0  0
   -3.1745   -6.3255    9.0683 O   0  5  0  0  0  0  0  0  0  0  0  0
   -3.3143   -2.3829    8.2642 O   0  0  0  0  0  0  0  0  0  0  0  0
   -6.5765   -4.4192   13.8104 S   0  0  0  0  0  0  0  0  0  0  0  0
   -8.1971   -4.2495   13.2120 C   0  0  0  0  0  0  0  0  0  0  0  0
   -2.6084   -4.3206   10.5716 O   0  0  0  0  0  0  0  0  0  0  0  0
   -3.8520   -4.2219    6.7541 O   0  5  0  0  0  0  0  0  0  0  0  0
   -8.5527   -5.3392   12.4766 N   0  0  0  0  0  0  0  0  0  0  0  0
   -4.7094   -4.3097    9.0679 O   0  0  0  0  0  0  0  0  0  0  0  0
   -5.7041   -2.6973    7.4445 O   0  0  0  0  0  0  0  0  0  0  0  0
   -7.6057   -6.3101   12.3581 C   0  0  1  0  0  0  0  0  0  0  0  0
   -6.3581   -5.9667   13.0931 C   0  0  1  0  0  0  0  0  0  0  0  0
   -5.0304   -6.6466   13.2981 C   0  0  0  0  0  0  0  0  0  0  0  0
   -3.9910   -5.9590   12.4269 C   0  0  0  0  0  0  0  0  0  0  0  0
   -4.5366   -5.8054   11.1223 O   0  0  0  0  0  0  0  0  0  0  0  0
  1 11  1  0  0  0  0
  3 13  1  6  0  0  0
  3 17  2  0  0  0  0
  3 20  1  0  0  0  0
  3 26  1  0  0  0  0
  4 14  1  1  0  0  0
  4 18  1  0  0  0  0
  4 21  2  0  0  0  0
  4 20  1  0  0  0  0
  5 19  1  0  0  0  0
  5  7  1  0  0  0  0
  6  7  2  0  0  0  0
  6 12  1  0  0  0  0
  7  8  1  0  0  0  0
  8  9  1  0  0  0  0
  8 10  2  0  0  0  0
 10 11  1  0  0  0  0
 11 12  2  0  0  0  0
 15 23  1  0  0  0  0
 15 16  1  0  0  0  0
 16 19  1  0  0  0  0
 19 22  1  0  0  0  0
 22  2  1  1  0  0  0
 22 23  1  0  0  0  0
 23 24  1  6  0  0  0
 24 25  1  0  0  0  0
 25 26  1  0  0  0  0
M  CHG  2  13  -1  18  -1
M  END
>  <CHROM.1>
-71.84517418,119.16006253,113.98787718,-52.16892145,-74.17509677,-47.15598471
-176.39150182,101.52810318,-6.38875090,-5.01282503,10.14727384,2.74636114
0.19388502,1.78870257

>  <Name>
ligand

>  <RI>
0

>  <Rbt.Current_Directory>
/home/itssahil/PROJECTS/Mol_Feturizer/New_Systems/rnas/2GDI

>  <Rbt.Executable>
rbdock ($Id: //depot/dev/client3/rdock/2013.1/src/exe/rbdock.cxx#4 $)

>  <Rbt.Library>
libRbt.so (2013.1, Build901 2013/11/27)

>  <Rbt.Parameter_File>
/export/apps/rDock/src/rDock_2013.1_src/data/scripts/dock_solv.prm

>  <Rbt.Receptor>
prm/blind_docking_20.prm

>  <SCORE>
-6.61821

>  <SCORE.INTER>
-7.79383

>  <SCORE.INTER.CONST>
1

>  <SCORE.INTER.POLAR>
0

>  <SCORE.INTER.ROT>
8

>  <SCORE.INTER.SOLV>
14.9295

>  <SCORE.INTER.VDW>
-19.1057

>  <SCORE.INTER.norm>
-0.299763

>  <SCORE.INTRA>
0.971749

>  <SCORE.INTRA.DIHEDRAL>
-0.637681

>  <SCORE.INTRA.DIHEDRAL.0>
8.13976

>  <SCORE.INTRA.POLAR>
0

>  <SCORE.INTRA.POLAR.0>
0

>  <SCORE.INTRA.REPUL>
0

>  <SCORE.INTRA.REPUL.0>
0

>  <SCORE.INTRA.SOLV>
2.22535

>  <SCORE.INTRA.SOLV.lig_0>
-82.9561

>  <SCORE.INTRA.VDW>
0.177914

>  <SCORE.INTRA.VDW.0>
-3.29171

>  <SCORE.INTRA.norm>
0.0373749

>  <SCORE.RESTR>
0.203866

>  <SCORE.RESTR.CAVITY>
0.203866

>  <SCORE.RESTR.norm>
0.00784101

>  <SCORE.SYSTEM>
0

>  <SCORE.SYSTEM.CONST>
0

>  <SCORE.SYSTEM.DIHEDRAL>
0

>  <SCORE.SYSTEM.SOLV>
0

>  <SCORE.SYSTEM.norm>
0

>  <SCORE.heavy>
26

>  <SCORE.norm>
-0.254547

>  <RMSD>
18.724

$$$$
ligand
 OpenBabel11021811433D
libRbt.so/2013.1/901 2013/11/27
 26 27  0  0  0  0  0  0  0  0999 V2000
   -9.8517   -3.2404    6.2691 C   0  0  0  0  0  0  0  0  0  0  0  0
   -5.1456   -7.8023    9.5692 C   0  0  0  0  0  0  0  0  0  0  0  0
   -4.1123   -4.1440    9.2047 P   0  0  1  0  0  0  0  0  0  0  0  0
   -4.2661   -2.0370    7.2057 P   0  0  1  0  0  0  0  0  0  0  0  0
   -8.0026   -7.1413   10.0634 C   0  0  0  0  0  0  0  0  0  0  0  0
   -7.6483   -5.6291    8.0689 C   0  0  0  0  0  0  0  0  0  0  0  0
   -8.4899   -6.1025    9.0676 C   0  0  0  0  0  0  0  0  0  0  0  0
   -9.7865   -5.6186    9.1292 C   0  0  0  0  0  0  0  0  0  0  0  0
  -10.6436   -6.0497   10.0863 N   0  0  0  0  0  0  0  0  0  0  0  0
  -10.2021   -4.7055    8.2247 N   0  0  0  0  0  0  0  0  0  0  0  0
   -9.3643   -4.2591    7.2635 C   0  0  0  0  0  0  0  0  0  0  0  0
   -8.0921   -4.7208    7.1888 N   0  0  0  0  0  0  0  0  0  0  0  0
   -5.4220   -3.8939    9.9052 O   0  5  0  0  0  0  0  0  0  0  0  0
   -5.5995   -1.4844    7.6058 O   0  0  0  0  0  0  0  0  0  0  0  0
   -5.6906   -5.3045   12.7220 S   0  0  0  0  0  0  0  0  0  0  0  0
   -7.1763   -5.7594   11.9482 C   0  0  0  0  0  0  0  0  0  0  0  0
   -4.0554   -5.2920    8.2385 O   0  0  0  0  0  0  0  0  0  0  0  0
   -3.3349   -0.9109    6.9027 O   0  5  0  0  0  0  0  0  0  0  0  0
   -6.9343   -6.5955   10.9008 N   0  0  0  0  0  0  0  0  0  0  0  0
   -3.6351   -2.7576    8.5139 O   0  0  0  0  0  0  0  0  0  0  0  0
   -4.2837   -3.0858    6.1272 O   0  0  0  0  0  0  0  0  0  0  0  0
   -5.6268   -6.8990   10.6733 C   0  0  1  0  0  0  0  0  0  0  0  0
   -4.7220   -6.2454   11.6574 C   0  0  1  0  0  0  0  0  0  0  0  0
   -3.2322   -6.2275   11.8746 C   0  0  0  0  0  0  0  0  0  0  0  0
   -2.5586   -5.7552   10.5958 C   0  0  0  0  0  0  0  0  0  0  0  0
   -2.9970   -4.4291   10.3268 O   0  0  0  0  0  0  0  0  0  0  0  0
  1 11  1  0  0  0  0
  3 13  1  1  0  0  0
  3 17  2  0  0  0  0
  3 20  1  0  0  0  0
  3 26  1  0  0  0  0
  4 14  1  1  0  0  0
  4 18  1  0  0  0  0
  4 21  2  0  0  0  0
  4 20  1  0  0  0  0
  5 19  1  0  0  0  0
  5  7  1  0  0  0  0
  6  7  2  0  0  0  0
  6 12  1  0  0  0  0
  7  8  1  0  0  0  0
  8  9  1  0  0  0  0
  8 10  2  0  0  0  0
 10 11  1  0  0  0  0
 11 12  2  0  0  0  0
 15 23  1  0  0  0  0
 15 16  1  0  0  0  0
 16 19  1  0  0  0  0
 19 22  1  0  0  0  0
 22  2  1  1  0  0  0
 22 23  1  0  0  0  0
 23 24  1  6  0  0  0
 24 25  1  0  0  0  0
 25 26  1  0  0  0  0
M  CHG  2  13  -1  18  -1
M  END
>  <CHROM.1>
-72.44169755,77.98623455,65.10612642,71.52596874,-122.56289164,62.08656345
-102.39662583,102.52844144,-5.89812494,-4.64110987,9.22114028,2.57370714
0.25269368,2.27786137

>  <Name>
ligand

>  <RI>
0

>  <Rbt.Current_Directory>
/home/itssahil/PROJECTS/Mol_Feturizer/New_Systems/rnas/2GDI

>  <Rbt.Executable>
rbdock ($Id: //depot/dev/client3/rdock/2013.1/src/exe/rbdock.cxx#4 $)

>  <Rbt.Library>
libRbt.so (2013.1, Build901 2013/11/27)

>  <Rbt.Parameter_File>
/export/apps/rDock/src/rDock_2013.1_src/data/scripts/dock_solv.prm

>  <Rbt.Receptor>
prm/blind_docking_100.prm

>  <SCORE>
-7.64138

>  <SCORE.INTER>
-9.88915

>  <SCORE.INTER.CONST>
1

>  <SCORE.INTER.POLAR>
0

>  <SCORE.INTER.ROT>
8

>  <SCORE.INTER.SOLV>
14.5464

>  <SCORE.INTER.VDW>
-20.3749

>  <SCORE.INTER.norm>
-0.380352

>  <SCORE.INTRA>
2.19026

>  <SCORE.INTRA.DIHEDRAL>
4.18704

>  <SCORE.INTRA.DIHEDRAL.0>
8.13976

>  <SCORE.INTRA.POLAR>
0

>  <SCORE.INTRA.POLAR.0>
0

>  <SCORE.INTRA.REPUL>
0

>  <SCORE.INTRA.REPUL.0>
0

>  <SCORE.INTRA.SOLV>
5.63164

>  <SCORE.INTRA.SOLV.lig_0>
-82.9561

>  <SCORE.INTRA.VDW>
-2.71908

>  <SCORE.INTRA.VDW.0>
-3.29171

>  <SCORE.INTRA.norm>
0.0842409

>  <SCORE.RESTR>
0.0575097

>  <SCORE.RESTR.CAVITY>
0.0575097

>  <SCORE.RESTR.norm>
0.00221191

>  <SCORE.SYSTEM>
0

>  <SCORE.SYSTEM.CONST>
0

>  <SCORE.SYSTEM.DIHEDRAL>
0

>  <SCORE.SYSTEM.SOLV>
0

>  <SCORE.SYSTEM.norm>
0

>  <SCORE.heavy>
26

>  <SCORE.norm>
-0.293899

>  <RMSD>
18.749

$$$$
ligand
 OpenBabel11021811433D
libRbt.so/2013.1/901 2013/11/27
 26 27  0  0  0  0  0  0  0  0999 V2000
   -9.6273   -4.1578    6.6994 C   0  0  0  0  0  0  0  0  0  0  0  0
   -5.3542   -7.8907    9.0729 C   0  0  0  0  0  0  0  0  0  0  0  0
   -3.6498   -5.6094    5.7288 P   0  0  1  0  0  0  0  0  0  0  0  0
   -3.9231   -2.8964    6.7406 P   0  0  1  0  0  0  0  0  0  0  0  0
   -6.5255   -6.0949   11.1334 C   0  0  0  0  0  0  0  0  0  0  0  0
   -6.7369   -4.9200    8.9052 C   0  0  0  0  0  0  0  0  0  0  0  0
   -7.3484   -5.5744    9.9671 C   0  0  0  0  0  0  0  0  0  0  0  0
   -8.7214   -5.7551    9.9350 C   0  0  0  0  0  0  0  0  0  0  0  0
   -9.3624   -6.3865   10.9483 N   0  0  0  0  0  0  0  0  0  0  0  0
   -9.4308   -5.2961    8.8811 N   0  0  0  0  0  0  0  0  0  0  0  0
   -8.8136   -4.6611    7.8608 C   0  0  0  0  0  0  0  0  0  0  0  0
   -7.4711   -4.4746    7.8761 N   0  0  0  0  0  0  0  0  0  0  0  0
   -4.6486   -6.6767    5.3659 O   0  5  0  0  0  0  0  0  0  0  0  0
   -2.5936   -2.5508    6.1435 O   0  0  0  0  0  0  0  0  0  0  0  0
   -2.6171   -5.4532   10.8175 S   0  0  0  0  0  0  0  0  0  0  0  0
   -4.2239   -5.2247   11.4333 C   0  0  0  0  0  0  0  0  0  0  0  0
   -2.4867   -5.4093    4.8004 O   0  0  0  0  0  0  0  0  0  0  0  0
   -4.9125   -1.8349    6.3923 O   0  5  0  0  0  0  0  0  0  0  0  0
   -5.0981   -6.0660   10.8146 N   0  0  0  0  0  0  0  0  0  0  0  0
   -4.4564   -4.2267    5.9825 O   0  0  0  0  0  0  0  0  0  0  0  0
   -3.9199   -3.2325    8.2070 O   0  0  0  0  0  0  0  0  0  0  0  0
   -4.5632   -6.8887    9.8709 C   0  0  1  0  0  0  0  0  0  0  0  0
   -3.0946   -6.6957    9.7288 C   0  0  1  0  0  0  0  0  0  0  0  0
   -2.0257   -7.3121    8.8658 C   0  0  0  0  0  0  0  0  0  0  0  0
   -2.4810   -7.2627    7.4158 C   0  0  0  0  0  0  0  0  0  0  0  0
   -3.0341   -5.9759    7.1679 O   0  0  0  0  0  0  0  0  0  0  0  0
  1 11  1  0  0  0  0
  3 13  1  6  0  0  0
  3 17  2  0  0  0  0
  3 20  1  0  0  0  0
  3 26  1  0  0  0  0
  4 14  1  6  0  0  0
  4 18  1  0  0  0  0
  4 21  2  0  0  0  0
  4 20  1  0  0  0  0
  5 19  1  0  0  0  0
  5  7  1  0  0  0  0
  6  7  2  0  0  0  0
  6 12  1  0  0  0  0
  7  8  1  0  0  0  0
  8  9  1  0  0  0  0
  8 10  2  0  0  0  0
 10 11  1  0  0  0  0
 11 12  2  0  0  0  0
 15 23  1  0  0  0  0
 15 16  1  0  0  0  0
 16 19  1  0  0  0  0
 19 22  1  0  0  0  0
 22  2  1  1  0  0  0
 22 23  1  0  0  0  0
 23 24  1  6  0  0  0
 24 25  1  0  0  0  0
 25 26  1  0  0  0  0
M  CHG  2  13  -1  18  -1
M  END
>  <CHROM.1>
163.43346153,111.89811648,-12.27379642,49.99530587,-127.83138740,44.07862347
-178.28607995,52.41010537,-4.96596806,-5.20301851,8.15844545,2.59215112,-0.16181213
2.08968345

>  <Name>
ligand

>  <RI>
0

>  <Rbt.Current_Directory>
/home/itssahil/PROJECTS/Mol_Feturizer/New_Systems/rnas/2GDI

>  <Rbt.Executable>
rbdock ($Id: //depot/dev/client3/rdock/2013.1/src/exe/rbdock.cxx#4 $)

>  <Rbt.Library>
libRbt.so (2013.1, Build901 2013/11/27)

>  <Rbt.Parameter_File>
/export/apps/rDock/src/rDock_2013.1_src/data/scripts/dock_solv.prm

>  <Rbt.Receptor>
prm/blind_docking_20.prm

>  <SCORE>
-11.394

>  <SCORE.INTER>
-9.20157

>  <SCORE.INTER.CONST>
1

>  <SCORE.INTER.POLAR>
0

>  <SCORE.INTER.ROT>
8

>  <SCORE.INTER.SOLV>
12.588

>  <SCORE.INTER.VDW>
-19.2637

>  <SCORE.INTER.norm>
-0.353907

>  <SCORE.INTRA>
-2.19242

>  <SCORE.INTRA.DIHEDRAL>
-1.86714

>  <SCORE.INTRA.DIHEDRAL.0>
8.13976

>  <SCORE.INTRA.POLAR>
0

>  <SCORE.INTRA.POLAR.0>
0

>  <SCORE.INTRA.REPUL>
0

>  <SCORE.INTRA.REPUL.0>
0

>  <SCORE.INTRA.SOLV>
0.894507

>  <SCORE.INTRA.SOLV.lig_0>
-82.9561

>  <SCORE.INTRA.VDW>
-1.70611

>  <SCORE.INTRA.VDW.0>
-3.29171

>  <SCORE.INTRA.norm>
-0.084324

>  <SCORE.RESTR>
0

>  <SCORE.RESTR.CAVITY>
0

>  <SCORE.RESTR.norm>
0

>  <SCORE.SYSTEM>
0

>  <SCORE.SYSTEM.CONST>
0

>  <SCORE.SYSTEM.DIHEDRAL>
0

>  <SCORE.SYSTEM.SOLV>
0

>  <SCORE.SYSTEM.norm>
0

>  <SCORE.heavy>
26

>  <SCORE.norm>
-0.438231

>  <RMSD>
18.759

$$$$
ligand
 OpenBabel11021811433D
libRbt.so/2013.1/901 2013/11/27
 26 27  0  0  0  0  0  0  0  0999 V2000
  -10.7430   -6.6774    9.3303 C   0  0  0  0  0  0  0  0  0  0  0  0
   -4.5763   -4.7387    9.6728 C   0  0  0  0  0  0  0  0  0  0  0  0
   -4.0322   -6.5542    6.1322 P   0  0  1  0  0  0  0  0  0  0  0  0
   -3.9458   -3.6846    5.6664 P   0  0  1  0  0  0  0  0  0  0  0  0
   -6.0508   -5.0697   12.2340 C   0  0  0  0  0  0  0  0  0  0  0  0
   -7.7306   -4.7679   10.3692 C   0  0  0  0  0  0  0  0  0  0  0  0
   -7.2972   -5.4903   11.4738 C   0  0  0  0  0  0  0  0  0  0  0  0
   -8.0164   -6.6094   11.8603 C   0  0  0  0  0  0  0  0  0  0  0  0
   -7.6330   -7.3449   12.9320 N   0  0  0  0  0  0  0  0  0  0  0  0
   -9.1136   -6.9723   11.1610 N   0  0  0  0  0  0  0  0  0  0  0  0
   -9.5162   -6.2526   10.0910 C   0  0  0  0  0  0  0  0  0  0  0  0
   -8.8253   -5.1542    9.6993 N   0  0  0  0  0  0  0  0  0  0  0  0
   -5.4928   -6.4884    6.4937 O   0  5  0  0  0  0  0  0  0  0  0  0
   -5.0719   -3.6792    6.6541 O   0  0  0  0  0  0  0  0  0  0  0  0
   -3.1171   -7.7380   11.9861 S   0  0  0  0  0  0  0  0  0  0  0  0
   -4.4700   -6.9205   12.7035 C   0  0  0  0  0  0  0  0  0  0  0  0
   -3.5437   -7.8054    5.4610 O   0  0  0  0  0  0  0  0  0  0  0  0
   -2.6949   -3.2281    6.3404 O   0  5  0  0  0  0  0  0  0  0  0  0
   -4.9176   -5.9272   11.8864 N   0  0  0  0  0  0  0  0  0  0  0  0
   -3.6640   -5.2315    5.2709 O   0  0  0  0  0  0  0  0  0  0  0  0
   -4.2036   -2.9689    4.3685 O   0  0  0  0  0  0  0  0  0  0  0  0
   -4.2435   -5.7744   10.7135 C   0  0  1  0  0  0  0  0  0  0  0  0
   -3.1431   -6.7656   10.5681 C   0  0  1  0  0  0  0  0  0  0  0  0
   -2.1081   -7.0491    9.5120 C   0  0  0  0  0  0  0  0  0  0  0  0
   -2.8140   -7.5321    8.2547 C   0  0  0  0  0  0  0  0  0  0  0  0
   -3.1793   -6.3929    7.4853 O   0  0  0  0  0  0  0  0  0  0  0  0
  1 11  1  0  0  0  0
  3 13  1  1  0  0  0
  3 17  2  0  0  0  0
  3 20  1  0  0  0  0
  3 26  1  0  0  0  0
  4 14  1  1  0  0  0
  4 18  1  0  0  0  0
  4 21  2  0  0  0  0
  4 20  1  0  0  0  0
  5 19  1  0  0  0  0
  5  7  1  0  0  0  0
  6  7  2  0  0  0  0
  6 12  1  0  0  0  0
  7  8  1  0  0  0  0
  8  9  1  0  0  0  0
  8 10  2  0  0  0  0
 10 11  1  0  0  0  0
 11 12  2  0  0  0  0
 15 23  1  0  0  0  0
 15 16  1  0  0  0  0
 16 19  1  0  0  0  0
 19 22  1  0  0  0  0
 22  2  1  6  0  0  0
 22 23  1  0  0  0  0
 23 24  1  1  0  0  0
 24 25  1  0  0  0  0
 25 26  1  0  0  0  0
M  CHG  2  13  -1  18  -1
M  END
>  <CHROM.1>
52.45264626,-102.97512430,-102.69620314,-22.86632315,115.45950327,86.94256920
-175.99858062,89.76572641,-5.11028643,-5.86330073,8.85438911,2.10756130,-0.18542126
1.94764997

>  <Name>
ligand

>  <RI>
0

>  <Rbt.Current_Directory>
/home/itssahil/PROJECTS/Mol_Feturizer/New_Systems/rnas/2GDI

>  <Rbt.Executable>
rbdock ($Id: //depot/dev/client3/rdock/2013.1/src/exe/rbdock.cxx#4 $)

>  <Rbt.Library>
libRbt.so (2013.1, Build901 2013/11/27)

>  <Rbt.Parameter_File>
/export/apps/rDock/src/rDock_2013.1_src/data/scripts/dock_solv.prm

>  <Rbt.Receptor>
prm/blind_docking_20.prm

>  <SCORE>
-7.96689

>  <SCORE.INTER>
-8.40037

>  <SCORE.INTER.CONST>
1

>  <SCORE.INTER.POLAR>
0

>  <SCORE.INTER.ROT>
8

>  <SCORE.INTER.SOLV>
13.6214

>  <SCORE.INTER.VDW>
-19.074

>  <SCORE.INTER.norm>
-0.323091

>  <SCORE.INTRA>
0.433475

>  <SCORE.INTRA.DIHEDRAL>
1.27355

>  <SCORE.INTRA.DIHEDRAL.0>
8.13976

>  <SCORE.INTRA.POLAR>
0

>  <SCORE.INTRA.POLAR.0>
0

>  <SCORE.INTRA.REPUL>
0

>  <SCORE.INTRA.REPUL.0>
0

>  <SCORE.INTRA.SOLV>
1.8316

>  <SCORE.INTRA.SOLV.lig_0>
-82.9561

>  <SCORE.INTRA.VDW>
-1.1191

>  <SCORE.INTRA.VDW.0>
-3.29171

>  <SCORE.INTRA.norm>
0.0166721

>  <SCORE.RESTR>
0

>  <SCORE.RESTR.CAVITY>
0

>  <SCORE.RESTR.norm>
0

>  <SCORE.SYSTEM>
0

>  <SCORE.SYSTEM.CONST>
0

>  <SCORE.SYSTEM.DIHEDRAL>
0

>  <SCORE.SYSTEM.SOLV>
0

>  <SCORE.SYSTEM.norm>
0

>  <SCORE.heavy>
26

>  <SCORE.norm>
-0.306419

>  <RMSD>
18.877

$$$$
ligand
 OpenBabel11021811433D
libRbt.so/2013.1/901 2013/11/27
 26 27  0  0  0  0  0  0  0  0999 V2000
  -10.9428   -6.9462   10.0520 C   0  0  0  0  0  0  0  0  0  0  0  0
   -7.0883   -1.4621    6.9091 C   0  0  0  0  0  0  0  0  0  0  0  0
   -2.7669   -5.2278    4.8453 P   0  0  1  0  0  0  0  0  0  0  0  0
   -1.7108   -7.3716    6.5027 P   0  0  1  0  0  0  0  0  0  0  0  0
   -7.3470   -2.4769    9.6924 C   0  0  0  0  0  0  0  0  0  0  0  0
   -8.9757   -4.1156    8.6667 C   0  0  0  0  0  0  0  0  0  0  0  0
   -8.3050   -3.6520    9.7914 C   0  0  0  0  0  0  0  0  0  0  0  0
   -8.5165   -4.2908   11.0022 C   0  0  0  0  0  0  0  0  0  0  0  0
   -7.8857   -3.8737   12.1267 N   0  0  0  0  0  0  0  0  0  0  0  0
   -9.3623   -5.3422   11.0636 N   0  0  0  0  0  0  0  0  0  0  0  0
  -10.0045   -5.7738    9.9561 C   0  0  0  0  0  0  0  0  0  0  0  0
   -9.8103   -5.1600    8.7633 N   0  0  0  0  0  0  0  0  0  0  0  0
   -2.4455   -4.7018    3.4711 O   0  5  0  0  0  0  0  0  0  0  0  0
   -2.9626   -7.0917    7.2761 O   0  0  0  0  0  0  0  0  0  0  0  0
   -3.9798   -3.8072    8.0555 S   0  0  0  0  0  0  0  0  0  0  0  0
   -5.1780   -3.6096    9.2958 C   0  0  0  0  0  0  0  0  0  0  0  0
   -4.1958   -5.5935    5.1267 O   0  0  0  0  0  0  0  0  0  0  0  0
   -1.7402   -8.7790    6.0071 O   0  5  0  0  0  0  0  0  0  0  0  0
   -6.1946   -2.8164    8.8575 N   0  0  0  0  0  0  0  0  0  0  0  0
   -1.7614   -6.4583    5.1641 O   0  0  0  0  0  0  0  0  0  0  0  0
   -0.4190   -7.0222    7.1901 O   0  0  0  0  0  0  0  0  0  0  0  0
   -6.0775   -2.3510    7.5835 C   0  0  1  0  0  0  0  0  0  0  0  0
   -4.8365   -2.8381    6.9224 C   0  0  1  0  0  0  0  0  0  0  0  0
   -4.2162   -2.6446    5.5642 C   0  0  0  0  0  0  0  0  0  0  0  0
   -2.7045   -2.7360    5.7011 C   0  0  0  0  0  0  0  0  0  0  0  0
   -2.3598   -4.0992    5.9153 O   0  0  0  0  0  0  0  0  0  0  0  0
  1 11  1  0  0  0  0
  3 13  1  6  0  0  0
  3 17  2  0  0  0  0
  3 20  1  0  0  0  0
  3 26  1  0  0  0  0
  4 14  1  1  0  0  0
  4 18  1  0  0  0  0
  4 21  2  0  0  0  0
  4 20  1  0  0  0  0
  5 19  1  0  0  0  0
  5  7  1  0  0  0  0
  6  7  2  0  0  0  0
  6 12  1  0  0  0  0
  7  8  1  0  0  0  0
  8  9  1  0  0  0  0
  8 10  2  0  0  0  0
 10 11  1  0  0  0  0
 11 12  2  0  0  0  0
 15 23  1  0  0  0  0
 15 16  1  0  0  0  0
 16 19  1  0  0  0  0
 19 22  1  0  0  0  0
 22  2  1  6  0  0  0
 22 23  1  0  0  0  0
 23 24  1  1  0  0  0
 24 25  1  0  0  0  0
 25 26  1  0  0  0  0
M  CHG  2  13  -1  18  -1
M  END
>  <CHROM.1>
-179.21107717,-75.89318820,-65.01179945,12.84998246,-28.78053056,73.25633987
58.30575999,45.01990306,-4.97467895,-4.80452100,7.48833181,3.09788075,0.59772546
-0.28148720

>  <Name>
ligand

>  <RI>
0

>  <Rbt.Current_Directory>
/home/itssahil/PROJECTS/Mol_Feturizer/New_Systems/rnas/2GDI

>  <Rbt.Executable>
rbdock ($Id: //depot/dev/client3/rdock/2013.1/src/exe/rbdock.cxx#4 $)

>  <Rbt.Library>
libRbt.so (2013.1, Build901 2013/11/27)

>  <Rbt.Parameter_File>
/export/apps/rDock/src/rDock_2013.1_src/data/scripts/dock_solv.prm

>  <Rbt.Receptor>
prm/blind_docking_20.prm

>  <SCORE>
-2.264

>  <SCORE.INTER>
-5.45761

>  <SCORE.INTER.CONST>
1

>  <SCORE.INTER.POLAR>
0

>  <SCORE.INTER.ROT>
8

>  <SCORE.INTER.SOLV>
15.764

>  <SCORE.INTER.VDW>
-17.8264

>  <SCORE.INTER.norm>
-0.209908

>  <SCORE.INTRA>
3.19361

>  <SCORE.INTRA.DIHEDRAL>
0.297424

>  <SCORE.INTRA.DIHEDRAL.0>
8.13976

>  <SCORE.INTRA.POLAR>
0

>  <SCORE.INTRA.POLAR.0>
0

>  <SCORE.INTRA.REPUL>
0

>  <SCORE.INTRA.REPUL.0>
0

>  <SCORE.INTRA.SOLV>
1.15584

>  <SCORE.INTRA.SOLV.lig_0>
-82.9561

>  <SCORE.INTRA.VDW>
2.46698

>  <SCORE.INTRA.VDW.0>
-3.29171

>  <SCORE.INTRA.norm>
0.122831

>  <SCORE.RESTR>
0

>  <SCORE.RESTR.CAVITY>
0

>  <SCORE.RESTR.norm>
0

>  <SCORE.SYSTEM>
0

>  <SCORE.SYSTEM.CONST>
0

>  <SCORE.SYSTEM.DIHEDRAL>
0

>  <SCORE.SYSTEM.SOLV>
0

>  <SCORE.SYSTEM.norm>
0

>  <SCORE.heavy>
26

>  <SCORE.norm>
-0.0870769

>  <RMSD>
18.915

$$$$
ligand
 OpenBabel11021811433D
libRbt.so/2013.1/901 2013/11/27
 26 27  0  0  0  0  0  0  0  0999 V2000
   -9.8331   -3.4069    7.9264 C   0  0  0  0  0  0  0  0  0  0  0  0
   -5.9780   -7.2757    9.6887 C   0  0  0  0  0  0  0  0  0  0  0  0
   -4.2311   -4.6546    7.4096 P   0  0  1  0  0  0  0  0  0  0  0  0
   -3.0533   -4.0777    4.8138 P   0  0  1  0  0  0  0  0  0  0  0  0
   -6.2003   -5.3427   11.9375 C   0  0  0  0  0  0  0  0  0  0  0  0
   -6.7647   -3.8573    9.9714 C   0  0  0  0  0  0  0  0  0  0  0  0
   -7.1652   -4.8247   10.8844 C   0  0  0  0  0  0  0  0  0  0  0  0
   -8.4575   -5.3175   10.8070 C   0  0  0  0  0  0  0  0  0  0  0  0
   -8.8940   -6.2609   11.6764 N   0  0  0  0  0  0  0  0  0  0  0  0
   -9.2936   -4.8521    9.8535 N   0  0  0  0  0  0  0  0  0  0  0  0
   -8.8813   -3.9097    8.9778 C   0  0  0  0  0  0  0  0  0  0  0  0
   -7.6207   -3.4154    9.0395 N   0  0  0  0  0  0  0  0  0  0  0  0
   -3.9241   -4.2300    8.8217 O   0  5  0  0  0  0  0  0  0  0  0  0
   -1.6839   -3.6339    4.3998 O   0  0  0  0  0  0  0  0  0  0  0  0
   -2.4021   -5.7381   10.8399 S   0  0  0  0  0  0  0  0  0  0  0  0
   -3.7369   -5.1262   11.7657 C   0  0  0  0  0  0  0  0  0  0  0  0
   -5.6197   -4.3977    6.8990 O   0  0  0  0  0  0  0  0  0  0  0  0
   -3.2263   -5.5223    4.4817 O   0  5  0  0  0  0  0  0  0  0  0  0
   -4.9078   -5.6746   11.3379 N   0  0  0  0  0  0  0  0  0  0  0  0
   -3.1075   -4.0139    6.4330 O   0  0  0  0  0  0  0  0  0  0  0  0
   -4.1962   -3.2270    4.3305 O   0  0  0  0  0  0  0  0  0  0  0  0
   -4.8076   -6.5597   10.3084 C   0  0  1  0  0  0  0  0  0  0  0  0
   -3.3979   -6.7535    9.8732 C   0  0  1  0  0  0  0  0  0  0  0  0
   -2.7227   -7.5846    8.8147 C   0  0  0  0  0  0  0  0  0  0  0  0
   -2.6929   -6.7917    7.5175 C   0  0  0  0  0  0  0  0  0  0  0  0
   -3.9865   -6.2400    7.3047 O   0  0  0  0  0  0  0  0  0  0  0  0
  1 11  1  0  0  0  0
  3 13  1  1  0  0  0
  3 17  2  0  0  0  0
  3 20  1  0  0  0  0
  3 26  1  0  0  0  0
  4 14  1  6  0  0  0
  4 18  1  0  0  0  0
  4 21  2  0  0  0  0
  4 20  1  0  0  0  0
  5 19  1  0  0  0  0
  5  7  1  0  0  0  0
  6  7  2  0  0  0  0
  6 12  1  0  0  0  0
  7  8  1  0  0  0  0
  8  9  1  0  0  0  0
  8 10  2  0  0  0  0
 10 11  1  0  0  0  0
 11 12  2  0  0  0  0
 15 23  1  0  0  0  0
 15 16  1  0  0  0  0
 16 19  1  0  0  0  0
 19 22  1  0  0  0  0
 22  2  1  1  0  0  0
 22 23  1  0  0  0  0
 23 24  1  6  0  0  0
 24 25  1  0  0  0  0
 25 26  1  0  0  0  0
M  CHG  2  13  -1  18  -1
M  END
>  <CHROM.1>
-174.95657789,123.56307672,-47.18278921,-166.85830571,-90.83827631,-46.72950905
111.25980119,-62.79186396,-4.93576851,-5.04813187,8.43748220,2.32069118,-0.28165663
1.95122309

>  <Name>
ligand

>  <RI>
0

>  <Rbt.Current_Directory>
/home/itssahil/PROJECTS/Mol_Feturizer/New_Systems/rnas/2GDI

>  <Rbt.Executable>
rbdock ($Id: //depot/dev/client3/rdock/2013.1/src/exe/rbdock.cxx#4 $)

>  <Rbt.Library>
libRbt.so (2013.1, Build901 2013/11/27)

>  <Rbt.Parameter_File>
/export/apps/rDock/src/rDock_2013.1_src/data/scripts/dock_solv.prm

>  <Rbt.Receptor>
prm/blind_docking_20.prm

>  <SCORE>
-2.46456

>  <SCORE.INTER>
-6.55748

>  <SCORE.INTER.CONST>
1

>  <SCORE.INTER.POLAR>
0

>  <SCORE.INTER.ROT>
8

>  <SCORE.INTER.SOLV>
12.5803

>  <SCORE.INTER.VDW>
-17.4984

>  <SCORE.INTER.norm>
-0.252211

>  <SCORE.INTRA>
4.09275

>  <SCORE.INTRA.DIHEDRAL>
4.58296

>  <SCORE.INTRA.DIHEDRAL.0>
8.13976

>  <SCORE.INTRA.POLAR>
0

>  <SCORE.INTRA.POLAR.0>
0

>  <SCORE.INTRA.REPUL>
0

>  <SCORE.INTRA.REPUL.0>
0

>  <SCORE.INTRA.SOLV>
8.29988

>  <SCORE.INTRA.SOLV.lig_0>
-82.9561

>  <SCORE.INTRA.VDW>
-2.34867

>  <SCORE.INTRA.VDW.0>
-3.29171

>  <SCORE.INTRA.norm>
0.157413

>  <SCORE.RESTR>
0.000173749

>  <SCORE.RESTR.CAVITY>
0.000173749

>  <SCORE.RESTR.norm>
6.68265e-06

>  <SCORE.SYSTEM>
0

>  <SCORE.SYSTEM.CONST>
0

>  <SCORE.SYSTEM.DIHEDRAL>
0

>  <SCORE.SYSTEM.SOLV>
0

>  <SCORE.SYSTEM.norm>
0

>  <SCORE.heavy>
26

>  <SCORE.norm>
-0.0947907

>  <RMSD>
18.970

$$$$
ligand
 OpenBabel11021811433D
libRbt.so/2013.1/901 2013/11/27
 26 27  0  0  0  0  0  0  0  0999 V2000
  -10.1370   -5.5396    7.3330 C   0  0  0  0  0  0  0  0  0  0  0  0
   -6.8999   -7.5285   11.8003 C   0  0  0  0  0  0  0  0  0  0  0  0
   -3.8365   -6.8977    8.7375 P   0  0  1  0  0  0  0  0  0  0  0  0
   -1.4129   -7.3839    7.2050 P   0  0  1  0  0  0  0  0  0  0  0  0
   -8.8012   -5.5366   12.9231 C   0  0  0  0  0  0  0  0  0  0  0  0
   -9.8313   -6.6074   10.8779 C   0  0  0  0  0  0  0  0  0  0  0  0
   -9.1444   -5.5403   11.4430 C   0  0  0  0  0  0  0  0  0  0  0  0
   -8.7906   -4.4736   10.6332 C   0  0  0  0  0  0  0  0  0  0  0  0
   -8.1189   -3.4109   11.1390 N   0  0  0  0  0  0  0  0  0  0  0  0
   -9.1185   -4.4925    9.3229 N   0  0  0  0  0  0  0  0  0  0  0  0
   -9.7854   -5.5426    8.7960 C   0  0  0  0  0  0  0  0  0  0  0  0
  -10.1386   -6.5953    9.5734 N   0  0  0  0  0  0  0  0  0  0  0  0
   -4.0708   -5.4691    8.3218 O   0  5  0  0  0  0  0  0  0  0  0  0
    0.0395   -7.3306    7.5676 O   0  0  0  0  0  0  0  0  0  0  0  0
   -5.0685   -4.5486   13.8601 S   0  0  0  0  0  0  0  0  0  0  0  0
   -6.7965   -4.3884   13.8217 C   0  0  0  0  0  0  0  0  0  0  0  0
   -4.6823   -7.9531    8.0852 O   0  0  0  0  0  0  0  0  0  0  0  0
   -1.7497   -8.7520    6.7130 O   0  5  0  0  0  0  0  0  0  0  0  0
   -7.3569   -5.4122   13.1200 N   0  0  0  0  0  0  0  0  0  0  0  0
   -2.2554   -7.2176    8.5803 O   0  0  0  0  0  0  0  0  0  0  0  0
   -1.9039   -6.2969    6.2883 O   0  0  0  0  0  0  0  0  0  0  0  0
   -6.4877   -6.3249   12.6052 C   0  0  1  0  0  0  0  0  0  0  0  0
   -5.0748   -6.0048   12.9456 C   0  0  1  0  0  0  0  0  0  0  0  0
   -3.7446   -6.6447   12.6487 C   0  0  0  0  0  0  0  0  0  0  0  0
   -3.3202   -6.2566   11.2411 C   0  0  0  0  0  0  0  0  0  0  0  0
   -4.1043   -7.0037   10.3191 O   0  0  0  0  0  0  0  0  0  0  0  0
  1 11  1  0  0  0  0
  3 13  1  6  0  0  0
  3 17  2  0  0  0  0
  3 20  1  0  0  0  0
  3 26  1  0  0  0  0
  4 14  1  1  0  0  0
  4 18  1  0  0  0  0
  4 21  2  0  0  0  0
  4 20  1  0  0  0  0
  5 19  1  0  0  0  0
  5  7  1  0  0  0  0
  6  7  2  0  0  0  0
  6 12  1  0  0  0  0
  7  8  1  0  0  0  0
  8  9  1  0  0  0  0
  8 10  2  0  0  0  0
 10 11  1  0  0  0  0
 11 12  2  0  0  0  0
 15 23  1  0  0  0  0
 15 16  1  0  0  0  0
 16 19  1  0  0  0  0
 19 22  1  0  0  0  0
 22  2  1  1  0  0  0
 22 23  1  0  0  0  0
 23 24  1  6  0  0  0
 24 25  1  0  0  0  0
 25 26  1  0  0  0  0
M  CHG  2  13  -1  18  -1
M  END
>  <CHROM.1>
-70.91412674,121.00316709,122.10569623,166.17888754,-98.69973551,-74.79117138
-175.98070307,-61.42898945,-5.40680611,-6.19122660,10.07747247,2.57373657
-0.16766240,1.34408667

>  <Name>
ligand

>  <RI>
0

>  <Rbt.Current_Directory>
/home/itssahil/PROJECTS/Mol_Feturizer/New_Systems/rnas/2GDI

>  <Rbt.Executable>
rbdock ($Id: //depot/dev/client3/rdock/2013.1/src/exe/rbdock.cxx#4 $)

>  <Rbt.Library>
libRbt.so (2013.1, Build901 2013/11/27)

>  <Rbt.Parameter_File>
/export/apps/rDock/src/rDock_2013.1_src/data/scripts/dock_solv.prm

>  <Rbt.Receptor>
prm/blind_docking_20.prm

>  <SCORE>
-9.31654

>  <SCORE.INTER>
-9.99561

>  <SCORE.INTER.CONST>
1

>  <SCORE.INTER.POLAR>
0

>  <SCORE.INTER.ROT>
8

>  <SCORE.INTER.SOLV>
12.9033

>  <SCORE.INTER.VDW>
-19.8982

>  <SCORE.INTER.norm>
-0.384447

>  <SCORE.INTRA>
0.675175

>  <SCORE.INTRA.DIHEDRAL>
-2.04485

>  <SCORE.INTRA.DIHEDRAL.0>
8.13976

>  <SCORE.INTRA.POLAR>
0

>  <SCORE.INTRA.POLAR.0>
0

>  <SCORE.INTRA.REPUL>
0

>  <SCORE.INTRA.REPUL.0>
0

>  <SCORE.INTRA.SOLV>
4.19694

>  <SCORE.INTRA.SOLV.lig_0>
-82.9561

>  <SCORE.INTRA.VDW>
-0.400869

>  <SCORE.INTRA.VDW.0>
-3.29171

>  <SCORE.INTRA.norm>
0.0259683

>  <SCORE.RESTR>
0.00389945

>  <SCORE.RESTR.CAVITY>
0.00389945

>  <SCORE.RESTR.norm>
0.000149979

>  <SCORE.SYSTEM>
0

>  <SCORE.SYSTEM.CONST>
0

>  <SCORE.SYSTEM.DIHEDRAL>
0

>  <SCORE.SYSTEM.SOLV>
0

>  <SCORE.SYSTEM.norm>
0

>  <SCORE.heavy>
26

>  <SCORE.norm>
-0.358328

>  <RMSD>
19.029

$$$$
ligand
 OpenBabel11021811433D
libRbt.so/2013.1/901 2013/11/27
 26 27  0  0  0  0  0  0  0  0999 V2000
  -10.2456   -5.5003    7.8113 C   0  0  0  0  0  0  0  0  0  0  0  0
   -6.7823   -7.3690   11.8827 C   0  0  0  0  0  0  0  0  0  0  0  0
   -4.2832   -5.8350    8.7373 P   0  0  1  0  0  0  0  0  0  0  0  0
   -3.9324   -3.1906    7.5783 P   0  0  1  0  0  0  0  0  0  0  0  0
   -8.5391   -5.4324   13.2992 C   0  0  0  0  0  0  0  0  0  0  0  0
   -8.5846   -4.4588   10.9667 C   0  0  0  0  0  0  0  0  0  0  0  0
   -8.9995   -5.4462   11.8514 C   0  0  0  0  0  0  0  0  0  0  0  0
   -9.8304   -6.4513   11.3840 C   0  0  0  0  0  0  0  0  0  0  0  0
  -10.2621   -7.4352   12.2097 N   0  0  0  0  0  0  0  0  0  0  0  0
  -10.2158   -6.4509   10.0893 N   0  0  0  0  0  0  0  0  0  0  0  0
   -9.8003   -5.4785    9.2485 C   0  0  0  0  0  0  0  0  0  0  0  0
   -8.9880   -4.4868    9.6889 N   0  0  0  0  0  0  0  0  0  0  0  0
   -5.6749   -5.9744    8.1786 O   0  5  0  0  0  0  0  0  0  0  0  0
   -3.3597   -3.8837    6.3803 O   0  0  0  0  0  0  0  0  0  0  0  0
   -4.7204   -4.5683   13.9758 S   0  0  0  0  0  0  0  0  0  0  0  0
   -6.4416   -4.3800   14.0978 C   0  0  0  0  0  0  0  0  0  0  0  0
   -3.1928   -6.6293    8.0778 O   0  0  0  0  0  0  0  0  0  0  0  0
   -5.3769   -2.9018    7.3388 O   0  5  0  0  0  0  0  0  0  0  0  0
   -7.0810   -5.3437   13.3787 N   0  0  0  0  0  0  0  0  0  0  0  0
   -3.9186   -4.2570    8.7996 O   0  0  0  0  0  0  0  0  0  0  0  0
   -3.1716   -1.9904    8.0720 O   0  0  0  0  0  0  0  0  0  0  0  0
   -6.2780   -6.2310   12.7296 C   0  0  1  0  0  0  0  0  0  0  0  0
   -4.8349   -5.9567   12.9677 C   0  0  1  0  0  0  0  0  0  0  0  0
   -3.5485   -6.5941   12.5139 C   0  0  0  0  0  0  0  0  0  0  0  0
   -3.2039   -6.0655   11.1305 C   0  0  0  0  0  0  0  0  0  0  0  0
   -4.3199   -6.2918   10.2781 O   0  0  0  0  0  0  0  0  0  0  0  0
  1 11  1  0  0  0  0
  3 13  1  6  0  0  0
  3 17  2  0  0  0  0
  3 20  1  0  0  0  0
  3 26  1  0  0  0  0
  4 14  1  6  0  0  0
  4 18  1  0  0  0  0
  4 21  2  0  0  0  0
  4 20  1  0  0  0  0
  5 19  1  0  0  0  0
  5  7  1  0  0  0  0
  6  7  2  0  0  0  0
  6 12  1  0  0  0  0
  7  8  1  0  0  0  0
  8  9  1  0  0  0  0
  8 10  2  0  0  0  0
 10 11  1  0  0  0  0
 11 12  2  0  0  0  0
 15 23  1  0  0  0  0
 15 16  1  0  0  0  0
 16 19  1  0  0  0  0
 19 22  1  0  0  0  0
 22  2  1  1  0  0  0
 22 23  1  0  0  0  0
 23 24  1  6  0  0  0
 24 25  1  0  0  0  0
 25 26  1  0  0  0  0
M  CHG  2  13  -1  18  -1
M  END
>  <CHROM.1>
-56.41274848,125.81617408,-52.75565988,-40.62600436,-96.11820184,-54.51083690
179.54326866,-169.71029168,-6.00169611,-5.20625157,10.32134122,2.40027801
0.16109889,1.80370799

>  <Name>
ligand

>  <RI>
0

>  <Rbt.Current_Directory>
/home/itssahil/PROJECTS/Mol_Feturizer/New_Systems/rnas/2GDI

>  <Rbt.Executable>
rbdock ($Id: //depot/dev/client3/rdock/2013.1/src/exe/rbdock.cxx#4 $)

>  <Rbt.Library>
libRbt.so (2013.1, Build901 2013/11/27)

>  <Rbt.Parameter_File>
/export/apps/rDock/src/rDock_2013.1_src/data/scripts/dock_solv.prm

>  <Rbt.Receptor>
prm/blind_docking_20.prm

>  <SCORE>
-6.85313

>  <SCORE.INTER>
-6.4555

>  <SCORE.INTER.CONST>
1

>  <SCORE.INTER.POLAR>
0

>  <SCORE.INTER.ROT>
8

>  <SCORE.INTER.SOLV>
14.039

>  <SCORE.INTER.VDW>
-17.9167

>  <SCORE.INTER.norm>
-0.248289

>  <SCORE.INTRA>
-0.403679

>  <SCORE.INTRA.DIHEDRAL>
-2.65909

>  <SCORE.INTRA.DIHEDRAL.0>
8.13976

>  <SCORE.INTRA.POLAR>
0

>  <SCORE.INTRA.POLAR.0>
0

>  <SCORE.INTRA.REPUL>
0

>  <SCORE.INTRA.REPUL.0>
0

>  <SCORE.INTRA.SOLV>
1.76356

>  <SCORE.INTRA.SOLV.lig_0>
-82.9561

>  <SCORE.INTRA.VDW>
0.044083

>  <SCORE.INTRA.VDW.0>
-3.29171

>  <SCORE.INTRA.norm>
-0.0155261

>  <SCORE.RESTR>
0.0060512

>  <SCORE.RESTR.CAVITY>
0.0060512

>  <SCORE.RESTR.norm>
0.000232739

>  <SCORE.SYSTEM>
0

>  <SCORE.SYSTEM.CONST>
0

>  <SCORE.SYSTEM.DIHEDRAL>
0

>  <SCORE.SYSTEM.SOLV>
0

>  <SCORE.SYSTEM.norm>
0

>  <SCORE.heavy>
26

>  <SCORE.norm>
-0.263582

>  <RMSD>
19.088

$$$$
ligand
 OpenBabel11021811433D
libRbt.so/2013.1/901 2013/11/27
 26 27  0  0  0  0  0  0  0  0999 V2000
   -7.2956   -1.7714    9.4634 C   0  0  0  0  0  0  0  0  0  0  0  0
   -2.4595   -6.8881    9.7252 C   0  0  0  0  0  0  0  0  0  0  0  0
   -2.8445   -4.7838    5.5913 P   0  0  1  0  0  0  0  0  0  0  0  0
   -3.7440   -2.2074    6.5974 P   0  0  1  0  0  0  0  0  0  0  0  0
   -5.3842   -7.1415   10.1993 C   0  0  0  0  0  0  0  0  0  0  0  0
   -5.0839   -4.7558    9.4194 C   0  0  0  0  0  0  0  0  0  0  0  0
   -5.8874   -5.7199   10.0149 C   0  0  0  0  0  0  0  0  0  0  0  0
   -7.1615   -5.3628   10.4250 C   0  0  0  0  0  0  0  0  0  0  0  0
   -7.9813   -6.2683   11.0118 N   0  0  0  0  0  0  0  0  0  0  0  0
   -7.5926   -4.0963   10.2383 N   0  0  0  0  0  0  0  0  0  0  0  0
   -6.7918   -3.1758    9.6582 C   0  0  0  0  0  0  0  0  0  0  0  0
   -5.5419   -3.5074    9.2518 N   0  0  0  0  0  0  0  0  0  0  0  0
   -4.1800   -5.4420    5.3636 O   0  5  0  0  0  0  0  0  0  0  0  0
   -3.5452   -1.4864    7.8951 O   0  0  0  0  0  0  0  0  0  0  0  0
   -4.4279   -8.6948    6.6694 S   0  0  0  0  0  0  0  0  0  0  0  0
   -5.4736   -8.2347    7.9763 C   0  0  0  0  0  0  0  0  0  0  0  0
   -2.1300   -4.2397    4.3879 O   0  0  0  0  0  0  0  0  0  0  0  0
   -2.9835   -1.5071    5.5211 O   0  5  0  0  0  0  0  0  0  0  0  0
   -4.7621   -7.6347    8.9705 N   0  0  0  0  0  0  0  0  0  0  0  0
   -3.0263   -3.6543    6.7394 O   0  0  0  0  0  0  0  0  0  0  0  0
   -5.1704   -2.4922    6.2131 O   0  0  0  0  0  0  0  0  0  0  0  0
   -3.4229   -7.5180    8.7549 C   0  0  1  0  0  0  0  0  0  0  0  0
   -3.0191   -8.0724    7.4343 C   0  0  1  0  0  0  0  0  0  0  0  0
   -1.7120   -8.2077    6.6993 C   0  0  0  0  0  0  0  0  0  0  0  0
   -1.6382   -7.1265    5.6327 C   0  0  0  0  0  0  0  0  0  0  0  0
   -1.8645   -5.8694    6.2585 O   0  0  0  0  0  0  0  0  0  0  0  0
  1 11  1  0  0  0  0
  3 13  1  6  0  0  0
  3 17  2  0  0  0  0
  3 20  1  0  0  0  0
  3 26  1  0  0  0  0
  4 14  1  1  0  0  0
  4 18  1  0  0  0  0
  4 21  2  0  0  0  0
  4 20  1  0  0  0  0
  5 19  1  0  0  0  0
  5  7  1  0  0  0  0
  6  7  2  0  0  0  0
  6 12  1  0  0  0  0
  7  8  1  0  0  0  0
  8  9  1  0  0  0  0
  8 10  2  0  0  0  0
 10 11  1  0  0  0  0
 11 12  2  0  0  0  0
 15 23  1  0  0  0  0
 15 16  1  0  0  0  0
 16 19  1  0  0  0  0
 19 22  1  0  0  0  0
 22  2  1  6  0  0  0
 22 23  1  0  0  0  0
 23 24  1  1  0  0  0
 24 25  1  0  0  0  0
 25 26  1  0  0  0  0
M  CHG  2  13  -1  18  -1
M  END
>  <CHROM.1>
-74.12659382,-87.04611812,-46.59533540,-174.91694886,78.82073197,53.72996234
-135.48451807,54.97675413,-4.27140533,-5.14413774,7.63093978,3.12919047,-0.80198132
2.92134906

>  <Name>
ligand

>  <RI>
0

>  <Rbt.Current_Directory>
/home/itssahil/PROJECTS/Mol_Feturizer/New_Systems/rnas/2GDI

>  <Rbt.Executable>
rbdock ($Id: //depot/dev/client3/rdock/2013.1/src/exe/rbdock.cxx#4 $)

>  <Rbt.Library>
libRbt.so (2013.1, Build901 2013/11/27)

>  <Rbt.Parameter_File>
/export/apps/rDock/src/rDock_2013.1_src/data/scripts/dock_solv.prm

>  <Rbt.Receptor>
prm/blind_docking_100.prm

>  <SCORE>
-5.96756

>  <SCORE.INTER>
-6.92755

>  <SCORE.INTER.CONST>
1

>  <SCORE.INTER.POLAR>
0

>  <SCORE.INTER.ROT>
8

>  <SCORE.INTER.SOLV>
10.9239

>  <SCORE.INTER.VDW>
-17.193

>  <SCORE.INTER.norm>
-0.266444

>  <SCORE.INTRA>
0.94789

>  <SCORE.INTRA.DIHEDRAL>
3.50831

>  <SCORE.INTRA.DIHEDRAL.0>
8.13976

>  <SCORE.INTRA.POLAR>
0

>  <SCORE.INTRA.POLAR.0>
0

>  <SCORE.INTRA.REPUL>
0

>  <SCORE.INTRA.REPUL.0>
0

>  <SCORE.INTRA.SOLV>
3.8347

>  <SCORE.INTRA.SOLV.lig_0>
-82.9561

>  <SCORE.INTRA.VDW>
-2.72362

>  <SCORE.INTRA.VDW.0>
-3.29171

>  <SCORE.INTRA.norm>
0.0364573

>  <SCORE.RESTR>
0.012095

>  <SCORE.RESTR.CAVITY>
0.012095

>  <SCORE.RESTR.norm>
0.000465193

>  <SCORE.SYSTEM>
0

>  <SCORE.SYSTEM.CONST>
0

>  <SCORE.SYSTEM.DIHEDRAL>
0

>  <SCORE.SYSTEM.SOLV>
0

>  <SCORE.SYSTEM.norm>
0

>  <SCORE.heavy>
26

>  <SCORE.norm>
-0.229522

>  <RMSD>
19.190

$$$$
ligand
 OpenBabel11021811433D
libRbt.so/2013.1/901 2013/11/27
 26 27  0  0  0  0  0  0  0  0999 V2000
  -11.4754   -5.8167   10.9135 C   0  0  0  0  0  0  0  0  0  0  0  0
   -3.9685   -8.0907   12.1964 C   0  0  0  0  0  0  0  0  0  0  0  0
   -2.9932   -6.4743    5.7397 P   0  0  1  0  0  0  0  0  0  0  0  0
   -3.0457   -3.5780    5.4805 P   0  0  1  0  0  0  0  0  0  0  0  0
   -6.0351   -6.0266   12.7552 C   0  0  0  0  0  0  0  0  0  0  0  0
   -7.9268   -6.8478   11.2932 C   0  0  0  0  0  0  0  0  0  0  0  0
   -7.4708   -5.9629   12.2622 C   0  0  0  0  0  0  0  0  0  0  0  0
   -8.3546   -5.0303   12.7797 C   0  0  0  0  0  0  0  0  0  0  0  0
   -7.9555   -4.1457   13.7256 N   0  0  0  0  0  0  0  0  0  0  0  0
   -9.6302   -5.0013   12.3361 N   0  0  0  0  0  0  0  0  0  0  0  0
  -10.0498   -5.8713   11.3917 C   0  0  0  0  0  0  0  0  0  0  0  0
   -9.1983   -6.7899   10.8734 N   0  0  0  0  0  0  0  0  0  0  0  0
   -4.4904   -6.5419    5.5895 O   0  5  0  0  0  0  0  0  0  0  0  0
   -3.2998   -3.5375    6.9561 O   0  0  0  0  0  0  0  0  0  0  0  0
   -3.8693   -4.9774    9.5936 S   0  0  0  0  0  0  0  0  0  0  0  0
   -5.1106   -4.8206   10.7968 C   0  0  0  0  0  0  0  0  0  0  0  0
   -2.1937   -7.6257    5.2013 O   0  0  0  0  0  0  0  0  0  0  0  0
   -1.9200   -2.6565    5.1473 O   0  5  0  0  0  0  0  0  0  0  0  0
   -5.0976   -5.8895   11.6405 N   0  0  0  0  0  0  0  0  0  0  0  0
   -2.4870   -5.0596    5.1321 O   0  0  0  0  0  0  0  0  0  0  0  0
   -4.2473   -3.3739    4.5986 O   0  0  0  0  0  0  0  0  0  0  0  0
   -4.1521   -6.8353   11.3859 C   0  0  1  0  0  0  0  0  0  0  0  0
   -3.3033   -6.4767   10.2174 C   0  0  1  0  0  0  0  0  0  0  0  0
   -2.1464   -7.1312    9.5102 C   0  0  0  0  0  0  0  0  0  0  0  0
   -2.5955   -7.5410    8.1165 C   0  0  0  0  0  0  0  0  0  0  0  0
   -2.6569   -6.3722    7.3083 O   0  0  0  0  0  0  0  0  0  0  0  0
  1 11  1  0  0  0  0
  3 13  1  6  0  0  0
  3 17  2  0  0  0  0
  3 20  1  0  0  0  0
  3 26  1  0  0  0  0
  4 14  1  1  0  0  0
  4 18  1  0  0  0  0
  4 21  2  0  0  0  0
  4 20  1  0  0  0  0
  5 19  1  0  0  0  0
  5  7  1  0  0  0  0
  6  7  2  0  0  0  0
  6 12  1  0  0  0  0
  7  8  1  0  0  0  0
  8  9  1  0  0  0  0
  8 10  2  0  0  0  0
 10 11  1  0  0  0  0
 11 12  2  0  0  0  0
 15 23  1  0  0  0  0
 15 16  1  0  0  0  0
 16 19  1  0  0  0  0
 19 22  1  0  0  0  0
 22  2  1  1  0  0  0
 22 23  1  0  0  0  0
 23 24  1  6  0  0  0
 24 25  1  0  0  0  0
 25 26  1  0  0  0  0
M  CHG  2  13  -1  18  -1
M  END
>  <CHROM.1>
51.35160734,56.53408329,56.66700163,40.22116526,-65.92904528,75.61094421
175.31132160,83.34224817,-4.87414979,-5.59784060,8.87110188,2.34748257,-0.38366852
2.03420865

>  <Name>
ligand

>  <RI>
0

>  <Rbt.Current_Directory>
/home/itssahil/PROJECTS/Mol_Feturizer/New_Systems/rnas/2GDI

>  <Rbt.Executable>
rbdock ($Id: //depot/dev/client3/rdock/2013.1/src/exe/rbdock.cxx#4 $)

>  <Rbt.Library>
libRbt.so (2013.1, Build901 2013/11/27)

>  <Rbt.Parameter_File>
/export/apps/rDock/src/rDock_2013.1_src/data/scripts/dock_solv.prm

>  <Rbt.Receptor>
prm/blind_docking_20.prm

>  <SCORE>
-6.0707

>  <SCORE.INTER>
-4.78052

>  <SCORE.INTER.CONST>
1

>  <SCORE.INTER.POLAR>
0

>  <SCORE.INTER.ROT>
8

>  <SCORE.INTER.SOLV>
12.2628

>  <SCORE.INTER.VDW>
-16.2079

>  <SCORE.INTER.norm>
-0.183866

>  <SCORE.INTRA>
-1.29018

>  <SCORE.INTRA.DIHEDRAL>
-0.682559

>  <SCORE.INTRA.DIHEDRAL.0>
8.13976

>  <SCORE.INTRA.POLAR>
0

>  <SCORE.INTRA.POLAR.0>
0

>  <SCORE.INTRA.REPUL>
0

>  <SCORE.INTRA.REPUL.0>
0

>  <SCORE.INTRA.SOLV>
-0.876549

>  <SCORE.INTRA.SOLV.lig_0>
-82.9561

>  <SCORE.INTRA.VDW>
-0.510625

>  <SCORE.INTRA.VDW.0>
-3.29171

>  <SCORE.INTRA.norm>
-0.0496223

>  <SCORE.RESTR>
0

>  <SCORE.RESTR.CAVITY>
0

>  <SCORE.RESTR.norm>
0

>  <SCORE.SYSTEM>
0

>  <SCORE.SYSTEM.CONST>
0

>  <SCORE.SYSTEM.DIHEDRAL>
0

>  <SCORE.SYSTEM.SOLV>
0

>  <SCORE.SYSTEM.norm>
0

>  <SCORE.heavy>
26

>  <SCORE.norm>
-0.233488

>  <RMSD>
19.380

$$$$
ligand
 OpenBabel11021811433D
libRbt.so/2013.1/901 2013/11/27
 26 27  0  0  0  0  0  0  0  0999 V2000
   -4.6133   -4.6243   13.9268 C   0  0  0  0  0  0  0  0  0  0  0  0
   -4.8199   -6.6547    6.2386 C   0  0  0  0  0  0  0  0  0  0  0  0
   -3.1263   -2.8118    5.7776 P   0  0  1  0  0  0  0  0  0  0  0  0
   -5.2277   -3.1737    7.7554 P   0  0  1  0  0  0  0  0  0  0  0  0
   -4.7137   -7.6475    9.0397 C   0  0  0  0  0  0  0  0  0  0  0  0
   -3.4835   -6.4493   10.8948 C   0  0  0  0  0  0  0  0  0  0  0  0
   -4.6887   -6.8572   10.3371 C   0  0  0  0  0  0  0  0  0  0  0  0
   -5.8677   -6.5175   10.9801 C   0  0  0  0  0  0  0  0  0  0  0  0
   -7.0674   -6.8940   10.4748 N   0  0  0  0  0  0  0  0  0  0  0  0
   -5.8216   -5.8025   12.1252 N   0  0  0  0  0  0  0  0  0  0  0  0
   -4.6369   -5.4187   12.6491 C   0  0  0  0  0  0  0  0  0  0  0  0
   -3.4735   -5.7431   12.0339 N   0  0  0  0  0  0  0  0  0  0  0  0
   -3.3168   -2.2727    4.3841 O   0  5  0  0  0  0  0  0  0  0  0  0
   -4.2452   -3.6640    8.7742 O   0  0  0  0  0  0  0  0  0  0  0  0
   -1.0372   -7.2456    7.5873 S   0  0  0  0  0  0  0  0  0  0  0  0
   -2.2497   -7.6261    8.7699 C   0  0  0  0  0  0  0  0  0  0  0  0
   -2.4941   -1.8997    6.7892 O   0  0  0  0  0  0  0  0  0  0  0  0
   -5.3867   -1.6962    7.8930 O   0  5  0  0  0  0  0  0  0  0  0  0
   -3.4958   -7.4103    8.2646 N   0  0  0  0  0  0  0  0  0  0  0  0
   -4.5504   -3.3849    6.2975 O   0  0  0  0  0  0  0  0  0  0  0  0
   -6.5442   -3.9001    7.7061 O   0  0  0  0  0  0  0  0  0  0  0  0
   -3.5460   -6.9557    6.9824 C   0  0  1  0  0  0  0  0  0  0  0  0
   -2.1895   -6.8052    6.3892 C   0  0  1  0  0  0  0  0  0  0  0  0
   -1.6641   -6.3537    5.0525 C   0  0  0  0  0  0  0  0  0  0  0  0
   -2.3849   -5.0762    4.6515 C   0  0  0  0  0  0  0  0  0  0  0  0
   -2.1892   -4.1144    5.6809 O   0  0  0  0  0  0  0  0  0  0  0  0
  1 11  1  0  0  0  0
  3 13  1  6  0  0  0
  3 17  2  0  0  0  0
  3 20  1  0  0  0  0
  3 26  1  0  0  0  0
  4 14  1  1  0  0  0
  4 18  1  0  0  0  0
  4 21  2  0  0  0  0
  4 20  1  0  0  0  0
  5 19  1  0  0  0  0
  5  7  1  0  0  0  0
  6  7  2  0  0  0  0
  6 12  1  0  0  0  0
  7  8  1  0  0  0  0
  8  9  1  0  0  0  0
  8 10  2  0  0  0  0
 10 11  1  0  0  0  0
 11 12  2  0  0  0  0
 15 23  1  0  0  0  0
 15 16  1  0  0  0  0
 16 19  1  0  0  0  0
 19 22  1  0  0  0  0
 22  2  1  6  0  0  0
 22 23  1  0  0  0  0
 23 24  1  1  0  0  0
 24 25  1  0  0  0  0
 25 26  1  0  0  0  0
M  CHG  2  13  -1  18  -1
M  END
>  <CHROM.1>
-136.03640419,55.97003447,-23.48944668,-56.13673384,-132.57475666,56.87382891
-163.19721501,-42.53880862,-3.86064810,-5.04926964,8.11586597,2.07460059
-0.91892870,2.34794579

>  <Name>
ligand

>  <RI>
0

>  <Rbt.Current_Directory>
/home/itssahil/PROJECTS/Mol_Feturizer/New_Systems/rnas/2GDI

>  <Rbt.Executable>
rbdock ($Id: //depot/dev/client3/rdock/2013.1/src/exe/rbdock.cxx#4 $)

>  <Rbt.Library>
libRbt.so (2013.1, Build901 2013/11/27)

>  <Rbt.Parameter_File>
/export/apps/rDock/src/rDock_2013.1_src/data/scripts/dock_solv.prm

>  <Rbt.Receptor>
prm/blind_docking_20.prm

>  <SCORE>
-9.58951

>  <SCORE.INTER>
-9.60163

>  <SCORE.INTER.CONST>
1

>  <SCORE.INTER.POLAR>
0

>  <SCORE.INTER.ROT>
8

>  <SCORE.INTER.SOLV>
14.1102

>  <SCORE.INTER.VDW>
-20.0378

>  <SCORE.INTER.norm>
-0.369293

>  <SCORE.INTRA>
-0.0274623

>  <SCORE.INTRA.DIHEDRAL>
0.395181

>  <SCORE.INTRA.DIHEDRAL.0>
8.13976

>  <SCORE.INTRA.POLAR>
0

>  <SCORE.INTRA.POLAR.0>
0

>  <SCORE.INTRA.REPUL>
0

>  <SCORE.INTRA.REPUL.0>
0

>  <SCORE.INTRA.SOLV>
1.75913

>  <SCORE.INTRA.SOLV.lig_0>
-82.9561

>  <SCORE.INTRA.VDW>
-1.10462

>  <SCORE.INTRA.VDW.0>
-3.29171

>  <SCORE.INTRA.norm>
-0.00105624

>  <SCORE.RESTR>
0.0395776

>  <SCORE.RESTR.CAVITY>
0.0395776

>  <SCORE.RESTR.norm>
0.00152221

>  <SCORE.SYSTEM>
0

>  <SCORE.SYSTEM.CONST>
0

>  <SCORE.SYSTEM.DIHEDRAL>
0

>  <SCORE.SYSTEM.SOLV>
0

>  <SCORE.SYSTEM.norm>
0

>  <SCORE.heavy>
26

>  <SCORE.norm>
-0.368827

>  <RMSD>
19.571

$$$$
