@<TRIPOS>MOLECULE
2GDI_rdock.pdb
 1668 1865 0 0 0
SMALL
GASTEIGER

@<TRIPOS>ATOM
      1  P        -17.1890   -6.6420  -23.8270 P.3    11  G11         0.1280
      2  C5'      -15.7440   -5.9860  -25.9110 C.3    11  G11         0.1795
      3  O5'      -16.7830   -5.6420  -25.0050 O.3    11  G11        -0.3259
      4  C4'      -15.7220   -5.0120  -27.0740 C.3    11  G11         0.1772
      5  O4'      -16.9470   -5.1330  -27.8380 O.3    11  G11        -0.3307
      6  C3'      -15.6850   -3.5420  -26.6930 C.3    11  G11         0.1860
      7  O3'      -14.3610   -3.1390  -26.3750 O.3    11  G11        -0.3112
      8  C2'      -16.1590   -2.9130  -27.9960 C.3    11  G11         0.2309
      9  O2'      -15.1510   -2.9170  -28.9870 O.3    11  G11        -0.2156
     10  C1'      -17.2800   -3.8700  -28.3880 C.3    11  G11         0.2408
     11  N1       -21.1940   -0.6550  -28.9460 N.ar   11  G11        -0.1709
     12  C2       -20.0270   -0.7400  -29.6670 C.ar   11  G11         0.2606
     13  N2       -19.8800    0.1410  -30.6670 N.pl3  11  G11        -0.0859
     14  N3       -19.0700   -1.6280  -29.4270 N.ar   11  G11        -0.1918
     15  C4       -19.3780   -2.4380  -28.3840 C.ar   11  G11         0.1723
     16  C5       -20.5120   -2.4300  -27.6030 C.ar   11  G11         0.1748
     17  C6       -21.5280   -1.4800  -27.8730 C.ar   11  G11         0.3023
     18  O6       -22.6060   -1.3200  -27.2850 O.2    11  G11        -0.2633
     19  N7       -20.4470   -3.4260  -26.6360 N.ar   11  G11        -0.2173
     20  C8       -19.2970   -4.0040  -26.8450 C.ar   11  G11         0.1817
     21  N9       -18.5930   -3.4580  -27.8920 N.ar   11  G11        -0.2693
     22  OP1      -16.0070   -6.8950  -22.9740 O.3    11  G11        -0.1955
     23  OP2      -18.4360   -6.1240  -23.2230 O.co2  11  G11        -0.7863
     24  P        -14.1080   -2.0160  -25.2640 P.3    12  A12         0.2141
     25  C5'      -13.8760   -0.2200  -27.1690 C.3    12  A12         0.1812
     26  O5'      -14.5410   -0.6620  -25.9930 O.3    12  A12        -0.3114
     27  C4'      -14.6860    0.8870  -27.8140 C.3    12  A12         0.1773
     28  O4'      -15.9800    0.3670  -28.2070 O.3    12  A12        -0.3307
     29  C3'      -15.0320    2.0360  -26.8810 C.3    12  A12         0.1860
     30  O3'      -13.9520    2.9530  -26.7870 O.3    12  A12        -0.3112
     31  C2'      -16.2470    2.6330  -27.5820 C.3    12  A12         0.2309
     32  O2'      -15.8970    3.4210  -28.7030 O.3    12  A12        -0.2156
     33  C1'      -16.9700    1.3660  -28.0320 C.3    12  A12         0.2408
     34  N1       -21.7090    1.9370  -26.0970 N.ar   12  A12        -0.2040
     35  C2       -21.0470    2.6040  -27.0510 C.ar   12  A12         0.2016
     36  N3       -19.8110    2.4040  -27.5090 N.ar   12  A12        -0.2048
     37  C4       -19.2270    1.3780  -26.8710 C.ar   12  A12         0.1692
     38  C5       -19.7810    0.5970  -25.8730 C.ar   12  A12         0.1518
     39  C6       -21.0970    0.9060  -25.4760 C.ar   12  A12         0.1919
     40  N6       -21.7560    0.2350  -24.5230 N.pl3  12  A12        -0.1054
     41  N7       -18.8840   -0.3710  -25.4540 N.ar   12  A12        -0.2193
     42  C8       -17.8230   -0.1590  -26.1960 C.ar   12  A12         0.1816
     43  N9       -17.9590    0.8810  -27.0720 N.ar   12  A12        -0.2693
     44  OP1      -12.6550   -1.9760  -24.9870 O.2    12  A12        -0.5172
     45  OP2      -15.0670   -2.2460  -24.1610 O.co2  12  A12        -0.4373
     46  P        -13.6180    3.6210  -25.3710 P.3    13  C13         0.2141
     47  C5'      -14.8380    5.7750  -26.2270 C.3    13  C13         0.1812
     48  O5'      -14.7350    4.7590  -25.2390 O.3    13  C13        -0.3114
     49  C4'      -16.0780    6.6190  -25.9990 C.3    13  C13         0.1773
     50  O4'      -17.2610    5.8410  -26.3030 O.3    13  C13        -0.3307
     51  C3'      -16.3050    7.0600  -24.5630 C.3    13  C13         0.1860
     52  O3'      -15.4900    8.1790  -24.2480 O.3    13  C13        -0.3112
     53  C2'      -17.7910    7.4020  -24.6040 C.3    13  C13         0.2309
     54  O2'      -18.0610    8.6570  -25.2040 O.3    13  C13        -0.2156
     55  C1'      -18.3280    6.2640  -25.4710 C.3    13  C13         0.2420
     56  N1       -18.8100    5.0940  -24.6720 N.ar   13  C13        -0.2535
     57  C2       -20.1080    5.0960  -24.1490 C.ar   13  C13         0.3532
     58  O2       -20.8430    6.0680  -24.3630 O.2    13  C13        -0.2443
     59  N3       -20.5260    4.0280  -23.4220 N.ar   13  C13        -0.1739
     60  C4       -19.7070    2.9970  -23.2140 C.ar   13  C13         0.1759
     61  N4       -20.1640    1.9680  -22.4910 N.pl3  13  C13        -0.1070
     62  C5       -18.3800    2.9760  -23.7340 C.ar   13  C13         0.0566
     63  C6       -17.9800    4.0320  -24.4500 C.ar   13  C13         0.0850
     64  OP1      -12.2870    4.2600  -25.4750 O.2    13  C13        -0.5172
     65  OP2      -13.8790    2.6150  -24.3170 O.co2  13  C13        -0.4373
     66  P        -14.8870    8.3320  -22.7720 P.3    14  U14         0.2141
     67  C5'      -16.6720    9.9600  -21.7710 C.3    14  U14         0.1812
     68  O5'      -16.1840    8.6260  -21.8810 O.3    14  U14        -0.3114
     69  C4'      -18.1330    9.9920  -21.3610 C.3    14  U14         0.1773
     70  O4'      -18.8710    8.9430  -22.0370 O.3    14  U14        -0.3307
     71  C3'      -18.3940    9.7280  -19.8880 C.3    14  U14         0.1860
     72  O3'      -18.1920   10.9050  -19.1250 O.3    14  U14        -0.3112
     73  C2'      -19.8630    9.3310  -19.9330 C.3    14  U14         0.2309
     74  O2'      -20.7170   10.4420  -20.1030 O.3    14  U14        -0.2156
     75  C1'      -19.8820    8.4490  -21.1780 C.3    14  U14         0.2420
     76  N1       -19.6160    7.0100  -20.8640 N.ar   14  U14        -0.2534
     77  C2       -20.6280    6.2470  -20.3180 C.ar   14  U14         0.3546
     78  O2       -21.7400    6.6840  -20.0840 O.2    14  U14        -0.2443
     79  N3       -20.2910    4.9420  -20.0560 N.ar   14  U14        -0.1530
     80  C4       -19.0670    4.3360  -20.2760 C.ar   14  U14         0.2846
     81  O4       -18.9160    3.1510  -19.9930 O.2    14  U14        -0.2650
     82  C5       -18.0600    5.1940  -20.8440 C.ar   14  U14         0.0814
     83  C6       -18.3680    6.4700  -21.1070 C.ar   14  U14         0.0870
     84  OP1      -14.0240    9.5350  -22.7640 O.2    14  U14        -0.5172
     85  OP2      -14.3400    7.0210  -22.3620 O.co2  14  U14        -0.4373
     86  P        -17.3430   10.8360  -17.7710 P.3    15  C15         0.2141
     87  C5'      -19.2850   10.5130  -16.0370 C.3    15  C15         0.1812
     88  O5'      -18.2430    9.9350  -16.8070 O.3    15  C15        -0.3114
     89  C4'      -20.4270    9.5280  -15.8590 C.3    15  C15         0.1773
     90  O4'      -20.3630    8.4650  -16.8450 O.3    15  C15        -0.3307
     91  C3'      -20.4280    8.7190  -14.5760 C.3    15  C15         0.1860
     92  O3'      -20.7380    9.5050  -13.4340 O.3    15  C15        -0.3112
     93  C2'      -21.5340    7.7310  -14.9290 C.3    15  C15         0.2309
     94  O2'      -22.8200    8.3190  -14.8970 O.3    15  C15        -0.2156
     95  C1'      -21.1570    7.3880  -16.3690 C.3    15  C15         0.2420
     96  N1       -20.4110    6.0970  -16.4720 N.ar   15  C15        -0.2535
     97  C2       -21.1140    4.8970  -16.3130 C.ar   15  C15         0.3532
     98  O2       -22.3330    4.9340  -16.1020 O.2    15  C15        -0.2443
     99  N3       -20.4420    3.7240  -16.3970 N.ar   15  C15        -0.1739
    100  C4       -19.1280    3.7210  -16.6240 C.ar   15  C15         0.1759
    101  N4       -18.5120    2.5360  -16.6960 N.pl3  15  C15        -0.1070
    102  C5       -18.3910    4.9340  -16.7880 C.ar   15  C15         0.0566
    103  C6       -19.0650    6.0870  -16.7010 C.ar   15  C15         0.0850
    104  OP1      -17.2660   12.2140  -17.2350 O.3    15  C15        -0.4373
    105  OP2      -16.1030   10.0750  -18.0440 O.co2  15  C15        -0.5172
    106  P        -20.1860    9.0340  -12.0050 P.3    16  G16         0.2141
    107  C5'      -22.4500    7.8960  -11.3720 C.3    16  G16         0.1812
    108  O5'      -21.0740    7.7460  -11.6710 O.3    16  G16        -0.3114
    109  C4'      -23.1430    6.5490  -11.4120 C.3    16  G16         0.1773
    110  O4'      -22.7660    5.8260  -12.6110 O.3    16  G16        -0.3307
    111  C3'      -22.7610    5.5860  -10.3010 C.3    16  G16         0.1860
    112  O3'      -23.4190    5.9380   -9.0970 O.3    16  G16        -0.3112
    113  C2'      -23.3030    4.2980  -10.8990 C.3    16  G16         0.2309
    114  O2'      -24.7160    4.2510  -10.8710 O.3    16  G16        -0.2156
    115  C1'      -22.8210    4.4380  -12.3400 C.3    16  G16         0.2408
    116  N1       -20.0410    0.1730  -12.3550 N.ar   16  G16        -0.1709
    117  C2       -21.3740    0.3440  -12.0680 C.ar   16  G16         0.2606
    118  N2       -22.0630   -0.7600  -11.7380 N.pl3  16  G16        -0.0859
    119  N3       -21.9910    1.5180  -12.0960 N.ar   16  G16        -0.1918
    120  C4       -21.1580    2.5270  -12.4480 C.ar   16  G16         0.1723
    121  C5       -19.8180    2.4620  -12.7580 C.ar   16  G16         0.1748
    122  C6       -19.1710    1.2020  -12.7210 C.ar   16  G16         0.3023
    123  O6       -17.9860    0.9420  -12.9640 O.2    16  G16        -0.2633
    124  N7       -19.3230    3.7280  -13.0650 N.ar   16  G16        -0.2173
    125  C8       -20.3530    4.5170  -12.9380 C.ar   16  G16         0.1817
    126  N9       -21.5020    3.8560  -12.5660 N.ar   16  G16        -0.2693
    127  OP1      -20.4900   10.1010  -11.0260 O.3    16  G16        -0.4373
    128  OP2      -18.7970    8.5530  -12.1810 O.co2  16  G16        -0.5172
    129  P        -22.7570    5.5750   -7.6880 P.3    17  G17         0.2141
    130  C5'      -24.4080    3.5380   -7.4620 C.3    17  G17         0.1812
    131  O5'      -23.0720    4.0170   -7.5230 O.3    17  G17        -0.3114
    132  C4'      -24.3970    2.0230   -7.3810 C.3    17  G17         0.1773
    133  O4'      -23.7630    1.4860   -8.5690 O.3    17  G17        -0.3307
    134  C3'      -23.5640    1.4470   -6.2480 C.3    17  G17         0.1860
    135  O3'      -24.2870    1.4470   -5.0210 O.3    17  G17        -0.3112
    136  C2'      -23.2950    0.0380   -6.7660 C.3    17  G17         0.2309
    137  O2'      -24.4310   -0.8040   -6.6670 O.3    17  G17        -0.2156
    138  C1'      -23.0110    0.3330   -8.2350 C.3    17  G17         0.2408
    139  N1       -18.4420   -1.8270   -8.9030 N.ar   17  G17        -0.1709
    140  C2       -19.6330   -2.4010   -8.5310 C.ar   17  G17         0.2606
    141  N2       -19.6140   -3.7240   -8.3170 N.pl3  17  G17        -0.0859
    142  N3       -20.7670   -1.7290   -8.3860 N.ar   17  G17        -0.1918
    143  C4       -20.6130   -0.4070   -8.6410 C.ar   17  G17         0.1723
    144  C5       -19.4660    0.2620   -9.0110 C.ar   17  G17         0.1748
    145  C6       -18.2640   -0.4740   -9.1650 C.ar   17  G17         0.3023
    146  O6       -17.1410   -0.0620   -9.4850 O.2    17  G17        -0.2633
    147  N7       -19.7220    1.6190   -9.1750 N.ar   17  G17        -0.2173
    148  C8       -20.9940    1.7420   -8.9060 C.ar   17  G17         0.1817
    149  N9       -21.6010    0.5510   -8.5700 N.ar   17  G17        -0.2693
    150  OP1      -23.4800    6.3370   -6.6440 O.3    17  G17        -0.4373
    151  OP2      -21.2910    5.7090   -7.8230 O.co2  17  G17        -0.5172
    152  P        -23.4710    1.5570   -3.6510 P.3    18  G18         0.2141
    153  C5'      -23.2930   -1.0440   -3.5140 C.3    18  G18         0.1812
    154  O5'      -22.6190    0.2070   -3.6140 O.3    18  G18        -0.3114
    155  C4'      -22.3060   -2.1930   -3.5250 C.3    18  G18         0.1773
    156  O4'      -21.5590   -2.2210   -4.7660 O.3    18  G18        -0.3307
    157  C3'      -21.2270   -2.1290   -2.4620 C.3    18  G18         0.1860
    158  O3'      -21.7630   -2.5920   -1.2390 O.3    18  G18        -0.3112
    159  C2'      -20.2110   -3.1130   -3.0320 C.3    18  G18         0.2309
    160  O2'      -20.5740   -4.4520   -2.7940 O.3    18  G18        -0.2156
    161  C1'      -20.3070   -2.8390   -4.5270 C.3    18  G18         0.2408
    162  N1       -15.5290   -2.5030   -6.2570 N.ar   18  G18        -0.1709
    163  C2       -16.2310   -3.6210   -5.8660 C.ar   18  G18         0.2606
    164  N2       -15.5800   -4.7930   -5.9400 N.pl3  18  G18        -0.0859
    165  N3       -17.4810   -3.5900   -5.4190 N.ar   18  G18        -0.1918
    166  C4       -17.9840   -2.3300   -5.4060 C.ar   18  G18         0.1723
    167  C5       -17.3680   -1.1600   -5.7820 C.ar   18  G18         0.1748
    168  C6       -16.0350   -1.2020   -6.2440 C.ar   18  G18         0.3023
    169  O6       -15.3380   -0.2480   -6.6170 O.2    18  G18        -0.2633
    170  N7       -18.2180   -0.0720   -5.6160 N.ar   18  G18        -0.2173
    171  C8       -19.3200   -0.5970   -5.1630 C.ar   18  G18         0.1817
    172  N9       -19.2500   -1.9590   -5.0110 N.ar   18  G18        -0.2693
    173  OP1      -24.4440    1.5370   -2.5350 O.3    18  G18        -0.4373
    174  OP2      -22.5130    2.6790   -3.7740 O.co2  18  G18        -0.5172
    175  P        -21.1520   -2.1090    0.1550 P.3    19  G19         0.2141
    176  C5'      -20.4840   -4.5930    0.6990 C.3    19  G19         0.1812
    177  O5'      -20.0780   -3.2470    0.4800 O.3    19  G19        -0.3114
    178  C4'      -19.2670   -5.4990    0.6980 C.3    19  G19         0.1773
    179  O4'      -18.6480   -5.4610   -0.6100 O.3    19  G19        -0.3307
    180  C3'      -18.1590   -5.0950    1.6580 C.3    19  G19         0.1860
    181  O3'      -18.4090   -5.6480    2.9440 O.3    19  G19        -0.3112
    182  C2'      -16.9360   -5.7160    0.9920 C.3    19  G19         0.2309
    183  O2'      -16.8560   -7.1090    1.2310 O.3    19  G19        -0.2156
    184  C1'      -17.2380   -5.4780   -0.4840 C.3    19  G19         0.2408
    185  N1       -13.7450   -3.2890   -3.4740 N.ar   19  G19        -0.1709
    186  C2       -13.8690   -4.6110   -3.1180 C.ar   19  G19         0.2606
    187  N2       -12.9600   -5.4600   -3.6380 N.pl3  19  G19        -0.0859
    188  N3       -14.8250   -5.0680   -2.3190 N.ar   19  G19        -0.1918
    189  C4       -15.6590   -4.0800   -1.9010 C.ar   19  G19         0.1723
    190  C5       -15.6100   -2.7370   -2.1980 C.ar   19  G19         0.1748
    191  C6       -14.5840   -2.2610   -3.0480 C.ar   19  G19         0.3023
    192  O6       -14.3810   -1.1010   -3.4280 O.2    19  G19        -0.2633
    193  N7       -16.6420   -2.0500   -1.5700 N.ar   19  G19        -0.2173
    194  C8       -17.2830   -2.9760   -0.9130 C.ar   19  G19         0.1817
    195  N9       -16.7370   -4.2290   -1.0590 N.ar   19  G19        -0.2693
    196  OP1      -22.2400   -2.1670    1.1490 O.3    19  G19        -0.4373
    197  OP2      -20.4020   -0.8520   -0.0610 O.co2  19  G19        -0.5172
    198  P        -18.0450   -4.8340    4.2750 P.3    20  U20         0.2141
    199  C5'      -15.7880   -6.1240    4.5340 C.3    20  U20         0.1812
    200  O5'      -16.4540   -4.8970    4.2860 O.3    20  U20        -0.3114
    201  C4'      -14.3230   -5.9380    4.2070 C.3    20  U20         0.1773
    202  O4'      -14.2080   -5.6590    2.7920 O.3    20  U20        -0.3307
    203  C3'      -13.6840   -4.7200    4.8540 C.3    20  U20         0.1860
    204  O3'      -13.2910   -5.0040    6.1850 O.3    20  U20        -0.3112
    205  C2'      -12.4780   -4.5070    3.9440 C.3    20  U20         0.2309
    206  O2'      -11.3860   -5.3410    4.2810 O.3    20  U20        -0.2156
    207  C1'      -13.0390   -4.8930    2.5750 C.3    20  U20         0.2420
    208  N1       -13.3390   -3.6940    1.7440 N.ar   20  U20        -0.2534
    209  C2       -12.4400   -3.3600    0.7540 C.ar   20  U20         0.3546
    210  O2       -11.4520   -4.0300    0.5120 O.2    20  U20        -0.2443
    211  N3       -12.7520   -2.2280    0.0460 N.ar   20  U20        -0.1530
    212  C4       -13.8480   -1.4060    0.2370 C.ar   20  U20         0.2846
    213  O4       -13.9970   -0.4210   -0.4780 O.2    20  U20        -0.2650
    214  C5       -14.7350   -1.8120    1.3000 C.ar   20  U20         0.0814
    215  C6       -14.4510   -2.9160    2.0040 C.ar   20  U20         0.0870
    216  OP1      -18.5610   -5.6130    5.4230 O.3    20  U20        -0.4373
    217  OP2      -18.4200   -3.4140    4.1010 O.co2  20  U20        -0.5172
    218  P        -14.0120   -4.2860    7.4200 P.3    21  G21         0.2141
    219  C5'      -13.9900   -6.5250    8.7550 C.3    21  G21         0.1812
    220  O5'      -14.7580   -5.5140    8.1310 O.3    21  G21        -0.3114
    221  C4'      -14.6340   -7.8900    8.6010 C.3    21  G21         0.1773
    222  O4'      -14.4330   -8.3750    7.2480 O.3    21  G21        -0.3307
    223  C3'      -14.0280   -8.9490    9.5100 C.3    21  G21         0.1860
    224  O3'      -14.7530   -9.0190   10.7300 O.3    21  G21        -0.3112
    225  C2'      -14.1680  -10.2250    8.6910 C.3    21  G21         0.2309
    226  O2'      -15.4680  -10.7690    8.7870 O.3    21  G21        -0.2156
    227  C1'      -13.9340   -9.7030    7.2780 C.3    21  G21         0.2408
    228  N1        -9.7800  -12.3850    5.9020 N.ar   21  G21        -0.1709
    229  C2       -11.0010  -12.8540    6.3240 C.ar   21  G21         0.2606
    230  N2       -11.1200  -14.1870    6.3710 N.pl3  21  G21        -0.0859
    231  N3       -12.0260  -12.0750    6.6620 N.ar   21  G21        -0.1918
    232  C4       -11.7140  -10.7550    6.5510 C.ar   21  G21         0.1723
    233  C5       -10.5200  -10.1970    6.1460 C.ar   21  G21         0.1748
    234  C6        -9.4420  -11.0410    5.7810 C.ar   21  G21         0.3023
    235  O6        -8.3080  -10.7230    5.3910 O.2    21  G21        -0.2633
    236  N7       -10.5920   -8.8120    6.1600 N.ar   21  G21        -0.2173
    237  C8       -11.8000   -8.5570    6.5660 C.ar   21  G21         0.1817
    238  N9       -12.5410   -9.6840    6.8310 N.ar   21  G21        -0.2693
    239  OP1      -15.0380   -3.3470    6.9100 O.2    21  G21        -0.5172
    240  OP2      -12.9420   -3.7990    8.3160 O.co2  21  G21        -0.4373
    241  P        -13.9440   -9.1330   12.1060 P.3    22  C22         0.2141
    242  C5'      -14.1010  -11.7600   12.2010 C.3    22  C22         0.1812
    243  O5'      -13.3060  -10.5970   12.0090 O.3    22  C22        -0.3114
    244  C4'      -13.2640  -12.9800   11.8610 C.3    22  C22         0.1773
    245  O4'      -12.7780  -12.8680   10.4980 O.3    22  C22        -0.3307
    246  C3'      -11.9900  -13.1120   12.6800 C.3    22  C22         0.1860
    247  O3'      -12.2630  -13.7070   13.9340 O.3    22  C22        -0.3112
    248  C2'      -11.1600  -14.0240   11.7870 C.3    22  C22         0.2309
    249  O2'      -11.5790  -15.3740   11.8530 O.3    22  C22        -0.2156
    250  C1'      -11.4900  -13.4440   10.4140 C.3    22  C22         0.2420
    251  N1       -10.5100  -12.4240    9.9350 N.ar   22  C22        -0.2535
    252  C2        -9.2880  -12.8780    9.4400 C.ar   22  C22         0.3532
    253  O2        -9.0790  -14.0980    9.4320 O.2    22  C22        -0.2443
    254  N3        -8.3800  -11.9740    8.9940 N.ar   22  C22        -0.1739
    255  C4        -8.6610  -10.6710    9.0330 C.ar   22  C22         0.1759
    256  N4        -7.7320   -9.8200    8.5740 N.pl3  22  C22        -0.1070
    257  C5        -9.9070  -10.1840    9.5360 C.ar   22  C22         0.0566
    258  C6       -10.7950  -11.0870    9.9680 C.ar   22  C22         0.0850
    259  OP1      -14.9090   -9.0930   13.2190 O.3    22  C22        -0.4373
    260  OP2      -12.8200   -8.1740   12.0450 O.co2  22  C22        -0.5172
    261  P        -11.6280  -13.0800   15.2630 P.3    23  C23         0.2141
    262  C5'      -10.1950  -15.2780   15.3250 C.3    23  C23         0.1812
    263  O5'      -10.2330  -13.8550   15.3820 O.3    23  C23        -0.3114
    264  C4'       -8.7620  -15.7630   15.1810 C.3    23  C23         0.1773
    265  O4'       -8.1860  -15.2080   13.9690 O.3    23  C23        -0.3307
    266  C3'       -7.8400  -15.3340   16.3190 C.3    23  C23         0.1860
    267  O3'       -6.8920  -16.3490   16.5850 O.3    23  C23        -0.3112
    268  C2'       -7.1420  -14.1120   15.7380 C.3    23  C23         0.2309
    269  O2'       -5.8820  -13.8750   16.3340 O.3    23  C23        -0.2156
    270  C1'       -6.9720  -14.5610   14.2930 C.3    23  C23         0.2420
    271  N1        -6.7330  -13.4100   13.3820 N.ar   23  C23        -0.2535
    272  C2        -5.5240  -13.3300   12.6810 C.ar   23  C23         0.3532
    273  O2        -4.6910  -14.2410   12.8110 O.2    23  C23        -0.2443
    274  N3        -5.3060  -12.2590   11.8770 N.ar   23  C23        -0.1739
    275  C4        -6.2310  -11.3010   11.7750 C.ar   23  C23         0.1759
    276  N4        -5.9730  -10.2680   10.9680 N.pl3  23  C23        -0.1070
    277  C5        -7.4660  -11.3610   12.4910 C.ar   23  C23         0.0566
    278  C6        -7.6700  -12.4210   13.2810 C.ar   23  C23         0.0850
    279  OP1      -12.4970  -13.4650   16.3940 O.3    23  C23        -0.4373
    280  OP2      -11.3220  -11.6560   15.0040 O.co2  23  C23        -0.5172
    281  P         -7.0680  -17.3320   17.8310 P.3    24  C24         0.2141
    282  C5'       -5.4050  -19.2990   18.4230 C.3    24  C24         0.1812
    283  O5'       -5.6130  -18.0010   17.8820 O.3    24  C24        -0.3114
    284  C4'       -4.1890  -19.9450   17.7800 C.3    24  C24         0.1773
    285  O4'       -4.4880  -20.2470   16.3950 O.3    24  C24        -0.3307
    286  C3'       -2.9450  -19.0700   17.6810 C.3    24  C24         0.1860
    287  O3'       -2.2340  -19.0290   18.9180 O.3    24  C24        -0.3112
    288  C2'       -2.1650  -19.7990   16.5900 C.3    24  C24         0.2309
    289  O2'       -1.4510  -20.9170   17.0800 O.3    24  C24        -0.2156
    290  C1'       -3.2790  -20.2760   15.6590 C.3    24  C24         0.2420
    291  N1        -3.4100  -19.4520   14.4190 N.ar   24  C24        -0.2535
    292  C2        -3.0060  -19.9930   13.1920 C.ar   24  C24         0.3532
    293  O2        -2.5610  -21.1470   13.1540 O.2    24  C24        -0.2443
    294  N3        -3.1150  -19.2350   12.0740 N.ar   24  C24        -0.1739
    295  C4        -3.5960  -17.9930   12.1510 C.ar   24  C24         0.1759
    296  N4        -3.6830  -17.2900   11.0190 N.pl3  24  C24        -0.1070
    297  C5        -4.0020  -17.4200   13.3920 C.ar   24  C24         0.0566
    298  C6        -3.8910  -18.1770   14.4900 C.ar   24  C24         0.0850
    299  OP1       -8.0780  -18.3550   17.4750 O.2    24  C24        -0.5172
    300  OP2       -7.2390  -16.5070   19.0480 O.co2  24  C24        -0.4373
    301  P         -1.5710  -17.6610   19.4290 P.3    25  U25         0.2141
    302  C5'        0.7930  -18.1800   18.4050 C.3    25  U25         0.1812
    303  O5'       -0.4010  -17.4040   18.3640 O.3    25  U25        -0.3114
    304  C4'        1.8350  -17.6590   17.4300 C.3    25  U25         0.1773
    305  O4'        1.2280  -17.4410   16.1300 O.3    25  U25        -0.3307
    306  C3'        2.4430  -16.3080   17.7750 C.3    25  U25         0.1860
    307  O3'        3.4770  -16.4370   18.7410 O.3    25  U25        -0.3112
    308  C2'        2.9820  -15.8860   16.4150 C.3    25  U25         0.2309
    309  O2'        4.1730  -16.5660   16.0680 O.3    25  U25        -0.2156
    310  C1'        1.8370  -16.3260   15.5040 C.3    25  U25         0.2420
    311  N1         0.8110  -15.2580   15.2950 N.ar   25  U25        -0.2534
    312  C2         1.1640  -14.1320   14.5830 C.ar   25  U25         0.3546
    313  O2         2.2740  -13.9610   14.1080 O.2    25  U25        -0.2443
    314  N3         0.1650  -13.2010   14.4460 N.ar   25  U25        -0.1530
    315  C4        -1.1270  -13.2780   14.9310 C.ar   25  U25         0.2846
    316  O4        -1.9060  -12.3530   14.7190 O.2    25  U25        -0.2650
    317  C5        -1.4240  -14.4850   15.6650 C.ar   25  U25         0.0814
    318  C6        -0.4630  -15.4070   15.8140 C.ar   25  U25         0.0870
    319  OP1       -0.9750  -17.9190   20.7590 O.3    25  U25        -0.4373
    320  OP2       -2.5650  -16.5740   19.2820 O.co2  25  U25        -0.5172
    321  P          3.6640  -15.2950   19.8460 P.3    26  U26         0.2141
    322  C5'        5.7500  -14.3260   18.5850 C.3    26  U26         0.1812
    323  O5'        4.4180  -14.1340   19.0460 O.3    26  U26        -0.3114
    324  C4'        6.1740  -13.1580   17.7140 C.3    26  U26         0.1773
    325  O4'        5.2500  -13.0160   16.6050 O.3    26  U26        -0.3307
    326  C3'        6.1170  -11.7970   18.3890 C.3    26  U26         0.1860
    327  O3'        7.2560  -11.5840   19.2140 O.3    26  U26        -0.3112
    328  C2'        6.1140  -10.8900   17.1640 C.3    26  U26         0.2309
    329  O2'        7.3900  -10.7990   16.5610 O.3    26  U26        -0.2156
    330  C1'        5.1530  -11.6450   16.2490 C.3    26  U26         0.2420
    331  N1         3.7320  -11.2030   16.3910 N.ar   26  U26        -0.2534
    332  C2         3.3390   -9.9950   15.8510 C.ar   26  U26         0.3546
    333  O2         4.0920   -9.2490   15.2510 O.2    26  U26        -0.2443
    334  N3         2.0140   -9.6830   16.0380 N.ar   26  U26        -0.1530
    335  C4         1.0650  -10.4380   16.6990 C.ar   26  U26         0.2846
    336  O4        -0.0860  -10.0240   16.7870 O.2    26  U26        -0.2650
    337  C5         1.5500  -11.6850   17.2350 C.ar   26  U26         0.0814
    338  C6         2.8350  -12.0100   17.0650 C.ar   26  U26         0.0870
    339  OP1        4.5680  -15.8140   20.8950 O.3    26  U26        -0.4373
    340  OP2        2.3220  -14.7900   20.2130 O.co2  26  U26        -0.5172
    341  P          7.1430  -10.6550   20.5140 P.3    27  C27         0.2141
    342  C5'        8.4210   -8.7790   19.1940 C.3    27  C27         0.1812
    343  O5'        7.2650   -9.1730   19.9240 O.3    27  C27        -0.3114
    344  C4'        8.1750   -7.4570   18.4910 C.3    27  C27         0.1773
    345  O4'        7.1160   -7.6120   17.5120 O.3    27  C27        -0.3307
    346  C3'        7.6810   -6.3410   19.3970 C.3    27  C27         0.1860
    347  O3'        8.7760   -5.7140   20.0510 O.3    27  C27        -0.3112
    348  C2'        6.9990   -5.4210   18.3920 C.3    27  C27         0.2309
    349  O2'        7.9210   -4.6330   17.6660 O.3    27  C27        -0.2156
    350  C1'        6.3350   -6.4310   17.4590 C.3    27  C27         0.2420
    351  N1         4.9160   -6.7430   17.8290 N.ar   27  C27        -0.2535
    352  C2         3.8970   -5.8720   17.4280 C.ar   27  C27         0.3532
    353  O2         4.1910   -4.8660   16.7710 O.2    27  C27        -0.2443
    354  N3         2.6130   -6.1580   17.7670 N.ar   27  C27        -0.1739
    355  C4         2.3370   -7.2550   18.4760 C.ar   27  C27         0.1759
    356  N4         1.0590   -7.4970   18.7860 N.pl3  27  C27        -0.1070
    357  C5         3.3620   -8.1540   18.8920 C.ar   27  C27         0.0566
    358  C6         4.6230   -7.8620   18.5520 C.ar   27  C27         0.0850
    359  OP1        8.3180  -10.9290   21.3700 O.3    27  C27        -0.4373
    360  OP2        5.7790  -10.8020   21.0690 O.co2  27  C27        -0.5172
    361  P          8.5580   -5.0120   21.4720 P.3    28  U28         0.2141
    362  C5'        7.6700   -5.9680   23.7320 C.3    28  U28         0.1812
    363  O5'        7.7940   -6.1270   22.3250 O.3    28  U28        -0.3114
    364  C4'        6.2800   -6.3500   24.2110 C.3    28  U28         0.1773
    365  O4'        5.2820   -5.4540   23.6570 O.3    28  U28        -0.3307
    366  C3'        5.8120   -7.7490   23.8260 C.3    28  U28         0.1860
    367  O3'        4.9720   -8.2260   24.8610 O.3    28  U28        -0.3112
    368  C2'        4.9900   -7.4800   22.5700 C.3    28  U28         0.2309
    369  O2'        4.0740   -8.5220   22.2970 O.3    28  U28        -0.2156
    370  C1'        4.2650   -6.2380   23.0650 C.3    28  U28         0.2420
    371  N1         3.5580   -5.4090   22.0500 N.ar   28  U28        -0.2534
    372  C2         2.1930   -5.5500   21.9060 C.ar   28  U28         0.3546
    373  O2         1.5310   -6.3520   22.5420 O.2    28  U28        -0.2443
    374  N3         1.6260   -4.7210   20.9700 N.ar   28  U28        -0.1530
    375  C4         2.2710   -3.7770   20.1940 C.ar   28  U28         0.2846
    376  O4         1.6240   -3.1050   19.4010 O.2    28  U28        -0.2650
    377  C5         3.6910   -3.6770   20.4120 C.ar   28  U28         0.0814
    378  C6         4.2670   -4.4750   21.3180 C.ar   28  U28         0.0870
    379  OP1        7.6510   -3.8580   21.2780 O.2    28  U28        -0.5172
    380  OP2        9.8880   -4.8110   22.0860 O.co2  28  U28        -0.4373
    381  P          5.5170   -9.2740   25.9380 P.3    29  G29         0.2141
    382  C5'        3.8070  -10.1620   27.7100 C.3    29  G29         0.1812
    383  O5'        4.5100   -9.0550   27.1610 O.3    29  G29        -0.3114
    384  C4'        2.8030   -9.6950   28.7470 C.3    29  G29         0.1773
    385  O4'        3.4410   -8.7890   29.6860 O.3    29  G29        -0.3307
    386  C3'        1.6280   -8.8890   28.2120 C.3    29  G29         0.1860
    387  O3'        0.6330   -9.7420   27.6560 O.3    29  G29        -0.3112
    388  C2'        1.1620   -8.2410   29.5080 C.3    29  G29         0.2309
    389  O2'        0.5240   -9.1710   30.3570 O.3    29  G29        -0.2156
    390  C1'        2.5010   -7.8130   30.1020 C.3    29  G29         0.2408
    391  N1         1.5920   -2.7920   30.0390 N.ar   29  G29        -0.1709
    392  C2         0.8940   -3.7930   30.6760 C.ar   29  G29         0.2606
    393  N2        -0.1820   -3.4100   31.3800 N.pl3  29  G29        -0.0859
    394  N3         1.2260   -5.0780   30.6260 N.ar   29  G29        -0.1918
    395  C4         2.3320   -5.2850   29.8690 C.ar   29  G29         0.1723
    396  C5         3.0950   -4.3530   29.1990 C.ar   29  G29         0.1748
    397  C6         2.7310   -2.9860   29.2610 C.ar   29  G29         0.3023
    398  O6         3.2870   -2.0180   28.7230 O.2    29  G29        -0.2633
    399  N7         4.1530   -4.9640   28.5380 N.ar   29  G29        -0.2173
    400  C8         4.0140   -6.2300   28.8170 C.ar   29  G29         0.1817
    401  N9         2.9340   -6.5020   29.6220 N.ar   29  G29        -0.2693
    402  OP1        6.8760   -8.8620   26.3520 O.3    29  G29        -0.4373
    403  OP2        5.2800  -10.6320   25.3900 O.co2  29  G29        -0.5172
    404  P         -0.3530   -9.2070   26.5130 P.3    30  C30         0.2141
    405  C5'       -2.3150   -8.6260   28.1580 C.3    30  C30         0.1812
    406  O5'       -1.2830   -8.1610   27.2900 O.3    30  C30        -0.3114
    407  C4'       -3.1870   -7.4750   28.6260 C.3    30  C30         0.1773
    408  O4'       -2.3750   -6.5120   29.3450 O.3    30  C30        -0.3307
    409  C3'       -3.8100   -6.6440   27.5160 C.3    30  C30         0.1860
    410  O3'       -4.9610   -7.2730   26.9680 O.3    30  C30        -0.3112
    411  C2'       -4.1370   -5.3600   28.2690 C.3    30  C30         0.2309
    412  O2'       -5.2690   -5.4760   29.1080 O.3    30  C30        -0.2156
    413  C1'       -2.8710   -5.2030   29.1080 C.3    30  C30         0.2420
    414  N1        -1.8250   -4.3830   28.4210 N.ar   30  C30        -0.2535
    415  C2        -1.9690   -2.9900   28.3690 C.ar   30  C30         0.3532
    416  O2        -2.9530   -2.4620   28.9010 O.2    30  C30        -0.2443
    417  N3        -1.0200   -2.2530   27.7400 N.ar   30  C30        -0.1739
    418  C4         0.0290   -2.8530   27.1730 C.ar   30  C30         0.1759
    419  N4         0.9360   -2.0810   26.5630 N.pl3  30  C30        -0.1070
    420  C5         0.1910   -4.2700   27.2090 C.ar   30  C30         0.0566
    421  C6        -0.7490   -4.9880   27.8370 C.ar   30  C30         0.0850
    422  OP1       -1.1980  -10.3380   26.0750 O.3    30  C30        -0.4373
    423  OP2        0.4530   -8.4590   25.5230 O.co2  30  C30        -0.5172
    424  P         -5.2580   -7.1150   25.4030 P.3    31  G31         0.2141
    425  C5'       -6.6920   -4.9280   25.5750 C.3    31  G31         0.1812
    426  O5'       -5.4540   -5.5370   25.2340 O.3    31  G31        -0.3114
    427  C4'       -6.5650   -3.4160   25.5390 C.3    31  G31         0.1773
    428  O4'       -5.3470   -3.0110   26.2150 O.3    31  G31        -0.3307
    429  C3'       -6.4350   -2.8110   24.1490 C.3    31  G31         0.1860
    430  O3'       -7.7140   -2.6480   23.5510 O.3    31  G31        -0.3112
    431  C2'       -5.7800   -1.4740   24.4730 C.3    31  G31         0.2309
    432  O2'       -6.6870   -0.5270   25.0040 O.3    31  G31        -0.2156
    433  C1'       -4.7830   -1.8950   25.5470 C.3    31  G31         0.2408
    434  N1        -0.6610   -0.3090   23.0230 N.ar   31  G31        -0.1709
    435  C2        -1.7900    0.3930   23.3760 C.ar   31  G31         0.2606
    436  N2        -1.8270    1.6850   23.0180 N.pl3  31  G31        -0.0859
    437  N3        -2.8110   -0.1330   24.0410 N.ar   31  G31        -0.1918
    438  C4        -2.6070   -1.4420   24.3270 C.ar   31  G31         0.1723
    439  C5        -1.5190   -2.2270   24.0150 C.ar   31  G31         0.1748
    440  C6        -0.4350   -1.6530   23.3060 C.ar   31  G31         0.3023
    441  O6         0.6180   -2.1940   22.9390 O.2    31  G31        -0.2633
    442  N7        -1.6990   -3.5230   24.4820 N.ar   31  G31        -0.2173
    443  C8        -2.8690   -3.4960   25.0590 C.ar   31  G31         0.1817
    444  N9        -3.4780   -2.2660   25.0040 N.ar   31  G31        -0.2693
    445  OP1       -6.5410   -7.7890   25.1060 O.3    31  G31        -0.4373
    446  OP2       -4.0320   -7.4990   24.6680 O.co2  31  G31        -0.5172
    447  P         -7.9840   -3.2270   22.0830 P.3    32  U32         0.2141
    448  C5'       -7.5080   -0.8010   21.2080 C.3    32  U32         0.1812
    449  O5'       -7.2070   -2.1880   21.1470 O.3    32  U32        -0.3114
    450  C4'       -6.3950    0.0040   20.5670 C.3    32  U32         0.1773
    451  O4'       -5.1900   -0.1050   21.3700 O.3    32  U32        -0.3307
    452  C3'       -5.9470   -0.4710   19.1920 C.3    32  U32         0.1860
    453  O3'       -6.8310   -0.0220   18.1710 O.3    32  U32        -0.3112
    454  C2'       -4.5920    0.2200   19.1180 C.3    32  U32         0.2309
    455  O2'       -4.7120    1.6170   18.9260 O.3    32  U32        -0.2156
    456  C1'       -4.0580   -0.0660   20.5190 C.3    32  U32         0.2420
    457  N1        -3.3060   -1.3580   20.6300 N.ar   32  U32        -0.2534
    458  C2        -1.9890   -1.4110   20.2140 C.ar   32  U32         0.3546
    459  O2        -1.3930   -0.4540   19.7560 O.2    32  U32        -0.2443
    460  N3        -1.3840   -2.6340   20.3590 N.ar   32  U32        -0.1530
    461  C4        -1.9520   -3.7910   20.8620 C.ar   32  U32         0.2846
    462  O4        -1.2840   -4.8180   20.9280 O.2    32  U32        -0.2650
    463  C5        -3.3280   -3.6630   21.2670 C.ar   32  U32         0.0814
    464  C6        -3.9370   -2.4780   21.1390 C.ar   32  U32         0.0870
    465  OP1       -9.4370   -3.1300   21.8180 O.2    32  U32        -0.5172
    466  OP2       -7.2900   -4.5290   21.9640 O.co2  32  U32        -0.4373
    467  P         -7.2290   -0.9840   16.9520 P.3    33  G33         0.2141
    468  C5'       -5.7840    0.3090   15.1760 C.3    33  G33         0.1812
    469  O5'       -5.9750   -0.8670   15.9600 O.3    33  G33        -0.3114
    470  C4'       -4.3120    0.5390   14.8780 C.3    33  G33         0.1773
    471  O4'       -3.5380    0.3870   16.0970 O.3    33  G33        -0.3307
    472  C3'       -3.6710   -0.4530   13.9190 C.3    33  G33         0.1860
    473  O3'       -3.9440   -0.1160   12.5630 O.3    33  G33        -0.3112
    474  C2'       -2.2020   -0.2590   14.2740 C.3    33  G33         0.2309
    475  O2'       -1.6800    0.9570   13.7720 O.3    33  G33        -0.2156
    476  C1'       -2.2920   -0.2180   15.7970 C.3    33  G33         0.2408
    477  N1         0.6560   -4.1550   17.1270 N.ar   33  G33        -0.1709
    478  C2         1.0070   -2.9620   16.5420 C.ar   33  G33         0.2606
    479  N2         2.3100   -2.7940   16.2780 N.pl3  33  G33        -0.0859
    480  N3         0.1450   -1.9980   16.2420 N.ar   33  G33        -0.1918
    481  C4        -1.1250   -2.3350   16.5780 C.ar   33  G33         0.1723
    482  C5        -1.5750   -3.4990   17.1630 C.ar   33  G33         0.1748
    483  C6        -0.6420   -4.5190   17.4770 C.ar   33  G33         0.3023
    484  O6        -0.8540   -5.6260   17.9970 O.2    33  G33        -0.2633
    485  N7        -2.9530   -3.4560   17.3450 N.ar   33  G33        -0.2173
    486  C8        -3.3020   -2.2910   16.8760 C.ar   33  G33         0.1817
    487  N9        -2.2450   -1.5520   16.3980 N.ar   33  G33        -0.2693
    488  OP1       -8.4100   -0.3940   16.2840 O.2    33  G33        -0.5172
    489  OP2       -7.2870   -2.3760   17.4480 O.co2  33  G33        -0.4373
    490  P         -4.0800   -1.2730   11.4620 P.3    34  A34         0.2141
    491  C5'       -1.6020   -0.8630   10.7110 C.3    34  A34         0.1812
    492  O5'       -2.5700   -1.7530   11.2460 O.3    34  A34        -0.3114
    493  C4'       -0.2110   -1.4180   10.9470 C.3    34  A34         0.1773
    494  O4'       -0.0140   -1.6480   12.3670 O.3    34  A34        -0.3307
    495  C3'        0.0460   -2.7870   10.3360 C.3    34  A34         0.1860
    496  O3'        0.3260   -2.6810    8.9450 O.3    34  A34        -0.3112
    497  C2'        1.2720   -3.1910   11.1400 C.3    34  A34         0.2309
    498  O2'        2.4240   -2.4680   10.7520 O.3    34  A34        -0.2156
    499  C1'        0.8260   -2.7750   12.5380 C.3    34  A34         0.2408
    500  N1         1.1420   -7.2600   15.0370 N.ar   34  A34        -0.2040
    501  C2         2.0770   -6.4730   14.4920 C.ar   34  A34         0.2016
    502  N3         1.9270   -5.3130   13.8550 N.ar   34  A34        -0.2048
    503  C4         0.6290   -4.9650   13.7980 C.ar   34  A34         0.1692
    504  C5        -0.4430   -5.6690   14.3130 C.ar   34  A34         0.1518
    505  C6        -0.1530   -6.8840   14.9660 C.ar   34  A34         0.1919
    506  N6        -1.0920   -7.6720   15.5070 N.pl3  34  A34        -0.1054
    507  N7        -1.6310   -5.0020   14.0640 N.ar   34  A34        -0.2193
    508  C8        -1.2620   -3.9210   13.4160 C.ar   34  A34         0.1816
    509  N9         0.0900   -3.8330   13.2250 N.ar   34  A34        -0.2693
    510  OP1       -4.5510   -0.6600   10.2000 O.2    34  A34        -0.5172
    511  OP2       -4.8210   -2.4000   12.0670 O.co2  34  A34        -0.4373
    512  P          0.0770   -3.9340    7.9810 P.3    35  A35         0.2141
    513  C5'        2.5810   -4.6690    8.1850 C.3    35  A35         0.1812
    514  O5'        1.2120   -4.9620    8.4410 O.3    35  A35        -0.3114
    515  C4'        3.4690   -5.7300    8.8050 C.3    35  A35         0.1773
    516  O4'        3.2290   -5.8150   10.2340 O.3    35  A35        -0.3307
    517  C3'        3.2170   -7.1450    8.3070 C.3    35  A35         0.1860
    518  O3'        3.8880   -7.3530    7.0740 O.3    35  A35        -0.3112
    519  C2'        3.8330   -7.9570    9.4400 C.3    35  A35         0.2309
    520  O2'        5.2470   -7.9850    9.3840 O.3    35  A35        -0.2156
    521  C1'        3.3680   -7.1610   10.6560 C.3    35  A35         0.2408
    522  N1         0.8260  -10.8950   13.1600 N.ar   35  A35        -0.2040
    523  C2         2.1140  -10.7760   12.8090 C.ar   35  A35         0.2016
    524  N3         2.7170   -9.7780   12.1610 N.ar   35  A35        -0.2048
    525  C4         1.8390   -8.8070   11.8520 C.ar   35  A35         0.1692
    526  C5         0.4880   -8.7910   12.1460 C.ar   35  A35         0.1518
    527  C6        -0.0290   -9.9020   12.8380 C.ar   35  A35         0.1919
    528  N6        -1.3170  -10.0120   13.1830 N.pl3  35  A35        -0.1054
    529  N7        -0.1040   -7.6330   11.6730 N.ar   35  A35        -0.2193
    530  C8         0.8860   -6.9770   11.1160 C.ar   35  A35         0.1816
    531  N9         2.0870   -7.6230   11.1880 N.ar   35  A35        -0.2693
    532  OP1        0.3630   -3.5020    6.5970 O.2    35  A35        -0.5172
    533  OP2       -1.2340   -4.5320    8.3050 O.co2  35  A35        -0.4373
    534  P          3.1790   -8.1690    5.8950 P.3    36  G36         0.2141
    535  C5'        4.0670  -10.5090    6.6690 C.3    36  G36         0.1812
    536  O5'        2.9690   -9.6170    6.5420 O.3    36  G36        -0.3114
    537  C4'        3.7130  -11.6810    7.5670 C.3    36  G36         0.1773
    538  O4'        3.2920  -11.2000    8.8700 O.3    36  G36        -0.3307
    539  C3'        2.5360  -12.5280    7.1090 C.3    36  G36         0.1860
    540  O3'        2.9310  -13.4390    6.0920 O.3    36  G36        -0.3112
    541  C2'        2.2270  -13.2450    8.4140 C.3    36  G36         0.2309
    542  O2'        3.2270  -14.1920    8.7290 O.3    36  G36        -0.2156
    543  C1'        2.2860  -12.0650    9.3780 C.3    36  G36         0.2408
    544  N1        -2.5580  -12.0840   10.9610 N.ar   36  G36        -0.1709
    545  C2        -1.5830  -13.0340   11.1450 C.ar   36  G36         0.2606
    546  N2        -1.9470  -14.1300   11.8280 N.pl3  36  G36        -0.0859
    547  N3        -0.3400  -12.9190   10.6860 N.ar   36  G36        -0.1918
    548  C4        -0.1510  -11.7560   10.0160 C.ar   36  G36         0.1723
    549  C5        -1.0570  -10.7460    9.7850 C.ar   36  G36         0.1748
    550  C6        -2.3750  -10.8830   10.2790 C.ar   36  G36         0.3023
    551  O6        -3.3170  -10.0930   10.1670 O.2    36  G36        -0.2633
    552  N7        -0.4760   -9.7160    9.0580 N.ar   36  G36        -0.2173
    553  C8         0.7490  -10.1120    8.8670 C.ar   36  G36         0.1817
    554  N9         1.0210  -11.3380    9.4250 N.ar   36  G36        -0.2693
    555  OP1        4.1490   -8.2770    4.7820 O.2    36  G36        -0.5172
    556  OP2        1.8410   -7.5880    5.6530 O.co2  36  G36        -0.4373
    557  P          1.8670  -13.9180    4.9980 P.3    37  G37         0.2141
    558  C5'        1.3630  -16.0920    6.4280 C.3    37  G37         0.1812
    559  O5'        0.8900  -14.9000    5.8090 O.3    37  G37        -0.3114
    560  C4'        0.2830  -16.6950    7.3140 C.3    37  G37         0.1773
    561  O4'       -0.0910  -15.7610    8.3600 O.3    37  G37        -0.3307
    562  C3'       -1.0330  -16.9870    6.6090 C.3    37  G37         0.1860
    563  O3'       -0.9560  -18.2190    5.9220 O.3    37  G37        -0.3112
    564  C2'       -1.9990  -17.0410    7.7850 C.3    37  G37         0.2309
    565  O2'       -1.9170  -18.2460    8.5190 O.3    37  G37        -0.2156
    566  C1'       -1.4830  -15.8670    8.6120 C.3    37  G37         0.2408
    567  N1        -5.8320  -13.2650    8.7110 N.ar   37  G37        -0.1709
    568  C2        -5.5490  -14.5190    9.1960 C.ar   37  G37         0.2606
    569  N2        -6.5580  -15.1730    9.7880 N.pl3  37  G37        -0.0859
    570  N3        -4.3580  -15.0950    9.1100 N.ar   37  G37        -0.1918
    571  C4        -3.4590  -14.3050    8.4770 C.ar   37  G37         0.1723
    572  C5        -3.6420  -13.0460    7.9550 C.ar   37  G37         0.1748
    573  C6        -4.9210  -12.4420    8.0560 C.ar   37  G37         0.3023
    574  O6        -5.2840  -11.3270    7.6570 O.2    37  G37        -0.2633
    575  N7        -2.4630  -12.5780    7.3900 N.ar   37  G37        -0.2173
    576  C8        -1.6060  -13.5410    7.5820 C.ar   37  G37         0.1817
    577  N9        -2.1430  -14.6210    8.2400 N.ar   37  G37        -0.2693
    578  OP1        2.6070  -14.6830    3.9670 O.2    37  G37        -0.5172
    579  OP2        1.0590  -12.7420    4.6130 O.co2  37  G37        -0.4373
    580  P         -1.7290  -18.3900    4.5370 P.3    38  C38         0.2141
    581  C5'       -3.7340  -19.5790    5.7630 C.3    38  C38         0.1812
    582  O5'       -3.2530  -18.4710    5.0070 O.3    38  C38        -0.3114
    583  C4'       -5.2490  -19.5380    5.8440 C.3    38  C38         0.1773
    584  O4'       -5.6660  -18.4010    6.6440 O.3    38  C38        -0.3307
    585  C3'       -5.9450  -19.3080    4.5130 C.3    38  C38         0.1860
    586  O3'       -6.0430  -20.5270    3.7780 O.3    38  C38        -0.3112
    587  C2'       -7.2960  -18.7750    4.9770 C.3    38  C38         0.2309
    588  O2'       -8.1520  -19.7990    5.4550 O.3    38  C38        -0.2156
    589  C1'       -6.8740  -17.8670    6.1310 C.3    38  C38         0.2420
    590  N1        -6.6590  -16.4180    5.7760 N.ar   38  C38        -0.2535
    591  C2        -7.7460  -15.5340    5.7650 C.ar   38  C38         0.3532
    592  O2        -8.8770  -15.9610    6.0330 O.2    38  C38        -0.2443
    593  N3        -7.5330  -14.2280    5.4570 N.ar   38  C38        -0.1739
    594  C4        -6.2990  -13.8000    5.1760 C.ar   38  C38         0.1759
    595  N4        -6.1380  -12.5080    4.8730 N.pl3  38  C38        -0.1070
    596  C5        -5.1780  -14.6830    5.1830 C.ar   38  C38         0.0566
    597  C6        -5.4010  -15.9660    5.4910 C.ar   38  C38         0.0850
    598  OP1       -1.3170  -19.6820    3.9480 O.3    38  C38        -0.4373
    599  OP2       -1.5690  -17.1430    3.7550 O.co2  38  C38        -0.5172
    600  P         -5.9770  -20.4900    2.1780 P.3    39  U39         0.2141
    601  C5'       -8.5830  -20.7780    1.9740 C.3    39  U39         0.1812
    602  O5'       -7.4320  -19.9590    1.7900 O.3    39  U39        -0.3114
    603  C4'       -9.8420  -19.9550    1.7710 C.3    39  U39         0.1773
    604  O4'       -9.8920  -18.8690    2.7320 O.3    39  U39        -0.3307
    605  C3'       -9.9180  -19.2310    0.4370 C.3    39  U39         0.1860
    606  O3'      -10.2930  -20.1300   -0.6020 O.3    39  U39        -0.3112
    607  C2'      -10.9870  -18.1850    0.7490 C.3    39  U39         0.2309
    608  O2'      -12.3020  -18.7030    0.7440 O.3    39  U39        -0.2156
    609  C1'      -10.5970  -17.7710    2.1670 C.3    39  U39         0.2420
    610  N1        -9.7260  -16.5530    2.1870 N.ar   39  U39        -0.2534
    611  C2       -10.2920  -15.2990    2.3370 C.ar   39  U39         0.3546
    612  O2       -11.4900  -15.1100    2.4710 O.2    39  U39        -0.2443
    613  N3        -9.3940  -14.2580    2.3360 N.ar   39  U39        -0.1530
    614  C4        -8.0180  -14.3410    2.1940 C.ar   39  U39         0.2846
    615  O4        -7.3320  -13.3210    2.2020 O.2    39  U39        -0.2650
    616  C5        -7.5080  -15.6780    2.0330 C.ar   39  U39         0.0814
    617  C6        -8.3610  -16.7060    2.0380 C.ar   39  U39         0.0870
    618  OP1       -5.8210  -21.8840    1.7000 O.2    39  U39        -0.5172
    619  OP2       -5.0090  -19.4480    1.7670 O.co2  39  U39        -0.4373
    620  P         -9.6710  -19.9920   -2.0710 P.3    40  G40         0.2141
    621  C5'      -11.7070  -18.5560   -2.8470 C.3    40  G40         0.1812
    622  O5'      -10.3090  -18.6290   -2.6060 O.3    40  G40        -0.3114
    623  C4'      -12.1150  -17.1100   -3.0290 C.3    40  G40         0.1773
    624  O4'      -11.7920  -16.3720   -1.8200 O.3    40  G40        -0.3307
    625  C3'      -11.3600  -16.3710   -4.1250 C.3    40  G40         0.1860
    626  O3'      -11.9310  -16.6460   -5.4020 O.3    40  G40        -0.3112
    627  C2'      -11.5870  -14.9330   -3.6840 C.3    40  G40         0.2309
    628  O2'      -12.8290  -14.4220   -4.1170 O.3    40  G40        -0.2156
    629  C1'      -11.4850  -15.0320   -2.1560 C.3    40  G40         0.2408
    630  N1        -8.2620  -11.3550   -0.7460 N.ar   40  G40        -0.1709
    631  C2        -9.6220  -11.2970   -0.9300 C.ar   40  G40         0.2606
    632  N2       -10.2120  -10.1050   -0.7250 N.pl3  40  G40        -0.0859
    633  N3       -10.3600  -12.3410   -1.2900 N.ar   40  G40        -0.1918
    634  C4        -9.6230  -13.4670   -1.4450 C.ar   40  G40         0.1723
    635  C5        -8.2640  -13.6240   -1.2970 C.ar   40  G40         0.1748
    636  C6        -7.4850  -12.5040   -0.9190 C.ar   40  G40         0.3023
    637  O6        -6.2630  -12.4510   -0.7390 O.2    40  G40        -0.2633
    638  N7        -7.8940  -14.9360   -1.5530 N.ar   40  G40        -0.2173
    639  C8        -9.0120  -15.5330   -1.8580 C.ar   40  G40         0.1817
    640  N9       -10.1080  -14.7080   -1.7910 N.ar   40  G40        -0.2693
    641  OP1      -10.2050  -21.1140   -2.8700 O.2    40  G40        -0.5172
    642  OP2       -8.2100  -19.7850   -1.9580 O.co2  40  G40        -0.4373
    643  P        -11.0270  -16.8010   -6.7180 P.3    41  A41         0.2141
    644  C5'       -9.7750  -14.9500   -8.0900 C.3    41  A41         0.1812
    645  O5'      -10.7440  -15.2750   -7.0990 O.3    41  A41        -0.3114
    646  C4'       -9.7930  -13.4530   -8.3480 C.3    41  A41         0.1773
    647  O4'      -11.1060  -13.0740   -8.8300 O.3    41  A41        -0.3307
    648  C3'       -9.5950  -12.5960   -7.1110 C.3    41  A41         0.1860
    649  O3'       -8.2070  -12.4220   -6.8220 O.3    41  A41        -0.3112
    650  C2'      -10.2570  -11.2850   -7.5230 C.3    41  A41         0.2309
    651  O2'       -9.4000  -10.4870   -8.3170 O.3    41  A41        -0.2156
    652  C1'      -11.4260  -11.7700   -8.3730 C.3    41  A41         0.2408
    653  N1       -15.2660   -9.0960   -6.1650 N.ar   41  A41        -0.2040
    654  C2       -14.0960   -8.7040   -6.6840 C.ar   41  A41         0.2016
    655  N3       -13.1350   -9.4470   -7.2400 N.ar   41  A41        -0.2048
    656  C4       -13.4660  -10.7490   -7.2320 C.ar   41  A41         0.1692
    657  C5       -14.6260  -11.2990   -6.7240 C.ar   41  A41         0.1518
    658  C6       -15.5670  -10.4100   -6.1650 C.ar   41  A41         0.1919
    659  N6       -16.7300  -10.8140   -5.6400 N.pl3  41  A41        -0.1054
    660  N7       -14.6270  -12.6740   -6.8780 N.ar   41  A41        -0.2193
    661  C8       -13.4850  -12.9250   -7.4720 C.ar   41  A41         0.1816
    662  N9       -12.7280  -11.8110   -7.7070 N.ar   41  A41        -0.2693
    663  OP1      -11.8610  -17.4130   -7.7750 O.2    41  A41        -0.5172
    664  OP2       -9.7380  -17.4160   -6.3470 O.co2  41  A41        -0.4373
    665  P         -7.7040  -12.5440   -5.3070 P.3    42  G42         0.2141
    666  C5'       -7.5250   -9.9260   -5.2660 C.3    42  G42         0.1812
    667  O5'       -8.0130  -11.1200   -4.6540 O.3    42  G42        -0.3114
    668  C4'       -8.3840   -8.7300   -4.8840 C.3    42  G42         0.1773
    669  O4'       -9.7160   -8.8960   -5.4320 O.3    42  G42        -0.3307
    670  C3'       -8.5850   -8.5260   -3.3890 C.3    42  G42         0.1860
    671  O3'       -7.5580   -7.6950   -2.8640 O.3    42  G42        -0.3112
    672  C2'       -9.9560   -7.8500   -3.3140 C.3    42  G42         0.2309
    673  O2'       -9.8870   -6.4470   -3.4880 O.3    42  G42        -0.2156
    674  C1'      -10.6900   -8.4900   -4.4870 C.3    42  G42         0.2408
    675  N1       -15.2330  -10.1450   -2.8610 N.ar   42  G42        -0.1709
    676  C2       -14.7850   -8.8550   -3.0420 C.ar   42  G42         0.2606
    677  N2       -15.6500   -7.8700   -2.7630 N.pl3  42  G42        -0.0859
    678  N3       -13.5670   -8.5430   -3.4660 N.ar   42  G42        -0.1918
    679  C4       -12.8170   -9.6450   -3.7070 C.ar   42  G42         0.1723
    680  C5       -13.1720  -10.9670   -3.5640 C.ar   42  G42         0.1748
    681  C6       -14.4740  -11.2880   -3.1030 C.ar   42  G42         0.3023
    682  O6       -14.9630  -12.4100   -2.9120 O.2    42  G42        -0.2633
    683  N7       -12.1150  -11.7940   -3.9160 N.ar   42  G42        -0.2173
    684  C8       -11.1590  -10.9770   -4.2560 C.ar   42  G42         0.1817
    685  N9       -11.5120   -9.6540   -4.1520 N.ar   42  G42        -0.2693
    686  OP1       -6.2330  -12.7220   -5.3320 O.2    42  G42        -0.5172
    687  OP2       -8.5560  -13.5610   -4.6460 O.co2  42  G42        -0.4373
    688  P         -7.0400   -7.9120   -1.3640 P.3    43  A43         0.2141
    689  C5'       -8.9430   -6.5040   -0.2400 C.3    43  A43         0.1812
    690  O5'       -8.3810   -7.7830   -0.5070 O.3    43  A43        -0.3114
    691  C4'       -9.3430   -6.4570    1.2170 C.3    43  A43         0.1773
    692  O4'      -10.2760   -7.5360    1.4720 O.3    43  A43        -0.3307
    693  C3'       -8.1860   -6.6580    2.1940 C.3    43  A43         0.1860
    694  O3'       -8.2040   -5.6350    3.1710 O.3    43  A43        -0.3112
    695  C2'       -8.4780   -8.0120    2.8340 C.3    43  A43         0.2309
    696  O2'       -8.0750   -8.0690    4.1850 O.3    43  A43        -0.2156
    697  C1'       -9.9960   -8.0590    2.7470 C.3    43  A43         0.2408
    698  N1       -14.0710  -10.9680    3.8570 N.ar   43  A43        -0.2040
    699  C2       -13.8960   -9.6410    3.8720 C.ar   43  A43         0.2016
    700  N3       -12.8060   -8.9420    3.5770 N.ar   43  A43        -0.2048
    701  C4       -11.8050   -9.7660    3.2080 C.ar   43  A43         0.1692
    702  C5       -11.8350  -11.1460    3.1390 C.ar   43  A43         0.1518
    703  C6       -13.0490  -11.7670    3.4880 C.ar   43  A43         0.1919
    704  N6       -13.2350  -13.0910    3.4740 N.pl3  43  A43        -0.1054
    705  N7       -10.6120  -11.6510    2.7210 N.ar   43  A43        -0.2193
    706  C8        -9.8750  -10.5780    2.5530 C.ar   43  A43         0.1816
    707  N9       -10.5350   -9.4110    2.8290 N.ar   43  A43        -0.2693
    708  OP1       -6.1460   -6.7840   -1.0310 O.3    43  A43        -0.4373
    709  OP2       -6.5600   -9.3050   -1.2310 O.co2  43  A43        -0.5172
    710  P         -6.9370   -4.6820    3.3800 P.3    44  A44         0.2141
    711  C5'       -6.4620   -3.3560    1.1570 C.3    44  A44         0.1812
    712  O5'       -7.2500   -3.5290    2.3230 O.3    44  A44        -0.3114
    713  C4'       -6.6230   -1.9210    0.7010 C.3    44  A44         0.1773
    714  O4'       -8.0420   -1.6320    0.6430 O.3    44  A44        -0.3307
    715  C3'       -6.0140   -0.8950    1.6570 C.3    44  A44         0.1860
    716  O3'       -5.3570    0.1470    0.9420 O.3    44  A44        -0.3112
    717  C2'       -7.2270   -0.3730    2.4170 C.3    44  A44         0.2309
    718  O2'       -7.0640    0.9520    2.8840 O.3    44  A44        -0.2156
    719  C1'       -8.2870   -0.4220    1.3250 C.3    44  A44         0.2408
    720  N1       -12.7070    2.1680    1.5270 N.ar   44  A44        -0.2040
    721  C2       -11.5600    2.4030    0.8800 C.ar   44  A44         0.2016
    722  N3       -10.4450    1.6770    0.8710 N.ar   44  A44        -0.2048
    723  C4       -10.5830    0.5850    1.6400 C.ar   44  A44         0.1692
    724  C5       -11.6980    0.2090    2.3670 C.ar   44  A44         0.1518
    725  C6       -12.8150    1.0640    2.2940 C.ar   44  A44         0.1919
    726  N6       -13.9660    0.8410    2.9360 N.pl3  44  A44        -0.1054
    727  N7       -11.4630   -0.9790    3.0430 N.ar   44  A44        -0.2193
    728  C8       -10.2300   -1.2900    2.7130 C.ar   44  A44         0.1816
    729  N9        -9.6450   -0.3950    1.8610 N.ar   44  A44        -0.2693
    730  OP1       -5.7150   -5.4080    2.9730 O.2    44  A44        -0.5172
    731  OP2       -7.0460   -4.1190    4.7450 O.co2  44  A44        -0.4373
    732  P         -3.7950    0.0320    0.5930 P.3    45  A45         0.2141
    733  C5'       -4.2550    0.3340   -1.9550 C.3    45  A45         0.1812
    734  O5'       -3.8140   -0.5200   -0.9100 O.3    45  A45        -0.3114
    735  C4'       -4.4690   -0.4380   -3.2420 C.3    45  A45         0.1773
    736  O4'       -5.6160   -1.3160   -3.0960 O.3    45  A45        -0.3307
    737  C3'       -4.7740    0.4400   -4.4490 C.3    45  A45         0.1860
    738  O3'       -3.5690    0.7860   -5.1220 O.3    45  A45        -0.3112
    739  C2'       -5.6270   -0.4940   -5.2970 C.3    45  A45         0.2309
    740  O2'       -4.8280   -1.4150   -6.0110 O.3    45  A45        -0.2156
    741  C1'       -6.4510   -1.2190   -4.2340 C.3    45  A45         0.2408
    742  N1       -10.9320   -1.5010   -1.7050 N.ar   45  A45        -0.2040
    743  C2        -9.9570   -2.3980   -1.8980 C.ar   45  A45         0.2016
    744  N3        -8.8130   -2.2610   -2.5690 N.ar   45  A45        -0.2048
    745  C4        -8.7110   -1.0280   -3.0890 C.ar   45  A45         0.1692
    746  C5        -9.6330   -0.0020   -2.9800 C.ar   45  A45         0.1518
    747  C6       -10.8040   -0.2700   -2.2410 C.ar   45  A45         0.1919
    748  N6       -11.7850    0.6240   -2.0540 N.pl3  45  A45        -0.1054
    749  N7        -9.1900    1.1280   -3.6460 N.ar   45  A45        -0.2193
    750  C8        -8.0290    0.7670   -4.1380 C.ar   45  A45         0.1816
    751  N9        -7.6760   -0.5230   -3.8430 N.ar   45  A45        -0.2693
    752  OP1       -3.1960   -0.9890    1.4820 O.3    45  A45        -0.4373
    753  OP2       -3.2350    1.4020    0.5650 O.co2  45  A45        -0.5172
    754  P         -3.0740    2.3060   -5.2100 P.3    46  U46         0.2141
    755  C5'       -4.0830    2.8860   -7.5570 C.3    46  U46         0.1812
    756  O5'       -4.1710    2.9990   -6.1420 O.3    46  U46        -0.3114
    757  C4'       -5.4700    2.6900   -8.1390 C.3    46  U46         0.1773
    758  O4'       -6.4060    2.5010   -7.0490 O.3    46  U46        -0.3307
    759  C3'       -5.9800    3.8680   -8.9620 C.3    46  U46         0.1860
    760  O3'       -6.2360    3.4890  -10.3270 O.3    46  U46        -0.3112
    761  C2'       -7.2100    4.3890   -8.2120 C.3    46  U46         0.2309
    762  O2'       -8.2960    4.7090   -9.0610 O.3    46  U46        -0.2156
    763  C1'       -7.5860    3.2370   -7.2860 C.3    46  U46         0.2420
    764  N1        -8.1240    3.6970   -5.9730 N.ar   46  U46        -0.2534
    765  C2        -9.4730    3.5610   -5.7100 C.ar   46  U46         0.3546
    766  O2       -10.2600    3.0690   -6.5000 O.2    46  U46        -0.2443
    767  N3        -9.8680    4.0200   -4.4760 N.ar   46  U46        -0.1530
    768  C4        -9.0640    4.5930   -3.5040 C.ar   46  U46         0.2846
    769  O4        -9.5580    4.9610   -2.4420 O.2    46  U46        -0.2650
    770  C5        -7.6710    4.7050   -3.8550 C.ar   46  U46         0.0814
    771  C6        -7.2640    4.2640   -5.0510 C.ar   46  U46         0.0870
    772  OP1       -1.7740    2.3090   -5.9160 O.2    46  U46        -0.5172
    773  OP2       -3.1830    2.9110   -3.8640 O.co2  46  U46        -0.4373
    774  P         -7.0870    2.1980  -10.7580 P.3    47  A47         0.2141
    775  C5'       -6.0950   -0.2290  -10.8760 C.3    47  A47         0.1812
    776  O5'       -6.3180    0.9520  -10.1050 O.3    47  A47        -0.3114
    777  C4'       -6.1500   -1.4880  -10.0260 C.3    47  A47         0.1773
    778  O4'       -6.3070   -1.1460   -8.6270 O.3    47  A47        -0.3307
    779  C3'       -7.3120   -2.4240  -10.3260 C.3    47  A47         0.1860
    780  O3'       -6.9990   -3.2830  -11.4140 O.3    47  A47        -0.3112
    781  C2'       -7.4090   -3.2030   -9.0200 C.3    47  A47         0.2309
    782  O2'       -6.4480   -4.2360   -8.9410 O.3    47  A47        -0.2156
    783  C1'       -7.1150   -2.1210   -7.9860 C.3    47  A47         0.2408
    784  N1       -11.3020   -2.5170   -5.0020 N.ar   47  A47        -0.2040
    785  C2       -10.3050   -3.3720   -5.2610 C.ar   47  A47         0.2016
    786  N3        -9.2400   -3.2110   -6.0480 N.ar   47  A47        -0.2048
    787  C4        -9.2470   -1.9940   -6.6130 C.ar   47  A47         0.1692
    788  C5       -10.2000   -1.0060   -6.4420 C.ar   47  A47         0.1518
    789  C6       -11.2780   -1.2990   -5.5840 C.ar   47  A47         0.1919
    790  N6       -12.2670   -0.4360   -5.3260 N.pl3  47  A47        -0.1054
    791  N7        -9.8770    0.1190   -7.1810 N.ar   47  A47        -0.2193
    792  C8        -8.7570   -0.2080   -7.7790 C.ar   47  A47         0.1816
    793  N9        -8.3200   -1.4690   -7.4820 N.ar   47  A47        -0.2693
    794  OP1       -6.9760    2.0950  -12.2310 O.2    47  A47        -0.5172
    795  OP2       -8.4250    2.2890  -10.1320 O.co2  47  A47        -0.4373
    796  P         -8.1470   -3.7590  -12.4220 P.3    48  C48         0.2141
    797  C5'       -8.4570   -6.0020  -11.0780 C.3    48  C48         0.1812
    798  O5'       -9.0170   -4.7760  -11.5400 O.3    48  C48        -0.3114
    799  C4'       -9.3970   -6.6920  -10.1030 C.3    48  C48         0.1773
    800  O4'       -9.5380   -5.8940   -8.8990 O.3    48  C48        -0.3307
    801  C3'      -10.8270   -6.8720  -10.5860 C.3    48  C48         0.1860
    802  O3'      -10.9350   -8.0280  -11.4030 O.3    48  C48        -0.3112
    803  C2'      -11.5490   -7.0520   -9.2590 C.3    48  C48         0.2309
    804  O2'      -11.3300   -8.3340   -8.6970 O.3    48  C48        -0.2156
    805  C1'      -10.8650   -5.9860   -8.4100 C.3    48  C48         0.2420
    806  N1       -11.5060   -4.6250   -8.4630 N.ar   48  C48        -0.2535
    807  C2       -12.5790   -4.3210   -7.6150 C.ar   48  C48         0.3532
    808  O2       -13.0020   -5.1830   -6.8320 O.2    48  C48        -0.2443
    809  N3       -13.1330   -3.0820   -7.6730 N.ar   48  C48        -0.1739
    810  C4       -12.6590   -2.1680   -8.5230 C.ar   48  C48         0.1759
    811  N4       -13.2450   -0.9640   -8.5360 N.pl3  48  C48        -0.1070
    812  C5       -11.5670   -2.4540   -9.3960 C.ar   48  C48         0.0566
    813  C6       -11.0280   -3.6780   -9.3290 C.ar   48  C48         0.0850
    814  OP1       -7.5060   -4.5090  -13.5250 O.2    48  C48        -0.5172
    815  OP2       -9.0010   -2.5870  -12.7160 O.co2  48  C48        -0.4373
    816  P        -11.8930   -8.0200  -12.6830 P.3    49  C49         0.2141
    817  C5'      -13.6790   -9.2870  -11.2400 C.3    49  C49         0.1812
    818  O5'      -13.3610   -8.1740  -12.0680 O.3    49  C49        -0.3114
    819  C4'      -14.9220   -9.0040  -10.4200 C.3    49  C49         0.1773
    820  O4'      -14.6580   -7.9080   -9.5080 O.3    49  C49        -0.3307
    821  C3'      -16.1160   -8.4990  -11.2150 C.3    49  C49         0.1860
    822  O3'      -16.7750   -9.5550  -11.9080 O.3    49  C49        -0.3112
    823  C2'      -16.9500   -7.8840  -10.0950 C.3    49  C49         0.2309
    824  O2'      -17.6060   -8.8410   -9.2840 O.3    49  C49        -0.2156
    825  C1'      -15.8580   -7.1840   -9.2910 C.3    49  C49         0.2420
    826  N1       -15.6590   -5.7660   -9.7090 N.ar   49  C49        -0.2535
    827  C2       -16.5400   -4.7930   -9.2260 C.ar   49  C49         0.3532
    828  O2       -17.4490   -5.1360   -8.4670 O.2    49  C49        -0.2443
    829  N3       -16.3760   -3.5040   -9.6060 N.ar   49  C49        -0.1739
    830  C4       -15.3840   -3.1750  -10.4310 C.ar   49  C49         0.1759
    831  N4       -15.2680   -1.8860  -10.7720 N.pl3  49  C49        -0.1070
    832  C5       -14.4700   -4.1510  -10.9360 C.ar   49  C49         0.0566
    833  C6       -14.6470   -5.4230  -10.5570 C.ar   49  C49         0.0850
    834  OP1      -11.5780   -9.2270  -13.4770 O.2    49  C49        -0.5172
    835  OP2      -11.7950   -6.6830  -13.3070 O.co2  49  C49        -0.4373
    836  P        -17.3650   -9.2810  -13.3720 P.3    50  C50         0.2141
    837  C5'      -19.7330   -9.0130  -12.2850 C.3    50  C50         0.1812
    838  O5'      -18.6920   -8.4400  -13.0700 O.3    50  C50        -0.3114
    839  C4'      -20.6830   -7.9490  -11.7590 C.3    50  C50         0.1773
    840  O4'      -19.9560   -6.9660  -10.9770 O.3    50  C50        -0.3307
    841  C3'      -21.3990   -7.1150  -12.8110 C.3    50  C50         0.1860
    842  O3'      -22.5040   -7.8280  -13.3600 O.3    50  C50        -0.3112
    843  C2'      -21.8280   -5.9220  -11.9590 C.3    50  C50         0.2309
    844  O2'      -22.9170   -6.2130  -11.1050 O.3    50  C50        -0.2156
    845  C1'      -20.5670   -5.6940  -11.1280 C.3    50  C50         0.2420
    846  N1       -19.6090   -4.7450  -11.7780 N.ar   50  C50        -0.2535
    847  C2       -19.8860   -3.3720  -11.7710 C.ar   50  C50         0.3532
    848  O2       -20.9120   -2.9610  -11.2180 O.2    50  C50        -0.2443
    849  N3       -19.0170   -2.5210  -12.3650 N.ar   50  C50        -0.1739
    850  C4       -17.9170   -2.9900  -12.9560 C.ar   50  C50         0.1759
    851  N4       -17.0940   -2.1070  -13.5320 N.pl3  50  C50        -0.1070
    852  C5       -17.6160   -4.3840  -12.9810 C.ar   50  C50         0.0566
    853  C6       -18.4800   -5.2140  -12.3860 C.ar   50  C50         0.0850
    854  OP1      -17.7480  -10.5820  -13.9570 O.3    50  C50        -0.4373
    855  OP2      -16.4260   -8.3910  -14.0870 O.co2  50  C50        -0.5172
    856  P        -23.0830   -7.4550  -14.8090 P.3    51  G51         0.2141
    857  C5'      -25.0620   -6.0350  -13.8350 C.3    51  G51         0.1812
    858  O5'      -23.8390   -6.0670  -14.5630 O.3    51  G51        -0.3114
    859  C4'      -25.6310   -4.6280  -13.8130 C.3    51  G51         0.1773
    860  O4'      -24.6570   -3.7190  -13.2450 O.3    51  G51        -0.3307
    861  C3'      -25.9350   -4.0420  -15.1810 C.3    51  G51         0.1860
    862  O3'      -27.2280   -4.4440  -15.6070 O.3    51  G51        -0.3112
    863  C2'      -25.8550   -2.5400  -14.9230 C.3    51  G51         0.2309
    864  O2'      -27.0540   -2.0110  -14.3910 O.3    51  G51        -0.2156
    865  C1'      -24.7400   -2.4570  -13.8830 C.3    51  G51         0.2408
    866  N1       -21.6140    1.1640  -15.6550 N.ar   51  G51        -0.1709
    867  C2       -22.8990    1.2860  -15.1810 C.ar   51  G51         0.2606
    868  N2       -23.4140    2.5240  -15.1760 N.pl3  51  G51        -0.0859
    869  N3       -23.6280    0.2650  -14.7420 N.ar   51  G51        -0.1918
    870  C4       -22.9520   -0.9090  -14.8190 C.ar   51  G51         0.1723
    871  C5       -21.6710   -1.1310  -15.2750 C.ar   51  G51         0.1748
    872  C6       -20.9070   -0.0340  -15.7390 C.ar   51  G51         0.3023
    873  O6       -19.7490   -0.0420  -16.1800 O.2    51  G51        -0.2633
    874  N7       -21.3410   -2.4790  -15.1950 N.ar   51  G51        -0.2173
    875  C8       -22.4100   -3.0370  -14.6980 C.ar   51  G51         0.1817
    876  N9       -23.4280   -2.1470  -14.4460 N.ar   51  G51        -0.2693
    877  OP1      -24.0820   -8.4800  -15.1780 O.3    51  G51        -0.4373
    878  OP2      -21.9360   -7.1970  -15.7070 O.co2  51  G51        -0.5172
    879  P        -27.4640   -4.7960  -17.1470 P.3    52  U52         0.2141
    880  C5'      -28.9310   -6.8050  -16.2980 C.3    52  U52         0.1812
    881  O5'      -28.8100   -5.6560  -17.1240 O.3    52  U52        -0.3114
    882  C4'      -30.3930   -7.0550  -15.9770 C.3    52  U52         0.1773
    883  O4'      -30.7410   -6.3490  -14.7590 O.3    52  U52        -0.3307
    884  C3'      -31.3760   -6.5700  -17.0390 C.3    52  U52         0.1860
    885  O3'      -32.4940   -7.4460  -17.1210 O.3    52  U52        -0.3112
    886  C2'      -31.7810   -5.1930  -16.5190 C.3    52  U52         0.2309
    887  O2'      -33.0650   -4.7990  -16.9610 O.3    52  U52        -0.2156
    888  C1'      -31.7880   -5.4360  -15.0150 C.3    52  U52         0.2420
    889  N1       -31.5460   -4.2120  -14.2050 N.ar   52  U52        -0.2534
    890  C2       -32.6150   -3.6020  -13.5820 C.ar   52  U52         0.3546
    891  O2       -33.7570   -4.0190  -13.6640 O.2    52  U52        -0.2443
    892  N3       -32.2970   -2.4800  -12.8550 N.ar   52  U52        -0.1530
    893  C4       -31.0400   -1.9220  -12.6940 C.ar   52  U52         0.2846
    894  O4       -30.9050   -0.9100  -12.0120 O.2    52  U52        -0.2650
    895  C5       -29.9770   -2.6150  -13.3760 C.ar   52  U52         0.0814
    896  C6       -30.2640   -3.7110  -14.0890 C.ar   52  U52         0.0870
    897  OP1      -26.3520   -5.6660  -17.5940 O.3    52  U52        -0.4373
    898  OP2      -27.7460   -3.5270  -17.8500 O.co2  52  U52        -0.5172
    899  P        -32.3240   -8.9460  -17.6560 P.3    53  A53         0.2141
    900  C5'      -31.2830  -10.8520  -16.1720 C.3    53  A53         0.1812
    901  O5'      -32.2190   -9.7870  -16.2970 O.3    53  A53        -0.3114
    902  C4'      -30.7100  -10.9390  -14.7660 C.3    53  A53         0.1773
    903  O4'      -30.2850   -9.6370  -14.3010 O.3    53  A53        -0.3307
    904  C3'      -31.6560  -11.4390  -13.6770 C.3    53  A53         0.1860
    905  O3'      -31.4290  -12.8240  -13.4360 O.3    53  A53        -0.3112
    906  C2'      -31.3030  -10.6050  -12.4410 C.3    53  A53         0.2309
    907  O2'      -30.9240  -11.4080  -11.3380 O.3    53  A53        -0.2156
    908  C1'      -30.1150   -9.7680  -12.9070 C.3    53  A53         0.2408
    909  N1       -32.5950   -5.6190  -11.0680 N.ar   53  A53        -0.2040
    910  C2       -33.0460   -6.7540  -11.6160 C.ar   53  A53         0.2016
    911  N3       -32.3550   -7.7950  -12.0760 N.ar   53  A53        -0.2048
    912  C4       -31.0360   -7.5960  -11.9340 C.ar   53  A53         0.1692
    913  C5       -30.4230   -6.4810  -11.3920 C.ar   53  A53         0.1518
    914  C6       -31.2630   -5.4450  -10.9390 C.ar   53  A53         0.1919
    915  N6       -30.8050   -4.3130  -10.3950 N.pl3  53  A53        -0.1054
    916  N7       -29.0460   -6.6200  -11.4060 N.ar   53  A53        -0.2193
    917  C8       -28.8570   -7.8000  -11.9470 C.ar   53  A53         0.1816
    918  N9       -30.0130   -8.4460  -12.2910 N.ar   53  A53        -0.2693
    919  OP1      -31.0450   -9.0430  -18.3950 O.2    53  A53        -0.5172
    920  OP2      -33.5850   -9.3220  -18.3330 O.co2  53  A53        -0.4373
    921  P        -32.5250  -13.9040  -13.8730 P.3    54  U54         0.2141
    922  C5'      -32.0320  -14.6880  -11.4140 C.3    54  U54         0.1812
    923  O5'      -32.4040  -15.0330  -12.7450 O.3    54  U54        -0.3114
    924  C4'      -31.1250  -15.7520  -10.8200 C.3    54  U54         0.1773
    925  O4'      -31.7780  -17.0430  -10.9150 O.3    54  U54        -0.3307
    926  C3'      -29.7720  -15.8950  -11.5120 C.3    54  U54         0.1860
    927  O3'      -28.7110  -15.7190  -10.5750 O.3    54  U54        -0.3112
    928  C2'      -29.7720  -17.3080  -12.0900 C.3    54  U54         0.2309
    929  O2'      -28.5140  -17.9370  -11.9460 O.3    54  U54        -0.2156
    930  C1'      -30.8160  -18.0220  -11.2400 C.3    54  U54         0.2420
    931  N1       -31.4940  -19.1410  -11.9570 N.ar   54  U54        -0.2534
    932  C2       -31.0610  -20.4360  -11.7550 C.ar   54  U54         0.3546
    933  O2       -30.1430  -20.7270  -11.0090 O.2    54  U54        -0.2443
    934  N3       -31.7480  -21.3910  -12.4640 N.ar   54  U54        -0.1530
    935  C4       -32.8020  -21.1860  -13.3360 C.ar   54  U54         0.2846
    936  O4       -33.3210  -22.1440  -13.9010 O.2    54  U54        -0.2650
    937  C5       -33.1950  -19.8090  -13.4930 C.ar   54  U54         0.0814
    938  C6       -32.5400  -18.8610  -12.8140 C.ar   54  U54         0.0870
    939  OP1      -32.0970  -14.4770  -15.1690 O.2    54  U54        -0.5172
    940  OP2      -33.8590  -13.2770  -13.7460 O.co2  54  U54        -0.4373
    941  P        -27.4570  -14.7930  -10.9500 P.3    55  C55         0.2141
    942  C5'      -25.0070  -15.4240  -11.6950 C.3    55  C55         0.1812
    943  O5'      -26.2400  -15.8300  -11.0910 O.3    55  C55        -0.3114
    944  C4'      -24.0800  -14.8030  -10.6620 C.3    55  C55         0.1773
    945  O4'      -22.6900  -15.1150  -10.9580 O.3    55  C55        -0.3307
    946  C3'      -24.1470  -13.2820  -10.5530 C.3    55  C55         0.1860
    947  O3'      -24.0550  -12.9330   -9.1790 O.3    55  C55        -0.3112
    948  C2'      -22.9020  -12.8510  -11.3220 C.3    55  C55         0.2309
    949  O2'      -22.4480  -11.5570  -10.9740 O.3    55  C55        -0.2156
    950  C1'      -21.9400  -13.9220  -10.8270 C.3    55  C55         0.2420
    951  N1       -20.6640  -14.0210  -11.5990 N.ar   55  C55        -0.2535
    952  C2       -19.6900  -14.9590  -11.2250 C.ar   55  C55         0.3532
    953  O2       -19.9000  -15.7050  -10.2580 O.2    55  C55        -0.2443
    954  N3       -18.5370  -15.0290  -11.9390 N.ar   55  C55        -0.1739
    955  C4       -18.3400  -14.2100  -12.9750 C.ar   55  C55         0.1759
    956  N4       -17.1880  -14.3150  -13.6470 N.pl3  55  C55        -0.1070
    957  C5       -19.3170  -13.2470  -13.3680 C.ar   55  C55         0.0566
    958  C6       -20.4490  -13.1870  -12.6600 C.ar   55  C55         0.0850
    959  OP1      -27.2060  -13.9060   -9.7920 O.3    55  C55        -0.4373
    960  OP2      -27.7090  -14.2090  -12.2880 O.co2  55  C55        -0.5172
    961  P        -24.5310  -11.5040   -8.6380 P.3    56  A56         0.2141
    962  C5'      -21.9480  -11.3190   -8.1430 C.3    56  A56         0.1812
    963  O5'      -23.2910  -11.0600   -7.7250 O.3    56  A56        -0.3114
    964  C4'      -21.0890  -10.0740   -7.9930 C.3    56  A56         0.1773
    965  O4'      -21.6270   -9.0010   -8.8060 O.3    56  A56        -0.3307
    966  C3'      -21.0420   -9.4830   -6.5920 C.3    56  A56         0.1860
    967  O3'      -20.0540  -10.1290   -5.8070 O.3    56  A56        -0.3112
    968  C2'      -20.6440   -8.0450   -6.8940 C.3    56  A56         0.2309
    969  O2'      -19.2800   -7.9300   -7.2430 O.3    56  A56        -0.2156
    970  C1'      -21.5100   -7.7690   -8.1130 C.3    56  A56         0.2408
    971  N1       -24.3290   -3.6440   -6.8290 N.ar   56  A56        -0.2040
    972  C2       -23.0200   -3.7900   -7.0700 C.ar   56  A56         0.2016
    973  N3       -22.3480   -4.8950   -7.3940 N.ar   56  A56        -0.2048
    974  C4       -23.1700   -5.9530   -7.4740 C.ar   56  A56         0.1692
    975  C5       -24.5370   -5.9550   -7.2620 C.ar   56  A56         0.1518
    976  C6       -25.1330   -4.7250   -6.9180 C.ar   56  A56         0.1919
    977  N6       -26.4440   -4.5820   -6.6870 N.pl3  56  A56        -0.1054
    978  N7       -25.0560   -7.2280   -7.4300 N.ar   56  A56        -0.2193
    979  C8       -24.0100   -7.9550   -7.7460 C.ar   56  A56         0.1816
    980  N9       -22.8390   -7.2510   -7.7910 N.ar   56  A56        -0.2693
    981  OP1      -25.7150  -11.7210   -7.7750 O.3    56  A56        -0.4373
    982  OP2      -24.6150  -10.5750   -9.7850 O.co2  56  A56        -0.5172
    983  P        -20.4830  -10.9240   -4.4890 P.3    57  C57         0.2141
    984  C5'      -20.4510   -8.5960   -3.2570 C.3    57  C57         0.1812
    985  O5'      -21.1440   -9.8000   -3.5530 O.3    57  C57        -0.3114
    986  C4'      -21.4310   -7.4760   -2.9520 C.3    57  C57         0.1773
    987  O4'      -22.2280   -7.1900   -4.1330 O.3    57  C57        -0.3307
    988  C3'      -22.4770   -7.7930   -1.8910 C.3    57  C57         0.1860
    989  O3'      -21.9520   -7.6580   -0.5760 O.3    57  C57        -0.3112
    990  C2'      -23.5030   -6.7100   -2.2080 C.3    57  C57         0.2309
    991  O2'      -23.0630   -5.4200   -1.8360 O.3    57  C57        -0.2156
    992  C1'      -23.5370   -6.8120   -3.7270 C.3    57  C57         0.2420
    993  N1       -24.5350   -7.8100   -4.2330 N.ar   57  C57        -0.2535
    994  C2       -25.8840   -7.4450   -4.3180 C.ar   57  C57         0.3532
    995  O2       -26.2190   -6.3050   -3.9650 O.2    57  C57        -0.2443
    996  N3       -26.7820   -8.3510   -4.7830 N.ar   57  C57        -0.1739
    997  C4       -26.3730   -9.5660   -5.1530 C.ar   57  C57         0.1759
    998  N4       -27.2860  -10.4240   -5.6160 N.pl3  57  C57        -0.1070
    999  C5       -25.0040   -9.9550   -5.0720 C.ar   57  C57         0.0566
   1000  C6       -24.1300   -9.0550   -4.6120 C.ar   57  C57         0.0850
   1001  OP1      -19.2440  -11.4240   -3.8540 O.3    57  C57        -0.4373
   1002  OP2      -21.5740  -11.8500   -4.8550 O.co2  57  C57        -0.5172
   1003  P        -22.4400   -8.6380    0.5920 P.3    58  C58         0.2141
   1004  C5'      -23.7630   -6.5540    1.5290 C.3    58  C58         0.1812
   1005  O5'      -23.7580   -7.9430    1.1750 O.3    58  C58        -0.3114
   1006  C4'      -25.1920   -6.0440    1.6240 C.3    58  C58         0.1773
   1007  O4'      -25.8040   -6.0700    0.3080 O.3    58  C58        -0.3307
   1008  C3'      -26.1300   -6.8730    2.4970 C.3    58  C58         0.1860
   1009  O3'      -26.0500   -6.4290    3.8490 O.3    58  C58        -0.3112
   1010  C2'      -27.4810   -6.5010    1.8970 C.3    58  C58         0.2309
   1011  O2'      -27.8750   -5.1990    2.2770 O.3    58  C58        -0.2156
   1012  C1'      -27.1570   -6.4710    0.4130 C.3    58  C58         0.2420
   1013  N1       -27.3960   -7.7540   -0.3230 N.ar   58  C58        -0.2535
   1014  C2       -28.7160   -8.1280   -0.6040 C.ar   58  C58         0.3532
   1015  O2       -29.6440   -7.4160   -0.2070 O.2    58  C58        -0.2443
   1016  N3       -28.9450   -9.2700   -1.2870 N.ar   58  C58        -0.1739
   1017  C4       -27.9170  -10.0170   -1.6960 C.ar   58  C58         0.1759
   1018  N4       -28.2020  -11.1240   -2.3780 N.pl3  58  C58        -0.1070
   1019  C5       -26.5630   -9.6540   -1.4330 C.ar   58  C58         0.0566
   1020  C6       -26.3520   -8.5210   -0.7500 C.ar   58  C58         0.0850
   1021  OP1      -21.4080   -8.6290    1.6490 O.3    58  C58        -0.4373
   1022  OP2      -22.8570   -9.9140   -0.0280 O.co2  58  C58        -0.5172
   1023  P        -26.4710   -7.3730    5.0730 P.3    59  U59         0.2141
   1024  C5'      -28.8490   -6.2360    5.1740 C.3    59  U59         0.1812
   1025  O5'      -28.0650   -7.4090    4.9920 O.3    59  U59        -0.3114
   1026  C4'      -30.3060   -6.6240    5.0160 C.3    59  U59         0.1773
   1027  O4'      -30.5360   -7.0480    3.6480 O.3    59  U59        -0.3307
   1028  C3'      -30.7080   -7.8180    5.8700 C.3    59  U59         0.1860
   1029  O3'      -31.1460   -7.3710    7.1550 O.3    59  U59        -0.3112
   1030  C2'      -31.8390   -8.4460    5.0640 C.3    59  U59         0.2309
   1031  O2'      -33.0810   -7.8210    5.3260 O.3    59  U59        -0.2156
   1032  C1'      -31.4270   -8.1500    3.6250 C.3    59  U59         0.2420
   1033  N1       -30.7890   -9.2700    2.8540 N.ar   59  U59        -0.2534
   1034  C2       -31.5850  -10.2230    2.2470 C.ar   59  U59         0.3546
   1035  O2       -32.7980  -10.2470    2.3290 O.2    59  U59        -0.2443
   1036  N3       -30.9050  -11.1750    1.5360 N.ar   59  U59        -0.1530
   1037  C4       -29.5400  -11.2670    1.3650 C.ar   59  U59         0.2846
   1038  O4       -29.0840  -12.1850    0.6950 O.2    59  U59        -0.2650
   1039  C5       -28.7720  -10.2390    2.0190 C.ar   59  U59         0.0814
   1040  C6       -29.4150   -9.3000    2.7200 C.ar   59  U59         0.0870
   1041  OP1      -26.0700   -6.6730    6.3130 O.3    59  U59        -0.4373
   1042  OP2      -26.0020   -8.7500    4.8060 O.co2  59  U59        -0.5172
   1043  P        -30.7410   -8.1920    8.4680 P.3    60  G60         0.2141
   1044  C5'      -33.1120   -9.3430    8.6050 C.3    60  G60         0.1812
   1045  O5'      -31.7060   -9.4700    8.4250 O.3    60  G60        -0.3114
   1046  C4'      -33.8120  -10.6230    8.1780 C.3    60  G60         0.1773
   1047  O4'      -33.6180  -10.7960    6.7500 O.3    60  G60        -0.3307
   1048  C3'      -33.2670  -11.9030    8.8010 C.3    60  G60         0.1860
   1049  O3'      -33.9810  -12.2240    9.9800 O.3    60  G60        -0.3112
   1050  C2'      -33.5730  -12.9460    7.7320 C.3    60  G60         0.2309
   1051  O2'      -34.9020  -13.4150    7.8280 O.3    60  G60        -0.2156
   1052  C1'      -33.4000  -12.1600    6.4390 C.3    60  G60         0.2408
   1053  N1       -30.5370  -14.4630    2.8820 N.ar   60  G60        -0.1709
   1054  C2       -31.8740  -14.6300    3.1550 C.ar   60  G60         0.2606
   1055  N2       -32.5300  -15.5210    2.3970 N.pl3  60  G60        -0.0859
   1056  N3       -32.5220  -13.9750    4.1110 N.ar   60  G60        -0.1918
   1057  C4       -31.7190  -13.1220    4.7910 C.ar   60  G60         0.1723
   1058  C5       -30.3860  -12.8790    4.5880 C.ar   60  G60         0.1748
   1059  C6       -29.7100  -13.5820    3.5710 C.ar   60  G60         0.3023
   1060  O6       -28.5270  -13.4610    3.2670 O.2    60  G60        -0.2633
   1061  N7       -29.9010  -11.9280    5.4720 N.ar   60  G60        -0.2173
   1062  C8       -30.9380  -11.6210    6.1930 C.ar   60  G60         0.1817
   1063  N9       -32.0780  -12.2990    5.8360 N.ar   60  G60        -0.2693
   1064  OP1      -31.0740   -7.3700    9.6490 O.3    60  G60        -0.4373
   1065  OP2      -29.3590   -8.6910    8.2830 O.co2  60  G60        -0.5172
   1066  P        -33.4500  -11.8440   11.4390 P.3    61  A61         0.2141
   1067  C5'      -31.0690  -11.6860   12.4880 C.3    61  A61         0.1812
   1068  O5'      -31.8590  -11.9060   11.3240 O.3    61  A61        -0.3114
   1069  C4'      -29.5880  -11.7700   12.1670 C.3    61  A61         0.1773
   1070  O4'      -29.2870  -13.0410   11.5360 O.3    61  A61        -0.3307
   1071  C3'      -29.0770  -10.7020   11.2090 C.3    61  A61         0.1860
   1072  O3'      -27.7180  -10.4130   11.4970 O.3    61  A61        -0.3112
   1073  C2'      -29.1960  -11.3890    9.8530 C.3    61  A61         0.2309
   1074  O2'      -28.2800  -10.8690    8.9060 O.3    61  A61        -0.2156
   1075  C1'      -28.8490  -12.8330   10.2040 C.3    61  A61         0.2408
   1076  N1       -28.7150  -15.6030    5.8490 N.ar   61  A61        -0.2040
   1077  C2       -27.8280  -14.7550    6.3900 C.ar   61  A61         0.2016
   1078  N3       -27.9140  -14.0670    7.5280 N.ar   61  A61        -0.2048
   1079  C4       -29.0830  -14.3100    8.1440 C.ar   61  A61         0.1692
   1080  C5       -30.0890  -15.1550    7.7090 C.ar   61  A61         0.1518
   1081  C6       -29.8770  -15.8300    6.4910 C.ar   61  A61         0.1919
   1082  N6       -30.7650  -16.6710    5.9520 N.pl3  61  A61        -0.1054
   1083  N7       -31.1460  -15.1630    8.6010 N.ar   61  A61        -0.2193
   1084  C8       -30.7650  -14.3400    9.5460 C.ar   61  A61         0.1816
   1085  N9       -29.5300  -13.7930    9.3400 N.ar   61  A61        -0.2693
   1086  OP1      -33.9060  -12.9130   12.3540 O.3    61  A61        -0.4373
   1087  OP2      -33.8210  -10.4380   11.7070 O.co2  61  A61        -0.5172
   1088  P        -27.3270   -9.4390   12.7040 P.3    62  U62         0.2141
   1089  C5'      -25.9960  -11.4860   13.6720 C.3    62  U62         0.1812
   1090  O5'      -26.9650  -10.4650   13.8760 O.3    62  U62        -0.3114
   1091  C4'      -26.0150  -12.4840   14.8190 C.3    62  U62         0.1773
   1092  O4'      -25.8490  -11.7940   16.0830 O.3    62  U62        -0.3307
   1093  C3'      -27.3000  -13.2860   14.9760 C.3    62  U62         0.1860
   1094  O3'      -26.9930  -14.5390   15.5700 O.3    62  U62        -0.3112
   1095  C2'      -28.1010  -12.4290   15.9470 C.3    62  U62         0.2309
   1096  O2'      -29.0730  -13.1800   16.6500 O.3    62  U62        -0.2156
   1097  C1'      -26.9920  -11.9920   16.8940 C.3    62  U62         0.2420
   1098  N1       -27.2730  -10.7250   17.6200 N.ar   62  U62        -0.2534
   1099  C2       -27.3350  -10.7320   19.0000 C.ar   62  U62         0.3546
   1100  O2       -27.1730  -11.7330   19.6740 O.2    62  U62        -0.2443
   1101  N3       -27.5890   -9.5080   19.5690 N.ar   62  U62        -0.1530
   1102  C4       -27.7810   -8.3070   18.9070 C.ar   62  U62         0.2846
   1103  O4       -28.0020   -7.2860   19.5480 O.2    62  U62        -0.2650
   1104  C5       -27.7030   -8.3830   17.4730 C.ar   62  U62         0.0814
   1105  C6       -27.4530   -9.5630   16.8970 C.ar   62  U62         0.0870
   1106  OP1      -28.5320   -8.6750   13.0980 O.3    62  U62        -0.4373
   1107  OP2      -26.0840   -8.7360   12.3150 O.co2  62  U62        -0.5172
   1108  P        -26.8850  -15.8580   14.6770 P.3    63  C63         0.2141
   1109  C5'      -29.4810  -15.9390   14.3570 C.3    63  C63         0.1812
   1110  O5'      -28.1920  -15.7670   13.7610 O.3    63  C63        -0.3114
   1111  C4'      -30.3230  -16.8970   13.5380 C.3    63  C63         0.1773
   1112  O4'      -30.3890  -16.4220   12.1700 O.3    63  C63        -0.3307
   1113  C3'      -29.7590  -18.3040   13.3990 C.3    63  C63         0.1860
   1114  O3'      -30.0700  -19.1040   14.5360 O.3    63  C63        -0.3112
   1115  C2'      -30.4980  -18.7880   12.1570 C.3    63  C63         0.2309
   1116  O2'      -31.8250  -19.1900   12.4330 O.3    63  C63        -0.2156
   1117  C1'      -30.5010  -17.5310   11.2960 C.3    63  C63         0.2420
   1118  N1       -29.3840  -17.5110   10.3190 N.ar   63  C63        -0.2535
   1119  C2       -29.4700  -18.3220    9.1810 C.ar   63  C63         0.3532
   1120  O2       -30.4710  -19.0330    9.0180 O.2    63  C63        -0.2443
   1121  N3       -28.4480  -18.3080    8.2940 N.ar   63  C63        -0.1739
   1122  C4       -27.3830  -17.5340    8.5100 C.ar   63  C63         0.1759
   1123  N4       -26.4030  -17.5570    7.6010 N.pl3  63  C63        -0.1070
   1124  C5       -27.2750  -16.7040    9.6660 C.ar   63  C63         0.0566
   1125  C6       -28.2880  -16.7250   10.5390 C.ar   63  C63         0.0850
   1126  OP1      -27.0190  -17.0140   15.5940 O.3    63  C63        -0.4373
   1127  OP2      -25.7000  -15.7440   13.8020 O.co2  63  C63        -0.5172
   1128  P        -29.0680  -20.2750   14.9680 P.3    64  U64         0.2141
   1129  C5'      -30.4990  -22.0940   13.7120 C.3    64  U64         0.1812
   1130  O5'      -29.2750  -21.3800   13.8280 O.3    64  U64        -0.3114
   1131  C4'      -30.4470  -23.0070   12.5020 C.3    64  U64         0.1773
   1132  O4'      -30.3200  -22.2250   11.2840 O.3    64  U64        -0.3307
   1133  C3'      -29.2380  -23.9240   12.4470 C.3    64  U64         0.1860
   1134  O3'      -29.4210  -25.0430   13.3040 O.3    64  U64        -0.3112
   1135  C2'      -29.2620  -24.3180   10.9770 C.3    64  U64         0.2309
   1136  O2'      -30.2910  -25.2480   10.6950 O.3    64  U64        -0.2156
   1137  C1'      -29.5840  -22.9740   10.3310 C.3    64  U64         0.2420
   1138  N1       -28.3690  -22.2010    9.9220 N.ar   64  U64        -0.2534
   1139  C2       -27.7170  -22.5450    8.7540 C.ar   64  U64         0.3546
   1140  O2       -28.0810  -23.4570    8.0310 O.2    64  U64        -0.2443
   1141  N3       -26.6180  -21.7760    8.4520 N.ar   64  U64        -0.1530
   1142  C4       -26.1150  -20.7220    9.1930 C.ar   64  U64         0.2846
   1143  O4       -25.1150  -20.1240    8.8010 O.2    64  U64        -0.2650
   1144  C5       -26.8460  -20.4260   10.3980 C.ar   64  U64         0.0814
   1145  C6       -27.9210  -21.1590   10.7090 C.ar   64  U64         0.0870
   1146  OP1      -29.5370  -20.8170   16.2620 O.3    64  U64        -0.4373
   1147  OP2      -27.6820  -19.7750   14.8290 O.co2  64  U64        -0.5172
   1148  P        -28.1500  -25.6660   14.0430 P.3    65  G65         0.2141
   1149  C5'      -27.7760  -27.8550   12.6660 C.3    65  G65         0.1812
   1150  O5'      -27.4360  -26.4940   12.8780 O.3    65  G65        -0.3114
   1151  C4'      -27.1310  -28.3640   11.3910 C.3    65  G65         0.1773
   1152  O4'      -27.3550  -27.4200   10.3110 O.3    65  G65        -0.3307
   1153  C3'      -25.6170  -28.4820   11.4250 C.3    65  G65         0.1860
   1154  O3'      -25.1930  -29.6360   12.1480 O.3    65  G65        -0.3112
   1155  C2'      -25.3420  -28.5860    9.9310 C.3    65  G65         0.2309
   1156  O2'      -25.7210  -29.8330    9.3860 O.3    65  G65        -0.2156
   1157  C1'      -26.2610  -27.4870    9.4130 C.3    65  G65         0.2408
   1158  N1       -22.7390  -24.7130    7.0440 N.ar   65  G65        -0.1709
   1159  C2       -23.1920  -25.9820    6.7610 C.ar   65  G65         0.2606
   1160  N2       -22.6340  -26.5950    5.7060 N.pl3  65  G65        -0.0859
   1161  N3       -24.1320  -26.6070    7.4600 N.ar   65  G65        -0.1918
   1162  C4       -24.5860  -25.8460    8.4860 C.ar   65  G65         0.1723
   1163  C5       -24.1990  -24.5780    8.8510 C.ar   65  G65         0.1748
   1164  C6       -23.1960  -23.9250    8.0990 C.ar   65  G65         0.3023
   1165  O6       -22.7310  -22.7920    8.2790 O.2    65  G65        -0.2633
   1166  N7       -24.9090  -24.1450    9.9660 N.ar   65  G65        -0.2173
   1167  C8       -25.6990  -25.1470   10.2510 C.ar   65  G65         0.1817
   1168  N9       -25.5640  -26.2040    9.3840 N.ar   65  G65        -0.2693
   1169  OP1      -28.6330  -26.6120   15.0710 O.3    65  G65        -0.4373
   1170  OP2      -27.2470  -24.5540   14.4180 O.co2  65  G65        -0.5172
   1171  P        -23.8740  -29.5560   13.0540 P.3    66  G66         0.2141
   1172  C5'      -22.5850  -30.7740   11.1170 C.3    66  G66         0.1812
   1173  O5'      -22.6760  -29.6660   12.0010 O.3    66  G66        -0.3114
   1174  C4'      -21.6520  -30.4470    9.9660 C.3    66  G66         0.1773
   1175  O4'      -22.1190  -29.2670    9.2600 O.3    66  G66        -0.3307
   1176  C3'      -20.2400  -30.0550   10.3660 C.3    66  G66         0.1860
   1177  O3'      -19.4740  -31.2020   10.7050 O.3    66  G66        -0.3112
   1178  C2'      -19.7730  -29.4170    9.0660 C.3    66  G66         0.2309
   1179  O2'      -19.5190  -30.3790    8.0650 O.3    66  G66        -0.2156
   1180  C1'      -21.0040  -28.5980    8.6910 C.3    66  G66         0.2408
   1181  N1       -18.7970  -24.0190    8.2000 N.ar   66  G66        -0.1709
   1182  C2       -18.5680  -25.1750    7.4930 C.ar   66  G66         0.2606
   1183  N2       -17.6250  -25.1150    6.5390 N.pl3  66  G66        -0.0859
   1184  N3       -19.2100  -26.3190    7.7150 N.ar   66  G66        -0.1918
   1185  C4       -20.1230  -26.2100    8.7110 C.ar   66  G66         0.1723
   1186  C5       -20.4220  -25.1040    9.4720 C.ar   66  G66         0.1748
   1187  C6       -19.7360  -23.8900    9.2240 C.ar   66  G66         0.3023
   1188  O6       -19.8720  -22.8040    9.8040 O.2    66  G66        -0.2633
   1189  N7       -21.4200  -25.3990   10.3960 N.ar   66  G66        -0.2173
   1190  C8       -21.6960  -26.6560   10.1810 C.ar   66  G66         0.1817
   1191  N9       -20.9490  -27.2160    9.1730 N.ar   66  G66        -0.2693
   1192  OP1      -23.8660  -30.7500   13.9270 O.3    66  G66        -0.4373
   1193  OP2      -23.8050  -28.2030   13.6500 O.co2  66  G66        -0.5172
   1194  P        -18.3110  -31.0840   11.7970 P.3    67  A67         0.2141
   1195  C5'      -16.2900  -30.9040   10.1400 C.3    67  A67         0.1812
   1196  O5'      -17.1830  -30.2470   11.0330 O.3    67  A67        -0.3114
   1197  C4'      -15.5310  -29.8940    9.2970 C.3    67  A67         0.1773
   1198  O4'      -16.4420  -28.8980    8.7710 O.3    67  A67        -0.3307
   1199  C3'      -14.4930  -29.0680   10.0390 C.3    67  A67         0.1860
   1200  O3'      -13.2860  -29.7960   10.1860 O.3    67  A67        -0.3112
   1201  C2'      -14.3350  -27.9050    9.0690 C.3    67  A67         0.2309
   1202  O2'      -13.6310  -28.2770    7.9000 O.3    67  A67        -0.2156
   1203  C1'      -15.7980  -27.6340    8.7400 C.3    67  A67         0.2408
   1204  N1       -16.2230  -22.8110   10.5240 N.ar   67  A67        -0.2040
   1205  C2       -15.4820  -23.3370    9.5420 C.ar   67  A67         0.2016
   1206  N3       -15.4180  -24.6020    9.1260 N.ar   67  A67        -0.2048
   1207  C4       -16.2360  -25.3870    9.8470 C.ar   67  A67         0.1692
   1208  C5       -17.0570  -24.9910   10.8870 C.ar   67  A67         0.1518
   1209  C6       -17.0360  -23.6220   11.2300 C.ar   67  A67         0.1919
   1210  N6       -17.7800  -23.1000   12.2120 N.pl3  67  A67        -0.1054
   1211  N7       -17.7650  -26.0690   11.3920 N.ar   67  A67        -0.2193
   1212  C8       -17.3590  -27.0820   10.6620 C.ar   67  A67         0.1816
   1213  N9       -16.4400  -26.7420    9.7050 N.ar   67  A67        -0.2693
   1214  OP1      -17.8090  -32.4500   12.0600 O.2    67  A67        -0.5172
   1215  OP2      -18.8010  -30.2470   12.9160 O.co2  67  A67        -0.4373
   1216  P        -12.4350  -29.6720   11.5350 P.3    68  U68         0.2141
   1217  C5'      -10.9260  -27.8000   10.5020 C.3    68  U68         0.1812
   1218  O5'      -11.9050  -28.1650   11.4650 O.3    68  U68        -0.3114
   1219  C4'      -10.7880  -26.2910   10.4470 C.3    68  U68         0.1773
   1220  O4'      -12.1030  -25.6880   10.3610 O.3    68  U68        -0.3307
   1221  C3'      -10.2030  -25.6570   11.6970 C.3    68  U68         0.1860
   1222  O3'       -8.7850  -25.7800   11.7130 O.3    68  U68        -0.3112
   1223  C2'      -10.6640  -24.2110   11.5350 C.3    68  U68         0.2309
   1224  O2'       -9.8340  -23.4740   10.6610 O.3    68  U68        -0.2156
   1225  C1'      -12.0570  -24.3900   10.9280 C.3    68  U68         0.2420
   1226  N1       -13.1430  -24.2750   11.9410 N.ar   68  U68        -0.2534
   1227  C2       -13.5540  -23.0200   12.3440 C.ar   68  U68         0.3546
   1228  O2       -13.0850  -21.9870   11.9030 O.2    68  U68        -0.2443
   1229  N3       -14.5470  -23.0150   13.2870 N.ar   68  U68        -0.1530
   1230  C4       -15.1550  -24.1160   13.8630 C.ar   68  U68         0.2846
   1231  O4       -16.0340  -23.9500   14.6980 O.2    68  U68        -0.2650
   1232  C5       -14.6700  -25.3910   13.3980 C.ar   68  U68         0.0814
   1233  C6       -13.7040  -25.4200   12.4740 C.ar   68  U68         0.0870
   1234  OP1      -11.2840  -30.5970   11.4300 O.2    68  U68        -0.5172
   1235  OP2      -13.3640  -29.7690   12.6820 O.co2  68  U68        -0.4373
   1236  P         -8.0670  -26.2050   13.0780 P.3    69  A69         0.2141
   1237  C5'       -7.9090  -24.8410   15.3150 C.3    69  A69         0.1812
   1238  O5'       -8.0850  -24.8390   13.9070 O.3    69  A69        -0.3114
   1239  C4'       -7.9540  -23.4160   15.8310 C.3    69  A69         0.1773
   1240  O4'       -6.8130  -22.6920   15.3110 O.3    69  A69        -0.3307
   1241  C3'       -9.1650  -22.6240   15.3650 C.3    69  A69         0.1860
   1242  O3'      -10.2240  -22.7960   16.2940 O.3    69  A69        -0.3112
   1243  C2'       -8.6520  -21.1850   15.3600 C.3    69  A69         0.2309
   1244  O2'       -8.7080  -20.5890   16.6410 O.3    69  A69        -0.2156
   1245  C1'       -7.1930  -21.3710   14.9670 C.3    69  A69         0.2408
   1246  N1        -6.7320  -17.9440   11.1120 N.ar   69  A69        -0.2040
   1247  C2        -7.1280  -17.7990   12.3840 C.ar   69  A69         0.2016
   1248  N3        -7.2370  -18.7230   13.3420 N.ar   69  A69        -0.2048
   1249  C4        -6.8760  -19.9340   12.8820 C.ar   69  A69         0.1692
   1250  C5        -6.4480  -20.2340   11.6000 C.ar   69  A69         0.1518
   1251  C6        -6.3680  -19.1700   10.6810 C.ar   69  A69         0.1919
   1252  N6        -5.9650  -19.3280    9.4140 N.pl3  69  A69        -0.1054
   1253  N7        -6.1640  -21.5850   11.4790 N.ar   69  A69        -0.2193
   1254  C8        -6.4200  -22.0670   12.6700 C.ar   69  A69         0.1816
   1255  N9        -6.8670  -21.1320   13.5630 N.ar   69  A69        -0.2693
   1256  OP1       -6.6630  -26.5690   12.7800 O.2    69  A69        -0.5172
   1257  OP2       -8.9480  -27.1730   13.7710 O.co2  69  A69        -0.4373
   1258  P        -11.7400  -22.9390   15.7990 P.3    70  A70         0.2141
   1259  C5'      -12.1270  -20.3670   16.1200 C.3    70  A70         0.1812
   1260  O5'      -12.0960  -21.4840   15.2420 O.3    70  A70        -0.3114
   1261  C4'      -12.1940  -19.0790   15.3210 C.3    70  A70         0.1773
   1262  O4'      -10.9370  -18.8580   14.6300 O.3    70  A70        -0.3307
   1263  C3'      -13.2440  -19.0670   14.2220 C.3    70  A70         0.1860
   1264  O3'      -14.5060  -18.7080   14.7750 O.3    70  A70        -0.3112
   1265  C2'      -12.6950  -17.9750   13.3120 C.3    70  A70         0.2309
   1266  O2'      -12.9760  -16.6850   13.8140 O.3    70  A70        -0.2156
   1267  C1'      -11.1930  -18.2350   13.3840 C.3    70  A70         0.2408
   1268  N1        -9.2780  -18.3670    8.5960 N.ar   70  A70        -0.2040
   1269  C2        -9.7160  -17.3520    9.3550 C.ar   70  A70         0.2016
   1270  N3       -10.2050  -17.3880   10.5970 N.ar   70  A70        -0.2048
   1271  C4       -10.2310  -18.6450   11.0690 C.ar   70  A70         0.1692
   1272  C5        -9.8150  -19.7830   10.4080 C.ar   70  A70         0.1518
   1273  C6        -9.3160  -19.6190    9.1020 C.ar   70  A70         0.1919
   1274  N6        -8.8870  -20.6430    8.3540 N.pl3  70  A70        -0.1054
   1275  N7        -9.9780  -20.9050   11.2050 N.ar   70  A70        -0.2193
   1276  C8       -10.4850  -20.4250   12.3180 C.ar   70  A70         0.1816
   1277  N9       -10.6690  -19.0700   12.3040 N.ar   70  A70        -0.2693
   1278  OP1      -12.5640  -23.2080   16.9950 O.3    70  A70        -0.4373
   1279  OP2      -11.7660  -23.8770   14.6570 O.co2  70  A70        -0.5172
   1280  P        -15.8840  -19.1720   14.1040 P.3    71  U71         0.2141
   1281  C5'      -16.2600  -16.7910   13.1100 C.3    71  U71         0.1812
   1282  O5'      -16.0180  -18.1720   12.8620 O.3    71  U71        -0.3114
   1283  C4'      -15.9650  -15.9550   11.8780 C.3    71  U71         0.1773
   1284  O4'      -14.5910  -16.1370   11.4630 O.3    71  U71        -0.3307
   1285  C3'      -16.7700  -16.3260   10.6440 C.3    71  U71         0.1860
   1286  O3'      -18.0570  -15.7360   10.7530 O.3    71  U71        -0.3112
   1287  C2'      -15.9110  -15.6960    9.5470 C.3    71  U71         0.2309
   1288  O2'      -16.1220  -14.3060    9.3860 O.3    71  U71        -0.2156
   1289  C1'      -14.4970  -15.9610   10.0630 C.3    71  U71         0.2420
   1290  N1       -13.8750  -17.1720    9.4520 N.ar   71  U71        -0.2534
   1291  C2       -13.0200  -17.0170    8.3780 C.ar   71  U71         0.3546
   1292  O2       -12.7220  -15.9340    7.9070 O.2    71  U71        -0.2443
   1293  N3       -12.5140  -18.1860    7.8700 N.ar   71  U71        -0.1530
   1294  C4       -12.7660  -19.4680    8.3200 C.ar   71  U71         0.2846
   1295  O4       -12.2340  -20.4180    7.7570 O.2    71  U71        -0.2650
   1296  C5       -13.6680  -19.5530    9.4400 C.ar   71  U71         0.0814
   1297  C6       -14.1790  -18.4260    9.9510 C.ar   71  U71         0.0870
   1298  OP1      -16.9640  -18.8610   15.0700 O.3    71  U71        -0.4373
   1299  OP2      -15.7450  -20.5560   13.5950 O.co2  71  U71        -0.5172
   1300  P        -19.3270  -16.2860    9.9550 P.3    72  G72         0.2141
   1301  C5'      -19.7350  -16.4590    7.3720 C.3    72  G72         0.1812
   1302  O5'      -18.9790  -15.9140    8.4410 O.3    72  G72        -0.3114
   1303  C4'      -19.6380  -15.5630    6.1530 C.3    72  G72         0.1773
   1304  O4'      -20.3890  -14.3390    6.3710 O.3    72  G72        -0.3307
   1305  C3'      -18.2410  -15.0470    5.8530 C.3    72  G72         0.1860
   1306  O3'      -17.4570  -16.0240    5.1950 O.3    72  G72        -0.3112
   1307  C2'      -18.5750  -13.8990    4.9170 C.3    72  G72         0.2309
   1308  O2'      -18.9320  -14.3670    3.6290 O.3    72  G72        -0.2156
   1309  C1'      -19.7710  -13.2880    5.6450 C.3    72  G72         0.2408
   1310  N1       -18.6580   -8.3560    5.9370 N.ar   72  G72        -0.1709
   1311  C2       -19.0330   -9.1170    4.8540 C.ar   72  G72         0.2606
   1312  N2       -19.1300   -8.4900    3.6730 N.pl3  72  G72        -0.0859
   1313  N3       -19.3050  -10.4110    4.9220 N.ar   72  G72        -0.1918
   1314  C4       -19.1580  -10.8990    6.1760 C.ar   72  G72         0.1723
   1315  C5       -18.7860  -10.2310    7.3200 C.ar   72  G72         0.1748
   1316  C6       -18.5070   -8.8420    7.2360 C.ar   72  G72         0.3023
   1317  O6       -18.1570   -8.0680    8.1370 O.2    72  G72        -0.2633
   1318  N7       -18.7520  -11.1040    8.4030 N.ar   72  G72        -0.2173
   1319  C8       -19.1070  -12.2580    7.8970 C.ar   72  G72         0.1817
   1320  N9       -19.3710  -12.2050    6.5450 N.ar   72  G72        -0.2693
   1321  OP1      -20.4800  -15.4700   10.3970 O.3    72  G72        -0.4373
   1322  OP2      -19.3820  -17.7590   10.0680 O.co2  72  G72        -0.5172
   1323  P        -15.8860  -15.7790    4.9990 P.3    73  C73         0.2141
   1324  C5'      -14.1780  -17.4990    3.9420 C.3    73  C73         0.1812
   1325  O5'      -15.4410  -17.2290    4.5070 O.3    73  C73        -0.3114
   1326  C4'      -14.0660  -19.0030    3.7910 C.3    73  C73         0.1773
   1327  O4'      -13.8840  -19.5800    5.1100 O.3    73  C73        -0.3307
   1328  C3'      -15.3230  -19.6860    3.2650 C.3    73  C73         0.1860
   1329  O3'      -15.3690  -19.6710    1.8410 O.3    73  C73        -0.3112
   1330  C2'      -15.1370  -21.0960    3.8140 C.3    73  C73         0.2309
   1331  O2'      -14.1860  -21.8420    3.0800 O.3    73  C73        -0.2156
   1332  C1'      -14.6070  -20.7950    5.2120 C.3    73  C73         0.2420
   1333  N1       -15.6890  -20.6420    6.2360 N.ar   73  C73        -0.2535
   1334  C2       -16.4040  -21.7700    6.6570 C.ar   73  C73         0.3532
   1335  O2       -16.1340  -22.8800    6.1820 O.2    73  C73        -0.2443
   1336  N3       -17.3840  -21.6190    7.5760 N.ar   73  C73        -0.1739
   1337  C4       -17.6610  -20.4170    8.0770 C.ar   73  C73         0.1759
   1338  N4       -18.6380  -20.3340    8.9870 N.pl3  73  C73        -0.1070
   1339  C5       -16.9470  -19.2530    7.6640 C.ar   73  C73         0.0566
   1340  C6       -15.9760  -19.4120    6.7540 C.ar   73  C73         0.0850
   1341  OP1      -15.2940  -15.5120    6.3280 O.3    73  C73        -0.4373
   1342  OP2      -15.6880  -14.8200    3.8950 O.co2  73  C73        -0.5172
   1343  P        -16.7740  -19.6350    1.0670 P.3    74  C74         0.2141
   1344  C5'      -16.6550  -22.2200    0.5390 C.3    74  C74         0.1812
   1345  O5'      -17.3090  -21.1370    1.1790 O.3    74  C74        -0.3114
   1346  C4'      -17.3690  -23.5150    0.8930 C.3    74  C74         0.1773
   1347  O4'      -17.2620  -23.7720    2.3170 O.3    74  C74        -0.3307
   1348  C3'      -18.8720  -23.5040    0.6740 C.3    74  C74         0.1860
   1349  O3'      -19.1920  -23.6720   -0.6970 O.3    74  C74        -0.3112
   1350  C2'      -19.2880  -24.6980    1.5240 C.3    74  C74         0.2309
   1351  O2'      -18.9990  -25.9460    0.9200 O.3    74  C74        -0.2156
   1352  C1'      -18.4190  -24.4710    2.7550 C.3    74  C74         0.2420
   1353  N1       -19.1130  -23.6670    3.8180 N.ar   74  C74        -0.2535
   1354  C2       -20.0870  -24.2780    4.6130 C.ar   74  C74         0.3532
   1355  O2       -20.3650  -25.4700    4.4220 O.2    74  C74        -0.2443
   1356  N3       -20.7060  -23.5440    5.5710 N.ar   74  C74        -0.1739
   1357  C4       -20.3820  -22.2660    5.7550 C.ar   74  C74         0.1759
   1358  N4       -21.0220  -21.5990    6.7200 N.pl3  74  C74        -0.1070
   1359  C5       -19.3910  -21.6220    4.9570 C.ar   74  C74         0.0566
   1360  C6       -18.7850  -22.3550    4.0150 C.ar   74  C74         0.0850
   1361  OP1      -16.4920  -19.3350   -0.3530 O.2    74  C74        -0.5172
   1362  OP2      -17.7110  -18.7820    1.8330 O.co2  74  C74        -0.4373
   1363  P        -20.4970  -22.9690   -1.2860 P.3    75  A75         0.2141
   1364  C5'      -22.0810  -25.0440   -0.9700 C.3    75  A75         0.1812
   1365  O5'      -21.6820  -23.7560   -0.5440 O.3    75  A75        -0.3114
   1366  C4'      -23.0600  -25.6280    0.0320 C.3    75  A75         0.1773
   1367  O4'      -22.4910  -25.5600    1.3660 O.3    75  A75        -0.3307
   1368  C3'      -24.3680  -24.8620    0.1770 C.3    75  A75         0.1860
   1369  O3'      -25.2690  -25.1720   -0.8820 O.3    75  A75        -0.3112
   1370  C2'      -24.8420  -25.4130    1.5150 C.3    75  A75         0.2309
   1371  O2'      -25.3170  -26.7400    1.4200 O.3    75  A75        -0.2156
   1372  C1'      -23.5380  -25.3730    2.3030 C.3    75  A75         0.2408
   1373  N1       -25.2510  -22.4070    6.1190 N.ar   75  A75        -0.2040
   1374  C2       -25.5930  -23.6360    5.7140 C.ar   75  A75         0.2016
   1375  N3       -25.0920  -24.3510    4.7060 N.ar   75  A75        -0.2048
   1376  C4       -24.1300  -23.6690    4.0660 C.ar   75  A75         0.1692
   1377  C5       -23.6690  -22.4030    4.3630 C.ar   75  A75         0.1518
   1378  C6       -24.2710  -21.7510    5.4570 C.ar   75  A75         0.1919
   1379  N6       -23.9220  -20.5250    5.8610 N.pl3  75  A75        -0.1054
   1380  N7       -22.6610  -22.0310    3.4860 N.ar   75  A75        -0.2193
   1381  C8       -22.5410  -23.0630    2.6840 C.ar   75  A75         0.1816
   1382  N9       -23.3830  -24.0950    2.9920 N.ar   75  A75        -0.2693
   1383  OP1      -20.5550  -23.2590   -2.7320 O.2    75  A75        -0.5172
   1384  OP2      -20.5680  -21.5740   -0.7850 O.co2  75  A75        -0.4373
   1385  P        -26.4860  -24.1870   -1.2330 P.3    76  G76         0.2141
   1386  C5'      -28.2310  -25.6360    0.1090 C.3    76  G76         0.1812
   1387  O5'      -27.5130  -24.4080   -0.0270 O.3    76  G76        -0.3114
   1388  C4'      -29.1830  -25.5430    1.2840 C.3    76  G76         0.1773
   1389  O4'      -28.4280  -25.2310    2.4830 O.3    76  G76        -0.3307
   1390  C3'      -30.2040  -24.4160    1.1860 C.3    76  G76         0.1860
   1391  O3'      -31.3360  -24.8190    0.4300 O.3    76  G76        -0.3112
   1392  C2'      -30.5630  -24.2130    2.6490 C.3    76  G76         0.2309
   1393  O2'      -31.4820  -25.1850    3.1060 O.3    76  G76        -0.2156
   1394  C1'      -29.2070  -24.3930    3.3220 C.3    76  G76         0.2408
   1395  N1       -28.7500  -20.1740    6.1330 N.ar   76  G76        -0.1709
   1396  C2       -29.6570  -21.2050    6.2560 C.ar   76  G76         0.2606
   1397  N2       -30.5510  -21.1100    7.2520 N.pl3  76  G76        -0.0859
   1398  N3       -29.6840  -22.2620    5.4560 N.ar   76  G76        -0.1918
   1399  C4       -28.7120  -22.2040    4.5090 C.ar   76  G76         0.1723
   1400  C5       -27.7680  -21.2260    4.3080 C.ar   76  G76         0.1748
   1401  C6       -27.7490  -20.1070    5.1660 C.ar   76  G76         0.3023
   1402  O6       -26.9760  -19.1440    5.1270 O.2    76  G76        -0.2633
   1403  N7       -26.9570  -21.5290    3.2250 N.ar   76  G76        -0.2173
   1404  C8       -27.4120  -22.6760    2.8030 C.ar   76  G76         0.1817
   1405  N9       -28.4770  -23.1450    3.5310 N.ar   76  G76        -0.2693
   1406  OP1      -27.0860  -24.6690   -2.4990 O.2    76  G76        -0.5172
   1407  OP2      -25.9970  -22.7950   -1.1490 O.co2  76  G76        -0.4373
   1408  P        -31.9160  -23.8620   -0.7130 P.3    77  C77         0.2141
   1409  C5'      -33.4600  -22.7550    1.1020 C.3    77  C77         0.1812
   1410  O5'      -32.4490  -22.5950    0.1110 O.3    77  C77        -0.3114
   1411  C4'      -33.4860  -21.5410    2.0090 C.3    77  C77         0.1773
   1412  O4'      -32.2160  -21.4390    2.7030 O.3    77  C77        -0.3307
   1413  C3'      -33.6110  -20.2130    1.2780 C.3    77  C77         0.1860
   1414  O3'      -34.9750  -19.9310    0.9760 O.3    77  C77        -0.3112
   1415  C2'      -33.0350  -19.2480    2.3080 C.3    77  C77         0.2309
   1416  O2'      -33.9620  -18.9020    3.3180 O.3    77  C77        -0.2156
   1417  C1'      -31.8920  -20.0750    2.8950 C.3    77  C77         0.2420
   1418  N1       -30.5790  -19.7800    2.2460 N.ar   77  C77        -0.2535
   1419  C2       -29.8440  -18.6770    2.6900 C.ar   77  C77         0.3532
   1420  O2       -30.2920  -17.9830    3.6100 O.2    77  C77        -0.2443
   1421  N3       -28.6520  -18.4080    2.1050 N.ar   77  C77        -0.1739
   1422  C4       -28.2050  -19.1760    1.1120 C.ar   77  C77         0.1759
   1423  N4       -27.0250  -18.8550    0.5710 N.pl3  77  C77        -0.1070
   1424  C5       -28.9440  -20.3020    0.6390 C.ar   77  C77         0.0566
   1425  C6       -30.1150  -20.5650    1.2290 C.ar   77  C77         0.0850
   1426  OP1      -33.0660  -24.5440   -1.3390 O.3    77  C77        -0.4373
   1427  OP2      -30.7890  -23.3780   -1.5430 O.co2  77  C77        -0.5172
   1428  P        -35.3670  -19.1630   -0.3730 P.3    78  G78         0.2141
   1429  C5'      -34.8400  -19.7630   -2.8790 C.3    78  G78         0.1812
   1430  O5'      -34.5200  -19.9310   -1.4940 O.3    78  G78        -0.3114
   1431  C4'      -33.5950  -19.6580   -3.7530 C.3    78  G78         0.1773
   1432  O4'      -32.8230  -18.4810   -3.3960 O.3    78  G78        -0.3307
   1433  C3'      -32.6100  -20.8200   -3.6700 C.3    78  G78         0.1860
   1434  O3'      -31.8950  -20.9240   -4.8980 O.3    78  G78        -0.3112
   1435  C2'      -31.6720  -20.3320   -2.5730 C.3    78  G78         0.2309
   1436  O2'      -30.4130  -20.9780   -2.5800 O.3    78  G78        -0.2156
   1437  C1'      -31.5240  -18.8800   -3.0040 C.3    78  G78         0.2408
   1438  N1       -27.6550  -16.2260   -1.0250 N.ar   78  G78        -0.1709
   1439  C2       -27.6860  -16.9670   -2.1810 C.ar   78  G78         0.2606
   1440  N2       -26.5410  -17.0020   -2.8810 N.pl3  78  G78        -0.0859
   1441  N3       -28.7560  -17.6290   -2.6080 N.ar   78  G78        -0.1918
   1442  C4       -29.8120  -17.4740   -1.7690 C.ar   78  G78         0.1723
   1443  C5       -29.8770  -16.7520   -0.5980 C.ar   78  G78         0.1748
   1444  C6       -28.7300  -16.0590   -0.1570 C.ar   78  G78         0.3023
   1445  O6       -28.6080  -15.3670    0.8580 O.2    78  G78        -0.2633
   1446  N7       -31.1400  -16.8320   -0.0260 N.ar   78  G78        -0.2173
   1447  C8       -31.8060  -17.5990   -0.8420 C.ar   78  G78         0.1817
   1448  N9       -31.0680  -18.0230   -1.9200 N.ar   78  G78        -0.2693
   1449  OP1      -34.8710  -17.7740   -0.2640 O.3    78  G78        -0.4373
   1450  OP2      -36.8010  -19.4060   -0.6350 O.co2  78  G78        -0.5172
   1451  P        -32.1810  -22.0930   -5.9520 P.3    79  U79         0.2141
   1452  C5'      -32.3220  -20.2220   -7.7790 C.3    79  U79         0.1812
   1453  O5'      -32.9430  -21.3210   -7.1210 O.3    79  U79        -0.3114
   1454  C4'      -33.4070  -19.3270   -8.3320 C.3    79  U79         0.1773
   1455  O4'      -33.6770  -19.7070   -9.7020 O.3    79  U79        -0.3307
   1456  C3'      -34.7100  -19.4820   -7.5640 C.3    79  U79         0.1860
   1457  O3'      -35.0000  -18.3290   -6.7670 O.3    79  U79        -0.3112
   1458  C2'      -35.7890  -19.8330   -8.5900 C.3    79  U79         0.2309
   1459  O2'      -36.8770  -18.9290   -8.5910 O.3    79  U79        -0.2156
   1460  C1'      -35.0650  -19.8320   -9.9360 C.3    79  U79         0.2420
   1461  N1       -35.2700  -21.0920  -10.7070 N.ar   79  U79        -0.2534
   1462  C2       -36.1920  -21.1180  -11.7330 C.ar   79  U79         0.3546
   1463  O2       -36.8650  -20.1540  -12.0520 O.2    79  U79        -0.2443
   1464  N3       -36.3020  -22.3270  -12.3770 N.ar   79  U79        -0.1530
   1465  C4       -35.5960  -23.4850  -12.1030 C.ar   79  U79         0.2846
   1466  O4       -35.8010  -24.4960  -12.7670 O.2    79  U79        -0.2650
   1467  C5       -34.6530  -23.3780  -11.0190 C.ar   79  U79         0.0814
   1468  C6       -34.5310  -22.2100  -10.3770 C.ar   79  U79         0.0870
   1469  OP1      -33.0990  -23.0790   -5.3360 O.3    79  U79        -0.4373
   1470  OP2      -30.8820  -22.5410   -6.5000 O.co2  79  U79        -0.5172
   1471  P        -34.8990  -16.8090   -7.2730 P.3    80  A80         0.2141
   1472  C5'      -36.8640  -16.9960   -5.5910 C.3    80  A80         0.1812
   1473  O5'      -35.9200  -16.1450   -6.2400 O.3    80  A80        -0.3114
   1474  C4'      -37.3410  -16.3990   -4.2810 C.3    80  A80         0.1773
   1475  O4'      -36.4540  -16.7900   -3.2020 O.3    80  A80        -0.3307
   1476  C3'      -37.3440  -14.8790   -4.2420 C.3    80  A80         0.1860
   1477  O3'      -38.5420  -14.3830   -4.8300 O.3    80  A80        -0.3112
   1478  C2'      -37.2900  -14.6330   -2.7400 C.3    80  A80         0.2309
   1479  O2'      -38.5360  -14.8830   -2.1200 O.3    80  A80        -0.2156
   1480  C1'      -36.2930  -15.7030   -2.3080 C.3    80  A80         0.2408
   1481  N1       -32.6110  -12.9570    0.0330 N.ar   80  A80        -0.2040
   1482  C2       -33.9160  -13.0960    0.2880 C.ar   80  A80         0.2016
   1483  N3       -34.8200  -13.8240   -0.3640 N.ar   80  A80        -0.2048
   1484  C4       -34.2620  -14.4660   -1.4030 C.ar   80  A80         0.1692
   1485  C5       -32.9370  -14.4120   -1.7950 C.ar   80  A80         0.1518
   1486  C6       -32.0790  -13.6050   -1.0200 C.ar   80  A80         0.1919
   1487  N6       -30.7760  -13.4500   -1.2740 N.pl3  80  A80        -0.1054
   1488  N7       -32.7230  -15.2020   -2.9150 N.ar   80  A80        -0.2193
   1489  C8       -33.9070  -15.7050   -3.1720 C.ar   80  A80         0.1816
   1490  N9       -34.8850  -15.3010   -2.3030 N.ar   80  A80        -0.2693
   1491  OP1      -35.4610  -16.7090   -8.6390 O.2    80  A80        -0.5172
   1492  OP2      -33.5440  -16.2830   -6.9860 O.co2  80  A80        -0.4373
   1493  P        -38.4690  -13.2720   -5.9820 P.3    81  G81         0.2141
   1494  C5'      -39.2620  -11.6000   -4.1430 C.3    81  G81         0.1812
   1495  O5'      -38.3090  -11.9150   -5.1510 O.3    81  G81        -0.3114
   1496  C4'      -38.6870  -10.6220   -3.1340 C.3    81  G81         0.1773
   1497  O4'      -37.7790  -11.3180   -2.2410 O.3    81  G81        -0.3307
   1498  C3'      -37.8240   -9.5070   -3.7100 C.3    81  G81         0.1860
   1499  O3'      -38.6210   -8.4640   -4.2640 O.3    81  G81        -0.3112
   1500  C2'      -37.1030   -9.0770   -2.4390 C.3    81  G81         0.2309
   1501  O2'      -37.9500   -8.4070   -1.5290 O.3    81  G81        -0.2156
   1502  C1'      -36.7260  -10.4420   -1.8790 C.3    81  G81         0.2408
   1503  N1       -31.7010   -9.9000   -1.7920 N.ar   81  G81        -0.1709
   1504  C2       -32.6650   -9.2710   -1.0400 C.ar   81  G81         0.2606
   1505  N2       -32.2300   -8.3800   -0.1380 N.pl3  81  G81        -0.0859
   1506  N3       -33.9640   -9.5080   -1.1560 N.ar   81  G81        -0.1918
   1507  C4       -34.2200  -10.4400   -2.1080 C.ar   81  G81         0.1723
   1508  C5       -33.3310  -11.1200   -2.9140 C.ar   81  G81         0.1748
   1509  C6       -31.9480  -10.8520   -2.7780 C.ar   81  G81         0.3023
   1510  O6       -31.0010  -11.3540   -3.4010 O.2    81  G81        -0.2633
   1511  N7       -34.0060  -11.9860   -3.7710 N.ar   81  G81        -0.2173
   1512  C8       -35.2660  -11.8190   -3.4620 C.ar   81  G81         0.1817
   1513  N9       -35.4650  -10.9020   -2.4550 N.ar   81  G81        -0.2693
   1514  OP1      -39.7710  -13.2730   -6.6760 O.3    81  G81        -0.4373
   1515  OP2      -37.2180  -13.4680   -6.7490 O.co2  81  G81        -0.5172
   1516  P        -38.0820   -7.6510   -5.5320 P.3    82  G82         0.2141
   1517  C5'      -37.4010   -5.7180   -3.8930 C.3    82  G82         0.1812
   1518  O5'      -37.0110   -6.6580   -4.8830 O.3    82  G82        -0.3114
   1519  C4'      -36.1770   -5.1670   -3.1860 C.3    82  G82         0.1773
   1520  O4'      -35.4160   -6.2550   -2.6020 O.3    82  G82        -0.3307
   1521  C3'      -35.1600   -4.4670   -4.0760 C.3    82  G82         0.1860
   1522  O3'      -35.5460   -3.1280   -4.3390 O.3    82  G82        -0.3112
   1523  C2'      -33.9400   -4.5030   -3.1690 C.3    82  G82         0.2309
   1524  O2'      -34.0530   -3.5680   -2.1130 O.3    82  G82        -0.2156
   1525  C1'      -34.0380   -5.9280   -2.6400 C.3    82  G82         0.2408
   1526  N1       -29.5170   -7.5640   -4.2870 N.ar   82  G82        -0.1709
   1527  C2       -29.8060   -6.5540   -3.4000 C.ar   82  G82         0.2606
   1528  N2       -28.7590   -5.8900   -2.8890 N.pl3  82  G82        -0.0859
   1529  N3       -31.0380   -6.2150   -3.0440 N.ar   82  G82        -0.1918
   1530  C4       -31.9760   -6.9880   -3.6530 C.ar   82  G82         0.1723
   1531  C5       -31.7890   -8.0100   -4.5530 C.ar   82  G82         0.1748
   1532  C6       -30.4680   -8.3640   -4.9200 C.ar   82  G82         0.3023
   1533  O6       -30.1050   -9.2510   -5.7030 O.2    82  G82        -0.2633
   1534  N7       -33.0080   -8.5430   -4.9570 N.ar   82  G82        -0.2173
   1535  C8       -33.8970   -7.8440   -4.3070 C.ar   82  G82         0.1817
   1536  N9       -33.3400   -6.8830   -3.4960 N.ar   82  G82        -0.2693
   1537  OP1      -39.2100   -6.8770   -6.0890 O.3    82  G82        -0.4373
   1538  OP2      -37.3280   -8.5970   -6.3920 O.co2  82  G82        -0.5172
   1539  P        -35.2100   -2.4820   -5.7620 P.3    83  G83         0.2141
   1540  C5'      -32.7330   -1.7220   -5.2930 C.3    83  G83         0.1812
   1541  O5'      -33.6260   -2.6570   -5.8860 O.3    83  G83        -0.3114
   1542  C4'      -31.2950   -2.1460   -5.5370 C.3    83  G83         0.1773
   1543  O4'      -31.1220   -3.5270   -5.1350 O.3    83  G83        -0.3307
   1544  C3'      -30.8350   -2.1130   -6.9880 C.3    83  G83         0.1860
   1545  O3'      -30.3600   -0.8220   -7.3290 O.3    83  G83        -0.3112
   1546  C2'      -29.6860   -3.1140   -6.9660 C.3    83  G83         0.2309
   1547  O2'      -28.5080   -2.5630   -6.4180 O.3    83  G83        -0.2156
   1548  C1'      -30.2280   -4.1780   -6.0220 C.3    83  G83         0.2408
   1549  N1       -29.8740   -8.4970   -8.6920 N.ar   83  G83        -0.1709
   1550  C2       -28.8670   -7.7280   -8.1520 C.ar   83  G83         0.2606
   1551  N2       -27.6160   -8.1650   -8.3540 N.pl3  83  G83        -0.0859
   1552  N3       -29.0740   -6.6050   -7.4700 N.ar   83  G83        -0.1918
   1553  C4       -30.3990   -6.3180   -7.3690 C.ar   83  G83         0.1723
   1554  C5       -31.4720   -7.0250   -7.8660 C.ar   83  G83         0.1748
   1555  C6       -31.2360   -8.2170   -8.5900 C.ar   83  G83         0.3023
   1556  O6       -32.0680   -8.9760   -9.1060 O.2    83  G83        -0.2633
   1557  N7       -32.6720   -6.4010   -7.5450 N.ar   83  G83        -0.2173
   1558  C8       -32.3100   -5.3510   -6.8660 C.ar   83  G83         0.1817
   1559  N9       -30.9480   -5.2360   -6.7200 N.ar   83  G83        -0.2693
   1560  OP1      -35.5510   -1.0430   -5.6900 O.3    83  G83        -0.4373
   1561  OP2      -35.8190   -3.3420   -6.8030 O.co2  83  G83        -0.5172
   1562  P        -31.2840    0.1880   -8.1470 P.3    84  A84         0.2141
   1563  C5'      -29.3610    1.9090   -8.6010 C.3    84  A84         0.1812
   1564  O5'      -30.2460    0.9260   -9.1140 O.3    84  A84        -0.3114
   1565  C4'      -28.0840    1.9080   -9.4170 C.3    84  A84         0.1773
   1566  O4'      -27.2500    0.8040   -8.9940 O.3    84  A84        -0.3307
   1567  C3'      -28.3130    1.6640  -10.8970 C.3    84  A84         0.1860
   1568  O3'      -28.5460    2.9050  -11.5390 O.3    84  A84        -0.3112
   1569  C2'      -27.0090    1.0150  -11.3510 C.3    84  A84         0.2309
   1570  O2'      -26.0380    1.9700  -11.7420 O.3    84  A84        -0.2156
   1571  C1'      -26.5540    0.2660  -10.1000 C.3    84  A84         0.2408
   1572  N1       -24.4650   -4.4430  -10.2860 N.ar   84  A84        -0.2040
   1573  C2       -23.9150   -3.2210  -10.2860 C.ar   84  A84         0.2016
   1574  N3       -24.5150   -2.0310  -10.2360 N.ar   84  A84        -0.2048
   1575  C4       -25.8500   -2.1720  -10.1820 C.ar   84  A84         0.1692
   1576  C5       -26.5570   -3.3610  -10.1730 C.ar   84  A84         0.1518
   1577  C6       -25.8090   -4.5520  -10.2340 C.ar   84  A84         0.1919
   1578  N6       -26.3650   -5.7680  -10.2330 N.pl3  84  A84        -0.1054
   1579  N7       -27.9180   -3.1220  -10.1110 N.ar   84  A84        -0.2193
   1580  C8       -28.0060   -1.8110  -10.0830 C.ar   84  A84         0.1816
   1581  N9       -26.7970   -1.1740  -10.1280 N.ar   84  A84        -0.2693
   1582  OP1      -31.8260    1.1610   -7.1720 O.3    84  A84        -0.4373
   1583  OP2      -32.1990   -0.5970   -9.0050 O.co2  84  A84        -0.5172
   1584  P        -29.3490    2.9220  -12.9190 P.3    85  A85         0.2141
   1585  C5'      -28.9440    1.2060  -14.8550 C.3    85  A85         0.1812
   1586  O5'      -28.4010    2.0190  -13.8380 O.3    85  A85        -0.3114
   1587  C4'      -28.7140    1.8600  -16.2010 C.3    85  A85         0.1773
   1588  O4'      -27.2900    2.0050  -16.4540 O.3    85  A85        -0.3307
   1589  C3'      -29.2740    1.0740  -17.3810 C.3    85  A85         0.1860
   1590  O3'      -29.8720    1.9780  -18.2860 O.3    85  A85        -0.3112
   1591  C2'      -28.0270    0.4550  -17.9970 C.3    85  A85         0.2309
   1592  O2'      -28.2020    0.1700  -19.3700 O.3    85  A85        -0.2156
   1593  C1'      -27.0710    1.6230  -17.7940 C.3    85  A85         0.2408
   1594  N1       -22.4630    3.5240  -19.0520 N.ar   85  A85        -0.2040
   1595  C2       -23.6520    4.1080  -18.8700 C.ar   85  A85         0.2016
   1596  N3       -24.8150    3.5490  -18.5380 N.ar   85  A85        -0.2048
   1597  C4       -24.6820    2.2220  -18.3840 C.ar   85  A85         0.1692
   1598  C5       -23.5270    1.4800  -18.5380 C.ar   85  A85         0.1518
   1599  C6       -22.3590    2.1880  -18.8900 C.ar   85  A85         0.1919
   1600  N6       -21.1690    1.6050  -19.0700 N.pl3  85  A85        -0.1054
   1601  N7       -23.7730    0.1370  -18.2990 N.ar   85  A85        -0.2193
   1602  C8       -25.0540    0.0960  -18.0130 C.ar   85  A85         0.1816
   1603  N9       -25.6620    1.3210  -18.0380 N.ar   85  A85        -0.2693
   1604  OP1      -29.3490    4.3100  -13.4330 O.2    85  A85        -0.5172
   1605  OP2      -30.6280    2.2040  -12.7130 O.co2  85  A85        -0.4373
   1606  P        -31.4420    1.9120  -18.5800 P.3    86  G86         0.2141
   1607  C5'      -31.5150    4.1780  -19.8780 C.3    86  G86         0.1812
   1608  O5'      -31.5350    2.7600  -19.9370 O.3    86  G86        -0.3114
   1609  C4'      -30.3720    4.7940  -20.6710 C.3    86  G86         0.1773
   1610  O4'      -29.0680    4.5180  -20.1000 O.3    86  G86        -0.3307
   1611  C3'      -30.1450    4.3560  -22.1080 C.3    86  G86         0.1860
   1612  O3'      -31.2090    4.7470  -22.9640 O.3    86  G86        -0.3112
   1613  C2'      -28.8960    5.1950  -22.3550 C.3    86  G86         0.2309
   1614  O2'      -29.2100    6.5660  -22.4790 O.3    86  G86        -0.2156
   1615  C1'      -28.1210    4.9670  -21.0560 C.3    86  G86         0.2408
   1616  N1       -23.3480    4.2110  -22.6650 N.ar   86  G86        -0.1709
   1617  C2       -24.1080    5.3580  -22.6920 C.ar   86  G86         0.2606
   1618  N2       -23.5240    6.4470  -23.2130 N.pl3  86  G86        -0.0859
   1619  N3       -25.3530    5.4350  -22.2370 N.ar   86  G86        -0.1918
   1620  C4       -25.7890    4.2470  -21.7480 C.ar   86  G86         0.1723
   1621  C5       -25.1070    3.0520  -21.6770 C.ar   86  G86         0.1748
   1622  C6       -23.7780    2.9850  -22.1640 C.ar   86  G86         0.3023
   1623  O6       -23.0160    2.0080  -22.1890 O.2    86  G86        -0.2633
   1624  N7       -25.9050    2.0690  -21.1070 N.ar   86  G86        -0.2173
   1625  C8       -27.0310    2.6770  -20.8470 C.ar   86  G86         0.1817
   1626  N9       -27.0320    4.0020  -21.2030 N.ar   86  G86        -0.2693
   1627  OP1      -32.1450    2.6240  -17.4870 O.3    86  G86        -0.4373
   1628  OP2      -31.7970    0.5090  -18.8890 O.co2  86  G86        -0.5172
   1629  P        -31.3820    4.0300  -24.3860 P.3    87  U87         0.2141
   1630  C5'      -30.2200    5.8230  -25.8940 C.3    87  U87         0.1812
   1631  O5'      -30.1380    4.5690  -25.2340 O.3    87  U87        -0.3114
   1632  C4'      -28.8790    6.2180  -26.4820 C.3    87  U87         0.1773
   1633  O4'      -27.8190    5.9920  -25.5210 O.3    87  U87        -0.3307
   1634  C3'      -28.4410    5.4000  -27.6830 C.3    87  U87         0.1860
   1635  O3'      -29.0930    5.8590  -28.8540 O.3    87  U87        -0.3112
   1636  C2'      -26.9460    5.7000  -27.6990 C.3    87  U87         0.2309
   1637  O2'      -26.6500    6.9730  -28.2390 O.3    87  U87        -0.2156
   1638  C1'      -26.6210    5.6690  -26.2090 C.3    87  U87         0.2420
   1639  N1       -26.1490    4.3360  -25.7280 N.ar   87  U87        -0.2534
   1640  C2       -24.8660    3.9140  -26.0200 C.ar   87  U87         0.3546
   1641  O2       -24.0730    4.5750  -26.6700 O.2    87  U87        -0.2443
   1642  N3       -24.5430    2.6720  -25.5260 N.ar   87  U87        -0.1530
   1643  C4       -25.3560    1.8340  -24.7810 C.ar   87  U87         0.2846
   1644  O4       -24.9310    0.7470  -24.3990 O.2    87  U87        -0.2650
   1645  C5       -26.6760    2.3440  -24.5200 C.ar   87  U87         0.0814
   1646  C6       -27.0130    3.5490  -24.9920 C.ar   87  U87         0.0870
   1647  OP1      -32.6370    4.5260  -24.9920 O.2    87  U87        -0.5172
   1648  OP2      -31.1730    2.5760  -24.1940 O.co2  87  U87        -0.4373
   1649  P        -29.6380    4.8090  -29.9280 P.3    88  U88         0.2141
   1650  C5'      -27.4870    5.3760  -31.3550 C.3    88  U88         0.1813
   1651  O5'      -28.3220    4.3950  -30.7440 O.3    88  U88        -0.3114
   1652  C4'      -26.0810    4.8370  -31.5710 C.3    88  U88         0.1801
   1653  O4'      -25.4630    4.5530  -30.2910 O.3    88  U88        -0.3306
   1654  C3'      -25.9940    3.5200  -32.3310 C.3    88  U88         0.2161
   1655  O3'      -25.9880    3.7570  -33.7300 O.3    88  U88        -0.2175
   1656  C2'      -24.6440    2.9900  -31.8680 C.3    88  U88         0.2338
   1657  O2'      -23.5740    3.5850  -32.5730 O.3    88  U88        -0.2155
   1658  C1'      -24.6190    3.4220  -30.4050 C.3    88  U88         0.2421
   1659  N1       -25.0820    2.3650  -29.4530 N.ar   88  U88        -0.2534
   1660  C2       -24.1750    1.4250  -29.0130 C.ar   88  U88         0.3546
   1661  O2       -23.0100    1.4140  -29.3720 O.2    88  U88        -0.2443
   1662  N3       -24.6840    0.4940  -28.1390 N.ar   88  U88        -0.1530
   1663  C4       -25.9830    0.4170  -27.6700 C.ar   88  U88         0.2846
   1664  O4       -26.2970   -0.4710  -26.8840 O.2    88  U88        -0.2650
   1665  C5       -26.8720    1.4350  -28.1710 C.ar   88  U88         0.0814
   1666  C6       -26.3960    2.3490  -29.0250 C.ar   88  U88         0.0870
   1667  OP1      -30.5670    5.5380  -30.8190 O.2    88  U88        -0.5172
   1668  OP2      -30.1000    3.6000  -29.2110 O.co2  88  U88        -0.4373
@<TRIPOS>BOND
     1  1655  1654    1
     2  1657  1656    1
     3  1654  1656    1
     4  1654  1652    1
     5  1656  1658    1
     6  1652  1650    1
     7  1652  1653    1
     8  1650  1651    1
     9  1667  1649    2
    10  1651  1649    1
    11    13    12    1
    12  1658  1653    1
    13  1658  1659    1
    14  1649  1668    1
    15  1649  1635    1
    16    12    14   ar
    17    12    11   ar
    18  1659  1666   ar
    19  1659  1660   ar
    20    14    15   ar
    21  1661  1660    2
    22  1666  1665   ar
    23  1660  1662   ar
    24     9     8    1
    25    11    17   ar
    26  1635  1634    1
    27    32    31    1
    28    10     8    1
    29    10    21    1
    30    10     5    1
    31    15    21   ar
    32    15    16   ar
    33  1637  1636    1
    34    28    33    1
    35    28    27    1
    36  1665  1663   ar
    37  1662  1663   ar
    38    33    31    1
    39    33    43    1
    40     8     6    1
    41    21    20   ar
    42    17    16   ar
    43    17    18    2
    44     5     4    1
    45    27    25    1
    46    27    29    1
    47  1636  1634    1
    48  1636  1638    1
    49  1634  1632    1
    50  1663  1664    2
    51    16    19   ar
    52    31    29    1
    53    36    35   ar
    54    36    37   ar
    55    25    26    1
    56     4     6    1
    57     4     2    1
    58    43    37   ar
    59    43    42   ar
    60    35    34   ar
    61    29    30    1
    62    37    38   ar
    63    20    19   ar
    64    30    46    1
    65     6     7    1
    66  1641  1640    2
    67  1632  1630    1
    68  1632  1633    1
    69     7    24    1
    70    50    49    1
    71    50    55    1
    72    47    49    1
    73    47    48    1
    74  1638  1639    1
    75  1638  1633    1
    76    42    41   ar
    77    34    39   ar
    78  1640  1639   ar
    79  1640  1642   ar
    80    49    51    1
    81    26    24    1
    82     2     3    1
    83  1630  1631    1
    84    38    39   ar
    85    38    41   ar
    86  1639  1646   ar
    87  1642  1643   ar
    88    39    40    1
    89    64    46    2
    90    55    56    1
    91    55    53    1
    92    46    48    1
    93    46    65    1
    94    24    44    2
    95    24    45    1
    96  1631  1629    1
    97    54    53    1
    98     3     1    1
    99  1647  1629    2
   100  1646  1645   ar
   101  1643  1645   ar
   102  1643  1644    2
   103    56    63   ar
   104    56    57   ar
   105    53    51    1
   106    51    52    1
   107    63    62   ar
   108  1629  1648    1
   109  1629  1612    1
   110    58    57    2
   111    52    66    1
   112    57    59   ar
   113     1    23    1
   114     1    22    1
   115    62    60   ar
   116    59    60   ar
   117    60    61    1
   118  1618  1617    1
   119  1612  1611    1
   120    66    84    2
   121    66    85    1
   122    66    68    1
   123  1617  1616   ar
   124  1617  1619   ar
   125  1616  1622   ar
   126  1614  1613    1
   127  1613  1611    1
   128  1613  1615    1
   129  1619  1620   ar
   130  1623  1622    2
   131  1622  1621   ar
   132  1611  1609    1
   133    70    69    1
   134    70    75    1
   135    68    67    1
   136    67    69    1
   137  1620  1621   ar
   138  1620  1626   ar
   139  1621  1624   ar
   140    69    71    1
   141  1626  1615    1
   142  1626  1625   ar
   143    75    76    1
   144    75    73    1
   145    83    76   ar
   146    83    82   ar
   147  1624  1625   ar
   148  1615  1610    1
   149    76    77   ar
   150    82    80   ar
   151  1609  1610    1
   152  1609  1607    1
   153    77    78    2
   154    77    79   ar
   155    80    79   ar
   156    80    81    2
   157    74    73    1
   158  1608  1607    1
   159  1608  1606    1
   160    73    71    1
   161    71    72    1
   162  1592  1591    1
   163    72    86    1
   164  1600  1599    1
   165  1594  1599   ar
   166  1594  1595   ar
   167  1599  1598   ar
   168  1628  1606    2
   169  1595  1596   ar
   170  1606  1590    1
   171  1606  1627    1
   172  1596  1597   ar
   173  1598  1597   ar
   174  1598  1601   ar
   175   919   899    2
   176  1597  1603   ar
   177   920   899    1
   178  1601  1602   ar
   179  1590  1589    1
   180   105    86    2
   181  1603  1602   ar
   182  1603  1593    1
   183  1591  1593    1
   184  1591  1589    1
   185   898   879    2
   186  1593  1588    1
   187    86   104    1
   188    86    88    1
   189   899   885    1
   190   899   901    1
   191   897   879    1
   192  1589  1587    1
   193   879   881    1
   194   879   862    1
   195   881   880    1
   196   885   884    1
   197   884   886    1
   198   884   882    1
   199   887   886    1
   200    90    95    1
   201    90    89    1
   202    88    87    1
   203   102   103   ar
   204   102   100   ar
   205   103    96   ar
   206   101   100    1
   207   100    99   ar
   208   886   888    1
   209    96    95    1
   210    96    97   ar
   211  1588  1587    1
   212    99    97   ar
   213    95    93    1
   214    97    98    2
   215   880   882    1
   216   901   900    1
   217  1587  1585    1
   218   873   872    2
   219   900   902    1
   220    87    89    1
   221   882   883    1
   222    89    91    1
   223   872   866   ar
   224   872   871   ar
   225   878   856    2
   226   866   867   ar
   227   862   861    1
   228   871   874   ar
   229   871   870   ar
   230   874   875   ar
   231   861   863    1
   232   861   859    1
   233   867   868    1
   234   867   869   ar
   235   877   856    1
   236   939   921    2
   237   888   883    1
   238   888   889    1
   239    93    94    1
   240    93    91    1
   241   863   864    1
   242   863   865    1
   243  1585  1586    1
   244   870   869   ar
   245   870   876   ar
   246   856   858    1
   247   856   842    1
   248   902   903    1
   249   902   904    1
   250   875   876   ar
   251    91    92    1
   252   858   857    1
   253   876   865    1
   254   903   908    1
   255   889   896   ar
   256   889   890   ar
   257   896   895   ar
   258   855   836    2
   259   854   836    1
   260   936   935    2
   261   865   860    1
   262   921   940    1
   263   921   905    1
   264   921   923    1
   265  1586  1584    1
   266   857   859    1
   267   859   860    1
   268   904   905    1
   269   904   906    1
   270   891   890    2
   271   956   955    1
   272   890   892   ar
   273   851   850    1
   274   814   796    2
   275   937   935   ar
   276   937   938   ar
   277   834   816    2
   278    92   106    1
   279  1604  1584    2
   280   895   893   ar
   281   836   838    1
   282   836   822    1
   283   957   955   ar
   284   957   958   ar
   285   842   841    1
   286   935   934   ar
   287   835   816    1
   288   838   837    1
   289   124   125   ar
   290   124   121   ar
   291   852   850   ar
   292   852   853   ar
   293   955   954   ar
   294   123   122    2
   295   850   849   ar
   296   125   126   ar
   297  1584  1605    1
   298  1584  1568    1
   299   908   906    1
   300   908   918    1
   301   892   893   ar
   302   938   931   ar
   303   841   843    1
   304   841   839    1
   305  1466  1465    2
   306   121   122   ar
   307   121   120   ar
   308   923   922    1
   309   122   116   ar
   310   815   796    1
   311   893   894    2
   312   816   818    1
   313   816   802    1
   314   958   951   ar
   315   110   115    1
   316   110   109    1
   317   126   120   ar
   318   126   115    1
   319   934   932   ar
   320   120   119   ar
   321   906   907    1
   322   796   798    1
   323   796   780    1
   324   853   846   ar
   325  1464  1465   ar
   326  1464  1462   ar
   327   849   847   ar
   328   116   117   ar
   329   115   113    1
   330   918   917   ar
   331   918   912   ar
   332   960   941    2
   333   837   839    1
   334   794   774    2
   335   128   106    2
   336  1465  1467   ar
   337   119   117   ar
   338   928   929    1
   339   928   926    1
   340   928   930    1
   341   911   912   ar
   342   911   910   ar
   343   117   118    1
   344   818   817    1
   345  1463  1462    2
   346   106   108    1
   347   106   127    1
   348   843   845    1
   349   843   844    1
   350   931   932   ar
   351   931   930    1
   352   917   916   ar
   353   954   952   ar
   354   912   913   ar
   355   822   821    1
   356   846   847   ar
   357   846   845    1
   358   847   848    2
   359   839   840    1
   360   932   933    2
   361  1570  1569    1
   362  1462  1461   ar
   363   942   943    1
   364   942   944    1
   365   108   107    1
   366   910   909   ar
   367   951   952   ar
   368   951   950    1
   369   798   797    1
   370  1568  1567    1
   371   926   924    1
   372   926   927    1
   373   922   924    1
   374   780   779    1
   375   109   107    1
   376   109   111    1
   377   916   913   ar
   378   802   801    1
   379   913   914   ar
   380  1569  1567    1
   381  1569  1571    1
   382   948   949    1
   383   948   950    1
   384   948   946    1
   385   930   925    1
   386   817   819    1
   387   952   953    2
   388   821   819    1
   389   821   823    1
   390   845   840    1
   391   943   941    1
   392   797   799    1
   393   909   914   ar
   394  1467  1468   ar
   395   945   950    1
   396   945   944    1
   397   941   927    1
   398   941   959    1
   399   914   915    1
   400   832   833   ar
   401   832   830   ar
   402   925   924    1
   403   113   114    1
   404   113   111    1
   405  1567  1565    1
   406   775   776    1
   407   775   777    1
   408   831   830    1
   409   774   760    1
   410   774   795    1
   411   774   776    1
   412  1461  1468   ar
   413  1461  1460    1
   414   944   946    1
   415   801   799    1
   416   801   803    1
   417   833   826   ar
   418   946   947    1
   419   830   829   ar
   420   819   820    1
   421   760   759    1
   422   779   777    1
   423   779   781    1
   424   111   112    1
   425  1572  1573   ar
   426  1572  1577   ar
   427  1573  1574   ar
   428  1574  1575   ar
   429  1577  1578    1
   430  1577  1576   ar
   431  1575  1576   ar
   432  1575  1581   ar
   433  1576  1579   ar
   434  1581  1571    1
   435  1581  1580   ar
   436  1579  1580   ar
   437   799   800    1
   438  1571  1566    1
   439   823   825    1
   440   823   824    1
   441   777   778    1
   442  1460  1455    1
   443  1460  1458    1
   444   982   961    2
   445   826   825    1
   446   826   827   ar
   447  1455  1454    1
   448   829   827   ar
   449   820   825    1
   450   146   145    2
   451  1565  1566    1
   452  1565  1563    1
   453   812   813   ar
   454   812   810   ar
   455   813   806   ar
   456   803   804    1
   457   803   805    1
   458   827   828    2
   459   947   961    1
   460   147   144   ar
   461   147   148   ar
   462   145   144   ar
   463   145   139   ar
   464  1564  1563    1
   465  1564  1562    1
   466  1556  1555    2
   467   112   129    1
   468   762   761    1
   469   781   782    1
   470   781   783    1
   471   144   143   ar
   472  1583  1562    2
   473   759   761    1
   474   759   757    1
   475   148   149   ar
   476   139   140   ar
   477   800   805    1
   478   647   652    1
   479   647   646    1
   480   965   970    1
   481   965   964    1
   482  1549  1555   ar
   483  1549  1550   ar
   484   143   149   ar
   485   143   142   ar
   486  1491  1471    2
   487   961   981    1
   488   961   963    1
   489   778   783    1
   490  1459  1458    1
   491  1458  1456    1
   492  1555  1554   ar
   493   149   138    1
   494   133   138    1
   495   133   132    1
   496   811   810    1
   497   140   142   ar
   498   140   141    1
   499   810   809   ar
   500   806   805    1
   501   806   807   ar
   502   652   662    1
   503   652   650    1
   504  1551  1550    1
   505   646   644    1
   506   646   648    1
   507  1454  1452    1
   508  1454  1456    1
   509   651   650    1
   510   138   136    1
   511   761   763    1
   512  1550  1552   ar
   513  1562  1545    1
   514  1562  1582    1
   515   962   964    1
   516   962   963    1
   517   757   755    1
   518   757   758    1
   519   970   980    1
   520   970   968    1
   521   644   645    1
   522   964   966    1
   523   783   793    1
   524  1554  1557   ar
   525  1554  1553   ar
   526   151   129    2
   527   980   979   ar
   528   980   974   ar
   529   792   793   ar
   530   792   791   ar
   531  1452  1453    1
   532   663   643    2
   533   979   978   ar
   534   662   661   ar
   535   662   656   ar
   536   129   131    1
   537   129   150    1
   538   809   807   ar
   539   807   808    2
   540  1456  1457    1
   541   755   756    1
   542  1557  1558   ar
   543   131   130    1
   544   650   648    1
   545   793   787   ar
   546   974   973   ar
   547   974   975   ar
   548   661   660   ar
   549  1552  1553   ar
   550   130   132    1
   551   978   975   ar
   552   973   972   ar
   553   132   134    1
   554  1553  1559   ar
   555  1545  1544    1
   556   763   758    1
   557   763   764    1
   558  1471  1492    1
   559  1471  1457    1
   560  1471  1473    1
   561   975   976   ar
   562   969   968    1
   563   655   656   ar
   564   655   654   ar
   565   656   657   ar
   566   791   788   ar
   567  1453  1451    1
   568   648   649    1
   569   645   643    1
   570   972   971   ar
   571  1544  1546    1
   572  1544  1542    1
   573  1546  1547    1
   574  1546  1548    1
   575   976   971   ar
   576   976   977    1
   577   968   966    1
   578   660   657   ar
   579  1558  1559   ar
   580   649   665    1
   581  1561  1539    2
   582   136   137    1
   583   136   134    1
   584  1515  1493    2
   585   657   658   ar
   586  1559  1548    1
   587   643   664    1
   588   643   626    1
   589   654   653   ar
   590  1514  1493    1
   591   169   168    2
   592   787   788   ar
   593   787   786   ar
   594   966   967    1
   595   766   765    2
   596  1470  1451    2
   597   788   789   ar
   598  1538  1516    2
   599   162   168   ar
   600   162   163   ar
   601   134   135    1
   602   168   167   ar
   603  1473  1472    1
   604   653   658   ar
   605   658   659    1
   606   756   754    1
   607  1537  1516    1
   608   786   785   ar
   609  1548  1543    1
   610   740   739    1
   611  1493  1495    1
   612  1493  1477    1
   613   764   765   ar
   614   764   771   ar
   615  1451  1469    1
   616  1451  1434    1
   617   164   163    1
   618   772   754    2
   619  1541  1539    1
   620  1541  1540    1
   621   163   165   ar
   622   967   983    1
   623   167   170   ar
   624   167   166   ar
   625  1539  1560    1
   626  1539  1522    1
   627   765   767   ar
   628  1533  1532    2
   629   998   997    1
   630   170   171   ar
   631  1472  1474    1
   632   789   790    1
   633   789   784   ar
   634  1542  1540    1
   635  1542  1543    1
   636  1516  1518    1
   637  1516  1499    1
   638   669   668    1
   639   669   674    1
   640   165   166   ar
   641   166   172   ar
   642   626   625    1
   643   686   665    2
   644   665   667    1
   645   665   687    1
   646   739   737    1
   647   739   741    1
   648   666   668    1
   649   666   667    1
   650   785   784   ar
   651   754   738    1
   652   754   773    1
   653   171   172   ar
   654   997   999   ar
   655   997   996   ar
   656  1495  1494    1
   657   738   737    1
   658   999  1000   ar
   659   771   770   ar
   660   135   152    1
   661   172   161    1
   662  1534  1531   ar
   663  1534  1535   ar
   664  1532  1531   ar
   665  1532  1526   ar
   666  1434  1433    1
   667   668   670    1
   668  1518  1517    1
   669  1002   983    2
   670  1477  1476    1
   671   996   994   ar
   672   156   161    1
   673   156   155    1
   674  1000   993   ar
   675  1531  1530   ar
   676   161   159    1
   677   983  1001    1
   678   983   985    1
   679   674   685    1
   680   674   672    1
   681   767   768   ar
   682   737   735    1
   683  1522  1521    1
   684   994   993   ar
   685   994   995    2
   686  1535  1536   ar
   687  1526  1527   ar
   688  1474  1476    1
   689  1474  1475    1
   690  1499  1498    1
   691   684   685   ar
   692   684   683   ar
   693  1476  1478    1
   694   741   751    1
   695   741   736    1
   696   993   992    1
   697   685   679   ar
   698  1494  1496    1
   699   750   751   ar
   700   750   749   ar
   701   987   992    1
   702   987   986    1
   703   625   627    1
   704   625   623    1
   705   628   627    1
   706  1521  1519    1
   707  1521  1523    1
   708   683   680   ar
   709  1517  1519    1
   710   770   768   ar
   711   751   745   ar
   712   174   152    2
   713  1511  1512   ar
   714  1511  1508   ar
   715  1431  1433    1
   716  1431  1432    1
   717  1431  1429    1
   718   992   990    1
   719  1498  1496    1
   720  1498  1500    1
   721   679   680   ar
   722   679   678   ar
   723   627   629    1
   724  1433  1435    1
   725  1530  1536   ar
   726  1530  1529   ar
   727   152   154    1
   728   152   173    1
   729   749   746   ar
   730   187   186    1
   731   154   153    1
   732   680   681   ar
   733   985   984    1
   734   155   153    1
   735   155   157    1
   736   768   769    2
   737  1536  1525    1
   738   673   672    1
   739   185   186   ar
   740   185   191   ar
   741   678   676   ar
   742  1512  1513   ar
   743   192   191    2
   744  1510  1509    2
   745  1527  1529   ar
   746  1527  1528    1
   747  1432  1437    1
   748   670   672    1
   749   670   671    1
   750   984   986    1
   751   735   736    1
   752   735   733    1
   753  1475  1480    1
   754  1519  1520    1
   755  1489  1488   ar
   756  1489  1490   ar
   757  1523  1525    1
   758  1523  1524    1
   759  1496  1497    1
   760   186   188   ar
   761   681   682    2
   762   681   675   ar
   763   745   746   ar
   764   745   744   ar
   765   191   190   ar
   766   676   675   ar
   767   676   677    1
   768   159   160    1
   769   159   157    1
   770   623   621    1
   771   623   624    1
   772  1437  1435    1
   773  1437  1448    1
   774   746   747   ar
   775   986   988    1
   776  1488  1485   ar
   777  1508  1509   ar
   778  1508  1507   ar
   779  1440  1439    1
   780  1429  1430    1
   781   641   620    2
   782   671   688    1
   783   621   622    1
   784  1509  1503   ar
   785  1478  1480    1
   786  1478  1479    1
   787  1383  1363    2
   788  1525  1520    1
   789  1441  1439   ar
   790  1441  1442   ar
   791   622   620    1
   792  1436  1435    1
   793   744   743   ar
   794  1406  1385    2
   795   157   158    1
   796  1513  1507   ar
   797  1513  1502    1
   798  1500  1502    1
   799  1500  1501    1
   800  1018  1017    1
   801   188   189   ar
   802  1480  1490    1
   803  1490  1484   ar
   804  1497  1502    1
   805   747   748    1
   806   747   742   ar
   807   990   988    1
   808   990   991    1
   809   190   189   ar
   810   190   193   ar
   811  1439  1438   ar
   812   629   624    1
   813   629   640    1
   814  1507  1506   ar
   815   620   642    1
   816   620   606    1
   817   733   734    1
   818  1448  1442   ar
   819  1448  1447   ar
   820   189   195   ar
   821   743   742   ar
   822   988   989    1
   823   639   640   ar
   824   639   638   ar
   825  1485  1484   ar
   826  1485  1486   ar
   827  1503  1504   ar
   828   640   634   ar
   829  1442  1443   ar
   830  1017  1019   ar
   831  1017  1016   ar
   832   193   194   ar
   833   638   635   ar
   834  1427  1408    2
   835  1430  1428    1
   836   634   635   ar
   837   634   633   ar
   838  1019  1020   ar
   839  1484  1483   ar
   840   688   709    2
   841   688   708    1
   842   688   690    1
   843  1426  1408    1
   844   635   636   ar
   845   633   631   ar
   846  1016  1014   ar
   847  1363  1384    1
   848  1363  1349    1
   849  1363  1365    1
   850  1487  1486    1
   851   158   175    1
   852  1385  1407    1
   853  1385  1369    1
   854  1385  1387    1
   855  1506  1504   ar
   856   195   194   ar
   857   195   184    1
   858  1504  1505    1
   859  1438  1444   ar
   860  1486  1481   ar
   861  1364  1365    1
   862  1364  1366    1
   863   631   630   ar
   864   631   632    1
   865   636   630   ar
   866   636   637    2
   867   734   732    1
   868  1369  1368    1
   869  1447  1446   ar
   870  1020  1013   ar
   871  1408  1410    1
   872  1408  1391    1
   873  1349  1348    1
   874  1450  1428    2
   875   179   184    1
   876   179   178    1
   877  1014  1013   ar
   878  1014  1015    2
   879   606   605    1
   880  1443  1444   ar
   881  1443  1446   ar
   882   989  1003    1
   883   690   689    1
   884   184   182    1
   885   213   212    2
   886  1428  1449    1
   887  1428  1414    1
   888  1483  1482   ar
   889  1361  1343    2
   890  1013  1012    1
   891   689   691    1
   892  1444  1445    2
   893   197   175    2
   894  1022  1003    2
   895  1387  1386    1
   896  1366  1368    1
   897  1366  1367    1
   898  1481  1482   ar
   899   211   212   ar
   900   211   209   ar
   901  1386  1388    1
   902  1410  1409    1
   903   175   177    1
   904   175   196    1
   905  1368  1370    1
   906   212   214   ar
   907  1007  1012    1
   908  1007  1006    1
   909  1012  1010    1
   910  1391  1390    1
   911   605   607    1
   912   605   603    1
   913   177   176    1
   914   210   209    2
   915  1344  1346    1
   916  1344  1345    1
   917   753   732    2
   918  1423  1422    1
   919  1003  1005    1
   920  1003  1021    1
   921   732   716    1
   922   732   752    1
   923  1424  1422   ar
   924  1424  1425   ar
   925   714   713    1
   926   714   719    1
   927  1348  1346    1
   928  1348  1350    1
   929  1038  1037    2
   930   178   176    1
   931   178   180    1
   932   713   711    1
   933   713   715    1
   934   608   607    1
   935   607   609    1
   936   209   208   ar
   937   722   721   ar
   938   722   723   ar
   939   721   720   ar
   940  1346  1347    1
   941  1351  1350    1
   942   716   715    1
   943  1414  1413    1
   944   182   183    1
   945   182   180    1
   946  1343  1345    1
   947  1343  1362    1
   948  1343  1329    1
   949  1409  1411    1
   950  1422  1421   ar
   951   711   712    1
   952  1005  1004    1
   953  1390  1388    1
   954  1390  1392    1
   955   691   692    1
   956   691   693    1
   957  1425  1418   ar
   958  1413  1411    1
   959  1413  1415    1
   960  1388  1389    1
   961   214   215   ar
   962   719   729    1
   963   719   717    1
   964  1037  1036   ar
   965  1037  1039   ar
   966  1367  1372    1
   967  1371  1370    1
   968   692   697    1
   969  1370  1372    1
   970  1350  1352    1
   971   720   725   ar
   972  1004  1006    1
   973  1036  1034   ar
   974  1006  1008    1
   975   723   729   ar
   976   723   724   ar
   977   715   717    1
   978   180   181    1
   979   618   600    2
   980   208   215   ar
   981   208   207    1
   982   619   600    1
   983   603   601    1
   984   603   604    1
   985   602   601    1
   986   602   600    1
   987  1329  1328    1
   988   729   728   ar
   989  1010  1011    1
   990  1010  1008    1
   991  1411  1412    1
   992  1039  1040   ar
   993   616   617   ar
   994   616   614   ar
   995   617   610   ar
   996  1421  1419   ar
   997   609   610    1
   998   609   604    1
   999   600   586    1
  1000   610   611   ar
  1001   693   695    1
  1002   693   694    1
  1003   614   615    2
  1004   614   613   ar
  1005  1418  1419   ar
  1006  1418  1417    1
  1007  1034  1035    2
  1008  1034  1033   ar
  1009   725   724   ar
  1010   725   726    1
  1011  1372  1382    1
  1012  1415  1417    1
  1013  1415  1416    1
  1014  1347  1352    1
  1015   712   710    1
  1016   613   611   ar
  1017   611   612    2
  1018   724   727   ar
  1019  1055  1054    1
  1020   717   718    1
  1021  1389  1394    1
  1022  1008  1009    1
  1023   706   705   ar
  1024   706   707   ar
  1025   207   202    1
  1026   207   205    1
  1027  1392  1393    1
  1028  1392  1394    1
  1029  1381  1382   ar
  1030  1381  1380   ar
  1031  1419  1420    2
  1032  1412  1417    1
  1033   728   727   ar
  1034  1040  1033   ar
  1035   705   702   ar
  1036   697   707    1
  1037   697   695    1
  1038  1352  1353    1
  1039   202   201    1
  1040  1404  1403   ar
  1041  1404  1405   ar
  1042   707   701   ar
  1043   695   696    1
  1044  1033  1032    1
  1045  1053  1054   ar
  1046  1053  1059   ar
  1047   181   198    1
  1048   730   710    2
  1049  1382  1376   ar
  1050  1331  1330    1
  1051   702   701   ar
  1052   702   703   ar
  1053  1054  1056   ar
  1054   694   710    1
  1055   701   700   ar
  1056  1403  1400   ar
  1057  1328  1326    1
  1058  1328  1330    1
  1059  1060  1059    2
  1060  1394  1405    1
  1061   710   731    1
  1062   704   703    1
  1063  1380  1377   ar
  1064   703   698   ar
  1065  1405  1399   ar
  1066  1059  1058   ar
  1067   700   699   ar
  1068  1032  1027    1
  1069  1032  1030    1
  1070  1308  1307    1
  1071  1027  1026    1
  1072  1312  1311    1
  1073   599   580    2
  1074   586   585    1
  1075  1326  1324    1
  1076  1326  1327    1
  1077  1330  1332    1
  1078  1353  1360   ar
  1079  1353  1354   ar
  1080  1009  1023    1
  1081   698   699   ar
  1082  1342  1323    2
  1083  1324  1325    1
  1084   205   206    1
  1085   205   203    1
  1086   598   580    1
  1087   578   557    2
  1088  1360  1359   ar
  1089  1376  1377   ar
  1090  1376  1375   ar
  1091   217   198    2
  1092  1056  1057   ar
  1093   201   199    1
  1094   201   203    1
  1095   198   200    1
  1096   198   216    1
  1097   200   199    1
  1098  1400  1399   ar
  1099  1400  1401   ar
  1100  1377  1378   ar
  1101  1355  1354    2
  1102  1325  1323    1
  1103  1399  1398   ar
  1104   585   587    1
  1105   585   583    1
  1106   580   582    1
  1107   580   563    1
  1108  1058  1057   ar
  1109  1058  1061   ar
  1110  1354  1356   ar
  1111   579   557    1
  1112  1375  1374   ar
  1113   555   534    2
  1114  1057  1063   ar
  1115  1042  1023    2
  1116   203   204    1
  1117  1311  1313   ar
  1118  1311  1310   ar
  1119   595   594    1
  1120  1307  1309    1
  1121  1307  1305    1
  1122  1313  1314   ar
  1123  1359  1357   ar
  1124   587   588    1
  1125   587   589    1
  1126  1025  1023    1
  1127  1025  1024    1
  1128   557   559    1
  1129   557   540    1
  1130  1323  1306    1
  1131  1323  1341    1
  1132   582   581    1
  1133  1026  1024    1
  1134  1026  1028    1
  1135  1030  1031    1
  1136  1030  1028    1
  1137  1023  1041    1
  1138  1327  1332    1
  1139  1402  1401    2
  1140  1401  1395   ar
  1141   594   596   ar
  1142   594   593   ar
  1143   596   597   ar
  1144  1306  1305    1
  1145  1332  1333    1
  1146   235   234    2
  1147  1398  1396   ar
  1148   593   591   ar
  1149  1378  1379    1
  1150  1378  1373   ar
  1151  1061  1062   ar
  1152   597   590   ar
  1153  1356  1357   ar
  1154  1309  1304    1
  1155  1309  1320    1
  1156   556   534    1
  1157  1160  1159    1
  1158  1374  1373   ar
  1159  1357  1358    1
  1160   581   583    1
  1161   591   590   ar
  1162   591   592    2
  1163   590   589    1
  1164   234   228   ar
  1165   234   233   ar
  1166   559   558    1
  1167  1063  1062   ar
  1168  1063  1052    1
  1169   583   584    1
  1170  1076  1077   ar
  1171  1076  1081   ar
  1172  1305  1303    1
  1173  1028  1029    1
  1174   534   536    1
  1175   534   518    1
  1176   228   229   ar
  1177   563   562    1
  1178  1310  1316   ar
  1179  1082  1081    1
  1180   540   539    1
  1181   589   584    1
  1182  1395  1396   ar
  1183   233   236   ar
  1184   233   232   ar
  1185  1303  1304    1
  1186  1303  1301    1
  1187   236   237   ar
  1188  1314  1320   ar
  1189  1314  1315   ar
  1190  1335  1334    2
  1191   204   218    1
  1192  1333  1334   ar
  1193  1333  1340   ar
  1194  1396  1397    1
  1195   229   230    1
  1196   229   231   ar
  1197  1077  1078   ar
  1198   558   560    1
  1199  1052  1047    1
  1200  1052  1050    1
  1201  1081  1080   ar
  1202  1183  1182    1
  1203   536   535    1
  1204  1320  1319   ar
  1205   232   231   ar
  1206   232   238   ar
  1207   237   238   ar
  1208   532   512    2
  1209   562   560    1
  1210   562   564    1
  1211  1334  1336   ar
  1212   535   537    1
  1213  1047  1046    1
  1214  1340  1339   ar
  1215  1159  1158   ar
  1216  1159  1161   ar
  1217   238   227    1
  1218   239   218    2
  1219  1158  1164   ar
  1220   518   517    1
  1221   539   537    1
  1222   539   541    1
  1223  1029  1043    1
  1224  1316  1315   ar
  1225  1316  1317    2
  1226   222   227    1
  1227   222   221    1
  1228   227   225    1
  1229   560   561    1
  1230  1315  1318   ar
  1231  1301  1302    1
  1232   575   576   ar
  1233   575   572   ar
  1234   218   220    1
  1235   218   240    1
  1236  1161  1162   ar
  1237  1182  1184   ar
  1238  1182  1181   ar
  1239  1078  1079   ar
  1240   537   538    1
  1241  1336  1337   ar
  1242   576   577   ar
  1243  1123  1122    1
  1244   574   573    2
  1245  1339  1337   ar
  1246  1080  1079   ar
  1247  1080  1083   ar
  1248  1184  1185   ar
  1249  1050  1051    1
  1250  1050  1048    1
  1251  1295  1294    2
  1252   564   565    1
  1253   564   566    1
  1254  1293  1294   ar
  1255  1293  1291   ar
  1256  1319  1318   ar
  1257  1202  1201    1
  1258  1292  1291    2
  1259   572   573   ar
  1260   572   571   ar
  1261   512   533    1
  1262   512   514    1
  1263   512   496    1
  1264  1140  1139    2
  1265   573   567   ar
  1266  1179  1178    1
  1267  1337  1338    1
  1268  1164  1165    2
  1269  1164  1163   ar
  1270   220   219    1
  1271  1079  1085   ar
  1272  1046  1044    1
  1273  1046  1048    1
  1274   513   514    1
  1275   513   515    1
  1276  1181  1187   ar
  1277   577   571   ar
  1278   577   566    1
  1279  1065  1043    2
  1280  1121  1122   ar
  1281  1121  1119   ar
  1282   517   515    1
  1283   517   519    1
  1284  1294  1296   ar
  1285  1274  1273    1
  1286   561   566    1
  1287  1291  1290   ar
  1288   541   542    1
  1289   541   543    1
  1290  1045  1043    1
  1291  1045  1044    1
  1292  1302  1300    1
  1293  1141  1139   ar
  1294  1141  1142   ar
  1295  1043  1064    1
  1296   571   570   ar
  1297  1162  1163   ar
  1298  1162  1168   ar
  1299  1122  1124   ar
  1300   256   255    1
  1301  1268  1273   ar
  1302  1268  1269   ar
  1303  1083  1084   ar
  1304   221   219    1
  1305   221   223    1
  1306   225   226    1
  1307   225   223    1
  1308  1180  1178    1
  1309  1180  1191    1
  1310  1180  1175    1
  1311  1185  1191   ar
  1312  1185  1186   ar
  1313   567   568   ar
  1314  1203  1198    1
  1315  1203  1201    1
  1316  1203  1213    1
  1317  1139  1138   ar
  1318  1198  1197    1
  1319  1143  1142    2
  1320  1048  1049    1
  1321   515   516    1
  1322  1163  1166   ar
  1323   553   552   ar
  1324   553   554   ar
  1325   538   543    1
  1326  1074  1073    1
  1327   496   495    1
  1328   254   255   ar
  1329   254   252   ar
  1330  1120  1119    2
  1331   255   257   ar
  1332   552   549   ar
  1333  1178  1176    1
  1334  1201  1199    1
  1335  1273  1272   ar
  1336   570   568   ar
  1337  1206  1205   ar
  1338  1206  1207   ar
  1339  1191  1190   ar
  1340  1119  1118   ar
  1341  1142  1144   ar
  1342   568   569    1
  1343  1187  1186   ar
  1344  1187  1188    2
  1345  1175  1174    1
  1346  1197  1199    1
  1347  1197  1195    1
  1348  1085  1084   ar
  1349  1085  1075    1
  1350  1269  1270   ar
  1351   543   554    1
  1352   520   519    1
  1353  1168  1157    1
  1354  1168  1167   ar
  1355  1156  1155    1
  1356  1288  1287    1
  1357  1157  1155    1
  1358  1157  1152    1
  1359  1252  1251    1
  1360   554   548   ar
  1361   253   252    2
  1362   252   251   ar
  1363  1296  1297   ar
  1364   519   521    1
  1365  1290  1297   ar
  1366  1290  1289    1
  1367  1186  1189   ar
  1368   223   224    1
  1369   257   258   ar
  1370  1205  1204   ar
  1371  1287  1289    1
  1372  1287  1285    1
  1373  1124  1125   ar
  1374  1213  1207   ar
  1375  1213  1212   ar
  1376   549   548   ar
  1377   549   550   ar
  1378  1207  1208   ar
  1379  1073  1075    1
  1380  1073  1071    1
  1381  1138  1137    1
  1382  1138  1145   ar
  1383  1155  1153    1
  1384   251   258   ar
  1385   251   250    1
  1386  1300  1322    2
  1387  1300  1321    1
  1388  1300  1286    1
  1389  1174  1176    1
  1390  1174  1172    1
  1391  1166  1167   ar
  1392  1049  1066    1
  1393   548   547   ar
  1394  1199  1200    1
  1395  1289  1284    1
  1396  1195  1196    1
  1397   551   550    2
  1398  1190  1189   ar
  1399  1200  1216    1
  1400   510   490    2
  1401  1075  1070    1
  1402   516   521    1
  1403   550   544   ar
  1404  1152  1151    1
  1405  1118  1125   ar
  1406  1118  1117    1
  1407  1137  1135    1
  1408  1137  1132    1
  1409   495   493    1
  1410   495   497    1
  1411  1220  1219    1
  1412  1220  1225    1
  1413  1176  1177    1
  1414  1144  1145   ar
  1415  1272  1271   ar
  1416  1272  1275   ar
  1417   250   245    1
  1418   250   248    1
  1419  1219  1217    1
  1420  1219  1221    1
  1421   245   244    1
  1422  1217  1218    1
  1423  1204  1209   ar
  1424  1270  1271   ar
  1425  1285  1286    1
  1426  1285  1283    1
  1427   521   531    1
  1428  1224  1223    1
  1429  1212  1211   ar
  1430  1251  1246   ar
  1431  1251  1250   ar
  1432   547   545   ar
  1433  1136  1135    1
  1434  1177  1194    1
  1435   491   493    1
  1436   491   492    1
  1437   224   241    1
  1438   498   497    1
  1439  1208  1209   ar
  1440  1208  1211   ar
  1441  1225  1223    1
  1442  1225  1226    1
  1443   493   494    1
  1444   544   545   ar
  1445   276   275    1
  1446  1135  1133    1
  1447   296   295    1
  1448  1196  1194    1
  1449  1271  1277   ar
  1450  1246  1247   ar
  1451   530   531   ar
  1452   530   529   ar
  1453  1172  1173    1
  1454   497   499    1
  1455   545   546    1
  1456   531   525   ar
  1457  1275  1276   ar
  1458  1071  1072    1
  1459  1071  1069    1
  1460  1209  1210    1
  1461   492   490    1
  1462  1132  1131    1
  1463  1117  1115    1
  1464  1117  1112    1
  1465  1068  1066    1
  1466  1068  1067    1
  1467  1151  1153    1
  1468  1151  1149    1
  1469  1153  1154    1
  1470  1234  1216    2
  1471  1066  1087    2
  1472  1066  1086    1
  1473   490   511    1
  1474   490   473    1
  1475  1284  1283    1
  1476  1218  1216    1
  1477  1253  1250   ar
  1478  1253  1254   ar
  1479  1072  1088    1
  1480  1216  1235    1
  1481  1223  1221    1
  1482  1070  1069    1
  1483  1250  1249   ar
  1484   529   526   ar
  1485  1221  1222    1
  1486  1222  1236    1
  1487   275   274   ar
  1488   275   277   ar
  1489   248   249    1
  1490   248   246    1
  1491  1194  1214    2
  1492  1194  1215    1
  1493   525   526   ar
  1494   525   524   ar
  1495   244   242    1
  1496   244   246    1
  1497   274   272   ar
  1498  1283  1281    1
  1499  1228  1227    2
  1500  1226  1227   ar
  1501  1226  1233   ar
  1502  1173  1171    1
  1503   243   241    1
  1504   243   242    1
  1505   260   241    2
  1506   294   295   ar
  1507   294   292   ar
  1508   241   259    1
  1509   526   527   ar
  1510  1154  1171    1
  1511   295   297   ar
  1512  1115  1116    1
  1513  1115  1113    1
  1514   524   523   ar
  1515  1069  1067    1
  1516  1112  1111    1
  1517  1277  1276   ar
  1518  1277  1267    1
  1519  1107  1088    2
  1520  1227  1229   ar
  1521   494   499    1
  1522  1247  1248   ar
  1523  1133  1131    1
  1524  1133  1134    1
  1525  1233  1232   ar
  1526   277   278   ar
  1527  1131  1129    1
  1528   499   509    1
  1529   473   472    1
  1530  1149  1150    1
  1531  1254  1255   ar
  1532   246   247    1
  1533   272   273    2
  1534   272   271   ar
  1535  1088  1106    1
  1536  1088  1090    1
  1537  1256  1236    2
  1538   523   522   ar
  1539   527   522   ar
  1540   527   528    1
  1541  1282  1281    1
  1542  1282  1280    1
  1543  1150  1148    1
  1544  1249  1248   ar
  1545  1249  1255   ar
  1546  1171  1193    2
  1547  1171  1192    1
  1548  1236  1257    1
  1549  1236  1238    1
  1550   293   292    2
  1551   292   291   ar
  1552   509   508   ar
  1553   509   503   ar
  1554   278   271   ar
  1555  1229  1230   ar
  1556  1134  1148    1
  1557  1265  1267    1
  1558  1265  1266    1
  1559  1265  1263    1
  1560   271   270    1
  1561  1267  1262    1
  1562   297   298   ar
  1563  1232  1230   ar
  1564  1113  1111    1
  1565  1113  1114    1
  1566   508   507   ar
  1567  1111  1109    1
  1568  1255  1245    1
  1569  1299  1280    2
  1570  1089  1090    1
  1571  1089  1091    1
  1572  1129  1130    1
  1573  1110  1109    1
  1574  1110  1108    1
  1575   475   474    1
  1576   503   502   ar
  1577   503   504   ar
  1578  1127  1108    2
  1579  1130  1128    1
  1580   502   501   ar
  1581  1230  1231    2
  1582  1238  1237    1
  1583   472   474    1
  1584   472   470    1
  1585   247   261    1
  1586   265   270    1
  1587   265   264    1
  1588  1148  1170    2
  1589  1148  1169    1
  1590   507   504   ar
  1591  1280  1264    1
  1592  1280  1298    1
  1593   313   312    2
  1594  1263  1264    1
  1595  1263  1261    1
  1596   474   476    1
  1597   270   268    1
  1598   504   505   ar
  1599   291   298   ar
  1600   291   290    1
  1601   314   312   ar
  1602   314   315   ar
  1603   501   500   ar
  1604  1114  1128    1
  1605   312   311   ar
  1606  1262  1261    1
  1607  1279  1258    2
  1608  1108  1094    1
  1609  1108  1126    1
  1610   316   315    2
  1611  1091  1093    1
  1612  1091  1092    1
  1613  1147  1128    2
  1614   470   468    1
  1615   470   471    1
  1616   315   317   ar
  1617   505   500   ar
  1618   505   506    1
  1619  1245  1240    1
  1620  1245  1243    1
  1621  1128  1146    1
  1622  1093  1094    1
  1623  1093  1095    1
  1624   280   261    2
  1625   468   469    1
  1626   264   262    1
  1627   264   266    1
  1628  1260  1258    1
  1629  1260  1259    1
  1630   333   332    2
  1631   261   263    1
  1632   261   279    1
  1633   311   310    1
  1634   311   318   ar
  1635  1240  1239    1
  1636  1237  1239    1
  1637  1261  1259    1
  1638   262   263    1
  1639  1243  1241    1
  1640  1243  1244    1
  1641  1241  1239    1
  1642  1241  1242    1
  1643   310   305    1
  1644   310   308    1
  1645   290   285    1
  1646   290   288    1
  1647   317   318   ar
  1648   268   266    1
  1649   268   269    1
  1650   476   471    1
  1651   476   487    1
  1652  1258  1242    1
  1653  1258  1278    1
  1654   332   334   ar
  1655   332   331   ar
  1656  1095  1096    1
  1657  1095  1097    1
  1658   469   467    1
  1659   334   335   ar
  1660   309   308    1
  1661  1092  1097    1
  1662   305   304    1
  1663   480   478   ar
  1664   480   481   ar
  1665   330   331    1
  1666   330   325    1
  1667   330   328    1
  1668   479   478    1
  1669   488   467    2
  1670   266   267    1
  1671   331   338   ar
  1672   285   284    1
  1673   487   481   ar
  1674   487   486   ar
  1675   308   306    1
  1676   478   477   ar
  1677   329   328    1
  1678   481   482   ar
  1679   267   281    1
  1680   288   289    1
  1681   288   286    1
  1682   325   324    1
  1683   335   336    2
  1684   335   337   ar
  1685   353   352    2
  1686   486   485   ar
  1687  1097  1098    1
  1688  1105  1104   ar
  1689  1105  1098   ar
  1690   467   489    1
  1691   467   453    1
  1692   338   337   ar
  1693   477   483   ar
  1694   482   485   ar
  1695   482   483   ar
  1696   328   326    1
  1697   352   354   ar
  1698   352   351   ar
  1699   304   306    1
  1700   304   302    1
  1701   350   345    1
  1702   350   351    1
  1703   350   348    1
  1704  1104  1102   ar
  1705   299   281    2
  1706   483   484    2
  1707   345   344    1
  1708  1098  1099   ar
  1709   349   348    1
  1710   286   284    1
  1711   286   287    1
  1712   324   326    1
  1713   324   322    1
  1714   354   355   ar
  1715   306   307    1
  1716   284   282    1
  1717   351   358   ar
  1718   281   283    1
  1719   281   300    1
  1720   283   282    1
  1721   453   452    1
  1722   303   302    1
  1723   303   301    1
  1724   326   327    1
  1725   348   346    1
  1726   355   356    1
  1727   355   357   ar
  1728   344   342    1
  1729   344   346    1
  1730   358   357   ar
  1731   322   323    1
  1732   307   321    1
  1733  1102  1103    2
  1734  1102  1101   ar
  1735   287   301    1
  1736   455   454    1
  1737  1099  1101   ar
  1738  1099  1100    2
  1739   323   321    1
  1740   454   452    1
  1741   454   456    1
  1742   452   450    1
  1743   342   343    1
  1744   327   341    1
  1745   320   301    2
  1746   346   347    1
  1747   376   375    2
  1748   301   319    1
  1749   459   458    2
  1750   321   340    2
  1751   321   339    1
  1752   343   341    1
  1753   347   361    1
  1754   375   377   ar
  1755   375   374   ar
  1756   458   460   ar
  1757   458   457   ar
  1758   460   461   ar
  1759   377   378   ar
  1760   341   360    2
  1761   341   359    1
  1762   456   457    1
  1763   456   451    1
  1764   450   448    1
  1765   450   451    1
  1766   457   464   ar
  1767   461   462    2
  1768   461   463   ar
  1769   374   372   ar
  1770   464   463   ar
  1771   449   448    1
  1772   449   447    1
  1773   379   361    2
  1774   378   371   ar
  1775   361   380    1
  1776   361   363    1
  1777   465   447    2
  1778   372   371   ar
  1779   372   373    2
  1780   466   447    1
  1781   371   370    1
  1782   447   430    1
  1783   369   368    1
  1784   363   362    1
  1785   368   370    1
  1786   368   366    1
  1787   441   440    2
  1788   436   435    1
  1789   434   440   ar
  1790   434   435   ar
  1791   370   365    1
  1792   440   439   ar
  1793   435   437   ar
  1794   430   429    1
  1795   365   364    1
  1796   362   364    1
  1797   366   364    1
  1798   366   367    1
  1799   439   438   ar
  1800   439   442   ar
  1801   437   438   ar
  1802   429   431    1
  1803   429   427    1
  1804   438   444   ar
  1805   431   432    1
  1806   431   433    1
  1807   442   443   ar
  1808   446   424    2
  1809   367   381    1
  1810   444   443   ar
  1811   444   433    1
  1812   445   424    1
  1813   426   424    1
  1814   426   425    1
  1815   403   381    2
  1816   424   410    1
  1817   423   404    2
  1818   427   425    1
  1819   427   428    1
  1820   433   428    1
  1821   381   402    1
  1822   381   383    1
  1823   422   404    1
  1824   404   406    1
  1825   404   387    1
  1826   419   418    1
  1827   410   409    1
  1828   383   382    1
  1829   418   420   ar
  1830   418   417   ar
  1831   420   421   ar
  1832   406   405    1
  1833   409   411    1
  1834   409   407    1
  1835   387   386    1
  1836   382   384    1
  1837   417   415   ar
  1838   421   414   ar
  1839   405   407    1
  1840   386   384    1
  1841   386   388    1
  1842   411   412    1
  1843   411   413    1
  1844   415   414   ar
  1845   415   416    2
  1846   414   413    1
  1847   399   400   ar
  1848   399   396   ar
  1849   407   408    1
  1850   398   397    2
  1851   384   385    1
  1852   400   401   ar
  1853   413   408    1
  1854   396   397   ar
  1855   396   395   ar
  1856   397   391   ar
  1857   388   390    1
  1858   388   389    1
  1859   401   395   ar
  1860   401   390    1
  1861   385   390    1
  1862   395   394   ar
  1863   391   392   ar
  1864   394   392   ar
  1865   392   393    1
