ligand
 OpenBabel11021811443D
libRbt.so/2013.1/901 2013/11/27
 22 23  0  0  0  0  0  0  0  0999 V2000
   17.1997   39.8000   63.7759 C   0  0  0  0  0  0  0  0  0  0  0  0
   24.0203   40.9155   64.7452 C   0  0  0  0  0  0  0  0  0  0  0  0
   29.7710   39.4228   66.4827 P   0  0  1  0  0  0  0  0  0  0  0  0
   18.9958   39.3729   65.2974 N   0  0  0  0  0  0  0  0  0  0  0  0
   29.4445   40.8713   66.4437 O   0  0  0  0  0  0  0  0  0  0  0  0
   24.3421   38.6586   68.0632 S   0  0  0  0  0  0  0  0  0  0  0  0
   23.0364   39.7158   68.0588 C   0  0  0  0  0  0  0  0  0  0  0  0
   18.3837   40.2953   64.4765 C   0  0  0  0  0  0  0  0  0  0  0  0
   30.7757   38.9986   65.4738 O   0  5  0  0  0  0  0  0  0  0  0  0
   22.9100   40.4814   66.9538 N   0  0  0  0  0  0  0  0  0  0  0  0
   18.8153   41.5165   64.3085 N   0  0  0  0  0  0  0  0  0  0  0  0
   30.1156   39.0010   67.8780 O   0  0  0  0  0  0  0  0  0  0  0  0
   23.9386   40.1899   66.0559 C   0  0  2  0  0  0  0  0  0  0  0  0
   19.9446   41.9556   64.9919 C   0  0  0  0  0  0  0  0  0  0  0  0
   20.3800   43.1964   64.7938 N   0  0  0  0  0  0  0  0  0  0  0  0
   24.8209   39.2270   66.4856 C   0  0  1  0  0  0  0  0  0  0  0  0
   20.6173   41.0483   65.9069 C   0  0  0  0  0  0  0  0  0  0  0  0
   26.0219   38.7082   65.7800 C   0  0  0  0  0  0  0  0  0  0  0  0
   20.0997   39.7707   65.9793 C   0  0  0  0  0  0  0  0  0  0  0  0
   27.2026   38.6769   66.6763 C   0  0  0  0  0  0  0  0  0  0  0  0
   21.7786   41.5113   66.7657 C   0  0  0  0  0  0  0  0  0  0  0  0
   28.4864   38.6188   66.0535 O   0  0  0  0  0  0  0  0  0  0  0  0
  1  8  1  0  0  0  0
  3  5  1  6  0  0  0
  3  9  1  0  0  0  0
  3 12  2  0  0  0  0
  3 22  1  0  0  0  0
  4  8  2  0  0  0  0
  4 19  1  0  0  0  0
  6 16  1  0  0  0  0
  6  7  1  0  0  0  0
  7 10  1  0  0  0  0
  8 11  1  0  0  0  0
 10 13  1  0  0  0  0
 10 21  1  0  0  0  0
 11 14  2  0  0  0  0
 13  2  1  1  0  0  0
 13 16  1  0  0  0  0
 14 15  1  0  0  0  0
 14 17  1  0  0  0  0
 16 18  1  1  0  0  0
 17 19  2  0  0  0  0
 17 21  1  0  0  0  0
 18 20  1  0  0  0  0
 20 22  1  0  0  0  0
M  CHG  1   9  -1
M  END
>  <CHROM.1>
-99.75124604,-47.49941934,-142.33725279,-160.49560884,138.15896689,-57.52587990
24.23659825,39.95476722,66.11171800,-2.92551220,-0.00132830,2.35032419

>  <Name>
ligand

>  <RI>
0

>  <Rbt.Current_Directory>
/home/itssahil/PROJECTS/Mol_Feturizer/New_Systems/rnas/2HOM

>  <Rbt.Executable>
rbdock ($Id: //depot/dev/client3/rdock/2013.1/src/exe/rbdock.cxx#4 $)

>  <Rbt.Library>
libRbt.so (2013.1, Build901 2013/11/27)

>  <Rbt.Parameter_File>
/export/apps/rDock/src/rDock_2013.1_src/data/scripts/dock_solv.prm

>  <Rbt.Receptor>
prm/pocket_docking_2.prm

>  <SCORE>
-18.4654

>  <SCORE.INTER>
-22.4207

>  <SCORE.INTER.CONST>
1

>  <SCORE.INTER.POLAR>
-1.63459

>  <SCORE.INTER.ROT>
6

>  <SCORE.INTER.SOLV>
20.9024

>  <SCORE.INTER.VDW>
-24.066

>  <SCORE.INTER.norm>
-1.01912

>  <SCORE.INTRA>
3.95536

>  <SCORE.INTRA.DIHEDRAL>
6.98259

>  <SCORE.INTRA.DIHEDRAL.0>
5.05013

>  <SCORE.INTRA.POLAR>
0

>  <SCORE.INTRA.POLAR.0>
0

>  <SCORE.INTRA.REPUL>
0

>  <SCORE.INTRA.REPUL.0>
0

>  <SCORE.INTRA.SOLV>
0.494654

>  <SCORE.INTRA.SOLV.lig_0>
-54.1265

>  <SCORE.INTRA.VDW>
0.216735

>  <SCORE.INTRA.VDW.0>
-2.1303

>  <SCORE.INTRA.norm>
0.179789

>  <SCORE.RESTR>
0

>  <SCORE.RESTR.CAVITY>
0

>  <SCORE.RESTR.norm>
0

>  <SCORE.SYSTEM>
0

>  <SCORE.SYSTEM.CONST>
0

>  <SCORE.SYSTEM.DIHEDRAL>
0

>  <SCORE.SYSTEM.SOLV>
0

>  <SCORE.SYSTEM.norm>
0

>  <SCORE.heavy>
22

>  <SCORE.norm>
-0.839334

>  <RMSD>
0.596

$$$$
ligand
 OpenBabel11021811443D
libRbt.so/2013.1/901 2013/11/27
 22 23  0  0  0  0  0  0  0  0999 V2000
   17.6274   40.1603   64.3143 C   0  0  0  0  0  0  0  0  0  0  0  0
   24.4674   40.5236   64.8288 C   0  0  0  0  0  0  0  0  0  0  0  0
   29.5015   40.3784   66.7457 P   0  0  1  0  0  0  0  0  0  0  0  0
   19.6076   39.5649   65.5173 N   0  0  0  0  0  0  0  0  0  0  0  0
   29.2132   41.6063   65.9612 O   0  0  0  0  0  0  0  0  0  0  0  0
   24.8402   38.5114   68.2956 S   0  0  0  0  0  0  0  0  0  0  0  0
   23.6706   39.7174   68.3076 C   0  0  0  0  0  0  0  0  0  0  0  0
   18.8801   40.5825   64.9390 C   0  0  0  0  0  0  0  0  0  0  0  0
   30.5035   39.4779   66.1194 O   0  5  0  0  0  0  0  0  0  0  0  0
   23.5291   40.4037   67.1535 N   0  0  0  0  0  0  0  0  0  0  0  0
   19.2641   41.8309   64.9231 N   0  0  0  0  0  0  0  0  0  0  0  0
   29.8228   40.7279   68.1664 O   0  0  0  0  0  0  0  0  0  0  0  0
   24.4274   39.9185   66.2013 C   0  0  2  0  0  0  0  0  0  0  0  0
   20.4615   42.1983   65.5283 C   0  0  0  0  0  0  0  0  0  0  0  0
   20.8450   43.4709   65.4858 N   0  0  0  0  0  0  0  0  0  0  0  0
   25.2296   38.8911   66.6387 C   0  0  1  0  0  0  0  0  0  0  0  0
   21.2606   41.1828   66.1940 C   0  0  0  0  0  0  0  0  0  0  0  0
   26.2903   38.1750   65.8829 C   0  0  0  0  0  0  0  0  0  0  0  0
   20.7804   39.8909   66.1173 C   0  0  0  0  0  0  0  0  0  0  0  0
   27.4565   39.0537   65.6260 C   0  0  0  0  0  0  0  0  0  0  0  0
   22.5113   41.5469   66.9710 C   0  0  0  0  0  0  0  0  0  0  0  0
   28.2001   39.4913   66.7639 O   0  0  0  0  0  0  0  0  0  0  0  0
  1  8  1  0  0  0  0
  3  5  1  6  0  0  0
  3  9  1  0  0  0  0
  3 12  2  0  0  0  0
  3 22  1  0  0  0  0
  4  8  2  0  0  0  0
  4 19  1  0  0  0  0
  6 16  1  0  0  0  0
  6  7  1  0  0  0  0
  7 10  1  0  0  0  0
  8 11  1  0  0  0  0
 10 13  1  0  0  0  0
 10 21  1  0  0  0  0
 11 14  2  0  0  0  0
 13  2  1  1  0  0  0
 13 16  1  0  0  0  0
 14 15  1  0  0  0  0
 14 17  1  0  0  0  0
 16 18  1  1  0  0  0
 17 19  2  0  0  0  0
 17 21  1  0  0  0  0
 18 20  1  0  0  0  0
 20 22  1  0  0  0  0
M  CHG  1   9  -1
M  END
>  <CHROM.1>
-102.86502446,-110.39546005,-157.43884821,65.36673363,177.51792955,53.63781488
24.52417301,40.23692264,66.35041100,2.98010888,-0.07977732,-0.48537127

>  <Name>
ligand

>  <RI>
0

>  <Rbt.Current_Directory>
/home/itssahil/PROJECTS/Mol_Feturizer/New_Systems/rnas/2HOM

>  <Rbt.Executable>
rbdock ($Id: //depot/dev/client3/rdock/2013.1/src/exe/rbdock.cxx#4 $)

>  <Rbt.Library>
libRbt.so (2013.1, Build901 2013/11/27)

>  <Rbt.Parameter_File>
/export/apps/rDock/src/rDock_2013.1_src/data/scripts/dock_solv.prm

>  <Rbt.Receptor>
prm/pocket_docking_2.prm

>  <SCORE>
-19.1147

>  <SCORE.INTER>
-18.7404

>  <SCORE.INTER.CONST>
1

>  <SCORE.INTER.POLAR>
-1.16894

>  <SCORE.INTER.ROT>
6

>  <SCORE.INTER.SOLV>
18.041

>  <SCORE.INTER.VDW>
-22.2108

>  <SCORE.INTER.norm>
-0.851838

>  <SCORE.INTRA>
-0.391674

>  <SCORE.INTRA.DIHEDRAL>
-0.35891

>  <SCORE.INTRA.DIHEDRAL.0>
5.05013

>  <SCORE.INTRA.POLAR>
0

>  <SCORE.INTRA.POLAR.0>
0

>  <SCORE.INTRA.REPUL>
0

>  <SCORE.INTRA.REPUL.0>
0

>  <SCORE.INTRA.SOLV>
0.0173033

>  <SCORE.INTRA.SOLV.lig_0>
-54.1265

>  <SCORE.INTRA.VDW>
-0.220871

>  <SCORE.INTRA.VDW.0>
-2.1303

>  <SCORE.INTRA.norm>
-0.0178034

>  <SCORE.RESTR>
0.0173907

>  <SCORE.RESTR.CAVITY>
0.0173907

>  <SCORE.RESTR.norm>
0.000790488

>  <SCORE.SYSTEM>
0

>  <SCORE.SYSTEM.CONST>
0

>  <SCORE.SYSTEM.DIHEDRAL>
0

>  <SCORE.SYSTEM.SOLV>
0

>  <SCORE.SYSTEM.norm>
0

>  <SCORE.heavy>
22

>  <SCORE.norm>
-0.868851

>  <RMSD>
0.809

$$$$
ligand
 OpenBabel11021811443D
libRbt.so/2013.1/901 2013/11/27
 22 23  0  0  0  0  0  0  0  0999 V2000
   17.6536   40.2306   64.2992 C   0  0  0  0  0  0  0  0  0  0  0  0
   24.4866   40.5281   64.8566 C   0  0  0  0  0  0  0  0  0  0  0  0
   29.5795   40.0576   66.9243 P   0  0  1  0  0  0  0  0  0  0  0  0
   19.6296   39.5685   65.4741 N   0  0  0  0  0  0  0  0  0  0  0  0
   29.8387   40.8374   65.6869 O   0  0  0  0  0  0  0  0  0  0  0  0
   24.8412   38.3598   68.2299 S   0  0  0  0  0  0  0  0  0  0  0  0
   23.6785   39.5708   68.2943 C   0  0  0  0  0  0  0  0  0  0  0  0
   18.9053   40.6168   64.9490 C   0  0  0  0  0  0  0  0  0  0  0  0
   30.4364   38.8532   67.0746 O   0  5  0  0  0  0  0  0  0  0  0  0
   23.5432   40.3092   67.1719 N   0  0  0  0  0  0  0  0  0  0  0  0
   19.2912   41.8635   65.0008 N   0  0  0  0  0  0  0  0  0  0  0  0
   29.6009   40.9552   68.1232 O   0  0  0  0  0  0  0  0  0  0  0  0
   24.4405   39.8621   66.2003 C   0  0  2  0  0  0  0  0  0  0  0  0
   20.4874   42.1962   65.6280 C   0  0  0  0  0  0  0  0  0  0  0  0
   20.8730   43.4685   65.6545 N   0  0  0  0  0  0  0  0  0  0  0  0
   25.2359   38.8114   66.5923 C   0  0  1  0  0  0  0  0  0  0  0  0
   21.2832   41.1453   66.2407 C   0  0  0  0  0  0  0  0  0  0  0  0
   26.2939   38.1239   65.8068 C   0  0  0  0  0  0  0  0  0  0  0  0
   20.8013   39.8601   66.0939 C   0  0  0  0  0  0  0  0  0  0  0  0
   27.4857   38.9888   65.6343 C   0  0  0  0  0  0  0  0  0  0  0  0
   22.5323   41.4653   67.0394 C   0  0  0  0  0  0  0  0  0  0  0  0
   28.1323   39.4443   66.8233 O   0  0  0  0  0  0  0  0  0  0  0  0
  1  8  1  0  0  0  0
  3  5  1  6  0  0  0
  3  9  1  0  0  0  0
  3 12  2  0  0  0  0
  3 22  1  0  0  0  0
  4  8  2  0  0  0  0
  4 19  1  0  0  0  0
  6 16  1  0  0  0  0
  6  7  1  0  0  0  0
  7 10  1  0  0  0  0
  8 11  1  0  0  0  0
 10 13  1  0  0  0  0
 10 21  1  0  0  0  0
 11 14  2  0  0  0  0
 13  2  1  1  0  0  0
 13 16  1  0  0  0  0
 14 15  1  0  0  0  0
 14 17  1  0  0  0  0
 16 18  1  1  0  0  0
 17 19  2  0  0  0  0
 17 21  1  0  0  0  0
 18 20  1  0  0  0  0
 20 22  1  0  0  0  0
M  CHG  1   9  -1
M  END
>  <CHROM.1>
-103.06757172,-108.30700327,-157.85936320,58.79811337,163.91067121,34.28110756
24.55636992,40.11745005,66.40567487,2.95359013,-0.08624564,-0.42767057

>  <Name>
ligand

>  <RI>
0

>  <Rbt.Current_Directory>
/home/itssahil/PROJECTS/Mol_Feturizer/New_Systems/rnas/2HOM

>  <Rbt.Executable>
rbdock ($Id: //depot/dev/client3/rdock/2013.1/src/exe/rbdock.cxx#4 $)

>  <Rbt.Library>
libRbt.so (2013.1, Build901 2013/11/27)

>  <Rbt.Parameter_File>
/export/apps/rDock/src/rDock_2013.1_src/data/scripts/dock_solv.prm

>  <Rbt.Receptor>
prm/pocket_docking_2.prm

>  <SCORE>
-25.6179

>  <SCORE.INTER>
-26.2022

>  <SCORE.INTER.CONST>
1

>  <SCORE.INTER.POLAR>
-2.80827

>  <SCORE.INTER.ROT>
6

>  <SCORE.INTER.SOLV>
19.2515

>  <SCORE.INTER.VDW>
-22.1244

>  <SCORE.INTER.norm>
-1.19101

>  <SCORE.INTRA>
0.583728

>  <SCORE.INTRA.DIHEDRAL>
1.6185

>  <SCORE.INTRA.DIHEDRAL.0>
5.05013

>  <SCORE.INTRA.POLAR>
0

>  <SCORE.INTRA.POLAR.0>
0

>  <SCORE.INTRA.REPUL>
0

>  <SCORE.INTRA.REPUL.0>
0

>  <SCORE.INTRA.SOLV>
-0.0651534

>  <SCORE.INTRA.SOLV.lig_0>
-54.1265

>  <SCORE.INTRA.VDW>
-0.192946

>  <SCORE.INTRA.VDW.0>
-2.1303

>  <SCORE.INTRA.norm>
0.0265331

>  <SCORE.RESTR>
0.000587049

>  <SCORE.RESTR.CAVITY>
0.000587049

>  <SCORE.RESTR.norm>
2.6684e-05

>  <SCORE.SYSTEM>
0

>  <SCORE.SYSTEM.CONST>
0

>  <SCORE.SYSTEM.DIHEDRAL>
0

>  <SCORE.SYSTEM.SOLV>
0

>  <SCORE.SYSTEM.norm>
0

>  <SCORE.heavy>
22

>  <SCORE.norm>
-1.16445

>  <RMSD>
0.850

$$$$
ligand
 OpenBabel11021811443D
libRbt.so/2013.1/901 2013/11/27
 22 23  0  0  0  0  0  0  0  0999 V2000
   17.1960   39.9681   63.8153 C   0  0  0  0  0  0  0  0  0  0  0  0
   24.7684   41.1857   65.3882 C   0  0  0  0  0  0  0  0  0  0  0  0
   29.9992   40.0562   66.9277 P   0  0  1  0  0  0  0  0  0  0  0  0
   19.0744   39.3326   65.1535 N   0  0  0  0  0  0  0  0  0  0  0  0
   29.6362   40.9266   68.0752 O   0  0  0  0  0  0  0  0  0  0  0  0
   24.0706   37.8825   67.5811 S   0  0  0  0  0  0  0  0  0  0  0  0
   22.8083   38.9911   67.5627 C   0  0  0  0  0  0  0  0  0  0  0  0
   18.4306   40.3578   64.4949 C   0  0  0  0  0  0  0  0  0  0  0  0
   30.2308   40.7904   65.6570 O   0  5  0  0  0  0  0  0  0  0  0  0
   23.0222   40.1059   66.8317 N   0  0  0  0  0  0  0  0  0  0  0  0
   18.8748   41.5853   64.4529 N   0  0  0  0  0  0  0  0  0  0  0  0
   31.1261   39.1422   67.2995 O   0  0  0  0  0  0  0  0  0  0  0  0
   24.2908   40.0550   66.2510 C   0  0  2  0  0  0  0  0  0  0  0  0
   20.0526   41.9221   65.1118 C   0  0  0  0  0  0  0  0  0  0  0  0
   20.4990   43.1728   65.0422 N   0  0  0  0  0  0  0  0  0  0  0  0
   25.0138   38.9239   66.5479 C   0  0  1  0  0  0  0  0  0  0  0  0
   20.7631   40.8994   65.8618 C   0  0  0  0  0  0  0  0  0  0  0  0
   26.3900   38.5772   66.1062 C   0  0  0  0  0  0  0  0  0  0  0  0
   20.2261   39.6289   65.8075 C   0  0  0  0  0  0  0  0  0  0  0  0
   27.3838   39.5468   66.6263 C   0  0  0  0  0  0  0  0  0  0  0  0
   21.9843   41.2374   66.6953 C   0  0  0  0  0  0  0  0  0  0  0  0
   28.7556   39.1522   66.5853 O   0  0  0  0  0  0  0  0  0  0  0  0
  1  8  1  0  0  0  0
  3  5  1  1  0  0  0
  3  9  1  0  0  0  0
  3 12  2  0  0  0  0
  3 22  1  0  0  0  0
  4  8  2  0  0  0  0
  4 19  1  0  0  0  0
  6 16  1  0  0  0  0
  6  7  1  0  0  0  0
  7 10  1  0  0  0  0
  8 11  1  0  0  0  0
 10 13  1  0  0  0  0
 10 21  1  0  0  0  0
 11 14  2  0  0  0  0
 13  2  1  1  0  0  0
 13 16  1  0  0  0  0
 14 15  1  0  0  0  0
 14 17  1  0  0  0  0
 16 18  1  1  0  0  0
 17 19  2  0  0  0  0
 17 21  1  0  0  0  0
 18 20  1  0  0  0  0
 20 22  1  0  0  0  0
M  CHG  1   9  -1
M  END
>  <CHROM.1>
-70.88665228,-116.43010590,-150.02694517,163.84791401,172.84866663,37.87384281
24.38126277,40.03111079,66.22290303,2.99313049,-0.13133190,-0.42609620

>  <Name>
ligand

>  <RI>
0

>  <Rbt.Current_Directory>
/home/itssahil/PROJECTS/Mol_Feturizer/New_Systems/rnas/2HOM

>  <Rbt.Executable>
rbdock ($Id: //depot/dev/client3/rdock/2013.1/src/exe/rbdock.cxx#4 $)

>  <Rbt.Library>
libRbt.so (2013.1, Build901 2013/11/27)

>  <Rbt.Parameter_File>
/export/apps/rDock/src/rDock_2013.1_src/data/scripts/dock_solv.prm

>  <Rbt.Receptor>
prm/pocket_docking_2.prm

>  <SCORE>
-23.2423

>  <SCORE.INTER>
-24.3868

>  <SCORE.INTER.CONST>
1

>  <SCORE.INTER.POLAR>
-2.53608

>  <SCORE.INTER.ROT>
6

>  <SCORE.INTER.SOLV>
23.5563

>  <SCORE.INTER.VDW>
-23.2564

>  <SCORE.INTER.norm>
-1.10849

>  <SCORE.INTRA>
1.11838

>  <SCORE.INTRA.DIHEDRAL>
1.32856

>  <SCORE.INTRA.DIHEDRAL.0>
5.05013

>  <SCORE.INTRA.POLAR>
0

>  <SCORE.INTRA.POLAR.0>
0

>  <SCORE.INTRA.REPUL>
0

>  <SCORE.INTRA.REPUL.0>
0

>  <SCORE.INTRA.SOLV>
-0.00604192

>  <SCORE.INTRA.SOLV.lig_0>
-54.1265

>  <SCORE.INTRA.VDW>
0.457118

>  <SCORE.INTRA.VDW.0>
-2.1303

>  <SCORE.INTRA.norm>
0.0508353

>  <SCORE.RESTR>
0.0261395

>  <SCORE.RESTR.CAVITY>
0.0261395

>  <SCORE.RESTR.norm>
0.00118816

>  <SCORE.SYSTEM>
0

>  <SCORE.SYSTEM.CONST>
0

>  <SCORE.SYSTEM.DIHEDRAL>
0

>  <SCORE.SYSTEM.SOLV>
0

>  <SCORE.SYSTEM.norm>
0

>  <SCORE.heavy>
22

>  <SCORE.norm>
-1.05647

>  <RMSD>
0.853

$$$$
ligand
 OpenBabel11021811443D
libRbt.so/2013.1/901 2013/11/27
 22 23  0  0  0  0  0  0  0  0999 V2000
   17.3304   40.1147   63.8961 C   0  0  0  0  0  0  0  0  0  0  0  0
   23.9194   40.4249   64.6126 C   0  0  0  0  0  0  0  0  0  0  0  0
   29.2682   39.4532   67.0775 P   0  0  1  0  0  0  0  0  0  0  0  0
   19.1443   39.4410   65.3030 N   0  0  0  0  0  0  0  0  0  0  0  0
   29.8880   40.6941   66.5460 O   0  0  0  0  0  0  0  0  0  0  0  0
   24.5748   38.2788   67.9550 S   0  0  0  0  0  0  0  0  0  0  0  0
   23.3655   39.4371   68.0918 C   0  0  0  0  0  0  0  0  0  0  0  0
   18.5544   40.4758   64.6098 C   0  0  0  0  0  0  0  0  0  0  0  0
   29.9836   38.2068   66.7009 O   0  5  0  0  0  0  0  0  0  0  0  0
   23.1295   40.1672   66.9808 N   0  0  0  0  0  0  0  0  0  0  0  0
   19.0381   41.6883   64.5654 N   0  0  0  0  0  0  0  0  0  0  0  0
   29.0268   39.5777   68.5505 O   0  0  0  0  0  0  0  0  0  0  0  0
   23.9849   39.7592   65.9557 C   0  0  2  0  0  0  0  0  0  0  0  0
   20.2043   41.9980   65.2574 C   0  0  0  0  0  0  0  0  0  0  0  0
   20.6919   43.2331   65.1851 N   0  0  0  0  0  0  0  0  0  0  0  0
   24.8485   38.7454   66.2971 C   0  0  1  0  0  0  0  0  0  0  0  0
   20.8580   40.9650   66.0439 C   0  0  0  0  0  0  0  0  0  0  0  0
   25.8862   38.1045   65.4476 C   0  0  0  0  0  0  0  0  0  0  0  0
   20.2832   39.7110   65.9898 C   0  0  0  0  0  0  0  0  0  0  0  0
   27.1904   38.0348   66.1494 C   0  0  0  0  0  0  0  0  0  0  0  0
   22.0620   41.2772   66.9118 C   0  0  0  0  0  0  0  0  0  0  0  0
   27.8648   39.2711   66.3860 O   0  0  0  0  0  0  0  0  0  0  0  0
  1  8  1  0  0  0  0
  3  5  1  6  0  0  0
  3  9  1  0  0  0  0
  3 12  2  0  0  0  0
  3 22  1  0  0  0  0
  4  8  2  0  0  0  0
  4 19  1  0  0  0  0
  6 16  1  0  0  0  0
  6  7  1  0  0  0  0
  7 10  1  0  0  0  0
  8 11  1  0  0  0  0
 10 13  1  0  0  0  0
 10 21  1  0  0  0  0
 11 14  2  0  0  0  0
 13  2  1  1  0  0  0
 13 16  1  0  0  0  0
 14 15  1  0  0  0  0
 14 17  1  0  0  0  0
 16 18  1  1  0  0  0
 17 19  2  0  0  0  0
 17 21  1  0  0  0  0
 18 20  1  0  0  0  0
 20 22  1  0  0  0  0
M  CHG  1   9  -1
M  END
>  <CHROM.1>
-110.45947931,-48.53572242,-144.05213791,-68.58668507,-178.48089969,152.15707994
24.20430841,39.82407033,66.27424258,2.89914153,-0.11803232,-0.40269588

>  <Name>
ligand

>  <RI>
0

>  <Rbt.Current_Directory>
/home/itssahil/PROJECTS/Mol_Feturizer/New_Systems/rnas/2HOM

>  <Rbt.Executable>
rbdock ($Id: //depot/dev/client3/rdock/2013.1/src/exe/rbdock.cxx#4 $)

>  <Rbt.Library>
libRbt.so (2013.1, Build901 2013/11/27)

>  <Rbt.Parameter_File>
/export/apps/rDock/src/rDock_2013.1_src/data/scripts/dock_solv.prm

>  <Rbt.Receptor>
prm/pocket_docking_2.prm

>  <SCORE>
-22.9467

>  <SCORE.INTER>
-24.2987

>  <SCORE.INTER.CONST>
1

>  <SCORE.INTER.POLAR>
-1.63459

>  <SCORE.INTER.ROT>
6

>  <SCORE.INTER.SOLV>
16.2083

>  <SCORE.INTER.VDW>
-23.7533

>  <SCORE.INTER.norm>
-1.10449

>  <SCORE.INTRA>
1.35201

>  <SCORE.INTRA.DIHEDRAL>
1.35795

>  <SCORE.INTRA.DIHEDRAL.0>
5.05013

>  <SCORE.INTRA.POLAR>
0

>  <SCORE.INTRA.POLAR.0>
0

>  <SCORE.INTRA.REPUL>
0

>  <SCORE.INTRA.REPUL.0>
0

>  <SCORE.INTRA.SOLV>
0.994095

>  <SCORE.INTRA.SOLV.lig_0>
-54.1265

>  <SCORE.INTRA.VDW>
0.175987

>  <SCORE.INTRA.VDW.0>
-2.1303

>  <SCORE.INTRA.norm>
0.0614551

>  <SCORE.RESTR>
0

>  <SCORE.RESTR.CAVITY>
0

>  <SCORE.RESTR.norm>
0

>  <SCORE.SYSTEM>
0

>  <SCORE.SYSTEM.CONST>
0

>  <SCORE.SYSTEM.DIHEDRAL>
0

>  <SCORE.SYSTEM.SOLV>
0

>  <SCORE.SYSTEM.norm>
0

>  <SCORE.heavy>
22

>  <SCORE.norm>
-1.04303

>  <RMSD>
0.864

$$$$
ligand
 OpenBabel11021811443D
libRbt.so/2013.1/901 2013/11/27
 22 23  0  0  0  0  0  0  0  0999 V2000
   17.1945   39.7623   63.8690 C   0  0  0  0  0  0  0  0  0  0  0  0
   24.4124   41.3096   65.1106 C   0  0  0  0  0  0  0  0  0  0  0  0
   30.0203   39.8899   67.1522 P   0  0  1  0  0  0  0  0  0  0  0  0
   19.0267   39.3702   65.3563 N   0  0  0  0  0  0  0  0  0  0  0  0
   31.1412   39.7087   66.1946 O   0  0  0  0  0  0  0  0  0  0  0  0
   24.2029   38.5462   68.0306 S   0  0  0  0  0  0  0  0  0  0  0  0
   22.8816   39.5807   67.9486 C   0  0  0  0  0  0  0  0  0  0  0  0
   18.3875   40.2774   64.5392 C   0  0  0  0  0  0  0  0  0  0  0  0
   30.0983   39.0171   68.3519 O   0  5  0  0  0  0  0  0  0  0  0  0
   22.9320   40.5146   66.9748 N   0  0  0  0  0  0  0  0  0  0  0  0
   18.8024   41.5013   64.3495 N   0  0  0  0  0  0  0  0  0  0  0  0
   29.8434   41.3401   67.4831 O   0  0  0  0  0  0  0  0  0  0  0  0
   24.1184   40.3802   66.2512 C   0  0  2  0  0  0  0  0  0  0  0  0
   19.9410   41.9594   65.0042 C   0  0  0  0  0  0  0  0  0  0  0  0
   20.3587   43.2025   64.7842 N   0  0  0  0  0  0  0  0  0  0  0  0
   24.9420   39.3666   66.6808 C   0  0  1  0  0  0  0  0  0  0  0  0
   20.6426   41.0690   65.9141 C   0  0  0  0  0  0  0  0  0  0  0  0
   26.2708   38.9780   66.1400 C   0  0  0  0  0  0  0  0  0  0  0  0
   20.1404   39.7868   66.0105 C   0  0  0  0  0  0  0  0  0  0  0  0
   27.3714   39.5105   66.9787 C   0  0  0  0  0  0  0  0  0  0  0  0
   21.8168   41.5531   66.7432 C   0  0  0  0  0  0  0  0  0  0  0  0
   28.6951   39.4033   66.4536 O   0  0  0  0  0  0  0  0  0  0  0  0
  1  8  1  0  0  0  0
  3  5  1  6  0  0  0
  3  9  1  0  0  0  0
  3 12  2  0  0  0  0
  3 22  1  0  0  0  0
  4  8  2  0  0  0  0
  4 19  1  0  0  0  0
  6 16  1  0  0  0  0
  6  7  1  0  0  0  0
  7 10  1  0  0  0  0
  8 11  1  0  0  0  0
 10 13  1  0  0  0  0
 10 21  1  0  0  0  0
 11 14  2  0  0  0  0
 13  2  1  1  0  0  0
 13 16  1  0  0  0  0
 14 15  1  0  0  0  0
 14 17  1  0  0  0  0
 16 18  1  1  0  0  0
 17 19  2  0  0  0  0
 17 21  1  0  0  0  0
 18 20  1  0  0  0  0
 20 22  1  0  0  0  0
M  CHG  1   9  -1
M  END
>  <CHROM.1>
-83.22808344,-79.00757847,-145.16037750,-169.79405261,-179.88586953,-174.23367510
24.33556021,40.15186040,66.35928047,2.94801927,-0.11004228,-0.60713006

>  <Name>
ligand

>  <RI>
0

>  <Rbt.Current_Directory>
/home/itssahil/PROJECTS/Mol_Feturizer/New_Systems/rnas/2HOM

>  <Rbt.Executable>
rbdock ($Id: //depot/dev/client3/rdock/2013.1/src/exe/rbdock.cxx#4 $)

>  <Rbt.Library>
libRbt.so (2013.1, Build901 2013/11/27)

>  <Rbt.Parameter_File>
/export/apps/rDock/src/rDock_2013.1_src/data/scripts/dock_solv.prm

>  <Rbt.Receptor>
prm/pocket_docking_2.prm

>  <SCORE>
-25.2882

>  <SCORE.INTER>
-25.9157

>  <SCORE.INTER.CONST>
1

>  <SCORE.INTER.POLAR>
-2.81631

>  <SCORE.INTER.ROT>
6

>  <SCORE.INTER.SOLV>
23.4743

>  <SCORE.INTER.VDW>
-23.3142

>  <SCORE.INTER.norm>
-1.17799

>  <SCORE.INTRA>
0.618358

>  <SCORE.INTRA.DIHEDRAL>
0.265591

>  <SCORE.INTRA.DIHEDRAL.0>
5.05013

>  <SCORE.INTRA.POLAR>
0

>  <SCORE.INTRA.POLAR.0>
0

>  <SCORE.INTRA.REPUL>
0

>  <SCORE.INTRA.REPUL.0>
0

>  <SCORE.INTRA.SOLV>
0.905607

>  <SCORE.INTRA.SOLV.lig_0>
-54.1265

>  <SCORE.INTRA.VDW>
0.0327596

>  <SCORE.INTRA.VDW.0>
-2.1303

>  <SCORE.INTRA.norm>
0.0281072

>  <SCORE.RESTR>
0.00918663

>  <SCORE.RESTR.CAVITY>
0.00918663

>  <SCORE.RESTR.norm>
0.000417574

>  <SCORE.SYSTEM>
0

>  <SCORE.SYSTEM.CONST>
0

>  <SCORE.SYSTEM.DIHEDRAL>
0

>  <SCORE.SYSTEM.SOLV>
0

>  <SCORE.SYSTEM.norm>
0

>  <SCORE.heavy>
22

>  <SCORE.norm>
-1.14946

>  <RMSD>
0.868

$$$$
ligand
 OpenBabel11021811443D
libRbt.so/2013.1/901 2013/11/27
 22 23  0  0  0  0  0  0  0  0999 V2000
   17.0954   39.4326   63.7468 C   0  0  0  0  0  0  0  0  0  0  0  0
   24.7415   41.6921   65.5973 C   0  0  0  0  0  0  0  0  0  0  0  0
   29.8928   39.4900   66.4854 P   0  0  1  0  0  0  0  0  0  0  0  0
   19.2563   39.0465   64.6980 N   0  0  0  0  0  0  0  0  0  0  0  0
   31.0480   40.2861   65.9973 O   0  0  0  0  0  0  0  0  0  0  0  0
   24.1277   38.0142   67.1148 S   0  0  0  0  0  0  0  0  0  0  0  0
   22.7604   38.9893   67.0659 C   0  0  0  0  0  0  0  0  0  0  0  0
   18.2866   39.9781   64.3960 C   0  0  0  0  0  0  0  0  0  0  0  0
   29.4616   38.4126   65.5578 O   0  5  0  0  0  0  0  0  0  0  0  0
   22.9450   40.2271   66.5591 N   0  0  0  0  0  0  0  0  0  0  0  0
   18.4040   41.2548   64.6456 N   0  0  0  0  0  0  0  0  0  0  0  0
   30.1417   39.0077   67.8815 O   0  0  0  0  0  0  0  0  0  0  0  0
   24.2807   40.3921   66.1880 C   0  0  2  0  0  0  0  0  0  0  0  0
   19.5506   41.7400   65.2658 C   0  0  0  0  0  0  0  0  0  0  0  0
   19.6602   43.0453   65.4948 N   0  0  0  0  0  0  0  0  0  0  0  0
   25.0809   39.2981   66.4187 C   0  0  1  0  0  0  0  0  0  0  0  0
   20.5976   40.8078   65.6502 C   0  0  0  0  0  0  0  0  0  0  0  0
   26.5370   39.1593   66.1548 C   0  0  0  0  0  0  0  0  0  0  0  0
   20.3870   39.4880   65.3049 C   0  0  0  0  0  0  0  0  0  0  0  0
   27.3292   40.0838   67.0009 C   0  0  0  0  0  0  0  0  0  0  0  0
   21.8125   41.2653   66.4346 C   0  0  0  0  0  0  0  0  0  0  0  0
   28.6323   40.4333   66.5328 O   0  0  0  0  0  0  0  0  0  0  0  0
  1  8  1  0  0  0  0
  3  5  1  6  0  0  0
  3  9  1  0  0  0  0
  3 12  2  0  0  0  0
  3 22  1  0  0  0  0
  4  8  2  0  0  0  0
  4 19  1  0  0  0  0
  6 16  1  0  0  0  0
  6  7  1  0  0  0  0
  7 10  1  0  0  0  0
  8 11  1  0  0  0  0
 10 13  1  0  0  0  0
 10 21  1  0  0  0  0
 11 14  2  0  0  0  0
 13  2  1  1  0  0  0
 13 16  1  0  0  0  0
 14 15  1  0  0  0  0
 14 17  1  0  0  0  0
 16 18  1  1  0  0  0
 17 19  2  0  0  0  0
 17 21  1  0  0  0  0
 18 20  1  0  0  0  0
 20 22  1  0  0  0  0
M  CHG  1   9  -1
M  END
>  <CHROM.1>
-55.76567512,-114.66207132,-169.92886389,-157.01701911,-71.13734335,-176.97727452
24.27362266,39.92101266,66.02258070,3.02138485,-0.13654648,-0.15856279

>  <Name>
ligand

>  <RI>
0

>  <Rbt.Current_Directory>
/home/itssahil/PROJECTS/Mol_Feturizer/New_Systems/rnas/2HOM

>  <Rbt.Executable>
rbdock ($Id: //depot/dev/client3/rdock/2013.1/src/exe/rbdock.cxx#4 $)

>  <Rbt.Library>
libRbt.so (2013.1, Build901 2013/11/27)

>  <Rbt.Parameter_File>
/export/apps/rDock/src/rDock_2013.1_src/data/scripts/dock_solv.prm

>  <Rbt.Receptor>
prm/pocket_docking_2.prm

>  <SCORE>
-18.7265

>  <SCORE.INTER>
-21.0574

>  <SCORE.INTER.CONST>
1

>  <SCORE.INTER.POLAR>
-1.63459

>  <SCORE.INTER.ROT>
6

>  <SCORE.INTER.SOLV>
19.6746

>  <SCORE.INTER.VDW>
-22.7479

>  <SCORE.INTER.norm>
-0.957156

>  <SCORE.INTRA>
2.33091

>  <SCORE.INTRA.DIHEDRAL>
1.81929

>  <SCORE.INTRA.DIHEDRAL.0>
5.05013

>  <SCORE.INTRA.POLAR>
0

>  <SCORE.INTRA.POLAR.0>
0

>  <SCORE.INTRA.REPUL>
0

>  <SCORE.INTRA.REPUL.0>
0

>  <SCORE.INTRA.SOLV>
1.64456

>  <SCORE.INTRA.SOLV.lig_0>
-54.1265

>  <SCORE.INTRA.VDW>
0.598988

>  <SCORE.INTRA.VDW.0>
-2.1303

>  <SCORE.INTRA.norm>
0.10595

>  <SCORE.RESTR>
0

>  <SCORE.RESTR.CAVITY>
0

>  <SCORE.RESTR.norm>
0

>  <SCORE.SYSTEM>
0

>  <SCORE.SYSTEM.CONST>
0

>  <SCORE.SYSTEM.DIHEDRAL>
0

>  <SCORE.SYSTEM.SOLV>
0

>  <SCORE.SYSTEM.norm>
0

>  <SCORE.heavy>
22

>  <SCORE.norm>
-0.851206

>  <RMSD>
0.882

$$$$
ligand
 OpenBabel11021811443D
libRbt.so/2013.1/901 2013/11/27
 22 23  0  0  0  0  0  0  0  0999 V2000
   17.2279   39.2689   64.0607 C   0  0  0  0  0  0  0  0  0  0  0  0
   24.2067   42.0871   65.0121 C   0  0  0  0  0  0  0  0  0  0  0  0
   29.4269   38.9486   66.2993 P   0  0  1  0  0  0  0  0  0  0  0  0
   19.3828   39.2321   65.0992 N   0  0  0  0  0  0  0  0  0  0  0  0
   29.2467   40.4222   66.3482 O   0  0  0  0  0  0  0  0  0  0  0  0
   24.4327   39.2548   67.8640 S   0  0  0  0  0  0  0  0  0  0  0  0
   22.9694   40.0784   67.8087 C   0  0  0  0  0  0  0  0  0  0  0  0
   18.3268   40.0107   64.6773 C   0  0  0  0  0  0  0  0  0  0  0  0
   30.5298   38.5001   65.4107 O   0  5  0  0  0  0  0  0  0  0  0  0
   22.8730   41.0322   66.8579 N   0  0  0  0  0  0  0  0  0  0  0  0
   18.2923   41.3112   64.7934 N   0  0  0  0  0  0  0  0  0  0  0  0
   29.5136   38.3853   67.6846 O   0  0  0  0  0  0  0  0  0  0  0  0
   24.0625   41.0968   66.1300 C   0  0  2  0  0  0  0  0  0  0  0  0
   19.3547   41.9854   65.3864 C   0  0  0  0  0  0  0  0  0  0  0  0
   19.3099   43.3112   65.4789 N   0  0  0  0  0  0  0  0  0  0  0  0
   25.0324   40.2100   66.5339 C   0  0  1  0  0  0  0  0  0  0  0  0
   20.4845   41.2234   65.8922 C   0  0  0  0  0  0  0  0  0  0  0  0
   26.4022   40.0406   65.9823 C   0  0  0  0  0  0  0  0  0  0  0  0
   20.4348   39.8598   65.6832 C   0  0  0  0  0  0  0  0  0  0  0  0
   26.7918   38.6108   65.9352 C   0  0  0  0  0  0  0  0  0  0  0  0
   21.6120   41.8947   66.6530 C   0  0  0  0  0  0  0  0  0  0  0  0
   28.1535   38.3213   65.6169 O   0  0  0  0  0  0  0  0  0  0  0  0
  1  8  1  0  0  0  0
  3  5  1  1  0  0  0
  3  9  1  0  0  0  0
  3 12  2  0  0  0  0
  3 22  1  0  0  0  0
  4  8  2  0  0  0  0
  4 19  1  0  0  0  0
  6 16  1  0  0  0  0
  6  7  1  0  0  0  0
  7 10  1  0  0  0  0
  8 11  1  0  0  0  0
 10 13  1  0  0  0  0
 10 21  1  0  0  0  0
 11 14  2  0  0  0  0
 13  2  1  1  0  0  0
 13 16  1  0  0  0  0
 14 15  1  0  0  0  0
 14 17  1  0  0  0  0
 16 18  1  1  0  0  0
 17 19  2  0  0  0  0
 17 21  1  0  0  0  0
 18 20  1  0  0  0  0
 20 22  1  0  0  0  0
M  CHG  1   9  -1
M  END
>  <CHROM.1>
-79.32737790,39.13956166,-167.27039923,-170.81314605,50.70006777,-48.28246603
24.09254329,40.06991792,66.07820317,2.97326103,-0.14286758,0.16132291

>  <Name>
ligand

>  <RI>
0

>  <Rbt.Current_Directory>
/home/itssahil/PROJECTS/Mol_Feturizer/New_Systems/rnas/2HOM

>  <Rbt.Executable>
rbdock ($Id: //depot/dev/client3/rdock/2013.1/src/exe/rbdock.cxx#4 $)

>  <Rbt.Library>
libRbt.so (2013.1, Build901 2013/11/27)

>  <Rbt.Parameter_File>
/export/apps/rDock/src/rDock_2013.1_src/data/scripts/dock_solv.prm

>  <Rbt.Receptor>
prm/pocket_docking_2.prm

>  <SCORE>
-17.445

>  <SCORE.INTER>
-19.1396

>  <SCORE.INTER.CONST>
1

>  <SCORE.INTER.POLAR>
-1.62623

>  <SCORE.INTER.ROT>
6

>  <SCORE.INTER.SOLV>
21.1553

>  <SCORE.INTER.VDW>
-21.9907

>  <SCORE.INTER.norm>
-0.869983

>  <SCORE.INTRA>
1.67872

>  <SCORE.INTRA.DIHEDRAL>
0.771357

>  <SCORE.INTRA.DIHEDRAL.0>
5.05013

>  <SCORE.INTRA.POLAR>
0

>  <SCORE.INTRA.POLAR.0>
0

>  <SCORE.INTRA.REPUL>
0

>  <SCORE.INTRA.REPUL.0>
0

>  <SCORE.INTRA.SOLV>
0.582577

>  <SCORE.INTRA.SOLV.lig_0>
-54.1265

>  <SCORE.INTRA.VDW>
1.00175

>  <SCORE.INTRA.VDW.0>
-2.1303

>  <SCORE.INTRA.norm>
0.0763053

>  <SCORE.RESTR>
0.0159391

>  <SCORE.RESTR.CAVITY>
0.0159391

>  <SCORE.RESTR.norm>
0.000724506

>  <SCORE.SYSTEM>
0

>  <SCORE.SYSTEM.CONST>
0

>  <SCORE.SYSTEM.DIHEDRAL>
0

>  <SCORE.SYSTEM.SOLV>
0

>  <SCORE.SYSTEM.norm>
0

>  <SCORE.heavy>
22

>  <SCORE.norm>
-0.792953

>  <RMSD>
0.894

$$$$
ligand
 OpenBabel11021811443D
libRbt.so/2013.1/901 2013/11/27
 22 23  0  0  0  0  0  0  0  0999 V2000
   17.1789   40.0336   63.7510 C   0  0  0  0  0  0  0  0  0  0  0  0
   24.3154   41.1578   64.8282 C   0  0  0  0  0  0  0  0  0  0  0  0
   29.5288   39.1732   66.3140 P   0  0  1  0  0  0  0  0  0  0  0  0
   18.9652   39.2939   65.1599 N   0  0  0  0  0  0  0  0  0  0  0  0
   28.7768   40.4539   66.2905 O   0  0  0  0  0  0  0  0  0  0  0  0
   24.4632   37.8789   67.1592 S   0  0  0  0  0  0  0  0  0  0  0  0
   23.1436   38.8799   67.4407 C   0  0  0  0  0  0  0  0  0  0  0  0
   18.4131   40.3503   64.4683 C   0  0  0  0  0  0  0  0  0  0  0  0
   30.7282   39.1563   65.4374 O   0  5  0  0  0  0  0  0  0  0  0  0
   23.0750   39.9851   66.6680 N   0  0  0  0  0  0  0  0  0  0  0  0
   18.9386   41.5454   64.4281 N   0  0  0  0  0  0  0  0  0  0  0  0
   29.8183   38.7616   67.7248 O   0  0  0  0  0  0  0  0  0  0  0  0
   24.1628   40.0194   65.7936 C   0  0  2  0  0  0  0  0  0  0  0  0
   20.1134   41.8127   65.1233 C   0  0  0  0  0  0  0  0  0  0  0  0
   20.6436   43.0303   65.0554 N   0  0  0  0  0  0  0  0  0  0  0  0
   25.0315   38.9607   65.9150 C   0  0  1  0  0  0  0  0  0  0  0  0
   20.7291   40.7555   65.9084 C   0  0  0  0  0  0  0  0  0  0  0  0
   26.2828   38.7136   65.1518 C   0  0  0  0  0  0  0  0  0  0  0  0
   20.1114   39.5224   65.8498 C   0  0  0  0  0  0  0  0  0  0  0  0
   27.2234   37.8620   65.9190 C   0  0  0  0  0  0  0  0  0  0  0  0
   21.9414   41.0235   66.7797 C   0  0  0  0  0  0  0  0  0  0  0  0
   28.6172   38.0575   65.6776 O   0  0  0  0  0  0  0  0  0  0  0  0
  1  8  1  0  0  0  0
  3  5  1  6  0  0  0
  3  9  1  0  0  0  0
  3 12  2  0  0  0  0
  3 22  1  0  0  0  0
  4  8  2  0  0  0  0
  4 19  1  0  0  0  0
  6 16  1  0  0  0  0
  6  7  1  0  0  0  0
  7 10  1  0  0  0  0
  8 11  1  0  0  0  0
 10 13  1  0  0  0  0
 10 21  1  0  0  0  0
 11 14  2  0  0  0  0
 13  2  1  1  0  0  0
 13 16  1  0  0  0  0
 14 15  1  0  0  0  0
 14 17  1  0  0  0  0
 16 18  1  1  0  0  0
 17 19  2  0  0  0  0
 17 21  1  0  0  0  0
 18 20  1  0  0  0  0
 20 22  1  0  0  0  0
M  CHG  1   9  -1
M  END
>  <CHROM.1>
-89.30736902,-24.58114480,-134.38335171,-150.24099560,82.01783188,-43.10982331
24.26699577,39.67902278,65.86960935,2.92543524,-0.05023510,-0.40113483

>  <Name>
ligand

>  <RI>
0

>  <Rbt.Current_Directory>
/home/itssahil/PROJECTS/Mol_Feturizer/New_Systems/rnas/2HOM

>  <Rbt.Executable>
rbdock ($Id: //depot/dev/client3/rdock/2013.1/src/exe/rbdock.cxx#4 $)

>  <Rbt.Library>
libRbt.so (2013.1, Build901 2013/11/27)

>  <Rbt.Parameter_File>
/export/apps/rDock/src/rDock_2013.1_src/data/scripts/dock_solv.prm

>  <Rbt.Receptor>
prm/pocket_docking_2.prm

>  <SCORE>
-19.3137

>  <SCORE.INTER>
-22.9725

>  <SCORE.INTER.CONST>
1

>  <SCORE.INTER.POLAR>
-1.63059

>  <SCORE.INTER.ROT>
6

>  <SCORE.INTER.SOLV>
17.9512

>  <SCORE.INTER.VDW>
-23.4634

>  <SCORE.INTER.norm>
-1.0442

>  <SCORE.INTRA>
3.6588

>  <SCORE.INTRA.DIHEDRAL>
4.9616

>  <SCORE.INTRA.DIHEDRAL.0>
5.05013

>  <SCORE.INTRA.POLAR>
0

>  <SCORE.INTRA.POLAR.0>
0

>  <SCORE.INTRA.REPUL>
0

>  <SCORE.INTRA.REPUL.0>
0

>  <SCORE.INTRA.SOLV>
0.974972

>  <SCORE.INTRA.SOLV.lig_0>
-54.1265

>  <SCORE.INTRA.VDW>
0.690508

>  <SCORE.INTRA.VDW.0>
-2.1303

>  <SCORE.INTRA.norm>
0.166309

>  <SCORE.RESTR>
0

>  <SCORE.RESTR.CAVITY>
0

>  <SCORE.RESTR.norm>
0

>  <SCORE.SYSTEM>
0

>  <SCORE.SYSTEM.CONST>
0

>  <SCORE.SYSTEM.DIHEDRAL>
0

>  <SCORE.SYSTEM.SOLV>
0

>  <SCORE.SYSTEM.norm>
0

>  <SCORE.heavy>
22

>  <SCORE.norm>
-0.877893

>  <RMSD>
0.986

$$$$
ligand
 OpenBabel11021811443D
libRbt.so/2013.1/901 2013/11/27
 22 23  0  0  0  0  0  0  0  0999 V2000
   17.6368   40.2221   64.3207 C   0  0  0  0  0  0  0  0  0  0  0  0
   24.4446   40.5717   64.8855 C   0  0  0  0  0  0  0  0  0  0  0  0
   29.5294   40.0906   67.2310 P   0  0  1  0  0  0  0  0  0  0  0  0
   19.5847   39.6065   65.5658 N   0  0  0  0  0  0  0  0  0  0  0  0
   29.5576   40.7852   68.5436 O   0  0  0  0  0  0  0  0  0  0  0  0
   24.8427   38.5105   68.3206 S   0  0  0  0  0  0  0  0  0  0  0  0
   23.6681   39.7112   68.3559 C   0  0  0  0  0  0  0  0  0  0  0  0
   18.8850   40.6300   64.9639 C   0  0  0  0  0  0  0  0  0  0  0  0
   29.6427   40.9982   66.0602 O   0  5  0  0  0  0  0  0  0  0  0  0
   23.5181   40.4137   67.2127 N   0  0  0  0  0  0  0  0  0  0  0  0
   19.2902   41.8715   64.9423 N   0  0  0  0  0  0  0  0  0  0  0  0
   30.5213   38.9683   67.2108 O   0  0  0  0  0  0  0  0  0  0  0  0
   24.4138   39.9464   66.2491 C   0  0  2  0  0  0  0  0  0  0  0  0
   20.4824   42.2253   65.5654 C   0  0  0  0  0  0  0  0  0  0  0  0
   20.8881   43.4908   65.5169 N   0  0  0  0  0  0  0  0  0  0  0  0
   25.2224   38.9162   66.6675 C   0  0  1  0  0  0  0  0  0  0  0  0
   21.2522   41.2037   66.2560 C   0  0  0  0  0  0  0  0  0  0  0  0
   26.2824   38.2158   65.8962 C   0  0  0  0  0  0  0  0  0  0  0  0
   20.7518   39.9192   66.1837 C   0  0  0  0  0  0  0  0  0  0  0  0
   27.5162   39.0335   65.8096 C   0  0  0  0  0  0  0  0  0  0  0  0
   22.4946   41.5550   67.0519 C   0  0  0  0  0  0  0  0  0  0  0  0
   28.1000   39.4565   67.0423 O   0  0  0  0  0  0  0  0  0  0  0  0
  1  8  1  0  0  0  0
  3  5  1  1  0  0  0
  3  9  1  0  0  0  0
  3 12  2  0  0  0  0
  3 22  1  0  0  0  0
  4  8  2  0  0  0  0
  4 19  1  0  0  0  0
  6 16  1  0  0  0  0
  6  7  1  0  0  0  0
  7 10  1  0  0  0  0
  8 11  1  0  0  0  0
 10 13  1  0  0  0  0
 10 21  1  0  0  0  0
 11 14  2  0  0  0  0
 13  2  1  1  0  0  0
 13 16  1  0  0  0  0
 14 15  1  0  0  0  0
 14 17  1  0  0  0  0
 16 18  1  1  0  0  0
 17 19  2  0  0  0  0
 17 21  1  0  0  0  0
 18 20  1  0  0  0  0
 20 22  1  0  0  0  0
M  CHG  1   9  -1
M  END
>  <CHROM.1>
-103.83985489,-102.44188766,-154.90671204,56.28838342,167.80951093,161.28158760
24.53190809,40.17563469,66.51609504,2.94055843,-0.11188254,-0.44045761

>  <Name>
ligand

>  <RI>
0

>  <Rbt.Current_Directory>
/home/itssahil/PROJECTS/Mol_Feturizer/New_Systems/rnas/2HOM

>  <Rbt.Executable>
rbdock ($Id: //depot/dev/client3/rdock/2013.1/src/exe/rbdock.cxx#4 $)

>  <Rbt.Library>
libRbt.so (2013.1, Build901 2013/11/27)

>  <Rbt.Parameter_File>
/export/apps/rDock/src/rDock_2013.1_src/data/scripts/dock_solv.prm

>  <Rbt.Receptor>
prm/pocket_docking_4.prm

>  <SCORE>
-24.8132

>  <SCORE.INTER>
-25.3957

>  <SCORE.INTER.CONST>
1

>  <SCORE.INTER.POLAR>
-2.56624

>  <SCORE.INTER.ROT>
6

>  <SCORE.INTER.SOLV>
18.6078

>  <SCORE.INTER.VDW>
-22.179

>  <SCORE.INTER.norm>
-1.15435

>  <SCORE.INTRA>
0.582501

>  <SCORE.INTRA.DIHEDRAL>
0.814531

>  <SCORE.INTRA.DIHEDRAL.0>
5.05013

>  <SCORE.INTRA.POLAR>
0

>  <SCORE.INTRA.POLAR.0>
0

>  <SCORE.INTRA.REPUL>
0

>  <SCORE.INTRA.REPUL.0>
0

>  <SCORE.INTRA.SOLV>
0.671415

>  <SCORE.INTRA.SOLV.lig_0>
-54.1265

>  <SCORE.INTRA.VDW>
-0.160472

>  <SCORE.INTRA.VDW.0>
-2.1303

>  <SCORE.INTRA.norm>
0.0264773

>  <SCORE.RESTR>
0

>  <SCORE.RESTR.CAVITY>
0

>  <SCORE.RESTR.norm>
0

>  <SCORE.SYSTEM>
0

>  <SCORE.SYSTEM.CONST>
0

>  <SCORE.SYSTEM.DIHEDRAL>
0

>  <SCORE.SYSTEM.SOLV>
0

>  <SCORE.SYSTEM.norm>
0

>  <SCORE.heavy>
22

>  <SCORE.norm>
-1.12787

>  <RMSD>
1.002

$$$$
ligand
 OpenBabel11021811443D
libRbt.so/2013.1/901 2013/11/27
 22 23  0  0  0  0  0  0  0  0999 V2000
   17.1414   40.0680   63.7359 C   0  0  0  0  0  0  0  0  0  0  0  0
   24.1245   40.6546   64.6339 C   0  0  0  0  0  0  0  0  0  0  0  0
   29.7806   39.0090   66.0249 P   0  0  1  0  0  0  0  0  0  0  0  0
   18.9435   39.3073   65.1132 N   0  0  0  0  0  0  0  0  0  0  0  0
   30.2583   40.0383   65.0664 O   0  0  0  0  0  0  0  0  0  0  0  0
   24.2933   37.8214   67.4890 S   0  0  0  0  0  0  0  0  0  0  0  0
   23.0583   38.9431   67.6869 C   0  0  0  0  0  0  0  0  0  0  0  0
   18.3792   40.3759   64.4507 C   0  0  0  0  0  0  0  0  0  0  0  0
   30.6606   37.8162   66.1247 O   0  5  0  0  0  0  0  0  0  0  0  0
   22.9838   39.9015   66.7388 N   0  0  0  0  0  0  0  0  0  0  0  0
   18.8968   41.5750   64.4343 N   0  0  0  0  0  0  0  0  0  0  0  0
   29.4716   39.6320   67.3516 O   0  0  0  0  0  0  0  0  0  0  0  0
   23.9936   39.7116   65.7936 C   0  0  2  0  0  0  0  0  0  0  0  0
   20.0753   41.8338   65.1264 C   0  0  0  0  0  0  0  0  0  0  0  0
   20.5972   43.0560   65.0828 N   0  0  0  0  0  0  0  0  0  0  0  0
   24.8112   38.6329   66.0348 C   0  0  1  0  0  0  0  0  0  0  0  0
   20.7040   40.7627   65.8818 C   0  0  0  0  0  0  0  0  0  0  0  0
   25.9779   38.1743   65.2362 C   0  0  0  0  0  0  0  0  0  0  0  0
   20.0936   39.5273   65.7992 C   0  0  0  0  0  0  0  0  0  0  0  0
   27.1595   39.0415   65.4602 C   0  0  0  0  0  0  0  0  0  0  0  0
   21.9214   41.0183   66.7496 C   0  0  0  0  0  0  0  0  0  0  0  0
   28.4376   38.4047   65.4664 O   0  0  0  0  0  0  0  0  0  0  0  0
  1  8  1  0  0  0  0
  3  5  1  6  0  0  0
  3  9  1  0  0  0  0
  3 12  2  0  0  0  0
  3 22  1  0  0  0  0
  4  8  2  0  0  0  0
  4 19  1  0  0  0  0
  6 16  1  0  0  0  0
  6  7  1  0  0  0  0
  7 10  1  0  0  0  0
  8 11  1  0  0  0  0
 10 13  1  0  0  0  0
 10 21  1  0  0  0  0
 11 14  2  0  0  0  0
 13  2  1  1  0  0  0
 13 16  1  0  0  0  0
 14 15  1  0  0  0  0
 14 17  1  0  0  0  0
 16 18  1  1  0  0  0
 17 19  2  0  0  0  0
 17 21  1  0  0  0  0
 18 20  1  0  0  0  0
 20 22  1  0  0  0  0
M  CHG  1   9  -1
M  END
>  <CHROM.1>
-97.02849840,-103.78819282,-141.70364785,144.14085416,-163.69300628,-74.15849009
24.26041533,39.61991773,65.80759130,-2.93525274,-0.01726898,2.55193275

>  <Name>
ligand

>  <RI>
0

>  <Rbt.Current_Directory>
/home/itssahil/PROJECTS/Mol_Feturizer/New_Systems/rnas/2HOM

>  <Rbt.Executable>
rbdock ($Id: //depot/dev/client3/rdock/2013.1/src/exe/rbdock.cxx#4 $)

>  <Rbt.Library>
libRbt.so (2013.1, Build901 2013/11/27)

>  <Rbt.Parameter_File>
/export/apps/rDock/src/rDock_2013.1_src/data/scripts/dock_solv.prm

>  <Rbt.Receptor>
prm/pocket_docking_5.prm

>  <SCORE>
-21.5008

>  <SCORE.INTER>
-24.162

>  <SCORE.INTER.CONST>
1

>  <SCORE.INTER.POLAR>
-1.63459

>  <SCORE.INTER.ROT>
6

>  <SCORE.INTER.SOLV>
19.1196

>  <SCORE.INTER.VDW>
-24.6326

>  <SCORE.INTER.norm>
-1.09827

>  <SCORE.INTRA>
2.66129

>  <SCORE.INTRA.DIHEDRAL>
4.65754

>  <SCORE.INTRA.DIHEDRAL.0>
5.05013

>  <SCORE.INTRA.POLAR>
0

>  <SCORE.INTRA.POLAR.0>
0

>  <SCORE.INTRA.REPUL>
0

>  <SCORE.INTRA.REPUL.0>
0

>  <SCORE.INTRA.SOLV>
0.689961

>  <SCORE.INTRA.SOLV.lig_0>
-54.1265

>  <SCORE.INTRA.VDW>
-0.0124583

>  <SCORE.INTRA.VDW.0>
-2.1303

>  <SCORE.INTRA.norm>
0.120968

>  <SCORE.RESTR>
0

>  <SCORE.RESTR.CAVITY>
0

>  <SCORE.RESTR.norm>
0

>  <SCORE.SYSTEM>
0

>  <SCORE.SYSTEM.CONST>
0

>  <SCORE.SYSTEM.DIHEDRAL>
0

>  <SCORE.SYSTEM.SOLV>
0

>  <SCORE.SYSTEM.norm>
0

>  <SCORE.heavy>
22

>  <SCORE.norm>
-0.977307

>  <RMSD>
1.019

$$$$
ligand
 OpenBabel11021811443D
libRbt.so/2013.1/901 2013/11/27
 22 23  0  0  0  0  0  0  0  0999 V2000
   17.2269   40.0278   63.7972 C   0  0  0  0  0  0  0  0  0  0  0  0
   24.0921   40.4355   64.5868 C   0  0  0  0  0  0  0  0  0  0  0  0
   28.9088   39.4311   67.5664 P   0  0  1  0  0  0  0  0  0  0  0  0
   19.1186   39.2945   65.0647 N   0  0  0  0  0  0  0  0  0  0  0  0
   28.9402   40.8202   67.0412 O   0  0  0  0  0  0  0  0  0  0  0  0
   24.3525   37.9192   67.7185 S   0  0  0  0  0  0  0  0  0  0  0  0
   23.1551   39.0895   67.8575 C   0  0  0  0  0  0  0  0  0  0  0  0
   18.4606   40.3679   64.5044 C   0  0  0  0  0  0  0  0  0  0  0  0
   30.0018   38.5635   67.0565 O   0  5  0  0  0  0  0  0  0  0  0  0
   23.0508   39.9432   66.8166 N   0  0  0  0  0  0  0  0  0  0  0  0
   18.8913   41.5991   64.5723 N   0  0  0  0  0  0  0  0  0  0  0  0
   28.8041   39.4383   69.0606 O   0  0  0  0  0  0  0  0  0  0  0  0
   24.0033   39.6255   65.8467 C   0  0  2  0  0  0  0  0  0  0  0  0
   20.0687   41.8878   65.2544 C   0  0  0  0  0  0  0  0  0  0  0  0
   20.5013   43.1445   65.2969 N   0  0  0  0  0  0  0  0  0  0  0  0
   24.8087   38.5563   66.1604 C   0  0  1  0  0  0  0  0  0  0  0  0
   20.7938   40.8093   65.9056 C   0  0  0  0  0  0  0  0  0  0  0  0
   25.9199   37.9828   65.3570 C   0  0  0  0  0  0  0  0  0  0  0  0
   20.2703   39.5430   65.7383 C   0  0  0  0  0  0  0  0  0  0  0  0
   27.2026   38.6691   65.6432 C   0  0  0  0  0  0  0  0  0  0  0  0
   22.0155   41.0839   66.7616 C   0  0  0  0  0  0  0  0  0  0  0  0
   27.6158   38.7253   67.0090 O   0  0  0  0  0  0  0  0  0  0  0  0
  1  8  1  0  0  0  0
  3  5  1  6  0  0  0
  3  9  1  0  0  0  0
  3 12  2  0  0  0  0
  3 22  1  0  0  0  0
  4  8  2  0  0  0  0
  4 19  1  0  0  0  0
  6 16  1  0  0  0  0
  6  7  1  0  0  0  0
  7 10  1  0  0  0  0
  8 11  1  0  0  0  0
 10 13  1  0  0  0  0
 10 21  1  0  0  0  0
 11 14  2  0  0  0  0
 13  2  1  1  0  0  0
 13 16  1  0  0  0  0
 14 15  1  0  0  0  0
 14 17  1  0  0  0  0
 16 18  1  1  0  0  0
 17 19  2  0  0  0  0
 17 21  1  0  0  0  0
 18 20  1  0  0  0  0
 20 22  1  0  0  0  0
M  CHG  1   9  -1
M  END
>  <CHROM.1>
-101.36401698,-91.99923316,-151.38649884,54.62268713,-178.09122256,51.12155559
24.05015081,39.72278719,66.30732257,2.91929310,-0.20996940,-0.23309772

>  <Name>
ligand

>  <RI>
0

>  <Rbt.Current_Directory>
/home/itssahil/PROJECTS/Mol_Feturizer/New_Systems/rnas/2HOM

>  <Rbt.Executable>
rbdock ($Id: //depot/dev/client3/rdock/2013.1/src/exe/rbdock.cxx#4 $)

>  <Rbt.Library>
libRbt.so (2013.1, Build901 2013/11/27)

>  <Rbt.Parameter_File>
/export/apps/rDock/src/rDock_2013.1_src/data/scripts/dock_solv.prm

>  <Rbt.Receptor>
prm/pocket_docking_3.prm

>  <SCORE>
-24.2044

>  <SCORE.INTER>
-23.7747

>  <SCORE.INTER.CONST>
1

>  <SCORE.INTER.POLAR>
-1.63459

>  <SCORE.INTER.ROT>
6

>  <SCORE.INTER.SOLV>
17.0609

>  <SCORE.INTER.VDW>
-23.6882

>  <SCORE.INTER.norm>
-1.08067

>  <SCORE.INTRA>
-0.429626

>  <SCORE.INTRA.DIHEDRAL>
-0.0965486

>  <SCORE.INTRA.DIHEDRAL.0>
5.05013

>  <SCORE.INTRA.POLAR>
0

>  <SCORE.INTRA.POLAR.0>
0

>  <SCORE.INTRA.REPUL>
0

>  <SCORE.INTRA.REPUL.0>
0

>  <SCORE.INTRA.SOLV>
0.158495

>  <SCORE.INTRA.SOLV.lig_0>
-54.1265

>  <SCORE.INTRA.VDW>
-0.460599

>  <SCORE.INTRA.VDW.0>
-2.1303

>  <SCORE.INTRA.norm>
-0.0195284

>  <SCORE.RESTR>
0

>  <SCORE.RESTR.CAVITY>
0

>  <SCORE.RESTR.norm>
0

>  <SCORE.SYSTEM>
0

>  <SCORE.SYSTEM.CONST>
0

>  <SCORE.SYSTEM.DIHEDRAL>
0

>  <SCORE.SYSTEM.SOLV>
0

>  <SCORE.SYSTEM.norm>
0

>  <SCORE.heavy>
22

>  <SCORE.norm>
-1.1002

>  <RMSD>
1.035

$$$$
ligand
 OpenBabel11021811443D
libRbt.so/2013.1/901 2013/11/27
 22 23  0  0  0  0  0  0  0  0999 V2000
   17.4069   39.9542   63.7768 C   0  0  0  0  0  0  0  0  0  0  0  0
   23.1742   39.9624   64.6062 C   0  0  0  0  0  0  0  0  0  0  0  0
   29.1368   39.2926   66.7100 P   0  0  1  0  0  0  0  0  0  0  0  0
   19.0685   39.4063   65.4084 N   0  0  0  0  0  0  0  0  0  0  0  0
   29.3094   40.6479   67.2926 O   0  0  0  0  0  0  0  0  0  0  0  0
   24.9645   38.8907   68.0490 S   0  0  0  0  0  0  0  0  0  0  0  0
   23.6985   39.9808   68.2272 C   0  0  0  0  0  0  0  0  0  0  0  0
   18.5783   40.3658   64.5491 C   0  0  0  0  0  0  0  0  0  0  0  0
   29.9281   39.0563   65.4750 O   0  5  0  0  0  0  0  0  0  0  0  0
   23.0839   40.3522   67.0838 N   0  0  0  0  0  0  0  0  0  0  0  0
   19.1084   41.5509   64.4060 N   0  0  0  0  0  0  0  0  0  0  0  0
   29.3428   38.2420   67.7576 O   0  0  0  0  0  0  0  0  0  0  0  0
   23.6795   39.7106   65.9963 C   0  0  2  0  0  0  0  0  0  0  0  0
   20.2222   41.9104   65.1578 C   0  0  0  0  0  0  0  0  0  0  0  0
   20.7594   43.1144   64.9849 N   0  0  0  0  0  0  0  0  0  0  0  0
   24.7245   38.8785   66.3216 C   0  0  1  0  0  0  0  0  0  0  0  0
   20.7681   40.9621   66.1148 C   0  0  0  0  0  0  0  0  0  0  0  0
   25.5707   38.0727   65.4031 C   0  0  0  0  0  0  0  0  0  0  0  0
   20.1542   39.7265   66.1572 C   0  0  0  0  0  0  0  0  0  0  0  0
   26.9565   37.9487   65.9156 C   0  0  0  0  0  0  0  0  0  0  0  0
   21.9047   41.3442   67.0437 C   0  0  0  0  0  0  0  0  0  0  0  0
   27.6517   39.1629   66.2015 O   0  0  0  0  0  0  0  0  0  0  0  0
  1  8  1  0  0  0  0
  3  5  1  1  0  0  0
  3  9  1  0  0  0  0
  3 12  2  0  0  0  0
  3 22  1  0  0  0  0
  4  8  2  0  0  0  0
  4 19  1  0  0  0  0
  6 16  1  0  0  0  0
  6  7  1  0  0  0  0
  7 10  1  0  0  0  0
  8 11  1  0  0  0  0
 10 13  1  0  0  0  0
 10 21  1  0  0  0  0
 11 14  2  0  0  0  0
 13  2  1  6  0  0  0
 13 16  1  0  0  0  0
 14 15  1  0  0  0  0
 14 17  1  0  0  0  0
 16 18  1  6  0  0  0
 17 19  2  0  0  0  0
 17 21  1  0  0  0  0
 18 20  1  0  0  0  0
 20 22  1  0  0  0  0
M  CHG  1   9  -1
M  END
>  <CHROM.1>
-137.35283486,-32.02082005,-130.54435820,-55.32406986,-178.02402655,-161.71680884
24.13622417,39.81861836,66.17287622,-2.91300014,-0.12149274,1.88147200

>  <Name>
ligand

>  <RI>
0

>  <Rbt.Current_Directory>
/home/itssahil/PROJECTS/Mol_Feturizer/New_Systems/rnas/2HOM

>  <Rbt.Executable>
rbdock ($Id: //depot/dev/client3/rdock/2013.1/src/exe/rbdock.cxx#4 $)

>  <Rbt.Library>
libRbt.so (2013.1, Build901 2013/11/27)

>  <Rbt.Parameter_File>
/export/apps/rDock/src/rDock_2013.1_src/data/scripts/dock_solv.prm

>  <Rbt.Receptor>
prm/pocket_docking_2.prm

>  <SCORE>
-20.772

>  <SCORE.INTER>
-22.3469

>  <SCORE.INTER.CONST>
1

>  <SCORE.INTER.POLAR>
-1.62665

>  <SCORE.INTER.ROT>
6

>  <SCORE.INTER.SOLV>
17.0029

>  <SCORE.INTER.VDW>
-22.7434

>  <SCORE.INTER.norm>
-1.01577

>  <SCORE.INTRA>
1.57498

>  <SCORE.INTRA.DIHEDRAL>
0.396626

>  <SCORE.INTRA.DIHEDRAL.0>
5.05013

>  <SCORE.INTRA.POLAR>
0

>  <SCORE.INTRA.POLAR.0>
0

>  <SCORE.INTRA.REPUL>
0

>  <SCORE.INTRA.REPUL.0>
0

>  <SCORE.INTRA.SOLV>
1.34784

>  <SCORE.INTRA.SOLV.lig_0>
-54.1265

>  <SCORE.INTRA.VDW>
0.702746

>  <SCORE.INTRA.VDW.0>
-2.1303

>  <SCORE.INTRA.norm>
0.07159

>  <SCORE.RESTR>
0

>  <SCORE.RESTR.CAVITY>
0

>  <SCORE.RESTR.norm>
0

>  <SCORE.SYSTEM>
0

>  <SCORE.SYSTEM.CONST>
0

>  <SCORE.SYSTEM.DIHEDRAL>
0

>  <SCORE.SYSTEM.SOLV>
0

>  <SCORE.SYSTEM.norm>
0

>  <SCORE.heavy>
22

>  <SCORE.norm>
-0.94418

>  <RMSD>
1.039

$$$$
ligand
 OpenBabel11021811443D
libRbt.so/2013.1/901 2013/11/27
 22 23  0  0  0  0  0  0  0  0999 V2000
   17.2881   39.9448   63.8074 C   0  0  0  0  0  0  0  0  0  0  0  0
   25.0367   41.4952   67.0005 C   0  0  0  0  0  0  0  0  0  0  0  0
   29.6907   39.8939   66.9058 P   0  0  1  0  0  0  0  0  0  0  0  0
   19.0688   39.2742   65.2575 N   0  0  0  0  0  0  0  0  0  0  0  0
   29.7446   40.9070   67.9907 O   0  0  0  0  0  0  0  0  0  0  0  0
   24.0125   37.6050   67.1565 S   0  0  0  0  0  0  0  0  0  0  0  0
   22.7159   38.6668   67.0371 C   0  0  0  0  0  0  0  0  0  0  0  0
   18.5060   40.3027   64.5330 C   0  0  0  0  0  0  0  0  0  0  0  0
   30.7290   40.0694   65.8578 O   0  5  0  0  0  0  0  0  0  0  0  0
   23.0384   39.9768   66.9825 N   0  0  0  0  0  0  0  0  0  0  0  0
   19.0091   41.5064   64.4706 N   0  0  0  0  0  0  0  0  0  0  0  0
   29.6553   38.5115   67.4814 O   0  0  0  0  0  0  0  0  0  0  0  0
   24.4253   40.1256   67.0413 C   0  0  2  0  0  0  0  0  0  0  0  0
   20.1689   41.8133   65.1746 C   0  0  0  0  0  0  0  0  0  0  0  0
   20.6766   43.0390   65.0840 N   0  0  0  0  0  0  0  0  0  0  0  0
   25.1261   38.9471   67.1437 C   0  0  1  0  0  0  0  0  0  0  0  0
   20.7939   40.7877   65.9935 C   0  0  0  0  0  0  0  0  0  0  0  0
   26.5978   38.7651   67.2437 C   0  0  0  0  0  0  0  0  0  0  0  0
   20.2007   39.5417   65.9568 C   0  0  0  0  0  0  0  0  0  0  0  0
   27.2777   39.1676   65.9890 C   0  0  0  0  0  0  0  0  0  0  0  0
   21.9887   41.1002   66.8740 C   0  0  0  0  0  0  0  0  0  0  0  0
   28.3502   40.1032   66.1057 O   0  0  0  0  0  0  0  0  0  0  0  0
  1  8  1  0  0  0  0
  3  5  1  1  0  0  0
  3  9  1  0  0  0  0
  3 12  2  0  0  0  0
  3 22  1  0  0  0  0
  4  8  2  0  0  0  0
  4 19  1  0  0  0  0
  6 16  1  0  0  0  0
  6  7  1  0  0  0  0
  7 10  1  0  0  0  0
  8 11  1  0  0  0  0
 10 13  1  0  0  0  0
 10 21  1  0  0  0  0
 11 14  2  0  0  0  0
 13  2  1  1  0  0  0
 13 16  1  0  0  0  0
 14 15  1  0  0  0  0
 14 17  1  0  0  0  0
 16 18  1  1  0  0  0
 17 19  2  0  0  0  0
 17 21  1  0  0  0  0
 18 20  1  0  0  0  0
 20 22  1  0  0  0  0
M  CHG  1   9  -1
M  END
>  <CHROM.1>
-37.74407020,113.43144425,-143.97372567,127.37639189,61.28734171,-117.15398369
24.33385019,39.93182170,66.32835576,3.00627708,-0.15009961,-0.29892693

>  <Name>
ligand

>  <RI>
0

>  <Rbt.Current_Directory>
/home/itssahil/PROJECTS/Mol_Feturizer/New_Systems/rnas/2HOM

>  <Rbt.Executable>
rbdock ($Id: //depot/dev/client3/rdock/2013.1/src/exe/rbdock.cxx#4 $)

>  <Rbt.Library>
libRbt.so (2013.1, Build901 2013/11/27)

>  <Rbt.Parameter_File>
/export/apps/rDock/src/rDock_2013.1_src/data/scripts/dock_solv.prm

>  <Rbt.Receptor>
prm/pocket_docking_2.prm

>  <SCORE>
-19.5303

>  <SCORE.INTER>
-25.0637

>  <SCORE.INTER.CONST>
1

>  <SCORE.INTER.POLAR>
-2.57388

>  <SCORE.INTER.ROT>
6

>  <SCORE.INTER.SOLV>
19.2585

>  <SCORE.INTER.VDW>
-22.149

>  <SCORE.INTER.norm>
-1.13926

>  <SCORE.INTRA>
5.12256

>  <SCORE.INTRA.DIHEDRAL>
7.14328

>  <SCORE.INTRA.DIHEDRAL.0>
5.05013

>  <SCORE.INTRA.POLAR>
0

>  <SCORE.INTRA.POLAR.0>
0

>  <SCORE.INTRA.REPUL>
0

>  <SCORE.INTRA.REPUL.0>
0

>  <SCORE.INTRA.SOLV>
1.24321

>  <SCORE.INTRA.SOLV.lig_0>
-54.1265

>  <SCORE.INTRA.VDW>
0.929313

>  <SCORE.INTRA.VDW.0>
-2.1303

>  <SCORE.INTRA.norm>
0.232843

>  <SCORE.RESTR>
0.41078

>  <SCORE.RESTR.CAVITY>
0.41078

>  <SCORE.RESTR.norm>
0.0186718

>  <SCORE.SYSTEM>
0

>  <SCORE.SYSTEM.CONST>
0

>  <SCORE.SYSTEM.DIHEDRAL>
0

>  <SCORE.SYSTEM.SOLV>
0

>  <SCORE.SYSTEM.norm>
0

>  <SCORE.heavy>
22

>  <SCORE.norm>
-0.887743

>  <RMSD>
1.066

$$$$
ligand
 OpenBabel11021811443D
libRbt.so/2013.1/901 2013/11/27
 22 23  0  0  0  0  0  0  0  0999 V2000
   16.8472   39.6199   63.6713 C   0  0  0  0  0  0  0  0  0  0  0  0
   24.5765   40.7333   64.6873 C   0  0  0  0  0  0  0  0  0  0  0  0
   29.8625   39.2163   66.1316 P   0  0  1  0  0  0  0  0  0  0  0  0
   19.0217   38.9961   64.4497 N   0  0  0  0  0  0  0  0  0  0  0  0
   29.6882   40.6833   65.9773 O   0  0  0  0  0  0  0  0  0  0  0  0
   23.8668   37.4450   66.8986 S   0  0  0  0  0  0  0  0  0  0  0  0
   22.6475   38.5997   66.9486 C   0  0  0  0  0  0  0  0  0  0  0  0
   18.1198   40.0223   64.2684 C   0  0  0  0  0  0  0  0  0  0  0  0
   30.9199   38.6351   65.2648 O   0  5  0  0  0  0  0  0  0  0  0  0
   22.8659   39.7103   66.2124 N   0  0  0  0  0  0  0  0  0  0  0  0
   18.3635   41.2665   64.5824 N   0  0  0  0  0  0  0  0  0  0  0  0
   30.0152   38.8563   67.5775 O   0  0  0  0  0  0  0  0  0  0  0  0
   24.1009   39.6158   65.5683 C   0  0  2  0  0  0  0  0  0  0  0  0
   19.5847   41.6145   65.1502 C   0  0  0  0  0  0  0  0  0  0  0  0
   19.8218   42.8891   65.4460 N   0  0  0  0  0  0  0  0  0  0  0  0
   24.7951   38.4569   65.8236 C   0  0  1  0  0  0  0  0  0  0  0  0
   20.5685   40.5760   65.4084 C   0  0  0  0  0  0  0  0  0  0  0  0
   26.1335   38.0620   65.3116 C   0  0  0  0  0  0  0  0  0  0  0  0
   20.2224   39.3027   65.0028 C   0  0  0  0  0  0  0  0  0  0  0  0
   27.2146   38.8173   65.9891 C   0  0  0  0  0  0  0  0  0  0  0  0
   21.8655   40.8804   66.1334 C   0  0  0  0  0  0  0  0  0  0  0  0
   28.5560   38.5095   65.6078 O   0  0  0  0  0  0  0  0  0  0  0  0
  1  8  1  0  0  0  0
  3  5  1  6  0  0  0
  3  9  1  0  0  0  0
  3 12  2  0  0  0  0
  3 22  1  0  0  0  0
  4  8  2  0  0  0  0
  4 19  1  0  0  0  0
  6 16  1  0  0  0  0
  6  7  1  0  0  0  0
  7 10  1  0  0  0  0
  8 11  1  0  0  0  0
 10 13  1  0  0  0  0
 10 21  1  0  0  0  0
 11 14  2  0  0  0  0
 13  2  1  1  0  0  0
 13 16  1  0  0  0  0
 14 15  1  0  0  0  0
 14 17  1  0  0  0  0
 16 18  1  1  0  0  0
 17 19  2  0  0  0  0
 17 21  1  0  0  0  0
 18 20  1  0  0  0  0
 20 22  1  0  0  0  0
M  CHG  1   9  -1
M  END
>  <CHROM.1>
-68.56741067,-105.23712813,-174.33714758,178.65952340,177.00564645,-51.11102169
24.16376620,39.50770475,65.66011724,2.98550732,-0.09085698,-0.23482901

>  <Name>
ligand

>  <RI>
0

>  <Rbt.Current_Directory>
/home/itssahil/PROJECTS/Mol_Feturizer/New_Systems/rnas/2HOM

>  <Rbt.Executable>
rbdock ($Id: //depot/dev/client3/rdock/2013.1/src/exe/rbdock.cxx#4 $)

>  <Rbt.Library>
libRbt.so (2013.1, Build901 2013/11/27)

>  <Rbt.Parameter_File>
/export/apps/rDock/src/rDock_2013.1_src/data/scripts/dock_solv.prm

>  <Rbt.Receptor>
prm/pocket_docking_3.prm

>  <SCORE>
-22.7499

>  <SCORE.INTER>
-22.728

>  <SCORE.INTER.CONST>
1

>  <SCORE.INTER.POLAR>
-1.63459

>  <SCORE.INTER.ROT>
6

>  <SCORE.INTER.SOLV>
22.8387

>  <SCORE.INTER.VDW>
-24.9163

>  <SCORE.INTER.norm>
-1.03309

>  <SCORE.INTRA>
-0.0219177

>  <SCORE.INTRA.DIHEDRAL>
-0.306296

>  <SCORE.INTRA.DIHEDRAL.0>
5.05013

>  <SCORE.INTRA.POLAR>
0

>  <SCORE.INTRA.POLAR.0>
0

>  <SCORE.INTRA.REPUL>
0

>  <SCORE.INTRA.REPUL.0>
0

>  <SCORE.INTRA.SOLV>
-0.086178

>  <SCORE.INTRA.SOLV.lig_0>
-54.1265

>  <SCORE.INTRA.VDW>
0.174319

>  <SCORE.INTRA.VDW.0>
-2.1303

>  <SCORE.INTRA.norm>
-0.000996257

>  <SCORE.RESTR>
0

>  <SCORE.RESTR.CAVITY>
0

>  <SCORE.RESTR.norm>
0

>  <SCORE.SYSTEM>
0

>  <SCORE.SYSTEM.CONST>
0

>  <SCORE.SYSTEM.DIHEDRAL>
0

>  <SCORE.SYSTEM.SOLV>
0

>  <SCORE.SYSTEM.norm>
0

>  <SCORE.heavy>
22

>  <SCORE.norm>
-1.03409

>  <RMSD>
1.082

$$$$
ligand
 OpenBabel11021811443D
libRbt.so/2013.1/901 2013/11/27
 22 23  0  0  0  0  0  0  0  0999 V2000
   17.5739   39.7186   64.1712 C   0  0  0  0  0  0  0  0  0  0  0  0
   24.5092   41.1665   64.2435 C   0  0  0  0  0  0  0  0  0  0  0  0
   29.4944   39.7779   67.8068 P   0  0  1  0  0  0  0  0  0  0  0  0
   19.8350   39.4540   64.9067 N   0  0  0  0  0  0  0  0  0  0  0  0
   30.5532   38.9540   67.1692 O   0  0  0  0  0  0  0  0  0  0  0  0
   25.0870   39.0069   67.5915 S   0  0  0  0  0  0  0  0  0  0  0  0
   23.7780   40.0583   67.6529 C   0  0  0  0  0  0  0  0  0  0  0  0
   18.7896   40.3295   64.7067 C   0  0  0  0  0  0  0  0  0  0  0  0
   29.2052   39.4110   69.2171 O   0  5  0  0  0  0  0  0  0  0  0  0
   23.5664   40.7914   66.5390 N   0  0  0  0  0  0  0  0  0  0  0  0
   18.8584   41.6103   64.9534 N   0  0  0  0  0  0  0  0  0  0  0  0
   29.7814   41.2361   67.6193 O   0  0  0  0  0  0  0  0  0  0  0  0
   24.5282   40.4784   65.5767 C   0  0  2  0  0  0  0  0  0  0  0  0
   20.0305   42.1587   65.4637 C   0  0  0  0  0  0  0  0  0  0  0  0
   20.0879   43.4676   65.6910 N   0  0  0  0  0  0  0  0  0  0  0  0
   25.4455   39.5318   65.9675 C   0  0  1  0  0  0  0  0  0  0  0  0
   21.1606   41.2867   65.7384 C   0  0  0  0  0  0  0  0  0  0  0  0
   26.5947   38.9978   65.1907 C   0  0  0  0  0  0  0  0  0  0  0  0
   20.9924   39.9578   65.4051 C   0  0  0  0  0  0  0  0  0  0  0  0
   27.8800   39.5540   65.6775 C   0  0  0  0  0  0  0  0  0  0  0  0
   22.4180   41.8109   66.4054 C   0  0  0  0  0  0  0  0  0  0  0  0
   28.1307   39.4712   67.0810 O   0  0  0  0  0  0  0  0  0  0  0  0
  1  8  1  0  0  0  0
  3  5  1  6  0  0  0
  3  9  1  0  0  0  0
  3 12  2  0  0  0  0
  3 22  1  0  0  0  0
  4  8  2  0  0  0  0
  4 19  1  0  0  0  0
  6 16  1  0  0  0  0
  6  7  1  0  0  0  0
  7 10  1  0  0  0  0
  8 11  1  0  0  0  0
 10 13  1  0  0  0  0
 10 21  1  0  0  0  0
 11 14  2  0  0  0  0
 13  2  1  1  0  0  0
 13 16  1  0  0  0  0
 14 15  1  0  0  0  0
 14 17  1  0  0  0  0
 16 18  1  1  0  0  0
 17 19  2  0  0  0  0
 17 21  1  0  0  0  0
 18 20  1  0  0  0  0
 20 22  1  0  0  0  0
M  CHG  1   9  -1
M  END
>  <CHROM.1>
-95.40542741,-74.47465780,-175.82091264,51.05593717,169.76276090,-54.01356103
24.53273533,40.25068705,66.32905137,3.05830675,-0.27260742,0.20334224

>  <Name>
ligand

>  <RI>
0

>  <Rbt.Current_Directory>
/home/itssahil/PROJECTS/Mol_Feturizer/New_Systems/rnas/2HOM

>  <Rbt.Executable>
rbdock ($Id: //depot/dev/client3/rdock/2013.1/src/exe/rbdock.cxx#4 $)

>  <Rbt.Library>
libRbt.so (2013.1, Build901 2013/11/27)

>  <Rbt.Parameter_File>
/export/apps/rDock/src/rDock_2013.1_src/data/scripts/dock_solv.prm

>  <Rbt.Receptor>
prm/pocket_docking_2.prm

>  <SCORE>
-22.6713

>  <SCORE.INTER>
-22.7015

>  <SCORE.INTER.CONST>
1

>  <SCORE.INTER.POLAR>
-2.46999

>  <SCORE.INTER.ROT>
6

>  <SCORE.INTER.SOLV>
22.3889

>  <SCORE.INTER.VDW>
-21.964

>  <SCORE.INTER.norm>
-1.03188

>  <SCORE.INTRA>
-0.0869336

>  <SCORE.INTRA.DIHEDRAL>
0.824107

>  <SCORE.INTRA.DIHEDRAL.0>
5.05013

>  <SCORE.INTRA.POLAR>
0

>  <SCORE.INTRA.POLAR.0>
0

>  <SCORE.INTRA.REPUL>
0

>  <SCORE.INTRA.REPUL.0>
0

>  <SCORE.INTRA.SOLV>
-0.157205

>  <SCORE.INTRA.SOLV.lig_0>
-54.1265

>  <SCORE.INTRA.VDW>
-0.420385

>  <SCORE.INTRA.VDW.0>
-2.1303

>  <SCORE.INTRA.norm>
-0.00395153

>  <SCORE.RESTR>
0.117124

>  <SCORE.RESTR.CAVITY>
0.117124

>  <SCORE.RESTR.norm>
0.00532382

>  <SCORE.SYSTEM>
0

>  <SCORE.SYSTEM.CONST>
0

>  <SCORE.SYSTEM.DIHEDRAL>
0

>  <SCORE.SYSTEM.SOLV>
0

>  <SCORE.SYSTEM.norm>
0

>  <SCORE.heavy>
22

>  <SCORE.norm>
-1.03051

>  <RMSD>
1.085

$$$$
ligand
 OpenBabel11021811443D
libRbt.so/2013.1/901 2013/11/27
 22 23  0  0  0  0  0  0  0  0999 V2000
   17.1634   39.5594   63.7808 C   0  0  0  0  0  0  0  0  0  0  0  0
   24.6640   42.2021   67.1999 C   0  0  0  0  0  0  0  0  0  0  0  0
   29.8644   39.9154   66.8905 P   0  0  1  0  0  0  0  0  0  0  0  0
   19.0136   39.1542   65.2422 N   0  0  0  0  0  0  0  0  0  0  0  0
   29.7202   40.9142   67.9804 O   0  0  0  0  0  0  0  0  0  0  0  0
   24.3222   38.2275   66.6595 S   0  0  0  0  0  0  0  0  0  0  0  0
   22.8730   39.0733   66.5755 C   0  0  0  0  0  0  0  0  0  0  0  0
   18.3449   40.0780   64.4686 C   0  0  0  0  0  0  0  0  0  0  0  0
   31.0898   40.0855   66.0680 O   0  5  0  0  0  0  0  0  0  0  0  0
   22.9663   40.4085   66.7532 N   0  0  0  0  0  0  0  0  0  0  0  0
   18.7241   41.3204   64.3318 N   0  0  0  0  0  0  0  0  0  0  0  0
   29.6970   38.5270   67.4270 O   0  0  0  0  0  0  0  0  0  0  0  0
   24.2984   40.7650   66.9710 C   0  0  2  0  0  0  0  0  0  0  0  0
   19.8526   41.7814   65.0017 C   0  0  0  0  0  0  0  0  0  0  0  0
   20.2340   43.0444   64.8354 N   0  0  0  0  0  0  0  0  0  0  0  0
   25.1839   39.7133   66.9615 C   0  0  1  0  0  0  0  0  0  0  0  0
   20.5838   40.8719   65.8685 C   0  0  0  0  0  0  0  0  0  0  0  0
   26.6538   39.7546   67.1777 C   0  0  0  0  0  0  0  0  0  0  0  0
   20.1184   39.5729   65.9100 C   0  0  0  0  0  0  0  0  0  0  0  0
   27.3914   39.6099   65.8997 C   0  0  0  0  0  0  0  0  0  0  0  0
   21.7480   41.3521   66.7137 C   0  0  0  0  0  0  0  0  0  0  0  0
   28.7092   40.1576   65.8476 O   0  0  0  0  0  0  0  0  0  0  0  0
  1  8  1  0  0  0  0
  3  5  1  1  0  0  0
  3  9  1  0  0  0  0
  3 12  2  0  0  0  0
  3 22  1  0  0  0  0
  4  8  2  0  0  0  0
  4 19  1  0  0  0  0
  6 16  1  0  0  0  0
  6  7  1  0  0  0  0
  7 10  1  0  0  0  0
  8 11  1  0  0  0  0
 10 13  1  0  0  0  0
 10 21  1  0  0  0  0
 11 14  2  0  0  0  0
 13  2  1  1  0  0  0
 13 16  1  0  0  0  0
 14 15  1  0  0  0  0
 14 17  1  0  0  0  0
 16 18  1  1  0  0  0
 17 19  2  0  0  0  0
 17 21  1  0  0  0  0
 18 20  1  0  0  0  0
 20 22  1  0  0  0  0
M  CHG  1   9  -1
M  END
>  <CHROM.1>
-27.16588075,76.58617740,-137.97008167,155.08703908,50.13329761,-86.76164381
24.32931871,40.14542578,66.20345039,3.06819180,-0.18052725,-0.03824885

>  <Name>
ligand

>  <RI>
0

>  <Rbt.Current_Directory>
/home/itssahil/PROJECTS/Mol_Feturizer/New_Systems/rnas/2HOM

>  <Rbt.Executable>
rbdock ($Id: //depot/dev/client3/rdock/2013.1/src/exe/rbdock.cxx#4 $)

>  <Rbt.Library>
libRbt.so (2013.1, Build901 2013/11/27)

>  <Rbt.Parameter_File>
/export/apps/rDock/src/rDock_2013.1_src/data/scripts/dock_solv.prm

>  <Rbt.Receptor>
prm/pocket_docking_2.prm

>  <SCORE>
-18.8916

>  <SCORE.INTER>
-22.6941

>  <SCORE.INTER.CONST>
1

>  <SCORE.INTER.POLAR>
-2.5344

>  <SCORE.INTER.ROT>
6

>  <SCORE.INTER.SOLV>
22.4587

>  <SCORE.INTER.VDW>
-21.7677

>  <SCORE.INTER.norm>
-1.03155

>  <SCORE.INTRA>
2.91152

>  <SCORE.INTRA.DIHEDRAL>
3.47469

>  <SCORE.INTRA.DIHEDRAL.0>
5.05013

>  <SCORE.INTRA.POLAR>
0

>  <SCORE.INTRA.POLAR.0>
0

>  <SCORE.INTRA.REPUL>
0

>  <SCORE.INTRA.REPUL.0>
0

>  <SCORE.INTRA.SOLV>
1.02088

>  <SCORE.INTRA.SOLV.lig_0>
-54.1265

>  <SCORE.INTRA.VDW>
0.663737

>  <SCORE.INTRA.VDW.0>
-2.1303

>  <SCORE.INTRA.norm>
0.132342

>  <SCORE.RESTR>
0.890959

>  <SCORE.RESTR.CAVITY>
0.890959

>  <SCORE.RESTR.norm>
0.0404981

>  <SCORE.SYSTEM>
0

>  <SCORE.SYSTEM.CONST>
0

>  <SCORE.SYSTEM.DIHEDRAL>
0

>  <SCORE.SYSTEM.SOLV>
0

>  <SCORE.SYSTEM.norm>
0

>  <SCORE.heavy>
22

>  <SCORE.norm>
-0.858711

>  <RMSD>
1.101

$$$$
ligand
 OpenBabel11021811443D
libRbt.so/2013.1/901 2013/11/27
 22 23  0  0  0  0  0  0  0  0999 V2000
   17.6178   40.2422   64.3443 C   0  0  0  0  0  0  0  0  0  0  0  0
   24.6369   40.8146   64.7973 C   0  0  0  0  0  0  0  0  0  0  0  0
   29.6258   39.7610   67.3342 P   0  0  1  0  0  0  0  0  0  0  0  0
   19.5688   39.4752   65.4971 N   0  0  0  0  0  0  0  0  0  0  0  0
   30.7271   39.6794   66.3408 O   0  0  0  0  0  0  0  0  0  0  0  0
   24.9679   38.0067   67.6631 S   0  0  0  0  0  0  0  0  0  0  0  0
   23.7561   39.1398   67.9287 C   0  0  0  0  0  0  0  0  0  0  0  0
   18.8930   40.5615   64.9846 C   0  0  0  0  0  0  0  0  0  0  0  0
   29.6325   38.6679   68.3404 O   0  5  0  0  0  0  0  0  0  0  0  0
   23.6280   40.0900   66.9781 N   0  0  0  0  0  0  0  0  0  0  0  0
   19.3412   41.7871   65.0399 N   0  0  0  0  0  0  0  0  0  0  0  0
   29.5698   41.1284   67.9429 O   0  0  0  0  0  0  0  0  0  0  0  0
   24.5737   39.8834   65.9720 C   0  0  2  0  0  0  0  0  0  0  0  0
   20.5582   42.0558   65.6578 C   0  0  0  0  0  0  0  0  0  0  0  0
   21.0071   43.3071   65.6879 N   0  0  0  0  0  0  0  0  0  0  0  0
   25.3974   38.8007   66.1709 C   0  0  1  0  0  0  0  0  0  0  0  0
   21.3059   40.9627   66.2572 C   0  0  0  0  0  0  0  0  0  0  0  0
   26.5071   38.3255   65.3038 C   0  0  0  0  0  0  0  0  0  0  0  0
   20.7590   39.7041   66.1075 C   0  0  0  0  0  0  0  0  0  0  0  0
   27.7922   38.2913   66.0425 C   0  0  0  0  0  0  0  0  0  0  0  0
   22.5765   41.2150   67.0460 C   0  0  0  0  0  0  0  0  0  0  0  0
   28.2643   39.5285   66.5772 O   0  0  0  0  0  0  0  0  0  0  0  0
  1  8  1  0  0  0  0
  3  5  1  6  0  0  0
  3  9  1  0  0  0  0
  3 12  2  0  0  0  0
  3 22  1  0  0  0  0
  4  8  2  0  0  0  0
  4 19  1  0  0  0  0
  6 16  1  0  0  0  0
  6  7  1  0  0  0  0
  7 10  1  0  0  0  0
  8 11  1  0  0  0  0
 10 13  1  0  0  0  0
 10 21  1  0  0  0  0
 11 14  2  0  0  0  0
 13  2  1  1  0  0  0
 13 16  1  0  0  0  0
 14 15  1  0  0  0  0
 14 17  1  0  0  0  0
 16 18  1  1  0  0  0
 17 19  2  0  0  0  0
 17 21  1  0  0  0  0
 18 20  1  0  0  0  0
 20 22  1  0  0  0  0
M  CHG  1   9  -1
M  END
>  <CHROM.1>
-97.19745560,-57.76593983,-148.63105642,-60.14426499,-176.83568749,71.89467638
24.63285656,39.93164158,66.41906528,2.95576091,-0.15175122,-0.18980940

>  <Name>
ligand

>  <RI>
0

>  <Rbt.Current_Directory>
/home/itssahil/PROJECTS/Mol_Feturizer/New_Systems/rnas/2HOM

>  <Rbt.Executable>
rbdock ($Id: //depot/dev/client3/rdock/2013.1/src/exe/rbdock.cxx#4 $)

>  <Rbt.Library>
libRbt.so (2013.1, Build901 2013/11/27)

>  <Rbt.Parameter_File>
/export/apps/rDock/src/rDock_2013.1_src/data/scripts/dock_solv.prm

>  <Rbt.Receptor>
prm/pocket_docking_5.prm

>  <SCORE>
-27.1411

>  <SCORE.INTER>
-27.2407

>  <SCORE.INTER.CONST>
1

>  <SCORE.INTER.POLAR>
-2.8179

>  <SCORE.INTER.ROT>
6

>  <SCORE.INTER.SOLV>
17.6153

>  <SCORE.INTER.VDW>
-22.2393

>  <SCORE.INTER.norm>
-1.23821

>  <SCORE.INTRA>
0.0996003

>  <SCORE.INTRA.DIHEDRAL>
0.251226

>  <SCORE.INTRA.DIHEDRAL.0>
5.05013

>  <SCORE.INTRA.POLAR>
0

>  <SCORE.INTRA.POLAR.0>
0

>  <SCORE.INTRA.REPUL>
0

>  <SCORE.INTRA.REPUL.0>
0

>  <SCORE.INTRA.SOLV>
0.359225

>  <SCORE.INTRA.SOLV.lig_0>
-54.1265

>  <SCORE.INTRA.VDW>
-0.205625

>  <SCORE.INTRA.VDW.0>
-2.1303

>  <SCORE.INTRA.norm>
0.00452729

>  <SCORE.RESTR>
0

>  <SCORE.RESTR.CAVITY>
0

>  <SCORE.RESTR.norm>
0

>  <SCORE.SYSTEM>
0

>  <SCORE.SYSTEM.CONST>
0

>  <SCORE.SYSTEM.DIHEDRAL>
0

>  <SCORE.SYSTEM.SOLV>
0

>  <SCORE.SYSTEM.norm>
0

>  <SCORE.heavy>
22

>  <SCORE.norm>
-1.23369

>  <RMSD>
1.101

$$$$
ligand
 OpenBabel11021811443D
libRbt.so/2013.1/901 2013/11/27
 22 23  0  0  0  0  0  0  0  0999 V2000
   17.2725   39.8739   63.9385 C   0  0  0  0  0  0  0  0  0  0  0  0
   23.6660   40.1683   64.5993 C   0  0  0  0  0  0  0  0  0  0  0  0
   29.0111   39.4408   67.3880 P   0  0  1  0  0  0  0  0  0  0  0  0
   19.2064   39.3525   65.2466 N   0  0  0  0  0  0  0  0  0  0  0  0
   30.0057   38.4496   66.9036 O   0  0  0  0  0  0  0  0  0  0  0  0
   24.5500   38.6501   68.2216 S   0  0  0  0  0  0  0  0  0  0  0  0
   23.3509   39.8268   68.2285 C   0  0  0  0  0  0  0  0  0  0  0  0
   18.4775   40.3414   64.6221 C   0  0  0  0  0  0  0  0  0  0  0  0
   28.9766   39.5955   68.8652 O   0  5  0  0  0  0  0  0  0  0  0  0
   23.0388   40.3482   67.0228 N   0  0  0  0  0  0  0  0  0  0  0  0
   18.8219   41.6013   64.6137 N   0  0  0  0  0  0  0  0  0  0  0  0
   29.1679   40.7395   66.6583 O   0  0  0  0  0  0  0  0  0  0  0  0
   23.8234   39.7538   66.0328 C   0  0  2  0  0  0  0  0  0  0  0  0
   19.9743   42.0121   65.2754 C   0  0  0  0  0  0  0  0  0  0  0  0
   20.3189   43.2960   65.2401 N   0  0  0  0  0  0  0  0  0  0  0  0
   24.7100   38.8087   66.4922 C   0  0  1  0  0  0  0  0  0  0  0  0
   20.7703   41.0284   65.9909 C   0  0  0  0  0  0  0  0  0  0  0  0
   25.6888   38.0148   65.7042 C   0  0  0  0  0  0  0  0  0  0  0  0
   20.3360   39.7210   65.9024 C   0  0  0  0  0  0  0  0  0  0  0  0
   27.0432   38.6150   65.7645 C   0  0  0  0  0  0  0  0  0  0  0  0
   21.9673   41.4389   66.8270 C   0  0  0  0  0  0  0  0  0  0  0  0
   27.5717   38.8906   67.0622 O   0  0  0  0  0  0  0  0  0  0  0  0
  1  8  1  0  0  0  0
  3  5  1  6  0  0  0
  3  9  1  0  0  0  0
  3 12  2  0  0  0  0
  3 22  1  0  0  0  0
  4  8  2  0  0  0  0
  4 19  1  0  0  0  0
  6 16  1  0  0  0  0
  6  7  1  0  0  0  0
  7 10  1  0  0  0  0
  8 11  1  0  0  0  0
 10 13  1  0  0  0  0
 10 21  1  0  0  0  0
 11 14  2  0  0  0  0
 13  2  1  1  0  0  0
 13 16  1  0  0  0  0
 14 15  1  0  0  0  0
 14 17  1  0  0  0  0
 16 18  1  1  0  0  0
 17 19  2  0  0  0  0
 17 21  1  0  0  0  0
 18 20  1  0  0  0  0
 20 22  1  0  0  0  0
M  CHG  1   9  -1
M  END
>  <CHROM.1>
-116.39270608,-81.56188628,-154.98603115,52.45531891,176.02667975,-61.73640479
24.04868573,39.87644248,66.39607489,2.92574665,-0.19786208,-0.20657007

>  <Name>
ligand

>  <RI>
0

>  <Rbt.Current_Directory>
/home/itssahil/PROJECTS/Mol_Feturizer/New_Systems/rnas/2HOM

>  <Rbt.Executable>
rbdock ($Id: //depot/dev/client3/rdock/2013.1/src/exe/rbdock.cxx#4 $)

>  <Rbt.Library>
libRbt.so (2013.1, Build901 2013/11/27)

>  <Rbt.Parameter_File>
/export/apps/rDock/src/rDock_2013.1_src/data/scripts/dock_solv.prm

>  <Rbt.Receptor>
prm/pocket_docking_2.prm

>  <SCORE>
-23.1695

>  <SCORE.INTER>
-22.7692

>  <SCORE.INTER.CONST>
1

>  <SCORE.INTER.POLAR>
-1.29786

>  <SCORE.INTER.ROT>
6

>  <SCORE.INTER.SOLV>
16.02

>  <SCORE.INTER.VDW>
-23.7933

>  <SCORE.INTER.norm>
-1.03497

>  <SCORE.INTRA>
-0.400281

>  <SCORE.INTRA.DIHEDRAL>
0.092891

>  <SCORE.INTRA.DIHEDRAL.0>
5.05013

>  <SCORE.INTRA.POLAR>
0

>  <SCORE.INTRA.POLAR.0>
0

>  <SCORE.INTRA.REPUL>
0

>  <SCORE.INTRA.REPUL.0>
0

>  <SCORE.INTRA.SOLV>
0.0952322

>  <SCORE.INTRA.SOLV.lig_0>
-54.1265

>  <SCORE.INTRA.VDW>
-0.494343

>  <SCORE.INTRA.VDW.0>
-2.1303

>  <SCORE.INTRA.norm>
-0.0181946

>  <SCORE.RESTR>
0

>  <SCORE.RESTR.CAVITY>
0

>  <SCORE.RESTR.norm>
0

>  <SCORE.SYSTEM>
0

>  <SCORE.SYSTEM.CONST>
0

>  <SCORE.SYSTEM.DIHEDRAL>
0

>  <SCORE.SYSTEM.SOLV>
0

>  <SCORE.SYSTEM.norm>
0

>  <SCORE.heavy>
22

>  <SCORE.norm>
-1.05316

>  <RMSD>
1.166

$$$$
ligand
 OpenBabel11021811443D
libRbt.so/2013.1/901 2013/11/27
 22 23  0  0  0  0  0  0  0  0999 V2000
   16.8961   39.6997   63.6813 C   0  0  0  0  0  0  0  0  0  0  0  0
   24.5489   40.8724   64.8883 C   0  0  0  0  0  0  0  0  0  0  0  0
   29.8281   39.4013   66.4341 P   0  0  1  0  0  0  0  0  0  0  0  0
   19.0216   39.0543   64.5695 N   0  0  0  0  0  0  0  0  0  0  0  0
   30.9990   39.0781   65.5792 O   0  0  0  0  0  0  0  0  0  0  0  0
   23.8970   37.5138   67.0100 S   0  0  0  0  0  0  0  0  0  0  0  0
   22.6542   38.6420   67.0844 C   0  0  0  0  0  0  0  0  0  0  0  0
   18.1501   40.0929   64.3224 C   0  0  0  0  0  0  0  0  0  0  0  0
   29.9026   38.8363   67.8061 O   0  5  0  0  0  0  0  0  0  0  0  0
   22.8531   39.7756   66.3784 N   0  0  0  0  0  0  0  0  0  0  0  0
   18.4060   41.3400   64.6140 N   0  0  0  0  0  0  0  0  0  0  0  0
   29.5541   40.8738   66.4121 O   0  0  0  0  0  0  0  0  0  0  0  0
   24.0924   39.7229   65.7378 C   0  0  2  0  0  0  0  0  0  0  0  0
   19.6088   41.6791   65.2250 C   0  0  0  0  0  0  0  0  0  0  0  0
   19.8596   42.9563   65.4973 N   0  0  0  0  0  0  0  0  0  0  0  0
   24.8090   38.5720   65.9660 C   0  0  1  0  0  0  0  0  0  0  0  0
   20.5587   40.6287   65.5527 C   0  0  0  0  0  0  0  0  0  0  0  0
   26.1572   38.2177   65.4502 C   0  0  0  0  0  0  0  0  0  0  0  0
   20.2037   39.3520   65.1660 C   0  0  0  0  0  0  0  0  0  0  0  0
   27.2276   38.7569   66.3230 C   0  0  0  0  0  0  0  0  0  0  0  0
   21.8295   40.9269   66.3251 C   0  0  0  0  0  0  0  0  0  0  0  0
   28.5653   38.6802   65.8291 O   0  0  0  0  0  0  0  0  0  0  0  0
  1  8  1  0  0  0  0
  3  5  1  6  0  0  0
  3  9  1  0  0  0  0
  3 12  2  0  0  0  0
  3 22  1  0  0  0  0
  4  8  2  0  0  0  0
  4 19  1  0  0  0  0
  6 16  1  0  0  0  0
  6  7  1  0  0  0  0
  7 10  1  0  0  0  0
  8 11  1  0  0  0  0
 10 13  1  0  0  0  0
 10 21  1  0  0  0  0
 11 14  2  0  0  0  0
 13  2  1  1  0  0  0
 13 16  1  0  0  0  0
 14 15  1  0  0  0  0
 14 17  1  0  0  0  0
 16 18  1  1  0  0  0
 17 19  2  0  0  0  0
 17 21  1  0  0  0  0
 18 20  1  0  0  0  0
 20 22  1  0  0  0  0
M  CHG  1   9  -1
M  END
>  <CHROM.1>
-70.23400498,-93.66230781,-169.47884041,-169.96676097,168.29375571,-178.17163447
24.16111849,39.61231043,65.83813481,2.98996410,-0.11363690,-0.23710721

>  <Name>
ligand

>  <RI>
0

>  <Rbt.Current_Directory>
/home/itssahil/PROJECTS/Mol_Feturizer/New_Systems/rnas/2HOM

>  <Rbt.Executable>
rbdock ($Id: //depot/dev/client3/rdock/2013.1/src/exe/rbdock.cxx#4 $)

>  <Rbt.Library>
libRbt.so (2013.1, Build901 2013/11/27)

>  <Rbt.Parameter_File>
/export/apps/rDock/src/rDock_2013.1_src/data/scripts/dock_solv.prm

>  <Rbt.Receptor>
prm/pocket_docking_2.prm

>  <SCORE>
-22.5932

>  <SCORE.INTER>
-23.3337

>  <SCORE.INTER.CONST>
1

>  <SCORE.INTER.POLAR>
-1.63459

>  <SCORE.INTER.ROT>
6

>  <SCORE.INTER.SOLV>
19.6219

>  <SCORE.INTER.VDW>
-24.2478

>  <SCORE.INTER.norm>
-1.06062

>  <SCORE.INTRA>
0.740503

>  <SCORE.INTRA.DIHEDRAL>
0.68391

>  <SCORE.INTRA.DIHEDRAL.0>
5.05013

>  <SCORE.INTRA.POLAR>
0

>  <SCORE.INTRA.POLAR.0>
0

>  <SCORE.INTRA.REPUL>
0

>  <SCORE.INTRA.REPUL.0>
0

>  <SCORE.INTRA.SOLV>
0.584378

>  <SCORE.INTRA.SOLV.lig_0>
-54.1265

>  <SCORE.INTRA.VDW>
0.106359

>  <SCORE.INTRA.VDW.0>
-2.1303

>  <SCORE.INTRA.norm>
0.0336592

>  <SCORE.RESTR>
0

>  <SCORE.RESTR.CAVITY>
0

>  <SCORE.RESTR.norm>
0

>  <SCORE.SYSTEM>
0

>  <SCORE.SYSTEM.CONST>
0

>  <SCORE.SYSTEM.DIHEDRAL>
0

>  <SCORE.SYSTEM.SOLV>
0

>  <SCORE.SYSTEM.norm>
0

>  <SCORE.heavy>
22

>  <SCORE.norm>
-1.02696

>  <RMSD>
1.200

$$$$
ligand
 OpenBabel11021811443D
libRbt.so/2013.1/901 2013/11/27
 22 23  0  0  0  0  0  0  0  0999 V2000
   17.2646   39.8119   63.8710 C   0  0  0  0  0  0  0  0  0  0  0  0
   23.3771   40.0177   64.5349 C   0  0  0  0  0  0  0  0  0  0  0  0
   29.0104   39.1500   67.0774 P   0  0  1  0  0  0  0  0  0  0  0  0
   19.3075   39.3240   65.0164 N   0  0  0  0  0  0  0  0  0  0  0  0
   29.8087   37.9605   66.6852 O   0  0  0  0  0  0  0  0  0  0  0  0
   24.6301   38.7760   68.1535 S   0  0  0  0  0  0  0  0  0  0  0  0
   23.4271   39.9481   68.1927 C   0  0  0  0  0  0  0  0  0  0  0  0
   18.4434   40.3055   64.5815 C   0  0  0  0  0  0  0  0  0  0  0  0
   29.0380   39.4480   68.5327 O   0  5  0  0  0  0  0  0  0  0  0  0
   22.9921   40.3774   66.9887 N   0  0  0  0  0  0  0  0  0  0  0  0
   18.6456   41.5830   64.7633 N   0  0  0  0  0  0  0  0  0  0  0  0
   29.3697   40.3269   66.2232 O   0  0  0  0  0  0  0  0  0  0  0  0
   23.6798   39.7119   65.9722 C   0  0  2  0  0  0  0  0  0  0  0  0
   19.7774   42.0183   65.4449 C   0  0  0  0  0  0  0  0  0  0  0  0
   19.9758   43.3236   65.6039 N   0  0  0  0  0  0  0  0  0  0  0  0
   24.6160   38.8051   66.4099 C   0  0  1  0  0  0  0  0  0  0  0  0
   20.7119   41.0356   65.9682 C   0  0  0  0  0  0  0  0  0  0  0  0
   25.5188   37.9560   65.5893 C   0  0  0  0  0  0  0  0  0  0  0  0
   20.4209   39.7160   65.6861 C   0  0  0  0  0  0  0  0  0  0  0  0
   26.8960   38.5045   65.5598 C   0  0  0  0  0  0  0  0  0  0  0  0
   21.8967   41.4488   66.8203 C   0  0  0  0  0  0  0  0  0  0  0  0
   27.4907   38.8282   66.8172 O   0  0  0  0  0  0  0  0  0  0  0  0
  1  8  1  0  0  0  0
  3  5  1  6  0  0  0
  3  9  1  0  0  0  0
  3 12  2  0  0  0  0
  3 22  1  0  0  0  0
  4  8  2  0  0  0  0
  4 19  1  0  0  0  0
  6 16  1  0  0  0  0
  6  7  1  0  0  0  0
  7 10  1  0  0  0  0
  8 11  1  0  0  0  0
 10 13  1  0  0  0  0
 10 21  1  0  0  0  0
 11 14  2  0  0  0  0
 13  2  1  1  0  0  0
 13 16  1  0  0  0  0
 14 15  1  0  0  0  0
 14 17  1  0  0  0  0
 16 18  1  1  0  0  0
 17 19  2  0  0  0  0
 17 21  1  0  0  0  0
 18 20  1  0  0  0  0
 20 22  1  0  0  0  0
M  CHG  1   9  -1
M  END
>  <CHROM.1>
-124.82810740,-76.97928431,-164.43801211,50.56002543,167.18475386,-60.63461863
23.99415218,39.79547416,66.28397721,3.09470393,-0.28071455,0.60462924

>  <Name>
ligand

>  <RI>
0

>  <Rbt.Current_Directory>
/home/itssahil/PROJECTS/Mol_Feturizer/New_Systems/rnas/2HOM

>  <Rbt.Executable>
rbdock ($Id: //depot/dev/client3/rdock/2013.1/src/exe/rbdock.cxx#4 $)

>  <Rbt.Library>
libRbt.so (2013.1, Build901 2013/11/27)

>  <Rbt.Parameter_File>
/export/apps/rDock/src/rDock_2013.1_src/data/scripts/dock_solv.prm

>  <Rbt.Receptor>
prm/pocket_docking_2.prm

>  <SCORE>
-22.2352

>  <SCORE.INTER>
-22.5491

>  <SCORE.INTER.CONST>
1

>  <SCORE.INTER.POLAR>
-1.29915

>  <SCORE.INTER.ROT>
6

>  <SCORE.INTER.SOLV>
17.8007

>  <SCORE.INTER.VDW>
-24.2358

>  <SCORE.INTER.norm>
-1.02496

>  <SCORE.INTRA>
0.313901

>  <SCORE.INTRA.DIHEDRAL>
0.994688

>  <SCORE.INTRA.DIHEDRAL.0>
5.05013

>  <SCORE.INTRA.POLAR>
0

>  <SCORE.INTRA.POLAR.0>
0

>  <SCORE.INTRA.REPUL>
0

>  <SCORE.INTRA.REPUL.0>
0

>  <SCORE.INTRA.SOLV>
-0.126379

>  <SCORE.INTRA.SOLV.lig_0>
-54.1265

>  <SCORE.INTRA.VDW>
-0.120254

>  <SCORE.INTRA.VDW.0>
-2.1303

>  <SCORE.INTRA.norm>
0.0142682

>  <SCORE.RESTR>
0

>  <SCORE.RESTR.CAVITY>
0

>  <SCORE.RESTR.norm>
0

>  <SCORE.SYSTEM>
0

>  <SCORE.SYSTEM.CONST>
0

>  <SCORE.SYSTEM.DIHEDRAL>
0

>  <SCORE.SYSTEM.SOLV>
0

>  <SCORE.SYSTEM.norm>
0

>  <SCORE.heavy>
22

>  <SCORE.norm>
-1.01069

>  <RMSD>
1.217

$$$$
ligand
 OpenBabel11021811443D
libRbt.so/2013.1/901 2013/11/27
 22 23  0  0  0  0  0  0  0  0999 V2000
   17.4849   40.0663   64.0061 C   0  0  0  0  0  0  0  0  0  0  0  0
   24.6055   40.7963   64.9600 C   0  0  0  0  0  0  0  0  0  0  0  0
   29.1854   39.7104   68.2808 P   0  0  1  0  0  0  0  0  0  0  0  0
   19.3683   39.4176   65.3309 N   0  0  0  0  0  0  0  0  0  0  0  0
   28.8164   39.0032   69.5338 O   0  0  0  0  0  0  0  0  0  0  0  0
   24.5293   38.1238   67.9699 S   0  0  0  0  0  0  0  0  0  0  0  0
   23.3050   39.2732   68.0221 C   0  0  0  0  0  0  0  0  0  0  0  0
   18.7190   40.4503   64.6897 C   0  0  0  0  0  0  0  0  0  0  0  0
   29.2600   41.1881   68.4159 O   0  5  0  0  0  0  0  0  0  0  0  0
   23.3123   40.1785   67.0204 N   0  0  0  0  0  0  0  0  0  0  0  0
   19.1578   41.6803   64.6667 N   0  0  0  0  0  0  0  0  0  0  0  0
   30.4179   39.1057   67.6816 O   0  0  0  0  0  0  0  0  0  0  0  0
   24.3794   39.9212   66.1577 C   0  0  2  0  0  0  0  0  0  0  0  0
   20.3354   42.0116   65.3290 C   0  0  0  0  0  0  0  0  0  0  0  0
   20.7763   43.2651   65.2787 N   0  0  0  0  0  0  0  0  0  0  0  0
   25.1587   38.8454   66.5122 C   0  0  1  0  0  0  0  0  0  0  0  0
   21.0514   40.9801   66.0613 C   0  0  0  0  0  0  0  0  0  0  0  0
   26.3674   38.3256   65.8209 C   0  0  0  0  0  0  0  0  0  0  0  0
   20.5198   39.7083   65.9877 C   0  0  0  0  0  0  0  0  0  0  0  0
   27.5314   38.2704   66.7377 C   0  0  0  0  0  0  0  0  0  0  0  0
   22.2727   41.3100   66.8982 C   0  0  0  0  0  0  0  0  0  0  0  0
   28.0155   39.5146   67.2445 O   0  0  0  0  0  0  0  0  0  0  0  0
  1  8  1  0  0  0  0
  3  5  1  1  0  0  0
  3  9  1  0  0  0  0
  3 12  2  0  0  0  0
  3 22  1  0  0  0  0
  4  8  2  0  0  0  0
  4 19  1  0  0  0  0
  6 16  1  0  0  0  0
  6  7  1  0  0  0  0
  7 10  1  0  0  0  0
  8 11  1  0  0  0  0
 10 13  1  0  0  0  0
 10 21  1  0  0  0  0
 11 14  2  0  0  0  0
 13  2  1  1  0  0  0
 13 16  1  0  0  0  0
 14 15  1  0  0  0  0
 14 17  1  0  0  0  0
 16 18  1  1  0  0  0
 17 19  2  0  0  0  0
 17 21  1  0  0  0  0
 18 20  1  0  0  0  0
 20 22  1  0  0  0  0
M  CHG  1   9  -1
M  END
>  <CHROM.1>
-91.92147332,-55.53000382,-150.31297859,-64.39338234,176.82130658,-59.81720275
24.33415415,39.92151708,66.69525612,2.92355800,-0.26286373,-0.23822198

>  <Name>
ligand

>  <RI>
0

>  <Rbt.Current_Directory>
/home/itssahil/PROJECTS/Mol_Feturizer/New_Systems/rnas/2HOM

>  <Rbt.Executable>
rbdock ($Id: //depot/dev/client3/rdock/2013.1/src/exe/rbdock.cxx#4 $)

>  <Rbt.Library>
libRbt.so (2013.1, Build901 2013/11/27)

>  <Rbt.Parameter_File>
/export/apps/rDock/src/rDock_2013.1_src/data/scripts/dock_solv.prm

>  <Rbt.Receptor>
prm/pocket_docking_3.prm

>  <SCORE>
-26.6019

>  <SCORE.INTER>
-26.5258

>  <SCORE.INTER.CONST>
1

>  <SCORE.INTER.POLAR>
-2.81409

>  <SCORE.INTER.ROT>
6

>  <SCORE.INTER.SOLV>
20.2195

>  <SCORE.INTER.VDW>
-22.6434

>  <SCORE.INTER.norm>
-1.20572

>  <SCORE.INTRA>
-0.07603

>  <SCORE.INTRA.DIHEDRAL>
0.118551

>  <SCORE.INTRA.DIHEDRAL.0>
5.05013

>  <SCORE.INTRA.POLAR>
0

>  <SCORE.INTRA.POLAR.0>
0

>  <SCORE.INTRA.REPUL>
0

>  <SCORE.INTRA.REPUL.0>
0

>  <SCORE.INTRA.SOLV>
0.156914

>  <SCORE.INTRA.SOLV.lig_0>
-54.1265

>  <SCORE.INTRA.VDW>
-0.213762

>  <SCORE.INTRA.VDW.0>
-2.1303

>  <SCORE.INTRA.norm>
-0.00345591

>  <SCORE.RESTR>
0

>  <SCORE.RESTR.CAVITY>
0

>  <SCORE.RESTR.norm>
0

>  <SCORE.SYSTEM>
0

>  <SCORE.SYSTEM.CONST>
0

>  <SCORE.SYSTEM.DIHEDRAL>
0

>  <SCORE.SYSTEM.SOLV>
0

>  <SCORE.SYSTEM.norm>
0

>  <SCORE.heavy>
22

>  <SCORE.norm>
-1.20918

>  <RMSD>
1.229

$$$$
ligand
 OpenBabel11021811443D
libRbt.so/2013.1/901 2013/11/27
 22 23  0  0  0  0  0  0  0  0999 V2000
   17.5481   40.1800   64.1662 C   0  0  0  0  0  0  0  0  0  0  0  0
   24.6144   41.9029   65.0198 C   0  0  0  0  0  0  0  0  0  0  0  0
   29.6596   39.8498   67.5156 P   0  0  1  0  0  0  0  0  0  0  0  0
   19.4876   39.3857   65.3196 N   0  0  0  0  0  0  0  0  0  0  0  0
   30.8585   39.9456   66.6441 O   0  0  0  0  0  0  0  0  0  0  0  0
   25.2797   38.2512   66.5785 S   0  0  0  0  0  0  0  0  0  0  0  0
   23.8916   39.0115   67.1423 C   0  0  0  0  0  0  0  0  0  0  0  0
   18.8031   40.4862   64.8511 C   0  0  0  0  0  0  0  0  0  0  0  0
   29.6873   38.7068   68.4643 O   0  5  0  0  0  0  0  0  0  0  0  0
   23.6499   40.2375   66.6307 N   0  0  0  0  0  0  0  0  0  0  0  0
   19.2273   41.7146   64.9821 N   0  0  0  0  0  0  0  0  0  0  0  0
   29.3873   41.1653   68.1783 O   0  0  0  0  0  0  0  0  0  0  0  0
   24.6556   40.5789   65.7246 C   0  0  2  0  0  0  0  0  0  0  0  0
   20.4256   41.9705   65.6405 C   0  0  0  0  0  0  0  0  0  0  0  0
   20.8506   43.2260   65.7477 N   0  0  0  0  0  0  0  0  0  0  0  0
   25.6344   39.6265   65.5665 C   0  0  1  0  0  0  0  0  0  0  0  0
   21.1803   40.8598   66.1971 C   0  0  0  0  0  0  0  0  0  0  0  0
   26.8397   39.6905   64.6991 C   0  0  0  0  0  0  0  0  0  0  0  0
   20.6601   39.6019   65.9680 C   0  0  0  0  0  0  0  0  0  0  0  0
   28.0078   40.2279   65.4374 C   0  0  0  0  0  0  0  0  0  0  0  0
   22.4289   41.0911   67.0266 C   0  0  0  0  0  0  0  0  0  0  0  0
   28.4175   39.5168   66.6061 O   0  0  0  0  0  0  0  0  0  0  0  0
  1  8  1  0  0  0  0
  3  5  1  6  0  0  0
  3  9  1  0  0  0  0
  3 12  2  0  0  0  0
  3 22  1  0  0  0  0
  4  8  2  0  0  0  0
  4 19  1  0  0  0  0
  6 16  1  0  0  0  0
  6  7  1  0  0  0  0
  7 10  1  0  0  0  0
  8 11  1  0  0  0  0
 10 13  1  0  0  0  0
 10 21  1  0  0  0  0
 11 14  2  0  0  0  0
 13  2  1  1  0  0  0
 13 16  1  0  0  0  0
 14 15  1  0  0  0  0
 14 17  1  0  0  0  0
 16 18  1  1  0  0  0
 17 19  2  0  0  0  0
 17 21  1  0  0  0  0
 18 20  1  0  0  0  0
 20 22  1  0  0  0  0
M  CHG  1   9  -1
M  END
>  <CHROM.1>
-88.66629098,-87.19148143,-131.71605004,58.71583644,177.06044917,-52.50389113
24.67192430,40.18769583,66.22491667,3.00556530,-0.17703191,-0.13041619

>  <Name>
ligand

>  <RI>
0

>  <Rbt.Current_Directory>
/home/itssahil/PROJECTS/Mol_Feturizer/New_Systems/rnas/2HOM

>  <Rbt.Executable>
rbdock ($Id: //depot/dev/client3/rdock/2013.1/src/exe/rbdock.cxx#4 $)

>  <Rbt.Library>
libRbt.so (2013.1, Build901 2013/11/27)

>  <Rbt.Parameter_File>
/export/apps/rDock/src/rDock_2013.1_src/data/scripts/dock_solv.prm

>  <Rbt.Receptor>
prm/pocket_docking_4.prm

>  <SCORE>
-24.5457

>  <SCORE.INTER>
-24.3021

>  <SCORE.INTER.CONST>
1

>  <SCORE.INTER.POLAR>
-2.81653

>  <SCORE.INTER.ROT>
6

>  <SCORE.INTER.SOLV>
18.1547

>  <SCORE.INTER.VDW>
-20.4645

>  <SCORE.INTER.norm>
-1.10464

>  <SCORE.INTRA>
-0.243538

>  <SCORE.INTRA.DIHEDRAL>
-0.110161

>  <SCORE.INTRA.DIHEDRAL.0>
5.05013

>  <SCORE.INTRA.POLAR>
0

>  <SCORE.INTRA.POLAR.0>
0

>  <SCORE.INTRA.REPUL>
0

>  <SCORE.INTRA.REPUL.0>
0

>  <SCORE.INTRA.SOLV>
0.669119

>  <SCORE.INTRA.SOLV.lig_0>
-54.1265

>  <SCORE.INTRA.VDW>
-0.523017

>  <SCORE.INTRA.VDW.0>
-2.1303

>  <SCORE.INTRA.norm>
-0.0110699

>  <SCORE.RESTR>
0

>  <SCORE.RESTR.CAVITY>
0

>  <SCORE.RESTR.norm>
0

>  <SCORE.SYSTEM>
0

>  <SCORE.SYSTEM.CONST>
0

>  <SCORE.SYSTEM.DIHEDRAL>
0

>  <SCORE.SYSTEM.SOLV>
0

>  <SCORE.SYSTEM.norm>
0

>  <SCORE.heavy>
22

>  <SCORE.norm>
-1.11571

>  <RMSD>
1.233

$$$$
ligand
 OpenBabel11021811443D
libRbt.so/2013.1/901 2013/11/27
 22 23  0  0  0  0  0  0  0  0999 V2000
   17.2985   39.8913   63.8053 C   0  0  0  0  0  0  0  0  0  0  0  0
   23.2908   39.9332   64.5571 C   0  0  0  0  0  0  0  0  0  0  0  0
   29.0122   39.1497   66.9956 P   0  0  1  0  0  0  0  0  0  0  0  0
   19.1423   39.3712   65.2381 N   0  0  0  0  0  0  0  0  0  0  0  0
   29.1916   39.5050   68.4267 O   0  0  0  0  0  0  0  0  0  0  0  0
   24.7018   38.8266   68.1614 S   0  0  0  0  0  0  0  0  0  0  0  0
   23.4946   39.9940   68.2097 C   0  0  0  0  0  0  0  0  0  0  0  0
   18.4848   40.3508   64.5259 C   0  0  0  0  0  0  0  0  0  0  0  0
   29.1243   40.3019   66.0644 O   0  5  0  0  0  0  0  0  0  0  0  0
   23.0070   40.3782   67.0107 N   0  0  0  0  0  0  0  0  0  0  0  0
   18.8779   41.5952   64.4704 N   0  0  0  0  0  0  0  0  0  0  0  0
   29.8978   37.9993   66.6266 O   0  0  0  0  0  0  0  0  0  0  0  0
   23.6554   39.6800   65.9903 C   0  0  2  0  0  0  0  0  0  0  0  0
   20.0107   41.9990   65.1695 C   0  0  0  0  0  0  0  0  0  0  0  0
   20.4063   43.2658   65.0859 N   0  0  0  0  0  0  0  0  0  0  0  0
   24.6145   38.7935   66.4199 C   0  0  1  0  0  0  0  0  0  0  0  0
   20.7307   41.0269   65.9755 C   0  0  0  0  0  0  0  0  0  0  0  0
   25.4871   37.9198   65.5926 C   0  0  0  0  0  0  0  0  0  0  0  0
   20.2509   39.7332   65.9321 C   0  0  0  0  0  0  0  0  0  0  0  0
   26.8753   38.4379   65.5405 C   0  0  0  0  0  0  0  0  0  0  0  0
   21.8992   41.4381   66.8508 C   0  0  0  0  0  0  0  0  0  0  0  0
   27.5230   38.6799   66.7900 O   0  0  0  0  0  0  0  0  0  0  0  0
  1  8  1  0  0  0  0
  3  5  1  1  0  0  0
  3  9  1  0  0  0  0
  3 12  2  0  0  0  0
  3 22  1  0  0  0  0
  4  8  2  0  0  0  0
  4 19  1  0  0  0  0
  6 16  1  0  0  0  0
  6  7  1  0  0  0  0
  7 10  1  0  0  0  0
  8 11  1  0  0  0  0
 10 13  1  0  0  0  0
 10 21  1  0  0  0  0
 11 14  2  0  0  0  0
 13  2  1  6  0  0  0
 13 16  1  0  0  0  0
 14 15  1  0  0  0  0
 14 17  1  0  0  0  0
 16 18  1  6  0  0  0
 17 19  2  0  0  0  0
 17 21  1  0  0  0  0
 18 20  1  0  0  0  0
 20 22  1  0  0  0  0
M  CHG  1   9  -1
M  END
>  <CHROM.1>
-129.34311194,-74.18977391,-147.47290536,54.23909639,176.35634309,170.14926699
24.02511752,39.79305233,66.23480813,3.05914182,-0.27834479,0.46888268

>  <Name>
ligand

>  <RI>
0

>  <Rbt.Current_Directory>
/home/itssahil/PROJECTS/Mol_Feturizer/New_Systems/rnas/2HOM

>  <Rbt.Executable>
rbdock ($Id: //depot/dev/client3/rdock/2013.1/src/exe/rbdock.cxx#4 $)

>  <Rbt.Library>
libRbt.so (2013.1, Build901 2013/11/27)

>  <Rbt.Parameter_File>
/export/apps/rDock/src/rDock_2013.1_src/data/scripts/dock_solv.prm

>  <Rbt.Receptor>
prm/pocket_docking_2.prm

>  <SCORE>
-23.8016

>  <SCORE.INTER>
-24.2789

>  <SCORE.INTER.CONST>
1

>  <SCORE.INTER.POLAR>
-1.63459

>  <SCORE.INTER.ROT>
6

>  <SCORE.INTER.SOLV>
17.3103

>  <SCORE.INTER.VDW>
-24.1074

>  <SCORE.INTER.norm>
-1.10359

>  <SCORE.INTRA>
0.47738

>  <SCORE.INTRA.DIHEDRAL>
0.257218

>  <SCORE.INTRA.DIHEDRAL.0>
5.05013

>  <SCORE.INTRA.POLAR>
0

>  <SCORE.INTRA.POLAR.0>
0

>  <SCORE.INTRA.REPUL>
0

>  <SCORE.INTRA.REPUL.0>
0

>  <SCORE.INTRA.SOLV>
0.87151

>  <SCORE.INTRA.SOLV.lig_0>
-54.1265

>  <SCORE.INTRA.VDW>
-0.0869842

>  <SCORE.INTRA.VDW.0>
-2.1303

>  <SCORE.INTRA.norm>
0.0216991

>  <SCORE.RESTR>
0

>  <SCORE.RESTR.CAVITY>
0

>  <SCORE.RESTR.norm>
0

>  <SCORE.SYSTEM>
0

>  <SCORE.SYSTEM.CONST>
0

>  <SCORE.SYSTEM.DIHEDRAL>
0

>  <SCORE.SYSTEM.SOLV>
0

>  <SCORE.SYSTEM.norm>
0

>  <SCORE.heavy>
22

>  <SCORE.norm>
-1.08189

>  <RMSD>
1.241

$$$$
ligand
 OpenBabel11021811443D
libRbt.so/2013.1/901 2013/11/27
 22 23  0  0  0  0  0  0  0  0999 V2000
   17.1909   39.9702   63.8046 C   0  0  0  0  0  0  0  0  0  0  0  0
   25.0029   41.6729   67.2779 C   0  0  0  0  0  0  0  0  0  0  0  0
   30.0136   39.7934   66.9893 P   0  0  1  0  0  0  0  0  0  0  0  0
   19.0911   39.2969   65.0929 N   0  0  0  0  0  0  0  0  0  0  0  0
   31.3810   39.7344   66.4124 O   0  0  0  0  0  0  0  0  0  0  0  0
   24.3851   37.9030   66.0078 S   0  0  0  0  0  0  0  0  0  0  0  0
   23.0043   38.8583   66.0652 C   0  0  0  0  0  0  0  0  0  0  0  0
   18.4419   40.3385   64.4660 C   0  0  0  0  0  0  0  0  0  0  0  0
   29.6388   38.5985   67.7886 O   0  5  0  0  0  0  0  0  0  0  0  0
   23.1904   40.1271   66.4878 N   0  0  0  0  0  0  0  0  0  0  0  0
   18.8944   41.5634   64.4372 N   0  0  0  0  0  0  0  0  0  0  0  0
   29.8086   41.0849   67.7198 O   0  0  0  0  0  0  0  0  0  0  0  0
   24.5391   40.3345   66.7830 C   0  0  2  0  0  0  0  0  0  0  0  0
   20.0878   41.8796   65.0781 C   0  0  0  0  0  0  0  0  0  0  0  0
   20.5422   43.1281   65.0221 N   0  0  0  0  0  0  0  0  0  0  0  0
   25.3452   39.2378   66.5893 C   0  0  1  0  0  0  0  0  0  0  0  0
   20.8055   40.8384   65.7949 C   0  0  0  0  0  0  0  0  0  0  0  0
   26.8082   39.1260   66.8263 C   0  0  0  0  0  0  0  0  0  0  0  0
   20.2579   39.5729   65.7286 C   0  0  0  0  0  0  0  0  0  0  0  0
   27.5731   39.9908   65.8959 C   0  0  0  0  0  0  0  0  0  0  0  0
   22.0458   41.1523   66.6095 C   0  0  0  0  0  0  0  0  0  0  0  0
   28.9787   39.7565   65.8025 O   0  0  0  0  0  0  0  0  0  0  0  0
  1  8  1  0  0  0  0
  3  5  1  6  0  0  0
  3  9  1  0  0  0  0
  3 12  2  0  0  0  0
  3 22  1  0  0  0  0
  4  8  2  0  0  0  0
  4 19  1  0  0  0  0
  6 16  1  0  0  0  0
  6  7  1  0  0  0  0
  7 10  1  0  0  0  0
  8 11  1  0  0  0  0
 10 13  1  0  0  0  0
 10 21  1  0  0  0  0
 11 14  2  0  0  0  0
 13  2  1  1  0  0  0
 13 16  1  0  0  0  0
 14 15  1  0  0  0  0
 14 17  1  0  0  0  0
 16 18  1  1  0  0  0
 17 19  2  0  0  0  0
 17 21  1  0  0  0  0
 18 20  1  0  0  0  0
 20 22  1  0  0  0  0
M  CHG  1   9  -1
M  END
>  <CHROM.1>
-20.42772256,114.48945563,-138.89537906,-166.06168515,-57.14763860,-170.06053989
24.49482342,40.03541981,66.10591481,3.06163509,-0.19487202,0.04656099

>  <Name>
ligand

>  <RI>
0

>  <Rbt.Current_Directory>
/home/itssahil/PROJECTS/Mol_Feturizer/New_Systems/rnas/2HOM

>  <Rbt.Executable>
rbdock ($Id: //depot/dev/client3/rdock/2013.1/src/exe/rbdock.cxx#4 $)

>  <Rbt.Library>
libRbt.so (2013.1, Build901 2013/11/27)

>  <Rbt.Parameter_File>
/export/apps/rDock/src/rDock_2013.1_src/data/scripts/dock_solv.prm

>  <Rbt.Receptor>
prm/pocket_docking_2.prm

>  <SCORE>
-22.3954

>  <SCORE.INTER>
-25.4291

>  <SCORE.INTER.CONST>
1

>  <SCORE.INTER.POLAR>
-2.76627

>  <SCORE.INTER.ROT>
6

>  <SCORE.INTER.SOLV>
20.217

>  <SCORE.INTER.VDW>
-22.0709

>  <SCORE.INTER.norm>
-1.15587

>  <SCORE.INTRA>
2.10745

>  <SCORE.INTRA.DIHEDRAL>
0.318924

>  <SCORE.INTRA.DIHEDRAL.0>
5.05013

>  <SCORE.INTRA.POLAR>
0

>  <SCORE.INTRA.POLAR.0>
0

>  <SCORE.INTRA.REPUL>
0

>  <SCORE.INTRA.REPUL.0>
0

>  <SCORE.INTRA.SOLV>
1.89714

>  <SCORE.INTRA.SOLV.lig_0>
-54.1265

>  <SCORE.INTRA.VDW>
0.999425

>  <SCORE.INTRA.VDW.0>
-2.1303

>  <SCORE.INTRA.norm>
0.0957934

>  <SCORE.RESTR>
0.926238

>  <SCORE.RESTR.CAVITY>
0.926238

>  <SCORE.RESTR.norm>
0.0421017

>  <SCORE.SYSTEM>
0

>  <SCORE.SYSTEM.CONST>
0

>  <SCORE.SYSTEM.DIHEDRAL>
0

>  <SCORE.SYSTEM.SOLV>
0

>  <SCORE.SYSTEM.norm>
0

>  <SCORE.heavy>
22

>  <SCORE.norm>
-1.01797

>  <RMSD>
1.268

$$$$
ligand
 OpenBabel11021811443D
libRbt.so/2013.1/901 2013/11/27
 22 23  0  0  0  0  0  0  0  0999 V2000
   16.9301   39.3929   63.8223 C   0  0  0  0  0  0  0  0  0  0  0  0
   24.6882   41.9148   65.0598 C   0  0  0  0  0  0  0  0  0  0  0  0
   29.8121   39.8584   67.4459 P   0  0  1  0  0  0  0  0  0  0  0  0
   19.1751   39.0009   64.5500 N   0  0  0  0  0  0  0  0  0  0  0  0
   29.1402   39.4181   68.6952 O   0  0  0  0  0  0  0  0  0  0  0  0
   24.3971   38.0293   66.0719 S   0  0  0  0  0  0  0  0  0  0  0  0
   22.9871   38.9171   66.2873 C   0  0  0  0  0  0  0  0  0  0  0  0
   18.1760   39.9320   64.3654 C   0  0  0  0  0  0  0  0  0  0  0  0
   30.0388   41.3243   67.3615 O   0  5  0  0  0  0  0  0  0  0  0  0
   23.0637   40.2229   65.9524 N   0  0  0  0  0  0  0  0  0  0  0  0
   18.3107   41.2035   64.6322 N   0  0  0  0  0  0  0  0  0  0  0  0
   31.0504   39.0510   67.2045 O   0  0  0  0  0  0  0  0  0  0  0  0
   24.3482   40.5190   65.4926 C   0  0  2  0  0  0  0  0  0  0  0  0
   19.5097   41.6828   65.1494 C   0  0  0  0  0  0  0  0  0  0  0  0
   19.6345   42.9833   65.3972 N   0  0  0  0  0  0  0  0  0  0  0  0
   25.2173   39.4538   65.4892 C   0  0  1  0  0  0  0  0  0  0  0  0
   20.5938   40.7497   65.4085 C   0  0  0  0  0  0  0  0  0  0  0  0
   26.6461   39.4418   65.0799 C   0  0  0  0  0  0  0  0  0  0  0  0
   20.3572   39.4366   65.0545 C   0  0  0  0  0  0  0  0  0  0  0  0
   27.5049   40.0911   66.0994 C   0  0  0  0  0  0  0  0  0  0  0  0
   21.8769   41.1980   66.0817 C   0  0  0  0  0  0  0  0  0  0  0  0
   28.8338   39.5880   66.2415 O   0  0  0  0  0  0  0  0  0  0  0  0
  1  8  1  0  0  0  0
  3  5  1  1  0  0  0
  3  9  1  0  0  0  0
  3 12  2  0  0  0  0
  3 22  1  0  0  0  0
  4  8  2  0  0  0  0
  4 19  1  0  0  0  0
  6 16  1  0  0  0  0
  6  7  1  0  0  0  0
  7 10  1  0  0  0  0
  8 11  1  0  0  0  0
 10 13  1  0  0  0  0
 10 21  1  0  0  0  0
 11 14  2  0  0  0  0
 13  2  1  1  0  0  0
 13 16  1  0  0  0  0
 14 15  1  0  0  0  0
 14 17  1  0  0  0  0
 16 18  1  1  0  0  0
 17 19  2  0  0  0  0
 17 21  1  0  0  0  0
 18 20  1  0  0  0  0
 20 22  1  0  0  0  0
M  CHG  1   9  -1
M  END
>  <CHROM.1>
-52.80315687,-105.11247203,-164.22136229,148.12387750,-164.63099654,56.90356553
24.29139944,40.02511314,65.91813393,3.08997289,-0.22810670,0.04593628

>  <Name>
ligand

>  <RI>
0

>  <Rbt.Current_Directory>
/home/itssahil/PROJECTS/Mol_Feturizer/New_Systems/rnas/2HOM

>  <Rbt.Executable>
rbdock ($Id: //depot/dev/client3/rdock/2013.1/src/exe/rbdock.cxx#4 $)

>  <Rbt.Library>
libRbt.so (2013.1, Build901 2013/11/27)

>  <Rbt.Parameter_File>
/export/apps/rDock/src/rDock_2013.1_src/data/scripts/dock_solv.prm

>  <Rbt.Receptor>
prm/pocket_docking_2.prm

>  <SCORE>
-21.4844

>  <SCORE.INTER>
-23.7618

>  <SCORE.INTER.CONST>
1

>  <SCORE.INTER.POLAR>
-2.80448

>  <SCORE.INTER.ROT>
6

>  <SCORE.INTER.SOLV>
27.2964

>  <SCORE.INTER.VDW>
-23.1918

>  <SCORE.INTER.norm>
-1.08008

>  <SCORE.INTRA>
2.27542

>  <SCORE.INTRA.DIHEDRAL>
3.63806

>  <SCORE.INTRA.DIHEDRAL.0>
5.05013

>  <SCORE.INTRA.POLAR>
0

>  <SCORE.INTRA.POLAR.0>
0

>  <SCORE.INTRA.REPUL>
0

>  <SCORE.INTRA.REPUL.0>
0

>  <SCORE.INTRA.SOLV>
-0.0271179

>  <SCORE.INTRA.SOLV.lig_0>
-54.1265

>  <SCORE.INTRA.VDW>
0.469956

>  <SCORE.INTRA.VDW.0>
-2.1303

>  <SCORE.INTRA.norm>
0.103428

>  <SCORE.RESTR>
0.0019892

>  <SCORE.RESTR.CAVITY>
0.0019892

>  <SCORE.RESTR.norm>
9.0418e-05

>  <SCORE.SYSTEM>
0

>  <SCORE.SYSTEM.CONST>
0

>  <SCORE.SYSTEM.DIHEDRAL>
0

>  <SCORE.SYSTEM.SOLV>
0

>  <SCORE.SYSTEM.norm>
0

>  <SCORE.heavy>
22

>  <SCORE.norm>
-0.976563

>  <RMSD>
1.274

$$$$
ligand
 OpenBabel11021811443D
libRbt.so/2013.1/901 2013/11/27
 22 23  0  0  0  0  0  0  0  0999 V2000
   17.0414   39.4157   63.8732 C   0  0  0  0  0  0  0  0  0  0  0  0
   25.0178   41.8047   65.0687 C   0  0  0  0  0  0  0  0  0  0  0  0
   29.9032   39.5977   66.5283 P   0  0  1  0  0  0  0  0  0  0  0  0
   19.3145   39.0229   64.5070 N   0  0  0  0  0  0  0  0  0  0  0  0
   30.8865   39.7667   65.4279 O   0  0  0  0  0  0  0  0  0  0  0  0
   24.4384   37.9323   66.0043 S   0  0  0  0  0  0  0  0  0  0  0  0
   23.0658   38.8942   66.1200 C   0  0  0  0  0  0  0  0  0  0  0  0
   18.3149   39.9575   64.3450 C   0  0  0  0  0  0  0  0  0  0  0  0
   30.5024   39.1701   67.8188 O   0  5  0  0  0  0  0  0  0  0  0  0
   23.2389   40.1967   65.8092 N   0  0  0  0  0  0  0  0  0  0  0  0
   18.4710   41.2341   64.5734 N   0  0  0  0  0  0  0  0  0  0  0  0
   29.0381   40.8145   66.6492 O   0  0  0  0  0  0  0  0  0  0  0  0
   24.5698   40.4260   65.4553 C   0  0  2  0  0  0  0  0  0  0  0  0
   19.6960   41.7159   65.0229 C   0  0  0  0  0  0  0  0  0  0  0  0
   19.8416   43.0210   65.2320 N   0  0  0  0  0  0  0  0  0  0  0  0
   25.3778   39.3147   65.5063 C   0  0  1  0  0  0  0  0  0  0  0  0
   20.7840   40.7803   65.2554 C   0  0  0  0  0  0  0  0  0  0  0  0
   26.8317   39.2280   65.2101 C   0  0  0  0  0  0  0  0  0  0  0  0
   20.5218   39.4609   64.9457 C   0  0  0  0  0  0  0  0  0  0  0  0
   27.5352   38.3820   66.2040 C   0  0  0  0  0  0  0  0  0  0  0  0
   22.0999   41.2342   65.8577 C   0  0  0  0  0  0  0  0  0  0  0  0
   28.9627   38.3880   66.1639 O   0  0  0  0  0  0  0  0  0  0  0  0
  1  8  1  0  0  0  0
  3  5  1  6  0  0  0
  3  9  1  0  0  0  0
  3 12  2  0  0  0  0
  3 22  1  0  0  0  0
  4  8  2  0  0  0  0
  4 19  1  0  0  0  0
  6 16  1  0  0  0  0
  6  7  1  0  0  0  0
  7 10  1  0  0  0  0
  8 11  1  0  0  0  0
 10 13  1  0  0  0  0
 10 21  1  0  0  0  0
 11 14  2  0  0  0  0
 13  2  1  1  0  0  0
 13 16  1  0  0  0  0
 14 15  1  0  0  0  0
 14 17  1  0  0  0  0
 16 18  1  1  0  0  0
 17 19  2  0  0  0  0
 17 21  1  0  0  0  0
 18 20  1  0  0  0  0
 20 22  1  0  0  0  0
M  CHG  1   9  -1
M  END
>  <CHROM.1>
-44.22320840,-42.00013378,-169.38755884,-170.22398527,67.99919878,-130.64911340
24.42524501,39.84933571,65.63066889,3.03533794,-0.16141159,-0.01405375

>  <Name>
ligand

>  <RI>
0

>  <Rbt.Current_Directory>
/home/itssahil/PROJECTS/Mol_Feturizer/New_Systems/rnas/2HOM

>  <Rbt.Executable>
rbdock ($Id: //depot/dev/client3/rdock/2013.1/src/exe/rbdock.cxx#4 $)

>  <Rbt.Library>
libRbt.so (2013.1, Build901 2013/11/27)

>  <Rbt.Parameter_File>
/export/apps/rDock/src/rDock_2013.1_src/data/scripts/dock_solv.prm

>  <Rbt.Receptor>
prm/pocket_docking_2.prm

>  <SCORE>
-19.1316

>  <SCORE.INTER>
-22.5389

>  <SCORE.INTER.CONST>
1

>  <SCORE.INTER.POLAR>
-1.63459

>  <SCORE.INTER.ROT>
6

>  <SCORE.INTER.SOLV>
19.69

>  <SCORE.INTER.VDW>
-23.7407

>  <SCORE.INTER.norm>
-1.0245

>  <SCORE.INTRA>
3.37714

>  <SCORE.INTRA.DIHEDRAL>
2.80309

>  <SCORE.INTRA.DIHEDRAL.0>
5.05013

>  <SCORE.INTRA.POLAR>
0

>  <SCORE.INTRA.POLAR.0>
0

>  <SCORE.INTRA.REPUL>
0

>  <SCORE.INTRA.REPUL.0>
0

>  <SCORE.INTRA.SOLV>
1.52578

>  <SCORE.INTRA.SOLV.lig_0>
-54.1265

>  <SCORE.INTRA.VDW>
1.2127

>  <SCORE.INTRA.VDW.0>
-2.1303

>  <SCORE.INTRA.norm>
0.153506

>  <SCORE.RESTR>
0.0301805

>  <SCORE.RESTR.CAVITY>
0.0301805

>  <SCORE.RESTR.norm>
0.00137184

>  <SCORE.SYSTEM>
0

>  <SCORE.SYSTEM.CONST>
0

>  <SCORE.SYSTEM.DIHEDRAL>
0

>  <SCORE.SYSTEM.SOLV>
0

>  <SCORE.SYSTEM.norm>
0

>  <SCORE.heavy>
22

>  <SCORE.norm>
-0.869619

>  <RMSD>
1.287

$$$$
ligand
 OpenBabel11021811443D
libRbt.so/2013.1/901 2013/11/27
 22 23  0  0  0  0  0  0  0  0999 V2000
   17.2858   39.9479   63.7977 C   0  0  0  0  0  0  0  0  0  0  0  0
   24.4717   41.3768   64.6755 C   0  0  0  0  0  0  0  0  0  0  0  0
   28.9849   39.1399   67.0572 P   0  0  1  0  0  0  0  0  0  0  0  0
   19.3277   39.2572   64.8353 N   0  0  0  0  0  0  0  0  0  0  0  0
   29.9514   39.2348   65.9333 O   0  0  0  0  0  0  0  0  0  0  0  0
   24.7127   37.9869   66.8336 S   0  0  0  0  0  0  0  0  0  0  0  0
   23.3771   38.9453   67.1808 C   0  0  0  0  0  0  0  0  0  0  0  0
   18.5213   40.3188   64.4861 C   0  0  0  0  0  0  0  0  0  0  0  0
   29.5651   38.6009   68.3142 O   0  5  0  0  0  0  0  0  0  0  0  0
   23.2773   40.0868   66.4666 N   0  0  0  0  0  0  0  0  0  0  0  0
   18.8209   41.5673   64.7259 N   0  0  0  0  0  0  0  0  0  0  0  0
   28.2692   40.4424   67.2439 O   0  0  0  0  0  0  0  0  0  0  0  0
   24.3534   40.1878   65.5830 C   0  0  2  0  0  0  0  0  0  0  0  0
   20.0044   41.8849   65.3842 C   0  0  0  0  0  0  0  0  0  0  0  0
   20.3013   43.1625   65.6030 N   0  0  0  0  0  0  0  0  0  0  0  0
   25.2443   39.1422   65.6402 C   0  0  1  0  0  0  0  0  0  0  0  0
   20.8841   40.8124   65.8188 C   0  0  0  0  0  0  0  0  0  0  0  0
   26.4908   38.9598   64.8513 C   0  0  0  0  0  0  0  0  0  0  0  0
   20.4894   39.5337   65.4802 C   0  0  0  0  0  0  0  0  0  0  0  0
   27.3171   37.8557   65.3959 C   0  0  0  0  0  0  0  0  0  0  0  0
   22.1249   41.0949   66.6441 C   0  0  0  0  0  0  0  0  0  0  0  0
   27.9020   38.0592   66.6827 O   0  0  0  0  0  0  0  0  0  0  0  0
  1  8  1  0  0  0  0
  3  5  1  6  0  0  0
  3  9  1  0  0  0  0
  3 12  2  0  0  0  0
  3 22  1  0  0  0  0
  4  8  2  0  0  0  0
  4 19  1  0  0  0  0
  6 16  1  0  0  0  0
  6  7  1  0  0  0  0
  7 10  1  0  0  0  0
  8 11  1  0  0  0  0
 10 13  1  0  0  0  0
 10 21  1  0  0  0  0
 11 14  2  0  0  0  0
 13  2  1  1  0  0  0
 13 16  1  0  0  0  0
 14 15  1  0  0  0  0
 14 17  1  0  0  0  0
 16 18  1  1  0  0  0
 17 19  2  0  0  0  0
 17 21  1  0  0  0  0
 18 20  1  0  0  0  0
 20 22  1  0  0  0  0
M  CHG  1   9  -1
M  END
>  <CHROM.1>
-86.74124815,-11.28205515,-151.46792896,-67.54620485,-64.45582079,-39.39501949
24.21210849,39.72824270,65.98629273,2.94178983,-0.19524795,-0.00632384

>  <Name>
ligand

>  <RI>
0

>  <Rbt.Current_Directory>
/home/itssahil/PROJECTS/Mol_Feturizer/New_Systems/rnas/2HOM

>  <Rbt.Executable>
rbdock ($Id: //depot/dev/client3/rdock/2013.1/src/exe/rbdock.cxx#4 $)

>  <Rbt.Library>
libRbt.so (2013.1, Build901 2013/11/27)

>  <Rbt.Parameter_File>
/export/apps/rDock/src/rDock_2013.1_src/data/scripts/dock_solv.prm

>  <Rbt.Receptor>
prm/pocket_docking_3.prm

>  <SCORE>
-21.9466

>  <SCORE.INTER>
-23.2776

>  <SCORE.INTER.CONST>
1

>  <SCORE.INTER.POLAR>
-1.63459

>  <SCORE.INTER.ROT>
6

>  <SCORE.INTER.SOLV>
16.274

>  <SCORE.INTER.VDW>
-23.0944

>  <SCORE.INTER.norm>
-1.05807

>  <SCORE.INTRA>
1.33103

>  <SCORE.INTRA.DIHEDRAL>
0.375489

>  <SCORE.INTRA.DIHEDRAL.0>
5.05013

>  <SCORE.INTRA.POLAR>
0

>  <SCORE.INTRA.POLAR.0>
0

>  <SCORE.INTRA.REPUL>
0

>  <SCORE.INTRA.REPUL.0>
0

>  <SCORE.INTRA.SOLV>
1.17587

>  <SCORE.INTRA.SOLV.lig_0>
-54.1265

>  <SCORE.INTRA.VDW>
0.555354

>  <SCORE.INTRA.VDW.0>
-2.1303

>  <SCORE.INTRA.norm>
0.0605015

>  <SCORE.RESTR>
0

>  <SCORE.RESTR.CAVITY>
0

>  <SCORE.RESTR.norm>
0

>  <SCORE.SYSTEM>
0

>  <SCORE.SYSTEM.CONST>
0

>  <SCORE.SYSTEM.DIHEDRAL>
0

>  <SCORE.SYSTEM.SOLV>
0

>  <SCORE.SYSTEM.norm>
0

>  <SCORE.heavy>
22

>  <SCORE.norm>
-0.997571

>  <RMSD>
1.311

$$$$
ligand
 OpenBabel11021811443D
libRbt.so/2013.1/901 2013/11/27
 22 23  0  0  0  0  0  0  0  0999 V2000
   17.1799   40.1106   63.8489 C   0  0  0  0  0  0  0  0  0  0  0  0
   24.3198   40.5826   64.6368 C   0  0  0  0  0  0  0  0  0  0  0  0
   28.8270   39.5348   67.6794 P   0  0  1  0  0  0  0  0  0  0  0  0
   19.0906   39.3159   65.0491 N   0  0  0  0  0  0  0  0  0  0  0  0
   28.6511   39.5228   69.1542 O   0  0  0  0  0  0  0  0  0  0  0  0
   24.2798   37.7073   67.4542 S   0  0  0  0  0  0  0  0  0  0  0  0
   23.0892   38.8793   67.6320 C   0  0  0  0  0  0  0  0  0  0  0  0
   18.4401   40.4125   64.5260 C   0  0  0  0  0  0  0  0  0  0  0  0
   28.7814   40.8902   67.0726 O   0  5  0  0  0  0  0  0  0  0  0  0
   23.0850   39.8525   66.6961 N   0  0  0  0  0  0  0  0  0  0  0  0
   18.8989   41.6330   64.6022 N   0  0  0  0  0  0  0  0  0  0  0  0
   30.0425   38.7505   67.2905 O   0  0  0  0  0  0  0  0  0  0  0  0
   24.1134   39.6310   65.7783 C   0  0  2  0  0  0  0  0  0  0  0  0
   20.1011   41.8851   65.2550 C   0  0  0  0  0  0  0  0  0  0  0  0
   20.5615   43.1315   65.3061 N   0  0  0  0  0  0  0  0  0  0  0  0
   24.8758   38.5144   66.0278 C   0  0  1  0  0  0  0  0  0  0  0  0
   20.8211   40.7804   65.8669 C   0  0  0  0  0  0  0  0  0  0  0  0
   26.0449   38.0157   65.2572 C   0  0  0  0  0  0  0  0  0  0  0  0
   20.2660   39.5285   65.6935 C   0  0  0  0  0  0  0  0  0  0  0  0
   27.2864   38.7319   65.6367 C   0  0  0  0  0  0  0  0  0  0  0  0
   22.0721   41.0144   66.6919 C   0  0  0  0  0  0  0  0  0  0  0  0
   27.5814   38.8214   67.0311 O   0  0  0  0  0  0  0  0  0  0  0  0
  1  8  1  0  0  0  0
  3  5  1  1  0  0  0
  3  9  1  0  0  0  0
  3 12  2  0  0  0  0
  3 22  1  0  0  0  0
  4  8  2  0  0  0  0
  4 19  1  0  0  0  0
  6 16  1  0  0  0  0
  6  7  1  0  0  0  0
  7 10  1  0  0  0  0
  8 11  1  0  0  0  0
 10 13  1  0  0  0  0
 10 21  1  0  0  0  0
 11 14  2  0  0  0  0
 13  2  1  1  0  0  0
 13 16  1  0  0  0  0
 14 15  1  0  0  0  0
 14 17  1  0  0  0  0
 16 18  1  1  0  0  0
 17 19  2  0  0  0  0
 17 21  1  0  0  0  0
 18 20  1  0  0  0  0
 20 22  1  0  0  0  0
M  CHG  1   9  -1
M  END
>  <CHROM.1>
-92.62599847,-97.66837651,-151.28531363,50.36967350,-179.56133023,173.43153839
24.04862531,39.73336641,66.28660189,2.93742669,-0.22848133,-0.17977475

>  <Name>
ligand

>  <RI>
0

>  <Rbt.Current_Directory>
/home/itssahil/PROJECTS/Mol_Feturizer/New_Systems/rnas/2HOM

>  <Rbt.Executable>
rbdock ($Id: //depot/dev/client3/rdock/2013.1/src/exe/rbdock.cxx#4 $)

>  <Rbt.Library>
libRbt.so (2013.1, Build901 2013/11/27)

>  <Rbt.Parameter_File>
/export/apps/rDock/src/rDock_2013.1_src/data/scripts/dock_solv.prm

>  <Rbt.Receptor>
prm/pocket_docking_3.prm

>  <SCORE>
-23.9217

>  <SCORE.INTER>
-23.9169

>  <SCORE.INTER.CONST>
1

>  <SCORE.INTER.POLAR>
-1.6315

>  <SCORE.INTER.ROT>
6

>  <SCORE.INTER.SOLV>
16.325

>  <SCORE.INTER.VDW>
-23.5479

>  <SCORE.INTER.norm>
-1.08713

>  <SCORE.INTRA>
-0.0048285

>  <SCORE.INTRA.DIHEDRAL>
-0.0227727

>  <SCORE.INTRA.DIHEDRAL.0>
5.05013

>  <SCORE.INTRA.POLAR>
0

>  <SCORE.INTRA.POLAR.0>
0

>  <SCORE.INTRA.REPUL>
0

>  <SCORE.INTRA.REPUL.0>
0

>  <SCORE.INTRA.SOLV>
0.713636

>  <SCORE.INTRA.SOLV.lig_0>
-54.1265

>  <SCORE.INTRA.VDW>
-0.35026

>  <SCORE.INTRA.VDW.0>
-2.1303

>  <SCORE.INTRA.norm>
-0.000219477

>  <SCORE.RESTR>
0

>  <SCORE.RESTR.CAVITY>
0

>  <SCORE.RESTR.norm>
0

>  <SCORE.SYSTEM>
0

>  <SCORE.SYSTEM.CONST>
0

>  <SCORE.SYSTEM.DIHEDRAL>
0

>  <SCORE.SYSTEM.SOLV>
0

>  <SCORE.SYSTEM.norm>
0

>  <SCORE.heavy>
22

>  <SCORE.norm>
-1.08735

>  <RMSD>
1.326

$$$$
ligand
 OpenBabel11021811443D
libRbt.so/2013.1/901 2013/11/27
 22 23  0  0  0  0  0  0  0  0999 V2000
   17.8859   40.3732   64.5167 C   0  0  0  0  0  0  0  0  0  0  0  0
   24.5859   40.8646   64.9062 C   0  0  0  0  0  0  0  0  0  0  0  0
   29.2914   39.6864   66.8822 P   0  0  1  0  0  0  0  0  0  0  0  0
   19.6818   39.4537   65.8021 N   0  0  0  0  0  0  0  0  0  0  0  0
   27.9793   40.0787   67.4572 O   0  0  0  0  0  0  0  0  0  0  0  0
   25.4702   37.8785   67.4573 S   0  0  0  0  0  0  0  0  0  0  0  0
   24.2248   38.8865   67.9630 C   0  0  0  0  0  0  0  0  0  0  0  0
   19.1602   40.5800   65.2031 C   0  0  0  0  0  0  0  0  0  0  0  0
   29.9957   40.7838   66.1700 O   0  5  0  0  0  0  0  0  0  0  0  0
   23.9120   39.8942   67.1205 N   0  0  0  0  0  0  0  0  0  0  0  0
   19.7452   41.7477   65.2197 N   0  0  0  0  0  0  0  0  0  0  0  0
   30.1370   39.0121   67.9185 O   0  0  0  0  0  0  0  0  0  0  0  0
   24.7361   39.8430   65.9948 C   0  0  2  0  0  0  0  0  0  0  0  0
   20.9569   41.9097   65.8834 C   0  0  0  0  0  0  0  0  0  0  0  0
   21.5466   43.1014   65.8736 N   0  0  0  0  0  0  0  0  0  0  0  0
   25.6522   38.8178   65.9992 C   0  0  1  0  0  0  0  0  0  0  0  0
   21.5453   40.7733   66.5730 C   0  0  0  0  0  0  0  0  0  0  0  0
   26.6751   38.5022   64.9680 C   0  0  0  0  0  0  0  0  0  0  0  0
   20.8628   39.5789   66.4591 C   0  0  0  0  0  0  0  0  0  0  0  0
   27.8588   37.8402   65.5671 C   0  0  0  0  0  0  0  0  0  0  0  0
   22.8009   40.9224   67.4108 C   0  0  0  0  0  0  0  0  0  0  0  0
   29.0307   38.6387   65.7354 O   0  0  0  0  0  0  0  0  0  0  0  0
  1  8  1  0  0  0  0
  3  5  1  1  0  0  0
  3  9  1  0  0  0  0
  3 12  2  0  0  0  0
  3 22  1  0  0  0  0
  4  8  2  0  0  0  0
  4 19  1  0  0  0  0
  6 16  1  0  0  0  0
  6  7  1  0  0  0  0
  7 10  1  0  0  0  0
  8 11  1  0  0  0  0
 10 13  1  0  0  0  0
 10 21  1  0  0  0  0
 11 14  2  0  0  0  0
 13  2  1  1  0  0  0
 13 16  1  0  0  0  0
 14 15  1  0  0  0  0
 14 17  1  0  0  0  0
 16 18  1  1  0  0  0
 17 19  2  0  0  0  0
 17 21  1  0  0  0  0
 18 20  1  0  0  0  0
 20 22  1  0  0  0  0
M  CHG  1   9  -1
M  END
>  <CHROM.1>
-107.63709892,-28.45263390,-130.51703435,-103.89303379,78.77906335,-20.47637967
24.75124827,39.82961455,66.33066543,2.94157843,-0.07811223,-0.22207177

>  <Name>
ligand

>  <RI>
0

>  <Rbt.Current_Directory>
/home/itssahil/PROJECTS/Mol_Feturizer/New_Systems/rnas/2HOM

>  <Rbt.Executable>
rbdock ($Id: //depot/dev/client3/rdock/2013.1/src/exe/rbdock.cxx#4 $)

>  <Rbt.Library>
libRbt.so (2013.1, Build901 2013/11/27)

>  <Rbt.Parameter_File>
/export/apps/rDock/src/rDock_2013.1_src/data/scripts/dock_solv.prm

>  <Rbt.Receptor>
prm/pocket_docking_2.prm

>  <SCORE>
-17.9046

>  <SCORE.INTER>
-22.0959

>  <SCORE.INTER.CONST>
1

>  <SCORE.INTER.POLAR>
-1.63459

>  <SCORE.INTER.ROT>
6

>  <SCORE.INTER.SOLV>
11.6688

>  <SCORE.INTER.VDW>
-20.7716

>  <SCORE.INTER.norm>
-1.00436

>  <SCORE.INTRA>
4.13151

>  <SCORE.INTRA.DIHEDRAL>
7.70584

>  <SCORE.INTRA.DIHEDRAL.0>
5.05013

>  <SCORE.INTRA.POLAR>
0

>  <SCORE.INTRA.POLAR.0>
0

>  <SCORE.INTRA.REPUL>
0

>  <SCORE.INTRA.REPUL.0>
0

>  <SCORE.INTRA.SOLV>
1.16075

>  <SCORE.INTRA.SOLV.lig_0>
-54.1265

>  <SCORE.INTRA.VDW>
-0.301789

>  <SCORE.INTRA.VDW.0>
-2.1303

>  <SCORE.INTRA.norm>
0.187796

>  <SCORE.RESTR>
0.0598117

>  <SCORE.RESTR.CAVITY>
0.0598117

>  <SCORE.RESTR.norm>
0.00271871

>  <SCORE.SYSTEM>
0

>  <SCORE.SYSTEM.CONST>
0

>  <SCORE.SYSTEM.DIHEDRAL>
0

>  <SCORE.SYSTEM.SOLV>
0

>  <SCORE.SYSTEM.norm>
0

>  <SCORE.heavy>
22

>  <SCORE.norm>
-0.813847

>  <RMSD>
1.340

$$$$
ligand
 OpenBabel11021811443D
libRbt.so/2013.1/901 2013/11/27
 22 23  0  0  0  0  0  0  0  0999 V2000
   17.0687   40.0006   63.7225 C   0  0  0  0  0  0  0  0  0  0  0  0
   25.0758   41.1271   66.9978 C   0  0  0  0  0  0  0  0  0  0  0  0
   29.9160   39.6737   66.7568 P   0  0  1  0  0  0  0  0  0  0  0  0
   19.0310   39.1698   64.8100 N   0  0  0  0  0  0  0  0  0  0  0  0
   30.7533   39.4998   65.5423 O   0  0  0  0  0  0  0  0  0  0  0  0
   24.2029   37.4750   65.5465 S   0  0  0  0  0  0  0  0  0  0  0  0
   22.8837   38.5051   65.6915 C   0  0  0  0  0  0  0  0  0  0  0  0
   18.3566   40.2822   64.3550 C   0  0  0  0  0  0  0  0  0  0  0  0
   29.5707   38.4028   67.4444 O   0  5  0  0  0  0  0  0  0  0  0  0
   23.1556   39.7358   66.1757 N   0  0  0  0  0  0  0  0  0  0  0  0
   18.8162   41.5007   64.4549 N   0  0  0  0  0  0  0  0  0  0  0  0
   30.5212   40.6968   67.6682 O   0  0  0  0  0  0  0  0  0  0  0  0
   24.5209   39.8473   66.4452 C   0  0  2  0  0  0  0  0  0  0  0  0
   20.0450   41.7332   65.0639 C   0  0  0  0  0  0  0  0  0  0  0  0
   20.5051   42.9786   65.1397 N   0  0  0  0  0  0  0  0  0  0  0  0
   25.2549   38.7174   66.1719 C   0  0  1  0  0  0  0  0  0  0  0  0
   20.7927   40.6098   65.6042 C   0  0  0  0  0  0  0  0  0  0  0  0
   26.7138   38.5072   66.3633 C   0  0  0  0  0  0  0  0  0  0  0  0
   20.2327   39.3631   65.4103 C   0  0  0  0  0  0  0  0  0  0  0  0
   27.5068   39.4951   65.5929 C   0  0  0  0  0  0  0  0  0  0  0  0
   22.0778   40.8183   66.3823 C   0  0  0  0  0  0  0  0  0  0  0  0
   28.5084   40.2197   66.3078 O   0  0  0  0  0  0  0  0  0  0  0  0
  1  8  1  0  0  0  0
  3  5  1  6  0  0  0
  3  9  1  0  0  0  0
  3 12  2  0  0  0  0
  3 22  1  0  0  0  0
  4  8  2  0  0  0  0
  4 19  1  0  0  0  0
  6 16  1  0  0  0  0
  6  7  1  0  0  0  0
  7 10  1  0  0  0  0
  8 11  1  0  0  0  0
 10 13  1  0  0  0  0
 10 21  1  0  0  0  0
 11 14  2  0  0  0  0
 13  2  1  1  0  0  0
 13 16  1  0  0  0  0
 14 15  1  0  0  0  0
 14 17  1  0  0  0  0
 16 18  1  1  0  0  0
 17 19  2  0  0  0  0
 17 21  1  0  0  0  0
 18 20  1  0  0  0  0
 20 22  1  0  0  0  0
M  CHG  1   9  -1
M  END
>  <CHROM.1>
-19.41592183,121.92858191,-144.70964240,128.44584415,76.28503386,70.27577842
24.41714791,39.78353748,65.86672525,3.06991281,-0.19006754,0.10416381

>  <Name>
ligand

>  <RI>
0

>  <Rbt.Current_Directory>
/home/itssahil/PROJECTS/Mol_Feturizer/New_Systems/rnas/2HOM

>  <Rbt.Executable>
rbdock ($Id: //depot/dev/client3/rdock/2013.1/src/exe/rbdock.cxx#4 $)

>  <Rbt.Library>
libRbt.so (2013.1, Build901 2013/11/27)

>  <Rbt.Parameter_File>
/export/apps/rDock/src/rDock_2013.1_src/data/scripts/dock_solv.prm

>  <Rbt.Receptor>
prm/pocket_docking_2.prm

>  <SCORE>
-20.8215

>  <SCORE.INTER>
-26.9761

>  <SCORE.INTER.CONST>
1

>  <SCORE.INTER.POLAR>
-2.80371

>  <SCORE.INTER.ROT>
6

>  <SCORE.INTER.SOLV>
20.5127

>  <SCORE.INTER.VDW>
-23.076

>  <SCORE.INTER.norm>
-1.22619

>  <SCORE.INTRA>
4.79285

>  <SCORE.INTRA.DIHEDRAL>
6.03112

>  <SCORE.INTRA.DIHEDRAL.0>
5.05013

>  <SCORE.INTRA.POLAR>
0

>  <SCORE.INTRA.POLAR.0>
0

>  <SCORE.INTRA.REPUL>
0

>  <SCORE.INTRA.REPUL.0>
0

>  <SCORE.INTRA.SOLV>
0.949457

>  <SCORE.INTRA.SOLV.lig_0>
-54.1265

>  <SCORE.INTRA.VDW>
1.30256

>  <SCORE.INTRA.VDW.0>
-2.1303

>  <SCORE.INTRA.norm>
0.217857

>  <SCORE.RESTR>
1.36178

>  <SCORE.RESTR.CAVITY>
1.36178

>  <SCORE.RESTR.norm>
0.0618993

>  <SCORE.SYSTEM>
0

>  <SCORE.SYSTEM.CONST>
0

>  <SCORE.SYSTEM.DIHEDRAL>
0

>  <SCORE.SYSTEM.SOLV>
0

>  <SCORE.SYSTEM.norm>
0

>  <SCORE.heavy>
22

>  <SCORE.norm>
-0.946432

>  <RMSD>
1.393

$$$$
ligand
 OpenBabel11021811443D
libRbt.so/2013.1/901 2013/11/27
 22 23  0  0  0  0  0  0  0  0999 V2000
   17.0830   40.0735   63.6893 C   0  0  0  0  0  0  0  0  0  0  0  0
   25.0485   41.1792   66.9157 C   0  0  0  0  0  0  0  0  0  0  0  0
   29.6535   39.7848   67.3246 P   0  0  1  0  0  0  0  0  0  0  0  0
   18.9637   39.1958   64.8791 N   0  0  0  0  0  0  0  0  0  0  0  0
   30.9856   39.1281   67.2984 O   0  0  0  0  0  0  0  0  0  0  0  0
   24.2067   37.4644   65.6125 S   0  0  0  0  0  0  0  0  0  0  0  0
   22.8661   38.4566   65.8151 C   0  0  0  0  0  0  0  0  0  0  0  0
   18.3600   40.3195   64.3575 C   0  0  0  0  0  0  0  0  0  0  0  0
   29.5430   40.8966   68.3039 O   0  5  0  0  0  0  0  0  0  0  0  0
   23.1273   39.7076   66.2508 N   0  0  0  0  0  0  0  0  0  0  0  0
   18.8741   41.5182   64.4277 N   0  0  0  0  0  0  0  0  0  0  0  0
   29.2316   40.1688   65.9396 O   0  0  0  0  0  0  0  0  0  0  0  0
   24.5024   39.8686   66.4308 C   0  0  2  0  0  0  0  0  0  0  0  0
   20.0907   41.7170   65.0721 C   0  0  0  0  0  0  0  0  0  0  0  0
   20.6074   42.9414   65.1172 N   0  0  0  0  0  0  0  0  0  0  0  0
   25.2545   38.7551   66.1396 C   0  0  1  0  0  0  0  0  0  0  0  0
   20.7640   40.5822   65.6821 C   0  0  0  0  0  0  0  0  0  0  0  0
   26.7285   38.5955   66.2436 C   0  0  0  0  0  0  0  0  0  0  0  0
   20.1516   39.3563   65.5154 C   0  0  0  0  0  0  0  0  0  0  0  0
   27.1926   38.7680   67.6412 C   0  0  0  0  0  0  0  0  0  0  0  0
   22.0297   40.7611   66.4984 C   0  0  0  0  0  0  0  0  0  0  0  0
   28.6031   38.7417   67.8626 O   0  0  0  0  0  0  0  0  0  0  0  0
  1  8  1  0  0  0  0
  3  5  1  6  0  0  0
  3  9  1  0  0  0  0
  3 12  2  0  0  0  0
  3 22  1  0  0  0  0
  4  8  2  0  0  0  0
  4 19  1  0  0  0  0
  6 16  1  0  0  0  0
  6  7  1  0  0  0  0
  7 10  1  0  0  0  0
  8 11  1  0  0  0  0
 10 13  1  0  0  0  0
 10 21  1  0  0  0  0
 11 14  2  0  0  0  0
 13  2  1  1  0  0  0
 13 16  1  0  0  0  0
 14 15  1  0  0  0  0
 14 17  1  0  0  0  0
 16 18  1  1  0  0  0
 17 19  2  0  0  0  0
 17 21  1  0  0  0  0
 18 20  1  0  0  0  0
 20 22  1  0  0  0  0
M  CHG  1   9  -1
M  END
>  <CHROM.1>
-26.33337631,-117.56242819,-137.98738252,-175.29558085,64.82614150,-157.46701721
24.33112472,39.77392046,66.13285940,3.07556797,-0.25487828,0.10987592

>  <Name>
ligand

>  <RI>
0

>  <Rbt.Current_Directory>
/home/itssahil/PROJECTS/Mol_Feturizer/New_Systems/rnas/2HOM

>  <Rbt.Executable>
rbdock ($Id: //depot/dev/client3/rdock/2013.1/src/exe/rbdock.cxx#4 $)

>  <Rbt.Library>
libRbt.so (2013.1, Build901 2013/11/27)

>  <Rbt.Parameter_File>
/export/apps/rDock/src/rDock_2013.1_src/data/scripts/dock_solv.prm

>  <Rbt.Receptor>
prm/pocket_docking_3.prm

>  <SCORE>
-24.0529

>  <SCORE.INTER>
-26.1818

>  <SCORE.INTER.CONST>
1

>  <SCORE.INTER.POLAR>
-2.47065

>  <SCORE.INTER.ROT>
6

>  <SCORE.INTER.SOLV>
18.0197

>  <SCORE.INTER.VDW>
-22.8256

>  <SCORE.INTER.norm>
-1.19008

>  <SCORE.INTRA>
2.12893

>  <SCORE.INTRA.DIHEDRAL>
0.319634

>  <SCORE.INTRA.DIHEDRAL.0>
5.05013

>  <SCORE.INTRA.POLAR>
0

>  <SCORE.INTRA.POLAR.0>
0

>  <SCORE.INTRA.REPUL>
0

>  <SCORE.INTRA.REPUL.0>
0

>  <SCORE.INTRA.SOLV>
1.97374

>  <SCORE.INTRA.SOLV.lig_0>
-54.1265

>  <SCORE.INTRA.VDW>
0.982244

>  <SCORE.INTRA.VDW.0>
-2.1303

>  <SCORE.INTRA.norm>
0.0967695

>  <SCORE.RESTR>
0

>  <SCORE.RESTR.CAVITY>
0

>  <SCORE.RESTR.norm>
0

>  <SCORE.SYSTEM>
0

>  <SCORE.SYSTEM.CONST>
0

>  <SCORE.SYSTEM.DIHEDRAL>
0

>  <SCORE.SYSTEM.SOLV>
0

>  <SCORE.SYSTEM.norm>
0

>  <SCORE.heavy>
22

>  <SCORE.norm>
-1.09331

>  <RMSD>
1.431

$$$$
ligand
 OpenBabel11021811443D
libRbt.so/2013.1/901 2013/11/27
 22 23  0  0  0  0  0  0  0  0999 V2000
   17.0842   39.8314   63.7678 C   0  0  0  0  0  0  0  0  0  0  0  0
   24.4533   41.5599   64.8865 C   0  0  0  0  0  0  0  0  0  0  0  0
   28.8091   38.9710   67.1511 P   0  0  1  0  0  0  0  0  0  0  0  0
   19.1538   39.1598   64.7622 N   0  0  0  0  0  0  0  0  0  0  0  0
   29.4128   38.4234   68.3929 O   0  0  0  0  0  0  0  0  0  0  0  0
   24.5175   37.8928   66.5462 S   0  0  0  0  0  0  0  0  0  0  0  0
   23.1502   38.8006   66.9052 C   0  0  0  0  0  0  0  0  0  0  0  0
   18.3216   40.2122   64.4472 C   0  0  0  0  0  0  0  0  0  0  0  0
   27.9355   40.1526   67.3695 O   0  5  0  0  0  0  0  0  0  0  0  0
   23.1088   40.0338   66.3570 N   0  0  0  0  0  0  0  0  0  0  0  0
   18.5997   41.4610   64.7101 N   0  0  0  0  0  0  0  0  0  0  0  0
   29.8634   39.1958   66.1111 O   0  0  0  0  0  0  0  0  0  0  0  0
   24.2602   40.2534   65.5985 C   0  0  2  0  0  0  0  0  0  0  0  0
   19.7857   41.7881   65.3591 C   0  0  0  0  0  0  0  0  0  0  0  0
   20.0603   43.0665   65.6016 N   0  0  0  0  0  0  0  0  0  0  0  0
   25.1485   39.2041   65.5851 C   0  0  1  0  0  0  0  0  0  0  0  0
   20.6926   40.7244   65.7582 C   0  0  0  0  0  0  0  0  0  0  0  0
   26.4625   39.1284   64.8947 C   0  0  0  0  0  0  0  0  0  0  0  0
   20.3186   39.4456   65.3972 C   0  0  0  0  0  0  0  0  0  0  0  0
   27.2065   37.9061   65.2834 C   0  0  0  0  0  0  0  0  0  0  0  0
   21.9389   41.0141   66.5725 C   0  0  0  0  0  0  0  0  0  0  0  0
   27.8071   37.8988   66.5789 O   0  0  0  0  0  0  0  0  0  0  0  0
  1  8  1  0  0  0  0
  3  5  1  1  0  0  0
  3  9  1  0  0  0  0
  3 12  2  0  0  0  0
  3 22  1  0  0  0  0
  4  8  2  0  0  0  0
  4 19  1  0  0  0  0
  6 16  1  0  0  0  0
  6  7  1  0  0  0  0
  7 10  1  0  0  0  0
  8 11  1  0  0  0  0
 10 13  1  0  0  0  0
 10 21  1  0  0  0  0
 11 14  2  0  0  0  0
 13  2  1  1  0  0  0
 13 16  1  0  0  0  0
 14 15  1  0  0  0  0
 14 17  1  0  0  0  0
 16 18  1  1  0  0  0
 17 19  2  0  0  0  0
 17 21  1  0  0  0  0
 18 20  1  0  0  0  0
 20 22  1  0  0  0  0
M  CHG  1   9  -1
M  END
>  <CHROM.1>
-77.40007800,-7.70532953,-151.43968389,-75.05501934,-54.58710796,-167.45978217
24.04731165,39.65254312,65.95627202,2.95164944,-0.21101481,0.04246921

>  <Name>
ligand

>  <RI>
0

>  <Rbt.Current_Directory>
/home/itssahil/PROJECTS/Mol_Feturizer/New_Systems/rnas/2HOM

>  <Rbt.Executable>
rbdock ($Id: //depot/dev/client3/rdock/2013.1/src/exe/rbdock.cxx#4 $)

>  <Rbt.Library>
libRbt.so (2013.1, Build901 2013/11/27)

>  <Rbt.Parameter_File>
/export/apps/rDock/src/rDock_2013.1_src/data/scripts/dock_solv.prm

>  <Rbt.Receptor>
prm/pocket_docking_2.prm

>  <SCORE>
-19.022

>  <SCORE.INTER>
-21.4407

>  <SCORE.INTER.CONST>
1

>  <SCORE.INTER.POLAR>
-1.30619

>  <SCORE.INTER.ROT>
6

>  <SCORE.INTER.SOLV>
16.8736

>  <SCORE.INTER.VDW>
-23.1644

>  <SCORE.INTER.norm>
-0.974578

>  <SCORE.INTRA>
2.32042

>  <SCORE.INTRA.DIHEDRAL>
0.617178

>  <SCORE.INTRA.DIHEDRAL.0>
5.05013

>  <SCORE.INTRA.POLAR>
0

>  <SCORE.INTRA.POLAR.0>
0

>  <SCORE.INTRA.REPUL>
0

>  <SCORE.INTRA.REPUL.0>
0

>  <SCORE.INTRA.SOLV>
2.43295

>  <SCORE.INTRA.SOLV.lig_0>
-54.1265

>  <SCORE.INTRA.VDW>
0.79535

>  <SCORE.INTRA.VDW.0>
-2.1303

>  <SCORE.INTRA.norm>
0.105473

>  <SCORE.RESTR>
0.0983076

>  <SCORE.RESTR.CAVITY>
0.0983076

>  <SCORE.RESTR.norm>
0.00446853

>  <SCORE.SYSTEM>
0

>  <SCORE.SYSTEM.CONST>
0

>  <SCORE.SYSTEM.DIHEDRAL>
0

>  <SCORE.SYSTEM.SOLV>
0

>  <SCORE.SYSTEM.norm>
0

>  <SCORE.heavy>
22

>  <SCORE.norm>
-0.864636

>  <RMSD>
1.440

$$$$
ligand
 OpenBabel11021811443D
libRbt.so/2013.1/901 2013/11/27
 22 23  0  0  0  0  0  0  0  0999 V2000
   17.6784   40.3292   64.0785 C   0  0  0  0  0  0  0  0  0  0  0  0
   24.5223   42.1753   66.8802 C   0  0  0  0  0  0  0  0  0  0  0  0
   30.4689   40.3412   66.5860 P   0  0  1  0  0  0  0  0  0  0  0  0
   19.0876   39.2470   65.6804 N   0  0  0  0  0  0  0  0  0  0  0  0
   31.6620   40.9421   65.9366 O   0  0  0  0  0  0  0  0  0  0  0  0
   25.4263   38.3097   66.2121 S   0  0  0  0  0  0  0  0  0  0  0  0
   23.8826   38.5734   66.8203 C   0  0  0  0  0  0  0  0  0  0  0  0
   18.8690   40.3792   64.9258 C   0  0  0  0  0  0  0  0  0  0  0  0
   30.7211   39.0204   67.2179 O   0  5  0  0  0  0  0  0  0  0  0  0
   23.5593   39.8640   67.0504 N   0  0  0  0  0  0  0  0  0  0  0  0
   19.6558   41.4218   64.9368 N   0  0  0  0  0  0  0  0  0  0  0  0
   29.8226   41.3278   67.5094 O   0  0  0  0  0  0  0  0  0  0  0  0
   24.6334   40.6886   66.7111 C   0  0  2  0  0  0  0  0  0  0  0  0
   20.7799   41.4366   65.7560 C   0  0  0  0  0  0  0  0  0  0  0  0
   21.5793   42.4991   65.7398 N   0  0  0  0  0  0  0  0  0  0  0  0
   25.7417   40.0247   66.2407 C   0  0  1  0  0  0  0  0  0  0  0  0
   21.0499   40.2921   66.6105 C   0  0  0  0  0  0  0  0  0  0  0  0
   27.0424   40.6051   65.8158 C   0  0  0  0  0  0  0  0  0  0  0  0
   20.1757   39.2304   66.4913 C   0  0  0  0  0  0  0  0  0  0  0  0
   28.0775   39.5546   65.6625 C   0  0  0  0  0  0  0  0  0  0  0  0
   22.1918   40.3045   67.6088 C   0  0  0  0  0  0  0  0  0  0  0  0
   29.4212   39.9947   65.4622 O   0  0  0  0  0  0  0  0  0  0  0  0
  1  8  1  0  0  0  0
  3  5  1  6  0  0  0
  3  9  1  0  0  0  0
  3 12  2  0  0  0  0
  3 22  1  0  0  0  0
  4  8  2  0  0  0  0
  4 19  1  0  0  0  0
  6 16  1  0  0  0  0
  6  7  1  0  0  0  0
  7 10  1  0  0  0  0
  8 11  1  0  0  0  0
 10 13  1  0  0  0  0
 10 21  1  0  0  0  0
 11 14  2  0  0  0  0
 13  2  1  1  0  0  0
 13 16  1  0  0  0  0
 14 15  1  0  0  0  0
 14 17  1  0  0  0  0
 16 18  1  1  0  0  0
 17 19  2  0  0  0  0
 17 21  1  0  0  0  0
 18 20  1  0  0  0  0
 20 22  1  0  0  0  0
M  CHG  1   9  -1
M  END
>  <CHROM.1>
-76.74312107,-12.19499307,-86.62942101,-170.50153917,87.26530387,-171.81593323
24.94063129,40.20948766,66.20319781,-3.11189065,0.08601274,3.05771108

>  <Name>
ligand

>  <RI>
0

>  <Rbt.Current_Directory>
/home/itssahil/PROJECTS/Mol_Feturizer/New_Systems/rnas/2HOM

>  <Rbt.Executable>
rbdock ($Id: //depot/dev/client3/rdock/2013.1/src/exe/rbdock.cxx#4 $)

>  <Rbt.Library>
libRbt.so (2013.1, Build901 2013/11/27)

>  <Rbt.Parameter_File>
/export/apps/rDock/src/rDock_2013.1_src/data/scripts/dock_solv.prm

>  <Rbt.Receptor>
prm/pocket_docking_4.prm

>  <SCORE>
-16.4442

>  <SCORE.INTER>
-21.1229

>  <SCORE.INTER.CONST>
1

>  <SCORE.INTER.POLAR>
-2.81463

>  <SCORE.INTER.ROT>
6

>  <SCORE.INTER.SOLV>
19.0812

>  <SCORE.INTER.VDW>
-18.6602

>  <SCORE.INTER.norm>
-0.96013

>  <SCORE.INTRA>
4.67862

>  <SCORE.INTRA.DIHEDRAL>
3.21982

>  <SCORE.INTRA.DIHEDRAL.0>
5.05013

>  <SCORE.INTRA.POLAR>
0

>  <SCORE.INTRA.POLAR.0>
0

>  <SCORE.INTRA.REPUL>
0

>  <SCORE.INTRA.REPUL.0>
0

>  <SCORE.INTRA.SOLV>
3.80309

>  <SCORE.INTRA.SOLV.lig_0>
-54.1265

>  <SCORE.INTRA.VDW>
1.16716

>  <SCORE.INTRA.VDW.0>
-2.1303

>  <SCORE.INTRA.norm>
0.212664

>  <SCORE.RESTR>
0

>  <SCORE.RESTR.CAVITY>
0

>  <SCORE.RESTR.norm>
0

>  <SCORE.SYSTEM>
0

>  <SCORE.SYSTEM.CONST>
0

>  <SCORE.SYSTEM.DIHEDRAL>
0

>  <SCORE.SYSTEM.SOLV>
0

>  <SCORE.SYSTEM.norm>
0

>  <SCORE.heavy>
22

>  <SCORE.norm>
-0.747465

>  <RMSD>
1.451

$$$$
ligand
 OpenBabel11021811443D
libRbt.so/2013.1/901 2013/11/27
 22 23  0  0  0  0  0  0  0  0999 V2000
   17.2022   39.9946   63.9399 C   0  0  0  0  0  0  0  0  0  0  0  0
   25.3883   41.2795   65.2848 C   0  0  0  0  0  0  0  0  0  0  0  0
   29.5978   39.9302   67.4433 P   0  0  1  0  0  0  0  0  0  0  0  0
   19.3252   39.1737   64.6764 N   0  0  0  0  0  0  0  0  0  0  0  0
   29.7742   38.8013   68.3924 O   0  0  0  0  0  0  0  0  0  0  0  0
   24.4759   37.3646   65.5027 S   0  0  0  0  0  0  0  0  0  0  0  0
   23.2026   38.4017   65.8571 C   0  0  0  0  0  0  0  0  0  0  0  0
   18.5419   40.2846   64.4490 C   0  0  0  0  0  0  0  0  0  0  0  0
   29.3712   41.2448   68.0974 O   0  5  0  0  0  0  0  0  0  0  0  0
   23.4879   39.7196   65.7886 N   0  0  0  0  0  0  0  0  0  0  0  0
   18.9454   41.5105   64.6496 N   0  0  0  0  0  0  0  0  0  0  0  0
   30.7101   39.9497   66.4402 O   0  0  0  0  0  0  0  0  0  0  0  0
   24.8243   39.8963   65.4256 C   0  0  2  0  0  0  0  0  0  0  0  0
   20.2264   41.7507   65.1360 C   0  0  0  0  0  0  0  0  0  0  0  0
   20.6260   43.0061   65.3162 N   0  0  0  0  0  0  0  0  0  0  0  0
   25.5263   38.7301   65.2316 C   0  0  1  0  0  0  0  0  0  0  0  0
   21.0934   40.6236   65.4375 C   0  0  0  0  0  0  0  0  0  0  0  0
   26.9573   38.5761   64.8605 C   0  0  0  0  0  0  0  0  0  0  0  0
   20.5802   39.3743   65.1523 C   0  0  0  0  0  0  0  0  0  0  0  0
   27.8185   38.4743   66.0631 C   0  0  0  0  0  0  0  0  0  0  0  0
   22.4523   40.8233   66.0809 C   0  0  0  0  0  0  0  0  0  0  0  0
   28.2560   39.6999   66.6513 O   0  0  0  0  0  0  0  0  0  0  0  0
  1  8  1  0  0  0  0
  3  5  1  1  0  0  0
  3  9  1  0  0  0  0
  3 12  2  0  0  0  0
  3 22  1  0  0  0  0
  4  8  2  0  0  0  0
  4 19  1  0  0  0  0
  6 16  1  0  0  0  0
  6  7  1  0  0  0  0
  7 10  1  0  0  0  0
  8 11  1  0  0  0  0
 10 13  1  0  0  0  0
 10 21  1  0  0  0  0
 11 14  2  0  0  0  0
 13  2  1  1  0  0  0
 13 16  1  0  0  0  0
 14 15  1  0  0  0  0
 14 17  1  0  0  0  0
 16 18  1  1  0  0  0
 17 19  2  0  0  0  0
 17 21  1  0  0  0  0
 18 20  1  0  0  0  0
 20 22  1  0  0  0  0
M  CHG  1   9  -1
M  END
>  <CHROM.1>
-45.52755649,-88.13445802,-154.05084741,-85.74022674,-150.38712307,-45.35158706
24.51726770,39.80634900,65.84847534,3.10269115,-0.24472199,0.20293750

>  <Name>
ligand

>  <RI>
0

>  <Rbt.Current_Directory>
/home/itssahil/PROJECTS/Mol_Feturizer/New_Systems/rnas/2HOM

>  <Rbt.Executable>
rbdock ($Id: //depot/dev/client3/rdock/2013.1/src/exe/rbdock.cxx#4 $)

>  <Rbt.Library>
libRbt.so (2013.1, Build901 2013/11/27)

>  <Rbt.Parameter_File>
/export/apps/rDock/src/rDock_2013.1_src/data/scripts/dock_solv.prm

>  <Rbt.Receptor>
prm/pocket_docking_3.prm

>  <SCORE>
-23.3129

>  <SCORE.INTER>
-26.2667

>  <SCORE.INTER.CONST>
1

>  <SCORE.INTER.POLAR>
-2.46755

>  <SCORE.INTER.ROT>
6

>  <SCORE.INTER.SOLV>
20.4557

>  <SCORE.INTER.VDW>
-23.7045

>  <SCORE.INTER.norm>
-1.19394

>  <SCORE.INTRA>
2.94565

>  <SCORE.INTRA.DIHEDRAL>
5.67324

>  <SCORE.INTRA.DIHEDRAL.0>
5.05013

>  <SCORE.INTRA.POLAR>
0

>  <SCORE.INTRA.POLAR.0>
0

>  <SCORE.INTRA.REPUL>
0

>  <SCORE.INTRA.REPUL.0>
0

>  <SCORE.INTRA.SOLV>
-0.00956421

>  <SCORE.INTRA.SOLV.lig_0>
-54.1265

>  <SCORE.INTRA.VDW>
0.113811

>  <SCORE.INTRA.VDW.0>
-2.1303

>  <SCORE.INTRA.norm>
0.133893

>  <SCORE.RESTR>
0.00813093

>  <SCORE.RESTR.CAVITY>
0.00813093

>  <SCORE.RESTR.norm>
0.000369588

>  <SCORE.SYSTEM>
0

>  <SCORE.SYSTEM.CONST>
0

>  <SCORE.SYSTEM.DIHEDRAL>
0

>  <SCORE.SYSTEM.SOLV>
0

>  <SCORE.SYSTEM.norm>
0

>  <SCORE.heavy>
22

>  <SCORE.norm>
-1.05968

>  <RMSD>
1.478

$$$$
ligand
 OpenBabel11021811443D
libRbt.so/2013.1/901 2013/11/27
 22 23  0  0  0  0  0  0  0  0999 V2000
   17.4214   40.0390   63.8740 C   0  0  0  0  0  0  0  0  0  0  0  0
   24.9703   42.0532   65.0447 C   0  0  0  0  0  0  0  0  0  0  0  0
   29.6294   39.8692   67.3582 P   0  0  1  0  0  0  0  0  0  0  0  0
   19.4660   39.2431   64.8277 N   0  0  0  0  0  0  0  0  0  0  0  0
   29.5133   38.5181   67.9642 O   0  0  0  0  0  0  0  0  0  0  0  0
   25.1353   38.0539   65.4745 S   0  0  0  0  0  0  0  0  0  0  0  0
   23.7398   38.7668   66.0803 C   0  0  0  0  0  0  0  0  0  0  0  0
   18.7121   40.3458   64.4886 C   0  0  0  0  0  0  0  0  0  0  0  0
   29.4559   40.9854   68.3233 O   0  5  0  0  0  0  0  0  0  0  0  0
   23.6646   40.1081   65.9449 N   0  0  0  0  0  0  0  0  0  0  0  0
   19.1030   41.5778   64.6767 N   0  0  0  0  0  0  0  0  0  0  0  0
   30.8851   39.9739   66.5483 O   0  0  0  0  0  0  0  0  0  0  0  0
   24.8126   40.5848   65.3094 C   0  0  2  0  0  0  0  0  0  0  0  0
   20.3370   41.8342   65.2654 C   0  0  0  0  0  0  0  0  0  0  0  0
   20.7260   43.0949   65.4317 N   0  0  0  0  0  0  0  0  0  0  0  0
   25.7317   39.6166   64.9808 C   0  0  1  0  0  0  0  0  0  0  0  0
   21.1676   40.7180   65.6864 C   0  0  0  0  0  0  0  0  0  0  0  0
   27.0509   39.7959   64.3198 C   0  0  0  0  0  0  0  0  0  0  0  0
   20.6748   39.4595   65.4054 C   0  0  0  0  0  0  0  0  0  0  0  0
   28.1570   39.3207   65.1853 C   0  0  0  0  0  0  0  0  0  0  0  0
   22.4650   40.9400   66.4399 C   0  0  0  0  0  0  0  0  0  0  0  0
   28.4174   40.0703   66.3725 O   0  0  0  0  0  0  0  0  0  0  0  0
  1  8  1  0  0  0  0
  3  5  1  1  0  0  0
  3  9  1  0  0  0  0
  3 12  2  0  0  0  0
  3 22  1  0  0  0  0
  4  8  2  0  0  0  0
  4 19  1  0  0  0  0
  6 16  1  0  0  0  0
  6  7  1  0  0  0  0
  7 10  1  0  0  0  0
  8 11  1  0  0  0  0
 10 13  1  0  0  0  0
 10 21  1  0  0  0  0
 11 14  2  0  0  0  0
 13  2  1  1  0  0  0
 13 16  1  0  0  0  0
 14 15  1  0  0  0  0
 14 17  1  0  0  0  0
 16 18  1  1  0  0  0
 17 19  2  0  0  0  0
 17 21  1  0  0  0  0
 18 20  1  0  0  0  0
 20 22  1  0  0  0  0
M  CHG  1   9  -1
M  END
>  <CHROM.1>
-68.14675302,-59.98801846,-134.77292632,-68.12241963,-172.50808593,-63.82431136
24.66512540,40.09094379,65.80033704,3.09018269,-0.22148751,0.20503510

>  <Name>
ligand

>  <RI>
0

>  <Rbt.Current_Directory>
/home/itssahil/PROJECTS/Mol_Feturizer/New_Systems/rnas/2HOM

>  <Rbt.Executable>
rbdock ($Id: //depot/dev/client3/rdock/2013.1/src/exe/rbdock.cxx#4 $)

>  <Rbt.Library>
libRbt.so (2013.1, Build901 2013/11/27)

>  <Rbt.Parameter_File>
/export/apps/rDock/src/rDock_2013.1_src/data/scripts/dock_solv.prm

>  <Rbt.Receptor>
prm/pocket_docking_4.prm

>  <SCORE>
-23.2132

>  <SCORE.INTER>
-23.5834

>  <SCORE.INTER.CONST>
1

>  <SCORE.INTER.POLAR>
-2.48348

>  <SCORE.INTER.ROT>
6

>  <SCORE.INTER.SOLV>
20.2321

>  <SCORE.INTER.VDW>
-21.788

>  <SCORE.INTER.norm>
-1.07197

>  <SCORE.INTRA>
0.370141

>  <SCORE.INTRA.DIHEDRAL>
0.586981

>  <SCORE.INTRA.DIHEDRAL.0>
5.05013

>  <SCORE.INTRA.POLAR>
0

>  <SCORE.INTRA.POLAR.0>
0

>  <SCORE.INTRA.REPUL>
0

>  <SCORE.INTRA.REPUL.0>
0

>  <SCORE.INTRA.SOLV>
0.41567

>  <SCORE.INTRA.SOLV.lig_0>
-54.1265

>  <SCORE.INTRA.VDW>
-0.131185

>  <SCORE.INTRA.VDW.0>
-2.1303

>  <SCORE.INTRA.norm>
0.0168246

>  <SCORE.RESTR>
0

>  <SCORE.RESTR.CAVITY>
0

>  <SCORE.RESTR.norm>
0

>  <SCORE.SYSTEM>
0

>  <SCORE.SYSTEM.CONST>
0

>  <SCORE.SYSTEM.DIHEDRAL>
0

>  <SCORE.SYSTEM.SOLV>
0

>  <SCORE.SYSTEM.norm>
0

>  <SCORE.heavy>
22

>  <SCORE.norm>
-1.05515

>  <RMSD>
1.481

$$$$
ligand
 OpenBabel11021811443D
libRbt.so/2013.1/901 2013/11/27
 22 23  0  0  0  0  0  0  0  0999 V2000
   17.2114   40.0115   63.7970 C   0  0  0  0  0  0  0  0  0  0  0  0
   24.3751   42.3924   64.9772 C   0  0  0  0  0  0  0  0  0  0  0  0
   29.5701   39.3261   66.5350 P   0  0  1  0  0  0  0  0  0  0  0  0
   19.2713   39.2176   64.7187 N   0  0  0  0  0  0  0  0  0  0  0  0
   30.7347   40.0699   65.9903 O   0  0  0  0  0  0  0  0  0  0  0  0
   25.1561   38.4529   65.2552 S   0  0  0  0  0  0  0  0  0  0  0  0
   23.7239   38.9368   65.9882 C   0  0  0  0  0  0  0  0  0  0  0  0
   18.4800   40.3153   64.4574 C   0  0  0  0  0  0  0  0  0  0  0  0
   29.7832   37.8600   66.6465 O   0  5  0  0  0  0  0  0  0  0  0  0
   23.4431   40.2549   65.9052 N   0  0  0  0  0  0  0  0  0  0  0  0
   18.8197   41.5415   64.7524 N   0  0  0  0  0  0  0  0  0  0  0  0
   29.0954   39.9559   67.8084 O   0  0  0  0  0  0  0  0  0  0  0  0
   24.4551   40.9111   65.2022 C   0  0  2  0  0  0  0  0  0  0  0  0
   20.0339   41.7950   65.3819 C   0  0  0  0  0  0  0  0  0  0  0  0
   20.3709   43.0514   65.6575 N   0  0  0  0  0  0  0  0  0  0  0  0
   25.4769   40.0977   64.7724 C   0  0  1  0  0  0  0  0  0  0  0  0
   20.9013   40.6800   65.7251 C   0  0  0  0  0  0  0  0  0  0  0  0
   26.6991   40.4859   64.0209 C   0  0  0  0  0  0  0  0  0  0  0  0
   20.4622   39.4313   65.3335 C   0  0  0  0  0  0  0  0  0  0  0  0
   27.8659   40.6273   64.9247 C   0  0  0  0  0  0  0  0  0  0  0  0
   22.1779   40.8881   66.5172 C   0  0  0  0  0  0  0  0  0  0  0  0
   28.3926   39.4282   65.4938 O   0  0  0  0  0  0  0  0  0  0  0  0
  1  8  1  0  0  0  0
  3  5  1  6  0  0  0
  3  9  1  0  0  0  0
  3 12  2  0  0  0  0
  3 22  1  0  0  0  0
  4  8  2  0  0  0  0
  4 19  1  0  0  0  0
  6 16  1  0  0  0  0
  6  7  1  0  0  0  0
  7 10  1  0  0  0  0
  8 11  1  0  0  0  0
 10 13  1  0  0  0  0
 10 21  1  0  0  0  0
 11 14  2  0  0  0  0
 13  2  1  1  0  0  0
 13 16  1  0  0  0  0
 14 15  1  0  0  0  0
 14 17  1  0  0  0  0
 16 18  1  1  0  0  0
 17 19  2  0  0  0  0
 17 21  1  0  0  0  0
 18 20  1  0  0  0  0
 20 22  1  0  0  0  0
M  CHG  1   9  -1
M  END
>  <CHROM.1>
-77.75578303,-80.49770724,-129.27717358,70.11889378,-176.54442350,-52.81122220
24.47335203,40.09944071,65.51768204,3.01501387,-0.13388605,0.02638652

>  <Name>
ligand

>  <RI>
0

>  <Rbt.Current_Directory>
/home/itssahil/PROJECTS/Mol_Feturizer/New_Systems/rnas/2HOM

>  <Rbt.Executable>
rbdock ($Id: //depot/dev/client3/rdock/2013.1/src/exe/rbdock.cxx#4 $)

>  <Rbt.Library>
libRbt.so (2013.1, Build901 2013/11/27)

>  <Rbt.Parameter_File>
/export/apps/rDock/src/rDock_2013.1_src/data/scripts/dock_solv.prm

>  <Rbt.Receptor>
prm/pocket_docking_5.prm

>  <SCORE>
-21.5958

>  <SCORE.INTER>
-21.5843

>  <SCORE.INTER.CONST>
1

>  <SCORE.INTER.POLAR>
-1.63459

>  <SCORE.INTER.ROT>
6

>  <SCORE.INTER.SOLV>
15.9911

>  <SCORE.INTER.VDW>
-21.8713

>  <SCORE.INTER.norm>
-0.981105

>  <SCORE.INTRA>
-0.0115261

>  <SCORE.INTRA.DIHEDRAL>
0.386854

>  <SCORE.INTRA.DIHEDRAL.0>
5.05013

>  <SCORE.INTRA.POLAR>
0

>  <SCORE.INTRA.POLAR.0>
0

>  <SCORE.INTRA.REPUL>
0

>  <SCORE.INTRA.REPUL.0>
0

>  <SCORE.INTRA.SOLV>
0.63553

>  <SCORE.INTRA.SOLV.lig_0>
-54.1265

>  <SCORE.INTRA.VDW>
-0.522718

>  <SCORE.INTRA.VDW.0>
-2.1303

>  <SCORE.INTRA.norm>
-0.000523912

>  <SCORE.RESTR>
0

>  <SCORE.RESTR.CAVITY>
0

>  <SCORE.RESTR.norm>
0

>  <SCORE.SYSTEM>
0

>  <SCORE.SYSTEM.CONST>
0

>  <SCORE.SYSTEM.DIHEDRAL>
0

>  <SCORE.SYSTEM.SOLV>
0

>  <SCORE.SYSTEM.norm>
0

>  <SCORE.heavy>
22

>  <SCORE.norm>
-0.981629

>  <RMSD>
1.482

$$$$
ligand
 OpenBabel11021811443D
libRbt.so/2013.1/901 2013/11/27
 22 23  0  0  0  0  0  0  0  0999 V2000
   16.6884   39.6160   63.5884 C   0  0  0  0  0  0  0  0  0  0  0  0
   24.5941   40.8002   67.1906 C   0  0  0  0  0  0  0  0  0  0  0  0
   29.7482   39.5137   66.3440 P   0  0  1  0  0  0  0  0  0  0  0  0
   18.7999   38.9204   64.4719 N   0  0  0  0  0  0  0  0  0  0  0  0
   29.4866   40.9637   66.5320 O   0  0  0  0  0  0  0  0  0  0  0  0
   23.7681   37.2382   65.5065 S   0  0  0  0  0  0  0  0  0  0  0  0
   22.5536   38.3879   65.3456 C   0  0  0  0  0  0  0  0  0  0  0  0
   17.9973   39.9856   64.1249 C   0  0  0  0  0  0  0  0  0  0  0  0
   29.8870   39.1000   64.9238 O   0  5  0  0  0  0  0  0  0  0  0  0
   22.8117   39.5902   65.9030 N   0  0  0  0  0  0  0  0  0  0  0  0
   18.3591   41.2352   64.2419 N   0  0  0  0  0  0  0  0  0  0  0  0
   30.8906   39.0715   67.2059 O   0  0  0  0  0  0  0  0  0  0  0  0
   24.0749   39.5750   66.4974 C   0  0  2  0  0  0  0  0  0  0  0  0
   19.6117   41.5517   64.7575 C   0  0  0  0  0  0  0  0  0  0  0  0
   19.9696   42.8289   64.8517 N   0  0  0  0  0  0  0  0  0  0  0  0
   24.7462   38.3800   66.3902 C   0  0  1  0  0  0  0  0  0  0  0  0
   20.4953   40.4787   65.1830 C   0  0  0  0  0  0  0  0  0  0  0  0
   26.0892   38.0353   66.9258 C   0  0  0  0  0  0  0  0  0  0  0  0
   20.0281   39.1958   64.9794 C   0  0  0  0  0  0  0  0  0  0  0  0
   27.1498   38.8535   66.2900 C   0  0  0  0  0  0  0  0  0  0  0  0
   21.8202   40.7697   65.8614 C   0  0  0  0  0  0  0  0  0  0  0  0
   28.4714   38.7201   66.8141 O   0  0  0  0  0  0  0  0  0  0  0  0
  1  8  1  0  0  0  0
  3  5  1  1  0  0  0
  3  9  1  0  0  0  0
  3 12  2  0  0  0  0
  3 22  1  0  0  0  0
  4  8  2  0  0  0  0
  4 19  1  0  0  0  0
  6 16  1  0  0  0  0
  6  7  1  0  0  0  0
  7 10  1  0  0  0  0
  8 11  1  0  0  0  0
 10 13  1  0  0  0  0
 10 21  1  0  0  0  0
 11 14  2  0  0  0  0
 13  2  1  1  0  0  0
 13 16  1  0  0  0  0
 14 15  1  0  0  0  0
 14 17  1  0  0  0  0
 16 18  1  1  0  0  0
 17 19  2  0  0  0  0
 17 21  1  0  0  0  0
 18 20  1  0  0  0  0
 20 22  1  0  0  0  0
M  CHG  1   9  -1
M  END
>  <CHROM.1>
1.91427269,116.42902123,-163.79125683,173.66831532,-177.75303420,59.11903305
24.08614850,39.53485319,65.69055404,3.05307272,-0.18515017,0.02385391

>  <Name>
ligand

>  <RI>
0

>  <Rbt.Current_Directory>
/home/itssahil/PROJECTS/Mol_Feturizer/New_Systems/rnas/2HOM

>  <Rbt.Executable>
rbdock ($Id: //depot/dev/client3/rdock/2013.1/src/exe/rbdock.cxx#4 $)

>  <Rbt.Library>
libRbt.so (2013.1, Build901 2013/11/27)

>  <Rbt.Parameter_File>
/export/apps/rDock/src/rDock_2013.1_src/data/scripts/dock_solv.prm

>  <Rbt.Receptor>
prm/pocket_docking_4.prm

>  <SCORE>
-21.2819

>  <SCORE.INTER>
-22.8807

>  <SCORE.INTER.CONST>
1

>  <SCORE.INTER.POLAR>
-1.62599

>  <SCORE.INTER.ROT>
6

>  <SCORE.INTER.SOLV>
21.1249

>  <SCORE.INTER.VDW>
-24.4755

>  <SCORE.INTER.norm>
-1.04003

>  <SCORE.INTRA>
1.59878

>  <SCORE.INTRA.DIHEDRAL>
-0.391937

>  <SCORE.INTRA.DIHEDRAL.0>
5.05013

>  <SCORE.INTRA.POLAR>
0

>  <SCORE.INTRA.POLAR.0>
0

>  <SCORE.INTRA.REPUL>
0

>  <SCORE.INTRA.REPUL.0>
0

>  <SCORE.INTRA.SOLV>
0.00334116

>  <SCORE.INTRA.SOLV.lig_0>
-54.1265

>  <SCORE.INTRA.VDW>
1.79308

>  <SCORE.INTRA.VDW.0>
-2.1303

>  <SCORE.INTRA.norm>
0.0726719

>  <SCORE.RESTR>
0

>  <SCORE.RESTR.CAVITY>
0

>  <SCORE.RESTR.norm>
0

>  <SCORE.SYSTEM>
0

>  <SCORE.SYSTEM.CONST>
0

>  <SCORE.SYSTEM.DIHEDRAL>
0

>  <SCORE.SYSTEM.SOLV>
0

>  <SCORE.SYSTEM.norm>
0

>  <SCORE.heavy>
22

>  <SCORE.norm>
-0.96736

>  <RMSD>
1.494

$$$$
ligand
 OpenBabel11021811443D
libRbt.so/2013.1/901 2013/11/27
 22 23  0  0  0  0  0  0  0  0999 V2000
   17.2049   39.5622   64.0589 C   0  0  0  0  0  0  0  0  0  0  0  0
   24.4106   41.2163   64.6713 C   0  0  0  0  0  0  0  0  0  0  0  0
   29.4762   37.7190   65.3875 P   0  0  1  0  0  0  0  0  0  0  0  0
   19.3084   39.2304   65.1489 N   0  0  0  0  0  0  0  0  0  0  0  0
   30.2414   36.6103   64.7617 O   0  0  0  0  0  0  0  0  0  0  0  0
   24.4781   38.6539   67.7755 S   0  0  0  0  0  0  0  0  0  0  0  0
   23.1516   39.6844   67.7462 C   0  0  0  0  0  0  0  0  0  0  0  0
   18.4160   40.1456   64.6340 C   0  0  0  0  0  0  0  0  0  0  0  0
   30.0489   38.2055   66.6691 O   0  5  0  0  0  0  0  0  0  0  0  0
   23.1097   40.5513   66.7120 N   0  0  0  0  0  0  0  0  0  0  0  0
   18.6189   41.4359   64.6337 N   0  0  0  0  0  0  0  0  0  0  0  0
   29.2308   38.8123   64.3934 O   0  0  0  0  0  0  0  0  0  0  0  0
   24.2252   40.3657   65.8933 C   0  0  2  0  0  0  0  0  0  0  0  0
   19.7819   41.9577   65.1905 C   0  0  0  0  0  0  0  0  0  0  0  0
   19.9795   43.2724   65.1642 N   0  0  0  0  0  0  0  0  0  0  0  0
   25.0880   39.3806   66.3122 C   0  0  1  0  0  0  0  0  0  0  0  0
   20.7494   41.0529   65.7893 C   0  0  0  0  0  0  0  0  0  0  0  0
   26.3629   38.9530   65.6790 C   0  0  0  0  0  0  0  0  0  0  0  0
   20.4528   39.7077   65.7006 C   0  0  0  0  0  0  0  0  0  0  0  0
   27.0298   37.8922   66.4717 C   0  0  0  0  0  0  0  0  0  0  0  0
   21.9745   41.5754   66.5149 C   0  0  0  0  0  0  0  0  0  0  0  0
   28.0706   37.1589   65.8251 O   0  0  0  0  0  0  0  0  0  0  0  0
  1  8  1  0  0  0  0
  3  5  1  6  0  0  0
  3  9  1  0  0  0  0
  3 12  2  0  0  0  0
  3 22  1  0  0  0  0
  4  8  2  0  0  0  0
  4 19  1  0  0  0  0
  6 16  1  0  0  0  0
  6  7  1  0  0  0  0
  7 10  1  0  0  0  0
  8 11  1  0  0  0  0
 10 13  1  0  0  0  0
 10 21  1  0  0  0  0
 11 14  2  0  0  0  0
 13  2  1  1  0  0  0
 13 16  1  0  0  0  0
 14 15  1  0  0  0  0
 14 17  1  0  0  0  0
 16 18  1  1  0  0  0
 17 19  2  0  0  0  0
 17 21  1  0  0  0  0
 18 20  1  0  0  0  0
 20 22  1  0  0  0  0
M  CHG  1   9  -1
M  END
>  <CHROM.1>
-85.19481398,-1.82042959,-161.91333064,164.71041530,67.84206944,179.64715175
24.22984249,39.46590016,65.76099620,2.83070758,-0.00933681,-0.12468802

>  <Name>
ligand

>  <RI>
0

>  <Rbt.Current_Directory>
/home/itssahil/PROJECTS/Mol_Feturizer/New_Systems/rnas/2HOM

>  <Rbt.Executable>
rbdock ($Id: //depot/dev/client3/rdock/2013.1/src/exe/rbdock.cxx#4 $)

>  <Rbt.Library>
libRbt.so (2013.1, Build901 2013/11/27)

>  <Rbt.Parameter_File>
/export/apps/rDock/src/rDock_2013.1_src/data/scripts/dock_solv.prm

>  <Rbt.Receptor>
prm/pocket_docking_4.prm

>  <SCORE>
-21.0308

>  <SCORE.INTER>
-23.6488

>  <SCORE.INTER.CONST>
1

>  <SCORE.INTER.POLAR>
-1.63459

>  <SCORE.INTER.ROT>
6

>  <SCORE.INTER.SOLV>
18.2898

>  <SCORE.INTER.VDW>
-24.0138

>  <SCORE.INTER.norm>
-1.07494

>  <SCORE.INTRA>
2.61802

>  <SCORE.INTRA.DIHEDRAL>
0.558005

>  <SCORE.INTRA.DIHEDRAL.0>
5.05013

>  <SCORE.INTRA.POLAR>
0

>  <SCORE.INTRA.POLAR.0>
0

>  <SCORE.INTRA.REPUL>
0

>  <SCORE.INTRA.REPUL.0>
0

>  <SCORE.INTRA.SOLV>
1.71307

>  <SCORE.INTRA.SOLV.lig_0>
-54.1265

>  <SCORE.INTRA.VDW>
1.48248

>  <SCORE.INTRA.VDW.0>
-2.1303

>  <SCORE.INTRA.norm>
0.119001

>  <SCORE.RESTR>
0

>  <SCORE.RESTR.CAVITY>
0

>  <SCORE.RESTR.norm>
0

>  <SCORE.SYSTEM>
0

>  <SCORE.SYSTEM.CONST>
0

>  <SCORE.SYSTEM.DIHEDRAL>
0

>  <SCORE.SYSTEM.SOLV>
0

>  <SCORE.SYSTEM.norm>
0

>  <SCORE.heavy>
22

>  <SCORE.norm>
-0.955943

>  <RMSD>
1.500

$$$$
ligand
 OpenBabel11021811443D
libRbt.so/2013.1/901 2013/11/27
 22 23  0  0  0  0  0  0  0  0999 V2000
   17.8031   40.0333   64.2569 C   0  0  0  0  0  0  0  0  0  0  0  0
   24.9800   43.2331   66.1498 C   0  0  0  0  0  0  0  0  0  0  0  0
   29.2720   39.6598   68.9298 P   0  0  1  0  0  0  0  0  0  0  0  0
   19.7671   39.8329   65.6082 N   0  0  0  0  0  0  0  0  0  0  0  0
   29.1626   41.1359   69.0542 O   0  0  0  0  0  0  0  0  0  0  0  0
   25.0467   39.5131   67.6872 S   0  0  0  0  0  0  0  0  0  0  0  0
   23.5372   40.2504   67.7017 C   0  0  0  0  0  0  0  0  0  0  0  0
   18.9243   40.6870   64.9304 C   0  0  0  0  0  0  0  0  0  0  0  0
   30.5147   39.1966   68.2602 O   0  5  0  0  0  0  0  0  0  0  0  0
   23.4933   41.4988   67.1892 N   0  0  0  0  0  0  0  0  0  0  0  0
   19.0991   41.9798   64.8665 N   0  0  0  0  0  0  0  0  0  0  0  0
   29.0307   39.0033   70.2543 O   0  0  0  0  0  0  0  0  0  0  0  0
   24.7658   41.8785   66.7584 C   0  0  2  0  0  0  0  0  0  0  0  0
   20.1761   42.5695   65.5203 C   0  0  0  0  0  0  0  0  0  0  0  0
   20.3484   43.8848   65.4285 N   0  0  0  0  0  0  0  0  0  0  0  0
   25.7441   40.9319   66.9509 C   0  0  1  0  0  0  0  0  0  0  0  0
   21.0831   41.7334   66.2894 C   0  0  0  0  0  0  0  0  0  0  0  0
   27.1899   41.0322   66.6211 C   0  0  0  0  0  0  0  0  0  0  0  0
   20.8270   40.3773   66.2577 C   0  0  0  0  0  0  0  0  0  0  0  0
   27.8455   39.7029   66.6596 C   0  0  0  0  0  0  0  0  0  0  0  0
   22.2013   42.3365   67.1178 C   0  0  0  0  0  0  0  0  0  0  0  0
   28.1434   39.1654   67.9487 O   0  0  0  0  0  0  0  0  0  0  0  0
  1  8  1  0  0  0  0
  3  5  1  1  0  0  0
  3  9  1  0  0  0  0
  3 12  2  0  0  0  0
  3 22  1  0  0  0  0
  4  8  2  0  0  0  0
  4 19  1  0  0  0  0
  6 16  1  0  0  0  0
  6  7  1  0  0  0  0
  7 10  1  0  0  0  0
  8 11  1  0  0  0  0
 10 13  1  0  0  0  0
 10 21  1  0  0  0  0
 11 14  2  0  0  0  0
 13  2  1  1  0  0  0
 13 16  1  0  0  0  0
 14 15  1  0  0  0  0
 14 17  1  0  0  0  0
 16 18  1  1  0  0  0
 17 19  2  0  0  0  0
 17 21  1  0  0  0  0
 18 20  1  0  0  0  0
 20 22  1  0  0  0  0
M  CHG  1   9  -1
M  END
>  <CHROM.1>
-60.71495241,14.87123387,-145.69185034,-76.94080802,-72.36110060,49.31207301
24.54188980,40.71943245,67.04638202,2.91167283,-0.29976564,-0.18061556

>  <Name>
ligand

>  <RI>
0

>  <Rbt.Current_Directory>
/home/itssahil/PROJECTS/Mol_Feturizer/New_Systems/rnas/2HOM

>  <Rbt.Executable>
rbdock ($Id: //depot/dev/client3/rdock/2013.1/src/exe/rbdock.cxx#4 $)

>  <Rbt.Library>
libRbt.so (2013.1, Build901 2013/11/27)

>  <Rbt.Parameter_File>
/export/apps/rDock/src/rDock_2013.1_src/data/scripts/dock_solv.prm

>  <Rbt.Receptor>
prm/pocket_docking_6.prm

>  <SCORE>
-19.0056

>  <SCORE.INTER>
-20.8382

>  <SCORE.INTER.CONST>
1

>  <SCORE.INTER.POLAR>
-2.57671

>  <SCORE.INTER.ROT>
6

>  <SCORE.INTER.SOLV>
22.8394

>  <SCORE.INTER.VDW>
-20.5163

>  <SCORE.INTER.norm>
-0.947191

>  <SCORE.INTRA>
1.83262

>  <SCORE.INTRA.DIHEDRAL>
1.41011

>  <SCORE.INTRA.DIHEDRAL.0>
5.05013

>  <SCORE.INTRA.POLAR>
0

>  <SCORE.INTRA.POLAR.0>
0

>  <SCORE.INTRA.REPUL>
0

>  <SCORE.INTRA.REPUL.0>
0

>  <SCORE.INTRA.SOLV>
0.398211

>  <SCORE.INTRA.SOLV.lig_0>
-54.1265

>  <SCORE.INTRA.VDW>
0.928455

>  <SCORE.INTRA.VDW.0>
-2.1303

>  <SCORE.INTRA.norm>
0.0833007

>  <SCORE.RESTR>
0

>  <SCORE.RESTR.CAVITY>
0

>  <SCORE.RESTR.norm>
0

>  <SCORE.SYSTEM>
0

>  <SCORE.SYSTEM.CONST>
0

>  <SCORE.SYSTEM.DIHEDRAL>
0

>  <SCORE.SYSTEM.SOLV>
0

>  <SCORE.SYSTEM.norm>
0

>  <SCORE.heavy>
22

>  <SCORE.norm>
-0.863891

>  <RMSD>
1.505

$$$$
ligand
 OpenBabel11021811443D
libRbt.so/2013.1/901 2013/11/27
 22 23  0  0  0  0  0  0  0  0999 V2000
   17.2002   39.5269   63.9429 C   0  0  0  0  0  0  0  0  0  0  0  0
   24.2698   41.2718   64.7790 C   0  0  0  0  0  0  0  0  0  0  0  0
   30.0191   40.1012   66.8850 P   0  0  1  0  0  0  0  0  0  0  0  0
   18.3511   41.3927   64.9006 N   0  0  0  0  0  0  0  0  0  0  0  0
   29.8195   41.4726   67.4197 O   0  0  0  0  0  0  0  0  0  0  0  0
   24.2651   39.1560   68.2039 S   0  0  0  0  0  0  0  0  0  0  0  0
   22.9324   40.1580   67.9974 C   0  0  0  0  0  0  0  0  0  0  0  0
   18.3848   40.0422   64.6277 C   0  0  0  0  0  0  0  0  0  0  0  0
   30.9338   40.0315   65.7164 O   0  5  0  0  0  0  0  0  0  0  0  0
   22.9145   40.8758   66.8539 N   0  0  0  0  0  0  0  0  0  0  0  0
   19.3773   39.2598   64.9574 N   0  0  0  0  0  0  0  0  0  0  0  0
   30.3910   39.1581   67.9877 O   0  0  0  0  0  0  0  0  0  0  0  0
   24.0549   40.5931   66.0998 C   0  0  2  0  0  0  0  0  0  0  0  0
   20.4901   39.7835   65.6073 C   0  0  0  0  0  0  0  0  0  0  0  0
   21.4825   38.9681   65.9517 N   0  0  0  0  0  0  0  0  0  0  0  0
   24.9123   39.6839   66.6729 C   0  0  1  0  0  0  0  0  0  0  0  0
   20.5408   41.2084   65.8902 C   0  0  0  0  0  0  0  0  0  0  0  0
   26.2083   39.1885   66.1399 C   0  0  0  0  0  0  0  0  0  0  0  0
   19.4226   41.9347   65.5330 C   0  0  0  0  0  0  0  0  0  0  0  0
   27.3546   39.8015   66.8530 C   0  0  0  0  0  0  0  0  0  0  0  0
   21.7782   41.8508   66.4875 C   0  0  0  0  0  0  0  0  0  0  0  0
   28.6500   39.6047   66.2851 O   0  0  0  0  0  0  0  0  0  0  0  0
  1  8  1  0  0  0  0
  3  5  1  1  0  0  0
  3  9  1  0  0  0  0
  3 12  2  0  0  0  0
  3 22  1  0  0  0  0
  4  8  2  0  0  0  0
  4 19  1  0  0  0  0
  6 16  1  0  0  0  0
  6  7  1  0  0  0  0
  7 10  1  0  0  0  0
  8 11  1  0  0  0  0
 10 13  1  0  0  0  0
 10 21  1  0  0  0  0
 11 14  2  0  0  0  0
 13  2  1  1  0  0  0
 13 16  1  0  0  0  0
 14 15  1  0  0  0  0
 14 17  1  0  0  0  0
 16 18  1  1  0  0  0
 17 19  2  0  0  0  0
 17 21  1  0  0  0  0
 18 20  1  0  0  0  0
 20 22  1  0  0  0  0
M  CHG  1   9  -1
M  END
>  <CHROM.1>
-81.28834409,-74.81458651,-4.04943900,-168.83774012,-177.26000501,-41.01234123
24.36149809,40.15320970,66.32571105,-2.98496488,0.06015118,2.15850112

>  <Name>
ligand

>  <RI>
0

>  <Rbt.Current_Directory>
/home/itssahil/PROJECTS/Mol_Feturizer/New_Systems/rnas/2HOM

>  <Rbt.Executable>
rbdock ($Id: //depot/dev/client3/rdock/2013.1/src/exe/rbdock.cxx#4 $)

>  <Rbt.Library>
libRbt.so (2013.1, Build901 2013/11/27)

>  <Rbt.Parameter_File>
/export/apps/rDock/src/rDock_2013.1_src/data/scripts/dock_solv.prm

>  <Rbt.Receptor>
prm/pocket_docking_2.prm

>  <SCORE>
-23.026

>  <SCORE.INTER>
-25.8805

>  <SCORE.INTER.CONST>
1

>  <SCORE.INTER.POLAR>
-2.57904

>  <SCORE.INTER.ROT>
6

>  <SCORE.INTER.SOLV>
17.7071

>  <SCORE.INTER.VDW>
-22.1593

>  <SCORE.INTER.norm>
-1.17639

>  <SCORE.INTRA>
2.85458

>  <SCORE.INTRA.DIHEDRAL>
0.995849

>  <SCORE.INTRA.DIHEDRAL.0>
5.05013

>  <SCORE.INTRA.POLAR>
0

>  <SCORE.INTRA.POLAR.0>
0

>  <SCORE.INTRA.REPUL>
0

>  <SCORE.INTRA.REPUL.0>
0

>  <SCORE.INTRA.SOLV>
4.34568

>  <SCORE.INTRA.SOLV.lig_0>
-54.1265

>  <SCORE.INTRA.VDW>
0.183817

>  <SCORE.INTRA.VDW.0>
-2.1303

>  <SCORE.INTRA.norm>
0.129754

>  <SCORE.RESTR>
0

>  <SCORE.RESTR.CAVITY>
0

>  <SCORE.RESTR.norm>
0

>  <SCORE.SYSTEM>
0

>  <SCORE.SYSTEM.CONST>
0

>  <SCORE.SYSTEM.DIHEDRAL>
0

>  <SCORE.SYSTEM.SOLV>
0

>  <SCORE.SYSTEM.norm>
0

>  <SCORE.heavy>
22

>  <SCORE.norm>
-1.04663

>  <RMSD>
1.515

$$$$
ligand
 OpenBabel11021811443D
libRbt.so/2013.1/901 2013/11/27
 22 23  0  0  0  0  0  0  0  0999 V2000
   17.2360   40.1122   63.8636 C   0  0  0  0  0  0  0  0  0  0  0  0
   23.0758   39.6450   64.5344 C   0  0  0  0  0  0  0  0  0  0  0  0
   28.9460   38.8874   65.8654 P   0  0  1  0  0  0  0  0  0  0  0  0
   19.0149   39.4144   65.3030 N   0  0  0  0  0  0  0  0  0  0  0  0
   29.8174   38.2116   66.8604 O   0  0  0  0  0  0  0  0  0  0  0  0
   24.6990   38.4358   68.0144 S   0  0  0  0  0  0  0  0  0  0  0  0
   23.5640   39.6658   68.1605 C   0  0  0  0  0  0  0  0  0  0  0  0
   18.4573   40.4544   64.5910 C   0  0  0  0  0  0  0  0  0  0  0  0
   28.7737   40.3446   66.0983 O   0  5  0  0  0  0  0  0  0  0  0  0
   23.0067   40.0851   67.0043 N   0  0  0  0  0  0  0  0  0  0  0  0
   18.9677   41.6556   64.5413 N   0  0  0  0  0  0  0  0  0  0  0  0
   29.3869   38.5565   64.4726 O   0  0  0  0  0  0  0  0  0  0  0  0
   23.5357   39.3613   65.9342 C   0  0  2  0  0  0  0  0  0  0  0  0
   20.1306   41.9474   65.2468 C   0  0  0  0  0  0  0  0  0  0  0  0
   20.6457   43.1709   65.1691 N   0  0  0  0  0  0  0  0  0  0  0  0
   24.4758   38.4213   66.2848 C   0  0  1  0  0  0  0  0  0  0  0  0
   20.7506   40.9087   66.0529 C   0  0  0  0  0  0  0  0  0  0  0  0
   25.2335   37.5086   65.3891 C   0  0  0  0  0  0  0  0  0  0  0  0
   20.1497   39.6670   66.0032 C   0  0  0  0  0  0  0  0  0  0  0  0
   26.5357   38.0979   64.9949 C   0  0  0  0  0  0  0  0  0  0  0  0
   21.9488   41.2040   66.9347 C   0  0  0  0  0  0  0  0  0  0  0  0
   27.4822   38.3322   66.0383 O   0  0  0  0  0  0  0  0  0  0  0  0
  1  8  1  0  0  0  0
  3  5  1  1  0  0  0
  3  9  1  0  0  0  0
  3 12  2  0  0  0  0
  3 22  1  0  0  0  0
  4  8  2  0  0  0  0
  4 19  1  0  0  0  0
  6 16  1  0  0  0  0
  6  7  1  0  0  0  0
  7 10  1  0  0  0  0
  8 11  1  0  0  0  0
 10 13  1  0  0  0  0
 10 21  1  0  0  0  0
 11 14  2  0  0  0  0
 13  2  1  6  0  0  0
 13 16  1  0  0  0  0
 14 15  1  0  0  0  0
 14 17  1  0  0  0  0
 16 18  1  6  0  0  0
 17 19  2  0  0  0  0
 17 21  1  0  0  0  0
 18 20  1  0  0  0  0
 20 22  1  0  0  0  0
M  CHG  1   9  -1
M  END
>  <CHROM.1>
-134.41999526,-86.52311482,-142.69470579,63.69056532,177.19207191,-144.02013353
23.97300725,39.58685750,65.89310056,-2.94952447,-0.16531617,2.04778318

>  <Name>
ligand

>  <RI>
0

>  <Rbt.Current_Directory>
/home/itssahil/PROJECTS/Mol_Feturizer/New_Systems/rnas/2HOM

>  <Rbt.Executable>
rbdock ($Id: //depot/dev/client3/rdock/2013.1/src/exe/rbdock.cxx#4 $)

>  <Rbt.Library>
libRbt.so (2013.1, Build901 2013/11/27)

>  <Rbt.Parameter_File>
/export/apps/rDock/src/rDock_2013.1_src/data/scripts/dock_solv.prm

>  <Rbt.Receptor>
prm/pocket_docking_3.prm

>  <SCORE>
-22.3903

>  <SCORE.INTER>
-23.6066

>  <SCORE.INTER.CONST>
1

>  <SCORE.INTER.POLAR>
-1.30439

>  <SCORE.INTER.ROT>
6

>  <SCORE.INTER.SOLV>
15.3011

>  <SCORE.INTER.VDW>
-24.0901

>  <SCORE.INTER.norm>
-1.07303

>  <SCORE.INTRA>
1.21624

>  <SCORE.INTRA.DIHEDRAL>
1.34558

>  <SCORE.INTRA.DIHEDRAL.0>
5.05013

>  <SCORE.INTRA.POLAR>
0

>  <SCORE.INTRA.POLAR.0>
0

>  <SCORE.INTRA.REPUL>
0

>  <SCORE.INTRA.REPUL.0>
0

>  <SCORE.INTRA.SOLV>
0.928196

>  <SCORE.INTRA.SOLV.lig_0>
-54.1265

>  <SCORE.INTRA.VDW>
0.0793498

>  <SCORE.INTRA.VDW.0>
-2.1303

>  <SCORE.INTRA.norm>
0.0552834

>  <SCORE.RESTR>
0

>  <SCORE.RESTR.CAVITY>
0

>  <SCORE.RESTR.norm>
0

>  <SCORE.SYSTEM>
0

>  <SCORE.SYSTEM.CONST>
0

>  <SCORE.SYSTEM.DIHEDRAL>
0

>  <SCORE.SYSTEM.SOLV>
0

>  <SCORE.SYSTEM.norm>
0

>  <SCORE.heavy>
22

>  <SCORE.norm>
-1.01774

>  <RMSD>
1.523

$$$$
ligand
 OpenBabel11021811443D
libRbt.so/2013.1/901 2013/11/27
 22 23  0  0  0  0  0  0  0  0999 V2000
   17.0323   40.0995   63.6323 C   0  0  0  0  0  0  0  0  0  0  0  0
   25.0270   41.0386   66.9273 C   0  0  0  0  0  0  0  0  0  0  0  0
   29.2715   39.8174   67.6637 P   0  0  1  0  0  0  0  0  0  0  0  0
   18.9283   39.2040   64.7841 N   0  0  0  0  0  0  0  0  0  0  0  0
   30.0484   40.3745   68.8005 O   0  0  0  0  0  0  0  0  0  0  0  0
   24.0886   37.3733   65.5519 S   0  0  0  0  0  0  0  0  0  0  0  0
   22.7816   38.4162   65.7155 C   0  0  0  0  0  0  0  0  0  0  0  0
   18.3171   40.3357   64.2892 C   0  0  0  0  0  0  0  0  0  0  0  0
   28.9766   40.8002   66.5892 O   0  5  0  0  0  0  0  0  0  0  0  0
   23.0755   39.6515   66.1746 N   0  0  0  0  0  0  0  0  0  0  0  0
   18.8305   41.5337   64.3738 N   0  0  0  0  0  0  0  0  0  0  0  0
   29.9099   38.5597   67.1594 O   0  0  0  0  0  0  0  0  0  0  0  0
   24.4481   39.7556   66.4076 C   0  0  2  0  0  0  0  0  0  0  0  0
   20.0546   41.7231   65.0068 C   0  0  0  0  0  0  0  0  0  0  0  0
   20.5704   42.9473   65.0667 N   0  0  0  0  0  0  0  0  0  0  0  0
   25.1659   38.6159   66.1322 C   0  0  1  0  0  0  0  0  0  0  0  0
   20.7366   40.5790   65.5890 C   0  0  0  0  0  0  0  0  0  0  0  0
   26.6276   38.3965   66.2894 C   0  0  0  0  0  0  0  0  0  0  0  0
   20.1237   39.3553   65.4086 C   0  0  0  0  0  0  0  0  0  0  0  0
   27.0178   38.3656   67.7195 C   0  0  0  0  0  0  0  0  0  0  0  0
   22.0119   40.7456   66.3929 C   0  0  0  0  0  0  0  0  0  0  0  0
   27.8367   39.4366   68.1901 O   0  0  0  0  0  0  0  0  0  0  0  0
  1  8  1  0  0  0  0
  3  5  1  1  0  0  0
  3  9  1  0  0  0  0
  3 12  2  0  0  0  0
  3 22  1  0  0  0  0
  4  8  2  0  0  0  0
  4 19  1  0  0  0  0
  6 16  1  0  0  0  0
  6  7  1  0  0  0  0
  7 10  1  0  0  0  0
  8 11  1  0  0  0  0
 10 13  1  0  0  0  0
 10 21  1  0  0  0  0
 11 14  2  0  0  0  0
 13  2  1  1  0  0  0
 13 16  1  0  0  0  0
 14 15  1  0  0  0  0
 14 17  1  0  0  0  0
 16 18  1  1  0  0  0
 17 19  2  0  0  0  0
 17 21  1  0  0  0  0
 18 20  1  0  0  0  0
 20 22  1  0  0  0  0
M  CHG  1   9  -1
M  END
>  <CHROM.1>
-22.80875772,-110.34481076,-141.39629136,-112.90746595,-60.18987313,-148.01028516
24.17495169,39.73802424,66.19197402,3.08358588,-0.30055510,0.13406308

>  <Name>
ligand

>  <RI>
0

>  <Rbt.Current_Directory>
/home/itssahil/PROJECTS/Mol_Feturizer/New_Systems/rnas/2HOM

>  <Rbt.Executable>
rbdock ($Id: //depot/dev/client3/rdock/2013.1/src/exe/rbdock.cxx#4 $)

>  <Rbt.Library>
libRbt.so (2013.1, Build901 2013/11/27)

>  <Rbt.Parameter_File>
/export/apps/rDock/src/rDock_2013.1_src/data/scripts/dock_solv.prm

>  <Rbt.Receptor>
prm/pocket_docking_3.prm

>  <SCORE>
-21.5766

>  <SCORE.INTER>
-26.3587

>  <SCORE.INTER.CONST>
1

>  <SCORE.INTER.POLAR>
-2.58039

>  <SCORE.INTER.ROT>
6

>  <SCORE.INTER.SOLV>
17.9987

>  <SCORE.INTER.VDW>
-22.5708

>  <SCORE.INTER.norm>
-1.19812

>  <SCORE.INTRA>
4.77789

>  <SCORE.INTRA.DIHEDRAL>
6.04427

>  <SCORE.INTRA.DIHEDRAL.0>
5.05013

>  <SCORE.INTRA.POLAR>
0

>  <SCORE.INTRA.POLAR.0>
0

>  <SCORE.INTRA.REPUL>
0

>  <SCORE.INTRA.REPUL.0>
0

>  <SCORE.INTRA.SOLV>
2.3643

>  <SCORE.INTRA.SOLV.lig_0>
-54.1265

>  <SCORE.INTRA.VDW>
0.573611

>  <SCORE.INTRA.VDW.0>
-2.1303

>  <SCORE.INTRA.norm>
0.217177

>  <SCORE.RESTR>
0.00425131

>  <SCORE.RESTR.CAVITY>
0.00425131

>  <SCORE.RESTR.norm>
0.000193242

>  <SCORE.SYSTEM>
0

>  <SCORE.SYSTEM.CONST>
0

>  <SCORE.SYSTEM.DIHEDRAL>
0

>  <SCORE.SYSTEM.SOLV>
0

>  <SCORE.SYSTEM.norm>
0

>  <SCORE.heavy>
22

>  <SCORE.norm>
-0.980755

>  <RMSD>
1.572

$$$$
ligand
 OpenBabel11021811443D
libRbt.so/2013.1/901 2013/11/27
 22 23  0  0  0  0  0  0  0  0999 V2000
   17.1679   40.0775   63.8199 C   0  0  0  0  0  0  0  0  0  0  0  0
   25.2535   41.3418   65.2935 C   0  0  0  0  0  0  0  0  0  0  0  0
   29.1436   39.6639   67.9901 P   0  0  1  0  0  0  0  0  0  0  0  0
   19.2189   39.2200   64.7038 N   0  0  0  0  0  0  0  0  0  0  0  0
   30.4151   39.0562   67.5208 O   0  0  0  0  0  0  0  0  0  0  0  0
   24.4367   37.4098   65.5745 S   0  0  0  0  0  0  0  0  0  0  0  0
   23.1473   38.4215   65.9439 C   0  0  0  0  0  0  0  0  0  0  0  0
   18.4942   40.3449   64.3742 C   0  0  0  0  0  0  0  0  0  0  0  0
   28.4596   38.8927   69.0600 O   0  5  0  0  0  0  0  0  0  0  0  0
   23.4006   39.7448   65.8546 N   0  0  0  0  0  0  0  0  0  0  0  0
   18.9396   41.5640   64.5213 N   0  0  0  0  0  0  0  0  0  0  0  0
   29.3491   41.1066   68.3365 O   0  0  0  0  0  0  0  0  0  0  0  0
   24.7247   39.9477   65.4616 C   0  0  2  0  0  0  0  0  0  0  0  0
   20.2061   41.7827   65.0532 C   0  0  0  0  0  0  0  0  0  0  0  0
   20.6498   43.0301   65.1780 N   0  0  0  0  0  0  0  0  0  0  0  0
   25.4493   38.7958   65.2661 C   0  0  1  0  0  0  0  0  0  0  0  0
   21.0104   40.6428   65.4617 C   0  0  0  0  0  0  0  0  0  0  0  0
   26.8755   38.6703   64.8667 C   0  0  0  0  0  0  0  0  0  0  0  0
   20.4584   39.3996   65.2265 C   0  0  0  0  0  0  0  0  0  0  0  0
   27.7488   38.4544   66.0453 C   0  0  0  0  0  0  0  0  0  0  0  0
   22.3460   40.8278   66.1563 C   0  0  0  0  0  0  0  0  0  0  0  0
   28.1073   39.6091   66.8052 O   0  0  0  0  0  0  0  0  0  0  0  0
  1  8  1  0  0  0  0
  3  5  1  6  0  0  0
  3  9  1  0  0  0  0
  3 12  2  0  0  0  0
  3 22  1  0  0  0  0
  4  8  2  0  0  0  0
  4 19  1  0  0  0  0
  6 16  1  0  0  0  0
  6  7  1  0  0  0  0
  7 10  1  0  0  0  0
  8 11  1  0  0  0  0
 10 13  1  0  0  0  0
 10 21  1  0  0  0  0
 11 14  2  0  0  0  0
 13  2  1  1  0  0  0
 13 16  1  0  0  0  0
 14 15  1  0  0  0  0
 14 17  1  0  0  0  0
 16 18  1  1  0  0  0
 17 19  2  0  0  0  0
 17 21  1  0  0  0  0
 18 20  1  0  0  0  0
 20 22  1  0  0  0  0
M  CHG  1   9  -1
M  END
>  <CHROM.1>
-49.82863962,-81.95563386,-147.64170046,-80.62824243,-172.62778592,52.19339677
24.34487487,39.76320738,66.00017791,3.09544592,-0.30884347,0.24256464

>  <Name>
ligand

>  <RI>
0

>  <Rbt.Current_Directory>
/home/itssahil/PROJECTS/Mol_Feturizer/New_Systems/rnas/2HOM

>  <Rbt.Executable>
rbdock ($Id: //depot/dev/client3/rdock/2013.1/src/exe/rbdock.cxx#4 $)

>  <Rbt.Library>
libRbt.so (2013.1, Build901 2013/11/27)

>  <Rbt.Parameter_File>
/export/apps/rDock/src/rDock_2013.1_src/data/scripts/dock_solv.prm

>  <Rbt.Receptor>
prm/pocket_docking_3.prm

>  <SCORE>
-25.8481

>  <SCORE.INTER>
-26.5997

>  <SCORE.INTER.CONST>
1

>  <SCORE.INTER.POLAR>
-2.48024

>  <SCORE.INTER.ROT>
6

>  <SCORE.INTER.SOLV>
18.3395

>  <SCORE.INTER.VDW>
-23.1788

>  <SCORE.INTER.norm>
-1.20908

>  <SCORE.INTRA>
0.751598

>  <SCORE.INTRA.DIHEDRAL>
1.62424

>  <SCORE.INTRA.DIHEDRAL.0>
5.05013

>  <SCORE.INTRA.POLAR>
0

>  <SCORE.INTRA.POLAR.0>
0

>  <SCORE.INTRA.REPUL>
0

>  <SCORE.INTRA.REPUL.0>
0

>  <SCORE.INTRA.SOLV>
-0.141634

>  <SCORE.INTRA.SOLV.lig_0>
-54.1265

>  <SCORE.INTRA.VDW>
0.0102964

>  <SCORE.INTRA.VDW.0>
-2.1303

>  <SCORE.INTRA.norm>
0.0341635

>  <SCORE.RESTR>
0

>  <SCORE.RESTR.CAVITY>
0

>  <SCORE.RESTR.norm>
0

>  <SCORE.SYSTEM>
0

>  <SCORE.SYSTEM.CONST>
0

>  <SCORE.SYSTEM.DIHEDRAL>
0

>  <SCORE.SYSTEM.SOLV>
0

>  <SCORE.SYSTEM.norm>
0

>  <SCORE.heavy>
22

>  <SCORE.norm>
-1.17491

>  <RMSD>
1.573

$$$$
ligand
 OpenBabel11021811443D
libRbt.so/2013.1/901 2013/11/27
 22 23  0  0  0  0  0  0  0  0999 V2000
   17.4085   39.9662   63.9413 C   0  0  0  0  0  0  0  0  0  0  0  0
   24.1443   40.7529   64.5119 C   0  0  0  0  0  0  0  0  0  0  0  0
   29.3809   39.6993   67.6912 P   0  0  1  0  0  0  0  0  0  0  0  0
   18.7135   41.6976   64.9526 N   0  0  0  0  0  0  0  0  0  0  0  0
   29.8637   41.1035   67.6560 O   0  0  0  0  0  0  0  0  0  0  0  0
   24.6492   39.0007   68.1010 S   0  0  0  0  0  0  0  0  0  0  0  0
   23.4116   40.1355   68.0430 C   0  0  0  0  0  0  0  0  0  0  0  0
   18.6249   40.3552   64.6534 C   0  0  0  0  0  0  0  0  0  0  0  0
   30.2779   38.7306   67.0098 O   0  5  0  0  0  0  0  0  0  0  0  0
   23.2253   40.7341   66.8472 N   0  0  0  0  0  0  0  0  0  0  0  0
   19.5341   39.4770   64.9820 N   0  0  0  0  0  0  0  0  0  0  0  0
   29.0307   39.3007   69.0920 O   0  0  0  0  0  0  0  0  0  0  0  0
   24.1458   40.2392   65.9216 C   0  0  2  0  0  0  0  0  0  0  0  0
   20.6803   39.8816   65.6583 C   0  0  0  0  0  0  0  0  0  0  0  0
   21.5861   38.9703   66.0009 N   0  0  0  0  0  0  0  0  0  0  0  0
   25.0083   39.2912   66.4193 C   0  0  1  0  0  0  0  0  0  0  0  0
   20.8598   41.2900   65.9702 C   0  0  0  0  0  0  0  0  0  0  0  0
   26.1053   38.5886   65.7036 C   0  0  0  0  0  0  0  0  0  0  0  0
   19.8206   42.1247   65.6112 C   0  0  0  0  0  0  0  0  0  0  0  0
   27.3007   38.4345   66.5670 C   0  0  0  0  0  0  0  0  0  0  0  0
   22.1420   41.8021   66.5981 C   0  0  0  0  0  0  0  0  0  0  0  0
   28.0614   39.6129   66.8353 O   0  0  0  0  0  0  0  0  0  0  0  0
  1  8  1  0  0  0  0
  3  5  1  6  0  0  0
  3  9  1  0  0  0  0
  3 12  2  0  0  0  0
  3 22  1  0  0  0  0
  4  8  2  0  0  0  0
  4 19  1  0  0  0  0
  6 16  1  0  0  0  0
  6  7  1  0  0  0  0
  7 10  1  0  0  0  0
  8 11  1  0  0  0  0
 10 13  1  0  0  0  0
 10 21  1  0  0  0  0
 11 14  2  0  0  0  0
 13  2  1  1  0  0  0
 13 16  1  0  0  0  0
 14 15  1  0  0  0  0
 14 17  1  0  0  0  0
 16 18  1  1  0  0  0
 17 19  2  0  0  0  0
 17 21  1  0  0  0  0
 18 20  1  0  0  0  0
 20 22  1  0  0  0  0
M  CHG  1   9  -1
M  END
>  <CHROM.1>
-97.58259464,-39.22638416,1.11867795,-72.31701653,-178.51625153,177.50882270
24.33375064,39.95610323,66.50212846,3.12097424,-0.27415303,0.34887421

>  <Name>
ligand

>  <RI>
0

>  <Rbt.Current_Directory>
/home/itssahil/PROJECTS/Mol_Feturizer/New_Systems/rnas/2HOM

>  <Rbt.Executable>
rbdock ($Id: //depot/dev/client3/rdock/2013.1/src/exe/rbdock.cxx#4 $)

>  <Rbt.Library>
libRbt.so (2013.1, Build901 2013/11/27)

>  <Rbt.Parameter_File>
/export/apps/rDock/src/rDock_2013.1_src/data/scripts/dock_solv.prm

>  <Rbt.Receptor>
prm/pocket_docking_2.prm

>  <SCORE>
-23.5128

>  <SCORE.INTER>
-26.7573

>  <SCORE.INTER.CONST>
1

>  <SCORE.INTER.POLAR>
-2.56284

>  <SCORE.INTER.ROT>
6

>  <SCORE.INTER.SOLV>
15.3816

>  <SCORE.INTER.VDW>
-22.0226

>  <SCORE.INTER.norm>
-1.21624

>  <SCORE.INTRA>
3.231

>  <SCORE.INTRA.DIHEDRAL>
0.578483

>  <SCORE.INTRA.DIHEDRAL.0>
5.05013

>  <SCORE.INTRA.POLAR>
0

>  <SCORE.INTRA.POLAR.0>
0

>  <SCORE.INTRA.REPUL>
0

>  <SCORE.INTRA.REPUL.0>
0

>  <SCORE.INTRA.SOLV>
5.43728

>  <SCORE.INTRA.SOLV.lig_0>
-54.1265

>  <SCORE.INTRA.VDW>
0.223124

>  <SCORE.INTRA.VDW.0>
-2.1303

>  <SCORE.INTRA.norm>
0.146864

>  <SCORE.RESTR>
0.0134591

>  <SCORE.RESTR.CAVITY>
0.0134591

>  <SCORE.RESTR.norm>
0.000611778

>  <SCORE.SYSTEM>
0

>  <SCORE.SYSTEM.CONST>
0

>  <SCORE.SYSTEM.DIHEDRAL>
0

>  <SCORE.SYSTEM.SOLV>
0

>  <SCORE.SYSTEM.norm>
0

>  <SCORE.heavy>
22

>  <SCORE.norm>
-1.06877

>  <RMSD>
1.594

$$$$
ligand
 OpenBabel11021811443D
libRbt.so/2013.1/901 2013/11/27
 22 23  0  0  0  0  0  0  0  0999 V2000
   17.5133   40.2383   64.1301 C   0  0  0  0  0  0  0  0  0  0  0  0
   24.2456   40.7981   64.4900 C   0  0  0  0  0  0  0  0  0  0  0  0
   29.4662   39.9012   67.2425 P   0  0  1  0  0  0  0  0  0  0  0  0
   19.1061   41.9201   64.7282 N   0  0  0  0  0  0  0  0  0  0  0  0
   29.5044   41.2050   67.9530 O   0  0  0  0  0  0  0  0  0  0  0  0
   24.7937   38.9323   68.0149 S   0  0  0  0  0  0  0  0  0  0  0  0
   23.6124   40.1269   68.0305 C   0  0  0  0  0  0  0  0  0  0  0  0
   18.7428   40.5951   64.8365 C   0  0  0  0  0  0  0  0  0  0  0  0
   30.2977   39.8545   66.0122 O   0  5  0  0  0  0  0  0  0  0  0  0
   23.4124   40.7643   66.8571 N   0  0  0  0  0  0  0  0  0  0  0  0
   19.4174   39.7114   65.5220 N   0  0  0  0  0  0  0  0  0  0  0  0
   29.7480   38.7783   68.1930 O   0  0  0  0  0  0  0  0  0  0  0  0
   24.2731   40.2491   65.8861 C   0  0  2  0  0  0  0  0  0  0  0  0
   20.5840   40.0847   66.1813 C   0  0  0  0  0  0  0  0  0  0  0  0
   21.2471   39.1754   66.8896 N   0  0  0  0  0  0  0  0  0  0  0  0
   25.1052   39.2479   66.3283 C   0  0  1  0  0  0  0  0  0  0  0  0
   21.0495   41.4578   66.0764 C   0  0  0  0  0  0  0  0  0  0  0  0
   26.1393   38.5115   65.5554 C   0  0  0  0  0  0  0  0  0  0  0  0
   20.2406   42.3161   65.3592 C   0  0  0  0  0  0  0  0  0  0  0  0
   27.4220   38.4464   66.2962 C   0  0  0  0  0  0  0  0  0  0  0  0
   22.3749   41.8895   66.6743 C   0  0  0  0  0  0  0  0  0  0  0  0
   28.0084   39.6891   66.6851 O   0  0  0  0  0  0  0  0  0  0  0  0
  1  8  1  0  0  0  0
  3  5  1  1  0  0  0
  3  9  1  0  0  0  0
  3 12  2  0  0  0  0
  3 22  1  0  0  0  0
  4  8  2  0  0  0  0
  4 19  1  0  0  0  0
  6 16  1  0  0  0  0
  6  7  1  0  0  0  0
  7 10  1  0  0  0  0
  8 11  1  0  0  0  0
 10 13  1  0  0  0  0
 10 21  1  0  0  0  0
 11 14  2  0  0  0  0
 13  2  1  1  0  0  0
 13 16  1  0  0  0  0
 14 15  1  0  0  0  0
 14 17  1  0  0  0  0
 16 18  1  1  0  0  0
 17 19  2  0  0  0  0
 17 21  1  0  0  0  0
 18 20  1  0  0  0  0
 20 22  1  0  0  0  0
M  CHG  1   9  -1
M  END
>  <CHROM.1>
-97.88922142,-47.34020919,24.12350890,-57.02325450,-168.35501114,-160.27729585
24.43819330,40.07526352,66.42878498,-2.93008711,0.07311545,2.45069327

>  <Name>
ligand

>  <RI>
0

>  <Rbt.Current_Directory>
/home/itssahil/PROJECTS/Mol_Feturizer/New_Systems/rnas/2HOM

>  <Rbt.Executable>
rbdock ($Id: //depot/dev/client3/rdock/2013.1/src/exe/rbdock.cxx#4 $)

>  <Rbt.Library>
libRbt.so (2013.1, Build901 2013/11/27)

>  <Rbt.Parameter_File>
/export/apps/rDock/src/rDock_2013.1_src/data/scripts/dock_solv.prm

>  <Rbt.Receptor>
prm/pocket_docking_2.prm

>  <SCORE>
-22.693

>  <SCORE.INTER>
-25.4756

>  <SCORE.INTER.CONST>
1

>  <SCORE.INTER.POLAR>
-2.58327

>  <SCORE.INTER.ROT>
6

>  <SCORE.INTER.SOLV>
16.5163

>  <SCORE.INTER.VDW>
-21.4783

>  <SCORE.INTER.norm>
-1.15798

>  <SCORE.INTRA>
2.55807

>  <SCORE.INTRA.DIHEDRAL>
1.41821

>  <SCORE.INTRA.DIHEDRAL.0>
5.05013

>  <SCORE.INTRA.POLAR>
0

>  <SCORE.INTRA.POLAR.0>
0

>  <SCORE.INTRA.REPUL>
0

>  <SCORE.INTRA.REPUL.0>
0

>  <SCORE.INTRA.SOLV>
3.96962

>  <SCORE.INTRA.SOLV.lig_0>
-54.1265

>  <SCORE.INTRA.VDW>
-0.135846

>  <SCORE.INTRA.VDW.0>
-2.1303

>  <SCORE.INTRA.norm>
0.116276

>  <SCORE.RESTR>
0.224564

>  <SCORE.RESTR.CAVITY>
0.224564

>  <SCORE.RESTR.norm>
0.0102074

>  <SCORE.SYSTEM>
0

>  <SCORE.SYSTEM.CONST>
0

>  <SCORE.SYSTEM.DIHEDRAL>
0

>  <SCORE.SYSTEM.SOLV>
0

>  <SCORE.SYSTEM.norm>
0

>  <SCORE.heavy>
22

>  <SCORE.norm>
-1.0315

>  <RMSD>
1.595

$$$$
ligand
 OpenBabel11021811443D
libRbt.so/2013.1/901 2013/11/27
 22 23  0  0  0  0  0  0  0  0999 V2000
   17.3023   39.5749   64.0212 C   0  0  0  0  0  0  0  0  0  0  0  0
   23.2143   39.2288   67.6717 C   0  0  0  0  0  0  0  0  0  0  0  0
   29.6361   40.1959   66.9288 P   0  0  1  0  0  0  0  0  0  0  0  0
   19.4448   39.3407   65.0596 N   0  0  0  0  0  0  0  0  0  0  0  0
   29.4873   41.1185   68.0833 O   0  0  0  0  0  0  0  0  0  0  0  0
   25.5580   41.0032   64.9212 S   0  0  0  0  0  0  0  0  0  0  0  0
   24.1082   41.7965   65.2232 C   0  0  0  0  0  0  0  0  0  0  0  0
   18.4729   40.2137   64.6209 C   0  0  0  0  0  0  0  0  0  0  0  0
   30.2506   40.8187   65.7281 O   0  5  0  0  0  0  0  0  0  0  0  0
   23.3078   41.2177   66.1438 N   0  0  0  0  0  0  0  0  0  0  0  0
   18.5717   41.5132   64.7083 N   0  0  0  0  0  0  0  0  0  0  0  0
   30.3142   38.9298   67.3541 O   0  0  0  0  0  0  0  0  0  0  0  0
   23.9112   40.0578   66.6333 C   0  0  2  0  0  0  0  0  0  0  0  0
   19.6990   42.0880   65.2859 C   0  0  0  0  0  0  0  0  0  0  0  0
   19.7902   43.4132   65.3492 N   0  0  0  0  0  0  0  0  0  0  0  0
   25.1387   39.7726   66.0837 C   0  0  1  0  0  0  0  0  0  0  0  0
   20.7463   41.2258   65.8081 C   0  0  0  0  0  0  0  0  0  0  0  0
   26.0225   38.6133   66.3738 C   0  0  0  0  0  0  0  0  0  0  0  0
   20.5569   39.8702   65.6293 C   0  0  0  0  0  0  0  0  0  0  0  0
   27.2294   39.0303   67.1274 C   0  0  0  0  0  0  0  0  0  0  0  0
   21.9384   41.7948   66.5535 C   0  0  0  0  0  0  0  0  0  0  0  0
   28.1961   39.8091   66.4215 O   0  0  0  0  0  0  0  0  0  0  0  0
  1  8  1  0  0  0  0
  3  5  1  1  0  0  0
  3  9  1  0  0  0  0
  3 12  2  0  0  0  0
  3 22  1  0  0  0  0
  4  8  2  0  0  0  0
  4 19  1  0  0  0  0
  6 16  1  0  0  0  0
  6  7  1  0  0  0  0
  7 10  1  0  0  0  0
  8 11  1  0  0  0  0
 10 13  1  0  0  0  0
 10 21  1  0  0  0  0
 11 14  2  0  0  0  0
 13  2  1  6  0  0  0
 13 16  1  0  0  0  0
 14 15  1  0  0  0  0
 14 17  1  0  0  0  0
 16 18  1  6  0  0  0
 17 19  2  0  0  0  0
 17 21  1  0  0  0  0
 18 20  1  0  0  0  0
 20 22  1  0  0  0  0
M  CHG  1   9  -1
M  END
>  <CHROM.1>
94.38469167,71.36627698,-134.83223007,-69.98362092,-170.72915517,-67.05761570
24.35269222,40.47264505,66.01413939,3.02390667,-0.15509469,-0.21318320

>  <Name>
ligand

>  <RI>
0

>  <Rbt.Current_Directory>
/home/itssahil/PROJECTS/Mol_Feturizer/New_Systems/rnas/2HOM

>  <Rbt.Executable>
rbdock ($Id: //depot/dev/client3/rdock/2013.1/src/exe/rbdock.cxx#4 $)

>  <Rbt.Library>
libRbt.so (2013.1, Build901 2013/11/27)

>  <Rbt.Parameter_File>
/export/apps/rDock/src/rDock_2013.1_src/data/scripts/dock_solv.prm

>  <Rbt.Receptor>
prm/pocket_docking_2.prm

>  <SCORE>
-21.9795

>  <SCORE.INTER>
-22.0558

>  <SCORE.INTER.CONST>
1

>  <SCORE.INTER.POLAR>
-2.58327

>  <SCORE.INTER.ROT>
6

>  <SCORE.INTER.SOLV>
22.6511

>  <SCORE.INTER.VDW>
-21.2433

>  <SCORE.INTER.norm>
-1.00254

>  <SCORE.INTRA>
0.0422476

>  <SCORE.INTRA.DIHEDRAL>
0.877125

>  <SCORE.INTRA.DIHEDRAL.0>
5.05013

>  <SCORE.INTRA.POLAR>
0

>  <SCORE.INTRA.POLAR.0>
0

>  <SCORE.INTRA.REPUL>
0

>  <SCORE.INTRA.REPUL.0>
0

>  <SCORE.INTRA.SOLV>
0.00303798

>  <SCORE.INTRA.SOLV.lig_0>
-54.1265

>  <SCORE.INTRA.VDW>
-0.397834

>  <SCORE.INTRA.VDW.0>
-2.1303

>  <SCORE.INTRA.norm>
0.00192035

>  <SCORE.RESTR>
0.0339983

>  <SCORE.RESTR.CAVITY>
0.0339983

>  <SCORE.RESTR.norm>
0.00154538

>  <SCORE.SYSTEM>
0

>  <SCORE.SYSTEM.CONST>
0

>  <SCORE.SYSTEM.DIHEDRAL>
0

>  <SCORE.SYSTEM.SOLV>
0

>  <SCORE.SYSTEM.norm>
0

>  <SCORE.heavy>
22

>  <SCORE.norm>
-0.99907

>  <RMSD>
1.600

$$$$
ligand
 OpenBabel11021811443D
libRbt.so/2013.1/901 2013/11/27
 22 23  0  0  0  0  0  0  0  0999 V2000
   16.7575   39.7353   63.6374 C   0  0  0  0  0  0  0  0  0  0  0  0
   24.7361   41.3676   65.7133 C   0  0  0  0  0  0  0  0  0  0  0  0
   29.7877   38.5470   65.6695 P   0  0  1  0  0  0  0  0  0  0  0  0
   18.8882   38.9989   64.4381 N   0  0  0  0  0  0  0  0  0  0  0  0
   29.3450   38.5384   64.2517 O   0  0  0  0  0  0  0  0  0  0  0  0
   24.0240   37.4069   65.5997 S   0  0  0  0  0  0  0  0  0  0  0  0
   22.6714   38.3535   65.9113 C   0  0  0  0  0  0  0  0  0  0  0  0
   18.0337   40.0669   64.2692 C   0  0  0  0  0  0  0  0  0  0  0  0
   30.0997   37.2017   66.2172 O   0  5  0  0  0  0  0  0  0  0  0  0
   22.8890   39.6854   65.9525 N   0  0  0  0  0  0  0  0  0  0  0  0
   18.3229   41.2906   64.6228 N   0  0  0  0  0  0  0  0  0  0  0  0
   30.8918   39.5397   65.8675 O   0  0  0  0  0  0  0  0  0  0  0  0
   24.2389   39.9520   65.7161 C   0  0  2  0  0  0  0  0  0  0  0  0
   19.5461   41.5709   65.2227 C   0  0  0  0  0  0  0  0  0  0  0  0
   19.8303   42.8257   65.5589 N   0  0  0  0  0  0  0  0  0  0  0  0
   25.0168   38.8377   65.5073 C   0  0  1  0  0  0  0  0  0  0  0  0
   20.4805   40.4850   65.4696 C   0  0  0  0  0  0  0  0  0  0  0  0
   26.4795   38.7800   65.2495 C   0  0  0  0  0  0  0  0  0  0  0  0
   20.0896   39.2392   65.0218 C   0  0  0  0  0  0  0  0  0  0  0  0
   27.2370   38.5143   66.4960 C   0  0  0  0  0  0  0  0  0  0  0  0
   21.7745   40.7142   66.2269 C   0  0  0  0  0  0  0  0  0  0  0  0
   28.5740   39.0118   66.5593 O   0  0  0  0  0  0  0  0  0  0  0  0
  1  8  1  0  0  0  0
  3  5  1  6  0  0  0
  3  9  1  0  0  0  0
  3 12  2  0  0  0  0
  3 22  1  0  0  0  0
  4  8  2  0  0  0  0
  4 19  1  0  0  0  0
  6 16  1  0  0  0  0
  6  7  1  0  0  0  0
  7 10  1  0  0  0  0
  8 11  1  0  0  0  0
 10 13  1  0  0  0  0
 10 21  1  0  0  0  0
 11 14  2  0  0  0  0
 13  2  1  1  0  0  0
 13 16  1  0  0  0  0
 14 15  1  0  0  0  0
 14 17  1  0  0  0  0
 16 18  1  1  0  0  0
 17 19  2  0  0  0  0
 17 21  1  0  0  0  0
 18 20  1  0  0  0  0
 20 22  1  0  0  0  0
M  CHG  1   9  -1
M  END
>  <CHROM.1>
-44.94766428,-82.95407315,-157.01776285,-152.31534014,-65.51141765,48.36302491
24.16915639,39.38237847,65.44704310,2.97475637,-0.11519616,0.12857246

>  <Name>
ligand

>  <RI>
0

>  <Rbt.Current_Directory>
/home/itssahil/PROJECTS/Mol_Feturizer/New_Systems/rnas/2HOM

>  <Rbt.Executable>
rbdock ($Id: //depot/dev/client3/rdock/2013.1/src/exe/rbdock.cxx#4 $)

>  <Rbt.Library>
libRbt.so (2013.1, Build901 2013/11/27)

>  <Rbt.Parameter_File>
/export/apps/rDock/src/rDock_2013.1_src/data/scripts/dock_solv.prm

>  <Rbt.Receptor>
prm/pocket_docking_3.prm

>  <SCORE>
-21.1797

>  <SCORE.INTER>
-23.2656

>  <SCORE.INTER.CONST>
1

>  <SCORE.INTER.POLAR>
-1.63459

>  <SCORE.INTER.ROT>
6

>  <SCORE.INTER.SOLV>
21.2187

>  <SCORE.INTER.VDW>
-24.7347

>  <SCORE.INTER.norm>
-1.05753

>  <SCORE.INTRA>
2.0859

>  <SCORE.INTRA.DIHEDRAL>
2.58597

>  <SCORE.INTRA.DIHEDRAL.0>
5.05013

>  <SCORE.INTRA.POLAR>
0

>  <SCORE.INTRA.POLAR.0>
0

>  <SCORE.INTRA.REPUL>
0

>  <SCORE.INTRA.REPUL.0>
0

>  <SCORE.INTRA.SOLV>
0.434872

>  <SCORE.INTRA.SOLV.lig_0>
-54.1265

>  <SCORE.INTRA.VDW>
0.575483

>  <SCORE.INTRA.VDW.0>
-2.1303

>  <SCORE.INTRA.norm>
0.0948138

>  <SCORE.RESTR>
0

>  <SCORE.RESTR.CAVITY>
0

>  <SCORE.RESTR.norm>
0

>  <SCORE.SYSTEM>
0

>  <SCORE.SYSTEM.CONST>
0

>  <SCORE.SYSTEM.DIHEDRAL>
0

>  <SCORE.SYSTEM.SOLV>
0

>  <SCORE.SYSTEM.norm>
0

>  <SCORE.heavy>
22

>  <SCORE.norm>
-0.962715

>  <RMSD>
1.628

$$$$
ligand
 OpenBabel11021811443D
libRbt.so/2013.1/901 2013/11/27
 22 23  0  0  0  0  0  0  0  0999 V2000
   17.3843   40.1768   63.8608 C   0  0  0  0  0  0  0  0  0  0  0  0
   25.0364   41.5264   66.5244 C   0  0  0  0  0  0  0  0  0  0  0  0
   29.5311   38.1015   65.1743 P   0  0  1  0  0  0  0  0  0  0  0  0
   19.0457   39.4343   65.4138 N   0  0  0  0  0  0  0  0  0  0  0  0
   29.8104   37.8452   66.6104 O   0  0  0  0  0  0  0  0  0  0  0  0
   24.1837   37.6650   67.2788 S   0  0  0  0  0  0  0  0  0  0  0  0
   22.8588   38.6971   67.3246 C   0  0  0  0  0  0  0  0  0  0  0  0
   18.5983   40.4694   64.6215 C   0  0  0  0  0  0  0  0  0  0  0  0
   30.6996   38.6064   64.4083 O   0  5  0  0  0  0  0  0  0  0  0  0
   23.1236   39.9970   67.0731 N   0  0  0  0  0  0  0  0  0  0  0  0
   19.2007   41.6245   64.5280 N   0  0  0  0  0  0  0  0  0  0  0  0
   28.8799   36.9077   64.5462 O   0  0  0  0  0  0  0  0  0  0  0  0
   24.4880   40.1632   66.8282 C   0  0  2  0  0  0  0  0  0  0  0  0
   20.3534   41.8700   65.2669 C   0  0  0  0  0  0  0  0  0  0  0  0
   20.9634   43.0452   65.1445 N   0  0  0  0  0  0  0  0  0  0  0  0
   25.2300   39.0081   66.9010 C   0  0  1  0  0  0  0  0  0  0  0  0
   20.8594   40.8372   66.1559 C   0  0  0  0  0  0  0  0  0  0  0  0
   26.6958   38.8504   66.7118 C   0  0  0  0  0  0  0  0  0  0  0  0
   20.1677   39.6426   66.1484 C   0  0  0  0  0  0  0  0  0  0  0  0
   27.1074   39.2367   65.3408 C   0  0  0  0  0  0  0  0  0  0  0  0
   22.0406   41.0938   67.0721 C   0  0  0  0  0  0  0  0  0  0  0  0
   28.5100   39.2970   65.0791 O   0  0  0  0  0  0  0  0  0  0  0  0
  1  8  1  0  0  0  0
  3  5  1  1  0  0  0
  3  9  1  0  0  0  0
  3 12  2  0  0  0  0
  3 22  1  0  0  0  0
  4  8  2  0  0  0  0
  4 19  1  0  0  0  0
  6 16  1  0  0  0  0
  6  7  1  0  0  0  0
  7 10  1  0  0  0  0
  8 11  1  0  0  0  0
 10 13  1  0  0  0  0
 10 21  1  0  0  0  0
 11 14  2  0  0  0  0
 13  2  1  1  0  0  0
 13 16  1  0  0  0  0
 14 15  1  0  0  0  0
 14 17  1  0  0  0  0
 16 18  1  1  0  0  0
 17 19  2  0  0  0  0
 17 21  1  0  0  0  0
 18 20  1  0  0  0  0
 20 22  1  0  0  0  0
M  CHG  1   9  -1
M  END
>  <CHROM.1>
-54.73308389,118.26851297,-133.17096961,172.14618641,61.47244062,-76.03668538
24.35576812,39.49498877,65.83026347,-2.91456166,-0.12995185,2.57863388

>  <Name>
ligand

>  <RI>
0

>  <Rbt.Current_Directory>
/home/itssahil/PROJECTS/Mol_Feturizer/New_Systems/rnas/2HOM

>  <Rbt.Executable>
rbdock ($Id: //depot/dev/client3/rdock/2013.1/src/exe/rbdock.cxx#4 $)

>  <Rbt.Library>
libRbt.so (2013.1, Build901 2013/11/27)

>  <Rbt.Parameter_File>
/export/apps/rDock/src/rDock_2013.1_src/data/scripts/dock_solv.prm

>  <Rbt.Receptor>
prm/pocket_docking_3.prm

>  <SCORE>
-19.87

>  <SCORE.INTER>
-20.9677

>  <SCORE.INTER.CONST>
1

>  <SCORE.INTER.POLAR>
-1.30201

>  <SCORE.INTER.ROT>
6

>  <SCORE.INTER.SOLV>
15.3266

>  <SCORE.INTER.VDW>
-22.3473

>  <SCORE.INTER.norm>
-0.953076

>  <SCORE.INTRA>
1.09763

>  <SCORE.INTRA.DIHEDRAL>
0.114587

>  <SCORE.INTRA.DIHEDRAL.0>
5.05013

>  <SCORE.INTRA.POLAR>
0

>  <SCORE.INTRA.POLAR.0>
0

>  <SCORE.INTRA.REPUL>
0

>  <SCORE.INTRA.REPUL.0>
0

>  <SCORE.INTRA.SOLV>
0.976869

>  <SCORE.INTRA.SOLV.lig_0>
-54.1265

>  <SCORE.INTRA.VDW>
0.551901

>  <SCORE.INTRA.VDW.0>
-2.1303

>  <SCORE.INTRA.norm>
0.0498922

>  <SCORE.RESTR>
0

>  <SCORE.RESTR.CAVITY>
0

>  <SCORE.RESTR.norm>
0

>  <SCORE.SYSTEM>
0

>  <SCORE.SYSTEM.CONST>
0

>  <SCORE.SYSTEM.DIHEDRAL>
0

>  <SCORE.SYSTEM.SOLV>
0

>  <SCORE.SYSTEM.norm>
0

>  <SCORE.heavy>
22

>  <SCORE.norm>
-0.903184

>  <RMSD>
1.647

$$$$
ligand
 OpenBabel11021811443D
libRbt.so/2013.1/901 2013/11/27
 22 23  0  0  0  0  0  0  0  0999 V2000
   16.8487   40.1124   63.5776 C   0  0  0  0  0  0  0  0  0  0  0  0
   23.9567   38.7496   67.4958 C   0  0  0  0  0  0  0  0  0  0  0  0
   29.9987   39.9456   67.1507 P   0  0  1  0  0  0  0  0  0  0  0  0
   18.4851   39.2039   65.0676 N   0  0  0  0  0  0  0  0  0  0  0  0
   29.7132   41.3302   67.6064 O   0  0  0  0  0  0  0  0  0  0  0  0
   24.8356   41.0053   64.2793 S   0  0  0  0  0  0  0  0  0  0  0  0
   23.2990   41.2544   64.9111 C   0  0  0  0  0  0  0  0  0  0  0  0
   18.0957   40.2937   64.3192 C   0  0  0  0  0  0  0  0  0  0  0  0
   31.1606   39.8355   66.2314 O   0  5  0  0  0  0  0  0  0  0  0  0
   22.9849   40.5079   65.9915 N   0  0  0  0  0  0  0  0  0  0  0  0
   18.7764   41.4062   64.2488 N   0  0  0  0  0  0  0  0  0  0  0  0
   30.0772   39.0146   68.3215 O   0  0  0  0  0  0  0  0  0  0  0  0
   24.0604   39.6827   66.3254 C   0  0  2  0  0  0  0  0  0  0  0  0
   19.9585   41.5456   64.9686 C   0  0  0  0  0  0  0  0  0  0  0  0
   20.6474   42.6786   64.8698 N   0  0  0  0  0  0  0  0  0  0  0  0
   25.1567   39.8072   65.5051 C   0  0  1  0  0  0  0  0  0  0  0  0
   20.4083   40.4507   65.8124 C   0  0  0  0  0  0  0  0  0  0  0  0
   26.4426   39.0655   65.5801 C   0  0  0  0  0  0  0  0  0  0  0  0
   19.6338   39.3084   65.7827 C   0  0  0  0  0  0  0  0  0  0  0  0
   27.4145   39.7584   66.4596 C   0  0  0  0  0  0  0  0  0  0  0  0
   21.6233   40.5932   66.7090 C   0  0  0  0  0  0  0  0  0  0  0  0
   28.7971   39.4678   66.2514 O   0  0  0  0  0  0  0  0  0  0  0  0
  1  8  1  0  0  0  0
  3  5  1  1  0  0  0
  3  9  1  0  0  0  0
  3 12  2  0  0  0  0
  3 22  1  0  0  0  0
  4  8  2  0  0  0  0
  4 19  1  0  0  0  0
  6 16  1  0  0  0  0
  6  7  1  0  0  0  0
  7 10  1  0  0  0  0
  8 11  1  0  0  0  0
 10 13  1  0  0  0  0
 10 21  1  0  0  0  0
 11 14  2  0  0  0  0
 13  2  1  6  0  0  0
 13 16  1  0  0  0  0
 14 15  1  0  0  0  0
 14 17  1  0  0  0  0
 16 18  1  6  0  0  0
 17 19  2  0  0  0  0
 17 21  1  0  0  0  0
 18 20  1  0  0  0  0
 20 22  1  0  0  0  0
M  CHG  1   9  -1
M  END
>  <CHROM.1>
51.74847944,91.53404688,-76.71955043,-157.45794611,-172.69718360,-37.67905881
24.33238400,40.23857678,65.82765247,-2.95544715,0.10813960,2.39414461

>  <Name>
ligand

>  <RI>
0

>  <Rbt.Current_Directory>
/home/itssahil/PROJECTS/Mol_Feturizer/New_Systems/rnas/2HOM

>  <Rbt.Executable>
rbdock ($Id: //depot/dev/client3/rdock/2013.1/src/exe/rbdock.cxx#4 $)

>  <Rbt.Library>
libRbt.so (2013.1, Build901 2013/11/27)

>  <Rbt.Parameter_File>
/export/apps/rDock/src/rDock_2013.1_src/data/scripts/dock_solv.prm

>  <Rbt.Receptor>
prm/pocket_docking_2.prm

>  <SCORE>
-19.8533

>  <SCORE.INTER>
-21.8016

>  <SCORE.INTER.CONST>
1

>  <SCORE.INTER.POLAR>
-2.58327

>  <SCORE.INTER.ROT>
6

>  <SCORE.INTER.SOLV>
23.4942

>  <SCORE.INTER.VDW>
-21.3549

>  <SCORE.INTER.norm>
-0.990981

>  <SCORE.INTRA>
1.91221

>  <SCORE.INTRA.DIHEDRAL>
2.56963

>  <SCORE.INTRA.DIHEDRAL.0>
5.05013

>  <SCORE.INTRA.POLAR>
0

>  <SCORE.INTRA.POLAR.0>
0

>  <SCORE.INTRA.REPUL>
0

>  <SCORE.INTRA.REPUL.0>
0

>  <SCORE.INTRA.SOLV>
1.24144

>  <SCORE.INTRA.SOLV.lig_0>
-54.1265

>  <SCORE.INTRA.VDW>
0.00667688

>  <SCORE.INTRA.VDW.0>
-2.1303

>  <SCORE.INTRA.norm>
0.0869188

>  <SCORE.RESTR>
0.0361141

>  <SCORE.RESTR.CAVITY>
0.0361141

>  <SCORE.RESTR.norm>
0.00164155

>  <SCORE.SYSTEM>
0

>  <SCORE.SYSTEM.CONST>
0

>  <SCORE.SYSTEM.DIHEDRAL>
0

>  <SCORE.SYSTEM.SOLV>
0

>  <SCORE.SYSTEM.norm>
0

>  <SCORE.heavy>
22

>  <SCORE.norm>
-0.902421

>  <RMSD>
1.648

$$$$
ligand
 OpenBabel11021811443D
libRbt.so/2013.1/901 2013/11/27
 22 23  0  0  0  0  0  0  0  0999 V2000
   17.1870   39.5756   63.9578 C   0  0  0  0  0  0  0  0  0  0  0  0
   24.3623   41.1706   64.8214 C   0  0  0  0  0  0  0  0  0  0  0  0
   29.9956   39.8985   67.1665 P   0  0  1  0  0  0  0  0  0  0  0  0
   18.3909   41.4305   64.8706 N   0  0  0  0  0  0  0  0  0  0  0  0
   31.0790   39.7070   66.1686 O   0  0  0  0  0  0  0  0  0  0  0  0
   24.1933   39.0927   68.2654 S   0  0  0  0  0  0  0  0  0  0  0  0
   22.8939   40.1256   68.0056 C   0  0  0  0  0  0  0  0  0  0  0  0
   18.3867   40.0737   64.6290 C   0  0  0  0  0  0  0  0  0  0  0  0
   30.1213   39.0404   68.3728 O   0  5  0  0  0  0  0  0  0  0  0  0
   22.9311   40.8311   66.8550 N   0  0  0  0  0  0  0  0  0  0  0  0
   19.3579   39.2720   64.9754 N   0  0  0  0  0  0  0  0  0  0  0  0
   29.8292   41.3524   67.4865 O   0  0  0  0  0  0  0  0  0  0  0  0
   24.0877   40.5118   66.1412 C   0  0  2  0  0  0  0  0  0  0  0  0
   20.4859   39.7796   65.6116 C   0  0  0  0  0  0  0  0  0  0  0  0
   21.4561   38.9453   65.9735 N   0  0  0  0  0  0  0  0  0  0  0  0
   24.9027   39.5876   66.7511 C   0  0  1  0  0  0  0  0  0  0  0  0
   20.5765   41.2087   65.8614 C   0  0  0  0  0  0  0  0  0  0  0  0
   26.2023   39.0542   66.2655 C   0  0  0  0  0  0  0  0  0  0  0  0
   19.4781   41.9572   65.4889 C   0  0  0  0  0  0  0  0  0  0  0  0
   27.3346   39.5838   67.0628 C   0  0  0  0  0  0  0  0  0  0  0  0
   21.8324   41.8302   66.4420 C   0  0  0  0  0  0  0  0  0  0  0  0
   28.6452   39.4019   66.5256 O   0  0  0  0  0  0  0  0  0  0  0  0
  1  8  1  0  0  0  0
  3  5  1  6  0  0  0
  3  9  1  0  0  0  0
  3 12  2  0  0  0  0
  3 22  1  0  0  0  0
  4  8  2  0  0  0  0
  4 19  1  0  0  0  0
  6 16  1  0  0  0  0
  6  7  1  0  0  0  0
  7 10  1  0  0  0  0
  8 11  1  0  0  0  0
 10 13  1  0  0  0  0
 10 21  1  0  0  0  0
 11 14  2  0  0  0  0
 13  2  1  1  0  0  0
 13 16  1  0  0  0  0
 14 15  1  0  0  0  0
 14 17  1  0  0  0  0
 16 18  1  1  0  0  0
 17 19  2  0  0  0  0
 17 21  1  0  0  0  0
 18 20  1  0  0  0  0
 20 22  1  0  0  0  0
M  CHG  1   9  -1
M  END
>  <CHROM.1>
-78.98758484,-71.40503887,-5.19271897,-166.14139711,178.66037777,-170.26106836
24.35465432,40.06855223,66.42832446,-2.96005003,0.08010570,2.27357582

>  <Name>
ligand

>  <RI>
0

>  <Rbt.Current_Directory>
/home/itssahil/PROJECTS/Mol_Feturizer/New_Systems/rnas/2HOM

>  <Rbt.Executable>
rbdock ($Id: //depot/dev/client3/rdock/2013.1/src/exe/rbdock.cxx#4 $)

>  <Rbt.Library>
libRbt.so (2013.1, Build901 2013/11/27)

>  <Rbt.Parameter_File>
/export/apps/rDock/src/rDock_2013.1_src/data/scripts/dock_solv.prm

>  <Rbt.Receptor>
prm/pocket_docking_2.prm

>  <SCORE>
-24.8198

>  <SCORE.INTER>
-28.0238

>  <SCORE.INTER.CONST>
1

>  <SCORE.INTER.POLAR>
-2.81395

>  <SCORE.INTER.ROT>
6

>  <SCORE.INTER.SOLV>
16.6482

>  <SCORE.INTER.VDW>
-22.4521

>  <SCORE.INTER.norm>
-1.27381

>  <SCORE.INTRA>
3.20406

>  <SCORE.INTRA.DIHEDRAL>
0.857038

>  <SCORE.INTRA.DIHEDRAL.0>
5.05013

>  <SCORE.INTRA.POLAR>
0

>  <SCORE.INTRA.POLAR.0>
0

>  <SCORE.INTRA.REPUL>
0

>  <SCORE.INTRA.REPUL.0>
0

>  <SCORE.INTRA.SOLV>
5.00183

>  <SCORE.INTRA.SOLV.lig_0>
-54.1265

>  <SCORE.INTRA.VDW>
0.274633

>  <SCORE.INTRA.VDW.0>
-2.1303

>  <SCORE.INTRA.norm>
0.145639

>  <SCORE.RESTR>
0

>  <SCORE.RESTR.CAVITY>
0

>  <SCORE.RESTR.norm>
0

>  <SCORE.SYSTEM>
0

>  <SCORE.SYSTEM.CONST>
0

>  <SCORE.SYSTEM.DIHEDRAL>
0

>  <SCORE.SYSTEM.SOLV>
0

>  <SCORE.SYSTEM.norm>
0

>  <SCORE.heavy>
22

>  <SCORE.norm>
-1.12817

>  <RMSD>
1.655

$$$$
ligand
 OpenBabel11021811443D
libRbt.so/2013.1/901 2013/11/27
 22 23  0  0  0  0  0  0  0  0999 V2000
   17.1288   39.5077   63.5331 C   0  0  0  0  0  0  0  0  0  0  0  0
   23.7248   39.5833   68.2146 C   0  0  0  0  0  0  0  0  0  0  0  0
   30.1814   40.0832   66.7986 P   0  0  1  0  0  0  0  0  0  0  0  0
   19.1798   39.0568   64.6791 N   0  0  0  0  0  0  0  0  0  0  0  0
   30.0235   40.6131   68.1772 O   0  0  0  0  0  0  0  0  0  0  0  0
   25.0607   40.5973   64.5548 S   0  0  0  0  0  0  0  0  0  0  0  0
   23.5074   41.1321   64.9068 C   0  0  0  0  0  0  0  0  0  0  0  0
   18.2734   40.0178   64.2866 C   0  0  0  0  0  0  0  0  0  0  0  0
   30.6833   41.0800   65.8179 O   0  5  0  0  0  0  0  0  0  0  0  0
   23.0410   40.8031   66.1305 N   0  0  0  0  0  0  0  0  0  0  0  0
   18.4101   41.2915   64.5415 N   0  0  0  0  0  0  0  0  0  0  0  0
   30.9748   38.8128   66.8134 O   0  0  0  0  0  0  0  0  0  0  0  0
   24.0066   40.0711   66.8239 C   0  0  2  0  0  0  0  0  0  0  0  0
   19.5110   41.7428   65.2622 C   0  0  0  0  0  0  0  0  0  0  0  0
   19.6427   43.0452   65.4958 N   0  0  0  0  0  0  0  0  0  0  0  0
   25.1719   39.8526   66.1278 C   0  0  1  0  0  0  0  0  0  0  0  0
   20.4868   40.7791   65.7439 C   0  0  0  0  0  0  0  0  0  0  0  0
   26.3748   39.1014   66.5729 C   0  0  0  0  0  0  0  0  0  0  0  0
   20.2646   39.4647   65.3853 C   0  0  0  0  0  0  0  0  0  0  0  0
   27.5017   40.0167   66.8737 C   0  0  0  0  0  0  0  0  0  0  0  0
   21.6397   41.2013   66.6344 C   0  0  0  0  0  0  0  0  0  0  0  0
   28.7503   39.7359   66.2399 O   0  0  0  0  0  0  0  0  0  0  0  0
  1  8  1  0  0  0  0
  3  5  1  1  0  0  0
  3  9  1  0  0  0  0
  3 12  2  0  0  0  0
  3 22  1  0  0  0  0
  4  8  2  0  0  0  0
  4 19  1  0  0  0  0
  6 16  1  0  0  0  0
  6  7  1  0  0  0  0
  7 10  1  0  0  0  0
  8 11  1  0  0  0  0
 10 13  1  0  0  0  0
 10 21  1  0  0  0  0
 11 14  2  0  0  0  0
 13  2  1  6  0  0  0
 13 16  1  0  0  0  0
 14 15  1  0  0  0  0
 14 17  1  0  0  0  0
 16 18  1  6  0  0  0
 17 19  2  0  0  0  0
 17 21  1  0  0  0  0
 18 20  1  0  0  0  0
 20 22  1  0  0  0  0
M  CHG  1   9  -1
M  END
>  <CHROM.1>
54.86793501,73.14875909,-125.73494924,-127.81968114,-151.38059250,6.55657313
24.40215731,40.32995122,65.90217094,-2.96805882,-0.06447260,1.51636428

>  <Name>
ligand

>  <RI>
0

>  <Rbt.Current_Directory>
/home/itssahil/PROJECTS/Mol_Feturizer/New_Systems/rnas/2HOM

>  <Rbt.Executable>
rbdock ($Id: //depot/dev/client3/rdock/2013.1/src/exe/rbdock.cxx#4 $)

>  <Rbt.Library>
libRbt.so (2013.1, Build901 2013/11/27)

>  <Rbt.Parameter_File>
/export/apps/rDock/src/rDock_2013.1_src/data/scripts/dock_solv.prm

>  <Rbt.Receptor>
prm/pocket_docking_2.prm

>  <SCORE>
-14.2973

>  <SCORE.INTER>
-20.1068

>  <SCORE.INTER.CONST>
1

>  <SCORE.INTER.POLAR>
-2.58327

>  <SCORE.INTER.ROT>
6

>  <SCORE.INTER.SOLV>
27.1036

>  <SCORE.INTER.VDW>
-21.4282

>  <SCORE.INTER.norm>
-0.913944

>  <SCORE.INTRA>
5.68833

>  <SCORE.INTRA.DIHEDRAL>
11.0106

>  <SCORE.INTRA.DIHEDRAL.0>
5.05013

>  <SCORE.INTRA.POLAR>
0

>  <SCORE.INTRA.POLAR.0>
0

>  <SCORE.INTRA.REPUL>
0

>  <SCORE.INTRA.REPUL.0>
0

>  <SCORE.INTRA.SOLV>
-0.213678

>  <SCORE.INTRA.SOLV.lig_0>
-54.1265

>  <SCORE.INTRA.VDW>
0.28988

>  <SCORE.INTRA.VDW.0>
-2.1303

>  <SCORE.INTRA.norm>
0.258561

>  <SCORE.RESTR>
0.121141

>  <SCORE.RESTR.CAVITY>
0.121141

>  <SCORE.RESTR.norm>
0.00550643

>  <SCORE.SYSTEM>
0

>  <SCORE.SYSTEM.CONST>
0

>  <SCORE.SYSTEM.DIHEDRAL>
0

>  <SCORE.SYSTEM.SOLV>
0

>  <SCORE.SYSTEM.norm>
0

>  <SCORE.heavy>
22

>  <SCORE.norm>
-0.649877

>  <RMSD>
1.657

$$$$
ligand
 OpenBabel11021811443D
libRbt.so/2013.1/901 2013/11/27
 22 23  0  0  0  0  0  0  0  0999 V2000
   16.9167   39.3637   63.9250 C   0  0  0  0  0  0  0  0  0  0  0  0
   24.2052   40.9252   64.5602 C   0  0  0  0  0  0  0  0  0  0  0  0
   29.8186   39.9377   66.8336 P   0  0  1  0  0  0  0  0  0  0  0  0
   18.0795   41.1946   64.9344 N   0  0  0  0  0  0  0  0  0  0  0  0
   29.8342   40.7649   68.0672 O   0  0  0  0  0  0  0  0  0  0  0  0
   23.9957   39.1539   68.1693 S   0  0  0  0  0  0  0  0  0  0  0  0
   22.7030   40.1647   67.8086 C   0  0  0  0  0  0  0  0  0  0  0  0
   18.1537   39.8882   64.5018 C   0  0  0  0  0  0  0  0  0  0  0  0
   29.8490   40.7244   65.5737 O   0  5  0  0  0  0  0  0  0  0  0  0
   22.7539   40.7678   66.6017 N   0  0  0  0  0  0  0  0  0  0  0  0
   19.2270   39.1506   64.6015 N   0  0  0  0  0  0  0  0  0  0  0  0
   30.8768   38.8797   66.8991 O   0  0  0  0  0  0  0  0  0  0  0  0
   23.9157   40.3841   65.9294 C   0  0  2  0  0  0  0  0  0  0  0  0
   20.3875   39.6818   65.1546 C   0  0  0  0  0  0  0  0  0  0  0  0
   21.4647   38.9099   65.2650 N   0  0  0  0  0  0  0  0  0  0  0  0
   24.7212   39.5135   66.6247 C   0  0  1  0  0  0  0  0  0  0  0  0
   20.3938   41.0672   65.5946 C   0  0  0  0  0  0  0  0  0  0  0  0
   26.0230   38.9358   66.1996 C   0  0  0  0  0  0  0  0  0  0  0  0
   19.1957   41.7428   65.4779 C   0  0  0  0  0  0  0  0  0  0  0  0
   27.1528   39.8226   66.5677 C   0  0  0  0  0  0  0  0  0  0  0  0
   21.6631   41.7311   66.0933 C   0  0  0  0  0  0  0  0  0  0  0  0
   28.4269   39.2047   66.7524 O   0  0  0  0  0  0  0  0  0  0  0  0
  1  8  1  0  0  0  0
  3  5  1  1  0  0  0
  3  9  1  0  0  0  0
  3 12  2  0  0  0  0
  3 22  1  0  0  0  0
  4  8  2  0  0  0  0
  4 19  1  0  0  0  0
  6 16  1  0  0  0  0
  6  7  1  0  0  0  0
  7 10  1  0  0  0  0
  8 11  1  0  0  0  0
 10 13  1  0  0  0  0
 10 21  1  0  0  0  0
 11 14  2  0  0  0  0
 13  2  1  1  0  0  0
 13 16  1  0  0  0  0
 14 15  1  0  0  0  0
 14 17  1  0  0  0  0
 16 18  1  1  0  0  0
 17 19  2  0  0  0  0
 17 21  1  0  0  0  0
 18 20  1  0  0  0  0
 20 22  1  0  0  0  0
M  CHG  1   9  -1
M  END
>  <CHROM.1>
-77.25758008,-91.81264877,-22.20429801,154.23341567,165.80237778,66.16673447
24.17383147,40.01471314,66.17677880,-2.96133810,0.02309140,1.90956218

>  <Name>
ligand

>  <RI>
0

>  <Rbt.Current_Directory>
/home/itssahil/PROJECTS/Mol_Feturizer/New_Systems/rnas/2HOM

>  <Rbt.Executable>
rbdock ($Id: //depot/dev/client3/rdock/2013.1/src/exe/rbdock.cxx#4 $)

>  <Rbt.Library>
libRbt.so (2013.1, Build901 2013/11/27)

>  <Rbt.Parameter_File>
/export/apps/rDock/src/rDock_2013.1_src/data/scripts/dock_solv.prm

>  <Rbt.Receptor>
prm/pocket_docking_2.prm

>  <SCORE>
-22.4124

>  <SCORE.INTER>
-26.2908

>  <SCORE.INTER.CONST>
1

>  <SCORE.INTER.POLAR>
-2.5441

>  <SCORE.INTER.ROT>
6

>  <SCORE.INTER.SOLV>
17.5881

>  <SCORE.INTER.VDW>
-22.5096

>  <SCORE.INTER.norm>
-1.19504

>  <SCORE.INTRA>
3.51374

>  <SCORE.INTRA.DIHEDRAL>
2.80052

>  <SCORE.INTRA.DIHEDRAL.0>
5.05013

>  <SCORE.INTRA.POLAR>
0

>  <SCORE.INTRA.POLAR.0>
0

>  <SCORE.INTRA.REPUL>
0

>  <SCORE.INTRA.REPUL.0>
0

>  <SCORE.INTRA.SOLV>
4.57025

>  <SCORE.INTRA.SOLV.lig_0>
-54.1265

>  <SCORE.INTRA.VDW>
-0.17164

>  <SCORE.INTRA.VDW.0>
-2.1303

>  <SCORE.INTRA.norm>
0.159716

>  <SCORE.RESTR>
0.364683

>  <SCORE.RESTR.CAVITY>
0.364683

>  <SCORE.RESTR.norm>
0.0165765

>  <SCORE.SYSTEM>
0

>  <SCORE.SYSTEM.CONST>
0

>  <SCORE.SYSTEM.DIHEDRAL>
0

>  <SCORE.SYSTEM.SOLV>
0

>  <SCORE.SYSTEM.norm>
0

>  <SCORE.heavy>
22

>  <SCORE.norm>
-1.01874

>  <RMSD>
1.668

$$$$
ligand
 OpenBabel11021811443D
libRbt.so/2013.1/901 2013/11/27
 22 23  0  0  0  0  0  0  0  0999 V2000
   17.1944   39.9554   63.8031 C   0  0  0  0  0  0  0  0  0  0  0  0
   23.2922   38.4735   67.1303 C   0  0  0  0  0  0  0  0  0  0  0  0
   29.0033   39.5266   66.7719 P   0  0  1  0  0  0  0  0  0  0  0  0
   19.0120   39.3214   65.2236 N   0  0  0  0  0  0  0  0  0  0  0  0
   29.1125   41.0078   66.7924 O   0  0  0  0  0  0  0  0  0  0  0  0
   25.4953   40.9989   64.8996 S   0  0  0  0  0  0  0  0  0  0  0  0
   24.0406   41.6356   65.4484 C   0  0  0  0  0  0  0  0  0  0  0  0
   18.4168   40.3379   64.5083 C   0  0  0  0  0  0  0  0  0  0  0  0
   28.9318   38.9411   65.4083 O   0  5  0  0  0  0  0  0  0  0  0  0
   23.2870   40.8043   66.1996 N   0  0  0  0  0  0  0  0  0  0  0  0
   18.8947   41.5515   64.4372 N   0  0  0  0  0  0  0  0  0  0  0  0
   30.0674   38.9110   67.6277 O   0  0  0  0  0  0  0  0  0  0  0  0
   23.9328   39.5743   66.3370 C   0  0  2  0  0  0  0  0  0  0  0  0
   20.0596   41.8819   65.1218 C   0  0  0  0  0  0  0  0  0  0  0  0
   20.5412   43.1174   65.0224 N   0  0  0  0  0  0  0  0  0  0  0  0
   25.1454   39.4868   65.6948 C   0  0  1  0  0  0  0  0  0  0  0  0
   20.7185   40.8693   65.9304 C   0  0  0  0  0  0  0  0  0  0  0  0
   26.0640   38.3200   65.6324 C   0  0  0  0  0  0  0  0  0  0  0  0
   20.1498   39.6118   65.9038 C   0  0  0  0  0  0  0  0  0  0  0  0
   26.7409   38.0962   66.9325 C   0  0  0  0  0  0  0  0  0  0  0  0
   21.9213   41.2062   66.7908 C   0  0  0  0  0  0  0  0  0  0  0  0
   27.6123   39.1289   67.3945 O   0  0  0  0  0  0  0  0  0  0  0  0
  1  8  1  0  0  0  0
  3  5  1  6  0  0  0
  3  9  1  0  0  0  0
  3 12  2  0  0  0  0
  3 22  1  0  0  0  0
  4  8  2  0  0  0  0
  4 19  1  0  0  0  0
  6 16  1  0  0  0  0
  6  7  1  0  0  0  0
  7 10  1  0  0  0  0
  8 11  1  0  0  0  0
 10 13  1  0  0  0  0
 10 21  1  0  0  0  0
 11 14  2  0  0  0  0
 13  2  1  6  0  0  0
 13 16  1  0  0  0  0
 14 15  1  0  0  0  0
 14 17  1  0  0  0  0
 16 18  1  6  0  0  0
 17 19  2  0  0  0  0
 17 21  1  0  0  0  0
 18 20  1  0  0  0  0
 20 22  1  0  0  0  0
M  CHG  1   9  -1
M  END
>  <CHROM.1>
92.26841334,108.05809914,-101.02199159,-63.61451541,-69.56157604,139.98289754
24.16902962,40.10662366,65.89039909,2.95315598,-0.13473596,-0.28289003

>  <Name>
ligand

>  <RI>
0

>  <Rbt.Current_Directory>
/home/itssahil/PROJECTS/Mol_Feturizer/New_Systems/rnas/2HOM

>  <Rbt.Executable>
rbdock ($Id: //depot/dev/client3/rdock/2013.1/src/exe/rbdock.cxx#4 $)

>  <Rbt.Library>
libRbt.so (2013.1, Build901 2013/11/27)

>  <Rbt.Parameter_File>
/export/apps/rDock/src/rDock_2013.1_src/data/scripts/dock_solv.prm

>  <Rbt.Receptor>
prm/pocket_docking_2.prm

>  <SCORE>
-18.7535

>  <SCORE.INTER>
-20.7025

>  <SCORE.INTER.CONST>
1

>  <SCORE.INTER.POLAR>
-1.63407

>  <SCORE.INTER.ROT>
6

>  <SCORE.INTER.SOLV>
15.6656

>  <SCORE.INTER.VDW>
-21.1766

>  <SCORE.INTER.norm>
-0.941024

>  <SCORE.INTRA>
1.94873

>  <SCORE.INTRA.DIHEDRAL>
2.01072

>  <SCORE.INTRA.DIHEDRAL.0>
5.05013

>  <SCORE.INTRA.POLAR>
0

>  <SCORE.INTRA.POLAR.0>
0

>  <SCORE.INTRA.REPUL>
0

>  <SCORE.INTRA.REPUL.0>
0

>  <SCORE.INTRA.SOLV>
1.89734

>  <SCORE.INTRA.SOLV.lig_0>
-54.1265

>  <SCORE.INTRA.VDW>
-0.00530102

>  <SCORE.INTRA.VDW.0>
-2.1303

>  <SCORE.INTRA.norm>
0.0885785

>  <SCORE.RESTR>
0.000259566

>  <SCORE.RESTR.CAVITY>
0.000259566

>  <SCORE.RESTR.norm>
1.17984e-05

>  <SCORE.SYSTEM>
0

>  <SCORE.SYSTEM.CONST>
0

>  <SCORE.SYSTEM.DIHEDRAL>
0

>  <SCORE.SYSTEM.SOLV>
0

>  <SCORE.SYSTEM.norm>
0

>  <SCORE.heavy>
22

>  <SCORE.norm>
-0.852434

>  <RMSD>
1.676

$$$$
ligand
 OpenBabel11021811443D
libRbt.so/2013.1/901 2013/11/27
 22 23  0  0  0  0  0  0  0  0999 V2000
   17.4693   39.7525   64.0821 C   0  0  0  0  0  0  0  0  0  0  0  0
   23.7065   39.3880   67.8854 C   0  0  0  0  0  0  0  0  0  0  0  0
   29.8356   40.2261   66.9715 P   0  0  1  0  0  0  0  0  0  0  0  0
   19.6730   39.4045   64.9459 N   0  0  0  0  0  0  0  0  0  0  0  0
   30.6642   39.0205   67.2287 O   0  0  0  0  0  0  0  0  0  0  0  0
   25.7256   40.4508   64.5686 S   0  0  0  0  0  0  0  0  0  0  0  0
   24.3312   41.3428   64.8563 C   0  0  0  0  0  0  0  0  0  0  0  0
   18.6974   40.3256   64.6310 C   0  0  0  0  0  0  0  0  0  0  0  0
   29.5080   41.0101   68.1903 O   0  5  0  0  0  0  0  0  0  0  0  0
   23.6398   41.0024   65.9649 N   0  0  0  0  0  0  0  0  0  0  0  0
   18.8392   41.6147   64.7866 N   0  0  0  0  0  0  0  0  0  0  0  0
   30.4390   41.0528   65.8778 O   0  0  0  0  0  0  0  0  0  0  0  0
   24.2841   39.9515   66.6204 C   0  0  2  0  0  0  0  0  0  0  0  0
   20.0208   42.1263   65.3129 C   0  0  0  0  0  0  0  0  0  0  0  0
   20.1540   43.4426   65.4465 N   0  0  0  0  0  0  0  0  0  0  0  0
   25.4339   39.5112   66.0086 C   0  0  1  0  0  0  0  0  0  0  0  0
   21.0778   41.2091   65.7061 C   0  0  0  0  0  0  0  0  0  0  0  0
   26.3327   38.4083   66.4386 C   0  0  0  0  0  0  0  0  0  0  0  0
   20.8376   39.8717   65.4628 C   0  0  0  0  0  0  0  0  0  0  0  0
   27.5005   38.9263   67.1911 C   0  0  0  0  0  0  0  0  0  0  0  0
   22.3358   41.7032   66.3944 C   0  0  0  0  0  0  0  0  0  0  0  0
   28.4193   39.7504   66.4729 O   0  0  0  0  0  0  0  0  0  0  0  0
  1  8  1  0  0  0  0
  3  5  1  1  0  0  0
  3  9  1  0  0  0  0
  3 12  2  0  0  0  0
  3 22  1  0  0  0  0
  4  8  2  0  0  0  0
  4 19  1  0  0  0  0
  6 16  1  0  0  0  0
  6  7  1  0  0  0  0
  7 10  1  0  0  0  0
  8 11  1  0  0  0  0
 10 13  1  0  0  0  0
 10 21  1  0  0  0  0
 11 14  2  0  0  0  0
 13  2  1  6  0  0  0
 13 16  1  0  0  0  0
 14 15  1  0  0  0  0
 14 17  1  0  0  0  0
 16 18  1  6  0  0  0
 17 19  2  0  0  0  0
 17 21  1  0  0  0  0
 18 20  1  0  0  0  0
 20 22  1  0  0  0  0
M  CHG  1   9  -1
M  END
>  <CHROM.1>
82.43907243,82.94489934,-141.51464602,-65.10481688,-169.52893066,60.08768270
24.61503558,40.40385435,65.97510956,3.01920562,-0.16452005,-0.17990434

>  <Name>
ligand

>  <RI>
0

>  <Rbt.Current_Directory>
/home/itssahil/PROJECTS/Mol_Feturizer/New_Systems/rnas/2HOM

>  <Rbt.Executable>
rbdock ($Id: //depot/dev/client3/rdock/2013.1/src/exe/rbdock.cxx#4 $)

>  <Rbt.Library>
libRbt.so (2013.1, Build901 2013/11/27)

>  <Rbt.Parameter_File>
/export/apps/rDock/src/rDock_2013.1_src/data/scripts/dock_solv.prm

>  <Rbt.Receptor>
prm/pocket_docking_3.prm

>  <SCORE>
-23.4962

>  <SCORE.INTER>
-23.3291

>  <SCORE.INTER.CONST>
1

>  <SCORE.INTER.POLAR>
-2.48722

>  <SCORE.INTER.ROT>
6

>  <SCORE.INTER.SOLV>
21.248

>  <SCORE.INTER.VDW>
-21.9447

>  <SCORE.INTER.norm>
-1.06041

>  <SCORE.INTRA>
-0.167152

>  <SCORE.INTRA.DIHEDRAL>
0.46985

>  <SCORE.INTRA.DIHEDRAL.0>
5.05013

>  <SCORE.INTRA.POLAR>
0

>  <SCORE.INTRA.POLAR.0>
0

>  <SCORE.INTRA.REPUL>
0

>  <SCORE.INTRA.REPUL.0>
0

>  <SCORE.INTRA.SOLV>
-0.0546598

>  <SCORE.INTRA.SOLV.lig_0>
-54.1265

>  <SCORE.INTRA.VDW>
-0.374747

>  <SCORE.INTRA.VDW.0>
-2.1303

>  <SCORE.INTRA.norm>
-0.00759782

>  <SCORE.RESTR>
0

>  <SCORE.RESTR.CAVITY>
0

>  <SCORE.RESTR.norm>
0

>  <SCORE.SYSTEM>
0

>  <SCORE.SYSTEM.CONST>
0

>  <SCORE.SYSTEM.DIHEDRAL>
0

>  <SCORE.SYSTEM.SOLV>
0

>  <SCORE.SYSTEM.norm>
0

>  <SCORE.heavy>
22

>  <SCORE.norm>
-1.06801

>  <RMSD>
1.684

$$$$
ligand
 OpenBabel11021811443D
libRbt.so/2013.1/901 2013/11/27
 22 23  0  0  0  0  0  0  0  0999 V2000
   17.3086   40.1038   63.8731 C   0  0  0  0  0  0  0  0  0  0  0  0
   23.4516   38.5820   67.3781 C   0  0  0  0  0  0  0  0  0  0  0  0
   29.5989   40.1530   66.9587 P   0  0  1  0  0  0  0  0  0  0  0  0
   19.1538   39.4217   65.2344 N   0  0  0  0  0  0  0  0  0  0  0  0
   30.4610   38.9956   67.3101 O   0  0  0  0  0  0  0  0  0  0  0  0
   25.5811   41.0028   64.9673 S   0  0  0  0  0  0  0  0  0  0  0  0
   24.1248   41.6493   65.5004 C   0  0  0  0  0  0  0  0  0  0  0  0
   18.5283   40.4685   64.5922 C   0  0  0  0  0  0  0  0  0  0  0  0
   29.4778   41.1699   68.0350 O   0  5  0  0  0  0  0  0  0  0  0  0
   23.3958   40.8530   66.3113 N   0  0  0  0  0  0  0  0  0  0  0  0
   18.9769   41.6951   64.5974 N   0  0  0  0  0  0  0  0  0  0  0  0
   30.0098   40.7306   65.6391 O   0  0  0  0  0  0  0  0  0  0  0  0
   24.0629   39.6430   66.5110 C   0  0  2  0  0  0  0  0  0  0  0  0
   20.1402   42.0078   65.2930 C   0  0  0  0  0  0  0  0  0  0  0  0
   20.5917   43.2584   65.2714 N   0  0  0  0  0  0  0  0  0  0  0  0
   25.2669   39.5356   65.8561 C   0  0  1  0  0  0  0  0  0  0  0  0
   20.8302   40.9605   66.0280 C   0  0  0  0  0  0  0  0  0  0  0  0
   26.2028   38.3809   65.8483 C   0  0  0  0  0  0  0  0  0  0  0  0
   20.2909   39.6941   65.9232 C   0  0  0  0  0  0  0  0  0  0  0  0
   27.6118   38.8292   65.7381 C   0  0  0  0  0  0  0  0  0  0  0  0
   22.0329   41.2690   66.8991 C   0  0  0  0  0  0  0  0  0  0  0  0
   28.1201   39.6334   66.8031 O   0  0  0  0  0  0  0  0  0  0  0  0
  1  8  1  0  0  0  0
  3  5  1  1  0  0  0
  3  9  1  0  0  0  0
  3 12  2  0  0  0  0
  3 22  1  0  0  0  0
  4  8  2  0  0  0  0
  4 19  1  0  0  0  0
  6 16  1  0  0  0  0
  6  7  1  0  0  0  0
  7 10  1  0  0  0  0
  8 11  1  0  0  0  0
 10 13  1  0  0  0  0
 10 21  1  0  0  0  0
 11 14  2  0  0  0  0
 13  2  1  6  0  0  0
 13 16  1  0  0  0  0
 14 15  1  0  0  0  0
 14 17  1  0  0  0  0
 16 18  1  6  0  0  0
 17 19  2  0  0  0  0
 17 21  1  0  0  0  0
 18 20  1  0  0  0  0
 20 22  1  0  0  0  0
M  CHG  1   9  -1
M  END
>  <CHROM.1>
87.67958330,32.95891238,-104.94037479,62.60148338,175.94196232,-71.66518178
24.44402128,40.36855818,65.96740514,3.02383556,-0.14885439,-0.18054431

>  <Name>
ligand

>  <RI>
0

>  <Rbt.Current_Directory>
/home/itssahil/PROJECTS/Mol_Feturizer/New_Systems/rnas/2HOM

>  <Rbt.Executable>
rbdock ($Id: //depot/dev/client3/rdock/2013.1/src/exe/rbdock.cxx#4 $)

>  <Rbt.Library>
libRbt.so (2013.1, Build901 2013/11/27)

>  <Rbt.Parameter_File>
/export/apps/rDock/src/rDock_2013.1_src/data/scripts/dock_solv.prm

>  <Rbt.Receptor>
prm/pocket_docking_2.prm

>  <SCORE>
-22.5855

>  <SCORE.INTER>
-23.0909

>  <SCORE.INTER.CONST>
1

>  <SCORE.INTER.POLAR>
-2.47543

>  <SCORE.INTER.ROT>
6

>  <SCORE.INTER.SOLV>
18.4724

>  <SCORE.INTER.VDW>
-20.8999

>  <SCORE.INTER.norm>
-1.04958

>  <SCORE.INTRA>
0.492347

>  <SCORE.INTRA.DIHEDRAL>
0.254901

>  <SCORE.INTRA.DIHEDRAL.0>
5.05013

>  <SCORE.INTRA.POLAR>
0

>  <SCORE.INTRA.POLAR.0>
0

>  <SCORE.INTRA.REPUL>
0

>  <SCORE.INTRA.REPUL.0>
0

>  <SCORE.INTRA.SOLV>
0.238493

>  <SCORE.INTRA.SOLV.lig_0>
-54.1265

>  <SCORE.INTRA.VDW>
0.24565

>  <SCORE.INTRA.VDW.0>
-2.1303

>  <SCORE.INTRA.norm>
0.0223794

>  <SCORE.RESTR>
0.0130497

>  <SCORE.RESTR.CAVITY>
0.0130497

>  <SCORE.RESTR.norm>
0.000593166

>  <SCORE.SYSTEM>
0

>  <SCORE.SYSTEM.CONST>
0

>  <SCORE.SYSTEM.DIHEDRAL>
0

>  <SCORE.SYSTEM.SOLV>
0

>  <SCORE.SYSTEM.norm>
0

>  <SCORE.heavy>
22

>  <SCORE.norm>
-1.02661

>  <RMSD>
1.687

$$$$
ligand
 OpenBabel11021811443D
libRbt.so/2013.1/901 2013/11/27
 22 23  0  0  0  0  0  0  0  0999 V2000
   17.2895   39.8817   63.8455 C   0  0  0  0  0  0  0  0  0  0  0  0
   24.1021   40.5798   64.5773 C   0  0  0  0  0  0  0  0  0  0  0  0
   29.9030   38.9013   65.8362 P   0  0  1  0  0  0  0  0  0  0  0  0
   18.6405   41.6123   64.7959 N   0  0  0  0  0  0  0  0  0  0  0  0
   30.2330   39.5983   64.5668 O   0  0  0  0  0  0  0  0  0  0  0  0
   24.3745   38.8050   68.1805 S   0  0  0  0  0  0  0  0  0  0  0  0
   23.1662   39.9662   68.0608 C   0  0  0  0  0  0  0  0  0  0  0  0
   18.4982   40.2592   64.5767 C   0  0  0  0  0  0  0  0  0  0  0  0
   30.6887   37.6625   66.0717 O   0  5  0  0  0  0  0  0  0  0  0  0
   23.0576   40.5727   66.8594 N   0  0  0  0  0  0  0  0  0  0  0  0
   19.3529   39.3629   64.9917 N   0  0  0  0  0  0  0  0  0  0  0  0
   29.9461   39.8597   66.9865 O   0  0  0  0  0  0  0  0  0  0  0  0
   24.0163   40.0614   65.9827 C   0  0  2  0  0  0  0  0  0  0  0  0
   20.4934   39.7570   65.6837 C   0  0  0  0  0  0  0  0  0  0  0  0
   21.3427   38.8289   66.1147 N   0  0  0  0  0  0  0  0  0  0  0  0
   24.8302   39.0934   66.5220 C   0  0  1  0  0  0  0  0  0  0  0  0
   20.7291   41.1726   65.9148 C   0  0  0  0  0  0  0  0  0  0  0  0
   25.9493   38.3700   65.8635 C   0  0  0  0  0  0  0  0  0  0  0  0
   19.7437   42.0294   65.4673 C   0  0  0  0  0  0  0  0  0  0  0  0
   27.2362   39.0824   66.0502 C   0  0  0  0  0  0  0  0  0  0  0  0
   22.0123   41.6644   66.5568 C   0  0  0  0  0  0  0  0  0  0  0  0
   28.4269   38.3620   65.7302 O   0  0  0  0  0  0  0  0  0  0  0  0
  1  8  1  0  0  0  0
  3  5  1  6  0  0  0
  3  9  1  0  0  0  0
  3 12  2  0  0  0  0
  3 22  1  0  0  0  0
  4  8  2  0  0  0  0
  4 19  1  0  0  0  0
  6 16  1  0  0  0  0
  6  7  1  0  0  0  0
  7 10  1  0  0  0  0
  8 11  1  0  0  0  0
 10 13  1  0  0  0  0
 10 21  1  0  0  0  0
 11 14  2  0  0  0  0
 13  2  1  1  0  0  0
 13 16  1  0  0  0  0
 14 15  1  0  0  0  0
 14 17  1  0  0  0  0
 16 18  1  1  0  0  0
 17 19  2  0  0  0  0
 17 21  1  0  0  0  0
 18 20  1  0  0  0  0
 20 22  1  0  0  0  0
M  CHG  1   9  -1
M  END
>  <CHROM.1>
-94.94208162,-89.34048559,3.45346546,166.59863153,179.62501666,-86.64228158
24.36551486,39.65605236,65.97784361,-3.03507297,-0.14334106,1.79048663

>  <Name>
ligand

>  <RI>
0

>  <Rbt.Current_Directory>
/home/itssahil/PROJECTS/Mol_Feturizer/New_Systems/rnas/2HOM

>  <Rbt.Executable>
rbdock ($Id: //depot/dev/client3/rdock/2013.1/src/exe/rbdock.cxx#4 $)

>  <Rbt.Library>
libRbt.so (2013.1, Build901 2013/11/27)

>  <Rbt.Parameter_File>
/export/apps/rDock/src/rDock_2013.1_src/data/scripts/dock_solv.prm

>  <Rbt.Receptor>
prm/pocket_docking_3.prm

>  <SCORE>
-21.3633

>  <SCORE.INTER>
-24.557

>  <SCORE.INTER.CONST>
1

>  <SCORE.INTER.POLAR>
-1.63459

>  <SCORE.INTER.ROT>
6

>  <SCORE.INTER.SOLV>
14.5075

>  <SCORE.INTER.VDW>
-23.3585

>  <SCORE.INTER.norm>
-1.11623

>  <SCORE.INTRA>
3.19369

>  <SCORE.INTRA.DIHEDRAL>
1.50107

>  <SCORE.INTRA.DIHEDRAL.0>
5.05013

>  <SCORE.INTRA.POLAR>
0

>  <SCORE.INTRA.POLAR.0>
0

>  <SCORE.INTRA.REPUL>
0

>  <SCORE.INTRA.REPUL.0>
0

>  <SCORE.INTRA.SOLV>
4.82801

>  <SCORE.INTRA.SOLV.lig_0>
-54.1265

>  <SCORE.INTRA.VDW>
0.0291501

>  <SCORE.INTRA.VDW.0>
-2.1303

>  <SCORE.INTRA.norm>
0.145168

>  <SCORE.RESTR>
0

>  <SCORE.RESTR.CAVITY>
0

>  <SCORE.RESTR.norm>
0

>  <SCORE.SYSTEM>
0

>  <SCORE.SYSTEM.CONST>
0

>  <SCORE.SYSTEM.DIHEDRAL>
0

>  <SCORE.SYSTEM.SOLV>
0

>  <SCORE.SYSTEM.norm>
0

>  <SCORE.heavy>
22

>  <SCORE.norm>
-0.971057

>  <RMSD>
1.688

$$$$
ligand
 OpenBabel11021811443D
libRbt.so/2013.1/901 2013/11/27
 22 23  0  0  0  0  0  0  0  0999 V2000
   17.3081   39.5439   63.9815 C   0  0  0  0  0  0  0  0  0  0  0  0
   24.2281   40.9018   64.4326 C   0  0  0  0  0  0  0  0  0  0  0  0
   29.7919   40.1572   67.0645 P   0  0  1  0  0  0  0  0  0  0  0  0
   18.4689   41.3292   65.0717 N   0  0  0  0  0  0  0  0  0  0  0  0
   30.7011   39.1876   67.7275 O   0  0  0  0  0  0  0  0  0  0  0  0
   24.6162   39.1318   68.0274 S   0  0  0  0  0  0  0  0  0  0  0  0
   23.3029   40.1713   67.8963 C   0  0  0  0  0  0  0  0  0  0  0  0
   18.5316   40.0294   64.6181 C   0  0  0  0  0  0  0  0  0  0  0  0
   29.4416   41.3330   67.9023 O   0  5  0  0  0  0  0  0  0  0  0  0
   23.1544   40.7745   66.6975 N   0  0  0  0  0  0  0  0  0  0  0  0
   19.5832   39.2655   64.7476 N   0  0  0  0  0  0  0  0  0  0  0  0
   30.3175   40.5272   65.7115 O   0  0  0  0  0  0  0  0  0  0  0  0
   24.1715   40.3658   65.8328 C   0  0  2  0  0  0  0  0  0  0  0  0
   20.7315   39.7599   65.3574 C   0  0  0  0  0  0  0  0  0  0  0  0
   21.7857   38.9615   65.4971 N   0  0  0  0  0  0  0  0  0  0  0  0
   25.0672   39.4769   66.3785 C   0  0  1  0  0  0  0  0  0  0  0  0
   20.7506   41.1367   65.8232 C   0  0  0  0  0  0  0  0  0  0  0  0
   26.2612   38.8709   65.7332 C   0  0  0  0  0  0  0  0  0  0  0  0
   19.5736   41.8418   65.6705 C   0  0  0  0  0  0  0  0  0  0  0  0
   27.4411   39.7629   65.8362 C   0  0  0  0  0  0  0  0  0  0  0  0
   22.0127   41.7621   66.3856 C   0  0  0  0  0  0  0  0  0  0  0  0
   28.3983   39.4551   66.8503 O   0  0  0  0  0  0  0  0  0  0  0  0
  1  8  1  0  0  0  0
  3  5  1  1  0  0  0
  3  9  1  0  0  0  0
  3 12  2  0  0  0  0
  3 22  1  0  0  0  0
  4  8  2  0  0  0  0
  4 19  1  0  0  0  0
  6 16  1  0  0  0  0
  6  7  1  0  0  0  0
  7 10  1  0  0  0  0
  8 11  1  0  0  0  0
 10 13  1  0  0  0  0
 10 21  1  0  0  0  0
 11 14  2  0  0  0  0
 13  2  1  1  0  0  0
 13 16  1  0  0  0  0
 14 15  1  0  0  0  0
 14 17  1  0  0  0  0
 16 18  1  1  0  0  0
 17 19  2  0  0  0  0
 17 21  1  0  0  0  0
 18 20  1  0  0  0  0
 20 22  1  0  0  0  0
M  CHG  1   9  -1
M  END
>  <CHROM.1>
-90.20811740,-94.64182323,-12.24891450,100.62942389,173.44152468,-153.28308531
24.43321854,40.10427283,66.22867864,-2.95105169,0.00058796,1.75019135

>  <Name>
ligand

>  <RI>
0

>  <Rbt.Current_Directory>
/home/itssahil/PROJECTS/Mol_Feturizer/New_Systems/rnas/2HOM

>  <Rbt.Executable>
rbdock ($Id: //depot/dev/client3/rdock/2013.1/src/exe/rbdock.cxx#4 $)

>  <Rbt.Library>
libRbt.so (2013.1, Build901 2013/11/27)

>  <Rbt.Parameter_File>
/export/apps/rDock/src/rDock_2013.1_src/data/scripts/dock_solv.prm

>  <Rbt.Receptor>
prm/pocket_docking_5.prm

>  <SCORE>
-21.4766

>  <SCORE.INTER>
-26.7203

>  <SCORE.INTER.CONST>
1

>  <SCORE.INTER.POLAR>
-2.48332

>  <SCORE.INTER.ROT>
6

>  <SCORE.INTER.SOLV>
14.9875

>  <SCORE.INTER.VDW>
-22.1316

>  <SCORE.INTER.norm>
-1.21456

>  <SCORE.INTRA>
5.24364

>  <SCORE.INTRA.DIHEDRAL>
5.03038

>  <SCORE.INTRA.DIHEDRAL.0>
5.05013

>  <SCORE.INTRA.POLAR>
0

>  <SCORE.INTRA.POLAR.0>
0

>  <SCORE.INTRA.REPUL>
0

>  <SCORE.INTRA.REPUL.0>
0

>  <SCORE.INTRA.SOLV>
5.5402

>  <SCORE.INTRA.SOLV.lig_0>
-54.1265

>  <SCORE.INTRA.VDW>
-0.0416503

>  <SCORE.INTRA.VDW.0>
-2.1303

>  <SCORE.INTRA.norm>
0.238347

>  <SCORE.RESTR>
0

>  <SCORE.RESTR.CAVITY>
0

>  <SCORE.RESTR.norm>
0

>  <SCORE.SYSTEM>
0

>  <SCORE.SYSTEM.CONST>
0

>  <SCORE.SYSTEM.DIHEDRAL>
0

>  <SCORE.SYSTEM.SOLV>
0

>  <SCORE.SYSTEM.norm>
0

>  <SCORE.heavy>
22

>  <SCORE.norm>
-0.976211

>  <RMSD>
1.688

$$$$
ligand
 OpenBabel11021811443D
libRbt.so/2013.1/901 2013/11/27
 22 23  0  0  0  0  0  0  0  0999 V2000
   17.2706   40.0856   63.8676 C   0  0  0  0  0  0  0  0  0  0  0  0
   23.4490   38.5831   67.3544 C   0  0  0  0  0  0  0  0  0  0  0  0
   29.6167   40.1095   66.9566 P   0  0  1  0  0  0  0  0  0  0  0  0
   19.0923   39.4123   65.2646 N   0  0  0  0  0  0  0  0  0  0  0  0
   30.5044   38.9437   67.1996 O   0  0  0  0  0  0  0  0  0  0  0  0
   25.5395   41.0286   64.9346 S   0  0  0  0  0  0  0  0  0  0  0  0
   24.0793   41.6590   65.4760 C   0  0  0  0  0  0  0  0  0  0  0  0
   18.4932   40.4492   64.5825 C   0  0  0  0  0  0  0  0  0  0  0  0
   29.5180   41.0481   68.1040 O   0  5  0  0  0  0  0  0  0  0  0  0
   23.3631   40.8543   66.2901 N   0  0  0  0  0  0  0  0  0  0  0  0
   18.9675   41.6657   64.5488 N   0  0  0  0  0  0  0  0  0  0  0  0
   29.9770   40.7826   65.6679 O   0  0  0  0  0  0  0  0  0  0  0  0
   24.0442   39.6513   66.4851 C   0  0  2  0  0  0  0  0  0  0  0  0
   20.1327   41.9777   65.2416 C   0  0  0  0  0  0  0  0  0  0  0  0
   20.6107   43.2171   65.1803 N   0  0  0  0  0  0  0  0  0  0  0  0
   25.2458   39.5573   65.8236 C   0  0  1  0  0  0  0  0  0  0  0  0
   20.7957   40.9421   66.0169 C   0  0  0  0  0  0  0  0  0  0  0  0
   26.1939   38.4127   65.8098 C   0  0  0  0  0  0  0  0  0  0  0  0
   20.2305   39.6845   65.9518 C   0  0  0  0  0  0  0  0  0  0  0  0
   27.5976   38.8762   65.6947 C   0  0  0  0  0  0  0  0  0  0  0  0
   21.9991   41.2552   66.8856 C   0  0  0  0  0  0  0  0  0  0  0  0
   28.1404   39.5800   66.8124 O   0  0  0  0  0  0  0  0  0  0  0  0
  1  8  1  0  0  0  0
  3  5  1  1  0  0  0
  3  9  1  0  0  0  0
  3 12  2  0  0  0  0
  3 22  1  0  0  0  0
  4  8  2  0  0  0  0
  4 19  1  0  0  0  0
  6 16  1  0  0  0  0
  6  7  1  0  0  0  0
  7 10  1  0  0  0  0
  8 11  1  0  0  0  0
 10 13  1  0  0  0  0
 10 21  1  0  0  0  0
 11 14  2  0  0  0  0
 13  2  1  6  0  0  0
 13 16  1  0  0  0  0
 14 15  1  0  0  0  0
 14 17  1  0  0  0  0
 16 18  1  6  0  0  0
 17 19  2  0  0  0  0
 17 21  1  0  0  0  0
 18 20  1  0  0  0  0
 20 22  1  0  0  0  0
M  CHG  1   9  -1
M  END
>  <CHROM.1>
87.33092658,33.04896847,-102.00548582,68.13783361,176.95870061,-73.56051669
24.42955010,40.35611897,65.94886953,3.01796146,-0.14494312,-0.21802948

>  <Name>
ligand

>  <RI>
0

>  <Rbt.Current_Directory>
/home/itssahil/PROJECTS/Mol_Feturizer/New_Systems/rnas/2HOM

>  <Rbt.Executable>
rbdock ($Id: //depot/dev/client3/rdock/2013.1/src/exe/rbdock.cxx#4 $)

>  <Rbt.Library>
libRbt.so (2013.1, Build901 2013/11/27)

>  <Rbt.Parameter_File>
/export/apps/rDock/src/rDock_2013.1_src/data/scripts/dock_solv.prm

>  <Rbt.Receptor>
prm/pocket_docking_2.prm

>  <SCORE>
-22.4612

>  <SCORE.INTER>
-23.2301

>  <SCORE.INTER.CONST>
1

>  <SCORE.INTER.POLAR>
-2.47086

>  <SCORE.INTER.ROT>
6

>  <SCORE.INTER.SOLV>
18.4676

>  <SCORE.INTER.VDW>
-21.0064

>  <SCORE.INTER.norm>
-1.05591

>  <SCORE.INTRA>
0.742526

>  <SCORE.INTRA.DIHEDRAL>
0.528852

>  <SCORE.INTRA.DIHEDRAL.0>
5.05013

>  <SCORE.INTRA.POLAR>
0

>  <SCORE.INTRA.POLAR.0>
0

>  <SCORE.INTRA.REPUL>
0

>  <SCORE.INTRA.REPUL.0>
0

>  <SCORE.INTRA.SOLV>
0.365629

>  <SCORE.INTRA.SOLV.lig_0>
-54.1265

>  <SCORE.INTRA.VDW>
0.295286

>  <SCORE.INTRA.VDW.0>
-2.1303

>  <SCORE.INTRA.norm>
0.0337512

>  <SCORE.RESTR>
0.0263597

>  <SCORE.RESTR.CAVITY>
0.0263597

>  <SCORE.RESTR.norm>
0.00119817

>  <SCORE.SYSTEM>
0

>  <SCORE.SYSTEM.CONST>
0

>  <SCORE.SYSTEM.DIHEDRAL>
0

>  <SCORE.SYSTEM.SOLV>
0

>  <SCORE.SYSTEM.norm>
0

>  <SCORE.heavy>
22

>  <SCORE.norm>
-1.02097

>  <RMSD>
1.689

$$$$
ligand
 OpenBabel11021811443D
libRbt.so/2013.1/901 2013/11/27
 22 23  0  0  0  0  0  0  0  0999 V2000
   17.2555   40.0824   63.8121 C   0  0  0  0  0  0  0  0  0  0  0  0
   23.3921   38.2177   66.9383 C   0  0  0  0  0  0  0  0  0  0  0  0
   29.6872   39.5376   66.6144 P   0  0  1  0  0  0  0  0  0  0  0  0
   19.0376   39.2899   65.1975 N   0  0  0  0  0  0  0  0  0  0  0  0
   29.8441   38.8173   67.9039 O   0  0  0  0  0  0  0  0  0  0  0  0
   25.5573   40.9852   64.9737 S   0  0  0  0  0  0  0  0  0  0  0  0
   24.1030   41.5476   65.5993 C   0  0  0  0  0  0  0  0  0  0  0  0
   18.4849   40.3727   64.5485 C   0  0  0  0  0  0  0  0  0  0  0  0
   29.9267   41.0012   66.7024 O   0  5  0  0  0  0  0  0  0  0  0  0
   23.3621   40.6347   66.2630 N   0  0  0  0  0  0  0  0  0  0  0  0
   19.0060   41.5704   64.5619 N   0  0  0  0  0  0  0  0  0  0  0  0
   30.4877   38.8682   65.5397 O   0  0  0  0  0  0  0  0  0  0  0  0
   24.0178   39.4022   66.2625 C   0  0  2  0  0  0  0  0  0  0  0  0
   20.1762   41.8121   65.2740 C   0  0  0  0  0  0  0  0  0  0  0  0
   20.7020   43.0335   65.2607 N   0  0  0  0  0  0  0  0  0  0  0  0
   25.2252   39.3937   65.6049 C   0  0  1  0  0  0  0  0  0  0  0  0
   20.7920   40.7248   66.0167 C   0  0  0  0  0  0  0  0  0  0  0  0
   26.1515   38.2477   65.4104 C   0  0  0  0  0  0  0  0  0  0  0  0
   20.1794   39.4931   65.9024 C   0  0  0  0  0  0  0  0  0  0  0  0
   27.3105   38.3285   66.3316 C   0  0  0  0  0  0  0  0  0  0  0  0
   21.9989   40.9600   66.9048 C   0  0  0  0  0  0  0  0  0  0  0  0
   28.1726   39.4580   66.1894 O   0  0  0  0  0  0  0  0  0  0  0  0
  1  8  1  0  0  0  0
  3  5  1  1  0  0  0
  3  9  1  0  0  0  0
  3 12  2  0  0  0  0
  3 22  1  0  0  0  0
  4  8  2  0  0  0  0
  4 19  1  0  0  0  0
  6 16  1  0  0  0  0
  6  7  1  0  0  0  0
  7 10  1  0  0  0  0
  8 11  1  0  0  0  0
 10 13  1  0  0  0  0
 10 21  1  0  0  0  0
 11 14  2  0  0  0  0
 13  2  1  6  0  0  0
 13 16  1  0  0  0  0
 14 15  1  0  0  0  0
 14 17  1  0  0  0  0
 16 18  1  6  0  0  0
 17 19  2  0  0  0  0
 17 21  1  0  0  0  0
 18 20  1  0  0  0  0
 20 22  1  0  0  0  0
M  CHG  1   9  -1
M  END
>  <CHROM.1>
91.50096797,77.55430439,-97.25977553,-62.34187321,-155.54851229,-39.39106224
24.43612235,40.07037035,65.82962946,2.98956885,-0.11632263,-0.18551891

>  <Name>
ligand

>  <RI>
0

>  <Rbt.Current_Directory>
/home/itssahil/PROJECTS/Mol_Feturizer/New_Systems/rnas/2HOM

>  <Rbt.Executable>
rbdock ($Id: //depot/dev/client3/rdock/2013.1/src/exe/rbdock.cxx#4 $)

>  <Rbt.Library>
libRbt.so (2013.1, Build901 2013/11/27)

>  <Rbt.Parameter_File>
/export/apps/rDock/src/rDock_2013.1_src/data/scripts/dock_solv.prm

>  <Rbt.Receptor>
prm/pocket_docking_2.prm

>  <SCORE>
-17.7278

>  <SCORE.INTER>
-19.1748

>  <SCORE.INTER.CONST>
1

>  <SCORE.INTER.POLAR>
-1.30767

>  <SCORE.INTER.ROT>
6

>  <SCORE.INTER.SOLV>
17.7155

>  <SCORE.INTER.VDW>
-21.9295

>  <SCORE.INTER.norm>
-0.871581

>  <SCORE.INTRA>
1.42876

>  <SCORE.INTRA.DIHEDRAL>
3.31513

>  <SCORE.INTRA.DIHEDRAL.0>
5.05013

>  <SCORE.INTRA.POLAR>
0

>  <SCORE.INTRA.POLAR.0>
0

>  <SCORE.INTRA.REPUL>
0

>  <SCORE.INTRA.REPUL.0>
0

>  <SCORE.INTRA.SOLV>
0.390232

>  <SCORE.INTRA.SOLV.lig_0>
-54.1265

>  <SCORE.INTRA.VDW>
-0.423923

>  <SCORE.INTRA.VDW.0>
-2.1303

>  <SCORE.INTRA.norm>
0.0649435

>  <SCORE.RESTR>
0.0181898

>  <SCORE.RESTR.CAVITY>
0.0181898

>  <SCORE.RESTR.norm>
0.000826809

>  <SCORE.SYSTEM>
0

>  <SCORE.SYSTEM.CONST>
0

>  <SCORE.SYSTEM.DIHEDRAL>
0

>  <SCORE.SYSTEM.SOLV>
0

>  <SCORE.SYSTEM.norm>
0

>  <SCORE.heavy>
22

>  <SCORE.norm>
-0.805811

>  <RMSD>
1.693

$$$$
ligand
 OpenBabel11021811443D
libRbt.so/2013.1/901 2013/11/27
 22 23  0  0  0  0  0  0  0  0999 V2000
   17.3919   39.6574   64.1585 C   0  0  0  0  0  0  0  0  0  0  0  0
   24.1057   40.9200   64.3611 C   0  0  0  0  0  0  0  0  0  0  0  0
   29.7742   40.2039   66.9130 P   0  0  1  0  0  0  0  0  0  0  0  0
   18.5924   41.4756   65.1464 N   0  0  0  0  0  0  0  0  0  0  0  0
   30.3026   38.8380   67.1603 O   0  0  0  0  0  0  0  0  0  0  0  0
   24.8850   39.3069   67.9663 S   0  0  0  0  0  0  0  0  0  0  0  0
   23.5676   40.3491   67.9349 C   0  0  0  0  0  0  0  0  0  0  0  0
   18.6186   40.1454   64.7869 C   0  0  0  0  0  0  0  0  0  0  0  0
   29.5437   40.9993   68.1466 O   0  5  0  0  0  0  0  0  0  0  0  0
   23.2888   40.9001   66.7341 N   0  0  0  0  0  0  0  0  0  0  0  0
   19.6398   39.3578   64.9937 N   0  0  0  0  0  0  0  0  0  0  0  0
   30.6141   40.9144   65.8964 O   0  0  0  0  0  0  0  0  0  0  0  0
   24.2031   40.4465   65.7816 C   0  0  2  0  0  0  0  0  0  0  0  0
   20.7922   39.8553   65.5931 C   0  0  0  0  0  0  0  0  0  0  0  0
   21.8147   39.0339   65.8125 N   0  0  0  0  0  0  0  0  0  0  0  0
   25.1516   39.5759   66.2640 C   0  0  1  0  0  0  0  0  0  0  0  0
   20.8503   41.2604   65.9611 C   0  0  0  0  0  0  0  0  0  0  0  0
   26.2654   38.9335   65.5184 C   0  0  0  0  0  0  0  0  0  0  0  0
   19.7022   41.9920   65.7325 C   0  0  0  0  0  0  0  0  0  0  0  0
   27.5067   38.8973   66.3285 C   0  0  0  0  0  0  0  0  0  0  0  0
   22.1220   41.8814   66.5066 C   0  0  0  0  0  0  0  0  0  0  0  0
   28.3250   40.0675   66.3114 O   0  0  0  0  0  0  0  0  0  0  0  0
  1  8  1  0  0  0  0
  3  5  1  1  0  0  0
  3  9  1  0  0  0  0
  3 12  2  0  0  0  0
  3 22  1  0  0  0  0
  4  8  2  0  0  0  0
  4 19  1  0  0  0  0
  6 16  1  0  0  0  0
  6  7  1  0  0  0  0
  7 10  1  0  0  0  0
  8 11  1  0  0  0  0
 10 13  1  0  0  0  0
 10 21  1  0  0  0  0
 11 14  2  0  0  0  0
 13  2  1  1  0  0  0
 13 16  1  0  0  0  0
 14 15  1  0  0  0  0
 14 17  1  0  0  0  0
 16 18  1  1  0  0  0
 17 19  2  0  0  0  0
 17 21  1  0  0  0  0
 18 20  1  0  0  0  0
 20 22  1  0  0  0  0
M  CHG  1   9  -1
M  END
>  <CHROM.1>
-96.98996838,-39.65252668,-4.34798523,-84.22227723,-170.66845701,15.62075315
24.50021208,40.16544062,66.24298138,-3.05687907,-0.14895826,0.79616565

>  <Name>
ligand

>  <RI>
0

>  <Rbt.Current_Directory>
/home/itssahil/PROJECTS/Mol_Feturizer/New_Systems/rnas/2HOM

>  <Rbt.Executable>
rbdock ($Id: //depot/dev/client3/rdock/2013.1/src/exe/rbdock.cxx#4 $)

>  <Rbt.Library>
libRbt.so (2013.1, Build901 2013/11/27)

>  <Rbt.Parameter_File>
/export/apps/rDock/src/rDock_2013.1_src/data/scripts/dock_solv.prm

>  <Rbt.Receptor>
prm/pocket_docking_4.prm

>  <SCORE>
-20.404

>  <SCORE.INTER>
-25.591

>  <SCORE.INTER.CONST>
1

>  <SCORE.INTER.POLAR>
-2.48592

>  <SCORE.INTER.ROT>
6

>  <SCORE.INTER.SOLV>
14.3496

>  <SCORE.INTER.VDW>
-21.1575

>  <SCORE.INTER.norm>
-1.16323

>  <SCORE.INTRA>
5.18695

>  <SCORE.INTRA.DIHEDRAL>
4.37638

>  <SCORE.INTRA.DIHEDRAL.0>
5.05013

>  <SCORE.INTRA.POLAR>
0

>  <SCORE.INTRA.POLAR.0>
0

>  <SCORE.INTRA.REPUL>
0

>  <SCORE.INTRA.REPUL.0>
0

>  <SCORE.INTRA.SOLV>
4.86168

>  <SCORE.INTRA.SOLV.lig_0>
-54.1265

>  <SCORE.INTRA.VDW>
0.567922

>  <SCORE.INTRA.VDW.0>
-2.1303

>  <SCORE.INTRA.norm>
0.23577

>  <SCORE.RESTR>
0

>  <SCORE.RESTR.CAVITY>
0

>  <SCORE.RESTR.norm>
0

>  <SCORE.SYSTEM>
0

>  <SCORE.SYSTEM.CONST>
0

>  <SCORE.SYSTEM.DIHEDRAL>
0

>  <SCORE.SYSTEM.SOLV>
0

>  <SCORE.SYSTEM.norm>
0

>  <SCORE.heavy>
22

>  <SCORE.norm>
-0.927457

>  <RMSD>
1.700

$$$$
ligand
 OpenBabel11021811443D
libRbt.so/2013.1/901 2013/11/27
 22 23  0  0  0  0  0  0  0  0999 V2000
   16.8363   39.4963   63.6558 C   0  0  0  0  0  0  0  0  0  0  0  0
   23.8098   39.1263   67.3837 C   0  0  0  0  0  0  0  0  0  0  0  0
   29.6230   39.8349   67.6498 P   0  0  1  0  0  0  0  0  0  0  0  0
   18.9276   38.9750   64.6941 N   0  0  0  0  0  0  0  0  0  0  0  0
   29.7922   41.3071   67.5478 O   0  0  0  0  0  0  0  0  0  0  0  0
   24.7768   41.2972   64.1343 S   0  0  0  0  0  0  0  0  0  0  0  0
   23.2448   41.6044   64.7518 C   0  0  0  0  0  0  0  0  0  0  0  0
   18.0301   39.9653   64.3577 C   0  0  0  0  0  0  0  0  0  0  0  0
   30.8108   39.0549   67.2162 O   0  5  0  0  0  0  0  0  0  0  0  0
   22.9015   40.8868   65.8429 N   0  0  0  0  0  0  0  0  0  0  0  0
   18.2146   41.2314   64.6201 N   0  0  0  0  0  0  0  0  0  0  0  0
   29.1297   39.4576   69.0129 O   0  0  0  0  0  0  0  0  0  0  0  0
   23.9491   40.0351   66.1980 C   0  0  2  0  0  0  0  0  0  0  0  0
   19.3615   41.6433   65.2908 C   0  0  0  0  0  0  0  0  0  0  0  0
   19.5408   42.9385   65.5325 N   0  0  0  0  0  0  0  0  0  0  0  0
   25.0536   40.1115   65.3828 C   0  0  1  0  0  0  0  0  0  0  0  0
   20.3326   40.6472   65.7127 C   0  0  0  0  0  0  0  0  0  0  0  0
   26.3156   39.3321   65.4789 C   0  0  0  0  0  0  0  0  0  0  0  0
   20.0566   39.3441   65.3505 C   0  0  0  0  0  0  0  0  0  0  0  0
   27.1500   39.7943   66.6140 C   0  0  0  0  0  0  0  0  0  0  0  0
   21.5390   41.0265   66.5501 C   0  0  0  0  0  0  0  0  0  0  0  0
   28.5211   39.3950   66.6140 O   0  0  0  0  0  0  0  0  0  0  0  0
  1  8  1  0  0  0  0
  3  5  1  6  0  0  0
  3  9  1  0  0  0  0
  3 12  2  0  0  0  0
  3 22  1  0  0  0  0
  4  8  2  0  0  0  0
  4 19  1  0  0  0  0
  6 16  1  0  0  0  0
  6  7  1  0  0  0  0
  7 10  1  0  0  0  0
  8 11  1  0  0  0  0
 10 13  1  0  0  0  0
 10 21  1  0  0  0  0
 11 14  2  0  0  0  0
 13  2  1  6  0  0  0
 13 16  1  0  0  0  0
 14 15  1  0  0  0  0
 14 17  1  0  0  0  0
 16 18  1  6  0  0  0
 17 19  2  0  0  0  0
 17 21  1  0  0  0  0
 18 20  1  0  0  0  0
 20 22  1  0  0  0  0
M  CHG  1   9  -1
M  END
>  <CHROM.1>
62.89382232,107.02185390,-112.63086010,-163.68933191,175.62044334,-62.54803691
24.12060475,40.30081062,65.94762540,2.94997021,-0.16750231,-0.58309894

>  <Name>
ligand

>  <RI>
0

>  <Rbt.Current_Directory>
/home/itssahil/PROJECTS/Mol_Feturizer/New_Systems/rnas/2HOM

>  <Rbt.Executable>
rbdock ($Id: //depot/dev/client3/rdock/2013.1/src/exe/rbdock.cxx#4 $)

>  <Rbt.Library>
libRbt.so (2013.1, Build901 2013/11/27)

>  <Rbt.Parameter_File>
/export/apps/rDock/src/rDock_2013.1_src/data/scripts/dock_solv.prm

>  <Rbt.Receptor>
prm/pocket_docking_2.prm

>  <SCORE>
-20.4408

>  <SCORE.INTER>
-21.0075

>  <SCORE.INTER.CONST>
1

>  <SCORE.INTER.POLAR>
-2.56921

>  <SCORE.INTER.ROT>
6

>  <SCORE.INTER.SOLV>
26.2912

>  <SCORE.INTER.VDW>
-21.8047

>  <SCORE.INTER.norm>
-0.954884

>  <SCORE.INTRA>
0.566699

>  <SCORE.INTRA.DIHEDRAL>
0.706797

>  <SCORE.INTRA.DIHEDRAL.0>
5.05013

>  <SCORE.INTRA.POLAR>
0

>  <SCORE.INTRA.POLAR.0>
0

>  <SCORE.INTRA.REPUL>
0

>  <SCORE.INTRA.REPUL.0>
0

>  <SCORE.INTRA.SOLV>
0.034923

>  <SCORE.INTRA.SOLV.lig_0>
-54.1265

>  <SCORE.INTRA.VDW>
0.195839

>  <SCORE.INTRA.VDW.0>
-2.1303

>  <SCORE.INTRA.norm>
0.025759

>  <SCORE.RESTR>
0

>  <SCORE.RESTR.CAVITY>
0

>  <SCORE.RESTR.norm>
0

>  <SCORE.SYSTEM>
0

>  <SCORE.SYSTEM.CONST>
0

>  <SCORE.SYSTEM.DIHEDRAL>
0

>  <SCORE.SYSTEM.SOLV>
0

>  <SCORE.SYSTEM.norm>
0

>  <SCORE.heavy>
22

>  <SCORE.norm>
-0.929125

>  <RMSD>
1.705

$$$$
ligand
 OpenBabel11021811443D
libRbt.so/2013.1/901 2013/11/27
 22 23  0  0  0  0  0  0  0  0999 V2000
   17.4157   39.9821   63.8896 C   0  0  0  0  0  0  0  0  0  0  0  0
   24.3972   41.0222   64.7025 C   0  0  0  0  0  0  0  0  0  0  0  0
   29.3838   39.8304   67.0736 P   0  0  1  0  0  0  0  0  0  0  0  0
   18.7140   41.7170   64.9033 N   0  0  0  0  0  0  0  0  0  0  0  0
   30.3397   38.7032   66.9255 O   0  0  0  0  0  0  0  0  0  0  0  0
   24.4876   38.9163   68.1323 S   0  0  0  0  0  0  0  0  0  0  0  0
   23.2360   40.0322   68.0279 C   0  0  0  0  0  0  0  0  0  0  0  0
   18.6223   40.3719   64.6176 C   0  0  0  0  0  0  0  0  0  0  0  0
   29.7508   40.8034   68.1347 O   0  5  0  0  0  0  0  0  0  0  0  0
   23.1874   40.7483   66.8843 N   0  0  0  0  0  0  0  0  0  0  0  0
   19.5206   39.4920   64.9710 N   0  0  0  0  0  0  0  0  0  0  0  0
   29.1196   40.4711   65.7457 O   0  0  0  0  0  0  0  0  0  0  0  0
   24.2326   40.3657   66.0415 C   0  0  2  0  0  0  0  0  0  0  0  0
   20.6578   39.8975   65.6619 C   0  0  0  0  0  0  0  0  0  0  0  0
   21.5522   38.9849   66.0297 N   0  0  0  0  0  0  0  0  0  0  0  0
   25.0507   39.3844   66.5495 C   0  0  1  0  0  0  0  0  0  0  0  0
   20.8405   41.3083   65.9611 C   0  0  0  0  0  0  0  0  0  0  0  0
   26.2499   38.7762   65.9160 C   0  0  0  0  0  0  0  0  0  0  0  0
   19.8125   42.1450   65.5756 C   0  0  0  0  0  0  0  0  0  0  0  0
   27.2033   38.2758   66.9353 C   0  0  0  0  0  0  0  0  0  0  0  0
   22.1151   41.8198   66.6047 C   0  0  0  0  0  0  0  0  0  0  0  0
   28.0159   39.2481   67.5938 O   0  0  0  0  0  0  0  0  0  0  0  0
  1  8  1  0  0  0  0
  3  5  1  6  0  0  0
  3  9  1  0  0  0  0
  3 12  2  0  0  0  0
  3 22  1  0  0  0  0
  4  8  2  0  0  0  0
  4 19  1  0  0  0  0
  6 16  1  0  0  0  0
  6  7  1  0  0  0  0
  7 10  1  0  0  0  0
  8 11  1  0  0  0  0
 10 13  1  0  0  0  0
 10 21  1  0  0  0  0
 11 14  2  0  0  0  0
 13  2  1  1  0  0  0
 13 16  1  0  0  0  0
 14 15  1  0  0  0  0
 14 17  1  0  0  0  0
 16 18  1  1  0  0  0
 17 19  2  0  0  0  0
 17 21  1  0  0  0  0
 18 20  1  0  0  0  0
 20 22  1  0  0  0  0
M  CHG  1   9  -1
M  END
>  <CHROM.1>
-88.25322979,-26.57432455,1.09436809,-77.41279703,-85.01672878,-60.09689703
24.32373278,40.00643834,66.38152515,-2.93534928,0.09878541,2.49343239

>  <Name>
ligand

>  <RI>
0

>  <Rbt.Current_Directory>
/home/itssahil/PROJECTS/Mol_Feturizer/New_Systems/rnas/2HOM

>  <Rbt.Executable>
rbdock ($Id: //depot/dev/client3/rdock/2013.1/src/exe/rbdock.cxx#4 $)

>  <Rbt.Library>
libRbt.so (2013.1, Build901 2013/11/27)

>  <Rbt.Parameter_File>
/export/apps/rDock/src/rDock_2013.1_src/data/scripts/dock_solv.prm

>  <Rbt.Receptor>
prm/pocket_docking_2.prm

>  <SCORE>
-22.0243

>  <SCORE.INTER>
-27.0068

>  <SCORE.INTER.CONST>
1

>  <SCORE.INTER.POLAR>
-2.4624

>  <SCORE.INTER.ROT>
6

>  <SCORE.INTER.SOLV>
12.3501

>  <SCORE.INTER.VDW>
-21.5133

>  <SCORE.INTER.norm>
-1.22758

>  <SCORE.INTRA>
4.90026

>  <SCORE.INTRA.DIHEDRAL>
3.55021

>  <SCORE.INTRA.DIHEDRAL.0>
5.05013

>  <SCORE.INTRA.POLAR>
0

>  <SCORE.INTRA.POLAR.0>
0

>  <SCORE.INTRA.REPUL>
0

>  <SCORE.INTRA.REPUL.0>
0

>  <SCORE.INTRA.SOLV>
5.28187

>  <SCORE.INTRA.SOLV.lig_0>
-54.1265

>  <SCORE.INTRA.VDW>
0.484215

>  <SCORE.INTRA.VDW.0>
-2.1303

>  <SCORE.INTRA.norm>
0.222739

>  <SCORE.RESTR>
0.0822721

>  <SCORE.RESTR.CAVITY>
0.0822721

>  <SCORE.RESTR.norm>
0.00373964

>  <SCORE.SYSTEM>
0

>  <SCORE.SYSTEM.CONST>
0

>  <SCORE.SYSTEM.DIHEDRAL>
0

>  <SCORE.SYSTEM.SOLV>
0

>  <SCORE.SYSTEM.norm>
0

>  <SCORE.heavy>
22

>  <SCORE.norm>
-1.0011

>  <RMSD>
1.712

$$$$
ligand
 OpenBabel11021811443D
libRbt.so/2013.1/901 2013/11/27
 22 23  0  0  0  0  0  0  0  0999 V2000
   17.2366   40.0970   63.8082 C   0  0  0  0  0  0  0  0  0  0  0  0
   25.3318   41.4020   65.4728 C   0  0  0  0  0  0  0  0  0  0  0  0
   28.7551   39.8776   68.3061 P   0  0  1  0  0  0  0  0  0  0  0  0
   19.2903   39.2293   64.6757 N   0  0  0  0  0  0  0  0  0  0  0  0
   27.8217   39.5611   69.4173 O   0  0  0  0  0  0  0  0  0  0  0  0
   24.5271   37.4577   65.4311 S   0  0  0  0  0  0  0  0  0  0  0  0
   23.2198   38.4355   65.8282 C   0  0  0  0  0  0  0  0  0  0  0  0
   18.5583   40.3580   64.3764 C   0  0  0  0  0  0  0  0  0  0  0  0
   29.2455   41.2799   68.3048 O   0  5  0  0  0  0  0  0  0  0  0  0
   23.4688   39.7624   65.8467 N   0  0  0  0  0  0  0  0  0  0  0  0
   18.9935   41.5755   64.5618 N   0  0  0  0  0  0  0  0  0  0  0  0
   29.8554   38.8633   68.2413 O   0  0  0  0  0  0  0  0  0  0  0  0
   24.8050   39.9978   65.5177 C   0  0  2  0  0  0  0  0  0  0  0  0
   20.2559   41.7880   65.1059 C   0  0  0  0  0  0  0  0  0  0  0  0
   20.6892   43.0344   65.2699 N   0  0  0  0  0  0  0  0  0  0  0  0
   25.5424   38.8657   65.2632 C   0  0  1  0  0  0  0  0  0  0  0  0
   21.0672   40.6426   65.4840 C   0  0  0  0  0  0  0  0  0  0  0  0
   26.9825   38.7743   64.9070 C   0  0  0  0  0  0  0  0  0  0  0  0
   20.5261   39.4028   65.2093 C   0  0  0  0  0  0  0  0  0  0  0  0
   27.8296   38.6372   66.1162 C   0  0  0  0  0  0  0  0  0  0  0  0
   22.3983   40.8170   66.1900 C   0  0  0  0  0  0  0  0  0  0  0  0
   27.9544   39.7879   66.9527 O   0  0  0  0  0  0  0  0  0  0  0  0
  1  8  1  0  0  0  0
  3  5  1  1  0  0  0
  3  9  1  0  0  0  0
  3 12  2  0  0  0  0
  3 22  1  0  0  0  0
  4  8  2  0  0  0  0
  4 19  1  0  0  0  0
  6 16  1  0  0  0  0
  6  7  1  0  0  0  0
  7 10  1  0  0  0  0
  8 11  1  0  0  0  0
 10 13  1  0  0  0  0
 10 21  1  0  0  0  0
 11 14  2  0  0  0  0
 13  2  1  1  0  0  0
 13 16  1  0  0  0  0
 14 15  1  0  0  0  0
 14 17  1  0  0  0  0
 16 18  1  1  0  0  0
 17 19  2  0  0  0  0
 17 21  1  0  0  0  0
 18 20  1  0  0  0  0
 20 22  1  0  0  0  0
M  CHG  1   9  -1
M  END
>  <CHROM.1>
-47.11397335,-88.82279805,-146.85650346,-71.01848711,177.92605570,-92.01048760
24.29258007,39.84849006,66.08906449,-3.12568507,-0.33791689,0.36258923

>  <Name>
ligand

>  <RI>
0

>  <Rbt.Current_Directory>
/home/itssahil/PROJECTS/Mol_Feturizer/New_Systems/rnas/2HOM

>  <Rbt.Executable>
rbdock ($Id: //depot/dev/client3/rdock/2013.1/src/exe/rbdock.cxx#4 $)

>  <Rbt.Library>
libRbt.so (2013.1, Build901 2013/11/27)

>  <Rbt.Parameter_File>
/export/apps/rDock/src/rDock_2013.1_src/data/scripts/dock_solv.prm

>  <Rbt.Receptor>
prm/pocket_docking_8.prm

>  <SCORE>
-26.5476

>  <SCORE.INTER>
-27.4752

>  <SCORE.INTER.CONST>
1

>  <SCORE.INTER.POLAR>
-2.81387

>  <SCORE.INTER.ROT>
6

>  <SCORE.INTER.SOLV>
18.5434

>  <SCORE.INTER.VDW>
-22.7183

>  <SCORE.INTER.norm>
-1.24887

>  <SCORE.INTRA>
0.92753

>  <SCORE.INTRA.DIHEDRAL>
1.51116

>  <SCORE.INTRA.DIHEDRAL.0>
5.05013

>  <SCORE.INTRA.POLAR>
0

>  <SCORE.INTRA.POLAR.0>
0

>  <SCORE.INTRA.REPUL>
0

>  <SCORE.INTRA.REPUL.0>
0

>  <SCORE.INTRA.SOLV>
0.263048

>  <SCORE.INTRA.SOLV.lig_0>
-54.1265

>  <SCORE.INTRA.VDW>
0.0404268

>  <SCORE.INTRA.VDW.0>
-2.1303

>  <SCORE.INTRA.norm>
0.0421605

>  <SCORE.RESTR>
0

>  <SCORE.RESTR.CAVITY>
0

>  <SCORE.RESTR.norm>
0

>  <SCORE.SYSTEM>
0

>  <SCORE.SYSTEM.CONST>
0

>  <SCORE.SYSTEM.DIHEDRAL>
0

>  <SCORE.SYSTEM.SOLV>
0

>  <SCORE.SYSTEM.norm>
0

>  <SCORE.heavy>
22

>  <SCORE.norm>
-1.20671

>  <RMSD>
1.713

$$$$
ligand
 OpenBabel11021811443D
libRbt.so/2013.1/901 2013/11/27
 22 23  0  0  0  0  0  0  0  0999 V2000
   17.5300   40.1094   64.1054 C   0  0  0  0  0  0  0  0  0  0  0  0
   24.0089   38.9327   67.5897 C   0  0  0  0  0  0  0  0  0  0  0  0
   30.0035   40.2360   66.7830 P   0  0  1  0  0  0  0  0  0  0  0  0
   19.5606   39.4854   65.2056 N   0  0  0  0  0  0  0  0  0  0  0  0
   30.7539   39.0043   67.1382 O   0  0  0  0  0  0  0  0  0  0  0  0
   25.8024   40.7646   64.4857 S   0  0  0  0  0  0  0  0  0  0  0  0
   24.3922   41.5068   65.0179 C   0  0  0  0  0  0  0  0  0  0  0  0
   18.7941   40.5202   64.7147 C   0  0  0  0  0  0  0  0  0  0  0  0
   29.6158   41.0695   67.9501 O   0  5  0  0  0  0  0  0  0  0  0  0
   23.7757   40.9082   66.0593 N   0  0  0  0  0  0  0  0  0  0  0  0
   19.1523   41.7753   64.7637 N   0  0  0  0  0  0  0  0  0  0  0  0
   30.7285   41.0027   65.7200 O   0  0  0  0  0  0  0  0  0  0  0  0
   24.4948   39.7764   66.4480 C   0  0  2  0  0  0  0  0  0  0  0  0
   20.3615   42.1314   65.3518 C   0  0  0  0  0  0  0  0  0  0  0  0
   20.7178   43.4123   65.3757 N   0  0  0  0  0  0  0  0  0  0  0  0
   25.6259   39.5311   65.7059 C   0  0  1  0  0  0  0  0  0  0  0  0
   21.2025   41.0950   65.9278 C   0  0  0  0  0  0  0  0  0  0  0  0
   26.5887   38.4083   65.8520 C   0  0  0  0  0  0  0  0  0  0  0  0
   20.7460   39.7999   65.7868 C   0  0  0  0  0  0  0  0  0  0  0  0
   27.7439   38.7947   66.6974 C   0  0  0  0  0  0  0  0  0  0  0  0
   22.4707   41.4384   66.6854 C   0  0  0  0  0  0  0  0  0  0  0  0
   28.6113   39.8066   66.1845 O   0  0  0  0  0  0  0  0  0  0  0  0
  1  8  1  0  0  0  0
  3  5  1  1  0  0  0
  3  9  1  0  0  0  0
  3 12  2  0  0  0  0
  3 22  1  0  0  0  0
  4  8  2  0  0  0  0
  4 19  1  0  0  0  0
  6 16  1  0  0  0  0
  6  7  1  0  0  0  0
  7 10  1  0  0  0  0
  8 11  1  0  0  0  0
 10 13  1  0  0  0  0
 10 21  1  0  0  0  0
 11 14  2  0  0  0  0
 13  2  1  6  0  0  0
 13 16  1  0  0  0  0
 14 15  1  0  0  0  0
 14 17  1  0  0  0  0
 16 18  1  6  0  0  0
 17 19  2  0  0  0  0
 17 21  1  0  0  0  0
 18 20  1  0  0  0  0
 20 22  1  0  0  0  0
M  CHG  1   9  -1
M  END
>  <CHROM.1>
79.57696834,85.63164909,-117.11085800,-65.67733360,-170.40835814,43.86209248
24.78218598,40.42160844,65.89203740,3.01070479,-0.12228031,-0.26185888

>  <Name>
ligand

>  <RI>
0

>  <Rbt.Current_Directory>
/home/itssahil/PROJECTS/Mol_Feturizer/New_Systems/rnas/2HOM

>  <Rbt.Executable>
rbdock ($Id: //depot/dev/client3/rdock/2013.1/src/exe/rbdock.cxx#4 $)

>  <Rbt.Library>
libRbt.so (2013.1, Build901 2013/11/27)

>  <Rbt.Parameter_File>
/export/apps/rDock/src/rDock_2013.1_src/data/scripts/dock_solv.prm

>  <Rbt.Receptor>
prm/pocket_docking_4.prm

>  <SCORE>
-23.2751

>  <SCORE.INTER>
-23.3161

>  <SCORE.INTER.CONST>
1

>  <SCORE.INTER.POLAR>
-2.48285

>  <SCORE.INTER.ROT>
6

>  <SCORE.INTER.SOLV>
19.4603

>  <SCORE.INTER.VDW>
-21.3547

>  <SCORE.INTER.norm>
-1.05982

>  <SCORE.INTRA>
0.0410291

>  <SCORE.INTRA.DIHEDRAL>
0.931679

>  <SCORE.INTRA.DIHEDRAL.0>
5.05013

>  <SCORE.INTRA.POLAR>
0

>  <SCORE.INTRA.POLAR.0>
0

>  <SCORE.INTRA.REPUL>
0

>  <SCORE.INTRA.REPUL.0>
0

>  <SCORE.INTRA.SOLV>
-0.160549

>  <SCORE.INTRA.SOLV.lig_0>
-54.1265

>  <SCORE.INTRA.VDW>
-0.344536

>  <SCORE.INTRA.VDW.0>
-2.1303

>  <SCORE.INTRA.norm>
0.00186496

>  <SCORE.RESTR>
0

>  <SCORE.RESTR.CAVITY>
0

>  <SCORE.RESTR.norm>
0

>  <SCORE.SYSTEM>
0

>  <SCORE.SYSTEM.CONST>
0

>  <SCORE.SYSTEM.DIHEDRAL>
0

>  <SCORE.SYSTEM.SOLV>
0

>  <SCORE.SYSTEM.norm>
0

>  <SCORE.heavy>
22

>  <SCORE.norm>
-1.05796

>  <RMSD>
1.717

$$$$
ligand
 OpenBabel11021811443D
libRbt.so/2013.1/901 2013/11/27
 22 23  0  0  0  0  0  0  0  0999 V2000
   16.5155   39.5915   63.4424 C   0  0  0  0  0  0  0  0  0  0  0  0
   23.9420   42.2827   66.1140 C   0  0  0  0  0  0  0  0  0  0  0  0
   29.7073   38.4038   65.6278 P   0  0  1  0  0  0  0  0  0  0  0  0
   18.3186   38.9542   64.8797 N   0  0  0  0  0  0  0  0  0  0  0  0
   31.0072   39.1223   65.6184 O   0  0  0  0  0  0  0  0  0  0  0  0
   24.2364   38.3756   65.1894 S   0  0  0  0  0  0  0  0  0  0  0  0
   22.7005   38.8715   65.6563 C   0  0  0  0  0  0  0  0  0  0  0  0
   17.7419   39.9671   64.1444 C   0  0  0  0  0  0  0  0  0  0  0  0
   29.5235   37.4646   64.4914 O   0  5  0  0  0  0  0  0  0  0  0  0
   22.5804   40.1793   65.9697 N   0  0  0  0  0  0  0  0  0  0  0  0
   18.2394   41.1713   64.0530 N   0  0  0  0  0  0  0  0  0  0  0  0
   29.4672   37.7726   66.9648 O   0  0  0  0  0  0  0  0  0  0  0  0
   23.8135   40.8168   65.8209 C   0  0  2  0  0  0  0  0  0  0  0  0
   19.4076   41.4953   64.7352 C   0  0  0  0  0  0  0  0  0  0  0  0
   19.9092   42.7209   64.6151 N   0  0  0  0  0  0  0  0  0  0  0  0
   24.8380   39.9978   65.4086 C   0  0  1  0  0  0  0  0  0  0  0  0
   20.0478   40.4871   65.5638 C   0  0  0  0  0  0  0  0  0  0  0  0
   26.2604   40.3606   65.1758 C   0  0  0  0  0  0  0  0  0  0  0  0
   19.4590   39.2385   65.5582 C   0  0  0  0  0  0  0  0  0  0  0  0
   27.1571   39.2023   65.4052 C   0  0  0  0  0  0  0  0  0  0  0  0
   21.2534   40.8201   66.4218 C   0  0  0  0  0  0  0  0  0  0  0  0
   28.5618   39.4595   65.3951 O   0  0  0  0  0  0  0  0  0  0  0  0
  1  8  1  0  0  0  0
  3  5  1  6  0  0  0
  3  9  1  0  0  0  0
  3 12  2  0  0  0  0
  3 22  1  0  0  0  0
  4  8  2  0  0  0  0
  4 19  1  0  0  0  0
  6 16  1  0  0  0  0
  6  7  1  0  0  0  0
  7 10  1  0  0  0  0
  8 11  1  0  0  0  0
 10 13  1  0  0  0  0
 10 21  1  0  0  0  0
 11 14  2  0  0  0  0
 13  2  1  1  0  0  0
 13 16  1  0  0  0  0
 14 15  1  0  0  0  0
 14 17  1  0  0  0  0
 16 18  1  1  0  0  0
 17 19  2  0  0  0  0
 17 21  1  0  0  0  0
 18 20  1  0  0  0  0
 20 22  1  0  0  0  0
M  CHG  1   9  -1
M  END
>  <CHROM.1>
-47.92940773,-27.89569391,-111.10599097,-171.65139073,179.32155214,-176.35041008
23.97583547,39.66404316,65.30169687,2.98932966,-0.11908986,0.18616170

>  <Name>
ligand

>  <RI>
0

>  <Rbt.Current_Directory>
/home/itssahil/PROJECTS/Mol_Feturizer/New_Systems/rnas/2HOM

>  <Rbt.Executable>
rbdock ($Id: //depot/dev/client3/rdock/2013.1/src/exe/rbdock.cxx#4 $)

>  <Rbt.Library>
libRbt.so (2013.1, Build901 2013/11/27)

>  <Rbt.Parameter_File>
/export/apps/rDock/src/rDock_2013.1_src/data/scripts/dock_solv.prm

>  <Rbt.Receptor>
prm/pocket_docking_3.prm

>  <SCORE>
-17.8539

>  <SCORE.INTER>
-19.5594

>  <SCORE.INTER.CONST>
1

>  <SCORE.INTER.POLAR>
-1.63459

>  <SCORE.INTER.ROT>
6

>  <SCORE.INTER.SOLV>
18.7875

>  <SCORE.INTER.VDW>
-21.4535

>  <SCORE.INTER.norm>
-0.889064

>  <SCORE.INTRA>
1.70555

>  <SCORE.INTRA.DIHEDRAL>
0.144953

>  <SCORE.INTRA.DIHEDRAL.0>
5.05013

>  <SCORE.INTRA.POLAR>
0

>  <SCORE.INTRA.POLAR.0>
0

>  <SCORE.INTRA.REPUL>
0

>  <SCORE.INTRA.REPUL.0>
0

>  <SCORE.INTRA.SOLV>
1.14838

>  <SCORE.INTRA.SOLV.lig_0>
-54.1265

>  <SCORE.INTRA.VDW>
1.05888

>  <SCORE.INTRA.VDW.0>
-2.1303

>  <SCORE.INTRA.norm>
0.0775248

>  <SCORE.RESTR>
0

>  <SCORE.RESTR.CAVITY>
0

>  <SCORE.RESTR.norm>
0

>  <SCORE.SYSTEM>
0

>  <SCORE.SYSTEM.CONST>
0

>  <SCORE.SYSTEM.DIHEDRAL>
0

>  <SCORE.SYSTEM.SOLV>
0

>  <SCORE.SYSTEM.norm>
0

>  <SCORE.heavy>
22

>  <SCORE.norm>
-0.811539

>  <RMSD>
1.723

$$$$
ligand
 OpenBabel11021811443D
libRbt.so/2013.1/901 2013/11/27
 22 23  0  0  0  0  0  0  0  0999 V2000
   17.3027   40.1589   63.9893 C   0  0  0  0  0  0  0  0  0  0  0  0
   23.3960   38.0727   66.6698 C   0  0  0  0  0  0  0  0  0  0  0  0
   29.7532   39.0785   65.8473 P   0  0  1  0  0  0  0  0  0  0  0  0
   19.1866   39.3288   65.2079 N   0  0  0  0  0  0  0  0  0  0  0  0
   30.1086   40.5199   65.7977 O   0  0  0  0  0  0  0  0  0  0  0  0
   25.7435   40.5978   64.5913 S   0  0  0  0  0  0  0  0  0  0  0  0
   24.3869   41.3095   65.2811 C   0  0  0  0  0  0  0  0  0  0  0  0
   18.5921   40.4268   64.6246 C   0  0  0  0  0  0  0  0  0  0  0  0
   30.4840   38.2379   64.8642 O   0  5  0  0  0  0  0  0  0  0  0  0
   23.5867   40.4793   65.9837 N   0  0  0  0  0  0  0  0  0  0  0  0
   19.1242   41.6195   64.6129 N   0  0  0  0  0  0  0  0  0  0  0  0
   29.8435   38.5648   67.2514 O   0  0  0  0  0  0  0  0  0  0  0  0
   24.1095   39.1850   65.9591 C   0  0  2  0  0  0  0  0  0  0  0  0
   20.3523   41.8397   65.2281 C   0  0  0  0  0  0  0  0  0  0  0  0
   20.8871   43.0566   65.1897 N   0  0  0  0  0  0  0  0  0  0  0  0
   25.2771   39.0501   65.2459 C   0  0  1  0  0  0  0  0  0  0  0  0
   21.0174   40.7352   65.8993 C   0  0  0  0  0  0  0  0  0  0  0  0
   26.0686   37.8134   65.0145 C   0  0  0  0  0  0  0  0  0  0  0  0
   20.3853   39.5107   65.8176 C   0  0  0  0  0  0  0  0  0  0  0  0
   27.3665   37.8618   65.7297 C   0  0  0  0  0  0  0  0  0  0  0  0
   22.2966   40.9455   66.6867 C   0  0  0  0  0  0  0  0  0  0  0  0
   28.2542   38.9270   65.3881 O   0  0  0  0  0  0  0  0  0  0  0  0
  1  8  1  0  0  0  0
  3  5  1  6  0  0  0
  3  9  1  0  0  0  0
  3 12  2  0  0  0  0
  3 22  1  0  0  0  0
  4  8  2  0  0  0  0
  4 19  1  0  0  0  0
  6 16  1  0  0  0  0
  6  7  1  0  0  0  0
  7 10  1  0  0  0  0
  8 11  1  0  0  0  0
 10 13  1  0  0  0  0
 10 21  1  0  0  0  0
 11 14  2  0  0  0  0
 13  2  1  6  0  0  0
 13 16  1  0  0  0  0
 14 15  1  0  0  0  0
 14 17  1  0  0  0  0
 16 18  1  6  0  0  0
 17 19  2  0  0  0  0
 17 21  1  0  0  0  0
 18 20  1  0  0  0  0
 20 22  1  0  0  0  0
M  CHG  1   9  -1
M  END
>  <CHROM.1>
96.15756298,69.30321853,-103.47669599,-59.83966710,-170.66143271,-155.46703127
24.55379149,39.83537321,65.47333618,2.95418748,-0.04350707,-0.13770233

>  <Name>
ligand

>  <RI>
0

>  <Rbt.Current_Directory>
/home/itssahil/PROJECTS/Mol_Feturizer/New_Systems/rnas/2HOM

>  <Rbt.Executable>
rbdock ($Id: //depot/dev/client3/rdock/2013.1/src/exe/rbdock.cxx#4 $)

>  <Rbt.Library>
libRbt.so (2013.1, Build901 2013/11/27)

>  <Rbt.Parameter_File>
/export/apps/rDock/src/rDock_2013.1_src/data/scripts/dock_solv.prm

>  <Rbt.Receptor>
prm/pocket_docking_6.prm

>  <SCORE>
-21.5193

>  <SCORE.INTER>
-22.3021

>  <SCORE.INTER.CONST>
1

>  <SCORE.INTER.POLAR>
-1.63459

>  <SCORE.INTER.ROT>
6

>  <SCORE.INTER.SOLV>
17.1197

>  <SCORE.INTER.VDW>
-22.726

>  <SCORE.INTER.norm>
-1.01373

>  <SCORE.INTRA>
0.782829

>  <SCORE.INTRA.DIHEDRAL>
1.42706

>  <SCORE.INTRA.DIHEDRAL.0>
5.05013

>  <SCORE.INTRA.POLAR>
0

>  <SCORE.INTRA.POLAR.0>
0

>  <SCORE.INTRA.REPUL>
0

>  <SCORE.INTRA.REPUL.0>
0

>  <SCORE.INTRA.SOLV>
0.724072

>  <SCORE.INTRA.SOLV.lig_0>
-54.1265

>  <SCORE.INTRA.VDW>
-0.292738

>  <SCORE.INTRA.VDW.0>
-2.1303

>  <SCORE.INTRA.norm>
0.0355831

>  <SCORE.RESTR>
0

>  <SCORE.RESTR.CAVITY>
0

>  <SCORE.RESTR.norm>
0

>  <SCORE.SYSTEM>
0

>  <SCORE.SYSTEM.CONST>
0

>  <SCORE.SYSTEM.DIHEDRAL>
0

>  <SCORE.SYSTEM.SOLV>
0

>  <SCORE.SYSTEM.norm>
0

>  <SCORE.heavy>
22

>  <SCORE.norm>
-0.97815

>  <RMSD>
1.728

$$$$
ligand
 OpenBabel11021811443D
libRbt.so/2013.1/901 2013/11/27
 22 23  0  0  0  0  0  0  0  0999 V2000
   17.2134   39.8507   63.9095 C   0  0  0  0  0  0  0  0  0  0  0  0
   23.7622   40.5217   64.4419 C   0  0  0  0  0  0  0  0  0  0  0  0
   29.6069   39.3216   66.4088 P   0  0  1  0  0  0  0  0  0  0  0  0
   18.5002   41.6082   64.8987 N   0  0  0  0  0  0  0  0  0  0  0  0
   30.6700   38.9268   65.4495 O   0  0  0  0  0  0  0  0  0  0  0  0
   24.5111   39.0743   68.1230 S   0  0  0  0  0  0  0  0  0  0  0  0
   23.2774   40.2127   68.0552 C   0  0  0  0  0  0  0  0  0  0  0  0
   18.4222   40.2602   64.6230 C   0  0  0  0  0  0  0  0  0  0  0  0
   29.5824   38.5138   67.6555 O   0  5  0  0  0  0  0  0  0  0  0  0
   23.0098   40.7100   66.8288 N   0  0  0  0  0  0  0  0  0  0  0  0
   19.3346   39.3938   64.9734 N   0  0  0  0  0  0  0  0  0  0  0  0
   29.6484   40.7980   66.6583 O   0  0  0  0  0  0  0  0  0  0  0  0
   23.8608   40.1291   65.8867 C   0  0  2  0  0  0  0  0  0  0  0  0
   20.4734   39.8178   65.6504 C   0  0  0  0  0  0  0  0  0  0  0  0
   21.3825   38.9186   66.0154 N   0  0  0  0  0  0  0  0  0  0  0  0
   24.7521   39.2178   66.4018 C   0  0  1  0  0  0  0  0  0  0  0  0
   20.6418   41.2326   65.9383 C   0  0  0  0  0  0  0  0  0  0  0  0
   25.7930   38.4461   65.6737 C   0  0  0  0  0  0  0  0  0  0  0  0
   19.5999   42.0541   65.5573 C   0  0  0  0  0  0  0  0  0  0  0  0
   27.0758   38.4360   66.4170 C   0  0  0  0  0  0  0  0  0  0  0  0
   21.9163   41.7640   66.5659 C   0  0  0  0  0  0  0  0  0  0  0  0
   28.2113   38.9953   65.7557 O   0  0  0  0  0  0  0  0  0  0  0  0
  1  8  1  0  0  0  0
  3  5  1  6  0  0  0
  3  9  1  0  0  0  0
  3 12  2  0  0  0  0
  3 22  1  0  0  0  0
  4  8  2  0  0  0  0
  4 19  1  0  0  0  0
  6 16  1  0  0  0  0
  6  7  1  0  0  0  0
  7 10  1  0  0  0  0
  8 11  1  0  0  0  0
 10 13  1  0  0  0  0
 10 21  1  0  0  0  0
 11 14  2  0  0  0  0
 13  2  1  1  0  0  0
 13 16  1  0  0  0  0
 14 15  1  0  0  0  0
 14 17  1  0  0  0  0
 16 18  1  1  0  0  0
 17 19  2  0  0  0  0
 17 21  1  0  0  0  0
 18 20  1  0  0  0  0
 20 22  1  0  0  0  0
M  CHG  1   9  -1
M  END
>  <CHROM.1>
-103.72369730,-43.32289941,1.69499497,-120.01920814,168.98314093,139.23776433
24.23734494,39.81024557,66.12601551,-3.00634092,-0.13099061,1.61120551

>  <Name>
ligand

>  <RI>
0

>  <Rbt.Current_Directory>
/home/itssahil/PROJECTS/Mol_Feturizer/New_Systems/rnas/2HOM

>  <Rbt.Executable>
rbdock ($Id: //depot/dev/client3/rdock/2013.1/src/exe/rbdock.cxx#4 $)

>  <Rbt.Library>
libRbt.so (2013.1, Build901 2013/11/27)

>  <Rbt.Parameter_File>
/export/apps/rDock/src/rDock_2013.1_src/data/scripts/dock_solv.prm

>  <Rbt.Receptor>
prm/pocket_docking_2.prm

>  <SCORE>
-17.1946

>  <SCORE.INTER>
-25.007

>  <SCORE.INTER.CONST>
1

>  <SCORE.INTER.POLAR>
-1.62607

>  <SCORE.INTER.ROT>
6

>  <SCORE.INTER.SOLV>
11.9019

>  <SCORE.INTER.VDW>
-22.8184

>  <SCORE.INTER.norm>
-1.13668

>  <SCORE.INTRA>
7.81241

>  <SCORE.INTRA.DIHEDRAL>
8.02516

>  <SCORE.INTRA.DIHEDRAL.0>
5.05013

>  <SCORE.INTRA.POLAR>
0

>  <SCORE.INTRA.POLAR.0>
0

>  <SCORE.INTRA.REPUL>
0

>  <SCORE.INTRA.REPUL.0>
0

>  <SCORE.INTRA.SOLV>
5.67101

>  <SCORE.INTRA.SOLV.lig_0>
-54.1265

>  <SCORE.INTRA.VDW>
0.964323

>  <SCORE.INTRA.VDW.0>
-2.1303

>  <SCORE.INTRA.norm>
0.355109

>  <SCORE.RESTR>
0

>  <SCORE.RESTR.CAVITY>
0

>  <SCORE.RESTR.norm>
0

>  <SCORE.SYSTEM>
0

>  <SCORE.SYSTEM.CONST>
0

>  <SCORE.SYSTEM.DIHEDRAL>
0

>  <SCORE.SYSTEM.SOLV>
0

>  <SCORE.SYSTEM.norm>
0

>  <SCORE.heavy>
22

>  <SCORE.norm>
-0.781572

>  <RMSD>
1.739

$$$$
ligand
 OpenBabel11021811443D
libRbt.so/2013.1/901 2013/11/27
 22 23  0  0  0  0  0  0  0  0999 V2000
   17.1134   39.4569   64.0699 C   0  0  0  0  0  0  0  0  0  0  0  0
   24.3440   41.6122   64.5704 C   0  0  0  0  0  0  0  0  0  0  0  0
   29.6736   39.2092   66.2618 P   0  0  1  0  0  0  0  0  0  0  0  0
   18.2427   41.3247   65.0493 N   0  0  0  0  0  0  0  0  0  0  0  0
   30.7040   39.0826   67.3240 O   0  0  0  0  0  0  0  0  0  0  0  0
   24.4035   39.2397   67.8222 S   0  0  0  0  0  0  0  0  0  0  0  0
   23.0203   40.1805   67.6663 C   0  0  0  0  0  0  0  0  0  0  0  0
   18.3344   40.0067   64.6572 C   0  0  0  0  0  0  0  0  0  0  0  0
   30.1567   39.8695   65.0217 O   0  5  0  0  0  0  0  0  0  0  0  0
   22.9803   40.9828   66.5811 N   0  0  0  0  0  0  0  0  0  0  0  0
   19.4099   39.2798   64.8013 N   0  0  0  0  0  0  0  0  0  0  0  0
   29.0131   37.8880   66.0127 O   0  0  0  0  0  0  0  0  0  0  0  0
   24.1465   40.8223   65.8307 C   0  0  2  0  0  0  0  0  0  0  0  0
   20.5550   39.8351   65.3630 C   0  0  0  0  0  0  0  0  0  0  0  0
   21.6344   39.0743   65.5189 N   0  0  0  0  0  0  0  0  0  0  0  0
   25.0443   39.9195   66.3495 C   0  0  1  0  0  0  0  0  0  0  0  0
   20.5430   41.2328   65.7620 C   0  0  0  0  0  0  0  0  0  0  0  0
   26.3743   39.5385   65.8063 C   0  0  0  0  0  0  0  0  0  0  0  0
   19.3434   41.8963   65.6001 C   0  0  0  0  0  0  0  0  0  0  0  0
   27.3847   40.5922   66.0651 C   0  0  0  0  0  0  0  0  0  0  0  0
   21.7971   41.9198   66.2678 C   0  0  0  0  0  0  0  0  0  0  0  0
   28.5615   40.2004   66.7730 O   0  0  0  0  0  0  0  0  0  0  0  0
  1  8  1  0  0  0  0
  3  5  1  1  0  0  0
  3  9  1  0  0  0  0
  3 12  2  0  0  0  0
  3 22  1  0  0  0  0
  4  8  2  0  0  0  0
  4 19  1  0  0  0  0
  6 16  1  0  0  0  0
  6  7  1  0  0  0  0
  7 10  1  0  0  0  0
  8 11  1  0  0  0  0
 10 13  1  0  0  0  0
 10 21  1  0  0  0  0
 11 14  2  0  0  0  0
 13  2  1  1  0  0  0
 13 16  1  0  0  0  0
 14 15  1  0  0  0  0
 14 17  1  0  0  0  0
 16 18  1  1  0  0  0
 17 19  2  0  0  0  0
 17 21  1  0  0  0  0
 18 20  1  0  0  0  0
 20 22  1  0  0  0  0
M  CHG  1   9  -1
M  END
>  <CHROM.1>
-73.85126780,-103.57874473,-11.29980918,123.77486151,66.00716940,-179.49505663
24.30195659,40.01368434,65.99440153,2.99492436,-0.05568468,-0.46824166

>  <Name>
ligand

>  <RI>
0

>  <Rbt.Current_Directory>
/home/itssahil/PROJECTS/Mol_Feturizer/New_Systems/rnas/2HOM

>  <Rbt.Executable>
rbdock ($Id: //depot/dev/client3/rdock/2013.1/src/exe/rbdock.cxx#4 $)

>  <Rbt.Library>
libRbt.so (2013.1, Build901 2013/11/27)

>  <Rbt.Parameter_File>
/export/apps/rDock/src/rDock_2013.1_src/data/scripts/dock_solv.prm

>  <Rbt.Receptor>
prm/pocket_docking_3.prm

>  <SCORE>
-16.2271

>  <SCORE.INTER>
-22.0701

>  <SCORE.INTER.CONST>
1

>  <SCORE.INTER.POLAR>
-1.30078

>  <SCORE.INTER.ROT>
6

>  <SCORE.INTER.SOLV>
10.5207

>  <SCORE.INTER.VDW>
-21.4844

>  <SCORE.INTER.norm>
-1.00319

>  <SCORE.INTRA>
5.84298

>  <SCORE.INTRA.DIHEDRAL>
5.17636

>  <SCORE.INTRA.DIHEDRAL.0>
5.05013

>  <SCORE.INTRA.POLAR>
0

>  <SCORE.INTRA.POLAR.0>
0

>  <SCORE.INTRA.REPUL>
0

>  <SCORE.INTRA.REPUL.0>
0

>  <SCORE.INTRA.SOLV>
6.09596

>  <SCORE.INTRA.SOLV.lig_0>
-54.1265

>  <SCORE.INTRA.VDW>
0.206826

>  <SCORE.INTRA.VDW.0>
-2.1303

>  <SCORE.INTRA.norm>
0.26559

>  <SCORE.RESTR>
0

>  <SCORE.RESTR.CAVITY>
0

>  <SCORE.RESTR.norm>
0

>  <SCORE.SYSTEM>
0

>  <SCORE.SYSTEM.CONST>
0

>  <SCORE.SYSTEM.DIHEDRAL>
0

>  <SCORE.SYSTEM.SOLV>
0

>  <SCORE.SYSTEM.norm>
0

>  <SCORE.heavy>
22

>  <SCORE.norm>
-0.737596

>  <RMSD>
1.744

$$$$
ligand
 OpenBabel11021811443D
libRbt.so/2013.1/901 2013/11/27
 22 23  0  0  0  0  0  0  0  0999 V2000
   17.0754   40.0766   63.6971 C   0  0  0  0  0  0  0  0  0  0  0  0
   24.8361   41.3976   67.1361 C   0  0  0  0  0  0  0  0  0  0  0  0
   29.2733   37.6295   65.4523 P   0  0  1  0  0  0  0  0  0  0  0  0
   18.8207   39.2953   65.1347 N   0  0  0  0  0  0  0  0  0  0  0  0
   30.6035   37.8693   64.8365 O   0  0  0  0  0  0  0  0  0  0  0  0
   23.9355   37.5176   66.5519 S   0  0  0  0  0  0  0  0  0  0  0  0
   22.6104   38.5504   66.5639 C   0  0  0  0  0  0  0  0  0  0  0  0
   18.3050   40.3642   64.4341 C   0  0  0  0  0  0  0  0  0  0  0  0
   28.3033   36.9466   64.5579 O   0  5  0  0  0  0  0  0  0  0  0  0
   22.8915   39.8568   66.7575 N   0  0  0  0  0  0  0  0  0  0  0  0
   18.8592   41.5465   64.4024 N   0  0  0  0  0  0  0  0  0  0  0  0
   29.4256   36.9612   66.7842 O   0  0  0  0  0  0  0  0  0  0  0  0
   24.2692   40.0277   66.9051 C   0  0  2  0  0  0  0  0  0  0  0  0
   20.0286   41.7862   65.1166 C   0  0  0  0  0  0  0  0  0  0  0  0
   20.5886   42.9908   65.0572 N   0  0  0  0  0  0  0  0  0  0  0  0
   25.0037   38.8680   66.8285 C   0  0  1  0  0  0  0  0  0  0  0  0
   20.6064   40.7151   65.9116 C   0  0  0  0  0  0  0  0  0  0  0  0
   26.4754   38.7083   66.9618 C   0  0  0  0  0  0  0  0  0  0  0  0
   19.9606   39.4969   65.8430 C   0  0  0  0  0  0  0  0  0  0  0  0
   27.1881   39.2804   65.7942 C   0  0  0  0  0  0  0  0  0  0  0  0
   21.8104   40.9547   66.8023 C   0  0  0  0  0  0  0  0  0  0  0  0
   28.5904   39.0264   65.7040 O   0  0  0  0  0  0  0  0  0  0  0  0
  1  8  1  0  0  0  0
  3  5  1  6  0  0  0
  3  9  1  0  0  0  0
  3 12  2  0  0  0  0
  3 22  1  0  0  0  0
  4  8  2  0  0  0  0
  4 19  1  0  0  0  0
  6 16  1  0  0  0  0
  6  7  1  0  0  0  0
  7 10  1  0  0  0  0
  8 11  1  0  0  0  0
 10 13  1  0  0  0  0
 10 21  1  0  0  0  0
 11 14  2  0  0  0  0
 13  2  1  1  0  0  0
 13 16  1  0  0  0  0
 14 15  1  0  0  0  0
 14 17  1  0  0  0  0
 16 18  1  1  0  0  0
 17 19  2  0  0  0  0
 17 21  1  0  0  0  0
 18 20  1  0  0  0  0
 20 22  1  0  0  0  0
M  CHG  1   9  -1
M  END
>  <CHROM.1>
-32.80516883,110.31833786,-137.07399444,-171.36587887,67.28925625,154.82553643
24.11368776,39.28252640,65.79162375,2.86902068,-0.11993268,0.17856943

>  <Name>
ligand

>  <RI>
0

>  <Rbt.Current_Directory>
/home/itssahil/PROJECTS/Mol_Feturizer/New_Systems/rnas/2HOM

>  <Rbt.Executable>
rbdock ($Id: //depot/dev/client3/rdock/2013.1/src/exe/rbdock.cxx#4 $)

>  <Rbt.Library>
libRbt.so (2013.1, Build901 2013/11/27)

>  <Rbt.Parameter_File>
/export/apps/rDock/src/rDock_2013.1_src/data/scripts/dock_solv.prm

>  <Rbt.Receptor>
prm/pocket_docking_3.prm

>  <SCORE>
-21.8108

>  <SCORE.INTER>
-23.9684

>  <SCORE.INTER.CONST>
1

>  <SCORE.INTER.POLAR>
-1.63459

>  <SCORE.INTER.ROT>
6

>  <SCORE.INTER.SOLV>
16.6657

>  <SCORE.INTER.VDW>
-23.6855

>  <SCORE.INTER.norm>
-1.08947

>  <SCORE.INTRA>
2.1576

>  <SCORE.INTRA.DIHEDRAL>
0.94862

>  <SCORE.INTRA.DIHEDRAL.0>
5.05013

>  <SCORE.INTRA.POLAR>
0

>  <SCORE.INTRA.POLAR.0>
0

>  <SCORE.INTRA.REPUL>
0

>  <SCORE.INTRA.REPUL.0>
0

>  <SCORE.INTRA.SOLV>
1.73805

>  <SCORE.INTRA.SOLV.lig_0>
-54.1265

>  <SCORE.INTRA.VDW>
0.814265

>  <SCORE.INTRA.VDW.0>
-2.1303

>  <SCORE.INTRA.norm>
0.0980728

>  <SCORE.RESTR>
0

>  <SCORE.RESTR.CAVITY>
0

>  <SCORE.RESTR.norm>
0

>  <SCORE.SYSTEM>
0

>  <SCORE.SYSTEM.CONST>
0

>  <SCORE.SYSTEM.DIHEDRAL>
0

>  <SCORE.SYSTEM.SOLV>
0

>  <SCORE.SYSTEM.norm>
0

>  <SCORE.heavy>
22

>  <SCORE.norm>
-0.991398

>  <RMSD>
1.747

$$$$
ligand
 OpenBabel11021811443D
libRbt.so/2013.1/901 2013/11/27
 22 23  0  0  0  0  0  0  0  0999 V2000
   17.3763   40.2168   63.9848 C   0  0  0  0  0  0  0  0  0  0  0  0
   24.1733   40.6289   64.4555 C   0  0  0  0  0  0  0  0  0  0  0  0
   29.4049   39.6454   67.0834 P   0  0  1  0  0  0  0  0  0  0  0  0
   18.8208   41.8253   65.0093 N   0  0  0  0  0  0  0  0  0  0  0  0
   30.0069   38.9718   68.2624 O   0  0  0  0  0  0  0  0  0  0  0  0
   24.6174   38.6003   67.9043 S   0  0  0  0  0  0  0  0  0  0  0  0
   23.4437   39.8018   67.9441 C   0  0  0  0  0  0  0  0  0  0  0  0
   18.6230   40.4980   64.6952 C   0  0  0  0  0  0  0  0  0  0  0  0
   28.9952   41.0520   67.3302 O   0  5  0  0  0  0  0  0  0  0  0  0
   23.2785   40.4935   66.7964 N   0  0  0  0  0  0  0  0  0  0  0  0
   19.4598   39.5455   65.0091 N   0  0  0  0  0  0  0  0  0  0  0  0
   30.2855   39.4852   65.8824 O   0  0  0  0  0  0  0  0  0  0  0  0
   24.1609   40.0167   65.8252 C   0  0  2  0  0  0  0  0  0  0  0  0
   20.6376   39.8485   65.6843 C   0  0  0  0  0  0  0  0  0  0  0  0
   21.4683   38.8632   66.0118 N   0  0  0  0  0  0  0  0  0  0  0  0
   24.9748   38.9901   66.2424 C   0  0  1  0  0  0  0  0  0  0  0  0
   20.9313   41.2341   66.0113 C   0  0  0  0  0  0  0  0  0  0  0  0
   26.0241   38.2819   65.4636 C   0  0  0  0  0  0  0  0  0  0  0  0
   19.9614   42.1540   65.6671 C   0  0  0  0  0  0  0  0  0  0  0  0
   27.3195   39.0005   65.5259 C   0  0  0  0  0  0  0  0  0  0  0  0
   22.2532   41.6337   66.6386 C   0  0  0  0  0  0  0  0  0  0  0  0
   28.0363   38.9364   66.7594 O   0  0  0  0  0  0  0  0  0  0  0  0
  1  8  1  0  0  0  0
  3  5  1  1  0  0  0
  3  9  1  0  0  0  0
  3 12  2  0  0  0  0
  3 22  1  0  0  0  0
  4  8  2  0  0  0  0
  4 19  1  0  0  0  0
  6 16  1  0  0  0  0
  6  7  1  0  0  0  0
  7 10  1  0  0  0  0
  8 11  1  0  0  0  0
 10 13  1  0  0  0  0
 10 21  1  0  0  0  0
 11 14  2  0  0  0  0
 13  2  1  1  0  0  0
 13 16  1  0  0  0  0
 14 15  1  0  0  0  0
 14 17  1  0  0  0  0
 16 18  1  1  0  0  0
 17 19  2  0  0  0  0
 17 21  1  0  0  0  0
 18 20  1  0  0  0  0
 20 22  1  0  0  0  0
M  CHG  1   9  -1
M  END
>  <CHROM.1>
-96.78971659,-93.77261340,4.45266516,73.07178459,-178.16439076,-161.35060686
24.34416379,39.87478827,66.25943709,-2.92877066,0.06387010,2.45050635

>  <Name>
ligand

>  <RI>
0

>  <Rbt.Current_Directory>
/home/itssahil/PROJECTS/Mol_Feturizer/New_Systems/rnas/2HOM

>  <Rbt.Executable>
rbdock ($Id: //depot/dev/client3/rdock/2013.1/src/exe/rbdock.cxx#4 $)

>  <Rbt.Library>
libRbt.so (2013.1, Build901 2013/11/27)

>  <Rbt.Parameter_File>
/export/apps/rDock/src/rDock_2013.1_src/data/scripts/dock_solv.prm

>  <Rbt.Receptor>
prm/pocket_docking_2.prm

>  <SCORE>
-19.4371

>  <SCORE.INTER>
-22.1765

>  <SCORE.INTER.CONST>
1

>  <SCORE.INTER.POLAR>
-1.30767

>  <SCORE.INTER.ROT>
6

>  <SCORE.INTER.SOLV>
12.2582

>  <SCORE.INTER.VDW>
-22.1115

>  <SCORE.INTER.norm>
-1.00802

>  <SCORE.INTRA>
2.6927

>  <SCORE.INTRA.DIHEDRAL>
0.891527

>  <SCORE.INTRA.DIHEDRAL.0>
5.05013

>  <SCORE.INTRA.POLAR>
0

>  <SCORE.INTRA.POLAR.0>
0

>  <SCORE.INTRA.REPUL>
0

>  <SCORE.INTRA.REPUL.0>
0

>  <SCORE.INTRA.SOLV>
5.1938

>  <SCORE.INTRA.SOLV.lig_0>
-54.1265

>  <SCORE.INTRA.VDW>
-0.349964

>  <SCORE.INTRA.VDW.0>
-2.1303

>  <SCORE.INTRA.norm>
0.122395

>  <SCORE.RESTR>
0.0467466

>  <SCORE.RESTR.CAVITY>
0.0467466

>  <SCORE.RESTR.norm>
0.00212484

>  <SCORE.SYSTEM>
0

>  <SCORE.SYSTEM.CONST>
0

>  <SCORE.SYSTEM.DIHEDRAL>
0

>  <SCORE.SYSTEM.SOLV>
0

>  <SCORE.SYSTEM.norm>
0

>  <SCORE.heavy>
22

>  <SCORE.norm>
-0.883504

>  <RMSD>
1.753

$$$$
ligand
 OpenBabel11021811443D
libRbt.so/2013.1/901 2013/11/27
 22 23  0  0  0  0  0  0  0  0999 V2000
   17.6602   40.0328   64.1075 C   0  0  0  0  0  0  0  0  0  0  0  0
   24.2334   40.8161   64.6878 C   0  0  0  0  0  0  0  0  0  0  0  0
   29.5842   39.8888   67.3117 P   0  0  1  0  0  0  0  0  0  0  0  0
   19.1459   41.7195   64.9267 N   0  0  0  0  0  0  0  0  0  0  0  0
   29.7796   38.7991   68.3020 O   0  0  0  0  0  0  0  0  0  0  0  0
   24.9430   38.7322   68.0584 S   0  0  0  0  0  0  0  0  0  0  0  0
   23.7028   39.8591   68.1792 C   0  0  0  0  0  0  0  0  0  0  0  0
   18.8478   40.3745   64.8890 C   0  0  0  0  0  0  0  0  0  0  0  0
   29.5043   41.2466   67.9095 O   0  5  0  0  0  0  0  0  0  0  0  0
   23.4482   40.5681   67.0587 N   0  0  0  0  0  0  0  0  0  0  0  0
   19.5456   39.4590   65.5062 N   0  0  0  0  0  0  0  0  0  0  0  0
   30.5941   39.7831   66.2106 O   0  0  0  0  0  0  0  0  0  0  0  0
   24.3154   40.1700   66.0395 C   0  0  2  0  0  0  0  0  0  0  0  0
   20.6710   39.8188   66.2403 C   0  0  0  0  0  0  0  0  0  0  0  0
   21.3581   38.8751   66.8771 N   0  0  0  0  0  0  0  0  0  0  0  0
   25.2057   39.1844   66.3947 C   0  0  1  0  0  0  0  0  0  0  0  0
   21.0686   41.2161   66.2898 C   0  0  0  0  0  0  0  0  0  0  0  0
   26.2612   38.5607   65.5544 C   0  0  0  0  0  0  0  0  0  0  0  0
   20.2389   42.1032   65.6339 C   0  0  0  0  0  0  0  0  0  0  0  0
   27.5505   38.4768   66.2818 C   0  0  0  0  0  0  0  0  0  0  0  0
   22.3513   41.6478   66.9744 C   0  0  0  0  0  0  0  0  0  0  0  0
   28.1608   39.7109   66.6613 O   0  0  0  0  0  0  0  0  0  0  0  0
  1  8  1  0  0  0  0
  3  5  1  1  0  0  0
  3  9  1  0  0  0  0
  3 12  2  0  0  0  0
  3 22  1  0  0  0  0
  4  8  2  0  0  0  0
  4 19  1  0  0  0  0
  6 16  1  0  0  0  0
  6  7  1  0  0  0  0
  7 10  1  0  0  0  0
  8 11  1  0  0  0  0
 10 13  1  0  0  0  0
 10 21  1  0  0  0  0
 11 14  2  0  0  0  0
 13  2  1  1  0  0  0
 13 16  1  0  0  0  0
 14 15  1  0  0  0  0
 14 17  1  0  0  0  0
 16 18  1  1  0  0  0
 17 19  2  0  0  0  0
 17 21  1  0  0  0  0
 18 20  1  0  0  0  0
 20 22  1  0  0  0  0
M  CHG  1   9  -1
M  END
>  <CHROM.1>
-101.49410342,-45.83385090,25.13489690,-63.21379244,-173.69179472,-40.05706678
24.52973248,39.95377586,66.51967459,-2.95362549,0.08819903,2.47568620

>  <Name>
ligand

>  <RI>
0

>  <Rbt.Current_Directory>
/home/itssahil/PROJECTS/Mol_Feturizer/New_Systems/rnas/2HOM

>  <Rbt.Executable>
rbdock ($Id: //depot/dev/client3/rdock/2013.1/src/exe/rbdock.cxx#4 $)

>  <Rbt.Library>
libRbt.so (2013.1, Build901 2013/11/27)

>  <Rbt.Parameter_File>
/export/apps/rDock/src/rDock_2013.1_src/data/scripts/dock_solv.prm

>  <Rbt.Receptor>
prm/pocket_docking_8.prm

>  <SCORE>
-23.2603

>  <SCORE.INTER>
-25.1294

>  <SCORE.INTER.CONST>
1

>  <SCORE.INTER.POLAR>
-2.49352

>  <SCORE.INTER.ROT>
6

>  <SCORE.INTER.SOLV>
17.5413

>  <SCORE.INTER.VDW>
-21.8883

>  <SCORE.INTER.norm>
-1.14224

>  <SCORE.INTRA>
1.86906

>  <SCORE.INTRA.DIHEDRAL>
0.969017

>  <SCORE.INTRA.DIHEDRAL.0>
5.05013

>  <SCORE.INTRA.POLAR>
0

>  <SCORE.INTRA.POLAR.0>
0

>  <SCORE.INTRA.REPUL>
0

>  <SCORE.INTRA.REPUL.0>
0

>  <SCORE.INTRA.SOLV>
3.2877

>  <SCORE.INTRA.SOLV.lig_0>
-54.1265

>  <SCORE.INTRA.VDW>
-0.259297

>  <SCORE.INTRA.VDW.0>
-2.1303

>  <SCORE.INTRA.norm>
0.0849574

>  <SCORE.RESTR>
0

>  <SCORE.RESTR.CAVITY>
0

>  <SCORE.RESTR.norm>
0

>  <SCORE.SYSTEM>
0

>  <SCORE.SYSTEM.CONST>
0

>  <SCORE.SYSTEM.DIHEDRAL>
0

>  <SCORE.SYSTEM.SOLV>
0

>  <SCORE.SYSTEM.norm>
0

>  <SCORE.heavy>
22

>  <SCORE.norm>
-1.05729

>  <RMSD>
1.755

$$$$
ligand
 OpenBabel11021811443D
libRbt.so/2013.1/901 2013/11/27
 22 23  0  0  0  0  0  0  0  0999 V2000
   17.4889   39.9153   63.9891 C   0  0  0  0  0  0  0  0  0  0  0  0
   25.0906   42.1952   67.0693 C   0  0  0  0  0  0  0  0  0  0  0  0
   28.6831   37.3505   65.6308 P   0  0  1  0  0  0  0  0  0  0  0  0
   19.3026   39.4318   65.4723 N   0  0  0  0  0  0  0  0  0  0  0  0
   28.4270   38.5424   64.7822 O   0  0  0  0  0  0  0  0  0  0  0  0
   24.4334   38.2306   67.3089 S   0  0  0  0  0  0  0  0  0  0  0  0
   23.0424   39.1660   67.1949 C   0  0  0  0  0  0  0  0  0  0  0  0
   18.6777   40.3858   64.6986 C   0  0  0  0  0  0  0  0  0  0  0  0
   28.4828   36.0537   64.9342 O   0  5  0  0  0  0  0  0  0  0  0  0
   23.2414   40.4989   67.1124 N   0  0  0  0  0  0  0  0  0  0  0  0
   19.1020   41.6153   64.5793 N   0  0  0  0  0  0  0  0  0  0  0  0
   30.0165   37.4635   66.3039 O   0  0  0  0  0  0  0  0  0  0  0  0
   24.6094   40.7760   67.1440 C   0  0  2  0  0  0  0  0  0  0  0  0
   20.2362   42.0301   65.2696 C   0  0  0  0  0  0  0  0  0  0  0  0
   20.6638   43.2805   65.1211 N   0  0  0  0  0  0  0  0  0  0  0  0
   25.4177   39.6693   67.2537 C   0  0  1  0  0  0  0  0  0  0  0  0
   20.9226   41.0874   66.1375 C   0  0  0  0  0  0  0  0  0  0  0  0
   26.9014   39.6256   67.3305 C   0  0  0  0  0  0  0  0  0  0  0  0
   20.4116   39.8053   66.1596 C   0  0  0  0  0  0  0  0  0  0  0  0
   27.3796   38.2946   67.7756 C   0  0  0  0  0  0  0  0  0  0  0  0
   22.0906   41.5186   67.0038 C   0  0  0  0  0  0  0  0  0  0  0  0
   27.5884   37.3100   66.7626 O   0  0  0  0  0  0  0  0  0  0  0  0
  1  8  1  0  0  0  0
  3  5  1  6  0  0  0
  3  9  1  0  0  0  0
  3 12  2  0  0  0  0
  3 22  1  0  0  0  0
  4  8  2  0  0  0  0
  4 19  1  0  0  0  0
  6 16  1  0  0  0  0
  6  7  1  0  0  0  0
  7 10  1  0  0  0  0
  8 11  1  0  0  0  0
 10 13  1  0  0  0  0
 10 21  1  0  0  0  0
 11 14  2  0  0  0  0
 13  2  1  1  0  0  0
 13 16  1  0  0  0  0
 14 15  1  0  0  0  0
 14 17  1  0  0  0  0
 16 18  1  1  0  0  0
 17 19  2  0  0  0  0
 17 21  1  0  0  0  0
 18 20  1  0  0  0  0
 20 22  1  0  0  0  0
M  CHG  1   9  -1
M  END
>  <CHROM.1>
-38.40082413,-13.55949898,-141.15516779,87.55964970,66.71564854,-62.09303984
24.19717932,39.46256972,66.15574337,2.85744050,-0.25250379,0.45706817

>  <Name>
ligand

>  <RI>
0

>  <Rbt.Current_Directory>
/home/itssahil/PROJECTS/Mol_Feturizer/New_Systems/rnas/2HOM

>  <Rbt.Executable>
rbdock ($Id: //depot/dev/client3/rdock/2013.1/src/exe/rbdock.cxx#4 $)

>  <Rbt.Library>
libRbt.so (2013.1, Build901 2013/11/27)

>  <Rbt.Parameter_File>
/export/apps/rDock/src/rDock_2013.1_src/data/scripts/dock_solv.prm

>  <Rbt.Receptor>
prm/pocket_docking_5.prm

>  <SCORE>
-20.2318

>  <SCORE.INTER>
-22.874

>  <SCORE.INTER.CONST>
1

>  <SCORE.INTER.POLAR>
-1.62109

>  <SCORE.INTER.ROT>
6

>  <SCORE.INTER.SOLV>
16.9425

>  <SCORE.INTER.VDW>
-23.0932

>  <SCORE.INTER.norm>
-1.03973

>  <SCORE.INTRA>
2.64214

>  <SCORE.INTRA.DIHEDRAL>
2.14092

>  <SCORE.INTRA.DIHEDRAL.0>
5.05013

>  <SCORE.INTRA.POLAR>
0

>  <SCORE.INTRA.POLAR.0>
0

>  <SCORE.INTRA.REPUL>
0

>  <SCORE.INTRA.REPUL.0>
0

>  <SCORE.INTRA.SOLV>
0.494805

>  <SCORE.INTRA.SOLV.lig_0>
-54.1265

>  <SCORE.INTRA.VDW>
1.32428

>  <SCORE.INTRA.VDW.0>
-2.1303

>  <SCORE.INTRA.norm>
0.120097

>  <SCORE.RESTR>
0

>  <SCORE.RESTR.CAVITY>
0

>  <SCORE.RESTR.norm>
0

>  <SCORE.SYSTEM>
0

>  <SCORE.SYSTEM.CONST>
0

>  <SCORE.SYSTEM.DIHEDRAL>
0

>  <SCORE.SYSTEM.SOLV>
0

>  <SCORE.SYSTEM.norm>
0

>  <SCORE.heavy>
22

>  <SCORE.norm>
-0.919628

>  <RMSD>
1.779

$$$$
ligand
 OpenBabel11021811443D
libRbt.so/2013.1/901 2013/11/27
 22 23  0  0  0  0  0  0  0  0999 V2000
   17.1098   39.9083   63.7013 C   0  0  0  0  0  0  0  0  0  0  0  0
   24.8172   41.6245   66.1456 C   0  0  0  0  0  0  0  0  0  0  0  0
   29.1951   37.1123   65.6215 P   0  0  1  0  0  0  0  0  0  0  0  0
   19.0919   39.2534   64.8699 N   0  0  0  0  0  0  0  0  0  0  0  0
   30.6039   36.8022   65.9756 O   0  0  0  0  0  0  0  0  0  0  0  0
   24.0203   37.7630   66.9586 S   0  0  0  0  0  0  0  0  0  0  0  0
   22.6809   38.7767   66.9903 C   0  0  0  0  0  0  0  0  0  0  0  0
   18.3174   40.3030   64.4251 C   0  0  0  0  0  0  0  0  0  0  0  0
   29.0334   38.3211   64.7730 O   0  5  0  0  0  0  0  0  0  0  0  0
   22.9269   40.0763   66.7191 N   0  0  0  0  0  0  0  0  0  0  0  0
   18.6231   41.5594   64.6090 N   0  0  0  0  0  0  0  0  0  0  0  0
   28.5162   35.8994   65.0632 O   0  0  0  0  0  0  0  0  0  0  0  0
   24.2886   40.2583   66.4704 C   0  0  2  0  0  0  0  0  0  0  0  0
   19.7794   41.8998   65.3034 C   0  0  0  0  0  0  0  0  0  0  0  0
   20.0838   43.1842   65.4646 N   0  0  0  0  0  0  0  0  0  0  0  0
   25.0470   39.1151   66.5597 C   0  0  1  0  0  0  0  0  0  0  0  0
   20.6230   40.8433   65.8374 C   0  0  0  0  0  0  0  0  0  0  0  0
   26.5148   38.9755   66.3713 C   0  0  0  0  0  0  0  0  0  0  0  0
   20.2264   39.5523   65.5521 C   0  0  0  0  0  0  0  0  0  0  0  0
   27.0362   37.7747   67.0675 C   0  0  0  0  0  0  0  0  0  0  0  0
   21.8283   41.1575   66.7029 C   0  0  0  0  0  0  0  0  0  0  0  0
   28.4338   37.5098   66.9418 O   0  0  0  0  0  0  0  0  0  0  0  0
  1  8  1  0  0  0  0
  3  5  1  1  0  0  0
  3  9  1  0  0  0  0
  3 12  2  0  0  0  0
  3 22  1  0  0  0  0
  4  8  2  0  0  0  0
  4 19  1  0  0  0  0
  6 16  1  0  0  0  0
  6  7  1  0  0  0  0
  7 10  1  0  0  0  0
  8 11  1  0  0  0  0
 10 13  1  0  0  0  0
 10 21  1  0  0  0  0
 11 14  2  0  0  0  0
 13  2  1  1  0  0  0
 13 16  1  0  0  0  0
 14 15  1  0  0  0  0
 14 17  1  0  0  0  0
 16 18  1  1  0  0  0
 17 19  2  0  0  0  0
 17 21  1  0  0  0  0
 18 20  1  0  0  0  0
 20 22  1  0  0  0  0
M  CHG  1   9  -1
M  END
>  <CHROM.1>
-52.24535843,-22.84844827,-155.92856780,178.74900848,-66.31616773,-174.48599404
24.08392275,39.16031221,65.86338947,2.81330441,-0.16584772,0.21901677

>  <Name>
ligand

>  <RI>
0

>  <Rbt.Current_Directory>
/home/itssahil/PROJECTS/Mol_Feturizer/New_Systems/rnas/2HOM

>  <Rbt.Executable>
rbdock ($Id: //depot/dev/client3/rdock/2013.1/src/exe/rbdock.cxx#4 $)

>  <Rbt.Library>
libRbt.so (2013.1, Build901 2013/11/27)

>  <Rbt.Parameter_File>
/export/apps/rDock/src/rDock_2013.1_src/data/scripts/dock_solv.prm

>  <Rbt.Receptor>
prm/pocket_docking_6.prm

>  <SCORE>
-19.8585

>  <SCORE.INTER>
-22.1006

>  <SCORE.INTER.CONST>
1

>  <SCORE.INTER.POLAR>
-1.27076

>  <SCORE.INTER.ROT>
6

>  <SCORE.INTER.SOLV>
18.0844

>  <SCORE.INTER.VDW>
-24.126

>  <SCORE.INTER.norm>
-1.00457

>  <SCORE.INTRA>
2.24203

>  <SCORE.INTRA.DIHEDRAL>
-0.143689

>  <SCORE.INTRA.DIHEDRAL.0>
5.05013

>  <SCORE.INTRA.POLAR>
0

>  <SCORE.INTRA.POLAR.0>
0

>  <SCORE.INTRA.REPUL>
0

>  <SCORE.INTRA.REPUL.0>
0

>  <SCORE.INTRA.SOLV>
1.75792

>  <SCORE.INTRA.SOLV.lig_0>
-54.1265

>  <SCORE.INTRA.VDW>
1.43492

>  <SCORE.INTRA.VDW.0>
-2.1303

>  <SCORE.INTRA.norm>
0.101911

>  <SCORE.RESTR>
0

>  <SCORE.RESTR.CAVITY>
0

>  <SCORE.RESTR.norm>
0

>  <SCORE.SYSTEM>
0

>  <SCORE.SYSTEM.CONST>
0

>  <SCORE.SYSTEM.DIHEDRAL>
0

>  <SCORE.SYSTEM.SOLV>
0

>  <SCORE.SYSTEM.norm>
0

>  <SCORE.heavy>
22

>  <SCORE.norm>
-0.90266

>  <RMSD>
1.781

$$$$
ligand
 OpenBabel11021811443D
libRbt.so/2013.1/901 2013/11/27
 22 23  0  0  0  0  0  0  0  0999 V2000
   17.3577   39.7742   63.9361 C   0  0  0  0  0  0  0  0  0  0  0  0
   24.6367   41.1318   64.9623 C   0  0  0  0  0  0  0  0  0  0  0  0
   29.2316   37.1005   65.5159 P   0  0  1  0  0  0  0  0  0  0  0  0
   19.3523   39.3365   65.1824 N   0  0  0  0  0  0  0  0  0  0  0  0
   28.2688   36.1377   64.9222 O   0  0  0  0  0  0  0  0  0  0  0  0
   24.3832   38.4793   67.9800 S   0  0  0  0  0  0  0  0  0  0  0  0
   23.1033   39.5639   67.8910 C   0  0  0  0  0  0  0  0  0  0  0  0
   18.5685   40.2916   64.5720 C   0  0  0  0  0  0  0  0  0  0  0  0
   30.4533   36.4697   66.0789 O   0  5  0  0  0  0  0  0  0  0  0  0
   23.1689   40.4617   66.8846 N   0  0  0  0  0  0  0  0  0  0  0  0
   18.8683   41.5624   64.5369 N   0  0  0  0  0  0  0  0  0  0  0  0
   29.5256   38.2089   64.5522 O   0  0  0  0  0  0  0  0  0  0  0  0
   24.3318   40.2543   66.1405 C   0  0  2  0  0  0  0  0  0  0  0  0
   20.0277   42.0211   65.1534 C   0  0  0  0  0  0  0  0  0  0  0  0
   20.3259   43.3155   65.0911 N   0  0  0  0  0  0  0  0  0  0  0  0
   25.1236   39.2228   66.5870 C   0  0  1  0  0  0  0  0  0  0  0  0
   20.8815   41.0746   65.8523 C   0  0  0  0  0  0  0  0  0  0  0  0
   26.4227   38.7618   66.0312 C   0  0  0  0  0  0  0  0  0  0  0  0
   20.4902   39.7521   65.7942 C   0  0  0  0  0  0  0  0  0  0  0  0
   27.1584   37.9206   67.0057 C   0  0  0  0  0  0  0  0  0  0  0  0
   22.0914   41.5368   66.6415 C   0  0  0  0  0  0  0  0  0  0  0  0
   28.5585   37.7479   66.7842 O   0  0  0  0  0  0  0  0  0  0  0  0
  1  8  1  0  0  0  0
  3  5  1  6  0  0  0
  3  9  1  0  0  0  0
  3 12  2  0  0  0  0
  3 22  1  0  0  0  0
  4  8  2  0  0  0  0
  4 19  1  0  0  0  0
  6 16  1  0  0  0  0
  6  7  1  0  0  0  0
  7 10  1  0  0  0  0
  8 11  1  0  0  0  0
 10 13  1  0  0  0  0
 10 21  1  0  0  0  0
 11 14  2  0  0  0  0
 13  2  1  1  0  0  0
 13 16  1  0  0  0  0
 14 15  1  0  0  0  0
 14 17  1  0  0  0  0
 16 18  1  1  0  0  0
 17 19  2  0  0  0  0
 17 21  1  0  0  0  0
 18 20  1  0  0  0  0
 20 22  1  0  0  0  0
M  CHG  1   9  -1
M  END
>  <CHROM.1>
-83.37355694,-16.83118862,-158.46374408,-161.54074141,-60.52581189,-27.24248155
24.24320694,39.28908695,65.90093739,3.02285937,-0.36292933,1.05641578

>  <Name>
ligand

>  <RI>
0

>  <Rbt.Current_Directory>
/home/itssahil/PROJECTS/Mol_Feturizer/New_Systems/rnas/2HOM

>  <Rbt.Executable>
rbdock ($Id: //depot/dev/client3/rdock/2013.1/src/exe/rbdock.cxx#4 $)

>  <Rbt.Library>
libRbt.so (2013.1, Build901 2013/11/27)

>  <Rbt.Parameter_File>
/export/apps/rDock/src/rDock_2013.1_src/data/scripts/dock_solv.prm

>  <Rbt.Receptor>
prm/pocket_docking_5.prm

>  <SCORE>
-22.4978

>  <SCORE.INTER>
-25.1571

>  <SCORE.INTER.CONST>
1

>  <SCORE.INTER.POLAR>
-1.62651

>  <SCORE.INTER.ROT>
6

>  <SCORE.INTER.SOLV>
17.6066

>  <SCORE.INTER.VDW>
-24.8186

>  <SCORE.INTER.norm>
-1.14351

>  <SCORE.INTRA>
2.65934

>  <SCORE.INTRA.DIHEDRAL>
2.06645

>  <SCORE.INTRA.DIHEDRAL.0>
5.05013

>  <SCORE.INTRA.POLAR>
0

>  <SCORE.INTRA.POLAR.0>
0

>  <SCORE.INTRA.REPUL>
0

>  <SCORE.INTRA.REPUL.0>
0

>  <SCORE.INTRA.SOLV>
0.633961

>  <SCORE.INTRA.SOLV.lig_0>
-54.1265

>  <SCORE.INTRA.VDW>
1.30914

>  <SCORE.INTRA.VDW.0>
-2.1303

>  <SCORE.INTRA.norm>
0.120879

>  <SCORE.RESTR>
0

>  <SCORE.RESTR.CAVITY>
0

>  <SCORE.RESTR.norm>
0

>  <SCORE.SYSTEM>
0

>  <SCORE.SYSTEM.CONST>
0

>  <SCORE.SYSTEM.DIHEDRAL>
0

>  <SCORE.SYSTEM.SOLV>
0

>  <SCORE.SYSTEM.norm>
0

>  <SCORE.heavy>
22

>  <SCORE.norm>
-1.02263

>  <RMSD>
1.782

$$$$
ligand
 OpenBabel11021811443D
libRbt.so/2013.1/901 2013/11/27
 22 23  0  0  0  0  0  0  0  0999 V2000
   17.2569   39.0123   64.0454 C   0  0  0  0  0  0  0  0  0  0  0  0
   22.9772   40.3829   68.4669 C   0  0  0  0  0  0  0  0  0  0  0  0
   29.2410   40.3773   66.8866 P   0  0  1  0  0  0  0  0  0  0  0  0
   19.5753   39.1106   64.6273 N   0  0  0  0  0  0  0  0  0  0  0  0
   29.7984   39.1361   66.2909 O   0  0  0  0  0  0  0  0  0  0  0  0
   25.3138   39.9157   65.2221 S   0  0  0  0  0  0  0  0  0  0  0  0
   23.9398   40.8485   64.9678 C   0  0  0  0  0  0  0  0  0  0  0  0
   18.3912   39.8067   64.5147 C   0  0  0  0  0  0  0  0  0  0  0  0
   29.8088   40.7220   68.2156 O   0  5  0  0  0  0  0  0  0  0  0  0
   23.1430   41.0182   66.0445 N   0  0  0  0  0  0  0  0  0  0  0  0
   18.2687   41.0787   64.7848 N   0  0  0  0  0  0  0  0  0  0  0  0
   29.3047   41.5049   65.9028 O   0  0  0  0  0  0  0  0  0  0  0  0
   23.6835   40.3481   67.1436 C   0  0  2  0  0  0  0  0  0  0  0  0
   19.3684   41.8045   65.2305 C   0  0  0  0  0  0  0  0  0  0  0  0
   19.2289   43.1027   65.4826 N   0  0  0  0  0  0  0  0  0  0  0  0
   24.8610   39.6850   66.8904 C   0  0  1  0  0  0  0  0  0  0  0  0
   20.6405   41.1249   65.4121 C   0  0  0  0  0  0  0  0  0  0  0  0
   25.6718   38.8706   67.8330 C   0  0  0  0  0  0  0  0  0  0  0  0
   20.6670   39.7901   65.0609 C   0  0  0  0  0  0  0  0  0  0  0  0
   27.1022   38.8585   67.4429 C   0  0  0  0  0  0  0  0  0  0  0  0
   21.8387   41.8389   66.0080 C   0  0  0  0  0  0  0  0  0  0  0  0
   27.7209   40.1249   67.2128 O   0  0  0  0  0  0  0  0  0  0  0  0
  1  8  1  0  0  0  0
  3  5  1  6  0  0  0
  3  9  1  0  0  0  0
  3 12  2  0  0  0  0
  3 22  1  0  0  0  0
  4  8  2  0  0  0  0
  4 19  1  0  0  0  0
  6 16  1  0  0  0  0
  6  7  1  0  0  0  0
  7 10  1  0  0  0  0
  8 11  1  0  0  0  0
 10 13  1  0  0  0  0
 10 21  1  0  0  0  0
 11 14  2  0  0  0  0
 13  2  1  6  0  0  0
 13 16  1  0  0  0  0
 14 15  1  0  0  0  0
 14 17  1  0  0  0  0
 16 18  1  6  0  0  0
 17 19  2  0  0  0  0
 17 21  1  0  0  0  0
 18 20  1  0  0  0  0
 20 22  1  0  0  0  0
M  CHG  1   9  -1
M  END
>  <CHROM.1>
79.33721234,27.50288209,-175.82790746,51.52953898,175.58729987,24.00622856
24.10555654,40.35055951,66.11192167,3.13033629,-0.20907305,0.17164362

>  <Name>
ligand

>  <RI>
0

>  <Rbt.Current_Directory>
/home/itssahil/PROJECTS/Mol_Feturizer/New_Systems/rnas/2HOM

>  <Rbt.Executable>
rbdock ($Id: //depot/dev/client3/rdock/2013.1/src/exe/rbdock.cxx#4 $)

>  <Rbt.Library>
libRbt.so (2013.1, Build901 2013/11/27)

>  <Rbt.Parameter_File>
/export/apps/rDock/src/rDock_2013.1_src/data/scripts/dock_solv.prm

>  <Rbt.Receptor>
prm/pocket_docking_2.prm

>  <SCORE>
-14.0491

>  <SCORE.INTER>
-15.6523

>  <SCORE.INTER.CONST>
1

>  <SCORE.INTER.POLAR>
-1.18585

>  <SCORE.INTER.ROT>
6

>  <SCORE.INTER.SOLV>
21.6337

>  <SCORE.INTER.VDW>
-21.2933

>  <SCORE.INTER.norm>
-0.71147

>  <SCORE.INTRA>
1.32858

>  <SCORE.INTRA.DIHEDRAL>
1.67108

>  <SCORE.INTRA.DIHEDRAL.0>
5.05013

>  <SCORE.INTRA.POLAR>
0

>  <SCORE.INTRA.POLAR.0>
0

>  <SCORE.INTRA.REPUL>
0

>  <SCORE.INTRA.REPUL.0>
0

>  <SCORE.INTRA.SOLV>
-0.237303

>  <SCORE.INTRA.SOLV.lig_0>
-54.1265

>  <SCORE.INTRA.VDW>
0.611685

>  <SCORE.INTRA.VDW.0>
-2.1303

>  <SCORE.INTRA.norm>
0.0603898

>  <SCORE.RESTR>
0.274623

>  <SCORE.RESTR.CAVITY>
0.274623

>  <SCORE.RESTR.norm>
0.0124829

>  <SCORE.SYSTEM>
0

>  <SCORE.SYSTEM.CONST>
0

>  <SCORE.SYSTEM.DIHEDRAL>
0

>  <SCORE.SYSTEM.SOLV>
0

>  <SCORE.SYSTEM.norm>
0

>  <SCORE.heavy>
22

>  <SCORE.norm>
-0.638597

>  <RMSD>
1.793

$$$$
ligand
 OpenBabel11021811443D
libRbt.so/2013.1/901 2013/11/27
 22 23  0  0  0  0  0  0  0  0999 V2000
   17.3576   39.9443   63.8466 C   0  0  0  0  0  0  0  0  0  0  0  0
   23.9235   38.9457   67.5631 C   0  0  0  0  0  0  0  0  0  0  0  0
   29.7358   40.7736   66.4629 P   0  0  1  0  0  0  0  0  0  0  0  0
   19.3528   39.3324   65.0163 N   0  0  0  0  0  0  0  0  0  0  0  0
   29.5537   41.2214   67.8674 O   0  0  0  0  0  0  0  0  0  0  0  0
   25.5611   40.7515   64.3593 S   0  0  0  0  0  0  0  0  0  0  0  0
   24.1099   41.4220   64.8761 C   0  0  0  0  0  0  0  0  0  0  0  0
   18.6015   40.3619   64.4917 C   0  0  0  0  0  0  0  0  0  0  0  0
   29.9595   41.8795   65.4963 O   0  5  0  0  0  0  0  0  0  0  0  0
   23.5447   40.8311   65.9506 N   0  0  0  0  0  0  0  0  0  0  0  0
   18.9573   41.6177   64.5404 N   0  0  0  0  0  0  0  0  0  0  0  0
   30.7760   39.6985   66.3866 O   0  0  0  0  0  0  0  0  0  0  0  0
   24.3411   39.7677   66.3794 C   0  0  2  0  0  0  0  0  0  0  0  0
   20.1471   41.9803   65.1631 C   0  0  0  0  0  0  0  0  0  0  0  0
   20.5018   43.2617   65.1864 N   0  0  0  0  0  0  0  0  0  0  0  0
   25.4788   39.5648   65.6346 C   0  0  1  0  0  0  0  0  0  0  0  0
   20.9700   40.9501   65.7750 C   0  0  0  0  0  0  0  0  0  0  0  0
   26.5155   38.5155   65.8177 C   0  0  0  0  0  0  0  0  0  0  0  0
   20.5189   39.6533   65.6318 C   0  0  0  0  0  0  0  0  0  0  0  0
   27.6911   39.0411   66.5525 C   0  0  0  0  0  0  0  0  0  0  0  0
   22.2135   41.3016   66.5692 C   0  0  0  0  0  0  0  0  0  0  0  0
   28.3778   40.1482   65.9675 O   0  0  0  0  0  0  0  0  0  0  0  0
  1  8  1  0  0  0  0
  3  5  1  1  0  0  0
  3  9  1  0  0  0  0
  3 12  2  0  0  0  0
  3 22  1  0  0  0  0
  4  8  2  0  0  0  0
  4 19  1  0  0  0  0
  6 16  1  0  0  0  0
  6  7  1  0  0  0  0
  7 10  1  0  0  0  0
  8 11  1  0  0  0  0
 10 13  1  0  0  0  0
 10 21  1  0  0  0  0
 11 14  2  0  0  0  0
 13  2  1  6  0  0  0
 13 16  1  0  0  0  0
 14 15  1  0  0  0  0
 14 17  1  0  0  0  0
 16 18  1  6  0  0  0
 17 19  2  0  0  0  0
 17 21  1  0  0  0  0
 18 20  1  0  0  0  0
 20 22  1  0  0  0  0
M  CHG  1   9  -1
M  END
>  <CHROM.1>
74.21832297,81.81340140,-113.99750098,-59.03596055,-172.54092907,-58.69115111
24.57211299,40.52340663,65.70110986,3.06770856,-0.12863816,-0.30194820

>  <Name>
ligand

>  <RI>
0

>  <Rbt.Current_Directory>
/home/itssahil/PROJECTS/Mol_Feturizer/New_Systems/rnas/2HOM

>  <Rbt.Executable>
rbdock ($Id: //depot/dev/client3/rdock/2013.1/src/exe/rbdock.cxx#4 $)

>  <Rbt.Library>
libRbt.so (2013.1, Build901 2013/11/27)

>  <Rbt.Parameter_File>
/export/apps/rDock/src/rDock_2013.1_src/data/scripts/dock_solv.prm

>  <Rbt.Receptor>
prm/pocket_docking_4.prm

>  <SCORE>
-16.4495

>  <SCORE.INTER>
-16.162

>  <SCORE.INTER.CONST>
1

>  <SCORE.INTER.POLAR>
-0.948603

>  <SCORE.INTER.ROT>
6

>  <SCORE.INTER.SOLV>
19.1845

>  <SCORE.INTER.VDW>
-21.6075

>  <SCORE.INTER.norm>
-0.734637

>  <SCORE.INTRA>
-0.287484

>  <SCORE.INTRA.DIHEDRAL>
0.281854

>  <SCORE.INTRA.DIHEDRAL.0>
5.05013

>  <SCORE.INTRA.POLAR>
0

>  <SCORE.INTRA.POLAR.0>
0

>  <SCORE.INTRA.REPUL>
0

>  <SCORE.INTRA.REPUL.0>
0

>  <SCORE.INTRA.SOLV>
-0.0294014

>  <SCORE.INTRA.SOLV.lig_0>
-54.1265

>  <SCORE.INTRA.VDW>
-0.41371

>  <SCORE.INTRA.VDW.0>
-2.1303

>  <SCORE.INTRA.norm>
-0.0130674

>  <SCORE.RESTR>
0

>  <SCORE.RESTR.CAVITY>
0

>  <SCORE.RESTR.norm>
0

>  <SCORE.SYSTEM>
0

>  <SCORE.SYSTEM.CONST>
0

>  <SCORE.SYSTEM.DIHEDRAL>
0

>  <SCORE.SYSTEM.SOLV>
0

>  <SCORE.SYSTEM.norm>
0

>  <SCORE.heavy>
22

>  <SCORE.norm>
-0.747705

>  <RMSD>
1.796

$$$$
ligand
 OpenBabel11021811443D
libRbt.so/2013.1/901 2013/11/27
 22 23  0  0  0  0  0  0  0  0999 V2000
   17.2798   40.1017   64.0165 C   0  0  0  0  0  0  0  0  0  0  0  0
   23.3928   40.0683   64.4957 C   0  0  0  0  0  0  0  0  0  0  0  0
   29.4153   36.8859   65.3331 P   0  0  1  0  0  0  0  0  0  0  0  0
   19.1328   39.4634   65.3884 N   0  0  0  0  0  0  0  0  0  0  0  0
   30.2322   37.4170   64.2120 O   0  0  0  0  0  0  0  0  0  0  0  0
   24.8198   38.5883   67.9570 S   0  0  0  0  0  0  0  0  0  0  0  0
   23.6304   39.7617   68.1339 C   0  0  0  0  0  0  0  0  0  0  0  0
   18.5098   40.4866   64.7070 C   0  0  0  0  0  0  0  0  0  0  0  0
   29.4806   35.4096   65.4868 O   0  5  0  0  0  0  0  0  0  0  0  0
   23.1377   40.2703   66.9843 N   0  0  0  0  0  0  0  0  0  0  0  0
   18.9689   41.7082   64.6540 N   0  0  0  0  0  0  0  0  0  0  0  0
   29.7165   37.6287   66.5985 O   0  0  0  0  0  0  0  0  0  0  0  0
   23.7665   39.6684   65.8928 C   0  0  2  0  0  0  0  0  0  0  0  0
   20.1418   42.0406   65.3238 C   0  0  0  0  0  0  0  0  0  0  0  0
   20.6037   43.2849   65.2429 N   0  0  0  0  0  0  0  0  0  0  0  0
   24.7163   38.7304   66.2219 C   0  0  1  0  0  0  0  0  0  0  0  0
   20.8303   41.0204   66.0973 C   0  0  0  0  0  0  0  0  0  0  0  0
   25.5684   37.9316   65.3026 C   0  0  0  0  0  0  0  0  0  0  0  0
   20.2791   39.7555   66.0536 C   0  0  0  0  0  0  0  0  0  0  0  0
   26.9902   37.9618   65.7220 C   0  0  0  0  0  0  0  0  0  0  0  0
   22.0443   41.3559   66.9424 C   0  0  0  0  0  0  0  0  0  0  0  0
   27.8973   37.1334   64.9939 O   0  0  0  0  0  0  0  0  0  0  0  0
  1  8  1  0  0  0  0
  3  5  1  6  0  0  0
  3  9  1  0  0  0  0
  3 12  2  0  0  0  0
  3 22  1  0  0  0  0
  4  8  2  0  0  0  0
  4 19  1  0  0  0  0
  6 16  1  0  0  0  0
  6  7  1  0  0  0  0
  7 10  1  0  0  0  0
  8 11  1  0  0  0  0
 10 13  1  0  0  0  0
 10 21  1  0  0  0  0
 11 14  2  0  0  0  0
 13  2  1  1  0  0  0
 13 16  1  0  0  0  0
 14 15  1  0  0  0  0
 14 17  1  0  0  0  0
 16 18  1  1  0  0  0
 17 19  2  0  0  0  0
 17 21  1  0  0  0  0
 18 20  1  0  0  0  0
 20 22  1  0  0  0  0
M  CHG  1   9  -1
M  END
>  <CHROM.1>
-126.42423274,-47.34122129,-143.72613253,174.40822864,-173.63530467,-116.55268256
24.20514112,39.13780624,65.78417005,3.02377712,-0.38291030,1.20347058

>  <Name>
ligand

>  <RI>
0

>  <Rbt.Current_Directory>
/home/itssahil/PROJECTS/Mol_Feturizer/New_Systems/rnas/2HOM

>  <Rbt.Executable>
rbdock ($Id: //depot/dev/client3/rdock/2013.1/src/exe/rbdock.cxx#4 $)

>  <Rbt.Library>
libRbt.so (2013.1, Build901 2013/11/27)

>  <Rbt.Parameter_File>
/export/apps/rDock/src/rDock_2013.1_src/data/scripts/dock_solv.prm

>  <Rbt.Receptor>
prm/pocket_docking_5.prm

>  <SCORE>
-24.4811

>  <SCORE.INTER>
-26.9458

>  <SCORE.INTER.CONST>
1

>  <SCORE.INTER.POLAR>
-1.63337

>  <SCORE.INTER.ROT>
6

>  <SCORE.INTER.SOLV>
18.9538

>  <SCORE.INTER.VDW>
-26.4372

>  <SCORE.INTER.norm>
-1.22481

>  <SCORE.INTRA>
2.46472

>  <SCORE.INTRA.DIHEDRAL>
2.6591

>  <SCORE.INTRA.DIHEDRAL.0>
5.05013

>  <SCORE.INTRA.POLAR>
0

>  <SCORE.INTRA.POLAR.0>
0

>  <SCORE.INTRA.REPUL>
0

>  <SCORE.INTRA.REPUL.0>
0

>  <SCORE.INTRA.SOLV>
0.886164

>  <SCORE.INTRA.SOLV.lig_0>
-54.1265

>  <SCORE.INTRA.VDW>
0.692081

>  <SCORE.INTRA.VDW.0>
-2.1303

>  <SCORE.INTRA.norm>
0.112033

>  <SCORE.RESTR>
0

>  <SCORE.RESTR.CAVITY>
0

>  <SCORE.RESTR.norm>
0

>  <SCORE.SYSTEM>
0

>  <SCORE.SYSTEM.CONST>
0

>  <SCORE.SYSTEM.DIHEDRAL>
0

>  <SCORE.SYSTEM.SOLV>
0

>  <SCORE.SYSTEM.norm>
0

>  <SCORE.heavy>
22

>  <SCORE.norm>
-1.11278

>  <RMSD>
1.805

$$$$
ligand
 OpenBabel11021811443D
libRbt.so/2013.1/901 2013/11/27
 22 23  0  0  0  0  0  0  0  0999 V2000
   17.3878   40.0443   63.9659 C   0  0  0  0  0  0  0  0  0  0  0  0
   23.6704   38.3911   66.8864 C   0  0  0  0  0  0  0  0  0  0  0  0
   29.7987   39.3175   66.2874 P   0  0  1  0  0  0  0  0  0  0  0  0
   19.4120   39.3342   65.0249 N   0  0  0  0  0  0  0  0  0  0  0  0
   30.4213   38.4220   65.2792 O   0  0  0  0  0  0  0  0  0  0  0  0
   25.7675   40.7092   64.3496 S   0  0  0  0  0  0  0  0  0  0  0  0
   24.3947   41.4354   64.9903 C   0  0  0  0  0  0  0  0  0  0  0  0
   18.6683   40.4031   64.5736 C   0  0  0  0  0  0  0  0  0  0  0  0
   29.9605   38.8582   67.6910 O   0  5  0  0  0  0  0  0  0  0  0  0
   23.6776   40.6744   65.8446 N   0  0  0  0  0  0  0  0  0  0  0  0
   19.0602   41.6463   64.6565 N   0  0  0  0  0  0  0  0  0  0  0  0
   30.2364   40.7337   66.0716 O   0  0  0  0  0  0  0  0  0  0  0  0
   24.2823   39.4241   65.9865 C   0  0  2  0  0  0  0  0  0  0  0  0
   20.2842   41.9526   65.2421 C   0  0  0  0  0  0  0  0  0  0  0  0
   20.6747   43.2224   65.3007 N   0  0  0  0  0  0  0  0  0  0  0  0
   25.4283   39.2526   65.2465 C   0  0  1  0  0  0  0  0  0  0  0  0
   21.1031   40.8775   65.7775 C   0  0  0  0  0  0  0  0  0  0  0  0
   26.2892   38.0439   65.1628 C   0  0  0  0  0  0  0  0  0  0  0  0
   20.6110   39.5997   65.6026 C   0  0  0  0  0  0  0  0  0  0  0  0
   27.4090   38.1109   66.1323 C   0  0  0  0  0  0  0  0  0  0  0  0
   22.3875   41.1643   66.5315 C   0  0  0  0  0  0  0  0  0  0  0  0
   28.2373   39.2732   66.0849 O   0  0  0  0  0  0  0  0  0  0  0  0
  1  8  1  0  0  0  0
  3  5  1  6  0  0  0
  3  9  1  0  0  0  0
  3 12  2  0  0  0  0
  3 22  1  0  0  0  0
  4  8  2  0  0  0  0
  4 19  1  0  0  0  0
  6 16  1  0  0  0  0
  6  7  1  0  0  0  0
  7 10  1  0  0  0  0
  8 11  1  0  0  0  0
 10 13  1  0  0  0  0
 10 21  1  0  0  0  0
 11 14  2  0  0  0  0
 13  2  1  6  0  0  0
 13 16  1  0  0  0  0
 14 15  1  0  0  0  0
 14 17  1  0  0  0  0
 16 18  1  6  0  0  0
 17 19  2  0  0  0  0
 17 21  1  0  0  0  0
 18 20  1  0  0  0  0
 20 22  1  0  0  0  0
M  CHG  1   9  -1
M  END
>  <CHROM.1>
90.60513057,86.79167285,-114.49590593,-53.93253027,-141.96368949,57.60149586
24.62327271,40.00221365,65.57222530,2.96038003,-0.08714279,-0.17186122

>  <Name>
ligand

>  <RI>
0

>  <Rbt.Current_Directory>
/home/itssahil/PROJECTS/Mol_Feturizer/New_Systems/rnas/2HOM

>  <Rbt.Executable>
rbdock ($Id: //depot/dev/client3/rdock/2013.1/src/exe/rbdock.cxx#4 $)

>  <Rbt.Library>
libRbt.so (2013.1, Build901 2013/11/27)

>  <Rbt.Parameter_File>
/export/apps/rDock/src/rDock_2013.1_src/data/scripts/dock_solv.prm

>  <Rbt.Receptor>
prm/pocket_docking_8.prm

>  <SCORE>
-20.4387

>  <SCORE.INTER>
-22.5595

>  <SCORE.INTER.CONST>
1

>  <SCORE.INTER.POLAR>
-1.63459

>  <SCORE.INTER.ROT>
6

>  <SCORE.INTER.SOLV>
17.2048

>  <SCORE.INTER.VDW>
-22.926

>  <SCORE.INTER.norm>
-1.02543

>  <SCORE.INTRA>
2.12079

>  <SCORE.INTRA.DIHEDRAL>
5.15412

>  <SCORE.INTRA.DIHEDRAL.0>
5.05013

>  <SCORE.INTRA.POLAR>
0

>  <SCORE.INTRA.POLAR.0>
0

>  <SCORE.INTRA.REPUL>
0

>  <SCORE.INTRA.REPUL.0>
0

>  <SCORE.INTRA.SOLV>
-0.066168

>  <SCORE.INTRA.SOLV.lig_0>
-54.1265

>  <SCORE.INTRA.VDW>
-0.423187

>  <SCORE.INTRA.VDW.0>
-2.1303

>  <SCORE.INTRA.norm>
0.0963995

>  <SCORE.RESTR>
0

>  <SCORE.RESTR.CAVITY>
0

>  <SCORE.RESTR.norm>
0

>  <SCORE.SYSTEM>
0

>  <SCORE.SYSTEM.CONST>
0

>  <SCORE.SYSTEM.DIHEDRAL>
0

>  <SCORE.SYSTEM.SOLV>
0

>  <SCORE.SYSTEM.norm>
0

>  <SCORE.heavy>
22

>  <SCORE.norm>
-0.929032

>  <RMSD>
1.810

$$$$
ligand
 OpenBabel11021811443D
libRbt.so/2013.1/901 2013/11/27
 22 23  0  0  0  0  0  0  0  0999 V2000
   17.3878   40.1616   63.8304 C   0  0  0  0  0  0  0  0  0  0  0  0
   23.5988   38.4878   67.1261 C   0  0  0  0  0  0  0  0  0  0  0  0
   29.4840   38.8626   66.0758 P   0  0  1  0  0  0  0  0  0  0  0  0
   19.3476   39.4306   64.9915 N   0  0  0  0  0  0  0  0  0  0  0  0
   30.3621   39.9128   66.6522 O   0  0  0  0  0  0  0  0  0  0  0  0
   25.7355   40.6140   64.4576 S   0  0  0  0  0  0  0  0  0  0  0  0
   24.3522   41.3837   65.0205 C   0  0  0  0  0  0  0  0  0  0  0  0
   18.6553   40.5039   64.4739 C   0  0  0  0  0  0  0  0  0  0  0  0
   29.0670   39.1210   64.6734 O   0  5  0  0  0  0  0  0  0  0  0  0
   23.6218   40.6873   65.9175 N   0  0  0  0  0  0  0  0  0  0  0  0
   19.0827   41.7370   64.5274 N   0  0  0  0  0  0  0  0  0  0  0  0
   30.0884   37.5067   66.2756 O   0  0  0  0  0  0  0  0  0  0  0  0
   24.2246   39.4520   66.1617 C   0  0  2  0  0  0  0  0  0  0  0  0
   20.2929   42.0278   65.1484 C   0  0  0  0  0  0  0  0  0  0  0  0
   20.7206   43.2866   65.1766 N   0  0  0  0  0  0  0  0  0  0  0  0
   25.3824   39.2276   65.4550 C   0  0  1  0  0  0  0  0  0  0  0  0
   21.0570   40.9491   65.7531 C   0  0  0  0  0  0  0  0  0  0  0  0
   26.2451   38.0175   65.4752 C   0  0  0  0  0  0  0  0  0  0  0  0
   20.5319   39.6811   65.6051 C   0  0  0  0  0  0  0  0  0  0  0  0
   27.0472   37.9475   66.7203 C   0  0  0  0  0  0  0  0  0  0  0  0
   22.3207   41.2249   66.5453 C   0  0  0  0  0  0  0  0  0  0  0  0
   28.1155   38.8855   66.8553 O   0  0  0  0  0  0  0  0  0  0  0  0
  1  8  1  0  0  0  0
  3  5  1  1  0  0  0
  3  9  1  0  0  0  0
  3 12  2  0  0  0  0
  3 22  1  0  0  0  0
  4  8  2  0  0  0  0
  4 19  1  0  0  0  0
  6 16  1  0  0  0  0
  6  7  1  0  0  0  0
  7 10  1  0  0  0  0
  8 11  1  0  0  0  0
 10 13  1  0  0  0  0
 10 21  1  0  0  0  0
 11 14  2  0  0  0  0
 13  2  1  6  0  0  0
 13 16  1  0  0  0  0
 14 15  1  0  0  0  0
 14 17  1  0  0  0  0
 16 18  1  6  0  0  0
 17 19  2  0  0  0  0
 17 21  1  0  0  0  0
 18 20  1  0  0  0  0
 20 22  1  0  0  0  0
M  CHG  1   9  -1
M  END
>  <CHROM.1>
87.24785782,105.70774167,-113.73709137,-71.44986470,-72.65582015,-172.70083856
24.49926773,39.88889050,65.57213152,2.89628453,-0.05361267,-0.27858286

>  <Name>
ligand

>  <RI>
0

>  <Rbt.Current_Directory>
/home/itssahil/PROJECTS/Mol_Feturizer/New_Systems/rnas/2HOM

>  <Rbt.Executable>
rbdock ($Id: //depot/dev/client3/rdock/2013.1/src/exe/rbdock.cxx#4 $)

>  <Rbt.Library>
libRbt.so (2013.1, Build901 2013/11/27)

>  <Rbt.Parameter_File>
/export/apps/rDock/src/rDock_2013.1_src/data/scripts/dock_solv.prm

>  <Rbt.Receptor>
prm/pocket_docking_4.prm

>  <SCORE>
-21.3225

>  <SCORE.INTER>
-22.259

>  <SCORE.INTER.CONST>
1

>  <SCORE.INTER.POLAR>
-1.63459

>  <SCORE.INTER.ROT>
6

>  <SCORE.INTER.SOLV>
16.2552

>  <SCORE.INTER.VDW>
-22.4091

>  <SCORE.INTER.norm>
-1.01177

>  <SCORE.INTRA>
0.936483

>  <SCORE.INTRA.DIHEDRAL>
0.970987

>  <SCORE.INTRA.DIHEDRAL.0>
5.05013

>  <SCORE.INTRA.POLAR>
0

>  <SCORE.INTRA.POLAR.0>
0

>  <SCORE.INTRA.REPUL>
0

>  <SCORE.INTRA.REPUL.0>
0

>  <SCORE.INTRA.SOLV>
1.9062

>  <SCORE.INTRA.SOLV.lig_0>
-54.1265

>  <SCORE.INTRA.VDW>
-0.502111

>  <SCORE.INTRA.VDW.0>
-2.1303

>  <SCORE.INTRA.norm>
0.0425674

>  <SCORE.RESTR>
0

>  <SCORE.RESTR.CAVITY>
0

>  <SCORE.RESTR.norm>
0

>  <SCORE.SYSTEM>
0

>  <SCORE.SYSTEM.CONST>
0

>  <SCORE.SYSTEM.DIHEDRAL>
0

>  <SCORE.SYSTEM.SOLV>
0

>  <SCORE.SYSTEM.norm>
0

>  <SCORE.heavy>
22

>  <SCORE.norm>
-0.969205

>  <RMSD>
1.819

$$$$
ligand
 OpenBabel11021811443D
libRbt.so/2013.1/901 2013/11/27
 22 23  0  0  0  0  0  0  0  0999 V2000
   17.1867   40.1708   63.7410 C   0  0  0  0  0  0  0  0  0  0  0  0
   25.2864   40.9592   66.8399 C   0  0  0  0  0  0  0  0  0  0  0  0
   29.9922   38.1100   65.3554 P   0  0  1  0  0  0  0  0  0  0  0  0
   19.1702   39.2502   64.7114 N   0  0  0  0  0  0  0  0  0  0  0  0
   31.1948   37.3631   64.9057 O   0  0  0  0  0  0  0  0  0  0  0  0
   24.2203   37.3294   65.4632 S   0  0  0  0  0  0  0  0  0  0  0  0
   22.9475   38.4103   65.6483 C   0  0  0  0  0  0  0  0  0  0  0  0
   18.4894   40.3973   64.3652 C   0  0  0  0  0  0  0  0  0  0  0  0
   29.8627   38.2221   66.8311 O   0  5  0  0  0  0  0  0  0  0  0  0
   23.2844   39.6342   66.1082 N   0  0  0  0  0  0  0  0  0  0  0  0
   18.9551   41.6028   64.5550 N   0  0  0  0  0  0  0  0  0  0  0  0
   29.8996   39.4277   64.6491 O   0  0  0  0  0  0  0  0  0  0  0  0
   24.6624   39.6963   66.3231 C   0  0  2  0  0  0  0  0  0  0  0  0
   20.1981   41.7824   65.1530 C   0  0  0  0  0  0  0  0  0  0  0  0
   20.6640   43.0165   65.3209 N   0  0  0  0  0  0  0  0  0  0  0  0
   25.3421   38.5367   66.0337 C   0  0  1  0  0  0  0  0  0  0  0  0
   20.9540   40.6171   65.5816 C   0  0  0  0  0  0  0  0  0  0  0  0
   26.7985   38.2730   66.1704 C   0  0  0  0  0  0  0  0  0  0  0  0
   20.3857   39.3915   65.2981 C   0  0  0  0  0  0  0  0  0  0  0  0
   27.3729   37.7503   64.9075 C   0  0  0  0  0  0  0  0  0  0  0  0
   22.2570   40.7587   66.3450 C   0  0  0  0  0  0  0  0  0  0  0  0
   28.7183   37.2738   64.9570 O   0  0  0  0  0  0  0  0  0  0  0  0
  1  8  1  0  0  0  0
  3  5  1  6  0  0  0
  3  9  1  0  0  0  0
  3 12  2  0  0  0  0
  3 22  1  0  0  0  0
  4  8  2  0  0  0  0
  4 19  1  0  0  0  0
  6 16  1  0  0  0  0
  6  7  1  0  0  0  0
  7 10  1  0  0  0  0
  8 11  1  0  0  0  0
 10 13  1  0  0  0  0
 10 21  1  0  0  0  0
 11 14  2  0  0  0  0
 13  2  1  1  0  0  0
 13 16  1  0  0  0  0
 14 15  1  0  0  0  0
 14 17  1  0  0  0  0
 16 18  1  1  0  0  0
 17 19  2  0  0  0  0
 17 21  1  0  0  0  0
 18 20  1  0  0  0  0
 20 22  1  0  0  0  0
M  CHG  1   9  -1
M  END
>  <CHROM.1>
-21.47730193,53.32653915,-149.28720797,-171.19883036,-60.04582560,-164.01423730
24.51581550,39.23169921,65.41461843,2.90420063,-0.11039602,0.22044048

>  <Name>
ligand

>  <RI>
0

>  <Rbt.Current_Directory>
/home/itssahil/PROJECTS/Mol_Feturizer/New_Systems/rnas/2HOM

>  <Rbt.Executable>
rbdock ($Id: //depot/dev/client3/rdock/2013.1/src/exe/rbdock.cxx#4 $)

>  <Rbt.Library>
libRbt.so (2013.1, Build901 2013/11/27)

>  <Rbt.Parameter_File>
/export/apps/rDock/src/rDock_2013.1_src/data/scripts/dock_solv.prm

>  <Rbt.Receptor>
prm/pocket_docking_3.prm

>  <SCORE>
-23.4265

>  <SCORE.INTER>
-25.9161

>  <SCORE.INTER.CONST>
1

>  <SCORE.INTER.POLAR>
-1.63459

>  <SCORE.INTER.ROT>
6

>  <SCORE.INTER.SOLV>
16.3961

>  <SCORE.INTER.VDW>
-24.8942

>  <SCORE.INTER.norm>
-1.178

>  <SCORE.INTRA>
2.48066

>  <SCORE.INTRA.DIHEDRAL>
0.615734

>  <SCORE.INTRA.DIHEDRAL.0>
5.05013

>  <SCORE.INTRA.POLAR>
0

>  <SCORE.INTRA.POLAR.0>
0

>  <SCORE.INTRA.REPUL>
0

>  <SCORE.INTRA.REPUL.0>
0

>  <SCORE.INTRA.SOLV>
1.84971

>  <SCORE.INTRA.SOLV.lig_0>
-54.1265

>  <SCORE.INTRA.VDW>
1.24794

>  <SCORE.INTRA.VDW.0>
-2.1303

>  <SCORE.INTRA.norm>
0.112757

>  <SCORE.RESTR>
0.00898176

>  <SCORE.RESTR.CAVITY>
0.00898176

>  <SCORE.RESTR.norm>
0.000408262

>  <SCORE.SYSTEM>
0

>  <SCORE.SYSTEM.CONST>
0

>  <SCORE.SYSTEM.DIHEDRAL>
0

>  <SCORE.SYSTEM.SOLV>
0

>  <SCORE.SYSTEM.norm>
0

>  <SCORE.heavy>
22

>  <SCORE.norm>
-1.06484

>  <RMSD>
1.828

$$$$
ligand
 OpenBabel11021811443D
libRbt.so/2013.1/901 2013/11/27
 22 23  0  0  0  0  0  0  0  0999 V2000
   17.3655   39.8790   63.9244 C   0  0  0  0  0  0  0  0  0  0  0  0
   23.5097   38.6780   66.9816 C   0  0  0  0  0  0  0  0  0  0  0  0
   29.4271   38.8473   66.0634 P   0  0  1  0  0  0  0  0  0  0  0  0
   19.4690   39.3527   64.9350 N   0  0  0  0  0  0  0  0  0  0  0  0
   30.3192   39.9024   66.6085 O   0  0  0  0  0  0  0  0  0  0  0  0
   25.7568   40.7396   64.3535 S   0  0  0  0  0  0  0  0  0  0  0  0
   24.3800   41.5448   64.8813 C   0  0  0  0  0  0  0  0  0  0  0  0
   18.6248   40.3507   64.4986 C   0  0  0  0  0  0  0  0  0  0  0  0
   29.0358   39.0547   64.6453 O   0  5  0  0  0  0  0  0  0  0  0  0
   23.6129   40.8704   65.7644 N   0  0  0  0  0  0  0  0  0  0  0  0
   18.9095   41.6236   64.5671 N   0  0  0  0  0  0  0  0  0  0  0  0
   29.9995   37.4888   66.3291 O   0  0  0  0  0  0  0  0  0  0  0  0
   24.1802   39.6222   66.0276 C   0  0  2  0  0  0  0  0  0  0  0  0
   20.1164   42.0379   65.1208 C   0  0  0  0  0  0  0  0  0  0  0  0
   20.3968   43.3370   65.1650 N   0  0  0  0  0  0  0  0  0  0  0  0
   25.3480   39.3669   65.3485 C   0  0  1  0  0  0  0  0  0  0  0  0
   21.0382   41.0408   65.6395 C   0  0  0  0  0  0  0  0  0  0  0  0
   26.1808   38.1366   65.3936 C   0  0  0  0  0  0  0  0  0  0  0  0
   20.6544   39.7242   65.4816 C   0  0  0  0  0  0  0  0  0  0  0  0
   26.9398   38.0451   66.6639 C   0  0  0  0  0  0  0  0  0  0  0  0
   22.3111   41.4419   66.3600 C   0  0  0  0  0  0  0  0  0  0  0  0
   28.0485   38.9315   66.8205 O   0  0  0  0  0  0  0  0  0  0  0  0
  1  8  1  0  0  0  0
  3  5  1  1  0  0  0
  3  9  1  0  0  0  0
  3 12  2  0  0  0  0
  3 22  1  0  0  0  0
  4  8  2  0  0  0  0
  4 19  1  0  0  0  0
  6 16  1  0  0  0  0
  6  7  1  0  0  0  0
  7 10  1  0  0  0  0
  8 11  1  0  0  0  0
 10 13  1  0  0  0  0
 10 21  1  0  0  0  0
 11 14  2  0  0  0  0
 13  2  1  6  0  0  0
 13 16  1  0  0  0  0
 14 15  1  0  0  0  0
 14 17  1  0  0  0  0
 16 18  1  6  0  0  0
 17 19  2  0  0  0  0
 17 21  1  0  0  0  0
 18 20  1  0  0  0  0
 20 22  1  0  0  0  0
M  CHG  1   9  -1
M  END
>  <CHROM.1>
94.88001104,106.40184669,-123.81952353,-73.17277425,-71.35153410,-175.72388616
24.45147714,39.92901521,65.51361545,2.90468256,-0.06613031,-0.22510701

>  <Name>
ligand

>  <RI>
0

>  <Rbt.Current_Directory>
/home/itssahil/PROJECTS/Mol_Feturizer/New_Systems/rnas/2HOM

>  <Rbt.Executable>
rbdock ($Id: //depot/dev/client3/rdock/2013.1/src/exe/rbdock.cxx#4 $)

>  <Rbt.Library>
libRbt.so (2013.1, Build901 2013/11/27)

>  <Rbt.Parameter_File>
/export/apps/rDock/src/rDock_2013.1_src/data/scripts/dock_solv.prm

>  <Rbt.Receptor>
prm/pocket_docking_7.prm

>  <SCORE>
-21.4446

>  <SCORE.INTER>
-22.4019

>  <SCORE.INTER.CONST>
1

>  <SCORE.INTER.POLAR>
-1.63459

>  <SCORE.INTER.ROT>
6

>  <SCORE.INTER.SOLV>
17.2576

>  <SCORE.INTER.VDW>
-22.8385

>  <SCORE.INTER.norm>
-1.01827

>  <SCORE.INTRA>
0.957302

>  <SCORE.INTRA.DIHEDRAL>
0.85654

>  <SCORE.INTRA.DIHEDRAL.0>
5.05013

>  <SCORE.INTRA.POLAR>
0

>  <SCORE.INTRA.POLAR.0>
0

>  <SCORE.INTRA.REPUL>
0

>  <SCORE.INTRA.REPUL.0>
0

>  <SCORE.INTRA.SOLV>
1.87261

>  <SCORE.INTRA.SOLV.lig_0>
-54.1265

>  <SCORE.INTRA.VDW>
-0.407274

>  <SCORE.INTRA.VDW.0>
-2.1303

>  <SCORE.INTRA.norm>
0.0435137

>  <SCORE.RESTR>
0

>  <SCORE.RESTR.CAVITY>
0

>  <SCORE.RESTR.norm>
0

>  <SCORE.SYSTEM>
0

>  <SCORE.SYSTEM.CONST>
0

>  <SCORE.SYSTEM.DIHEDRAL>
0

>  <SCORE.SYSTEM.SOLV>
0

>  <SCORE.SYSTEM.norm>
0

>  <SCORE.heavy>
22

>  <SCORE.norm>
-0.974753

>  <RMSD>
1.829

$$$$
ligand
 OpenBabel11021811443D
libRbt.so/2013.1/901 2013/11/27
 22 23  0  0  0  0  0  0  0  0999 V2000
   17.2621   39.9796   63.7579 C   0  0  0  0  0  0  0  0  0  0  0  0
   23.7465   40.5934   64.4508 C   0  0  0  0  0  0  0  0  0  0  0  0
   29.7005   38.4474   65.6425 P   0  0  1  0  0  0  0  0  0  0  0  0
   18.8725   41.6180   64.4255 N   0  0  0  0  0  0  0  0  0  0  0  0
   29.9273   39.5596   66.6005 O   0  0  0  0  0  0  0  0  0  0  0  0
   24.4315   38.6172   67.8906 S   0  0  0  0  0  0  0  0  0  0  0  0
   23.2219   39.7799   67.9793 C   0  0  0  0  0  0  0  0  0  0  0  0
   18.4266   40.3223   64.5731 C   0  0  0  0  0  0  0  0  0  0  0  0
   30.4289   38.5948   64.3561 O   0  5  0  0  0  0  0  0  0  0  0  0
   22.9760   40.4536   66.8353 N   0  0  0  0  0  0  0  0  0  0  0  0
   18.9735   39.4543   65.3814 N   0  0  0  0  0  0  0  0  0  0  0  0
   29.9333   37.1263   66.3091 O   0  0  0  0  0  0  0  0  0  0  0  0
   23.8236   39.9957   65.8249 C   0  0  2  0  0  0  0  0  0  0  0  0
   20.0815   39.8134   66.1418 C   0  0  0  0  0  0  0  0  0  0  0  0
   20.6133   38.9220   66.9730 N   0  0  0  0  0  0  0  0  0  0  0  0
   24.6913   39.0009   66.2093 C   0  0  1  0  0  0  0  0  0  0  0  0
   20.6312   41.1522   66.0060 C   0  0  0  0  0  0  0  0  0  0  0  0
   25.7229   38.3193   65.3845 C   0  0  0  0  0  0  0  0  0  0  0  0
   19.9529   41.9993   65.1529 C   0  0  0  0  0  0  0  0  0  0  0  0
   27.0507   38.3551   66.0433 C   0  0  0  0  0  0  0  0  0  0  0  0
   21.9067   41.5577   66.7196 C   0  0  0  0  0  0  0  0  0  0  0  0
   28.1911   38.4867   65.1940 O   0  0  0  0  0  0  0  0  0  0  0  0
  1  8  1  0  0  0  0
  3  5  1  1  0  0  0
  3  9  1  0  0  0  0
  3 12  2  0  0  0  0
  3 22  1  0  0  0  0
  4  8  2  0  0  0  0
  4 19  1  0  0  0  0
  6 16  1  0  0  0  0
  6  7  1  0  0  0  0
  7 10  1  0  0  0  0
  8 11  1  0  0  0  0
 10 13  1  0  0  0  0
 10 21  1  0  0  0  0
 11 14  2  0  0  0  0
 13  2  1  1  0  0  0
 13 16  1  0  0  0  0
 14 15  1  0  0  0  0
 14 17  1  0  0  0  0
 16 18  1  1  0  0  0
 17 19  2  0  0  0  0
 17 21  1  0  0  0  0
 18 20  1  0  0  0  0
 20 22  1  0  0  0  0
M  CHG  1   9  -1
M  END
>  <CHROM.1>
-104.12369102,-51.84348000,35.75381048,-144.64604172,-175.42769329,-60.42803505
24.21316056,39.47754528,65.89158772,-3.04052390,-0.18880986,1.84460570

>  <Name>
ligand

>  <RI>
0

>  <Rbt.Current_Directory>
/home/itssahil/PROJECTS/Mol_Feturizer/New_Systems/rnas/2HOM

>  <Rbt.Executable>
rbdock ($Id: //depot/dev/client3/rdock/2013.1/src/exe/rbdock.cxx#4 $)

>  <Rbt.Library>
libRbt.so (2013.1, Build901 2013/11/27)

>  <Rbt.Parameter_File>
/export/apps/rDock/src/rDock_2013.1_src/data/scripts/dock_solv.prm

>  <Rbt.Receptor>
prm/pocket_docking_3.prm

>  <SCORE>
-20.6534

>  <SCORE.INTER>
-23.7667

>  <SCORE.INTER.CONST>
1

>  <SCORE.INTER.POLAR>
-1.63459

>  <SCORE.INTER.ROT>
6

>  <SCORE.INTER.SOLV>
17.5939

>  <SCORE.INTER.VDW>
-23.8605

>  <SCORE.INTER.norm>
-1.0803

>  <SCORE.INTRA>
3.1133

>  <SCORE.INTRA.DIHEDRAL>
3.83694

>  <SCORE.INTRA.DIHEDRAL.0>
5.05013

>  <SCORE.INTRA.POLAR>
0

>  <SCORE.INTRA.POLAR.0>
0

>  <SCORE.INTRA.REPUL>
0

>  <SCORE.INTRA.REPUL.0>
0

>  <SCORE.INTRA.SOLV>
2.69245

>  <SCORE.INTRA.SOLV.lig_0>
-54.1265

>  <SCORE.INTRA.VDW>
-0.15139

>  <SCORE.INTRA.VDW.0>
-2.1303

>  <SCORE.INTRA.norm>
0.141514

>  <SCORE.RESTR>
9.61065e-06

>  <SCORE.RESTR.CAVITY>
9.61065e-06

>  <SCORE.RESTR.norm>
4.36848e-07

>  <SCORE.SYSTEM>
0

>  <SCORE.SYSTEM.CONST>
0

>  <SCORE.SYSTEM.DIHEDRAL>
0

>  <SCORE.SYSTEM.SOLV>
0

>  <SCORE.SYSTEM.norm>
0

>  <SCORE.heavy>
22

>  <SCORE.norm>
-0.93879

>  <RMSD>
1.830

$$$$
ligand
 OpenBabel11021811443D
libRbt.so/2013.1/901 2013/11/27
 22 23  0  0  0  0  0  0  0  0999 V2000
   17.2125   40.0724   63.8052 C   0  0  0  0  0  0  0  0  0  0  0  0
   23.1688   38.1182   66.5981 C   0  0  0  0  0  0  0  0  0  0  0  0
   29.5180   39.0315   66.0323 P   0  0  1  0  0  0  0  0  0  0  0  0
   19.1479   39.2996   64.9801 N   0  0  0  0  0  0  0  0  0  0  0  0
   29.9685   39.6143   64.7425 O   0  0  0  0  0  0  0  0  0  0  0  0
   25.6671   40.5141   64.5427 S   0  0  0  0  0  0  0  0  0  0  0  0
   24.3147   41.2870   65.1724 C   0  0  0  0  0  0  0  0  0  0  0  0
   18.4884   40.3859   64.4469 C   0  0  0  0  0  0  0  0  0  0  0  0
   30.0981   37.6970   66.3322 O   0  5  0  0  0  0  0  0  0  0  0  0
   23.4644   40.5006   65.8664 N   0  0  0  0  0  0  0  0  0  0  0  0
   18.9516   41.6065   64.4851 N   0  0  0  0  0  0  0  0  0  0  0  0
   29.6952   40.0197   67.1439 O   0  0  0  0  0  0  0  0  0  0  0  0
   23.9425   39.1891   65.8870 C   0  0  2  0  0  0  0  0  0  0  0  0
   20.1688   41.8699   65.1049 C   0  0  0  0  0  0  0  0  0  0  0  0
   20.6332   43.1158   65.1175 N   0  0  0  0  0  0  0  0  0  0  0  0
   25.1269   38.9985   65.2153 C   0  0  1  0  0  0  0  0  0  0  0  0
   20.8997   40.7773   65.7254 C   0  0  0  0  0  0  0  0  0  0  0  0
   25.8820   37.7307   65.0367 C   0  0  0  0  0  0  0  0  0  0  0  0
   20.3379   39.5234   65.5930 C   0  0  0  0  0  0  0  0  0  0  0  0
   27.3342   37.9853   64.8803 C   0  0  0  0  0  0  0  0  0  0  0  0
   22.1695   41.0263   66.5168 C   0  0  0  0  0  0  0  0  0  0  0  0
   27.9774   38.7236   65.9198 O   0  0  0  0  0  0  0  0  0  0  0  0
  1  8  1  0  0  0  0
  3  5  1  6  0  0  0
  3  9  1  0  0  0  0
  3 12  2  0  0  0  0
  3 22  1  0  0  0  0
  4  8  2  0  0  0  0
  4 19  1  0  0  0  0
  6 16  1  0  0  0  0
  6  7  1  0  0  0  0
  7 10  1  0  0  0  0
  8 11  1  0  0  0  0
 10 13  1  0  0  0  0
 10 21  1  0  0  0  0
 11 14  2  0  0  0  0
 13  2  1  6  0  0  0
 13 16  1  0  0  0  0
 14 15  1  0  0  0  0
 14 17  1  0  0  0  0
 16 18  1  6  0  0  0
 17 19  2  0  0  0  0
 17 21  1  0  0  0  0
 18 20  1  0  0  0  0
 20 22  1  0  0  0  0
M  CHG  1   9  -1
M  END
>  <CHROM.1>
99.19432533,28.70512245,-110.97454318,55.98891149,175.39591335,51.36915355
24.39783427,39.81785025,65.41780852,2.95187679,-0.08757186,-0.04971349

>  <Name>
ligand

>  <RI>
0

>  <Rbt.Current_Directory>
/home/itssahil/PROJECTS/Mol_Feturizer/New_Systems/rnas/2HOM

>  <Rbt.Executable>
rbdock ($Id: //depot/dev/client3/rdock/2013.1/src/exe/rbdock.cxx#4 $)

>  <Rbt.Library>
libRbt.so (2013.1, Build901 2013/11/27)

>  <Rbt.Parameter_File>
/export/apps/rDock/src/rDock_2013.1_src/data/scripts/dock_solv.prm

>  <Rbt.Receptor>
prm/pocket_docking_6.prm

>  <SCORE>
-22.5052

>  <SCORE.INTER>
-23.0068

>  <SCORE.INTER.CONST>
1

>  <SCORE.INTER.POLAR>
-1.63459

>  <SCORE.INTER.ROT>
6

>  <SCORE.INTER.SOLV>
17.8839

>  <SCORE.INTER.VDW>
-23.4505

>  <SCORE.INTER.norm>
-1.04576

>  <SCORE.INTRA>
0.501571

>  <SCORE.INTRA.DIHEDRAL>
0.116698

>  <SCORE.INTRA.DIHEDRAL.0>
5.05013

>  <SCORE.INTRA.POLAR>
0

>  <SCORE.INTRA.POLAR.0>
0

>  <SCORE.INTRA.REPUL>
0

>  <SCORE.INTRA.REPUL.0>
0

>  <SCORE.INTRA.SOLV>
-0.0158956

>  <SCORE.INTRA.SOLV.lig_0>
-54.1265

>  <SCORE.INTRA.VDW>
0.45117

>  <SCORE.INTRA.VDW.0>
-2.1303

>  <SCORE.INTRA.norm>
0.0227987

>  <SCORE.RESTR>
0

>  <SCORE.RESTR.CAVITY>
0

>  <SCORE.RESTR.norm>
0

>  <SCORE.SYSTEM>
0

>  <SCORE.SYSTEM.CONST>
0

>  <SCORE.SYSTEM.DIHEDRAL>
0

>  <SCORE.SYSTEM.SOLV>
0

>  <SCORE.SYSTEM.norm>
0

>  <SCORE.heavy>
22

>  <SCORE.norm>
-1.02296

>  <RMSD>
1.830

$$$$
ligand
 OpenBabel11021811443D
libRbt.so/2013.1/901 2013/11/27
 22 23  0  0  0  0  0  0  0  0999 V2000
   17.3857   39.8457   63.9186 C   0  0  0  0  0  0  0  0  0  0  0  0
   23.8940   38.9628   67.1115 C   0  0  0  0  0  0  0  0  0  0  0  0
   28.8926   39.9727   68.3834 P   0  0  1  0  0  0  0  0  0  0  0  0
   19.4549   39.3468   65.0106 N   0  0  0  0  0  0  0  0  0  0  0  0
   29.4097   41.3022   67.9699 O   0  0  0  0  0  0  0  0  0  0  0  0
   25.5952   41.3577   64.3589 S   0  0  0  0  0  0  0  0  0  0  0  0
   24.1325   41.9176   64.9669 C   0  0  0  0  0  0  0  0  0  0  0  0
   18.6125   40.3339   64.5467 C   0  0  0  0  0  0  0  0  0  0  0  0
   29.8454   38.8542   68.1630 O   0  5  0  0  0  0  0  0  0  0  0  0
   23.5460   41.1289   65.8926 N   0  0  0  0  0  0  0  0  0  0  0  0
   18.8728   41.6108   64.6351 N   0  0  0  0  0  0  0  0  0  0  0  0
   28.3574   40.0304   69.7813 O   0  0  0  0  0  0  0  0  0  0  0  0
   24.3349   40.0000   66.1210 C   0  0  2  0  0  0  0  0  0  0  0  0
   20.0491   42.0409   65.2401 C   0  0  0  0  0  0  0  0  0  0  0  0
   20.3057   43.3441   65.3042 N   0  0  0  0  0  0  0  0  0  0  0  0
   25.4882   39.9441   65.3746 C   0  0  1  0  0  0  0  0  0  0  0  0
   20.9657   41.0554   65.7893 C   0  0  0  0  0  0  0  0  0  0  0  0
   26.5225   38.8767   65.3698 C   0  0  0  0  0  0  0  0  0  0  0  0
   20.6107   39.7338   65.6073 C   0  0  0  0  0  0  0  0  0  0  0  0
   27.7675   39.3289   66.0360 C   0  0  0  0  0  0  0  0  0  0  0  0
   22.2014   41.4722   66.5637 C   0  0  0  0  0  0  0  0  0  0  0  0
   27.6911   39.5977   67.4365 O   0  0  0  0  0  0  0  0  0  0  0  0
  1  8  1  0  0  0  0
  3  5  1  6  0  0  0
  3  9  1  0  0  0  0
  3 12  2  0  0  0  0
  3 22  1  0  0  0  0
  4  8  2  0  0  0  0
  4 19  1  0  0  0  0
  6 16  1  0  0  0  0
  6  7  1  0  0  0  0
  7 10  1  0  0  0  0
  8 11  1  0  0  0  0
 10 13  1  0  0  0  0
 10 21  1  0  0  0  0
 11 14  2  0  0  0  0
 13  2  1  6  0  0  0
 13 16  1  0  0  0  0
 14 15  1  0  0  0  0
 14 17  1  0  0  0  0
 16 18  1  6  0  0  0
 17 19  2  0  0  0  0
 17 21  1  0  0  0  0
 18 20  1  0  0  0  0
 20 22  1  0  0  0  0
M  CHG  1   9  -1
M  END
>  <CHROM.1>
84.74405214,72.77394748,-114.01589374,65.79488975,174.66457660,66.25658199
24.33626538,40.45162325,66.17474002,2.86384088,-0.17947678,-0.68182334

>  <Name>
ligand

>  <RI>
0

>  <Rbt.Current_Directory>
/home/itssahil/PROJECTS/Mol_Feturizer/New_Systems/rnas/2HOM

>  <Rbt.Executable>
rbdock ($Id: //depot/dev/client3/rdock/2013.1/src/exe/rbdock.cxx#4 $)

>  <Rbt.Library>
libRbt.so (2013.1, Build901 2013/11/27)

>  <Rbt.Parameter_File>
/export/apps/rDock/src/rDock_2013.1_src/data/scripts/dock_solv.prm

>  <Rbt.Receptor>
prm/pocket_docking_3.prm

>  <SCORE>
-22.6784

>  <SCORE.INTER>
-22.6165

>  <SCORE.INTER.CONST>
1

>  <SCORE.INTER.POLAR>
-2.56527

>  <SCORE.INTER.ROT>
6

>  <SCORE.INTER.SOLV>
20.8838

>  <SCORE.INTER.VDW>
-21.088

>  <SCORE.INTER.norm>
-1.02802

>  <SCORE.INTRA>
-0.0696571

>  <SCORE.INTRA.DIHEDRAL>
0.423636

>  <SCORE.INTRA.DIHEDRAL.0>
5.05013

>  <SCORE.INTRA.POLAR>
0

>  <SCORE.INTRA.POLAR.0>
0

>  <SCORE.INTRA.REPUL>
0

>  <SCORE.INTRA.REPUL.0>
0

>  <SCORE.INTRA.SOLV>
0.0225586

>  <SCORE.INTRA.SOLV.lig_0>
-54.1265

>  <SCORE.INTRA.VDW>
-0.292754

>  <SCORE.INTRA.VDW.0>
-2.1303

>  <SCORE.INTRA.norm>
-0.00316623

>  <SCORE.RESTR>
0.00775485

>  <SCORE.RESTR.CAVITY>
0.00775485

>  <SCORE.RESTR.norm>
0.000352493

>  <SCORE.SYSTEM>
0

>  <SCORE.SYSTEM.CONST>
0

>  <SCORE.SYSTEM.DIHEDRAL>
0

>  <SCORE.SYSTEM.SOLV>
0

>  <SCORE.SYSTEM.norm>
0

>  <SCORE.heavy>
22

>  <SCORE.norm>
-1.03084

>  <RMSD>
1.842

$$$$
ligand
 OpenBabel11021811443D
libRbt.so/2013.1/901 2013/11/27
 22 23  0  0  0  0  0  0  0  0999 V2000
   17.3018   40.1259   63.9021 C   0  0  0  0  0  0  0  0  0  0  0  0
   25.1670   41.4484   66.5620 C   0  0  0  0  0  0  0  0  0  0  0  0
   29.1233   36.8257   65.6955 P   0  0  1  0  0  0  0  0  0  0  0  0
   19.1656   39.3996   65.2145 N   0  0  0  0  0  0  0  0  0  0  0  0
   30.5609   37.0510   65.9935 O   0  0  0  0  0  0  0  0  0  0  0  0
   24.0360   37.6367   67.1930 S   0  0  0  0  0  0  0  0  0  0  0  0
   22.7718   38.7413   67.1284 C   0  0  0  0  0  0  0  0  0  0  0  0
   18.5440   40.4628   64.5960 C   0  0  0  0  0  0  0  0  0  0  0  0
   28.8756   35.9722   64.5050 O   0  5  0  0  0  0  0  0  0  0  0  0
   23.1302   40.0257   66.9164 N   0  0  0  0  0  0  0  0  0  0  0  0
   19.0141   41.6814   64.6014 N   0  0  0  0  0  0  0  0  0  0  0  0
   28.4011   36.3588   66.9219 O   0  0  0  0  0  0  0  0  0  0  0  0
   24.5184   40.1165   66.7994 C   0  0  2  0  0  0  0  0  0  0  0  0
   20.1984   41.9675   65.2726 C   0  0  0  0  0  0  0  0  0  0  0  0
   20.6712   43.2102   65.2513 N   0  0  0  0  0  0  0  0  0  0  0  0
   25.1854   38.9211   66.9273 C   0  0  1  0  0  0  0  0  0  0  0  0
   20.8866   40.9018   65.9824 C   0  0  0  0  0  0  0  0  0  0  0  0
   26.6514   38.6825   66.8715 C   0  0  0  0  0  0  0  0  0  0  0  0
   20.3228   39.6460   65.8793 C   0  0  0  0  0  0  0  0  0  0  0  0
   27.1331   38.6088   65.4712 C   0  0  0  0  0  0  0  0  0  0  0  0
   22.1141   41.1815   66.8282 C   0  0  0  0  0  0  0  0  0  0  0  0
   28.4882   38.2039   65.2735 O   0  0  0  0  0  0  0  0  0  0  0  0
  1  8  1  0  0  0  0
  3  5  1  1  0  0  0
  3  9  1  0  0  0  0
  3 12  2  0  0  0  0
  3 22  1  0  0  0  0
  4  8  2  0  0  0  0
  4 19  1  0  0  0  0
  6 16  1  0  0  0  0
  6  7  1  0  0  0  0
  7 10  1  0  0  0  0
  8 11  1  0  0  0  0
 10 13  1  0  0  0  0
 10 21  1  0  0  0  0
 11 14  2  0  0  0  0
 13  2  1  1  0  0  0
 13 16  1  0  0  0  0
 14 15  1  0  0  0  0
 14 17  1  0  0  0  0
 16 18  1  1  0  0  0
 17 19  2  0  0  0  0
 17 21  1  0  0  0  0
 18 20  1  0  0  0  0
 20 22  1  0  0  0  0
M  CHG  1   9  -1
M  END
>  <CHROM.1>
-44.85257794,99.21864745,-149.81829589,-171.76215130,61.02280033,-150.08174659
24.21566701,39.11312506,65.94115258,2.76889216,-0.13899501,0.16551553

>  <Name>
ligand

>  <RI>
0

>  <Rbt.Current_Directory>
/home/itssahil/PROJECTS/Mol_Feturizer/New_Systems/rnas/2HOM

>  <Rbt.Executable>
rbdock ($Id: //depot/dev/client3/rdock/2013.1/src/exe/rbdock.cxx#4 $)

>  <Rbt.Library>
libRbt.so (2013.1, Build901 2013/11/27)

>  <Rbt.Parameter_File>
/export/apps/rDock/src/rDock_2013.1_src/data/scripts/dock_solv.prm

>  <Rbt.Receptor>
prm/pocket_docking_6.prm

>  <SCORE>
-20.9842

>  <SCORE.INTER>
-23.0572

>  <SCORE.INTER.CONST>
1

>  <SCORE.INTER.POLAR>
-1.27603

>  <SCORE.INTER.ROT>
6

>  <SCORE.INTER.SOLV>
17.3954

>  <SCORE.INTER.VDW>
-24.5165

>  <SCORE.INTER.norm>
-1.04805

>  <SCORE.INTRA>
2.07303

>  <SCORE.INTRA.DIHEDRAL>
0.994488

>  <SCORE.INTRA.DIHEDRAL.0>
5.05013

>  <SCORE.INTRA.POLAR>
0

>  <SCORE.INTRA.POLAR.0>
0

>  <SCORE.INTRA.REPUL>
0

>  <SCORE.INTRA.REPUL.0>
0

>  <SCORE.INTRA.SOLV>
1.63758

>  <SCORE.INTRA.SOLV.lig_0>
-54.1265

>  <SCORE.INTRA.VDW>
0.757

>  <SCORE.INTRA.VDW.0>
-2.1303

>  <SCORE.INTRA.norm>
0.0942288

>  <SCORE.RESTR>
0

>  <SCORE.RESTR.CAVITY>
0

>  <SCORE.RESTR.norm>
0

>  <SCORE.SYSTEM>
0

>  <SCORE.SYSTEM.CONST>
0

>  <SCORE.SYSTEM.DIHEDRAL>
0

>  <SCORE.SYSTEM.SOLV>
0

>  <SCORE.SYSTEM.norm>
0

>  <SCORE.heavy>
22

>  <SCORE.norm>
-0.953826

>  <RMSD>
1.848

$$$$
ligand
 OpenBabel11021811443D
libRbt.so/2013.1/901 2013/11/27
 22 23  0  0  0  0  0  0  0  0999 V2000
   16.9053   39.5001   63.9840 C   0  0  0  0  0  0  0  0  0  0  0  0
   24.7142   41.3286   67.3374 C   0  0  0  0  0  0  0  0  0  0  0  0
   28.6260   37.7618   65.6504 P   0  0  1  0  0  0  0  0  0  0  0  0
   19.1919   38.9750   64.4518 N   0  0  0  0  0  0  0  0  0  0  0  0
   29.0207   39.1379   65.2544 O   0  0  0  0  0  0  0  0  0  0  0  0
   23.6409   37.4706   66.9239 S   0  0  0  0  0  0  0  0  0  0  0  0
   22.6389   38.5651   66.1360 C   0  0  0  0  0  0  0  0  0  0  0  0
   18.2374   39.9655   64.3670 C   0  0  0  0  0  0  0  0  0  0  0  0
   28.2087   36.8986   64.5155 O   0  5  0  0  0  0  0  0  0  0  0  0
   22.9825   39.8648   66.2615 N   0  0  0  0  0  0  0  0  0  0  0  0
   18.4808   41.2290   64.5912 N   0  0  0  0  0  0  0  0  0  0  0  0
   29.6829   37.1412   66.5115 O   0  0  0  0  0  0  0  0  0  0  0  0
   24.1313   39.9769   67.0469 C   0  0  2  0  0  0  0  0  0  0  0  0
   19.7598   41.6374   64.9551 C   0  0  0  0  0  0  0  0  0  0  0  0
   19.9930   42.9303   65.1610 N   0  0  0  0  0  0  0  0  0  0  0  0
   24.6337   38.7816   67.5044 C   0  0  1  0  0  0  0  0  0  0  0  0
   20.8072   40.6404   65.1040 C   0  0  0  0  0  0  0  0  0  0  0  0
   25.8221   38.5615   68.3695 C   0  0  0  0  0  0  0  0  0  0  0  0
   20.4499   39.3408   64.8059 C   0  0  0  0  0  0  0  0  0  0  0  0
   27.0829   38.7443   67.6109 C   0  0  0  0  0  0  0  0  0  0  0  0
   22.1859   41.0144   65.6136 C   0  0  0  0  0  0  0  0  0  0  0  0
   27.3132   37.8579   66.5152 O   0  0  0  0  0  0  0  0  0  0  0  0
  1  8  1  0  0  0  0
  3  5  1  6  0  0  0
  3  9  1  0  0  0  0
  3 12  2  0  0  0  0
  3 22  1  0  0  0  0
  4  8  2  0  0  0  0
  4 19  1  0  0  0  0
  6 16  1  0  0  0  0
  6  7  1  0  0  0  0
  7 10  1  0  0  0  0
  8 11  1  0  0  0  0
 10 13  1  0  0  0  0
 10 21  1  0  0  0  0
 11 14  2  0  0  0  0
 13  2  1  1  0  0  0
 13 16  1  0  0  0  0
 14 15  1  0  0  0  0
 14 17  1  0  0  0  0
 16 18  1  1  0  0  0
 17 19  2  0  0  0  0
 17 21  1  0  0  0  0
 18 20  1  0  0  0  0
 20 22  1  0  0  0  0
M  CHG  1   9  -1
M  END
>  <CHROM.1>
14.17807981,105.57621719,155.86875797,-61.94327645,-173.78855946,-47.92836905
23.84520982,39.18634565,65.89757171,2.93160004,-0.23808793,0.33278225

>  <Name>
ligand

>  <RI>
0

>  <Rbt.Current_Directory>
/home/itssahil/PROJECTS/Mol_Feturizer/New_Systems/rnas/2HOM

>  <Rbt.Executable>
rbdock ($Id: //depot/dev/client3/rdock/2013.1/src/exe/rbdock.cxx#4 $)

>  <Rbt.Library>
libRbt.so (2013.1, Build901 2013/11/27)

>  <Rbt.Parameter_File>
/export/apps/rDock/src/rDock_2013.1_src/data/scripts/dock_solv.prm

>  <Rbt.Receptor>
prm/pocket_docking_3.prm

>  <SCORE>
-21.458

>  <SCORE.INTER>
-22.6092

>  <SCORE.INTER.CONST>
1

>  <SCORE.INTER.POLAR>
-1.63459

>  <SCORE.INTER.ROT>
6

>  <SCORE.INTER.SOLV>
19.2557

>  <SCORE.INTER.VDW>
-23.6427

>  <SCORE.INTER.norm>
-1.02769

>  <SCORE.INTRA>
1.14977

>  <SCORE.INTRA.DIHEDRAL>
0.13894

>  <SCORE.INTRA.DIHEDRAL.0>
5.05013

>  <SCORE.INTRA.POLAR>
0

>  <SCORE.INTRA.POLAR.0>
0

>  <SCORE.INTRA.REPUL>
0

>  <SCORE.INTRA.REPUL.0>
0

>  <SCORE.INTRA.SOLV>
-0.129386

>  <SCORE.INTRA.SOLV.lig_0>
-54.1265

>  <SCORE.INTRA.VDW>
1.145

>  <SCORE.INTRA.VDW.0>
-2.1303

>  <SCORE.INTRA.norm>
0.0522624

>  <SCORE.RESTR>
0.00141966

>  <SCORE.RESTR.CAVITY>
0.00141966

>  <SCORE.RESTR.norm>
6.45299e-05

>  <SCORE.SYSTEM>
0

>  <SCORE.SYSTEM.CONST>
0

>  <SCORE.SYSTEM.DIHEDRAL>
0

>  <SCORE.SYSTEM.SOLV>
0

>  <SCORE.SYSTEM.norm>
0

>  <SCORE.heavy>
22

>  <SCORE.norm>
-0.975363

>  <RMSD>
1.855

$$$$
ligand
 OpenBabel11021811443D
libRbt.so/2013.1/901 2013/11/27
 22 23  0  0  0  0  0  0  0  0999 V2000
   17.2050   40.0329   63.7746 C   0  0  0  0  0  0  0  0  0  0  0  0
   24.3924   41.9187   64.9670 C   0  0  0  0  0  0  0  0  0  0  0  0
   28.5316   37.5237   66.3942 P   0  0  1  0  0  0  0  0  0  0  0  0
   19.0783   39.2684   65.0511 N   0  0  0  0  0  0  0  0  0  0  0  0
   28.0200   36.6850   67.5082 O   0  0  0  0  0  0  0  0  0  0  0  0
   24.8568   38.1395   66.2742 S   0  0  0  0  0  0  0  0  0  0  0  0
   23.4393   38.8865   66.7794 C   0  0  0  0  0  0  0  0  0  0  0  0
   18.4496   40.3501   64.4734 C   0  0  0  0  0  0  0  0  0  0  0  0
   30.0042   37.7196   66.4072 O   0  5  0  0  0  0  0  0  0  0  0  0
   23.2640   40.1548   66.3506 N   0  0  0  0  0  0  0  0  0  0  0  0
   18.9153   41.5696   64.5188 N   0  0  0  0  0  0  0  0  0  0  0  0
   28.0101   37.0256   65.0813 O   0  0  0  0  0  0  0  0  0  0  0  0
   24.3496   40.5423   65.5629 C   0  0  2  0  0  0  0  0  0  0  0  0
   20.1022   41.8365   65.1934 C   0  0  0  0  0  0  0  0  0  0  0  0
   20.5704   43.0810   65.2130 N   0  0  0  0  0  0  0  0  0  0  0  0
   25.3213   39.5817   65.4106 C   0  0  1  0  0  0  0  0  0  0  0  0
   20.7979   40.7494   65.8620 C   0  0  0  0  0  0  0  0  0  0  0  0
   26.5974   39.6847   64.6555 C   0  0  0  0  0  0  0  0  0  0  0  0
   20.2382   39.4958   65.7180 C   0  0  0  0  0  0  0  0  0  0  0  0
   27.7409   39.9471   65.5620 C   0  0  0  0  0  0  0  0  0  0  0  0
   22.0290   41.0040   66.7106 C   0  0  0  0  0  0  0  0  0  0  0  0
   27.9843   38.9875   66.5912 O   0  0  0  0  0  0  0  0  0  0  0  0
  1  8  1  0  0  0  0
  3  5  1  1  0  0  0
  3  9  1  0  0  0  0
  3 12  2  0  0  0  0
  3 22  1  0  0  0  0
  4  8  2  0  0  0  0
  4 19  1  0  0  0  0
  6 16  1  0  0  0  0
  6  7  1  0  0  0  0
  7 10  1  0  0  0  0
  8 11  1  0  0  0  0
 10 13  1  0  0  0  0
 10 21  1  0  0  0  0
 11 14  2  0  0  0  0
 13  2  1  1  0  0  0
 13 16  1  0  0  0  0
 14 15  1  0  0  0  0
 14 17  1  0  0  0  0
 16 18  1  1  0  0  0
 17 19  2  0  0  0  0
 17 21  1  0  0  0  0
 18 20  1  0  0  0  0
 20 22  1  0  0  0  0
M  CHG  1   9  -1
M  END
>  <CHROM.1>
-81.76239267,-79.24491512,-127.11104658,58.71358361,70.28857726,-152.19837087
24.11444092,39.47825275,65.72351106,2.80551809,-0.09120842,-0.16404572

>  <Name>
ligand

>  <RI>
0

>  <Rbt.Current_Directory>
/home/itssahil/PROJECTS/Mol_Feturizer/New_Systems/rnas/2HOM

>  <Rbt.Executable>
rbdock ($Id: //depot/dev/client3/rdock/2013.1/src/exe/rbdock.cxx#4 $)

>  <Rbt.Library>
libRbt.so (2013.1, Build901 2013/11/27)

>  <Rbt.Parameter_File>
/export/apps/rDock/src/rDock_2013.1_src/data/scripts/dock_solv.prm

>  <Rbt.Receptor>
prm/pocket_docking_5.prm

>  <SCORE>
-20.7108

>  <SCORE.INTER>
-21.9369

>  <SCORE.INTER.CONST>
1

>  <SCORE.INTER.POLAR>
-1.63459

>  <SCORE.INTER.ROT>
6

>  <SCORE.INTER.SOLV>
16.7108

>  <SCORE.INTER.VDW>
-22.3462

>  <SCORE.INTER.norm>
-0.997133

>  <SCORE.INTRA>
1.2261

>  <SCORE.INTRA.DIHEDRAL>
1.44971

>  <SCORE.INTRA.DIHEDRAL.0>
5.05013

>  <SCORE.INTRA.POLAR>
0

>  <SCORE.INTRA.POLAR.0>
0

>  <SCORE.INTRA.REPUL>
0

>  <SCORE.INTRA.REPUL.0>
0

>  <SCORE.INTRA.SOLV>
2.89289

>  <SCORE.INTRA.SOLV.lig_0>
-54.1265

>  <SCORE.INTRA.VDW>
-0.945194

>  <SCORE.INTRA.VDW.0>
-2.1303

>  <SCORE.INTRA.norm>
0.055732

>  <SCORE.RESTR>
0

>  <SCORE.RESTR.CAVITY>
0

>  <SCORE.RESTR.norm>
0

>  <SCORE.SYSTEM>
0

>  <SCORE.SYSTEM.CONST>
0

>  <SCORE.SYSTEM.DIHEDRAL>
0

>  <SCORE.SYSTEM.SOLV>
0

>  <SCORE.SYSTEM.norm>
0

>  <SCORE.heavy>
22

>  <SCORE.norm>
-0.941401

>  <RMSD>
1.868

$$$$
ligand
 OpenBabel11021811443D
libRbt.so/2013.1/901 2013/11/27
 22 23  0  0  0  0  0  0  0  0999 V2000
   17.1773   39.9487   63.7830 C   0  0  0  0  0  0  0  0  0  0  0  0
   24.7818   40.5729   64.8178 C   0  0  0  0  0  0  0  0  0  0  0  0
   29.3312   37.0806   65.4016 P   0  0  1  0  0  0  0  0  0  0  0  0
   19.2033   39.2664   64.8567 N   0  0  0  0  0  0  0  0  0  0  0  0
   28.4471   36.0968   64.7258 O   0  0  0  0  0  0  0  0  0  0  0  0
   24.0016   37.7462   67.5761 S   0  0  0  0  0  0  0  0  0  0  0  0
   22.8569   38.9728   67.4864 C   0  0  0  0  0  0  0  0  0  0  0  0
   18.4551   40.3240   64.3866 C   0  0  0  0  0  0  0  0  0  0  0  0
   30.5244   36.4798   66.0516 O   0  5  0  0  0  0  0  0  0  0  0  0
   23.0998   39.9306   66.5663 N   0  0  0  0  0  0  0  0  0  0  0  0
   18.8405   41.5703   64.4495 N   0  0  0  0  0  0  0  0  0  0  0  0
   29.6647   38.2087   64.4743 O   0  0  0  0  0  0  0  0  0  0  0  0
   24.2901   39.6492   65.8931 C   0  0  2  0  0  0  0  0  0  0  0  0
   20.0621   41.8925   65.0317 C   0  0  0  0  0  0  0  0  0  0  0  0
   20.4461   43.1650   65.0698 N   0  0  0  0  0  0  0  0  0  0  0  0
   24.9278   38.5038   66.3074 C   0  0  1  0  0  0  0  0  0  0  0  0
   20.8855   40.8306   65.5862 C   0  0  0  0  0  0  0  0  0  0  0  0
   26.2106   37.9415   65.8100 C   0  0  0  0  0  0  0  0  0  0  0  0
   20.4001   39.5476   65.4317 C   0  0  0  0  0  0  0  0  0  0  0  0
   27.3676   38.5011   66.5493 C   0  0  0  0  0  0  0  0  0  0  0  0
   22.1672   41.1363   66.3372 C   0  0  0  0  0  0  0  0  0  0  0  0
   28.5426   37.6926   66.6200 O   0  0  0  0  0  0  0  0  0  0  0  0
  1  8  1  0  0  0  0
  3  5  1  6  0  0  0
  3  9  1  0  0  0  0
  3 12  2  0  0  0  0
  3 22  1  0  0  0  0
  4  8  2  0  0  0  0
  4 19  1  0  0  0  0
  6 16  1  0  0  0  0
  6  7  1  0  0  0  0
  7 10  1  0  0  0  0
  8 11  1  0  0  0  0
 10 13  1  0  0  0  0
 10 21  1  0  0  0  0
 11 14  2  0  0  0  0
 13  2  1  1  0  0  0
 13 16  1  0  0  0  0
 14 15  1  0  0  0  0
 14 17  1  0  0  0  0
 16 18  1  1  0  0  0
 17 19  2  0  0  0  0
 17 21  1  0  0  0  0
 18 20  1  0  0  0  0
 20 22  1  0  0  0  0
M  CHG  1   9  -1
M  END
>  <CHROM.1>
-75.35156651,-91.46071351,-165.80017333,153.46326618,55.08141763,-65.09017410
24.20708216,39.05263662,65.67943244,2.79980371,0.13342267,-0.56003295

>  <Name>
ligand

>  <RI>
0

>  <Rbt.Current_Directory>
/home/itssahil/PROJECTS/Mol_Feturizer/New_Systems/rnas/2HOM

>  <Rbt.Executable>
rbdock ($Id: //depot/dev/client3/rdock/2013.1/src/exe/rbdock.cxx#4 $)

>  <Rbt.Library>
libRbt.so (2013.1, Build901 2013/11/27)

>  <Rbt.Parameter_File>
/export/apps/rDock/src/rDock_2013.1_src/data/scripts/dock_solv.prm

>  <Rbt.Receptor>
prm/pocket_docking_4.prm

>  <SCORE>
-24.1953

>  <SCORE.INTER>
-25.7432

>  <SCORE.INTER.CONST>
1

>  <SCORE.INTER.POLAR>
-1.63236

>  <SCORE.INTER.ROT>
6

>  <SCORE.INTER.SOLV>
18.0578

>  <SCORE.INTER.VDW>
-25.3402

>  <SCORE.INTER.norm>
-1.17014

>  <SCORE.INTRA>
1.54783

>  <SCORE.INTRA.DIHEDRAL>
2.10567

>  <SCORE.INTRA.DIHEDRAL.0>
5.05013

>  <SCORE.INTRA.POLAR>
0

>  <SCORE.INTRA.POLAR.0>
0

>  <SCORE.INTRA.REPUL>
0

>  <SCORE.INTRA.REPUL.0>
0

>  <SCORE.INTRA.SOLV>
0.691093

>  <SCORE.INTRA.SOLV.lig_0>
-54.1265

>  <SCORE.INTRA.VDW>
0.149454

>  <SCORE.INTRA.VDW.0>
-2.1303

>  <SCORE.INTRA.norm>
0.0703561

>  <SCORE.RESTR>
0

>  <SCORE.RESTR.CAVITY>
0

>  <SCORE.RESTR.norm>
0

>  <SCORE.SYSTEM>
0

>  <SCORE.SYSTEM.CONST>
0

>  <SCORE.SYSTEM.DIHEDRAL>
0

>  <SCORE.SYSTEM.SOLV>
0

>  <SCORE.SYSTEM.norm>
0

>  <SCORE.heavy>
22

>  <SCORE.norm>
-1.09979

>  <RMSD>
1.871

$$$$
ligand
 OpenBabel11021811443D
libRbt.so/2013.1/901 2013/11/27
 22 23  0  0  0  0  0  0  0  0999 V2000
   17.6209   40.0427   64.0777 C   0  0  0  0  0  0  0  0  0  0  0  0
   25.1428   41.4276   65.7348 C   0  0  0  0  0  0  0  0  0  0  0  0
   29.4485   36.9155   65.2334 P   0  0  1  0  0  0  0  0  0  0  0  0
   19.5006   39.3429   65.3817 N   0  0  0  0  0  0  0  0  0  0  0  0
   29.7901   37.5802   66.5170 O   0  0  0  0  0  0  0  0  0  0  0  0
   24.6458   37.8531   67.5188 S   0  0  0  0  0  0  0  0  0  0  0  0
   23.3287   38.8885   67.6450 C   0  0  0  0  0  0  0  0  0  0  0  0
   18.8473   40.4015   64.7884 C   0  0  0  0  0  0  0  0  0  0  0  0
   29.7624   37.7244   64.0274 O   0  5  0  0  0  0  0  0  0  0  0  0
   23.4750   40.0927   67.0521 N   0  0  0  0  0  0  0  0  0  0  0  0
   19.2765   41.6344   64.8299 N   0  0  0  0  0  0  0  0  0  0  0  0
   30.0260   35.5341   65.1890 O   0  0  0  0  0  0  0  0  0  0  0  0
   24.7359   40.1780   66.4588 C   0  0  2  0  0  0  0  0  0  0  0  0
   20.4469   41.9411   65.5163 C   0  0  0  0  0  0  0  0  0  0  0  0
   20.8781   43.1989   65.5318 N   0  0  0  0  0  0  0  0  0  0  0  0
   25.5197   39.0587   66.6109 C   0  0  1  0  0  0  0  0  0  0  0  0
   21.1663   40.8798   66.2012 C   0  0  0  0  0  0  0  0  0  0  0  0
   26.9051   38.8398   66.1190 C   0  0  0  0  0  0  0  0  0  0  0  0
   20.6453   39.6092   66.0602 C   0  0  0  0  0  0  0  0  0  0  0  0
   26.9381   37.8355   65.0288 C   0  0  0  0  0  0  0  0  0  0  0  0
   22.3792   41.1767   67.0621 C   0  0  0  0  0  0  0  0  0  0  0  0
   27.8819   36.7715   65.1575 O   0  0  0  0  0  0  0  0  0  0  0  0
  1  8  1  0  0  0  0
  3  5  1  1  0  0  0
  3  9  1  0  0  0  0
  3 12  2  0  0  0  0
  3 22  1  0  0  0  0
  4  8  2  0  0  0  0
  4 19  1  0  0  0  0
  6 16  1  0  0  0  0
  6  7  1  0  0  0  0
  7 10  1  0  0  0  0
  8 11  1  0  0  0  0
 10 13  1  0  0  0  0
 10 21  1  0  0  0  0
 11 14  2  0  0  0  0
 13  2  1  1  0  0  0
 13 16  1  0  0  0  0
 14 15  1  0  0  0  0
 14 17  1  0  0  0  0
 16 18  1  1  0  0  0
 17 19  2  0  0  0  0
 17 21  1  0  0  0  0
 18 20  1  0  0  0  0
 20 22  1  0  0  0  0
M  CHG  1   9  -1
M  END
>  <CHROM.1>
-71.04734828,69.90142302,-145.98038730,-129.75822160,-61.33077845,67.85092358
24.51048624,39.11773265,65.83425621,2.76441851,-0.12075669,0.29818843

>  <Name>
ligand

>  <RI>
0

>  <Rbt.Current_Directory>
/home/itssahil/PROJECTS/Mol_Feturizer/New_Systems/rnas/2HOM

>  <Rbt.Executable>
rbdock ($Id: //depot/dev/client3/rdock/2013.1/src/exe/rbdock.cxx#4 $)

>  <Rbt.Library>
libRbt.so (2013.1, Build901 2013/11/27)

>  <Rbt.Parameter_File>
/export/apps/rDock/src/rDock_2013.1_src/data/scripts/dock_solv.prm

>  <Rbt.Receptor>
prm/pocket_docking_7.prm

>  <SCORE>
-20.8853

>  <SCORE.INTER>
-24.0879

>  <SCORE.INTER.CONST>
1

>  <SCORE.INTER.POLAR>
-1.30767

>  <SCORE.INTER.ROT>
6

>  <SCORE.INTER.SOLV>
15.625

>  <SCORE.INTER.VDW>
-24.508

>  <SCORE.INTER.norm>
-1.0949

>  <SCORE.INTRA>
3.2026

>  <SCORE.INTRA.DIHEDRAL>
5.23729

>  <SCORE.INTRA.DIHEDRAL.0>
5.05013

>  <SCORE.INTRA.POLAR>
0

>  <SCORE.INTRA.POLAR.0>
0

>  <SCORE.INTRA.REPUL>
0

>  <SCORE.INTRA.REPUL.0>
0

>  <SCORE.INTRA.SOLV>
0.842222

>  <SCORE.INTRA.SOLV.lig_0>
-54.1265

>  <SCORE.INTRA.VDW>
0.162845

>  <SCORE.INTRA.VDW.0>
-2.1303

>  <SCORE.INTRA.norm>
0.145573

>  <SCORE.RESTR>
0

>  <SCORE.RESTR.CAVITY>
0

>  <SCORE.RESTR.norm>
0

>  <SCORE.SYSTEM>
0

>  <SCORE.SYSTEM.CONST>
0

>  <SCORE.SYSTEM.DIHEDRAL>
0

>  <SCORE.SYSTEM.SOLV>
0

>  <SCORE.SYSTEM.norm>
0

>  <SCORE.heavy>
22

>  <SCORE.norm>
-0.949331

>  <RMSD>
1.881

$$$$
ligand
 OpenBabel11021811443D
libRbt.so/2013.1/901 2013/11/27
 22 23  0  0  0  0  0  0  0  0999 V2000
   17.1852   40.1467   63.8068 C   0  0  0  0  0  0  0  0  0  0  0  0
   23.6784   40.3338   64.4927 C   0  0  0  0  0  0  0  0  0  0  0  0
   29.4906   36.7725   65.3635 P   0  0  1  0  0  0  0  0  0  0  0  0
   18.9119   39.3311   65.2479 N   0  0  0  0  0  0  0  0  0  0  0  0
   30.0222   37.7117   66.3841 O   0  0  0  0  0  0  0  0  0  0  0  0
   24.5220   37.9065   67.5916 S   0  0  0  0  0  0  0  0  0  0  0  0
   23.3023   39.0232   67.8880 C   0  0  0  0  0  0  0  0  0  0  0  0
   18.4151   40.4118   64.5519 C   0  0  0  0  0  0  0  0  0  0  0  0
   30.2928   36.7142   64.1144 O   0  5  0  0  0  0  0  0  0  0  0  0
   23.0034   39.8464   66.8603 N   0  0  0  0  0  0  0  0  0  0  0  0
   18.9864   41.5862   64.5306 N   0  0  0  0  0  0  0  0  0  0  0  0
   29.2387   35.4267   65.9710 O   0  0  0  0  0  0  0  0  0  0  0  0
   23.8167   39.5504   65.7648 C   0  0  2  0  0  0  0  0  0  0  0  0
   20.1555   41.8045   65.2521 C   0  0  0  0  0  0  0  0  0  0  0  0
   20.7329   43.0013   65.2034 N   0  0  0  0  0  0  0  0  0  0  0  0
   24.7111   38.5272   65.9728 C   0  0  1  0  0  0  0  0  0  0  0  0
   20.7138   40.7200   66.0429 C   0  0  0  0  0  0  0  0  0  0  0  0
   25.7182   37.9869   65.0226 C   0  0  0  0  0  0  0  0  0  0  0  0
   20.0510   39.5118   65.9632 C   0  0  0  0  0  0  0  0  0  0  0  0
   27.0344   37.8009   65.6794 C   0  0  0  0  0  0  0  0  0  0  0  0
   21.9166   40.9365   66.9412 C   0  0  0  0  0  0  0  0  0  0  0  0
   28.1047   37.3272   64.8612 O   0  0  0  0  0  0  0  0  0  0  0  0
  1  8  1  0  0  0  0
  3  5  1  1  0  0  0
  3  9  1  0  0  0  0
  3 12  2  0  0  0  0
  3 22  1  0  0  0  0
  4  8  2  0  0  0  0
  4 19  1  0  0  0  0
  6 16  1  0  0  0  0
  6  7  1  0  0  0  0
  7 10  1  0  0  0  0
  8 11  1  0  0  0  0
 10 13  1  0  0  0  0
 10 21  1  0  0  0  0
 11 14  2  0  0  0  0
 13  2  1  1  0  0  0
 13 16  1  0  0  0  0
 14 15  1  0  0  0  0
 14 17  1  0  0  0  0
 16 18  1  1  0  0  0
 17 19  2  0  0  0  0
 17 21  1  0  0  0  0
 18 20  1  0  0  0  0
 20 22  1  0  0  0  0
M  CHG  1   9  -1
M  END
>  <CHROM.1>
-113.80711915,-45.02350803,-135.16723572,-177.98834966,-166.50246158,-47.16301571
24.17703927,38.92831101,65.67862135,-3.03119467,-0.37300195,1.78089563

>  <Name>
ligand

>  <RI>
0

>  <Rbt.Current_Directory>
/home/itssahil/PROJECTS/Mol_Feturizer/New_Systems/rnas/2HOM

>  <Rbt.Executable>
rbdock ($Id: //depot/dev/client3/rdock/2013.1/src/exe/rbdock.cxx#4 $)

>  <Rbt.Library>
libRbt.so (2013.1, Build901 2013/11/27)

>  <Rbt.Parameter_File>
/export/apps/rDock/src/rDock_2013.1_src/data/scripts/dock_solv.prm

>  <Rbt.Receptor>
prm/pocket_docking_5.prm

>  <SCORE>
-24.0171

>  <SCORE.INTER>
-25.2687

>  <SCORE.INTER.CONST>
1

>  <SCORE.INTER.POLAR>
-1.3066

>  <SCORE.INTER.ROT>
6

>  <SCORE.INTER.SOLV>
18.9663

>  <SCORE.INTER.VDW>
-26.4126

>  <SCORE.INTER.norm>
-1.14858

>  <SCORE.INTRA>
1.25161

>  <SCORE.INTRA.DIHEDRAL>
1.08392

>  <SCORE.INTRA.DIHEDRAL.0>
5.05013

>  <SCORE.INTRA.POLAR>
0

>  <SCORE.INTRA.POLAR.0>
0

>  <SCORE.INTRA.REPUL>
0

>  <SCORE.INTRA.REPUL.0>
0

>  <SCORE.INTRA.SOLV>
0.771399

>  <SCORE.INTRA.SOLV.lig_0>
-54.1265

>  <SCORE.INTRA.VDW>
0.323955

>  <SCORE.INTRA.VDW.0>
-2.1303

>  <SCORE.INTRA.norm>
0.0568915

>  <SCORE.RESTR>
0

>  <SCORE.RESTR.CAVITY>
0

>  <SCORE.RESTR.norm>
0

>  <SCORE.SYSTEM>
0

>  <SCORE.SYSTEM.CONST>
0

>  <SCORE.SYSTEM.DIHEDRAL>
0

>  <SCORE.SYSTEM.SOLV>
0

>  <SCORE.SYSTEM.norm>
0

>  <SCORE.heavy>
22

>  <SCORE.norm>
-1.09169

>  <RMSD>
1.883

$$$$
ligand
 OpenBabel11021811443D
libRbt.so/2013.1/901 2013/11/27
 22 23  0  0  0  0  0  0  0  0999 V2000
   16.9476   39.4223   63.6923 C   0  0  0  0  0  0  0  0  0  0  0  0
   23.3555   38.6688   66.9345 C   0  0  0  0  0  0  0  0  0  0  0  0
   29.1267   39.1280   66.6499 P   0  0  1  0  0  0  0  0  0  0  0  0
   19.0819   39.0014   64.6876 N   0  0  0  0  0  0  0  0  0  0  0  0
   30.3899   38.3535   66.5464 O   0  0  0  0  0  0  0  0  0  0  0  0
   25.0970   41.2227   64.3554 S   0  0  0  0  0  0  0  0  0  0  0  0
   23.6102   41.7319   64.9496 C   0  0  0  0  0  0  0  0  0  0  0  0
   18.1353   39.9489   64.3631 C   0  0  0  0  0  0  0  0  0  0  0  0
   28.9926   39.9072   67.9077 O   0  5  0  0  0  0  0  0  0  0  0  0
   23.0099   40.8895   65.8174 N   0  0  0  0  0  0  0  0  0  0  0  0
   18.2706   41.2243   64.6106 N   0  0  0  0  0  0  0  0  0  0  0  0
   28.9140   39.9503   65.4161 O   0  0  0  0  0  0  0  0  0  0  0  0
   23.8084   39.7608   66.0105 C   0  0  2  0  0  0  0  0  0  0  0  0
   19.4132   41.6914   65.2518 C   0  0  0  0  0  0  0  0  0  0  0  0
   19.5416   42.9954   65.4784 N   0  0  0  0  0  0  0  0  0  0  0  0
   24.9824   39.7579   65.2950 C   0  0  1  0  0  0  0  0  0  0  0  0
   20.4355   40.7421   65.6602 C   0  0  0  0  0  0  0  0  0  0  0  0
   26.0317   38.7056   65.2654 C   0  0  0  0  0  0  0  0  0  0  0  0
   20.2082   39.4249   65.3153 C   0  0  0  0  0  0  0  0  0  0  0  0
   26.5421   38.4142   66.6266 C   0  0  0  0  0  0  0  0  0  0  0  0
   21.6426   41.1808   66.4669 C   0  0  0  0  0  0  0  0  0  0  0  0
   27.9316   38.1065   66.7445 O   0  0  0  0  0  0  0  0  0  0  0  0
  1  8  1  0  0  0  0
  3  5  1  6  0  0  0
  3  9  1  0  0  0  0
  3 12  2  0  0  0  0
  3 22  1  0  0  0  0
  4  8  2  0  0  0  0
  4 19  1  0  0  0  0
  6 16  1  0  0  0  0
  6  7  1  0  0  0  0
  7 10  1  0  0  0  0
  8 11  1  0  0  0  0
 10 13  1  0  0  0  0
 10 21  1  0  0  0  0
 11 14  2  0  0  0  0
 13  2  1  6  0  0  0
 13 16  1  0  0  0  0
 14 15  1  0  0  0  0
 14 17  1  0  0  0  0
 16 18  1  6  0  0  0
 17 19  2  0  0  0  0
 17 21  1  0  0  0  0
 18 20  1  0  0  0  0
 20 22  1  0  0  0  0
M  CHG  1   9  -1
M  END
>  <CHROM.1>
86.87137621,124.20573765,-121.77136339,-144.13698938,74.60668691,-168.45543761
23.99542840,39.98537048,65.65813399,2.96193488,-0.13544797,-0.19967773

>  <Name>
ligand

>  <RI>
0

>  <Rbt.Current_Directory>
/home/itssahil/PROJECTS/Mol_Feturizer/New_Systems/rnas/2HOM

>  <Rbt.Executable>
rbdock ($Id: //depot/dev/client3/rdock/2013.1/src/exe/rbdock.cxx#4 $)

>  <Rbt.Library>
libRbt.so (2013.1, Build901 2013/11/27)

>  <Rbt.Parameter_File>
/export/apps/rDock/src/rDock_2013.1_src/data/scripts/dock_solv.prm

>  <Rbt.Receptor>
prm/pocket_docking_2.prm

>  <SCORE>
-16.835

>  <SCORE.INTER>
-20.1693

>  <SCORE.INTER.CONST>
1

>  <SCORE.INTER.POLAR>
-1.30767

>  <SCORE.INTER.ROT>
6

>  <SCORE.INTER.SOLV>
17.4056

>  <SCORE.INTER.VDW>
-22.4892

>  <SCORE.INTER.norm>
-0.916786

>  <SCORE.INTRA>
3.3306

>  <SCORE.INTRA.DIHEDRAL>
4.29176

>  <SCORE.INTRA.DIHEDRAL.0>
5.05013

>  <SCORE.INTRA.POLAR>
0

>  <SCORE.INTRA.POLAR.0>
0

>  <SCORE.INTRA.REPUL>
0

>  <SCORE.INTRA.REPUL.0>
0

>  <SCORE.INTRA.SOLV>
1.59532

>  <SCORE.INTRA.SOLV.lig_0>
-54.1265

>  <SCORE.INTRA.VDW>
0.387058

>  <SCORE.INTRA.VDW.0>
-2.1303

>  <SCORE.INTRA.norm>
0.151391

>  <SCORE.RESTR>
0.00365602

>  <SCORE.RESTR.CAVITY>
0.00365602

>  <SCORE.RESTR.norm>
0.000166183

>  <SCORE.SYSTEM>
0

>  <SCORE.SYSTEM.CONST>
0

>  <SCORE.SYSTEM.DIHEDRAL>
0

>  <SCORE.SYSTEM.SOLV>
0

>  <SCORE.SYSTEM.norm>
0

>  <SCORE.heavy>
22

>  <SCORE.norm>
-0.765229

>  <RMSD>
1.891

$$$$
ligand
 OpenBabel11021811443D
libRbt.so/2013.1/901 2013/11/27
 22 23  0  0  0  0  0  0  0  0999 V2000
   18.0863   40.3681   64.5413 C   0  0  0  0  0  0  0  0  0  0  0  0
   25.0668   41.0993   64.8493 C   0  0  0  0  0  0  0  0  0  0  0  0
   29.7251   40.0346   66.7977 P   0  0  1  0  0  0  0  0  0  0  0  0
   19.7042   41.9658   65.2850 N   0  0  0  0  0  0  0  0  0  0  0  0
   30.7575   39.4072   65.9335 O   0  0  0  0  0  0  0  0  0  0  0  0
   25.4118   38.5245   67.9247 S   0  0  0  0  0  0  0  0  0  0  0  0
   24.2155   39.6885   68.1161 C   0  0  0  0  0  0  0  0  0  0  0  0
   19.3423   40.6368   65.2400 C   0  0  0  0  0  0  0  0  0  0  0  0
   30.2409   40.5280   68.1007 O   0  5  0  0  0  0  0  0  0  0  0  0
   24.0829   40.5615   67.0947 N   0  0  0  0  0  0  0  0  0  0  0  0
   20.0403   39.6759   65.7835 N   0  0  0  0  0  0  0  0  0  0  0  0
   28.9591   41.0691   66.0318 O   0  0  0  0  0  0  0  0  0  0  0  0
   25.0116   40.2651   66.0953 C   0  0  2  0  0  0  0  0  0  0  0  0
   21.2317   39.9667   66.4400 C   0  0  0  0  0  0  0  0  0  0  0  0
   21.9191   38.9775   67.0033 N   0  0  0  0  0  0  0  0  0  0  0  0
   25.8272   39.1925   66.3682 C   0  0  1  0  0  0  0  0  0  0  0  0
   21.6960   41.3432   66.4905 C   0  0  0  0  0  0  0  0  0  0  0  0
   26.9192   38.6377   65.5264 C   0  0  0  0  0  0  0  0  0  0  0  0
   20.8624   42.2826   65.9174 C   0  0  0  0  0  0  0  0  0  0  0  0
   27.9900   38.0379   66.3582 C   0  0  0  0  0  0  0  0  0  0  0  0
   23.0439   41.7001   67.0874 C   0  0  0  0  0  0  0  0  0  0  0  0
   28.7020   38.9175   67.2292 O   0  0  0  0  0  0  0  0  0  0  0  0
  1  8  1  0  0  0  0
  3  5  1  6  0  0  0
  3  9  1  0  0  0  0
  3 12  2  0  0  0  0
  3 22  1  0  0  0  0
  4  8  2  0  0  0  0
  4 19  1  0  0  0  0
  6 16  1  0  0  0  0
  6  7  1  0  0  0  0
  7 10  1  0  0  0  0
  8 11  1  0  0  0  0
 10 13  1  0  0  0  0
 10 21  1  0  0  0  0
 11 14  2  0  0  0  0
 13  2  1  1  0  0  0
 13 16  1  0  0  0  0
 14 15  1  0  0  0  0
 14 17  1  0  0  0  0
 16 18  1  1  0  0  0
 17 19  2  0  0  0  0
 17 21  1  0  0  0  0
 18 20  1  0  0  0  0
 20 22  1  0  0  0  0
M  CHG  1   9  -1
M  END
>  <CHROM.1>
-89.93199198,-30.13998251,23.84714985,-63.23416338,-70.41464331,-53.65015890
24.98524956,40.02615269,66.47723331,-2.98377421,0.04400338,2.63645271

>  <Name>
ligand

>  <RI>
0

>  <Rbt.Current_Directory>
/home/itssahil/PROJECTS/Mol_Feturizer/New_Systems/rnas/2HOM

>  <Rbt.Executable>
rbdock ($Id: //depot/dev/client3/rdock/2013.1/src/exe/rbdock.cxx#4 $)

>  <Rbt.Library>
libRbt.so (2013.1, Build901 2013/11/27)

>  <Rbt.Parameter_File>
/export/apps/rDock/src/rDock_2013.1_src/data/scripts/dock_solv.prm

>  <Rbt.Receptor>
prm/pocket_docking_2.prm

>  <SCORE>
-14.5927

>  <SCORE.INTER>
-17.5016

>  <SCORE.INTER.CONST>
1

>  <SCORE.INTER.POLAR>
-1.18585

>  <SCORE.INTER.ROT>
6

>  <SCORE.INTER.SOLV>
13.0133

>  <SCORE.INTER.VDW>
-19.6527

>  <SCORE.INTER.norm>
-0.795527

>  <SCORE.INTRA>
2.90785

>  <SCORE.INTRA.DIHEDRAL>
0.578381

>  <SCORE.INTRA.DIHEDRAL.0>
5.05013

>  <SCORE.INTRA.POLAR>
0

>  <SCORE.INTRA.POLAR.0>
0

>  <SCORE.INTRA.REPUL>
0

>  <SCORE.INTRA.REPUL.0>
0

>  <SCORE.INTRA.SOLV>
4.69715

>  <SCORE.INTRA.SOLV.lig_0>
-54.1265

>  <SCORE.INTRA.VDW>
0.270084

>  <SCORE.INTRA.VDW.0>
-2.1303

>  <SCORE.INTRA.norm>
0.132175

>  <SCORE.RESTR>
0.00107764

>  <SCORE.RESTR.CAVITY>
0.00107764

>  <SCORE.RESTR.norm>
4.89836e-05

>  <SCORE.SYSTEM>
0

>  <SCORE.SYSTEM.CONST>
0

>  <SCORE.SYSTEM.DIHEDRAL>
0

>  <SCORE.SYSTEM.SOLV>
0

>  <SCORE.SYSTEM.norm>
0

>  <SCORE.heavy>
22

>  <SCORE.norm>
-0.663303

>  <RMSD>
1.896

$$$$
ligand
 OpenBabel11021811443D
libRbt.so/2013.1/901 2013/11/27
 22 23  0  0  0  0  0  0  0  0999 V2000
   17.6733   39.7537   64.4159 C   0  0  0  0  0  0  0  0  0  0  0  0
   24.4502   43.0634   64.9985 C   0  0  0  0  0  0  0  0  0  0  0  0
   28.5636   37.6480   66.3464 P   0  0  1  0  0  0  0  0  0  0  0  0
   19.7990   39.7063   65.5125 N   0  0  0  0  0  0  0  0  0  0  0  0
   27.9724   36.9541   67.5191 O   0  0  0  0  0  0  0  0  0  0  0  0
   25.3130   39.9489   67.3990 S   0  0  0  0  0  0  0  0  0  0  0  0
   23.7833   40.6056   67.6256 C   0  0  0  0  0  0  0  0  0  0  0  0
   18.7930   40.4939   64.9957 C   0  0  0  0  0  0  0  0  0  0  0  0
   30.0333   37.8464   66.4346 O   0  5  0  0  0  0  0  0  0  0  0  0
   23.4740   41.6510   66.8291 N   0  0  0  0  0  0  0  0  0  0  0  0
   18.8203   41.7998   64.9976 N   0  0  0  0  0  0  0  0  0  0  0  0
   28.1284   36.9888   65.0737 O   0  0  0  0  0  0  0  0  0  0  0  0
   24.5473   41.9350   65.9827 C   0  0  2  0  0  0  0  0  0  0  0  0
   19.9008   42.4724   65.5588 C   0  0  0  0  0  0  0  0  0  0  0  0
   19.9196   43.8018   65.5347 N   0  0  0  0  0  0  0  0  0  0  0  0
   25.6413   41.1190   66.1481 C   0  0  1  0  0  0  0  0  0  0  0  0
   20.9794   41.7052   66.1597 C   0  0  0  0  0  0  0  0  0  0  0  0
   26.9377   41.1708   65.4229 C   0  0  0  0  0  0  0  0  0  0  0  0
   20.8669   40.3324   66.0685 C   0  0  0  0  0  0  0  0  0  0  0  0
   27.4799   39.8107   65.1894 C   0  0  0  0  0  0  0  0  0  0  0  0
   22.1208   42.3867   66.8900 C   0  0  0  0  0  0  0  0  0  0  0  0
   28.0143   39.1239   66.3217 O   0  0  0  0  0  0  0  0  0  0  0  0
  1  8  1  0  0  0  0
  3  5  1  1  0  0  0
  3  9  1  0  0  0  0
  3 12  2  0  0  0  0
  3 22  1  0  0  0  0
  4  8  2  0  0  0  0
  4 19  1  0  0  0  0
  6 16  1  0  0  0  0
  6  7  1  0  0  0  0
  7 10  1  0  0  0  0
  8 11  1  0  0  0  0
 10 13  1  0  0  0  0
 10 21  1  0  0  0  0
 11 14  2  0  0  0  0
 13  2  1  1  0  0  0
 13 16  1  0  0  0  0
 14 15  1  0  0  0  0
 14 17  1  0  0  0  0
 16 18  1  1  0  0  0
 17 19  2  0  0  0  0
 17 21  1  0  0  0  0
 18 20  1  0  0  0  0
 20 22  1  0  0  0  0
M  CHG  1   9  -1
M  END
>  <CHROM.1>
-80.47814794,36.76443531,-149.40726773,-73.04608736,176.04222798,-132.52810303
24.26882168,40.21001379,66.06486871,2.78411485,-0.12137906,0.05580266

>  <Name>
ligand

>  <RI>
0

>  <Rbt.Current_Directory>
/home/itssahil/PROJECTS/Mol_Feturizer/New_Systems/rnas/2HOM

>  <Rbt.Executable>
rbdock ($Id: //depot/dev/client3/rdock/2013.1/src/exe/rbdock.cxx#4 $)

>  <Rbt.Library>
libRbt.so (2013.1, Build901 2013/11/27)

>  <Rbt.Parameter_File>
/export/apps/rDock/src/rDock_2013.1_src/data/scripts/dock_solv.prm

>  <Rbt.Receptor>
prm/pocket_docking_3.prm

>  <SCORE>
-16.2607

>  <SCORE.INTER>
-18.2638

>  <SCORE.INTER.CONST>
1

>  <SCORE.INTER.POLAR>
-1.629

>  <SCORE.INTER.ROT>
6

>  <SCORE.INTER.SOLV>
19.2047

>  <SCORE.INTER.VDW>
-20.7475

>  <SCORE.INTER.norm>
-0.830174

>  <SCORE.INTRA>
2.00308

>  <SCORE.INTRA.DIHEDRAL>
2.59167

>  <SCORE.INTRA.DIHEDRAL.0>
5.05013

>  <SCORE.INTRA.POLAR>
0

>  <SCORE.INTRA.POLAR.0>
0

>  <SCORE.INTRA.REPUL>
0

>  <SCORE.INTRA.REPUL.0>
0

>  <SCORE.INTRA.SOLV>
0.608332

>  <SCORE.INTRA.SOLV.lig_0>
-54.1265

>  <SCORE.INTRA.VDW>
0.403081

>  <SCORE.INTRA.VDW.0>
-2.1303

>  <SCORE.INTRA.norm>
0.0910492

>  <SCORE.RESTR>
0

>  <SCORE.RESTR.CAVITY>
0

>  <SCORE.RESTR.norm>
0

>  <SCORE.SYSTEM>
0

>  <SCORE.SYSTEM.CONST>
0

>  <SCORE.SYSTEM.DIHEDRAL>
0

>  <SCORE.SYSTEM.SOLV>
0

>  <SCORE.SYSTEM.norm>
0

>  <SCORE.heavy>
22

>  <SCORE.norm>
-0.739125

>  <RMSD>
1.921

$$$$
ligand
 OpenBabel11021811443D
libRbt.so/2013.1/901 2013/11/27
 22 23  0  0  0  0  0  0  0  0999 V2000
   17.4167   39.7754   63.9766 C   0  0  0  0  0  0  0  0  0  0  0  0
   23.6465   39.1236   67.6552 C   0  0  0  0  0  0  0  0  0  0  0  0
   28.6789   39.7736   68.1537 P   0  0  1  0  0  0  0  0  0  0  0  0
   19.4958   39.3573   65.0837 N   0  0  0  0  0  0  0  0  0  0  0  0
   29.6706   38.6850   68.3483 O   0  0  0  0  0  0  0  0  0  0  0  0
   25.7017   40.6573   64.5518 S   0  0  0  0  0  0  0  0  0  0  0  0
   24.2833   41.4762   64.9263 C   0  0  0  0  0  0  0  0  0  0  0  0
   18.6483   40.3081   64.5575 C   0  0  0  0  0  0  0  0  0  0  0  0
   27.3709   39.5297   68.8146 O   0  5  0  0  0  0  0  0  0  0  0  0
   23.5795   40.9779   65.9653 N   0  0  0  0  0  0  0  0  0  0  0  0
   18.9078   41.5882   64.5518 N   0  0  0  0  0  0  0  0  0  0  0  0
   29.2820   41.0999   68.5013 O   0  0  0  0  0  0  0  0  0  0  0  0
   24.2345   39.8616   66.4886 C   0  0  2  0  0  0  0  0  0  0  0  0
   20.0888   42.0613   65.1143 C   0  0  0  0  0  0  0  0  0  0  0  0
   20.3444   43.3658   65.0825 N   0  0  0  0  0  0  0  0  0  0  0  0
   25.4045   39.5288   65.8479 C   0  0  1  0  0  0  0  0  0  0  0  0
   21.0112   41.1181   65.7249 C   0  0  0  0  0  0  0  0  0  0  0  0
   26.3192   38.3958   66.1462 C   0  0  0  0  0  0  0  0  0  0  0  0
   20.6562   39.7868   65.6412 C   0  0  0  0  0  0  0  0  0  0  0  0
   27.7301   38.7525   65.8628 C   0  0  0  0  0  0  0  0  0  0  0  0
   22.2530   41.5902   66.4567 C   0  0  0  0  0  0  0  0  0  0  0  0
   28.2939   39.8190   66.6270 O   0  0  0  0  0  0  0  0  0  0  0  0
  1  8  1  0  0  0  0
  3  5  1  1  0  0  0
  3  9  1  0  0  0  0
  3 12  2  0  0  0  0
  3 22  1  0  0  0  0
  4  8  2  0  0  0  0
  4 19  1  0  0  0  0
  6 16  1  0  0  0  0
  6  7  1  0  0  0  0
  7 10  1  0  0  0  0
  8 11  1  0  0  0  0
 10 13  1  0  0  0  0
 10 21  1  0  0  0  0
 11 14  2  0  0  0  0
 13  2  1  6  0  0  0
 13 16  1  0  0  0  0
 14 15  1  0  0  0  0
 14 17  1  0  0  0  0
 16 18  1  6  0  0  0
 17 19  2  0  0  0  0
 17 21  1  0  0  0  0
 18 20  1  0  0  0  0
 20 22  1  0  0  0  0
M  CHG  1   9  -1
M  END
>  <CHROM.1>
85.18785876,33.43727840,-125.42711311,62.47271625,71.41839946,58.60793641
24.28786724,40.26457999,66.18582779,2.92000439,-0.24251576,-0.32262787

>  <Name>
ligand

>  <RI>
0

>  <Rbt.Current_Directory>
/home/itssahil/PROJECTS/Mol_Feturizer/New_Systems/rnas/2HOM

>  <Rbt.Executable>
rbdock ($Id: //depot/dev/client3/rdock/2013.1/src/exe/rbdock.cxx#4 $)

>  <Rbt.Library>
libRbt.so (2013.1, Build901 2013/11/27)

>  <Rbt.Parameter_File>
/export/apps/rDock/src/rDock_2013.1_src/data/scripts/dock_solv.prm

>  <Rbt.Receptor>
prm/pocket_docking_7.prm

>  <SCORE>
-22.1354

>  <SCORE.INTER>
-23.1243

>  <SCORE.INTER.CONST>
1

>  <SCORE.INTER.POLAR>
-2.46181

>  <SCORE.INTER.ROT>
6

>  <SCORE.INTER.SOLV>
19.6599

>  <SCORE.INTER.VDW>
-21.3634

>  <SCORE.INTER.norm>
-1.0511

>  <SCORE.INTRA>
0.988898

>  <SCORE.INTRA.DIHEDRAL>
0.456616

>  <SCORE.INTRA.DIHEDRAL.0>
5.05013

>  <SCORE.INTRA.POLAR>
0

>  <SCORE.INTRA.POLAR.0>
0

>  <SCORE.INTRA.REPUL>
0

>  <SCORE.INTRA.REPUL.0>
0

>  <SCORE.INTRA.SOLV>
1.56164

>  <SCORE.INTRA.SOLV.lig_0>
-54.1265

>  <SCORE.INTRA.VDW>
-0.0202299

>  <SCORE.INTRA.VDW.0>
-2.1303

>  <SCORE.INTRA.norm>
0.0449499

>  <SCORE.RESTR>
0

>  <SCORE.RESTR.CAVITY>
0

>  <SCORE.RESTR.norm>
0

>  <SCORE.SYSTEM>
0

>  <SCORE.SYSTEM.CONST>
0

>  <SCORE.SYSTEM.DIHEDRAL>
0

>  <SCORE.SYSTEM.SOLV>
0

>  <SCORE.SYSTEM.norm>
0

>  <SCORE.heavy>
22

>  <SCORE.norm>
-1.00615

>  <RMSD>
1.925

$$$$
ligand
 OpenBabel11021811443D
libRbt.so/2013.1/901 2013/11/27
 22 23  0  0  0  0  0  0  0  0999 V2000
   16.9808   39.3607   63.9511 C   0  0  0  0  0  0  0  0  0  0  0  0
   24.3294   40.9293   64.4363 C   0  0  0  0  0  0  0  0  0  0  0  0
   29.1056   39.7846   68.6141 P   0  0  1  0  0  0  0  0  0  0  0  0
   18.1567   41.1718   64.9809 N   0  0  0  0  0  0  0  0  0  0  0  0
   29.0757   39.3561   70.0360 O   0  0  0  0  0  0  0  0  0  0  0  0
   24.1319   39.2015   68.0670 S   0  0  0  0  0  0  0  0  0  0  0  0
   22.8351   40.2032   67.6962 C   0  0  0  0  0  0  0  0  0  0  0  0
   18.2361   39.8892   64.4829 C   0  0  0  0  0  0  0  0  0  0  0  0
   29.2150   41.2541   68.4241 O   0  5  0  0  0  0  0  0  0  0  0  0
   22.8819   40.7918   66.4819 N   0  0  0  0  0  0  0  0  0  0  0  0
   19.3299   39.1753   64.4876 N   0  0  0  0  0  0  0  0  0  0  0  0
   30.1380   39.0090   67.8549 O   0  0  0  0  0  0  0  0  0  0  0  0
   24.0439   40.4040   65.8124 C   0  0  2  0  0  0  0  0  0  0  0  0
   20.5074   39.7097   65.0003 C   0  0  0  0  0  0  0  0  0  0  0  0
   21.6065   38.9613   65.0137 N   0  0  0  0  0  0  0  0  0  0  0  0
   24.8536   39.5447   66.5170 C   0  0  1  0  0  0  0  0  0  0  0  0
   20.5069   41.0729   65.5049 C   0  0  0  0  0  0  0  0  0  0  0  0
   26.1567   38.9663   66.0967 C   0  0  0  0  0  0  0  0  0  0  0  0
   19.2890   41.7224   65.4873 C   0  0  0  0  0  0  0  0  0  0  0  0
   27.2939   39.7491   66.6375 C   0  0  0  0  0  0  0  0  0  0  0  0
   21.7869   41.7450   65.9637 C   0  0  0  0  0  0  0  0  0  0  0  0
   27.7055   39.4544   67.9728 O   0  0  0  0  0  0  0  0  0  0  0  0
  1  8  1  0  0  0  0
  3  5  1  1  0  0  0
  3  9  1  0  0  0  0
  3 12  2  0  0  0  0
  3 22  1  0  0  0  0
  4  8  2  0  0  0  0
  4 19  1  0  0  0  0
  6 16  1  0  0  0  0
  6  7  1  0  0  0  0
  7 10  1  0  0  0  0
  8 11  1  0  0  0  0
 10 13  1  0  0  0  0
 10 21  1  0  0  0  0
 11 14  2  0  0  0  0
 13  2  1  1  0  0  0
 13 16  1  0  0  0  0
 14 15  1  0  0  0  0
 14 17  1  0  0  0  0
 16 18  1  1  0  0  0
 17 19  2  0  0  0  0
 17 21  1  0  0  0  0
 18 20  1  0  0  0  0
 20 22  1  0  0  0  0
M  CHG  1   9  -1
M  END
>  <CHROM.1>
-75.91279262,-82.79955732,-27.38443999,83.34514473,159.51651832,177.51417224
24.05886473,39.98735048,66.60946992,-2.79299195,-0.06519511,1.54622876

>  <Name>
ligand

>  <RI>
0

>  <Rbt.Current_Directory>
/home/itssahil/PROJECTS/Mol_Feturizer/New_Systems/rnas/2HOM

>  <Rbt.Executable>
rbdock ($Id: //depot/dev/client3/rdock/2013.1/src/exe/rbdock.cxx#4 $)

>  <Rbt.Library>
libRbt.so (2013.1, Build901 2013/11/27)

>  <Rbt.Parameter_File>
/export/apps/rDock/src/rDock_2013.1_src/data/scripts/dock_solv.prm

>  <Rbt.Receptor>
prm/pocket_docking_3.prm

>  <SCORE>
-23.1764

>  <SCORE.INTER>
-26.829

>  <SCORE.INTER.CONST>
1

>  <SCORE.INTER.POLAR>
-2.81809

>  <SCORE.INTER.ROT>
6

>  <SCORE.INTER.SOLV>
17.4804

>  <SCORE.INTER.VDW>
-21.9191

>  <SCORE.INTER.norm>
-1.2195

>  <SCORE.INTRA>
3.65254

>  <SCORE.INTRA.DIHEDRAL>
3.49029

>  <SCORE.INTRA.DIHEDRAL.0>
5.05013

>  <SCORE.INTRA.POLAR>
0

>  <SCORE.INTRA.POLAR.0>
0

>  <SCORE.INTRA.REPUL>
0

>  <SCORE.INTRA.REPUL.0>
0

>  <SCORE.INTRA.SOLV>
4.84677

>  <SCORE.INTRA.SOLV.lig_0>
-54.1265

>  <SCORE.INTRA.VDW>
-0.515997

>  <SCORE.INTRA.VDW.0>
-2.1303

>  <SCORE.INTRA.norm>
0.166024

>  <SCORE.RESTR>
0

>  <SCORE.RESTR.CAVITY>
0

>  <SCORE.RESTR.norm>
0

>  <SCORE.SYSTEM>
0

>  <SCORE.SYSTEM.CONST>
0

>  <SCORE.SYSTEM.DIHEDRAL>
0

>  <SCORE.SYSTEM.SOLV>
0

>  <SCORE.SYSTEM.norm>
0

>  <SCORE.heavy>
22

>  <SCORE.norm>
-1.05347

>  <RMSD>
1.931

$$$$
ligand
 OpenBabel11021811443D
libRbt.so/2013.1/901 2013/11/27
 22 23  0  0  0  0  0  0  0  0999 V2000
   17.4535   40.0442   63.9316 C   0  0  0  0  0  0  0  0  0  0  0  0
   25.2478   41.5824   67.1222 C   0  0  0  0  0  0  0  0  0  0  0  0
   29.4468   36.8048   65.4046 P   0  0  1  0  0  0  0  0  0  0  0  0
   19.2881   39.3954   65.3232 N   0  0  0  0  0  0  0  0  0  0  0  0
   30.6729   36.2834   66.0612 O   0  0  0  0  0  0  0  0  0  0  0  0
   24.1042   37.7305   67.3695 S   0  0  0  0  0  0  0  0  0  0  0  0
   22.8443   38.8243   67.1722 C   0  0  0  0  0  0  0  0  0  0  0  0
   18.6787   40.4219   64.6346 C   0  0  0  0  0  0  0  0  0  0  0  0
   29.7076   37.7983   64.3312 O   0  5  0  0  0  0  0  0  0  0  0  0
   23.2071   40.1219   67.0860 N   0  0  0  0  0  0  0  0  0  0  0  0
   19.1461   41.6405   64.5853 N   0  0  0  0  0  0  0  0  0  0  0  0
   28.5660   35.6750   64.9672 O   0  0  0  0  0  0  0  0  0  0  0  0
   24.5951   40.2330   67.1867 C   0  0  2  0  0  0  0  0  0  0  0  0
   20.3141   41.9660   65.2671 C   0  0  0  0  0  0  0  0  0  0  0  0
   20.7847   43.2073   65.1900 N   0  0  0  0  0  0  0  0  0  0  0  0
   25.2569   39.0390   67.3507 C   0  0  1  0  0  0  0  0  0  0  0  0
   20.9880   40.9421   66.0485 C   0  0  0  0  0  0  0  0  0  0  0  0
   26.7186   38.8185   67.5061 C   0  0  0  0  0  0  0  0  0  0  0  0
   20.4293   39.6808   66.0000 C   0  0  0  0  0  0  0  0  0  0  0  0
   27.2664   38.0217   66.3821 C   0  0  0  0  0  0  0  0  0  0  0  0
   22.1952   41.2707   66.9058 C   0  0  0  0  0  0  0  0  0  0  0  0
   28.6409   37.6437   66.4665 O   0  0  0  0  0  0  0  0  0  0  0  0
  1  8  1  0  0  0  0
  3  5  1  1  0  0  0
  3  9  1  0  0  0  0
  3 12  2  0  0  0  0
  3 22  1  0  0  0  0
  4  8  2  0  0  0  0
  4 19  1  0  0  0  0
  6 16  1  0  0  0  0
  6  7  1  0  0  0  0
  7 10  1  0  0  0  0
  8 11  1  0  0  0  0
 10 13  1  0  0  0  0
 10 21  1  0  0  0  0
 11 14  2  0  0  0  0
 13  2  1  1  0  0  0
 13 16  1  0  0  0  0
 14 15  1  0  0  0  0
 14 17  1  0  0  0  0
 16 18  1  1  0  0  0
 17 19  2  0  0  0  0
 17 21  1  0  0  0  0
 18 20  1  0  0  0  0
 20 22  1  0  0  0  0
M  CHG  1   9  -1
M  END
>  <CHROM.1>
-35.01103646,63.82878054,-150.16807778,-174.94227061,-179.88322051,-162.34928484
24.37549534,39.11307858,66.02991633,2.82459866,-0.23821827,0.49908065

>  <Name>
ligand

>  <RI>
0

>  <Rbt.Current_Directory>
/home/itssahil/PROJECTS/Mol_Feturizer/New_Systems/rnas/2HOM

>  <Rbt.Executable>
rbdock ($Id: //depot/dev/client3/rdock/2013.1/src/exe/rbdock.cxx#4 $)

>  <Rbt.Library>
libRbt.so (2013.1, Build901 2013/11/27)

>  <Rbt.Parameter_File>
/export/apps/rDock/src/rDock_2013.1_src/data/scripts/dock_solv.prm

>  <Rbt.Receptor>
prm/pocket_docking_7.prm

>  <SCORE>
-22.9639

>  <SCORE.INTER>
-24.3798

>  <SCORE.INTER.CONST>
1

>  <SCORE.INTER.POLAR>
-1.30767

>  <SCORE.INTER.ROT>
6

>  <SCORE.INTER.SOLV>
16.6318

>  <SCORE.INTER.VDW>
-25.0382

>  <SCORE.INTER.norm>
-1.10817

>  <SCORE.INTRA>
1.41589

>  <SCORE.INTRA.DIHEDRAL>
0.531964

>  <SCORE.INTRA.DIHEDRAL.0>
5.05013

>  <SCORE.INTRA.POLAR>
0

>  <SCORE.INTRA.POLAR.0>
0

>  <SCORE.INTRA.REPUL>
0

>  <SCORE.INTRA.REPUL.0>
0

>  <SCORE.INTRA.SOLV>
0.559882

>  <SCORE.INTRA.SOLV.lig_0>
-54.1265

>  <SCORE.INTRA.VDW>
0.869968

>  <SCORE.INTRA.VDW.0>
-2.1303

>  <SCORE.INTRA.norm>
0.0643587

>  <SCORE.RESTR>
0

>  <SCORE.RESTR.CAVITY>
0

>  <SCORE.RESTR.norm>
0

>  <SCORE.SYSTEM>
0

>  <SCORE.SYSTEM.CONST>
0

>  <SCORE.SYSTEM.DIHEDRAL>
0

>  <SCORE.SYSTEM.SOLV>
0

>  <SCORE.SYSTEM.norm>
0

>  <SCORE.heavy>
22

>  <SCORE.norm>
-1.04381

>  <RMSD>
1.937

$$$$
ligand
 OpenBabel11021811443D
libRbt.so/2013.1/901 2013/11/27
 22 23  0  0  0  0  0  0  0  0999 V2000
   18.1558   40.4325   64.6281 C   0  0  0  0  0  0  0  0  0  0  0  0
   24.7253   38.6545   68.2200 C   0  0  0  0  0  0  0  0  0  0  0  0
   29.9310   39.7211   66.7940 P   0  0  1  0  0  0  0  0  0  0  0  0
   20.0509   39.5743   65.8094 N   0  0  0  0  0  0  0  0  0  0  0  0
   30.7015   40.7656   67.5163 O   0  0  0  0  0  0  0  0  0  0  0  0
   26.3839   40.1558   64.8731 S   0  0  0  0  0  0  0  0  0  0  0  0
   25.0378   40.9957   65.4257 C   0  0  0  0  0  0  0  0  0  0  0  0
   19.4644   40.6797   65.2319 C   0  0  0  0  0  0  0  0  0  0  0  0
   29.2297   40.2132   65.5803 O   0  5  0  0  0  0  0  0  0  0  0  0
   24.4672   40.5085   66.5482 N   0  0  0  0  0  0  0  0  0  0  0  0
   20.0189   41.8618   65.1995 N   0  0  0  0  0  0  0  0  0  0  0  0
   30.7889   38.5201   66.5385 O   0  0  0  0  0  0  0  0  0  0  0  0
   25.1681   39.3831   66.9853 C   0  0  2  0  0  0  0  0  0  0  0  0
   21.2647   42.0623   65.7850 C   0  0  0  0  0  0  0  0  0  0  0  0
   21.8218   43.2683   65.7258 N   0  0  0  0  0  0  0  0  0  0  0  0
   26.2405   39.0327   66.1996 C   0  0  1  0  0  0  0  0  0  0  0  0
   21.9237   40.9497   66.4489 C   0  0  0  0  0  0  0  0  0  0  0  0
   27.1695   37.8866   66.3800 C   0  0  0  0  0  0  0  0  0  0  0  0
   21.2665   39.7372   66.3904 C   0  0  0  0  0  0  0  0  0  0  0  0
   27.9959   38.0490   67.6003 C   0  0  0  0  0  0  0  0  0  0  0  0
   23.2243   41.1405   67.2055 C   0  0  0  0  0  0  0  0  0  0  0  0
   28.7427   39.2604   67.7195 O   0  0  0  0  0  0  0  0  0  0  0  0
  1  8  1  0  0  0  0
  3  5  1  1  0  0  0
  3  9  1  0  0  0  0
  3 12  2  0  0  0  0
  3 22  1  0  0  0  0
  4  8  2  0  0  0  0
  4 19  1  0  0  0  0
  6 16  1  0  0  0  0
  6  7  1  0  0  0  0
  7 10  1  0  0  0  0
  8 11  1  0  0  0  0
 10 13  1  0  0  0  0
 10 21  1  0  0  0  0
 11 14  2  0  0  0  0
 13  2  1  6  0  0  0
 13 16  1  0  0  0  0
 14 15  1  0  0  0  0
 14 17  1  0  0  0  0
 16 18  1  6  0  0  0
 17 19  2  0  0  0  0
 17 21  1  0  0  0  0
 18 20  1  0  0  0  0
 20 22  1  0  0  0  0
M  CHG  1   9  -1
M  END
>  <CHROM.1>
71.45815401,113.56520632,-109.86383356,-54.52082346,-65.27876948,-161.10360371
25.24219705,40.08518505,66.28042406,2.93440772,-0.04647391,-0.42943517

>  <Name>
ligand

>  <RI>
0

>  <Rbt.Current_Directory>
/home/itssahil/PROJECTS/Mol_Feturizer/New_Systems/rnas/2HOM

>  <Rbt.Executable>
rbdock ($Id: //depot/dev/client3/rdock/2013.1/src/exe/rbdock.cxx#4 $)

>  <Rbt.Library>
libRbt.so (2013.1, Build901 2013/11/27)

>  <Rbt.Parameter_File>
/export/apps/rDock/src/rDock_2013.1_src/data/scripts/dock_solv.prm

>  <Rbt.Receptor>
prm/pocket_docking_2.prm

>  <SCORE>
-20.3356

>  <SCORE.INTER>
-21.6016

>  <SCORE.INTER.CONST>
1

>  <SCORE.INTER.POLAR>
-2.56378

>  <SCORE.INTER.ROT>
6

>  <SCORE.INTER.SOLV>
15.708

>  <SCORE.INTER.VDW>
-18.6911

>  <SCORE.INTER.norm>
-0.98189

>  <SCORE.INTRA>
1.02074

>  <SCORE.INTRA.DIHEDRAL>
0.360828

>  <SCORE.INTRA.DIHEDRAL.0>
5.05013

>  <SCORE.INTRA.POLAR>
0

>  <SCORE.INTRA.POLAR.0>
0

>  <SCORE.INTRA.REPUL>
0

>  <SCORE.INTRA.REPUL.0>
0

>  <SCORE.INTRA.SOLV>
2.65339

>  <SCORE.INTRA.SOLV.lig_0>
-54.1265

>  <SCORE.INTRA.VDW>
-0.486373

>  <SCORE.INTRA.VDW.0>
-2.1303

>  <SCORE.INTRA.norm>
0.0463971

>  <SCORE.RESTR>
0.24519

>  <SCORE.RESTR.CAVITY>
0.24519

>  <SCORE.RESTR.norm>
0.011145

>  <SCORE.SYSTEM>
0

>  <SCORE.SYSTEM.CONST>
0

>  <SCORE.SYSTEM.DIHEDRAL>
0

>  <SCORE.SYSTEM.SOLV>
0

>  <SCORE.SYSTEM.norm>
0

>  <SCORE.heavy>
22

>  <SCORE.norm>
-0.924348

>  <RMSD>
1.943

$$$$
ligand
 OpenBabel11021811443D
libRbt.so/2013.1/901 2013/11/27
 22 23  0  0  0  0  0  0  0  0999 V2000
   17.3582   39.8599   63.8776 C   0  0  0  0  0  0  0  0  0  0  0  0
   24.2717   40.7573   64.5840 C   0  0  0  0  0  0  0  0  0  0  0  0
   28.8294   39.8980   68.4631 P   0  0  1  0  0  0  0  0  0  0  0  0
   18.7521   41.6306   64.6807 N   0  0  0  0  0  0  0  0  0  0  0  0
   28.2381   39.6344   69.7999 O   0  0  0  0  0  0  0  0  0  0  0  0
   24.4386   38.8836   68.1432 S   0  0  0  0  0  0  0  0  0  0  0  0
   23.2134   40.0254   68.0091 C   0  0  0  0  0  0  0  0  0  0  0  0
   18.5644   40.2679   64.5962 C   0  0  0  0  0  0  0  0  0  0  0  0
   29.2604   41.3045   68.2555 O   0  5  0  0  0  0  0  0  0  0  0  0
   23.1398   40.6646   66.8221 N   0  0  0  0  0  0  0  0  0  0  0  0
   19.3765   39.3896   65.1208 N   0  0  0  0  0  0  0  0  0  0  0  0
   29.9012   38.8970   68.1578 O   0  0  0  0  0  0  0  0  0  0  0  0
   24.1415   40.1967   65.9696 C   0  0  2  0  0  0  0  0  0  0  0  0
   20.5161   39.8124   65.7971 C   0  0  0  0  0  0  0  0  0  0  0  0
   21.3212   38.9043   66.3406 N   0  0  0  0  0  0  0  0  0  0  0  0
   24.9526   39.2285   66.5128 C   0  0  1  0  0  0  0  0  0  0  0  0
   20.7992   41.2353   65.8895 C   0  0  0  0  0  0  0  0  0  0  0  0
   26.1103   38.5453   65.8786 C   0  0  0  0  0  0  0  0  0  0  0  0
   19.8556   42.0755   65.3334 C   0  0  0  0  0  0  0  0  0  0  0  0
   27.2719   38.4863   66.7982 C   0  0  0  0  0  0  0  0  0  0  0  0
   22.0859   41.7453   66.5097 C   0  0  0  0  0  0  0  0  0  0  0  0
   27.6980   39.7178   67.3823 O   0  0  0  0  0  0  0  0  0  0  0  0
  1  8  1  0  0  0  0
  3  5  1  1  0  0  0
  3  9  1  0  0  0  0
  3 12  2  0  0  0  0
  3 22  1  0  0  0  0
  4  8  2  0  0  0  0
  4 19  1  0  0  0  0
  6 16  1  0  0  0  0
  6  7  1  0  0  0  0
  7 10  1  0  0  0  0
  8 11  1  0  0  0  0
 10 13  1  0  0  0  0
 10 21  1  0  0  0  0
 11 14  2  0  0  0  0
 13  2  1  1  0  0  0
 13 16  1  0  0  0  0
 14 15  1  0  0  0  0
 14 17  1  0  0  0  0
 16 18  1  1  0  0  0
 17 19  2  0  0  0  0
 17 21  1  0  0  0  0
 18 20  1  0  0  0  0
 20 22  1  0  0  0  0
M  CHG  1   9  -1
M  END
>  <CHROM.1>
-90.96998406,-45.31319083,9.09913935,-52.68144676,175.17376945,-83.35290785
24.12550411,39.96585144,66.73317573,3.00091621,-0.31751300,-0.15999788

>  <Name>
ligand

>  <RI>
0

>  <Rbt.Current_Directory>
/home/itssahil/PROJECTS/Mol_Feturizer/New_Systems/rnas/2HOM

>  <Rbt.Executable>
rbdock ($Id: //depot/dev/client3/rdock/2013.1/src/exe/rbdock.cxx#4 $)

>  <Rbt.Library>
libRbt.so (2013.1, Build901 2013/11/27)

>  <Rbt.Parameter_File>
/export/apps/rDock/src/rDock_2013.1_src/data/scripts/dock_solv.prm

>  <Rbt.Receptor>
prm/pocket_docking_3.prm

>  <SCORE>
-25.3218

>  <SCORE.INTER>
-28.1775

>  <SCORE.INTER.CONST>
1

>  <SCORE.INTER.POLAR>
-2.82044

>  <SCORE.INTER.ROT>
6

>  <SCORE.INTER.SOLV>
15.6032

>  <SCORE.INTER.VDW>
-22.1846

>  <SCORE.INTER.norm>
-1.2808

>  <SCORE.INTRA>
2.85574

>  <SCORE.INTRA.DIHEDRAL>
1.25527

>  <SCORE.INTRA.DIHEDRAL.0>
5.05013

>  <SCORE.INTRA.POLAR>
0

>  <SCORE.INTRA.POLAR.0>
0

>  <SCORE.INTRA.REPUL>
0

>  <SCORE.INTRA.REPUL.0>
0

>  <SCORE.INTRA.SOLV>
4.32105

>  <SCORE.INTRA.SOLV.lig_0>
-54.1265

>  <SCORE.INTRA.VDW>
0.0675814

>  <SCORE.INTRA.VDW.0>
-2.1303

>  <SCORE.INTRA.norm>
0.129806

>  <SCORE.RESTR>
0

>  <SCORE.RESTR.CAVITY>
0

>  <SCORE.RESTR.norm>
0

>  <SCORE.SYSTEM>
0

>  <SCORE.SYSTEM.CONST>
0

>  <SCORE.SYSTEM.DIHEDRAL>
0

>  <SCORE.SYSTEM.SOLV>
0

>  <SCORE.SYSTEM.norm>
0

>  <SCORE.heavy>
22

>  <SCORE.norm>
-1.15099

>  <RMSD>
1.943

$$$$
ligand
 OpenBabel11021811443D
libRbt.so/2013.1/901 2013/11/27
 22 23  0  0  0  0  0  0  0  0999 V2000
   17.8687   40.1019   64.1751 C   0  0  0  0  0  0  0  0  0  0  0  0
   24.7735   42.3177   64.8976 C   0  0  0  0  0  0  0  0  0  0  0  0
   29.2071   39.8325   67.4703 P   0  0  1  0  0  0  0  0  0  0  0  0
   19.3831   41.7912   64.9342 N   0  0  0  0  0  0  0  0  0  0  0  0
   30.2750   40.8561   67.6050 O   0  0  0  0  0  0  0  0  0  0  0  0
   25.4497   38.8758   66.8732 S   0  0  0  0  0  0  0  0  0  0  0  0
   24.0581   39.6916   67.3428 C   0  0  0  0  0  0  0  0  0  0  0  0
   19.0623   40.4509   64.9442 C   0  0  0  0  0  0  0  0  0  0  0  0
   29.5091   38.5458   68.1490 O   0  5  0  0  0  0  0  0  0  0  0  0
   23.8126   40.8484   66.6911 N   0  0  0  0  0  0  0  0  0  0  0  0
   19.7450   39.5461   65.5933 N   0  0  0  0  0  0  0  0  0  0  0  0
   27.8783   40.4084   67.8528 O   0  0  0  0  0  0  0  0  0  0  0  0
   24.8184   41.0854   65.7524 C   0  0  2  0  0  0  0  0  0  0  0  0
   20.8767   39.9126   66.3143 C   0  0  0  0  0  0  0  0  0  0  0  0
   21.5481   38.9805   66.9841 N   0  0  0  0  0  0  0  0  0  0  0  0
   25.8009   40.1246   65.7077 C   0  0  1  0  0  0  0  0  0  0  0  0
   21.2978   41.3039   66.3143 C   0  0  0  0  0  0  0  0  0  0  0  0
   27.0072   40.0913   64.8400 C   0  0  0  0  0  0  0  0  0  0  0  0
   20.4828   42.1811   65.6274 C   0  0  0  0  0  0  0  0  0  0  0  0
   27.9395   39.0150   65.2533 C   0  0  0  0  0  0  0  0  0  0  0  0
   22.5881   41.7379   66.9833 C   0  0  0  0  0  0  0  0  0  0  0  0
   29.1179   39.4136   65.9546 O   0  0  0  0  0  0  0  0  0  0  0  0
  1  8  1  0  0  0  0
  3  5  1  1  0  0  0
  3  9  1  0  0  0  0
  3 12  2  0  0  0  0
  3 22  1  0  0  0  0
  4  8  2  0  0  0  0
  4 19  1  0  0  0  0
  6 16  1  0  0  0  0
  6  7  1  0  0  0  0
  7 10  1  0  0  0  0
  8 11  1  0  0  0  0
 10 13  1  0  0  0  0
 10 21  1  0  0  0  0
 11 14  2  0  0  0  0
 13  2  1  1  0  0  0
 13 16  1  0  0  0  0
 14 15  1  0  0  0  0
 14 17  1  0  0  0  0
 16 18  1  1  0  0  0
 17 19  2  0  0  0  0
 17 21  1  0  0  0  0
 18 20  1  0  0  0  0
 20 22  1  0  0  0  0
M  CHG  1   9  -1
M  END
>  <CHROM.1>
-81.53588921,-9.31492293,45.17318431,-104.78475031,77.26454003,-147.54790326
24.69771353,40.20030094,66.31957741,2.96706725,-0.11121049,-0.48354890

>  <Name>
ligand

>  <RI>
0

>  <Rbt.Current_Directory>
/home/itssahil/PROJECTS/Mol_Feturizer/New_Systems/rnas/2HOM

>  <Rbt.Executable>
rbdock ($Id: //depot/dev/client3/rdock/2013.1/src/exe/rbdock.cxx#4 $)

>  <Rbt.Library>
libRbt.so (2013.1, Build901 2013/11/27)

>  <Rbt.Parameter_File>
/export/apps/rDock/src/rDock_2013.1_src/data/scripts/dock_solv.prm

>  <Rbt.Receptor>
prm/pocket_docking_4.prm

>  <SCORE>
-15.0942

>  <SCORE.INTER>
-21.6108

>  <SCORE.INTER.CONST>
1

>  <SCORE.INTER.POLAR>
-2.5634

>  <SCORE.INTER.ROT>
6

>  <SCORE.INTER.SOLV>
14.2409

>  <SCORE.INTER.VDW>
-18.2095

>  <SCORE.INTER.norm>
-0.982309

>  <SCORE.INTRA>
6.51663

>  <SCORE.INTRA.DIHEDRAL>
7.0183

>  <SCORE.INTRA.DIHEDRAL.0>
5.05013

>  <SCORE.INTRA.POLAR>
0

>  <SCORE.INTRA.POLAR.0>
0

>  <SCORE.INTRA.REPUL>
0

>  <SCORE.INTRA.REPUL.0>
0

>  <SCORE.INTRA.SOLV>
4.59142

>  <SCORE.INTRA.SOLV.lig_0>
-54.1265

>  <SCORE.INTRA.VDW>
0.711767

>  <SCORE.INTRA.VDW.0>
-2.1303

>  <SCORE.INTRA.norm>
0.29621

>  <SCORE.RESTR>
0

>  <SCORE.RESTR.CAVITY>
0

>  <SCORE.RESTR.norm>
0

>  <SCORE.SYSTEM>
0

>  <SCORE.SYSTEM.CONST>
0

>  <SCORE.SYSTEM.DIHEDRAL>
0

>  <SCORE.SYSTEM.SOLV>
0

>  <SCORE.SYSTEM.norm>
0

>  <SCORE.heavy>
22

>  <SCORE.norm>
-0.686099

>  <RMSD>
1.945

$$$$
ligand
 OpenBabel11021811443D
libRbt.so/2013.1/901 2013/11/27
 22 23  0  0  0  0  0  0  0  0999 V2000
   18.3643   40.3225   64.8709 C   0  0  0  0  0  0  0  0  0  0  0  0
   26.0812   40.6979   65.6857 C   0  0  0  0  0  0  0  0  0  0  0  0
   29.0609   39.6073   68.9272 P   0  0  1  0  0  0  0  0  0  0  0  0
   20.2979   39.5464   66.0465 N   0  0  0  0  0  0  0  0  0  0  0  0
   28.3464   39.2514   70.1798 O   0  0  0  0  0  0  0  0  0  0  0  0
   25.2691   37.7131   68.2622 S   0  0  0  0  0  0  0  0  0  0  0  0
   24.1490   38.9653   68.2648 C   0  0  0  0  0  0  0  0  0  0  0  0
   19.6862   40.6131   65.4242 C   0  0  0  0  0  0  0  0  0  0  0  0
   28.2583   40.4239   67.9805 O   0  5  0  0  0  0  0  0  0  0  0  0
   24.4028   39.9762   67.4064 N   0  0  0  0  0  0  0  0  0  0  0  0
   20.2288   41.7958   65.3109 N   0  0  0  0  0  0  0  0  0  0  0  0
   30.3993   40.2032   69.2388 O   0  0  0  0  0  0  0  0  0  0  0  0
   25.5808   39.7159   66.7038 C   0  0  2  0  0  0  0  0  0  0  0  0
   21.4879   42.0383   65.8503 C   0  0  0  0  0  0  0  0  0  0  0  0
   22.0321   43.2433   65.7087 N   0  0  0  0  0  0  0  0  0  0  0  0
   26.1987   38.5334   67.0357 C   0  0  1  0  0  0  0  0  0  0  0  0
   22.1745   40.9697   66.5572 C   0  0  0  0  0  0  0  0  0  0  0  0
   27.4651   37.9796   66.4890 C   0  0  0  0  0  0  0  0  0  0  0  0
   21.5270   39.7508   66.5843 C   0  0  0  0  0  0  0  0  0  0  0  0
   28.3181   37.4202   67.5650 C   0  0  0  0  0  0  0  0  0  0  0  0
   23.4930   41.2126   67.2664 C   0  0  0  0  0  0  0  0  0  0  0  0
   29.3152   38.2824   68.1144 O   0  0  0  0  0  0  0  0  0  0  0  0
  1  8  1  0  0  0  0
  3  5  1  1  0  0  0
  3  9  1  0  0  0  0
  3 12  2  0  0  0  0
  3 22  1  0  0  0  0
  4  8  2  0  0  0  0
  4 19  1  0  0  0  0
  6 16  1  0  0  0  0
  6  7  1  0  0  0  0
  7 10  1  0  0  0  0
  8 11  1  0  0  0  0
 10 13  1  0  0  0  0
 10 21  1  0  0  0  0
 11 14  2  0  0  0  0
 13  2  1  1  0  0  0
 13 16  1  0  0  0  0
 14 15  1  0  0  0  0
 14 17  1  0  0  0  0
 16 18  1  1  0  0  0
 17 19  2  0  0  0  0
 17 21  1  0  0  0  0
 18 20  1  0  0  0  0
 20 22  1  0  0  0  0
M  CHG  1   9  -1
M  END
>  <CHROM.1>
-73.11120902,-42.75111985,-153.39028205,-94.39198766,64.86371971,63.52676451
25.05557010,39.77557545,67.27322226,2.87775173,-0.29340803,-0.16802671

>  <Name>
ligand

>  <RI>
0

>  <Rbt.Current_Directory>
/home/itssahil/PROJECTS/Mol_Feturizer/New_Systems/rnas/2HOM

>  <Rbt.Executable>
rbdock ($Id: //depot/dev/client3/rdock/2013.1/src/exe/rbdock.cxx#4 $)

>  <Rbt.Library>
libRbt.so (2013.1, Build901 2013/11/27)

>  <Rbt.Parameter_File>
/export/apps/rDock/src/rDock_2013.1_src/data/scripts/dock_solv.prm

>  <Rbt.Receptor>
prm/pocket_docking_7.prm

>  <SCORE>
-18.9454

>  <SCORE.INTER>
-21.5841

>  <SCORE.INTER.CONST>
1

>  <SCORE.INTER.POLAR>
-2.49166

>  <SCORE.INTER.ROT>
6

>  <SCORE.INTER.SOLV>
14.8435

>  <SCORE.INTER.VDW>
-18.6317

>  <SCORE.INTER.norm>
-0.981094

>  <SCORE.INTRA>
2.63866

>  <SCORE.INTRA.DIHEDRAL>
3.42656

>  <SCORE.INTRA.DIHEDRAL.0>
5.05013

>  <SCORE.INTRA.POLAR>
0

>  <SCORE.INTRA.POLAR.0>
0

>  <SCORE.INTRA.REPUL>
0

>  <SCORE.INTRA.REPUL.0>
0

>  <SCORE.INTRA.SOLV>
2.94575

>  <SCORE.INTRA.SOLV.lig_0>
-54.1265

>  <SCORE.INTRA.VDW>
-0.547501

>  <SCORE.INTRA.VDW.0>
-2.1303

>  <SCORE.INTRA.norm>
0.119939

>  <SCORE.RESTR>
0

>  <SCORE.RESTR.CAVITY>
0

>  <SCORE.RESTR.norm>
0

>  <SCORE.SYSTEM>
0

>  <SCORE.SYSTEM.CONST>
0

>  <SCORE.SYSTEM.DIHEDRAL>
0

>  <SCORE.SYSTEM.SOLV>
0

>  <SCORE.SYSTEM.norm>
0

>  <SCORE.heavy>
22

>  <SCORE.norm>
-0.861155

>  <RMSD>
1.950

$$$$
ligand
 OpenBabel11021811443D
libRbt.so/2013.1/901 2013/11/27
 22 23  0  0  0  0  0  0  0  0999 V2000
   17.4321   39.8268   63.9389 C   0  0  0  0  0  0  0  0  0  0  0  0
   23.7484   38.8095   67.3255 C   0  0  0  0  0  0  0  0  0  0  0  0
   28.8504   39.9444   68.3718 P   0  0  1  0  0  0  0  0  0  0  0  0
   19.5228   39.3057   64.9786 N   0  0  0  0  0  0  0  0  0  0  0  0
   27.9931   39.9961   69.5837 O   0  0  0  0  0  0  0  0  0  0  0  0
   25.7302   40.7627   64.4161 S   0  0  0  0  0  0  0  0  0  0  0  0
   24.3139   41.5107   64.9232 C   0  0  0  0  0  0  0  0  0  0  0  0
   18.6751   40.3020   64.5447 C   0  0  0  0  0  0  0  0  0  0  0  0
   29.4485   41.2509   67.9939 O   0  5  0  0  0  0  0  0  0  0  0  0
   23.6346   40.8718   65.8996 N   0  0  0  0  0  0  0  0  0  0  0  0
   18.9437   41.5765   64.6415 N   0  0  0  0  0  0  0  0  0  0  0  0
   29.8575   38.8418   68.4893 O   0  0  0  0  0  0  0  0  0  0  0  0
   24.3077   39.7020   66.2569 C   0  0  2  0  0  0  0  0  0  0  0  0
   20.1355   41.9942   65.2248 C   0  0  0  0  0  0  0  0  0  0  0  0
   20.4000   43.2954   65.2976 N   0  0  0  0  0  0  0  0  0  0  0  0
   25.4670   39.4688   65.5554 C   0  0  1  0  0  0  0  0  0  0  0  0
   21.0591   40.9982   65.7423 C   0  0  0  0  0  0  0  0  0  0  0  0
   26.3953   38.3150   65.6826 C   0  0  0  0  0  0  0  0  0  0  0  0
   20.6936   39.6805   65.5535 C   0  0  0  0  0  0  0  0  0  0  0  0
   27.1998   38.4042   66.9248 C   0  0  0  0  0  0  0  0  0  0  0  0
   22.3140   41.4003   66.4934 C   0  0  0  0  0  0  0  0  0  0  0  0
   27.9327   39.6116   67.1358 O   0  0  0  0  0  0  0  0  0  0  0  0
  1  8  1  0  0  0  0
  3  5  1  1  0  0  0
  3  9  1  0  0  0  0
  3 12  2  0  0  0  0
  3 22  1  0  0  0  0
  4  8  2  0  0  0  0
  4 19  1  0  0  0  0
  6 16  1  0  0  0  0
  6  7  1  0  0  0  0
  7 10  1  0  0  0  0
  8 11  1  0  0  0  0
 10 13  1  0  0  0  0
 10 21  1  0  0  0  0
 11 14  2  0  0  0  0
 13  2  1  6  0  0  0
 13 16  1  0  0  0  0
 14 15  1  0  0  0  0
 14 17  1  0  0  0  0
 16 18  1  6  0  0  0
 17 19  2  0  0  0  0
 17 21  1  0  0  0  0
 18 20  1  0  0  0  0
 20 22  1  0  0  0  0
M  CHG  1   9  -1
M  END
>  <CHROM.1>
86.19971077,106.66105157,-122.94974301,-54.00435062,179.82915356,-64.34814416
24.34281925,40.25257941,66.23369400,2.96947865,-0.29782405,-0.18529132

>  <Name>
ligand

>  <RI>
0

>  <Rbt.Current_Directory>
/home/itssahil/PROJECTS/Mol_Feturizer/New_Systems/rnas/2HOM

>  <Rbt.Executable>
rbdock ($Id: //depot/dev/client3/rdock/2013.1/src/exe/rbdock.cxx#4 $)

>  <Rbt.Library>
libRbt.so (2013.1, Build901 2013/11/27)

>  <Rbt.Parameter_File>
/export/apps/rDock/src/rDock_2013.1_src/data/scripts/dock_solv.prm

>  <Rbt.Receptor>
prm/pocket_docking_4.prm

>  <SCORE>
-25.5356

>  <SCORE.INTER>
-25.0399

>  <SCORE.INTER.CONST>
1

>  <SCORE.INTER.POLAR>
-2.82044

>  <SCORE.INTER.ROT>
6

>  <SCORE.INTER.SOLV>
20.4391

>  <SCORE.INTER.VDW>
-21.7048

>  <SCORE.INTER.norm>
-1.13818

>  <SCORE.INTRA>
-0.49575

>  <SCORE.INTRA.DIHEDRAL>
-0.23594

>  <SCORE.INTRA.DIHEDRAL.0>
5.05013

>  <SCORE.INTRA.POLAR>
0

>  <SCORE.INTRA.POLAR.0>
0

>  <SCORE.INTRA.REPUL>
0

>  <SCORE.INTRA.REPUL.0>
0

>  <SCORE.INTRA.SOLV>
-0.0731336

>  <SCORE.INTRA.SOLV.lig_0>
-54.1265

>  <SCORE.INTRA.VDW>
-0.341213

>  <SCORE.INTRA.VDW.0>
-2.1303

>  <SCORE.INTRA.norm>
-0.0225341

>  <SCORE.RESTR>
0

>  <SCORE.RESTR.CAVITY>
0

>  <SCORE.RESTR.norm>
0

>  <SCORE.SYSTEM>
0

>  <SCORE.SYSTEM.CONST>
0

>  <SCORE.SYSTEM.DIHEDRAL>
0

>  <SCORE.SYSTEM.SOLV>
0

>  <SCORE.SYSTEM.norm>
0

>  <SCORE.heavy>
22

>  <SCORE.norm>
-1.16071

>  <RMSD>
1.958

$$$$
ligand
 OpenBabel11021811443D
libRbt.so/2013.1/901 2013/11/27
 22 23  0  0  0  0  0  0  0  0999 V2000
   16.9730   39.9074   63.6758 C   0  0  0  0  0  0  0  0  0  0  0  0
   25.0638   41.1373   66.0649 C   0  0  0  0  0  0  0  0  0  0  0  0
   29.5570   37.5183   64.9561 P   0  0  1  0  0  0  0  0  0  0  0  0
   19.0551   39.1540   64.5814 N   0  0  0  0  0  0  0  0  0  0  0  0
   30.2635   37.1597   63.6998 O   0  0  0  0  0  0  0  0  0  0  0  0
   23.8583   37.3025   66.2833 S   0  0  0  0  0  0  0  0  0  0  0  0
   22.6135   38.4306   66.3035 C   0  0  0  0  0  0  0  0  0  0  0  0
   18.2566   40.2393   64.2923 C   0  0  0  0  0  0  0  0  0  0  0  0
   30.1340   36.8980   66.1765 O   0  5  0  0  0  0  0  0  0  0  0  0
   22.9970   39.7231   66.2300 N   0  0  0  0  0  0  0  0  0  0  0  0
   18.6018   41.4771   64.5263 N   0  0  0  0  0  0  0  0  0  0  0  0
   29.3994   39.0041   65.0627 O   0  0  0  0  0  0  0  0  0  0  0  0
   24.3888   39.8002   66.1526 C   0  0  2  0  0  0  0  0  0  0  0  0
   19.8304   41.7574   65.1154 C   0  0  0  0  0  0  0  0  0  0  0  0
   20.1724   43.0246   65.3289 N   0  0  0  0  0  0  0  0  0  0  0  0
   25.0337   38.5861   66.1734 C   0  0  1  0  0  0  0  0  0  0  0  0
   20.7068   40.6583   65.4853 C   0  0  0  0  0  0  0  0  0  0  0  0
   26.4966   38.3279   66.1252 C   0  0  0  0  0  0  0  0  0  0  0  0
   20.2600   39.3938   65.1580 C   0  0  0  0  0  0  0  0  0  0  0  0
   26.8783   37.6169   64.8814 C   0  0  0  0  0  0  0  0  0  0  0  0
   22.0017   40.9002   66.2372 C   0  0  0  0  0  0  0  0  0  0  0  0
   28.1110   36.8963   64.9002 O   0  0  0  0  0  0  0  0  0  0  0  0
  1  8  1  0  0  0  0
  3  5  1  6  0  0  0
  3  9  1  0  0  0  0
  3 12  2  0  0  0  0
  3 22  1  0  0  0  0
  4  8  2  0  0  0  0
  4 19  1  0  0  0  0
  6 16  1  0  0  0  0
  6  7  1  0  0  0  0
  7 10  1  0  0  0  0
  8 11  1  0  0  0  0
 10 13  1  0  0  0  0
 10 21  1  0  0  0  0
 11 14  2  0  0  0  0
 13  2  1  1  0  0  0
 13 16  1  0  0  0  0
 14 15  1  0  0  0  0
 14 17  1  0  0  0  0
 16 18  1  1  0  0  0
 17 19  2  0  0  0  0
 17 21  1  0  0  0  0
 18 20  1  0  0  0  0
 20 22  1  0  0  0  0
M  CHG  1   9  -1
M  END
>  <CHROM.1>
-37.30033313,65.78680845,-164.27531011,-158.39692937,-69.45252094,-116.10298490
24.17732843,39.06019451,65.34875725,2.84073331,-0.05857268,0.10554466

>  <Name>
ligand

>  <RI>
0

>  <Rbt.Current_Directory>
/home/itssahil/PROJECTS/Mol_Feturizer/New_Systems/rnas/2HOM

>  <Rbt.Executable>
rbdock ($Id: //depot/dev/client3/rdock/2013.1/src/exe/rbdock.cxx#4 $)

>  <Rbt.Library>
libRbt.so (2013.1, Build901 2013/11/27)

>  <Rbt.Parameter_File>
/export/apps/rDock/src/rDock_2013.1_src/data/scripts/dock_solv.prm

>  <Rbt.Receptor>
prm/pocket_docking_7.prm

>  <SCORE>
-22.2813

>  <SCORE.INTER>
-26.3343

>  <SCORE.INTER.CONST>
1

>  <SCORE.INTER.POLAR>
-1.63459

>  <SCORE.INTER.ROT>
6

>  <SCORE.INTER.SOLV>
17.6712

>  <SCORE.INTER.VDW>
-25.5979

>  <SCORE.INTER.norm>
-1.19701

>  <SCORE.INTRA>
4.05295

>  <SCORE.INTRA.DIHEDRAL>
4.41001

>  <SCORE.INTRA.DIHEDRAL.0>
5.05013

>  <SCORE.INTRA.POLAR>
0

>  <SCORE.INTRA.POLAR.0>
0

>  <SCORE.INTRA.REPUL>
0

>  <SCORE.INTRA.REPUL.0>
0

>  <SCORE.INTRA.SOLV>
1.55012

>  <SCORE.INTRA.SOLV.lig_0>
-54.1265

>  <SCORE.INTRA.VDW>
1.07288

>  <SCORE.INTRA.VDW.0>
-2.1303

>  <SCORE.INTRA.norm>
0.184225

>  <SCORE.RESTR>
0

>  <SCORE.RESTR.CAVITY>
0

>  <SCORE.RESTR.norm>
0

>  <SCORE.SYSTEM>
0

>  <SCORE.SYSTEM.CONST>
0

>  <SCORE.SYSTEM.DIHEDRAL>
0

>  <SCORE.SYSTEM.SOLV>
0

>  <SCORE.SYSTEM.norm>
0

>  <SCORE.heavy>
22

>  <SCORE.norm>
-1.01279

>  <RMSD>
1.959

$$$$
ligand
 OpenBabel11021811443D
libRbt.so/2013.1/901 2013/11/27
 22 23  0  0  0  0  0  0  0  0999 V2000
   17.0762   40.0125   63.7565 C   0  0  0  0  0  0  0  0  0  0  0  0
   24.8587   41.6733   67.0669 C   0  0  0  0  0  0  0  0  0  0  0  0
   29.1647   37.1270   65.1611 P   0  0  1  0  0  0  0  0  0  0  0  0
   18.8744   39.2111   65.1157 N   0  0  0  0  0  0  0  0  0  0  0  0
   29.2191   38.3848   64.3728 O   0  0  0  0  0  0  0  0  0  0  0  0
   24.5071   38.0020   65.4530 S   0  0  0  0  0  0  0  0  0  0  0  0
   23.0472   38.7632   65.7876 C   0  0  0  0  0  0  0  0  0  0  0  0
   18.3305   40.2909   64.4543 C   0  0  0  0  0  0  0  0  0  0  0  0
   28.9518   35.9054   64.3428 O   0  5  0  0  0  0  0  0  0  0  0  0
   23.1435   39.9966   66.3286 N   0  0  0  0  0  0  0  0  0  0  0  0
   18.8796   41.4757   64.4250 N   0  0  0  0  0  0  0  0  0  0  0  0
   30.3468   37.0308   66.0760 O   0  0  0  0  0  0  0  0  0  0  0  0
   24.4873   40.3433   66.4802 C   0  0  2  0  0  0  0  0  0  0  0  0
   20.0731   41.7064   65.1012 C   0  0  0  0  0  0  0  0  0  0  0  0
   20.6268   42.9141   65.0445 N   0  0  0  0  0  0  0  0  0  0  0  0
   25.3791   39.3830   66.0644 C   0  0  1  0  0  0  0  0  0  0  0  0
   20.6824   40.6228   65.8547 C   0  0  0  0  0  0  0  0  0  0  0  0
   26.8639   39.4352   66.1078 C   0  0  0  0  0  0  0  0  0  0  0  0
   20.0384   39.4038   65.7863 C   0  0  0  0  0  0  0  0  0  0  0  0
   27.4232   38.2768   66.8451 C   0  0  0  0  0  0  0  0  0  0  0  0
   21.9169   40.8503   66.7061 C   0  0  0  0  0  0  0  0  0  0  0  0
   27.8749   37.1698   66.0642 O   0  0  0  0  0  0  0  0  0  0  0  0
  1  8  1  0  0  0  0
  3  5  1  6  0  0  0
  3  9  1  0  0  0  0
  3 12  2  0  0  0  0
  3 22  1  0  0  0  0
  4  8  2  0  0  0  0
  4 19  1  0  0  0  0
  6 16  1  0  0  0  0
  6  7  1  0  0  0  0
  7 10  1  0  0  0  0
  8 11  1  0  0  0  0
 10 13  1  0  0  0  0
 10 21  1  0  0  0  0
 11 14  2  0  0  0  0
 13  2  1  1  0  0  0
 13 16  1  0  0  0  0
 14 15  1  0  0  0  0
 14 17  1  0  0  0  0
 16 18  1  1  0  0  0
 17 19  2  0  0  0  0
 17 21  1  0  0  0  0
 18 20  1  0  0  0  0
 20 22  1  0  0  0  0
M  CHG  1   9  -1
M  END
>  <CHROM.1>
-30.24737152,-54.92129739,-120.95917483,97.47225945,71.80247776,-45.14159797
24.22345154,39.18814514,65.52501218,2.86022206,-0.19322744,0.45119599

>  <Name>
ligand

>  <RI>
0

>  <Rbt.Current_Directory>
/home/itssahil/PROJECTS/Mol_Feturizer/New_Systems/rnas/2HOM

>  <Rbt.Executable>
rbdock ($Id: //depot/dev/client3/rdock/2013.1/src/exe/rbdock.cxx#4 $)

>  <Rbt.Library>
libRbt.so (2013.1, Build901 2013/11/27)

>  <Rbt.Parameter_File>
/export/apps/rDock/src/rDock_2013.1_src/data/scripts/dock_solv.prm

>  <Rbt.Receptor>
prm/pocket_docking_4.prm

>  <SCORE>
-21.0441

>  <SCORE.INTER>
-23.8401

>  <SCORE.INTER.CONST>
1

>  <SCORE.INTER.POLAR>
-1.63459

>  <SCORE.INTER.ROT>
6

>  <SCORE.INTER.SOLV>
17.4812

>  <SCORE.INTER.VDW>
-23.8719

>  <SCORE.INTER.norm>
-1.08364

>  <SCORE.INTRA>
2.79603

>  <SCORE.INTRA.DIHEDRAL>
4.90301

>  <SCORE.INTRA.DIHEDRAL.0>
5.05013

>  <SCORE.INTRA.POLAR>
0

>  <SCORE.INTRA.POLAR.0>
0

>  <SCORE.INTRA.REPUL>
0

>  <SCORE.INTRA.REPUL.0>
0

>  <SCORE.INTRA.SOLV>
0.328001

>  <SCORE.INTRA.SOLV.lig_0>
-54.1265

>  <SCORE.INTRA.VDW>
0.18052

>  <SCORE.INTRA.VDW.0>
-2.1303

>  <SCORE.INTRA.norm>
0.127092

>  <SCORE.RESTR>
0

>  <SCORE.RESTR.CAVITY>
0

>  <SCORE.RESTR.norm>
0

>  <SCORE.SYSTEM>
0

>  <SCORE.SYSTEM.CONST>
0

>  <SCORE.SYSTEM.DIHEDRAL>
0

>  <SCORE.SYSTEM.SOLV>
0

>  <SCORE.SYSTEM.norm>
0

>  <SCORE.heavy>
22

>  <SCORE.norm>
-0.956551

>  <RMSD>
1.962

$$$$
ligand
 OpenBabel11021811443D
libRbt.so/2013.1/901 2013/11/27
 22 23  0  0  0  0  0  0  0  0999 V2000
   17.0142   39.3442   64.0805 C   0  0  0  0  0  0  0  0  0  0  0  0
   24.9001   41.2650   64.9611 C   0  0  0  0  0  0  0  0  0  0  0  0
   29.3032   38.0749   65.5492 P   0  0  1  0  0  0  0  0  0  0  0  0
   18.2928   41.1752   64.9383 N   0  0  0  0  0  0  0  0  0  0  0  0
   29.4008   39.3512   66.3027 O   0  0  0  0  0  0  0  0  0  0  0  0
   23.9351   39.0234   68.1629 S   0  0  0  0  0  0  0  0  0  0  0  0
   22.6804   39.9665   67.5638 C   0  0  0  0  0  0  0  0  0  0  0  0
   18.3037   39.8549   64.5434 C   0  0  0  0  0  0  0  0  0  0  0  0
   29.4276   38.2271   64.0766 O   0  5  0  0  0  0  0  0  0  0  0  0
   22.9835   40.7253   66.4889 N   0  0  0  0  0  0  0  0  0  0  0  0
   19.3646   39.0941   64.5838 N   0  0  0  0  0  0  0  0  0  0  0  0
   30.2392   37.0554   66.1222 O   0  0  0  0  0  0  0  0  0  0  0  0
   24.3182   40.5272   66.1309 C   0  0  2  0  0  0  0  0  0  0  0  0
   20.5763   39.6127   65.0286 C   0  0  0  0  0  0  0  0  0  0  0  0
   21.6412   38.8179   65.0804 N   0  0  0  0  0  0  0  0  0  0  0  0
   25.0016   39.6397   66.9282 C   0  0  1  0  0  0  0  0  0  0  0  0
   20.6479   41.0102   65.4222 C   0  0  0  0  0  0  0  0  0  0  0  0
   26.4262   39.2285   66.8249 C   0  0  0  0  0  0  0  0  0  0  0  0
   19.4599   41.7116   65.3765 C   0  0  0  0  0  0  0  0  0  0  0  0
   26.6341   38.2802   65.7043 C   0  0  0  0  0  0  0  0  0  0  0  0
   21.9667   41.6570   65.8002 C   0  0  0  0  0  0  0  0  0  0  0  0
   27.8404   37.5160   65.7187 O   0  0  0  0  0  0  0  0  0  0  0  0
  1  8  1  0  0  0  0
  3  5  1  1  0  0  0
  3  9  1  0  0  0  0
  3 12  2  0  0  0  0
  3 22  1  0  0  0  0
  4  8  2  0  0  0  0
  4 19  1  0  0  0  0
  6 16  1  0  0  0  0
  6  7  1  0  0  0  0
  7 10  1  0  0  0  0
  8 11  1  0  0  0  0
 10 13  1  0  0  0  0
 10 21  1  0  0  0  0
 11 14  2  0  0  0  0
 13  2  1  1  0  0  0
 13 16  1  0  0  0  0
 14 15  1  0  0  0  0
 14 17  1  0  0  0  0
 16 18  1  1  0  0  0
 17 19  2  0  0  0  0
 17 21  1  0  0  0  0
 18 20  1  0  0  0  0
 20 22  1  0  0  0  0
M  CHG  1   9  -1
M  END
>  <CHROM.1>
-51.58701524,104.69094616,-32.69417140,-162.54335425,-66.64775099,40.21644616
24.15087553,39.42876139,65.80611647,3.11005051,-0.22177436,1.10202436

>  <Name>
ligand

>  <RI>
0

>  <Rbt.Current_Directory>
/home/itssahil/PROJECTS/Mol_Feturizer/New_Systems/rnas/2HOM

>  <Rbt.Executable>
rbdock ($Id: //depot/dev/client3/rdock/2013.1/src/exe/rbdock.cxx#4 $)

>  <Rbt.Library>
libRbt.so (2013.1, Build901 2013/11/27)

>  <Rbt.Parameter_File>
/export/apps/rDock/src/rDock_2013.1_src/data/scripts/dock_solv.prm

>  <Rbt.Receptor>
prm/pocket_docking_4.prm

>  <SCORE>
-21.6032

>  <SCORE.INTER>
-24.1328

>  <SCORE.INTER.CONST>
1

>  <SCORE.INTER.POLAR>
-1.63459

>  <SCORE.INTER.ROT>
6

>  <SCORE.INTER.SOLV>
12.833

>  <SCORE.INTER.VDW>
-22.5176

>  <SCORE.INTER.norm>
-1.09695

>  <SCORE.INTRA>
2.52967

>  <SCORE.INTRA.DIHEDRAL>
1.41979

>  <SCORE.INTRA.DIHEDRAL.0>
5.05013

>  <SCORE.INTRA.POLAR>
0

>  <SCORE.INTRA.POLAR.0>
0

>  <SCORE.INTRA.REPUL>
0

>  <SCORE.INTRA.REPUL.0>
0

>  <SCORE.INTRA.SOLV>
3.71999

>  <SCORE.INTRA.SOLV.lig_0>
-54.1265

>  <SCORE.INTRA.VDW>
-0.0402185

>  <SCORE.INTRA.VDW.0>
-2.1303

>  <SCORE.INTRA.norm>
0.114985

>  <SCORE.RESTR>
0

>  <SCORE.RESTR.CAVITY>
0

>  <SCORE.RESTR.norm>
0

>  <SCORE.SYSTEM>
0

>  <SCORE.SYSTEM.CONST>
0

>  <SCORE.SYSTEM.DIHEDRAL>
0

>  <SCORE.SYSTEM.SOLV>
0

>  <SCORE.SYSTEM.norm>
0

>  <SCORE.heavy>
22

>  <SCORE.norm>
-0.981962

>  <RMSD>
1.963

$$$$
ligand
 OpenBabel11021811443D
libRbt.so/2013.1/901 2013/11/27
 22 23  0  0  0  0  0  0  0  0999 V2000
   17.7061   40.1320   64.2899 C   0  0  0  0  0  0  0  0  0  0  0  0
   25.4018   41.1797   66.0044 C   0  0  0  0  0  0  0  0  0  0  0  0
   29.3046   36.7426   65.1580 P   0  0  1  0  0  0  0  0  0  0  0  0
   19.5245   39.4486   65.6862 N   0  0  0  0  0  0  0  0  0  0  0  0
   30.5661   36.9024   64.3903 O   0  0  0  0  0  0  0  0  0  0  0  0
   24.5008   37.7865   67.9746 S   0  0  0  0  0  0  0  0  0  0  0  0
   23.2674   38.9268   67.9424 C   0  0  0  0  0  0  0  0  0  0  0  0
   18.9593   40.4749   64.9607 C   0  0  0  0  0  0  0  0  0  0  0  0
   28.5466   35.5073   64.8317 O   0  5  0  0  0  0  0  0  0  0  0  0
   23.5493   40.0721   67.2853 N   0  0  0  0  0  0  0  0  0  0  0  0
   19.4883   41.6642   64.8524 N   0  0  0  0  0  0  0  0  0  0  0  0
   29.5585   36.9140   66.6242 O   0  0  0  0  0  0  0  0  0  0  0  0
   24.8485   40.0185   66.7769 C   0  0  2  0  0  0  0  0  0  0  0  0
   20.6813   41.9571   65.5050 C   0  0  0  0  0  0  0  0  0  0  0  0
   21.2145   43.1676   65.3678 N   0  0  0  0  0  0  0  0  0  0  0  0
   25.5268   38.8552   67.0544 C   0  0  1  0  0  0  0  0  0  0  0  0
   21.3125   40.9340   66.3223 C   0  0  0  0  0  0  0  0  0  0  0  0
   26.9184   38.4964   66.6750 C   0  0  0  0  0  0  0  0  0  0  0  0
   20.6886   39.7027   66.3359 C   0  0  0  0  0  0  0  0  0  0  0  0
   27.0082   38.1245   65.2426 C   0  0  0  0  0  0  0  0  0  0  0  0
   22.5474   41.2356   67.1497 C   0  0  0  0  0  0  0  0  0  0  0  0
   28.3142   37.8851   64.7169 O   0  0  0  0  0  0  0  0  0  0  0  0
  1  8  1  0  0  0  0
  3  5  1  6  0  0  0
  3  9  1  0  0  0  0
  3 12  2  0  0  0  0
  3 22  1  0  0  0  0
  4  8  2  0  0  0  0
  4 19  1  0  0  0  0
  6 16  1  0  0  0  0
  6  7  1  0  0  0  0
  7 10  1  0  0  0  0
  8 11  1  0  0  0  0
 10 13  1  0  0  0  0
 10 21  1  0  0  0  0
 11 14  2  0  0  0  0
 13  2  1  1  0  0  0
 13 16  1  0  0  0  0
 14 15  1  0  0  0  0
 14 17  1  0  0  0  0
 16 18  1  1  0  0  0
 17 19  2  0  0  0  0
 17 21  1  0  0  0  0
 18 20  1  0  0  0  0
 20 22  1  0  0  0  0
M  CHG  1   9  -1
M  END
>  <CHROM.1>
-66.06828246,104.46131895,-146.07250399,174.00170356,63.55168601,-177.69722776
24.53461817,39.07024501,65.98538017,-3.13173694,-0.41526647,1.63549497

>  <Name>
ligand

>  <RI>
0

>  <Rbt.Current_Directory>
/home/itssahil/PROJECTS/Mol_Feturizer/New_Systems/rnas/2HOM

>  <Rbt.Executable>
rbdock ($Id: //depot/dev/client3/rdock/2013.1/src/exe/rbdock.cxx#4 $)

>  <Rbt.Library>
libRbt.so (2013.1, Build901 2013/11/27)

>  <Rbt.Parameter_File>
/export/apps/rDock/src/rDock_2013.1_src/data/scripts/dock_solv.prm

>  <Rbt.Receptor>
prm/pocket_docking_8.prm

>  <SCORE>
-24.6092

>  <SCORE.INTER>
-25.7219

>  <SCORE.INTER.CONST>
1

>  <SCORE.INTER.POLAR>
-1.63231

>  <SCORE.INTER.ROT>
6

>  <SCORE.INTER.SOLV>
16.036

>  <SCORE.INTER.VDW>
-24.6522

>  <SCORE.INTER.norm>
-1.16918

>  <SCORE.INTRA>
1.11273

>  <SCORE.INTRA.DIHEDRAL>
-0.281384

>  <SCORE.INTRA.DIHEDRAL.0>
5.05013

>  <SCORE.INTRA.POLAR>
0

>  <SCORE.INTRA.POLAR.0>
0

>  <SCORE.INTRA.REPUL>
0

>  <SCORE.INTRA.REPUL.0>
0

>  <SCORE.INTRA.SOLV>
1.88542

>  <SCORE.INTRA.SOLV.lig_0>
-54.1265

>  <SCORE.INTRA.VDW>
0.310713

>  <SCORE.INTRA.VDW.0>
-2.1303

>  <SCORE.INTRA.norm>
0.0505787

>  <SCORE.RESTR>
0

>  <SCORE.RESTR.CAVITY>
0

>  <SCORE.RESTR.norm>
0

>  <SCORE.SYSTEM>
0

>  <SCORE.SYSTEM.CONST>
0

>  <SCORE.SYSTEM.DIHEDRAL>
0

>  <SCORE.SYSTEM.SOLV>
0

>  <SCORE.SYSTEM.norm>
0

>  <SCORE.heavy>
22

>  <SCORE.norm>
-1.1186

>  <RMSD>
1.966

$$$$
ligand
 OpenBabel11021811443D
libRbt.so/2013.1/901 2013/11/27
 22 23  0  0  0  0  0  0  0  0999 V2000
   16.6443   39.4190   63.8509 C   0  0  0  0  0  0  0  0  0  0  0  0
   24.1706   41.2154   67.5592 C   0  0  0  0  0  0  0  0  0  0  0  0
   28.5119   38.2449   66.1056 P   0  0  1  0  0  0  0  0  0  0  0  0
   18.9206   38.8724   64.3438 N   0  0  0  0  0  0  0  0  0  0  0  0
   29.5654   38.1702   67.1501 O   0  0  0  0  0  0  0  0  0  0  0  0
   23.4704   37.3502   66.6780 S   0  0  0  0  0  0  0  0  0  0  0  0
   22.5057   38.4448   65.8450 C   0  0  0  0  0  0  0  0  0  0  0  0
   17.9816   39.8745   64.2279 C   0  0  0  0  0  0  0  0  0  0  0  0
   28.4087   39.5690   65.4397 O   0  5  0  0  0  0  0  0  0  0  0  0
   22.7258   39.7471   66.1257 N   0  0  0  0  0  0  0  0  0  0  0  0
   18.2432   41.1398   64.4193 N   0  0  0  0  0  0  0  0  0  0  0  0
   28.6467   37.1049   65.1433 O   0  0  0  0  0  0  0  0  0  0  0  0
   23.7414   39.8611   67.0767 C   0  0  2  0  0  0  0  0  0  0  0  0
   19.5265   41.5385   64.7784 C   0  0  0  0  0  0  0  0  0  0  0  0
   19.7783   42.8327   64.9508 N   0  0  0  0  0  0  0  0  0  0  0  0
   24.2670   38.6642   67.5028 C   0  0  1  0  0  0  0  0  0  0  0  0
   20.5580   40.5302   64.9591 C   0  0  0  0  0  0  0  0  0  0  0  0
   25.3367   38.4434   68.5109 C   0  0  0  0  0  0  0  0  0  0  0  0
   20.1824   39.2286   64.6942 C   0  0  0  0  0  0  0  0  0  0  0  0
   26.6694   38.8054   67.9714 C   0  0  0  0  0  0  0  0  0  0  0  0
   21.9399   40.8970   65.4653 C   0  0  0  0  0  0  0  0  0  0  0  0
   27.1111   38.1002   66.8108 O   0  0  0  0  0  0  0  0  0  0  0  0
  1  8  1  0  0  0  0
  3  5  1  1  0  0  0
  3  9  1  0  0  0  0
  3 12  2  0  0  0  0
  3 22  1  0  0  0  0
  4  8  2  0  0  0  0
  4 19  1  0  0  0  0
  6 16  1  0  0  0  0
  6  7  1  0  0  0  0
  7 10  1  0  0  0  0
  8 11  1  0  0  0  0
 10 13  1  0  0  0  0
 10 21  1  0  0  0  0
 11 14  2  0  0  0  0
 13  2  1  1  0  0  0
 13 16  1  0  0  0  0
 14 15  1  0  0  0  0
 14 17  1  0  0  0  0
 16 18  1  1  0  0  0
 17 19  2  0  0  0  0
 17 21  1  0  0  0  0
 18 20  1  0  0  0  0
 20 22  1  0  0  0  0
M  CHG  1   9  -1
M  END
>  <CHROM.1>
25.17190165,106.78859172,156.88625348,-59.60416659,-176.24743215,47.95856811
23.60484656,39.24935257,65.96144066,2.93950478,-0.23122493,0.08440105

>  <Name>
ligand

>  <RI>
0

>  <Rbt.Current_Directory>
/home/itssahil/PROJECTS/Mol_Feturizer/New_Systems/rnas/2HOM

>  <Rbt.Executable>
rbdock ($Id: //depot/dev/client3/rdock/2013.1/src/exe/rbdock.cxx#4 $)

>  <Rbt.Library>
libRbt.so (2013.1, Build901 2013/11/27)

>  <Rbt.Parameter_File>
/export/apps/rDock/src/rDock_2013.1_src/data/scripts/dock_solv.prm

>  <Rbt.Receptor>
prm/pocket_docking_3.prm

>  <SCORE>
-20.045

>  <SCORE.INTER>
-20.9081

>  <SCORE.INTER.CONST>
1

>  <SCORE.INTER.POLAR>
-1.30767

>  <SCORE.INTER.ROT>
6

>  <SCORE.INTER.SOLV>
17.442

>  <SCORE.INTER.VDW>
-22.9938

>  <SCORE.INTER.norm>
-0.950367

>  <SCORE.INTRA>
0.863061

>  <SCORE.INTRA.DIHEDRAL>
0.0351593

>  <SCORE.INTRA.DIHEDRAL.0>
5.05013

>  <SCORE.INTRA.POLAR>
0

>  <SCORE.INTRA.POLAR.0>
0

>  <SCORE.INTRA.REPUL>
0

>  <SCORE.INTRA.REPUL.0>
0

>  <SCORE.INTRA.SOLV>
-0.127384

>  <SCORE.INTRA.SOLV.lig_0>
-54.1265

>  <SCORE.INTRA.VDW>
0.909174

>  <SCORE.INTRA.VDW.0>
-2.1303

>  <SCORE.INTRA.norm>
0.03923

>  <SCORE.RESTR>
0

>  <SCORE.RESTR.CAVITY>
0

>  <SCORE.RESTR.norm>
0

>  <SCORE.SYSTEM>
0

>  <SCORE.SYSTEM.CONST>
0

>  <SCORE.SYSTEM.DIHEDRAL>
0

>  <SCORE.SYSTEM.SOLV>
0

>  <SCORE.SYSTEM.norm>
0

>  <SCORE.heavy>
22

>  <SCORE.norm>
-0.911137

>  <RMSD>
1.970

$$$$
ligand
 OpenBabel11021811443D
libRbt.so/2013.1/901 2013/11/27
 22 23  0  0  0  0  0  0  0  0999 V2000
   17.2323   40.1004   63.7122 C   0  0  0  0  0  0  0  0  0  0  0  0
   23.5662   38.1879   66.7886 C   0  0  0  0  0  0  0  0  0  0  0  0
   28.6940   40.1019   65.8973 P   0  0  1  0  0  0  0  0  0  0  0  0
   19.1644   39.2628   64.8474 N   0  0  0  0  0  0  0  0  0  0  0  0
   28.4215   40.4194   64.4721 O   0  0  0  0  0  0  0  0  0  0  0  0
   25.5497   40.7420   64.3908 S   0  0  0  0  0  0  0  0  0  0  0  0
   24.1358   41.3596   65.0557 C   0  0  0  0  0  0  0  0  0  0  0  0
   18.4944   40.3792   64.3957 C   0  0  0  0  0  0  0  0  0  0  0  0
   30.1231   40.2233   66.2848 O   0  5  0  0  0  0  0  0  0  0  0  0
   23.4559   40.5186   65.8641 N   0  0  0  0  0  0  0  0  0  0  0  0
   18.9372   41.5995   64.5406 N   0  0  0  0  0  0  0  0  0  0  0  0
   27.7689   40.8694   66.7911 O   0  0  0  0  0  0  0  0  0  0  0  0
   24.1266   39.2970   65.9476 C   0  0  2  0  0  0  0  0  0  0  0  0
   20.1417   41.8292   65.1974 C   0  0  0  0  0  0  0  0  0  0  0  0
   20.5857   43.0768   65.3188 N   0  0  0  0  0  0  0  0  0  0  0  0
   25.2845   39.2253   65.2098 C   0  0  1  0  0  0  0  0  0  0  0  0
   20.8821   40.7005   65.7366 C   0  0  0  0  0  0  0  0  0  0  0  0
   26.2101   38.0705   65.0723 C   0  0  0  0  0  0  0  0  0  0  0  0
   20.3425   39.4534   65.4936 C   0  0  0  0  0  0  0  0  0  0  0  0
   27.1150   37.9622   66.2418 C   0  0  0  0  0  0  0  0  0  0  0  0
   22.1372   40.9027   66.5638 C   0  0  0  0  0  0  0  0  0  0  0  0
   28.4014   38.5708   66.1232 O   0  0  0  0  0  0  0  0  0  0  0  0
  1  8  1  0  0  0  0
  3  5  1  6  0  0  0
  3  9  1  0  0  0  0
  3 12  2  0  0  0  0
  3 22  1  0  0  0  0
  4  8  2  0  0  0  0
  4 19  1  0  0  0  0
  6 16  1  0  0  0  0
  6  7  1  0  0  0  0
  7 10  1  0  0  0  0
  8 11  1  0  0  0  0
 10 13  1  0  0  0  0
 10 21  1  0  0  0  0
 11 14  2  0  0  0  0
 13  2  1  6  0  0  0
 13 16  1  0  0  0  0
 14 15  1  0  0  0  0
 14 17  1  0  0  0  0
 16 18  1  6  0  0  0
 17 19  2  0  0  0  0
 17 21  1  0  0  0  0
 18 20  1  0  0  0  0
 20 22  1  0  0  0  0
M  CHG  1   9  -1
M  END
>  <CHROM.1>
85.40151764,100.68176681,-108.00059624,-95.01989372,61.73521221,-76.44145127
24.19288523,40.14425551,65.43431691,3.01975192,-0.08682554,-0.16944384

>  <Name>
ligand

>  <RI>
0

>  <Rbt.Current_Directory>
/home/itssahil/PROJECTS/Mol_Feturizer/New_Systems/rnas/2HOM

>  <Rbt.Executable>
rbdock ($Id: //depot/dev/client3/rdock/2013.1/src/exe/rbdock.cxx#4 $)

>  <Rbt.Library>
libRbt.so (2013.1, Build901 2013/11/27)

>  <Rbt.Parameter_File>
/export/apps/rDock/src/rDock_2013.1_src/data/scripts/dock_solv.prm

>  <Rbt.Receptor>
prm/pocket_docking_3.prm

>  <SCORE>
-12.6813

>  <SCORE.INTER>
-14.2486

>  <SCORE.INTER.CONST>
1

>  <SCORE.INTER.POLAR>
0

>  <SCORE.INTER.ROT>
6

>  <SCORE.INTER.SOLV>
13.7935

>  <SCORE.INTER.VDW>
-21.6969

>  <SCORE.INTER.norm>
-0.647663

>  <SCORE.INTRA>
1.56729

>  <SCORE.INTRA.DIHEDRAL>
3.69106

>  <SCORE.INTRA.DIHEDRAL.0>
5.05013

>  <SCORE.INTRA.POLAR>
0

>  <SCORE.INTRA.POLAR.0>
0

>  <SCORE.INTRA.REPUL>
0

>  <SCORE.INTRA.REPUL.0>
0

>  <SCORE.INTRA.SOLV>
1.79106

>  <SCORE.INTRA.SOLV.lig_0>
-54.1265

>  <SCORE.INTRA.VDW>
-1.17378

>  <SCORE.INTRA.VDW.0>
-2.1303

>  <SCORE.INTRA.norm>
0.0712403

>  <SCORE.RESTR>
0

>  <SCORE.RESTR.CAVITY>
0

>  <SCORE.RESTR.norm>
0

>  <SCORE.SYSTEM>
0

>  <SCORE.SYSTEM.CONST>
0

>  <SCORE.SYSTEM.DIHEDRAL>
0

>  <SCORE.SYSTEM.SOLV>
0

>  <SCORE.SYSTEM.norm>
0

>  <SCORE.heavy>
22

>  <SCORE.norm>
-0.576422

>  <RMSD>
1.971

$$$$
ligand
 OpenBabel11021811443D
libRbt.so/2013.1/901 2013/11/27
 22 23  0  0  0  0  0  0  0  0999 V2000
   17.3105   40.1009   63.9003 C   0  0  0  0  0  0  0  0  0  0  0  0
   25.2072   41.5562   66.9669 C   0  0  0  0  0  0  0  0  0  0  0  0
   29.4755   36.8779   65.2725 P   0  0  1  0  0  0  0  0  0  0  0  0
   19.1348   39.2652   65.2028 N   0  0  0  0  0  0  0  0  0  0  0  0
   30.5675   37.6987   64.6893 O   0  0  0  0  0  0  0  0  0  0  0  0
   24.6228   37.7793   65.7018 S   0  0  0  0  0  0  0  0  0  0  0  0
   23.2138   38.6431   66.0041 C   0  0  0  0  0  0  0  0  0  0  0  0
   18.5810   40.3604   64.5759 C   0  0  0  0  0  0  0  0  0  0  0  0
   29.4782   35.4597   64.8300 O   0  5  0  0  0  0  0  0  0  0  0  0
   23.3883   39.9129   66.4285 N   0  0  0  0  0  0  0  0  0  0  0  0
   19.1342   41.5435   64.5588 N   0  0  0  0  0  0  0  0  0  0  0  0
   29.4398   37.0355   66.7616 O   0  0  0  0  0  0  0  0  0  0  0  0
   24.7518   40.2006   66.5129 C   0  0  2  0  0  0  0  0  0  0  0  0
   20.3432   41.7559   65.2132 C   0  0  0  0  0  0  0  0  0  0  0  0
   20.9004   42.9625   65.1690 N   0  0  0  0  0  0  0  0  0  0  0  0
   25.5813   39.1615   66.1626 C   0  0  1  0  0  0  0  0  0  0  0  0
   20.9644   40.6548   65.9307 C   0  0  0  0  0  0  0  0  0  0  0  0
   27.0674   39.1392   66.1623 C   0  0  0  0  0  0  0  0  0  0  0  0
   20.3140   39.4398   65.8515 C   0  0  0  0  0  0  0  0  0  0  0  0
   27.6007   38.7448   64.8362 C   0  0  0  0  0  0  0  0  0  0  0  0
   22.2181   40.8602   66.7591 C   0  0  0  0  0  0  0  0  0  0  0  0
   28.1052   37.4147   64.7112 O   0  0  0  0  0  0  0  0  0  0  0  0
  1  8  1  0  0  0  0
  3  5  1  6  0  0  0
  3  9  1  0  0  0  0
  3 12  2  0  0  0  0
  3 22  1  0  0  0  0
  4  8  2  0  0  0  0
  4 19  1  0  0  0  0
  6 16  1  0  0  0  0
  6  7  1  0  0  0  0
  7 10  1  0  0  0  0
  8 11  1  0  0  0  0
 10 13  1  0  0  0  0
 10 21  1  0  0  0  0
 11 14  2  0  0  0  0
 13  2  1  1  0  0  0
 13 16  1  0  0  0  0
 14 15  1  0  0  0  0
 14 17  1  0  0  0  0
 16 18  1  1  0  0  0
 17 19  2  0  0  0  0
 17 21  1  0  0  0  0
 18 20  1  0  0  0  0
 20 22  1  0  0  0  0
M  CHG  1   9  -1
M  END
>  <CHROM.1>
-32.29737519,55.48431544,-126.73334638,-104.10967847,-75.12591667,-57.98993493
24.47652987,39.10205267,65.53240750,2.81618397,-0.15759487,0.36857182

>  <Name>
ligand

>  <RI>
0

>  <Rbt.Current_Directory>
/home/itssahil/PROJECTS/Mol_Feturizer/New_Systems/rnas/2HOM

>  <Rbt.Executable>
rbdock ($Id: //depot/dev/client3/rdock/2013.1/src/exe/rbdock.cxx#4 $)

>  <Rbt.Library>
libRbt.so (2013.1, Build901 2013/11/27)

>  <Rbt.Parameter_File>
/export/apps/rDock/src/rDock_2013.1_src/data/scripts/dock_solv.prm

>  <Rbt.Receptor>
prm/pocket_docking_6.prm

>  <SCORE>
-21.8241

>  <SCORE.INTER>
-25.3716

>  <SCORE.INTER.CONST>
1

>  <SCORE.INTER.POLAR>
-1.6326

>  <SCORE.INTER.ROT>
6

>  <SCORE.INTER.SOLV>
16.1434

>  <SCORE.INTER.VDW>
-24.4535

>  <SCORE.INTER.norm>
-1.15325

>  <SCORE.INTRA>
3.54751

>  <SCORE.INTRA.DIHEDRAL>
5.75006

>  <SCORE.INTRA.DIHEDRAL.0>
5.05013

>  <SCORE.INTRA.POLAR>
0

>  <SCORE.INTRA.POLAR.0>
0

>  <SCORE.INTRA.REPUL>
0

>  <SCORE.INTRA.REPUL.0>
0

>  <SCORE.INTRA.SOLV>
0.848855

>  <SCORE.INTRA.SOLV.lig_0>
-54.1265

>  <SCORE.INTRA.VDW>
0.248048

>  <SCORE.INTRA.VDW.0>
-2.1303

>  <SCORE.INTRA.norm>
0.16125

>  <SCORE.RESTR>
0

>  <SCORE.RESTR.CAVITY>
0

>  <SCORE.RESTR.norm>
0

>  <SCORE.SYSTEM>
0

>  <SCORE.SYSTEM.CONST>
0

>  <SCORE.SYSTEM.DIHEDRAL>
0

>  <SCORE.SYSTEM.SOLV>
0

>  <SCORE.SYSTEM.norm>
0

>  <SCORE.heavy>
22

>  <SCORE.norm>
-0.992004

>  <RMSD>
1.972

$$$$
ligand
 OpenBabel11021811443D
libRbt.so/2013.1/901 2013/11/27
 22 23  0  0  0  0  0  0  0  0999 V2000
   17.3036   39.8970   63.8735 C   0  0  0  0  0  0  0  0  0  0  0  0
   24.3747   40.7166   64.6595 C   0  0  0  0  0  0  0  0  0  0  0  0
   29.3684   37.7788   65.5643 P   0  0  1  0  0  0  0  0  0  0  0  0
   18.8979   41.5894   64.4365 N   0  0  0  0  0  0  0  0  0  0  0  0
   29.5079   39.2442   65.7630 O   0  0  0  0  0  0  0  0  0  0  0  0
   24.2635   38.5957   68.0795 S   0  0  0  0  0  0  0  0  0  0  0  0
   23.0762   39.7773   67.9486 C   0  0  0  0  0  0  0  0  0  0  0  0
   18.5106   40.2777   64.6056 C   0  0  0  0  0  0  0  0  0  0  0  0
   28.8895   37.3914   64.2123 O   0  5  0  0  0  0  0  0  0  0  0  0
   23.0957   40.4994   66.8079 N   0  0  0  0  0  0  0  0  0  0  0  0
   19.1452   39.4259   65.3657 N   0  0  0  0  0  0  0  0  0  0  0  0
   30.6241   37.0727   65.9746 O   0  0  0  0  0  0  0  0  0  0  0  0
   24.1406   40.0647   65.9904 C   0  0  2  0  0  0  0  0  0  0  0  0
   20.2915   39.8211   66.0474 C   0  0  0  0  0  0  0  0  0  0  0  0
   20.9134   38.9453   66.8313 N   0  0  0  0  0  0  0  0  0  0  0  0
   24.8918   39.0392   66.5142 C   0  0  1  0  0  0  0  0  0  0  0  0
   20.7815   41.1797   65.8830 C   0  0  0  0  0  0  0  0  0  0  0  0
   26.0729   38.3702   65.9086 C   0  0  0  0  0  0  0  0  0  0  0  0
   20.0135   42.0060   65.0875 C   0  0  0  0  0  0  0  0  0  0  0  0
   27.0779   38.0134   66.9387 C   0  0  0  0  0  0  0  0  0  0  0  0
   22.0897   41.6276   66.5064 C   0  0  0  0  0  0  0  0  0  0  0  0
   28.2130   37.2644   66.5031 O   0  0  0  0  0  0  0  0  0  0  0  0
  1  8  1  0  0  0  0
  3  5  1  1  0  0  0
  3  9  1  0  0  0  0
  3 12  2  0  0  0  0
  3 22  1  0  0  0  0
  4  8  2  0  0  0  0
  4 19  1  0  0  0  0
  6 16  1  0  0  0  0
  6  7  1  0  0  0  0
  7 10  1  0  0  0  0
  8 11  1  0  0  0  0
 10 13  1  0  0  0  0
 10 21  1  0  0  0  0
 11 14  2  0  0  0  0
 13  2  1  1  0  0  0
 13 16  1  0  0  0  0
 14 15  1  0  0  0  0
 14 17  1  0  0  0  0
 16 18  1  1  0  0  0
 17 19  2  0  0  0  0
 17 21  1  0  0  0  0
 18 20  1  0  0  0  0
 20 22  1  0  0  0  0
M  CHG  1   9  -1
M  END
>  <CHROM.1>
-85.68629338,-35.91229427,23.43753843,174.94121980,68.36907281,29.07268128
24.21753942,39.27945095,65.96574876,-3.03020666,-0.26176931,1.77670533

>  <Name>
ligand

>  <RI>
0

>  <Rbt.Current_Directory>
/home/itssahil/PROJECTS/Mol_Feturizer/New_Systems/rnas/2HOM

>  <Rbt.Executable>
rbdock ($Id: //depot/dev/client3/rdock/2013.1/src/exe/rbdock.cxx#4 $)

>  <Rbt.Library>
libRbt.so (2013.1, Build901 2013/11/27)

>  <Rbt.Parameter_File>
/export/apps/rDock/src/rDock_2013.1_src/data/scripts/dock_solv.prm

>  <Rbt.Receptor>
prm/pocket_docking_4.prm

>  <SCORE>
-20.2774

>  <SCORE.INTER>
-24.4518

>  <SCORE.INTER.CONST>
1

>  <SCORE.INTER.POLAR>
-1.63459

>  <SCORE.INTER.ROT>
6

>  <SCORE.INTER.SOLV>
16.4934

>  <SCORE.INTER.VDW>
-23.9504

>  <SCORE.INTER.norm>
-1.11145

>  <SCORE.INTRA>
4.1744

>  <SCORE.INTRA.DIHEDRAL>
1.78312

>  <SCORE.INTRA.DIHEDRAL.0>
5.05013

>  <SCORE.INTRA.POLAR>
0

>  <SCORE.INTRA.POLAR.0>
0

>  <SCORE.INTRA.REPUL>
0

>  <SCORE.INTRA.REPUL.0>
0

>  <SCORE.INTRA.SOLV>
3.86909

>  <SCORE.INTRA.SOLV.lig_0>
-54.1265

>  <SCORE.INTRA.VDW>
1.34829

>  <SCORE.INTRA.VDW.0>
-2.1303

>  <SCORE.INTRA.norm>
0.189745

>  <SCORE.RESTR>
0

>  <SCORE.RESTR.CAVITY>
0

>  <SCORE.RESTR.norm>
0

>  <SCORE.SYSTEM>
0

>  <SCORE.SYSTEM.CONST>
0

>  <SCORE.SYSTEM.DIHEDRAL>
0

>  <SCORE.SYSTEM.SOLV>
0

>  <SCORE.SYSTEM.norm>
0

>  <SCORE.heavy>
22

>  <SCORE.norm>
-0.921701

>  <RMSD>
1.981

$$$$
ligand
 OpenBabel11021811443D
libRbt.so/2013.1/901 2013/11/27
 22 23  0  0  0  0  0  0  0  0999 V2000
   17.1765   39.5643   64.0191 C   0  0  0  0  0  0  0  0  0  0  0  0
   23.2425   38.6998   66.8745 C   0  0  0  0  0  0  0  0  0  0  0  0
   29.1467   38.4496   66.1063 P   0  0  1  0  0  0  0  0  0  0  0  0
   19.3956   39.2067   64.8383 N   0  0  0  0  0  0  0  0  0  0  0  0
   29.1773   37.0552   65.5953 O   0  0  0  0  0  0  0  0  0  0  0  0
   25.5631   40.8091   64.3502 S   0  0  0  0  0  0  0  0  0  0  0  0
   24.1785   41.6099   64.8640 C   0  0  0  0  0  0  0  0  0  0  0  0
   18.4117   40.1304   64.5593 C   0  0  0  0  0  0  0  0  0  0  0  0
   30.1886   38.7477   67.1226 O   0  5  0  0  0  0  0  0  0  0  0  0
   23.3868   40.9195   65.7124 N   0  0  0  0  0  0  0  0  0  0  0  0
   18.5515   41.4165   64.7397 N   0  0  0  0  0  0  0  0  0  0  0  0
   29.1303   39.4240   64.9688 O   0  0  0  0  0  0  0  0  0  0  0  0
   23.9408   39.6621   65.9594 C   0  0  2  0  0  0  0  0  0  0  0  0
   19.7400   41.9215   65.2569 C   0  0  0  0  0  0  0  0  0  0  0  0
   19.8707   43.2352   65.4160 N   0  0  0  0  0  0  0  0  0  0  0  0
   25.1232   39.4158   65.3024 C   0  0  1  0  0  0  0  0  0  0  0  0
   20.8066   41.0003   65.6128 C   0  0  0  0  0  0  0  0  0  0  0  0
   25.9479   38.1798   65.3382 C   0  0  0  0  0  0  0  0  0  0  0  0
   20.5671   39.6674   65.3454 C   0  0  0  0  0  0  0  0  0  0  0  0
   26.5672   37.9828   66.6709 C   0  0  0  0  0  0  0  0  0  0  0  0
   22.0743   41.4847   66.2903 C   0  0  0  0  0  0  0  0  0  0  0  0
   27.8080   38.6472   66.9123 O   0  0  0  0  0  0  0  0  0  0  0  0
  1  8  1  0  0  0  0
  3  5  1  6  0  0  0
  3  9  1  0  0  0  0
  3 12  2  0  0  0  0
  3 22  1  0  0  0  0
  4  8  2  0  0  0  0
  4 19  1  0  0  0  0
  6 16  1  0  0  0  0
  6  7  1  0  0  0  0
  7 10  1  0  0  0  0
  8 11  1  0  0  0  0
 10 13  1  0  0  0  0
 10 21  1  0  0  0  0
 11 14  2  0  0  0  0
 13  2  1  6  0  0  0
 13 16  1  0  0  0  0
 14 15  1  0  0  0  0
 14 17  1  0  0  0  0
 16 18  1  6  0  0  0
 17 19  2  0  0  0  0
 17 21  1  0  0  0  0
 18 20  1  0  0  0  0
 20 22  1  0  0  0  0
M  CHG  1   9  -1
M  END
>  <CHROM.1>
100.57622897,112.13308198,-134.70071787,-85.47100338,-60.13178629,-30.07751957
24.19613161,39.78971910,65.52891080,2.88975566,-0.07554800,-0.15506662

>  <Name>
ligand

>  <RI>
0

>  <Rbt.Current_Directory>
/home/itssahil/PROJECTS/Mol_Feturizer/New_Systems/rnas/2HOM

>  <Rbt.Executable>
rbdock ($Id: //depot/dev/client3/rdock/2013.1/src/exe/rbdock.cxx#4 $)

>  <Rbt.Library>
libRbt.so (2013.1, Build901 2013/11/27)

>  <Rbt.Parameter_File>
/export/apps/rDock/src/rDock_2013.1_src/data/scripts/dock_solv.prm

>  <Rbt.Receptor>
prm/pocket_docking_3.prm

>  <SCORE>
-19.9809

>  <SCORE.INTER>
-21.5925

>  <SCORE.INTER.CONST>
1

>  <SCORE.INTER.POLAR>
-1.63379

>  <SCORE.INTER.ROT>
6

>  <SCORE.INTER.SOLV>
19.0274

>  <SCORE.INTER.VDW>
-22.8915

>  <SCORE.INTER.norm>
-0.981478

>  <SCORE.INTRA>
1.6116

>  <SCORE.INTRA.DIHEDRAL>
2.7378

>  <SCORE.INTRA.DIHEDRAL.0>
5.05013

>  <SCORE.INTRA.POLAR>
0

>  <SCORE.INTRA.POLAR.0>
0

>  <SCORE.INTRA.REPUL>
0

>  <SCORE.INTRA.REPUL.0>
0

>  <SCORE.INTRA.SOLV>
0.721593

>  <SCORE.INTRA.SOLV.lig_0>
-54.1265

>  <SCORE.INTRA.VDW>
-0.118097

>  <SCORE.INTRA.VDW.0>
-2.1303

>  <SCORE.INTRA.norm>
0.0732545

>  <SCORE.RESTR>
0

>  <SCORE.RESTR.CAVITY>
0

>  <SCORE.RESTR.norm>
0

>  <SCORE.SYSTEM>
0

>  <SCORE.SYSTEM.CONST>
0

>  <SCORE.SYSTEM.DIHEDRAL>
0

>  <SCORE.SYSTEM.SOLV>
0

>  <SCORE.SYSTEM.norm>
0

>  <SCORE.heavy>
22

>  <SCORE.norm>
-0.908224

>  <RMSD>
1.990

$$$$
ligand
 OpenBabel11021811443D
libRbt.so/2013.1/901 2013/11/27
 22 23  0  0  0  0  0  0  0  0999 V2000
   17.7105   39.9693   64.6030 C   0  0  0  0  0  0  0  0  0  0  0  0
   25.9708   41.2929   67.1074 C   0  0  0  0  0  0  0  0  0  0  0  0
   29.1353   37.0990   65.6257 P   0  0  1  0  0  0  0  0  0  0  0  0
   20.0059   39.3198   64.7841 N   0  0  0  0  0  0  0  0  0  0  0  0
   30.0962   38.0434   65.0002 O   0  0  0  0  0  0  0  0  0  0  0  0
   24.2941   37.6612   67.5615 S   0  0  0  0  0  0  0  0  0  0  0  0
   23.3557   38.7649   66.7106 C   0  0  0  0  0  0  0  0  0  0  0  0
   19.0945   40.3488   64.8834 C   0  0  0  0  0  0  0  0  0  0  0  0
   28.2387   36.4146   64.6588 O   0  5  0  0  0  0  0  0  0  0  0  0
   23.9009   39.9891   66.5464 N   0  0  0  0  0  0  0  0  0  0  0  0
   19.4174   41.5774   65.1872 N   0  0  0  0  0  0  0  0  0  0  0  0
   29.8504   36.1554   66.5432 O   0  0  0  0  0  0  0  0  0  0  0  0
   25.1591   40.0317   67.1499 C   0  0  2  0  0  0  0  0  0  0  0  0
   20.7439   41.9037   65.4493 C   0  0  0  0  0  0  0  0  0  0  0  0
   21.0561   43.1635   65.7387 N   0  0  0  0  0  0  0  0  0  0  0  0
   25.5444   38.8608   67.7589 C   0  0  1  0  0  0  0  0  0  0  0  0
   21.7537   40.8591   65.4033 C   0  0  0  0  0  0  0  0  0  0  0  0
   26.8048   38.5871   68.4977 C   0  0  0  0  0  0  0  0  0  0  0  0
   21.3087   39.6054   65.0350 C   0  0  0  0  0  0  0  0  0  0  0  0
   27.6338   37.5784   67.7950 C   0  0  0  0  0  0  0  0  0  0  0  0
   23.1925   41.1345   65.7966 C   0  0  0  0  0  0  0  0  0  0  0  0
   28.1282   37.9336   66.5032 O   0  0  0  0  0  0  0  0  0  0  0  0
  1  8  1  0  0  0  0
  3  5  1  6  0  0  0
  3  9  1  0  0  0  0
  3 12  2  0  0  0  0
  3 22  1  0  0  0  0
  4  8  2  0  0  0  0
  4 19  1  0  0  0  0
  6 16  1  0  0  0  0
  6  7  1  0  0  0  0
  7 10  1  0  0  0  0
  8 11  1  0  0  0  0
 10 13  1  0  0  0  0
 10 21  1  0  0  0  0
 11 14  2  0  0  0  0
 13  2  1  1  0  0  0
 13 16  1  0  0  0  0
 14 15  1  0  0  0  0
 14 17  1  0  0  0  0
 16 18  1  1  0  0  0
 17 19  2  0  0  0  0
 17 21  1  0  0  0  0
 18 20  1  0  0  0  0
 20 22  1  0  0  0  0
M  CHG  1   9  -1
M  END
>  <CHROM.1>
7.67723550,66.24959589,142.86753120,63.79628493,173.67076544,-139.11671244
24.62542698,39.09883192,66.15039332,2.82651276,-0.24837343,0.38070861

>  <Name>
ligand

>  <RI>
0

>  <Rbt.Current_Directory>
/home/itssahil/PROJECTS/Mol_Feturizer/New_Systems/rnas/2HOM

>  <Rbt.Executable>
rbdock ($Id: //depot/dev/client3/rdock/2013.1/src/exe/rbdock.cxx#4 $)

>  <Rbt.Library>
libRbt.so (2013.1, Build901 2013/11/27)

>  <Rbt.Parameter_File>
/export/apps/rDock/src/rDock_2013.1_src/data/scripts/dock_solv.prm

>  <Rbt.Receptor>
prm/pocket_docking_4.prm

>  <SCORE>
-20.1068

>  <SCORE.INTER>
-22.2518

>  <SCORE.INTER.CONST>
1

>  <SCORE.INTER.POLAR>
-1.63459

>  <SCORE.INTER.ROT>
6

>  <SCORE.INTER.SOLV>
15.9179

>  <SCORE.INTER.VDW>
-22.2919

>  <SCORE.INTER.norm>
-1.01145

>  <SCORE.INTRA>
2.14499

>  <SCORE.INTRA.DIHEDRAL>
2.28203

>  <SCORE.INTRA.DIHEDRAL.0>
5.05013

>  <SCORE.INTRA.POLAR>
0

>  <SCORE.INTRA.POLAR.0>
0

>  <SCORE.INTRA.REPUL>
0

>  <SCORE.INTRA.REPUL.0>
0

>  <SCORE.INTRA.SOLV>
0.397086

>  <SCORE.INTRA.SOLV.lig_0>
-54.1265

>  <SCORE.INTRA.VDW>
0.805431

>  <SCORE.INTRA.VDW.0>
-2.1303

>  <SCORE.INTRA.norm>
0.0974996

>  <SCORE.RESTR>
0

>  <SCORE.RESTR.CAVITY>
0

>  <SCORE.RESTR.norm>
0

>  <SCORE.SYSTEM>
0

>  <SCORE.SYSTEM.CONST>
0

>  <SCORE.SYSTEM.DIHEDRAL>
0

>  <SCORE.SYSTEM.SOLV>
0

>  <SCORE.SYSTEM.norm>
0

>  <SCORE.heavy>
22

>  <SCORE.norm>
-0.913947

>  <RMSD>
1.994

$$$$
ligand
 OpenBabel11021811443D
libRbt.so/2013.1/901 2013/11/27
 22 23  0  0  0  0  0  0  0  0999 V2000
   17.6087   39.7786   64.2548 C   0  0  0  0  0  0  0  0  0  0  0  0
   25.0696   42.0703   65.9405 C   0  0  0  0  0  0  0  0  0  0  0  0
   29.2936   36.6390   65.3957 P   0  0  1  0  0  0  0  0  0  0  0  0
   19.5217   39.4032   65.6414 N   0  0  0  0  0  0  0  0  0  0  0  0
   28.3195   35.7783   64.6771 O   0  0  0  0  0  0  0  0  0  0  0  0
   24.7123   38.5591   67.8771 S   0  0  0  0  0  0  0  0  0  0  0  0
   23.3121   39.4870   67.8444 C   0  0  0  0  0  0  0  0  0  0  0  0
   18.7969   40.3208   64.9121 C   0  0  0  0  0  0  0  0  0  0  0  0
   29.6217   36.1718   66.7673 O   0  5  0  0  0  0  0  0  0  0  0  0
   23.4108   40.6685   67.1984 N   0  0  0  0  0  0  0  0  0  0  0  0
   19.1315   41.5774   64.7894 N   0  0  0  0  0  0  0  0  0  0  0  0
   30.5029   36.8835   64.5462 O   0  0  0  0  0  0  0  0  0  0  0  0
   24.7049   40.8285   66.6996 C   0  0  2  0  0  0  0  0  0  0  0  0
   20.2681   42.0606   65.4294 C   0  0  0  0  0  0  0  0  0  0  0  0
   20.6032   43.3385   65.2776 N   0  0  0  0  0  0  0  0  0  0  0  0
   25.5593   39.7867   66.9732 C   0  0  1  0  0  0  0  0  0  0  0  0
   21.0581   41.1574   66.2498 C   0  0  0  0  0  0  0  0  0  0  0  0
   26.9928   39.6592   66.6018 C   0  0  0  0  0  0  0  0  0  0  0  0
   20.6359   39.8435   66.2791 C   0  0  0  0  0  0  0  0  0  0  0  0
   27.3392   38.2585   66.2606 C   0  0  0  0  0  0  0  0  0  0  0  0
   22.2360   41.6574   67.0642 C   0  0  0  0  0  0  0  0  0  0  0  0
   28.6142   38.0357   65.6573 O   0  0  0  0  0  0  0  0  0  0  0  0
  1  8  1  0  0  0  0
  3  5  1  6  0  0  0
  3  9  1  0  0  0  0
  3 12  2  0  0  0  0
  3 22  1  0  0  0  0
  4  8  2  0  0  0  0
  4 19  1  0  0  0  0
  6 16  1  0  0  0  0
  6  7  1  0  0  0  0
  7 10  1  0  0  0  0
  8 11  1  0  0  0  0
 10 13  1  0  0  0  0
 10 21  1  0  0  0  0
 11 14  2  0  0  0  0
 13  2  1  1  0  0  0
 13 16  1  0  0  0  0
 14 15  1  0  0  0  0
 14 17  1  0  0  0  0
 16 18  1  1  0  0  0
 17 19  2  0  0  0  0
 17 21  1  0  0  0  0
 18 20  1  0  0  0  0
 20 22  1  0  0  0  0
M  CHG  1   9  -1
M  END
>  <CHROM.1>
-64.80787953,36.92873363,-145.94067781,169.04384245,170.58748436,51.54889304
24.46249585,39.33142914,66.05035233,2.77890769,-0.20944972,0.46192767

>  <Name>
ligand

>  <RI>
0

>  <Rbt.Current_Directory>
/home/itssahil/PROJECTS/Mol_Feturizer/New_Systems/rnas/2HOM

>  <Rbt.Executable>
rbdock ($Id: //depot/dev/client3/rdock/2013.1/src/exe/rbdock.cxx#4 $)

>  <Rbt.Library>
libRbt.so (2013.1, Build901 2013/11/27)

>  <Rbt.Parameter_File>
/export/apps/rDock/src/rDock_2013.1_src/data/scripts/dock_solv.prm

>  <Rbt.Receptor>
prm/pocket_docking_7.prm

>  <SCORE>
-23.9965

>  <SCORE.INTER>
-25.2759

>  <SCORE.INTER.CONST>
1

>  <SCORE.INTER.POLAR>
-1.63459

>  <SCORE.INTER.ROT>
6

>  <SCORE.INTER.SOLV>
15.7697

>  <SCORE.INTER.VDW>
-24.2585

>  <SCORE.INTER.norm>
-1.1489

>  <SCORE.INTRA>
1.27933

>  <SCORE.INTRA.DIHEDRAL>
0.776544

>  <SCORE.INTRA.DIHEDRAL.0>
5.05013

>  <SCORE.INTRA.POLAR>
0

>  <SCORE.INTRA.POLAR.0>
0

>  <SCORE.INTRA.REPUL>
0

>  <SCORE.INTRA.REPUL.0>
0

>  <SCORE.INTRA.SOLV>
0.134063

>  <SCORE.INTRA.SOLV.lig_0>
-54.1265

>  <SCORE.INTRA.VDW>
0.82403

>  <SCORE.INTRA.VDW.0>
-2.1303

>  <SCORE.INTRA.norm>
0.0581515

>  <SCORE.RESTR>
0

>  <SCORE.RESTR.CAVITY>
0

>  <SCORE.RESTR.norm>
0

>  <SCORE.SYSTEM>
0

>  <SCORE.SYSTEM.CONST>
0

>  <SCORE.SYSTEM.DIHEDRAL>
0

>  <SCORE.SYSTEM.SOLV>
0

>  <SCORE.SYSTEM.norm>
0

>  <SCORE.heavy>
22

>  <SCORE.norm>
-1.09075

>  <RMSD>
1.995

$$$$
ligand
 OpenBabel11021811443D
libRbt.so/2013.1/901 2013/11/27
 22 23  0  0  0  0  0  0  0  0999 V2000
   17.2377   40.0527   63.7761 C   0  0  0  0  0  0  0  0  0  0  0  0
   24.8691   41.8559   66.8464 C   0  0  0  0  0  0  0  0  0  0  0  0
   29.5728   36.7673   65.2892 P   0  0  1  0  0  0  0  0  0  0  0  0
   18.9841   39.2983   65.2267 N   0  0  0  0  0  0  0  0  0  0  0  0
   29.8632   36.0680   66.5670 O   0  0  0  0  0  0  0  0  0  0  0  0
   24.4204   37.8811   66.3916 S   0  0  0  0  0  0  0  0  0  0  0  0
   22.9847   38.7298   66.5939 C   0  0  0  0  0  0  0  0  0  0  0  0
   18.4512   40.3619   64.5309 C   0  0  0  0  0  0  0  0  0  0  0  0
   30.7728   37.3289   64.6170 O   0  5  0  0  0  0  0  0  0  0  0  0
   23.1135   40.0651   66.7472 N   0  0  0  0  0  0  0  0  0  0  0  0
   18.9772   41.5573   64.5180 N   0  0  0  0  0  0  0  0  0  0  0  0
   28.7421   35.8996   64.3943 O   0  0  0  0  0  0  0  0  0  0  0  0
   24.4630   40.4192   66.6969 C   0  0  2  0  0  0  0  0  0  0  0  0
   20.1319   41.8174   65.2487 C   0  0  0  0  0  0  0  0  0  0  0  0
   20.6634   43.0357   65.2085 N   0  0  0  0  0  0  0  0  0  0  0  0
   25.3273   39.3657   66.5146 C   0  0  1  0  0  0  0  0  0  0  0  0
   20.7258   40.7521   66.0396 C   0  0  0  0  0  0  0  0  0  0  0  0
   26.8111   39.4043   66.4363 C   0  0  0  0  0  0  0  0  0  0  0  0
   20.1104   39.5197   65.9507 C   0  0  0  0  0  0  0  0  0  0  0  0
   27.3660   38.0824   66.0580 C   0  0  0  0  0  0  0  0  0  0  0  0
   21.9131   41.0111   66.9473 C   0  0  0  0  0  0  0  0  0  0  0  0
   28.7235   38.0530   65.6158 O   0  0  0  0  0  0  0  0  0  0  0  0
  1  8  1  0  0  0  0
  3  5  1  1  0  0  0
  3  9  1  0  0  0  0
  3 12  2  0  0  0  0
  3 22  1  0  0  0  0
  4  8  2  0  0  0  0
  4 19  1  0  0  0  0
  6 16  1  0  0  0  0
  6  7  1  0  0  0  0
  7 10  1  0  0  0  0
  8 11  1  0  0  0  0
 10 13  1  0  0  0  0
 10 21  1  0  0  0  0
 11 14  2  0  0  0  0
 13  2  1  1  0  0  0
 13 16  1  0  0  0  0
 14 15  1  0  0  0  0
 14 17  1  0  0  0  0
 16 18  1  1  0  0  0
 17 19  2  0  0  0  0
 17 21  1  0  0  0  0
 18 20  1  0  0  0  0
 20 22  1  0  0  0  0
M  CHG  1   9  -1
M  END
>  <CHROM.1>
-43.90168190,7.94546208,-127.96431578,164.43632344,173.98228918,-70.47400288
24.35037758,39.12810080,65.72838527,2.81454394,-0.17786385,0.39671680

>  <Name>
ligand

>  <RI>
0

>  <Rbt.Current_Directory>
/home/itssahil/PROJECTS/Mol_Feturizer/New_Systems/rnas/2HOM

>  <Rbt.Executable>
rbdock ($Id: //depot/dev/client3/rdock/2013.1/src/exe/rbdock.cxx#4 $)

>  <Rbt.Library>
libRbt.so (2013.1, Build901 2013/11/27)

>  <Rbt.Parameter_File>
/export/apps/rDock/src/rDock_2013.1_src/data/scripts/dock_solv.prm

>  <Rbt.Receptor>
prm/pocket_docking_4.prm

>  <SCORE>
-21.5095

>  <SCORE.INTER>
-23.5402

>  <SCORE.INTER.CONST>
1

>  <SCORE.INTER.POLAR>
-1.28891

>  <SCORE.INTER.ROT>
6

>  <SCORE.INTER.SOLV>
17.6714

>  <SCORE.INTER.VDW>
-24.8876

>  <SCORE.INTER.norm>
-1.07001

>  <SCORE.INTRA>
2.03022

>  <SCORE.INTRA.DIHEDRAL>
0.720853

>  <SCORE.INTRA.DIHEDRAL.0>
5.05013

>  <SCORE.INTRA.POLAR>
0

>  <SCORE.INTRA.POLAR.0>
0

>  <SCORE.INTRA.REPUL>
0

>  <SCORE.INTRA.REPUL.0>
0

>  <SCORE.INTRA.SOLV>
0.192279

>  <SCORE.INTRA.SOLV.lig_0>
-54.1265

>  <SCORE.INTRA.VDW>
1.57366

>  <SCORE.INTRA.VDW.0>
-2.1303

>  <SCORE.INTRA.norm>
0.0922828

>  <SCORE.RESTR>
0.00041296

>  <SCORE.RESTR.CAVITY>
0.00041296

>  <SCORE.RESTR.norm>
1.87709e-05

>  <SCORE.SYSTEM>
0

>  <SCORE.SYSTEM.CONST>
0

>  <SCORE.SYSTEM.DIHEDRAL>
0

>  <SCORE.SYSTEM.SOLV>
0

>  <SCORE.SYSTEM.norm>
0

>  <SCORE.heavy>
22

>  <SCORE.norm>
-0.977707

>  <RMSD>
2.030

$$$$
ligand
 OpenBabel11021811443D
libRbt.so/2013.1/901 2013/11/27
 22 23  0  0  0  0  0  0  0  0999 V2000
   17.5859   39.8847   64.6702 C   0  0  0  0  0  0  0  0  0  0  0  0
   25.8452   41.3587   67.1849 C   0  0  0  0  0  0  0  0  0  0  0  0
   29.7180   39.4339   66.2152 P   0  0  1  0  0  0  0  0  0  0  0  0
   19.3020   41.2259   65.6599 N   0  0  0  0  0  0  0  0  0  0  0  0
   29.9813   40.7864   65.6605 O   0  0  0  0  0  0  0  0  0  0  0  0
   24.3435   37.7221   68.0375 S   0  0  0  0  0  0  0  0  0  0  0  0
   23.3584   38.6774   67.0682 C   0  0  0  0  0  0  0  0  0  0  0  0
   19.0030   40.0631   64.9833 C   0  0  0  0  0  0  0  0  0  0  0  0
   29.3598   38.4167   65.1933 O   0  5  0  0  0  0  0  0  0  0  0  0
   23.8447   39.9011   66.7697 N   0  0  0  0  0  0  0  0  0  0  0  0
   19.8938   39.1680   64.6498 N   0  0  0  0  0  0  0  0  0  0  0  0
   30.8410   39.0071   67.1100 O   0  0  0  0  0  0  0  0  0  0  0  0
   25.0953   40.0718   67.3663 C   0  0  2  0  0  0  0  0  0  0  0  0
   21.2341   39.3700   64.9622 C   0  0  0  0  0  0  0  0  0  0  0  0
   22.1239   38.4390   64.6312 N   0  0  0  0  0  0  0  0  0  0  0  0
   25.5329   38.9959   68.1021 C   0  0  1  0  0  0  0  0  0  0  0  0
   21.6277   40.5947   65.6393 C   0  0  0  0  0  0  0  0  0  0  0  0
   26.8001   38.8677   68.8682 C   0  0  0  0  0  0  0  0  0  0  0  0
   20.6015   41.4533   65.9784 C   0  0  0  0  0  0  0  0  0  0  0  0
   27.9309   38.4997   67.9827 C   0  0  0  0  0  0  0  0  0  0  0  0
   23.0866   40.9203   65.8964 C   0  0  0  0  0  0  0  0  0  0  0  0
   28.4171   39.5113   67.0998 O   0  0  0  0  0  0  0  0  0  0  0  0
  1  8  1  0  0  0  0
  3  5  1  6  0  0  0
  3  9  1  0  0  0  0
  3 12  2  0  0  0  0
  3 22  1  0  0  0  0
  4  8  2  0  0  0  0
  4 19  1  0  0  0  0
  6 16  1  0  0  0  0
  6  7  1  0  0  0  0
  7 10  1  0  0  0  0
  8 11  1  0  0  0  0
 10 13  1  0  0  0  0
 10 21  1  0  0  0  0
 11 14  2  0  0  0  0
 13  2  1  1  0  0  0
 13 16  1  0  0  0  0
 14 15  1  0  0  0  0
 14 17  1  0  0  0  0
 16 18  1  1  0  0  0
 17 19  2  0  0  0  0
 17 21  1  0  0  0  0
 18 20  1  0  0  0  0
 20 22  1  0  0  0  0
M  CHG  1   9  -1
M  END
>  <CHROM.1>
13.00353627,98.87600442,-60.33513869,72.16027378,171.01317803,-169.29926097
24.80212496,39.53027528,66.43199330,-2.97634067,0.03588694,2.24670492

>  <Name>
ligand

>  <RI>
0

>  <Rbt.Current_Directory>
/home/itssahil/PROJECTS/Mol_Feturizer/New_Systems/rnas/2HOM

>  <Rbt.Executable>
rbdock ($Id: //depot/dev/client3/rdock/2013.1/src/exe/rbdock.cxx#4 $)

>  <Rbt.Library>
libRbt.so (2013.1, Build901 2013/11/27)

>  <Rbt.Parameter_File>
/export/apps/rDock/src/rDock_2013.1_src/data/scripts/dock_solv.prm

>  <Rbt.Receptor>
prm/pocket_docking_6.prm

>  <SCORE>
-17.0142

>  <SCORE.INTER>
-18.7356

>  <SCORE.INTER.CONST>
1

>  <SCORE.INTER.POLAR>
-1.63459

>  <SCORE.INTER.ROT>
6

>  <SCORE.INTER.SOLV>
15.5734

>  <SCORE.INTER.VDW>
-19.8329

>  <SCORE.INTER.norm>
-0.851618

>  <SCORE.INTRA>
1.7214

>  <SCORE.INTRA.DIHEDRAL>
0.797306

>  <SCORE.INTRA.DIHEDRAL.0>
5.05013

>  <SCORE.INTRA.POLAR>
0

>  <SCORE.INTRA.POLAR.0>
0

>  <SCORE.INTRA.REPUL>
0

>  <SCORE.INTRA.REPUL.0>
0

>  <SCORE.INTRA.SOLV>
2.48498

>  <SCORE.INTRA.SOLV.lig_0>
-54.1265

>  <SCORE.INTRA.VDW>
0.0802569

>  <SCORE.INTRA.VDW.0>
-2.1303

>  <SCORE.INTRA.norm>
0.0782455

>  <SCORE.RESTR>
0

>  <SCORE.RESTR.CAVITY>
0

>  <SCORE.RESTR.norm>
0

>  <SCORE.SYSTEM>
0

>  <SCORE.SYSTEM.CONST>
0

>  <SCORE.SYSTEM.DIHEDRAL>
0

>  <SCORE.SYSTEM.SOLV>
0

>  <SCORE.SYSTEM.norm>
0

>  <SCORE.heavy>
22

>  <SCORE.norm>
-0.773372

>  <RMSD>
2.031

$$$$
ligand
 OpenBabel11021811443D
libRbt.so/2013.1/901 2013/11/27
 22 23  0  0  0  0  0  0  0  0999 V2000
   17.0292   40.1125   63.6399 C   0  0  0  0  0  0  0  0  0  0  0  0
   25.1082   40.9258   66.5763 C   0  0  0  0  0  0  0  0  0  0  0  0
   29.7027   39.6268   63.7734 P   0  0  1  0  0  0  0  0  0  0  0  0
   18.9517   39.1584   64.6968 N   0  0  0  0  0  0  0  0  0  0  0  0
   28.9415   40.0636   62.5751 O   0  0  0  0  0  0  0  0  0  0  0  0
   24.0512   37.1980   65.4840 S   0  0  0  0  0  0  0  0  0  0  0  0
   22.7636   38.2519   65.7159 C   0  0  0  0  0  0  0  0  0  0  0  0
   18.3249   40.3151   64.2864 C   0  0  0  0  0  0  0  0  0  0  0  0
   30.7850   38.6511   63.4839 O   0  5  0  0  0  0  0  0  0  0  0  0
   23.0971   39.5081   66.0818 N   0  0  0  0  0  0  0  0  0  0  0  0
   18.8333   41.5088   64.4375 N   0  0  0  0  0  0  0  0  0  0  0  0
   30.1676   40.8137   64.5600 O   0  0  0  0  0  0  0  0  0  0  0  0
   24.4853   39.6197   66.1794 C   0  0  2  0  0  0  0  0  0  0  0  0
   20.0682   41.6657   65.0583 C   0  0  0  0  0  0  0  0  0  0  0  0
   20.5783   42.8871   65.1864 N   0  0  0  0  0  0  0  0  0  0  0  0
   25.1761   38.4652   65.8965 C   0  0  1  0  0  0  0  0  0  0  0  0
   20.7673   40.4915   65.5536 C   0  0  0  0  0  0  0  0  0  0  0  0
   26.6464   38.2496   65.9270 C   0  0  0  0  0  0  0  0  0  0  0  0
   20.1579   39.2777   65.3072 C   0  0  0  0  0  0  0  0  0  0  0  0
   27.3260   39.0128   64.8527 C   0  0  0  0  0  0  0  0  0  0  0  0
   22.0568   40.6152   66.3427 C   0  0  0  0  0  0  0  0  0  0  0  0
   28.7301   38.8028   64.6986 O   0  0  0  0  0  0  0  0  0  0  0  0
  1  8  1  0  0  0  0
  3  5  1  6  0  0  0
  3  9  1  0  0  0  0
  3 12  2  0  0  0  0
  3 22  1  0  0  0  0
  4  8  2  0  0  0  0
  4 19  1  0  0  0  0
  6 16  1  0  0  0  0
  6  7  1  0  0  0  0
  7 10  1  0  0  0  0
  8 11  1  0  0  0  0
 10 13  1  0  0  0  0
 10 21  1  0  0  0  0
 11 14  2  0  0  0  0
 13  2  1  1  0  0  0
 13 16  1  0  0  0  0
 14 15  1  0  0  0  0
 14 17  1  0  0  0  0
 16 18  1  1  0  0  0
 17 19  2  0  0  0  0
 17 21  1  0  0  0  0
 18 20  1  0  0  0  0
 20 22  1  0  0  0  0
M  CHG  1   9  -1
M  END
>  <CHROM.1>
-29.18707319,112.67022358,-144.02553191,-174.74993080,-171.17888948,-32.52738573
24.32338697,39.63943017,64.93300342,-3.06382810,-0.10028885,2.83156103

>  <Name>
ligand

>  <RI>
0

>  <Rbt.Current_Directory>
/home/itssahil/PROJECTS/Mol_Feturizer/New_Systems/rnas/2HOM

>  <Rbt.Executable>
rbdock ($Id: //depot/dev/client3/rdock/2013.1/src/exe/rbdock.cxx#4 $)

>  <Rbt.Library>
libRbt.so (2013.1, Build901 2013/11/27)

>  <Rbt.Parameter_File>
/export/apps/rDock/src/rDock_2013.1_src/data/scripts/dock_solv.prm

>  <Rbt.Receptor>
prm/pocket_docking_5.prm

>  <SCORE>
-15.2148

>  <SCORE.INTER>
-16.5784

>  <SCORE.INTER.CONST>
1

>  <SCORE.INTER.POLAR>
0

>  <SCORE.INTER.ROT>
6

>  <SCORE.INTER.SOLV>
14.8965

>  <SCORE.INTER.VDW>
-23.6177

>  <SCORE.INTER.norm>
-0.753562

>  <SCORE.INTRA>
1.36356

>  <SCORE.INTRA.DIHEDRAL>
0.915938

>  <SCORE.INTRA.DIHEDRAL.0>
5.05013

>  <SCORE.INTRA.POLAR>
0

>  <SCORE.INTRA.POLAR.0>
0

>  <SCORE.INTRA.REPUL>
0

>  <SCORE.INTRA.REPUL.0>
0

>  <SCORE.INTRA.SOLV>
-0.153458

>  <SCORE.INTRA.SOLV.lig_0>
-54.1265

>  <SCORE.INTRA.VDW>
0.98232

>  <SCORE.INTRA.VDW.0>
-2.1303

>  <SCORE.INTRA.norm>
0.06198

>  <SCORE.RESTR>
0

>  <SCORE.RESTR.CAVITY>
0

>  <SCORE.RESTR.norm>
0

>  <SCORE.SYSTEM>
0

>  <SCORE.SYSTEM.CONST>
0

>  <SCORE.SYSTEM.DIHEDRAL>
0

>  <SCORE.SYSTEM.SOLV>
0

>  <SCORE.SYSTEM.norm>
0

>  <SCORE.heavy>
22

>  <SCORE.norm>
-0.691582

>  <RMSD>
2.064

$$$$
ligand
 OpenBabel11021811443D
libRbt.so/2013.1/901 2013/11/27
 22 23  0  0  0  0  0  0  0  0999 V2000
   16.8351   40.0166   63.5712 C   0  0  0  0  0  0  0  0  0  0  0  0
   24.7646   40.9736   66.8915 C   0  0  0  0  0  0  0  0  0  0  0  0
   29.2307   36.8580   65.6048 P   0  0  1  0  0  0  0  0  0  0  0  0
   18.6435   39.1333   64.8646 N   0  0  0  0  0  0  0  0  0  0  0  0
   30.5862   37.3024   66.0186 O   0  0  0  0  0  0  0  0  0  0  0  0
   23.7575   37.2011   65.9114 S   0  0  0  0  0  0  0  0  0  0  0  0
   22.4641   38.2690   66.0084 C   0  0  0  0  0  0  0  0  0  0  0  0
   18.1041   40.2480   64.2598 C   0  0  0  0  0  0  0  0  0  0  0  0
   29.2157   36.0020   64.3906 O   0  5  0  0  0  0  0  0  0  0  0  0
   22.7811   39.5402   66.3350 N   0  0  0  0  0  0  0  0  0  0  0  0
   18.6688   41.4256   64.2729 N   0  0  0  0  0  0  0  0  0  0  0  0
   28.4999   36.2557   66.7654 O   0  0  0  0  0  0  0  0  0  0  0  0
   24.1606   39.6520   66.5175 C   0  0  2  0  0  0  0  0  0  0  0  0
   19.8760   41.6111   64.9388 C   0  0  0  0  0  0  0  0  0  0  0  0
   20.4452   42.8128   64.9255 N   0  0  0  0  0  0  0  0  0  0  0  0
   24.8611   38.4831   66.3356 C   0  0  1  0  0  0  0  0  0  0  0  0
   20.4821   40.4878   65.6345 C   0  0  0  0  0  0  0  0  0  0  0  0
   26.3250   38.2646   66.4720 C   0  0  0  0  0  0  0  0  0  0  0  0
   19.8205   39.2814   65.5238 C   0  0  0  0  0  0  0  0  0  0  0  0
   26.9968   38.2700   65.1503 C   0  0  0  0  0  0  0  0  0  0  0  0
   21.7329   40.6618   66.4745 C   0  0  0  0  0  0  0  0  0  0  0  0
   28.4176   38.1266   65.1460 O   0  0  0  0  0  0  0  0  0  0  0  0
  1  8  1  0  0  0  0
  3  5  1  1  0  0  0
  3  9  1  0  0  0  0
  3 12  2  0  0  0  0
  3 22  1  0  0  0  0
  4  8  2  0  0  0  0
  4 19  1  0  0  0  0
  6 16  1  0  0  0  0
  6  7  1  0  0  0  0
  7 10  1  0  0  0  0
  8 11  1  0  0  0  0
 10 13  1  0  0  0  0
 10 21  1  0  0  0  0
 11 14  2  0  0  0  0
 13  2  1  1  0  0  0
 13 16  1  0  0  0  0
 14 15  1  0  0  0  0
 14 17  1  0  0  0  0
 16 18  1  1  0  0  0
 17 19  2  0  0  0  0
 17 21  1  0  0  0  0
 18 20  1  0  0  0  0
 20 22  1  0  0  0  0
M  CHG  1   9  -1
M  END
>  <CHROM.1>
-27.80468580,80.99390249,-138.71769216,177.41078824,65.48249218,-154.86245252
23.99063656,38.84656008,65.56507939,2.82727076,-0.16786479,0.22844817

>  <Name>
ligand

>  <RI>
0

>  <Rbt.Current_Directory>
/home/itssahil/PROJECTS/Mol_Feturizer/New_Systems/rnas/2HOM

>  <Rbt.Executable>
rbdock ($Id: //depot/dev/client3/rdock/2013.1/src/exe/rbdock.cxx#4 $)

>  <Rbt.Library>
libRbt.so (2013.1, Build901 2013/11/27)

>  <Rbt.Parameter_File>
/export/apps/rDock/src/rDock_2013.1_src/data/scripts/dock_solv.prm

>  <Rbt.Receptor>
prm/pocket_docking_6.prm

>  <SCORE>
-22.3929

>  <SCORE.INTER>
-24.4061

>  <SCORE.INTER.CONST>
1

>  <SCORE.INTER.POLAR>
-1.29598

>  <SCORE.INTER.ROT>
6

>  <SCORE.INTER.SOLV>
18.9609

>  <SCORE.INTER.VDW>
-25.8711

>  <SCORE.INTER.norm>
-1.10937

>  <SCORE.INTRA>
2.01318

>  <SCORE.INTRA.DIHEDRAL>
0.91212

>  <SCORE.INTRA.DIHEDRAL.0>
5.05013

>  <SCORE.INTRA.POLAR>
0

>  <SCORE.INTRA.POLAR.0>
0

>  <SCORE.INTRA.REPUL>
0

>  <SCORE.INTRA.REPUL.0>
0

>  <SCORE.INTRA.SOLV>
1.61155

>  <SCORE.INTRA.SOLV.lig_0>
-54.1265

>  <SCORE.INTRA.VDW>
0.751346

>  <SCORE.INTRA.VDW.0>
-2.1303

>  <SCORE.INTRA.norm>
0.0915083

>  <SCORE.RESTR>
0

>  <SCORE.RESTR.CAVITY>
0

>  <SCORE.RESTR.norm>
0

>  <SCORE.SYSTEM>
0

>  <SCORE.SYSTEM.CONST>
0

>  <SCORE.SYSTEM.DIHEDRAL>
0

>  <SCORE.SYSTEM.SOLV>
0

>  <SCORE.SYSTEM.norm>
0

>  <SCORE.heavy>
22

>  <SCORE.norm>
-1.01786

>  <RMSD>
2.066

$$$$
ligand
 OpenBabel11021811443D
libRbt.so/2013.1/901 2013/11/27
 22 23  0  0  0  0  0  0  0  0999 V2000
   18.1548   40.5977   64.7506 C   0  0  0  0  0  0  0  0  0  0  0  0
   25.2321   38.5798   68.7180 C   0  0  0  0  0  0  0  0  0  0  0  0
   29.8288   40.1774   66.5216 P   0  0  1  0  0  0  0  0  0  0  0  0
   19.9042   39.4378   65.8983 N   0  0  0  0  0  0  0  0  0  0  0  0
   29.0821   40.0828   67.8021 O   0  0  0  0  0  0  0  0  0  0  0  0
   26.0928   39.5692   64.9118 S   0  0  0  0  0  0  0  0  0  0  0  0
   24.7029   40.2866   65.5252 C   0  0  0  0  0  0  0  0  0  0  0  0
   19.4564   40.6481   65.4149 C   0  0  0  0  0  0  0  0  0  0  0  0
   29.8348   41.5359   65.9202 O   0  5  0  0  0  0  0  0  0  0  0  0
   24.3972   39.9683   66.8012 N   0  0  0  0  0  0  0  0  0  0  0  0
   20.1286   41.7634   65.5157 N   0  0  0  0  0  0  0  0  0  0  0  0
   31.1974   39.5866   66.6684 O   0  0  0  0  0  0  0  0  0  0  0  0
   25.3523   39.0868   67.3109 C   0  0  2  0  0  0  0  0  0  0  0  0
   21.3639   41.7761   66.1552 C   0  0  0  0  0  0  0  0  0  0  0  0
   22.0421   42.9173   66.2316 N   0  0  0  0  0  0  0  0  0  0  0  0
   26.3511   38.7485   66.4287 C   0  0  1  0  0  0  0  0  0  0  0  0
   21.8796   40.5427   66.7260 C   0  0  0  0  0  0  0  0  0  0  0  0
   27.4960   37.8278   66.6542 C   0  0  0  0  0  0  0  0  0  0  0  0
   21.1058   39.4167   66.5288 C   0  0  0  0  0  0  0  0  0  0  0  0
   28.5424   38.0046   65.6188 C   0  0  0  0  0  0  0  0  0  0  0  0
   23.1616   40.5238   67.5364 C   0  0  0  0  0  0  0  0  0  0  0  0
   29.0625   39.3229   65.4429 O   0  0  0  0  0  0  0  0  0  0  0  0
  1  8  1  0  0  0  0
  3  5  1  1  0  0  0
  3  9  1  0  0  0  0
  3 12  2  0  0  0  0
  3 22  1  0  0  0  0
  4  8  2  0  0  0  0
  4 19  1  0  0  0  0
  6 16  1  0  0  0  0
  6  7  1  0  0  0  0
  7 10  1  0  0  0  0
  8 11  1  0  0  0  0
 10 13  1  0  0  0  0
 10 21  1  0  0  0  0
 11 14  2  0  0  0  0
 13  2  1  6  0  0  0
 13 16  1  0  0  0  0
 14 15  1  0  0  0  0
 14 17  1  0  0  0  0
 16 18  1  6  0  0  0
 17 19  2  0  0  0  0
 17 21  1  0  0  0  0
 18 20  1  0  0  0  0
 20 22  1  0  0  0  0
M  CHG  1   9  -1
M  END
>  <CHROM.1>
43.34467785,16.11404241,-103.53287154,55.11788965,61.78821354,-45.83556215
25.24703219,39.99991780,66.26355677,-3.00896671,0.01914606,2.81265279

>  <Name>
ligand

>  <RI>
0

>  <Rbt.Current_Directory>
/home/itssahil/PROJECTS/Mol_Feturizer/New_Systems/rnas/2HOM

>  <Rbt.Executable>
rbdock ($Id: //depot/dev/client3/rdock/2013.1/src/exe/rbdock.cxx#4 $)

>  <Rbt.Library>
libRbt.so (2013.1, Build901 2013/11/27)

>  <Rbt.Parameter_File>
/export/apps/rDock/src/rDock_2013.1_src/data/scripts/dock_solv.prm

>  <Rbt.Receptor>
prm/pocket_docking_2.prm

>  <SCORE>
-9.86304

>  <SCORE.INTER>
-11.0412

>  <SCORE.INTER.CONST>
1

>  <SCORE.INTER.POLAR>
0

>  <SCORE.INTER.ROT>
6

>  <SCORE.INTER.SOLV>
11.9057

>  <SCORE.INTER.VDW>
-18.9294

>  <SCORE.INTER.norm>
-0.501875

>  <SCORE.INTRA>
1.06725

>  <SCORE.INTRA.DIHEDRAL>
0.0780387

>  <SCORE.INTRA.DIHEDRAL.0>
5.05013

>  <SCORE.INTRA.POLAR>
0

>  <SCORE.INTRA.POLAR.0>
0

>  <SCORE.INTRA.REPUL>
0

>  <SCORE.INTRA.REPUL.0>
0

>  <SCORE.INTRA.SOLV>
0.843002

>  <SCORE.INTRA.SOLV.lig_0>
-54.1265

>  <SCORE.INTRA.VDW>
0.606733

>  <SCORE.INTRA.VDW.0>
-2.1303

>  <SCORE.INTRA.norm>
0.0485115

>  <SCORE.RESTR>
0.110947

>  <SCORE.RESTR.CAVITY>
0.110947

>  <SCORE.RESTR.norm>
0.00504306

>  <SCORE.SYSTEM>
0

>  <SCORE.SYSTEM.CONST>
0

>  <SCORE.SYSTEM.DIHEDRAL>
0

>  <SCORE.SYSTEM.SOLV>
0

>  <SCORE.SYSTEM.norm>
0

>  <SCORE.heavy>
22

>  <SCORE.norm>
-0.44832

>  <RMSD>
2.082

$$$$
ligand
 OpenBabel11021811443D
libRbt.so/2013.1/901 2013/11/27
 22 23  0  0  0  0  0  0  0  0999 V2000
   17.3787   40.1335   63.7605 C   0  0  0  0  0  0  0  0  0  0  0  0
   24.0536   41.2471   64.8698 C   0  0  0  0  0  0  0  0  0  0  0  0
   29.4676   36.6080   64.8970 P   0  0  1  0  0  0  0  0  0  0  0  0
   18.9943   39.3268   65.3296 N   0  0  0  0  0  0  0  0  0  0  0  0
   29.9667   36.6730   66.2945 O   0  0  0  0  0  0  0  0  0  0  0  0
   24.8614   38.0713   67.2083 S   0  0  0  0  0  0  0  0  0  0  0  0
   23.4802   38.9254   67.6389 C   0  0  0  0  0  0  0  0  0  0  0  0
   18.5776   40.3895   64.5574 C   0  0  0  0  0  0  0  0  0  0  0  0
   30.4952   36.9163   63.8693 O   0  5  0  0  0  0  0  0  0  0  0  0
   23.1910   39.9941   66.8660 N   0  0  0  0  0  0  0  0  0  0  0  0
   19.1953   41.5394   64.5113 N   0  0  0  0  0  0  0  0  0  0  0  0
   28.7553   35.3127   64.6550 O   0  0  0  0  0  0  0  0  0  0  0  0
   24.1522   40.1260   65.8621 C   0  0  2  0  0  0  0  0  0  0  0  0
   20.3330   41.7496   65.2836 C   0  0  0  0  0  0  0  0  0  0  0  0
   20.9592   42.9203   65.2094 N   0  0  0  0  0  0  0  0  0  0  0  0
   25.1449   39.1752   65.8883 C   0  0  1  0  0  0  0  0  0  0  0  0
   20.8060   40.6856   66.1539 C   0  0  0  0  0  0  0  0  0  0  0  0
   26.3132   39.0488   64.9781 C   0  0  0  0  0  0  0  0  0  0  0  0
   20.1009   39.5003   66.0959 C   0  0  0  0  0  0  0  0  0  0  0  0
   27.1344   37.8615   65.3159 C   0  0  0  0  0  0  0  0  0  0  0  0
   21.9681   40.9016   67.1044 C   0  0  0  0  0  0  0  0  0  0  0  0
   28.4177   37.7649   64.6969 O   0  0  0  0  0  0  0  0  0  0  0  0
  1  8  1  0  0  0  0
  3  5  1  1  0  0  0
  3  9  1  0  0  0  0
  3 12  2  0  0  0  0
  3 22  1  0  0  0  0
  4  8  2  0  0  0  0
  4 19  1  0  0  0  0
  6 16  1  0  0  0  0
  6  7  1  0  0  0  0
  7 10  1  0  0  0  0
  8 11  1  0  0  0  0
 10 13  1  0  0  0  0
 10 21  1  0  0  0  0
 11 14  2  0  0  0  0
 13  2  1  1  0  0  0
 13 16  1  0  0  0  0
 14 15  1  0  0  0  0
 14 17  1  0  0  0  0
 16 18  1  1  0  0  0
 17 19  2  0  0  0  0
 17 21  1  0  0  0  0
 18 20  1  0  0  0  0
 20 22  1  0  0  0  0
M  CHG  1   9  -1
M  END
>  <CHROM.1>
-103.47483555,2.17969787,-118.98861689,-168.14150888,179.87511781,-67.42378388
24.34165529,39.02565393,65.52338593,3.02112611,-0.38036807,1.29692958

>  <Name>
ligand

>  <RI>
0

>  <Rbt.Current_Directory>
/home/itssahil/PROJECTS/Mol_Feturizer/New_Systems/rnas/2HOM

>  <Rbt.Executable>
rbdock ($Id: //depot/dev/client3/rdock/2013.1/src/exe/rbdock.cxx#4 $)

>  <Rbt.Library>
libRbt.so (2013.1, Build901 2013/11/27)

>  <Rbt.Parameter_File>
/export/apps/rDock/src/rDock_2013.1_src/data/scripts/dock_solv.prm

>  <Rbt.Receptor>
prm/pocket_docking_7.prm

>  <SCORE>
-22.6424

>  <SCORE.INTER>
-24.6264

>  <SCORE.INTER.CONST>
1

>  <SCORE.INTER.POLAR>
-1.29492

>  <SCORE.INTER.ROT>
6

>  <SCORE.INTER.SOLV>
18.6124

>  <SCORE.INTER.VDW>
-25.9054

>  <SCORE.INTER.norm>
-1.11938

>  <SCORE.INTRA>
1.98401

>  <SCORE.INTRA.DIHEDRAL>
0.146198

>  <SCORE.INTRA.DIHEDRAL.0>
5.05013

>  <SCORE.INTRA.POLAR>
0

>  <SCORE.INTRA.POLAR.0>
0

>  <SCORE.INTRA.REPUL>
0

>  <SCORE.INTRA.REPUL.0>
0

>  <SCORE.INTRA.SOLV>
1.41244

>  <SCORE.INTRA.SOLV.lig_0>
-54.1265

>  <SCORE.INTRA.VDW>
1.20469

>  <SCORE.INTRA.VDW.0>
-2.1303

>  <SCORE.INTRA.norm>
0.0901823

>  <SCORE.RESTR>
0

>  <SCORE.RESTR.CAVITY>
0

>  <SCORE.RESTR.norm>
0

>  <SCORE.SYSTEM>
0

>  <SCORE.SYSTEM.CONST>
0

>  <SCORE.SYSTEM.DIHEDRAL>
0

>  <SCORE.SYSTEM.SOLV>
0

>  <SCORE.SYSTEM.norm>
0

>  <SCORE.heavy>
22

>  <SCORE.norm>
-1.0292

>  <RMSD>
2.087

$$$$
ligand
 OpenBabel11021811443D
libRbt.so/2013.1/901 2013/11/27
 22 23  0  0  0  0  0  0  0  0999 V2000
   17.5103   39.8230   63.8757 C   0  0  0  0  0  0  0  0  0  0  0  0
   24.4960   41.4288   64.3335 C   0  0  0  0  0  0  0  0  0  0  0  0
   29.5179   37.5391   65.2318 P   0  0  1  0  0  0  0  0  0  0  0  0
   19.0632   41.5605   64.4172 N   0  0  0  0  0  0  0  0  0  0  0  0
   29.6967   39.0136   65.2205 O   0  0  0  0  0  0  0  0  0  0  0  0
   24.8852   38.7066   67.2737 S   0  0  0  0  0  0  0  0  0  0  0  0
   23.5698   39.7379   67.4431 C   0  0  0  0  0  0  0  0  0  0  0  0
   18.7150   40.2386   64.5926 C   0  0  0  0  0  0  0  0  0  0  0  0
   30.4202   36.8100   64.3037 O   0  5  0  0  0  0  0  0  0  0  0  0
   23.4209   40.6581   66.4663 N   0  0  0  0  0  0  0  0  0  0  0  0
   19.3824   39.4062   65.3460 N   0  0  0  0  0  0  0  0  0  0  0  0
   29.5614   37.0170   66.6351 O   0  0  0  0  0  0  0  0  0  0  0  0
   24.4395   40.5152   65.5223 C   0  0  2  0  0  0  0  0  0  0  0  0
   20.5253   39.8346   66.0133 C   0  0  0  0  0  0  0  0  0  0  0  0
   21.1811   38.9778   66.7906 N   0  0  0  0  0  0  0  0  0  0  0  0
   25.3366   39.5090   65.7926 C   0  0  1  0  0  0  0  0  0  0  0  0
   20.9750   41.2062   65.8411 C   0  0  0  0  0  0  0  0  0  0  0  0
   26.5323   39.1146   65.0026 C   0  0  0  0  0  0  0  0  0  0  0  0
   20.1744   42.0093   65.0540 C   0  0  0  0  0  0  0  0  0  0  0  0
   26.8404   37.6744   65.1730 C   0  0  0  0  0  0  0  0  0  0  0  0
   22.2775   41.6917   66.4480 C   0  0  0  0  0  0  0  0  0  0  0  0
   28.0889   37.2140   64.6546 O   0  0  0  0  0  0  0  0  0  0  0  0
  1  8  1  0  0  0  0
  3  5  1  6  0  0  0
  3  9  1  0  0  0  0
  3 12  2  0  0  0  0
  3 22  1  0  0  0  0
  4  8  2  0  0  0  0
  4 19  1  0  0  0  0
  6 16  1  0  0  0  0
  6  7  1  0  0  0  0
  7 10  1  0  0  0  0
  8 11  1  0  0  0  0
 10 13  1  0  0  0  0
 10 21  1  0  0  0  0
 11 14  2  0  0  0  0
 13  2  1  1  0  0  0
 13 16  1  0  0  0  0
 14 15  1  0  0  0  0
 14 17  1  0  0  0  0
 16 18  1  1  0  0  0
 17 19  2  0  0  0  0
 17 21  1  0  0  0  0
 18 20  1  0  0  0  0
 20 22  1  0  0  0  0
M  CHG  1   9  -1
M  END
>  <CHROM.1>
-84.86197339,29.10284343,35.72573712,-169.66640390,70.55392240,-58.74692616
24.45948329,39.30966486,65.57300433,-3.09852211,-0.29901414,1.68202730

>  <Name>
ligand

>  <RI>
0

>  <Rbt.Current_Directory>
/home/itssahil/PROJECTS/Mol_Feturizer/New_Systems/rnas/2HOM

>  <Rbt.Executable>
rbdock ($Id: //depot/dev/client3/rdock/2013.1/src/exe/rbdock.cxx#4 $)

>  <Rbt.Library>
libRbt.so (2013.1, Build901 2013/11/27)

>  <Rbt.Parameter_File>
/export/apps/rDock/src/rDock_2013.1_src/data/scripts/dock_solv.prm

>  <Rbt.Receptor>
prm/pocket_docking_6.prm

>  <SCORE>
-21.2467

>  <SCORE.INTER>
-24.3569

>  <SCORE.INTER.CONST>
1

>  <SCORE.INTER.POLAR>
-1.63459

>  <SCORE.INTER.ROT>
6

>  <SCORE.INTER.SOLV>
14.3901

>  <SCORE.INTER.VDW>
-23.186

>  <SCORE.INTER.norm>
-1.10713

>  <SCORE.INTRA>
3.11018

>  <SCORE.INTRA.DIHEDRAL>
0.806654

>  <SCORE.INTRA.DIHEDRAL.0>
5.05013

>  <SCORE.INTRA.POLAR>
0

>  <SCORE.INTRA.POLAR.0>
0

>  <SCORE.INTRA.REPUL>
0

>  <SCORE.INTRA.REPUL.0>
0

>  <SCORE.INTRA.SOLV>
2.9428

>  <SCORE.INTRA.SOLV.lig_0>
-54.1265

>  <SCORE.INTRA.VDW>
1.23545

>  <SCORE.INTRA.VDW.0>
-2.1303

>  <SCORE.INTRA.norm>
0.141372

>  <SCORE.RESTR>
0

>  <SCORE.RESTR.CAVITY>
0

>  <SCORE.RESTR.norm>
0

>  <SCORE.SYSTEM>
0

>  <SCORE.SYSTEM.CONST>
0

>  <SCORE.SYSTEM.DIHEDRAL>
0

>  <SCORE.SYSTEM.SOLV>
0

>  <SCORE.SYSTEM.norm>
0

>  <SCORE.heavy>
22

>  <SCORE.norm>
-0.965761

>  <RMSD>
2.089

$$$$
ligand
 OpenBabel11021811443D
libRbt.so/2013.1/901 2013/11/27
 22 23  0  0  0  0  0  0  0  0999 V2000
   17.0145   39.8378   63.8298 C   0  0  0  0  0  0  0  0  0  0  0  0
   24.6772   40.7178   64.5913 C   0  0  0  0  0  0  0  0  0  0  0  0
   29.2910   36.6809   65.3305 P   0  0  1  0  0  0  0  0  0  0  0  0
   19.1676   39.1456   64.6100 N   0  0  0  0  0  0  0  0  0  0  0  0
   28.2658   35.8365   64.6656 O   0  0  0  0  0  0  0  0  0  0  0  0
   24.0944   37.5030   66.9434 S   0  0  0  0  0  0  0  0  0  0  0  0
   22.9007   38.6799   67.0567 C   0  0  0  0  0  0  0  0  0  0  0  0
   18.3051   40.2023   64.4125 C   0  0  0  0  0  0  0  0  0  0  0  0
   29.6001   36.2762   66.7262 O   0  5  0  0  0  0  0  0  0  0  0  0
   23.0772   39.7663   66.2746 N   0  0  0  0  0  0  0  0  0  0  0  0
   18.5986   41.4420   64.7003 N   0  0  0  0  0  0  0  0  0  0  0  0
   30.5073   36.8068   64.4653 O   0  0  0  0  0  0  0  0  0  0  0  0
   24.2558   39.6329   65.5382 C   0  0  2  0  0  0  0  0  0  0  0  0
   19.8356   41.7536   65.2550 C   0  0  0  0  0  0  0  0  0  0  0  0
   20.1235   43.0237   65.5240 N   0  0  0  0  0  0  0  0  0  0  0  0
   24.9502   38.4692   65.7706 C   0  0  1  0  0  0  0  0  0  0  0  0
   20.7799   40.6830   65.5291 C   0  0  0  0  0  0  0  0  0  0  0  0
   26.2376   38.0374   65.1662 C   0  0  0  0  0  0  0  0  0  0  0  0
   20.3824   39.4163   65.1509 C   0  0  0  0  0  0  0  0  0  0  0  0
   27.3910   38.4502   66.0014 C   0  0  0  0  0  0  0  0  0  0  0  0
   22.0918   40.9511   66.2416 C   0  0  0  0  0  0  0  0  0  0  0  0
   28.6930   38.1267   65.5120 O   0  0  0  0  0  0  0  0  0  0  0  0
  1  8  1  0  0  0  0
  3  5  1  6  0  0  0
  3  9  1  0  0  0  0
  3 12  2  0  0  0  0
  3 22  1  0  0  0  0
  4  8  2  0  0  0  0
  4 19  1  0  0  0  0
  6 16  1  0  0  0  0
  6  7  1  0  0  0  0
  7 10  1  0  0  0  0
  8 11  1  0  0  0  0
 10 13  1  0  0  0  0
 10 21  1  0  0  0  0
 11 14  2  0  0  0  0
 13  2  1  1  0  0  0
 13 16  1  0  0  0  0
 14 15  1  0  0  0  0
 14 17  1  0  0  0  0
 16 18  1  1  0  0  0
 17 19  2  0  0  0  0
 17 21  1  0  0  0  0
 18 20  1  0  0  0  0
 20 22  1  0  0  0  0
M  CHG  1   9  -1
M  END
>  <CHROM.1>
-73.33847108,-87.18967371,-171.26942839,-178.34928936,-65.80560001,45.93195738
24.15171924,38.86719747,65.48522574,2.76617465,-0.04579772,-0.01568764

>  <Name>
ligand

>  <RI>
0

>  <Rbt.Current_Directory>
/home/itssahil/PROJECTS/Mol_Feturizer/New_Systems/rnas/2HOM

>  <Rbt.Executable>
rbdock ($Id: //depot/dev/client3/rdock/2013.1/src/exe/rbdock.cxx#4 $)

>  <Rbt.Library>
libRbt.so (2013.1, Build901 2013/11/27)

>  <Rbt.Parameter_File>
/export/apps/rDock/src/rDock_2013.1_src/data/scripts/dock_solv.prm

>  <Rbt.Receptor>
prm/pocket_docking_5.prm

>  <SCORE>
-27.4884

>  <SCORE.INTER>
-28.0127

>  <SCORE.INTER.CONST>
1

>  <SCORE.INTER.POLAR>
-1.6281

>  <SCORE.INTER.ROT>
6

>  <SCORE.INTER.SOLV>
19.1357

>  <SCORE.INTER.VDW>
-27.2267

>  <SCORE.INTER.norm>
-1.2733

>  <SCORE.INTRA>
0.524275

>  <SCORE.INTRA.DIHEDRAL>
0.2775

>  <SCORE.INTRA.DIHEDRAL.0>
5.05013

>  <SCORE.INTRA.POLAR>
0

>  <SCORE.INTRA.POLAR.0>
0

>  <SCORE.INTRA.REPUL>
0

>  <SCORE.INTRA.REPUL.0>
0

>  <SCORE.INTRA.SOLV>
0.424115

>  <SCORE.INTRA.SOLV.lig_0>
-54.1265

>  <SCORE.INTRA.VDW>
0.173468

>  <SCORE.INTRA.VDW.0>
-2.1303

>  <SCORE.INTRA.norm>
0.0238307

>  <SCORE.RESTR>
0

>  <SCORE.RESTR.CAVITY>
0

>  <SCORE.RESTR.norm>
0

>  <SCORE.SYSTEM>
0

>  <SCORE.SYSTEM.CONST>
0

>  <SCORE.SYSTEM.DIHEDRAL>
0

>  <SCORE.SYSTEM.SOLV>
0

>  <SCORE.SYSTEM.norm>
0

>  <SCORE.heavy>
22

>  <SCORE.norm>
-1.24947

>  <RMSD>
2.091

$$$$
ligand
 OpenBabel11021811443D
libRbt.so/2013.1/901 2013/11/27
 22 23  0  0  0  0  0  0  0  0999 V2000
   17.2763   39.6755   64.0983 C   0  0  0  0  0  0  0  0  0  0  0  0
   23.5239   39.2399   67.6017 C   0  0  0  0  0  0  0  0  0  0  0  0
   28.6304   39.5897   68.9350 P   0  0  1  0  0  0  0  0  0  0  0  0
   19.5496   39.3789   64.7819 N   0  0  0  0  0  0  0  0  0  0  0  0
   29.5352   38.4128   68.9829 O   0  0  0  0  0  0  0  0  0  0  0  0
   25.5543   40.5504   64.3820 S   0  0  0  0  0  0  0  0  0  0  0  0
   24.1665   41.4271   64.7399 C   0  0  0  0  0  0  0  0  0  0  0  0
   18.5050   40.2646   64.6285 C   0  0  0  0  0  0  0  0  0  0  0  0
   27.6427   39.6429   70.0435 O   0  5  0  0  0  0  0  0  0  0  0  0
   23.4715   41.0040   65.8173 N   0  0  0  0  0  0  0  0  0  0  0  0
   18.5848   41.5371   64.9124 N   0  0  0  0  0  0  0  0  0  0  0  0
   29.4214   40.8526   68.7830 O   0  0  0  0  0  0  0  0  0  0  0  0
   24.1070   39.8989   66.3864 C   0  0  2  0  0  0  0  0  0  0  0  0
   19.7691   42.0646   65.4165 C   0  0  0  0  0  0  0  0  0  0  0  0
   19.8374   43.3658   65.6820 N   0  0  0  0  0  0  0  0  0  0  0  0
   25.2541   39.5004   65.7416 C   0  0  1  0  0  0  0  0  0  0  0  0
   20.9000   41.1798   65.6429 C   0  0  0  0  0  0  0  0  0  0  0  0
   26.1440   38.3596   66.0819 C   0  0  0  0  0  0  0  0  0  0  0  0
   20.7188   39.8623   65.2729 C   0  0  0  0  0  0  0  0  0  0  0  0
   26.6832   38.4875   67.4571 C   0  0  0  0  0  0  0  0  0  0  0  0
   22.1724   41.6780   66.3012 C   0  0  0  0  0  0  0  0  0  0  0  0
   27.7154   39.4532   67.6602 O   0  0  0  0  0  0  0  0  0  0  0  0
  1  8  1  0  0  0  0
  3  5  1  1  0  0  0
  3  9  1  0  0  0  0
  3 12  2  0  0  0  0
  3 22  1  0  0  0  0
  4  8  2  0  0  0  0
  4 19  1  0  0  0  0
  6 16  1  0  0  0  0
  6  7  1  0  0  0  0
  7 10  1  0  0  0  0
  8 11  1  0  0  0  0
 10 13  1  0  0  0  0
 10 21  1  0  0  0  0
 11 14  2  0  0  0  0
 13  2  1  6  0  0  0
 13 16  1  0  0  0  0
 14 15  1  0  0  0  0
 14 17  1  0  0  0  0
 16 18  1  6  0  0  0
 17 19  2  0  0  0  0
 17 21  1  0  0  0  0
 18 20  1  0  0  0  0
 20 22  1  0  0  0  0
M  CHG  1   9  -1
M  END
>  <CHROM.1>
86.56904699,121.72130704,-147.42014108,-74.73546588,-167.51589951,68.86157967
24.12113629,40.19506596,66.45518774,2.77228181,0.15981574,-1.56875738

>  <Name>
ligand

>  <RI>
0

>  <Rbt.Current_Directory>
/home/itssahil/PROJECTS/Mol_Feturizer/New_Systems/rnas/2HOM

>  <Rbt.Executable>
rbdock ($Id: //depot/dev/client3/rdock/2013.1/src/exe/rbdock.cxx#4 $)

>  <Rbt.Library>
libRbt.so (2013.1, Build901 2013/11/27)

>  <Rbt.Parameter_File>
/export/apps/rDock/src/rDock_2013.1_src/data/scripts/dock_solv.prm

>  <Rbt.Receptor>
prm/pocket_docking_4.prm

>  <SCORE>
-21.4063

>  <SCORE.INTER>
-22.2273

>  <SCORE.INTER.CONST>
1

>  <SCORE.INTER.POLAR>
-2.46856

>  <SCORE.INTER.ROT>
6

>  <SCORE.INTER.SOLV>
23.469

>  <SCORE.INTER.VDW>
-22.0127

>  <SCORE.INTER.norm>
-1.01033

>  <SCORE.INTRA>
0.820984

>  <SCORE.INTRA.DIHEDRAL>
1.02385

>  <SCORE.INTRA.DIHEDRAL.0>
5.05013

>  <SCORE.INTRA.POLAR>
0

>  <SCORE.INTRA.POLAR.0>
0

>  <SCORE.INTRA.REPUL>
0

>  <SCORE.INTRA.REPUL.0>
0

>  <SCORE.INTRA.SOLV>
0.0350728

>  <SCORE.INTRA.SOLV.lig_0>
-54.1265

>  <SCORE.INTRA.VDW>
0.291525

>  <SCORE.INTRA.VDW.0>
-2.1303

>  <SCORE.INTRA.norm>
0.0373175

>  <SCORE.RESTR>
0

>  <SCORE.RESTR.CAVITY>
0

>  <SCORE.RESTR.norm>
0

>  <SCORE.SYSTEM>
0

>  <SCORE.SYSTEM.CONST>
0

>  <SCORE.SYSTEM.DIHEDRAL>
0

>  <SCORE.SYSTEM.SOLV>
0

>  <SCORE.SYSTEM.norm>
0

>  <SCORE.heavy>
22

>  <SCORE.norm>
-0.973013

>  <RMSD>
2.099

$$$$
ligand
 OpenBabel11021811443D
libRbt.so/2013.1/901 2013/11/27
 22 23  0  0  0  0  0  0  0  0999 V2000
   16.9175   39.6700   63.5683 C   0  0  0  0  0  0  0  0  0  0  0  0
   24.6836   41.3023   67.2392 C   0  0  0  0  0  0  0  0  0  0  0  0
   29.4070   36.7773   65.2768 P   0  0  1  0  0  0  0  0  0  0  0  0
   18.9002   39.0166   64.7366 N   0  0  0  0  0  0  0  0  0  0  0  0
   30.6170   36.3886   66.0456 O   0  0  0  0  0  0  0  0  0  0  0  0
   23.9233   37.5175   66.0972 S   0  0  0  0  0  0  0  0  0  0  0  0
   22.6062   38.5563   66.0018 C   0  0  0  0  0  0  0  0  0  0  0  0
   18.1584   40.0636   64.2340 C   0  0  0  0  0  0  0  0  0  0  0  0
   29.6598   37.7825   64.2124 O   0  5  0  0  0  0  0  0  0  0  0  0
   22.8408   39.8311   66.3796 N   0  0  0  0  0  0  0  0  0  0  0  0
   18.5200   41.3158   64.3190 N   0  0  0  0  0  0  0  0  0  0  0  0
   28.6854   35.5602   64.7851 O   0  0  0  0  0  0  0  0  0  0  0  0
   24.1737   39.9712   66.7706 C   0  0  2  0  0  0  0  0  0  0  0  0
   19.7066   41.6554   64.9606 C   0  0  0  0  0  0  0  0  0  0  0  0
   20.0676   42.9339   65.0209 N   0  0  0  0  0  0  0  0  0  0  0  0
   24.9201   38.8193   66.6912 C   0  0  1  0  0  0  0  0  0  0  0  0
   20.5195   40.6049   65.5510 C   0  0  0  0  0  0  0  0  0  0  0  0
   26.3508   38.6314   67.0478 C   0  0  0  0  0  0  0  0  0  0  0  0
   20.0631   39.3148   65.3695 C   0  0  0  0  0  0  0  0  0  0  0  0
   27.0900   37.9384   65.9654 C   0  0  0  0  0  0  0  0  0  0  0  0
   21.7584   40.9285   66.3639 C   0  0  0  0  0  0  0  0  0  0  0  0
   28.4313   37.5396   66.2504 O   0  0  0  0  0  0  0  0  0  0  0  0
  1  8  1  0  0  0  0
  3  5  1  1  0  0  0
  3  9  1  0  0  0  0
  3 12  2  0  0  0  0
  3 22  1  0  0  0  0
  4  8  2  0  0  0  0
  4 19  1  0  0  0  0
  6 16  1  0  0  0  0
  6  7  1  0  0  0  0
  7 10  1  0  0  0  0
  8 11  1  0  0  0  0
 10 13  1  0  0  0  0
 10 21  1  0  0  0  0
 11 14  2  0  0  0  0
 13  2  1  1  0  0  0
 13 16  1  0  0  0  0
 14 15  1  0  0  0  0
 14 17  1  0  0  0  0
 16 18  1  1  0  0  0
 17 19  2  0  0  0  0
 17 21  1  0  0  0  0
 18 20  1  0  0  0  0
 20 22  1  0  0  0  0
M  CHG  1   9  -1
M  END
>  <CHROM.1>
-16.07459860,49.68340518,-153.17731620,-172.05157813,179.15353499,-171.67626000
24.06497472,38.90257399,65.58760140,2.86382673,-0.22605224,0.46892713

>  <Name>
ligand

>  <RI>
0

>  <Rbt.Current_Directory>
/home/itssahil/PROJECTS/Mol_Feturizer/New_Systems/rnas/2HOM

>  <Rbt.Executable>
rbdock ($Id: //depot/dev/client3/rdock/2013.1/src/exe/rbdock.cxx#4 $)

>  <Rbt.Library>
libRbt.so (2013.1, Build901 2013/11/27)

>  <Rbt.Parameter_File>
/export/apps/rDock/src/rDock_2013.1_src/data/scripts/dock_solv.prm

>  <Rbt.Receptor>
prm/pocket_docking_5.prm

>  <SCORE>
-22.7538

>  <SCORE.INTER>
-24.7118

>  <SCORE.INTER.CONST>
1

>  <SCORE.INTER.POLAR>
-1.30767

>  <SCORE.INTER.ROT>
6

>  <SCORE.INTER.SOLV>
19.5809

>  <SCORE.INTER.VDW>
-26.2426

>  <SCORE.INTER.norm>
-1.12326

>  <SCORE.INTRA>
1.95794

>  <SCORE.INTRA.DIHEDRAL>
0.265641

>  <SCORE.INTRA.DIHEDRAL.0>
5.05013

>  <SCORE.INTRA.POLAR>
0

>  <SCORE.INTRA.POLAR.0>
0

>  <SCORE.INTRA.REPUL>
0

>  <SCORE.INTRA.REPUL.0>
0

>  <SCORE.INTRA.SOLV>
0.573582

>  <SCORE.INTRA.SOLV.lig_0>
-54.1265

>  <SCORE.INTRA.VDW>
1.53832

>  <SCORE.INTRA.VDW.0>
-2.1303

>  <SCORE.INTRA.norm>
0.0889971

>  <SCORE.RESTR>
0

>  <SCORE.RESTR.CAVITY>
0

>  <SCORE.RESTR.norm>
0

>  <SCORE.SYSTEM>
0

>  <SCORE.SYSTEM.CONST>
0

>  <SCORE.SYSTEM.DIHEDRAL>
0

>  <SCORE.SYSTEM.SOLV>
0

>  <SCORE.SYSTEM.norm>
0

>  <SCORE.heavy>
22

>  <SCORE.norm>
-1.03426

>  <RMSD>
2.108

$$$$
ligand
 OpenBabel11021811443D
libRbt.so/2013.1/901 2013/11/27
 22 23  0  0  0  0  0  0  0  0999 V2000
   17.0717   39.4587   64.0241 C   0  0  0  0  0  0  0  0  0  0  0  0
   24.3983   41.2280   64.3938 C   0  0  0  0  0  0  0  0  0  0  0  0
   29.3244   37.4482   65.5421 P   0  0  1  0  0  0  0  0  0  0  0  0
   18.3364   41.2106   65.0509 N   0  0  0  0  0  0  0  0  0  0  0  0
   30.6847   37.5218   64.9500 O   0  0  0  0  0  0  0  0  0  0  0  0
   24.4701   38.6175   67.4576 S   0  0  0  0  0  0  0  0  0  0  0  0
   23.1314   39.6324   67.4329 C   0  0  0  0  0  0  0  0  0  0  0  0
   18.3356   39.9057   64.6077 C   0  0  0  0  0  0  0  0  0  0  0  0
   28.2928   36.8934   64.6283 O   0  5  0  0  0  0  0  0  0  0  0  0
   23.0880   40.5151   66.4121 N   0  0  0  0  0  0  0  0  0  0  0  0
   19.3639   39.1061   64.7034 N   0  0  0  0  0  0  0  0  0  0  0  0
   29.3691   36.7633   66.8735 O   0  0  0  0  0  0  0  0  0  0  0  0
   24.2127   40.3558   65.6005 C   0  0  2  0  0  0  0  0  0  0  0  0
   20.5520   39.5645   65.2632 C   0  0  0  0  0  0  0  0  0  0  0  0
   21.5823   38.7304   65.3693 N   0  0  0  0  0  0  0  0  0  0  0  0
   25.0837   39.3747   66.0114 C   0  0  1  0  0  0  0  0  0  0  0  0
   20.6377   40.9436   65.7146 C   0  0  0  0  0  0  0  0  0  0  0  0
   26.3692   38.9725   65.3828 C   0  0  0  0  0  0  0  0  0  0  0  0
   19.4812   41.6886   65.6011 C   0  0  0  0  0  0  0  0  0  0  0  0
   27.5223   39.3016   66.2548 C   0  0  0  0  0  0  0  0  0  0  0  0
   21.9422   41.5284   66.2213 C   0  0  0  0  0  0  0  0  0  0  0  0
   28.8165   38.9187   65.7880 O   0  0  0  0  0  0  0  0  0  0  0  0
  1  8  1  0  0  0  0
  3  5  1  6  0  0  0
  3  9  1  0  0  0  0
  3 12  2  0  0  0  0
  3 22  1  0  0  0  0
  4  8  2  0  0  0  0
  4 19  1  0  0  0  0
  6 16  1  0  0  0  0
  6  7  1  0  0  0  0
  7 10  1  0  0  0  0
  8 11  1  0  0  0  0
 10 13  1  0  0  0  0
 10 21  1  0  0  0  0
 11 14  2  0  0  0  0
 13  2  1  1  0  0  0
 13 16  1  0  0  0  0
 14 15  1  0  0  0  0
 14 17  1  0  0  0  0
 16 18  1  1  0  0  0
 17 19  2  0  0  0  0
 17 21  1  0  0  0  0
 18 20  1  0  0  0  0
 20 22  1  0  0  0  0
M  CHG  1   9  -1
M  END
>  <CHROM.1>
-74.23373547,-66.49680817,-8.51015264,177.65947696,-63.75661442,175.23762528
24.24850935,39.22547793,65.68402090,2.95019616,-0.18433867,0.53348187

>  <Name>
ligand

>  <RI>
0

>  <Rbt.Current_Directory>
/home/itssahil/PROJECTS/Mol_Feturizer/New_Systems/rnas/2HOM

>  <Rbt.Executable>
rbdock ($Id: //depot/dev/client3/rdock/2013.1/src/exe/rbdock.cxx#4 $)

>  <Rbt.Library>
libRbt.so (2013.1, Build901 2013/11/27)

>  <Rbt.Parameter_File>
/export/apps/rDock/src/rDock_2013.1_src/data/scripts/dock_solv.prm

>  <Rbt.Receptor>
prm/pocket_docking_3.prm

>  <SCORE>
-21.0553

>  <SCORE.INTER>
-24.7811

>  <SCORE.INTER.CONST>
1

>  <SCORE.INTER.POLAR>
-1.63459

>  <SCORE.INTER.ROT>
6

>  <SCORE.INTER.SOLV>
13.2321

>  <SCORE.INTER.VDW>
-23.0828

>  <SCORE.INTER.norm>
-1.12642

>  <SCORE.INTRA>
3.71299

>  <SCORE.INTRA.DIHEDRAL>
0.17835

>  <SCORE.INTRA.DIHEDRAL.0>
5.05013

>  <SCORE.INTRA.POLAR>
0

>  <SCORE.INTRA.POLAR.0>
0

>  <SCORE.INTRA.REPUL>
0

>  <SCORE.INTRA.REPUL.0>
0

>  <SCORE.INTRA.SOLV>
6.12721

>  <SCORE.INTRA.SOLV.lig_0>
-54.1265

>  <SCORE.INTRA.VDW>
0.560215

>  <SCORE.INTRA.VDW.0>
-2.1303

>  <SCORE.INTRA.norm>
0.168772

>  <SCORE.RESTR>
0.0128406

>  <SCORE.RESTR.CAVITY>
0.0128406

>  <SCORE.RESTR.norm>
0.000583666

>  <SCORE.SYSTEM>
0

>  <SCORE.SYSTEM.CONST>
0

>  <SCORE.SYSTEM.DIHEDRAL>
0

>  <SCORE.SYSTEM.SOLV>
0

>  <SCORE.SYSTEM.norm>
0

>  <SCORE.heavy>
22

>  <SCORE.norm>
-0.957059

>  <RMSD>
2.113

$$$$
ligand
 OpenBabel11021811443D
libRbt.so/2013.1/901 2013/11/27
 22 23  0  0  0  0  0  0  0  0999 V2000
   17.0576   39.9139   63.7250 C   0  0  0  0  0  0  0  0  0  0  0  0
   24.7221   41.7989   65.4432 C   0  0  0  0  0  0  0  0  0  0  0  0
   30.0174   37.2473   64.6483 P   0  0  1  0  0  0  0  0  0  0  0  0
   19.1181   39.0785   64.6080 N   0  0  0  0  0  0  0  0  0  0  0  0
   30.5681   37.3619   66.0230 O   0  0  0  0  0  0  0  0  0  0  0  0
   24.6456   37.7752   65.3399 S   0  0  0  0  0  0  0  0  0  0  0  0
   23.2357   38.4884   65.9110 C   0  0  0  0  0  0  0  0  0  0  0  0
   18.3311   40.1884   64.3889 C   0  0  0  0  0  0  0  0  0  0  0  0
   31.0000   37.5409   63.5733 O   0  5  0  0  0  0  0  0  0  0  0  0
   23.2408   39.8380   65.9526 N   0  0  0  0  0  0  0  0  0  0  0  0
   18.6786   41.4020   64.7242 N   0  0  0  0  0  0  0  0  0  0  0  0
   29.3184   35.9343   64.4718 O   0  0  0  0  0  0  0  0  0  0  0  0
   24.4668   40.3211   65.4915 C   0  0  2  0  0  0  0  0  0  0  0  0
   19.8973   41.6275   65.3558 C   0  0  0  0  0  0  0  0  0  0  0  0
   20.2421   42.8720   65.6728 N   0  0  0  0  0  0  0  0  0  0  0  0
   25.3638   39.3487   65.1173 C   0  0  1  0  0  0  0  0  0  0  0  0
   20.7606   40.4971   65.6557 C   0  0  0  0  0  0  0  0  0  0  0  0
   26.7475   39.5303   64.6059 C   0  0  0  0  0  0  0  0  0  0  0  0
   20.3131   39.2648   65.2235 C   0  0  0  0  0  0  0  0  0  0  0  0
   27.6201   38.3971   64.9967 C   0  0  0  0  0  0  0  0  0  0  0  0
   22.0422   40.6713   66.4478 C   0  0  0  0  0  0  0  0  0  0  0  0
   28.9414   38.3812   64.4550 O   0  0  0  0  0  0  0  0  0  0  0  0
  1  8  1  0  0  0  0
  3  5  1  1  0  0  0
  3  9  1  0  0  0  0
  3 12  2  0  0  0  0
  3 22  1  0  0  0  0
  4  8  2  0  0  0  0
  4 19  1  0  0  0  0
  6 16  1  0  0  0  0
  6  7  1  0  0  0  0
  7 10  1  0  0  0  0
  8 11  1  0  0  0  0
 10 13  1  0  0  0  0
 10 21  1  0  0  0  0
 11 14  2  0  0  0  0
 13  2  1  1  0  0  0
 13 16  1  0  0  0  0
 14 15  1  0  0  0  0
 14 17  1  0  0  0  0
 16 18  1  1  0  0  0
 17 19  2  0  0  0  0
 17 21  1  0  0  0  0
 18 20  1  0  0  0  0
 20 22  1  0  0  0  0
M  CHG  1   9  -1
M  END
>  <CHROM.1>
-60.92082987,-30.53896165,-140.24466468,173.86918651,-175.98771291,-75.32640897
24.47958905,39.17038648,65.05235763,2.84591937,-0.05497852,0.26418664

>  <Name>
ligand

>  <RI>
0

>  <Rbt.Current_Directory>
/home/itssahil/PROJECTS/Mol_Feturizer/New_Systems/rnas/2HOM

>  <Rbt.Executable>
rbdock ($Id: //depot/dev/client3/rdock/2013.1/src/exe/rbdock.cxx#4 $)

>  <Rbt.Library>
libRbt.so (2013.1, Build901 2013/11/27)

>  <Rbt.Parameter_File>
/export/apps/rDock/src/rDock_2013.1_src/data/scripts/dock_solv.prm

>  <Rbt.Receptor>
prm/pocket_docking_4.prm

>  <SCORE>
-22.3945

>  <SCORE.INTER>
-23.748

>  <SCORE.INTER.CONST>
1

>  <SCORE.INTER.POLAR>
-1.30767

>  <SCORE.INTER.ROT>
6

>  <SCORE.INTER.SOLV>
19.577

>  <SCORE.INTER.VDW>
-25.5988

>  <SCORE.INTER.norm>
-1.07945

>  <SCORE.INTRA>
1.35343

>  <SCORE.INTRA.DIHEDRAL>
0.368591

>  <SCORE.INTRA.DIHEDRAL.0>
5.05013

>  <SCORE.INTRA.POLAR>
0

>  <SCORE.INTRA.POLAR.0>
0

>  <SCORE.INTRA.REPUL>
0

>  <SCORE.INTRA.REPUL.0>
0

>  <SCORE.INTRA.SOLV>
0.3091

>  <SCORE.INTRA.SOLV.lig_0>
-54.1265

>  <SCORE.INTRA.VDW>
1.01459

>  <SCORE.INTRA.VDW.0>
-2.1303

>  <SCORE.INTRA.norm>
0.0615197

>  <SCORE.RESTR>
0

>  <SCORE.RESTR.CAVITY>
0

>  <SCORE.RESTR.norm>
0

>  <SCORE.SYSTEM>
0

>  <SCORE.SYSTEM.CONST>
0

>  <SCORE.SYSTEM.DIHEDRAL>
0

>  <SCORE.SYSTEM.SOLV>
0

>  <SCORE.SYSTEM.norm>
0

>  <SCORE.heavy>
22

>  <SCORE.norm>
-1.01793

>  <RMSD>
2.122

$$$$
ligand
 OpenBabel11021811443D
libRbt.so/2013.1/901 2013/11/27
 22 23  0  0  0  0  0  0  0  0999 V2000
   17.1331   39.2678   63.7656 C   0  0  0  0  0  0  0  0  0  0  0  0
   23.3373   40.2979   68.2313 C   0  0  0  0  0  0  0  0  0  0  0  0
   29.9783   39.7873   66.8670 P   0  0  1  0  0  0  0  0  0  0  0  0
   18.1788   41.2275   64.6540 N   0  0  0  0  0  0  0  0  0  0  0  0
   30.0134   40.7639   65.7483 O   0  0  0  0  0  0  0  0  0  0  0  0
   24.9744   40.7270   64.5786 S   0  0  0  0  0  0  0  0  0  0  0  0
   23.4674   41.4471   64.7601 C   0  0  0  0  0  0  0  0  0  0  0  0
   18.2710   39.8658   64.4623 C   0  0  0  0  0  0  0  0  0  0  0  0
   30.5961   38.4744   66.5475 O   0  5  0  0  0  0  0  0  0  0  0  0
   22.9015   41.3155   65.9789 N   0  0  0  0  0  0  0  0  0  0  0  0
   19.2769   39.1415   64.8740 N   0  0  0  0  0  0  0  0  0  0  0  0
   30.5151   40.4072   68.1205 O   0  0  0  0  0  0  0  0  0  0  0  0
   23.7457   40.5838   66.8162 C   0  0  2  0  0  0  0  0  0  0  0  0
   20.3441   39.7431   65.5328 C   0  0  0  0  0  0  0  0  0  0  0  0
   21.3505   38.9868   65.9610 N   0  0  0  0  0  0  0  0  0  0  0  0
   24.9195   40.1716   66.2309 C   0  0  1  0  0  0  0  0  0  0  0  0
   20.3332   41.1828   65.7331 C   0  0  0  0  0  0  0  0  0  0  0  0
   26.0113   39.3681   66.8404 C   0  0  0  0  0  0  0  0  0  0  0  0
   19.2048   41.8449   65.2927 C   0  0  0  0  0  0  0  0  0  0  0  0
   27.3425   39.8261   66.3753 C   0  0  0  0  0  0  0  0  0  0  0  0
   21.5228   41.9045   66.3370 C   0  0  0  0  0  0  0  0  0  0  0  0
   28.4742   39.4069   67.1387 O   0  0  0  0  0  0  0  0  0  0  0  0
  1  8  1  0  0  0  0
  3  5  1  6  0  0  0
  3  9  1  0  0  0  0
  3 12  2  0  0  0  0
  3 22  1  0  0  0  0
  4  8  2  0  0  0  0
  4 19  1  0  0  0  0
  6 16  1  0  0  0  0
  6  7  1  0  0  0  0
  7 10  1  0  0  0  0
  8 11  1  0  0  0  0
 10 13  1  0  0  0  0
 10 21  1  0  0  0  0
 11 14  2  0  0  0  0
 13  2  1  6  0  0  0
 13 16  1  0  0  0  0
 14 15  1  0  0  0  0
 14 17  1  0  0  0  0
 16 18  1  6  0  0  0
 17 19  2  0  0  0  0
 17 21  1  0  0  0  0
 18 20  1  0  0  0  0
 20 22  1  0  0  0  0
M  CHG  1   9  -1
M  END
>  <CHROM.1>
73.25527646,37.93899498,34.09598366,163.26548393,-178.52618689,5.13615681
24.31882840,40.22978010,65.95971969,-2.99593932,-0.11066172,1.21739386

>  <Name>
ligand

>  <RI>
0

>  <Rbt.Current_Directory>
/home/itssahil/PROJECTS/Mol_Feturizer/New_Systems/rnas/2HOM

>  <Rbt.Executable>
rbdock ($Id: //depot/dev/client3/rdock/2013.1/src/exe/rbdock.cxx#4 $)

>  <Rbt.Library>
libRbt.so (2013.1, Build901 2013/11/27)

>  <Rbt.Parameter_File>
/export/apps/rDock/src/rDock_2013.1_src/data/scripts/dock_solv.prm

>  <Rbt.Receptor>
prm/pocket_docking_2.prm

>  <SCORE>
-20.4379

>  <SCORE.INTER>
-24.4649

>  <SCORE.INTER.CONST>
1

>  <SCORE.INTER.POLAR>
-2.82044

>  <SCORE.INTER.ROT>
6

>  <SCORE.INTER.SOLV>
18.7567

>  <SCORE.INTER.VDW>
-20.7607

>  <SCORE.INTER.norm>
-1.11204

>  <SCORE.INTRA>
4.02694

>  <SCORE.INTRA.DIHEDRAL>
3.38103

>  <SCORE.INTRA.DIHEDRAL.0>
5.05013

>  <SCORE.INTRA.POLAR>
0

>  <SCORE.INTRA.POLAR.0>
0

>  <SCORE.INTRA.REPUL>
0

>  <SCORE.INTRA.REPUL.0>
0

>  <SCORE.INTRA.SOLV>
3.67561

>  <SCORE.INTRA.SOLV.lig_0>
-54.1265

>  <SCORE.INTRA.VDW>
0.498614

>  <SCORE.INTRA.VDW.0>
-2.1303

>  <SCORE.INTRA.norm>
0.183043

>  <SCORE.RESTR>
0

>  <SCORE.RESTR.CAVITY>
0

>  <SCORE.RESTR.norm>
0

>  <SCORE.SYSTEM>
0

>  <SCORE.SYSTEM.CONST>
0

>  <SCORE.SYSTEM.DIHEDRAL>
0

>  <SCORE.SYSTEM.SOLV>
0

>  <SCORE.SYSTEM.norm>
0

>  <SCORE.heavy>
22

>  <SCORE.norm>
-0.928997

>  <RMSD>
2.126

$$$$
ligand
 OpenBabel11021811443D
libRbt.so/2013.1/901 2013/11/27
 22 23  0  0  0  0  0  0  0  0999 V2000
   18.0110   40.2087   64.5873 C   0  0  0  0  0  0  0  0  0  0  0  0
   25.7291   41.4356   66.3080 C   0  0  0  0  0  0  0  0  0  0  0  0
   29.6514   36.5694   65.7592 P   0  0  1  0  0  0  0  0  0  0  0  0
   19.9080   39.4935   65.8574 N   0  0  0  0  0  0  0  0  0  0  0  0
   28.8060   35.3828   65.4699 O   0  0  0  0  0  0  0  0  0  0  0  0
   24.9312   37.8545   67.9650 S   0  0  0  0  0  0  0  0  0  0  0  0
   23.6601   38.9517   68.0216 C   0  0  0  0  0  0  0  0  0  0  0  0
   19.2626   40.5543   65.2596 C   0  0  0  0  0  0  0  0  0  0  0  0
   31.0843   36.2529   65.9917 O   0  5  0  0  0  0  0  0  0  0  0  0
   23.9073   40.1590   67.4699 N   0  0  0  0  0  0  0  0  0  0  0  0
   19.7191   41.7781   65.2655 N   0  0  0  0  0  0  0  0  0  0  0  0
   29.4378   37.6298   64.7231 O   0  0  0  0  0  0  0  0  0  0  0  0
   25.2106   40.1933   66.9707 C   0  0  2  0  0  0  0  0  0  0  0  0
   20.9130   42.0724   65.9159 C   0  0  0  0  0  0  0  0  0  0  0  0
   21.3714   43.3205   65.8953 N   0  0  0  0  0  0  0  0  0  0  0  0
   25.9261   39.0333   67.1514 C   0  0  1  0  0  0  0  0  0  0  0  0
   21.6268   41.0091   66.6036 C   0  0  0  0  0  0  0  0  0  0  0  0
   27.3314   38.7555   66.7548 C   0  0  0  0  0  0  0  0  0  0  0  0
   21.0752   39.7478   66.5015 C   0  0  0  0  0  0  0  0  0  0  0  0
   27.8806   37.5930   67.4932 C   0  0  0  0  0  0  0  0  0  0  0  0
   22.8674   41.2961   67.4276 C   0  0  0  0  0  0  0  0  0  0  0  0
   29.1985   37.1684   67.1437 O   0  0  0  0  0  0  0  0  0  0  0  0
  1  8  1  0  0  0  0
  3  5  1  6  0  0  0
  3  9  1  0  0  0  0
  3 12  2  0  0  0  0
  3 22  1  0  0  0  0
  4  8  2  0  0  0  0
  4 19  1  0  0  0  0
  6 16  1  0  0  0  0
  6  7  1  0  0  0  0
  7 10  1  0  0  0  0
  8 11  1  0  0  0  0
 10 13  1  0  0  0  0
 10 21  1  0  0  0  0
 11 14  2  0  0  0  0
 13  2  1  1  0  0  0
 13 16  1  0  0  0  0
 14 15  1  0  0  0  0
 14 17  1  0  0  0  0
 16 18  1  1  0  0  0
 17 19  2  0  0  0  0
 17 21  1  0  0  0  0
 18 20  1  0  0  0  0
 20 22  1  0  0  0  0
M  CHG  1   9  -1
M  END
>  <CHROM.1>
-64.08461898,-18.09631561,-148.95636127,176.20769918,-65.10243121,-56.25214638
24.90522338,39.07126902,66.41180240,2.72419841,-0.14475797,0.24866265

>  <Name>
ligand

>  <RI>
0

>  <Rbt.Current_Directory>
/home/itssahil/PROJECTS/Mol_Feturizer/New_Systems/rnas/2HOM

>  <Rbt.Executable>
rbdock ($Id: //depot/dev/client3/rdock/2013.1/src/exe/rbdock.cxx#4 $)

>  <Rbt.Library>
libRbt.so (2013.1, Build901 2013/11/27)

>  <Rbt.Parameter_File>
/export/apps/rDock/src/rDock_2013.1_src/data/scripts/dock_solv.prm

>  <Rbt.Receptor>
prm/pocket_docking_5.prm

>  <SCORE>
-23.4994

>  <SCORE.INTER>
-25.1134

>  <SCORE.INTER.CONST>
1

>  <SCORE.INTER.POLAR>
-2.12301

>  <SCORE.INTER.ROT>
6

>  <SCORE.INTER.SOLV>
15.6085

>  <SCORE.INTER.VDW>
-22.4684

>  <SCORE.INTER.norm>
-1.14152

>  <SCORE.INTRA>
1.61402

>  <SCORE.INTRA.DIHEDRAL>
-0.255272

>  <SCORE.INTRA.DIHEDRAL.0>
5.05013

>  <SCORE.INTRA.POLAR>
0

>  <SCORE.INTRA.POLAR.0>
0

>  <SCORE.INTRA.REPUL>
0

>  <SCORE.INTRA.REPUL.0>
0

>  <SCORE.INTRA.SOLV>
0.982089

>  <SCORE.INTRA.SOLV.lig_0>
-54.1265

>  <SCORE.INTRA.VDW>
1.25061

>  <SCORE.INTRA.VDW.0>
-2.1303

>  <SCORE.INTRA.norm>
0.0733646

>  <SCORE.RESTR>
0

>  <SCORE.RESTR.CAVITY>
0

>  <SCORE.RESTR.norm>
0

>  <SCORE.SYSTEM>
0

>  <SCORE.SYSTEM.CONST>
0

>  <SCORE.SYSTEM.DIHEDRAL>
0

>  <SCORE.SYSTEM.SOLV>
0

>  <SCORE.SYSTEM.norm>
0

>  <SCORE.heavy>
22

>  <SCORE.norm>
-1.06815

>  <RMSD>
2.127

$$$$
ligand
 OpenBabel11021811443D
libRbt.so/2013.1/901 2013/11/27
 22 23  0  0  0  0  0  0  0  0999 V2000
   17.6645   39.8852   64.6408 C   0  0  0  0  0  0  0  0  0  0  0  0
   25.8798   41.4541   67.2212 C   0  0  0  0  0  0  0  0  0  0  0  0
   29.8149   40.2255   66.5878 P   0  0  1  0  0  0  0  0  0  0  0  0
   19.3688   41.2578   65.6076 N   0  0  0  0  0  0  0  0  0  0  0  0
   30.1688   38.9466   65.9204 O   0  0  0  0  0  0  0  0  0  0  0  0
   24.4235   37.7943   68.0530 S   0  0  0  0  0  0  0  0  0  0  0  0
   23.4400   38.7320   67.0651 C   0  0  0  0  0  0  0  0  0  0  0  0
   19.0783   40.0759   64.9611 C   0  0  0  0  0  0  0  0  0  0  0  0
   30.7382   40.6147   67.6847 O   0  5  0  0  0  0  0  0  0  0  0  0
   23.9112   39.9632   66.7733 N   0  0  0  0  0  0  0  0  0  0  0  0
   19.9741   39.1741   64.6604 N   0  0  0  0  0  0  0  0  0  0  0  0
   29.6098   41.3071   65.5721 O   0  0  0  0  0  0  0  0  0  0  0  0
   25.1482   40.1552   67.3914 C   0  0  2  0  0  0  0  0  0  0  0  0
   21.3112   39.3882   64.9786 C   0  0  0  0  0  0  0  0  0  0  0  0
   22.2060   38.4505   64.6815 N   0  0  0  0  0  0  0  0  0  0  0  0
   25.5904   39.0877   68.1364 C   0  0  1  0  0  0  0  0  0  0  0  0
   21.6961   40.6322   65.6247 C   0  0  0  0  0  0  0  0  0  0  0  0
   26.8459   38.9814   68.9248 C   0  0  0  0  0  0  0  0  0  0  0  0
   20.6649   41.4974   65.9308 C   0  0  0  0  0  0  0  0  0  0  0  0
   28.0288   38.8507   68.0405 C   0  0  0  0  0  0  0  0  0  0  0  0
   23.1519   40.9686   65.8852 C   0  0  0  0  0  0  0  0  0  0  0  0
   28.4462   40.0234   67.3406 O   0  0  0  0  0  0  0  0  0  0  0  0
  1  8  1  0  0  0  0
  3  5  1  6  0  0  0
  3  9  1  0  0  0  0
  3 12  2  0  0  0  0
  3 22  1  0  0  0  0
  4  8  2  0  0  0  0
  4 19  1  0  0  0  0
  6 16  1  0  0  0  0
  6  7  1  0  0  0  0
  7 10  1  0  0  0  0
  8 11  1  0  0  0  0
 10 13  1  0  0  0  0
 10 21  1  0  0  0  0
 11 14  2  0  0  0  0
 13  2  1  1  0  0  0
 13 16  1  0  0  0  0
 14 15  1  0  0  0  0
 14 17  1  0  0  0  0
 16 18  1  1  0  0  0
 17 19  2  0  0  0  0
 17 21  1  0  0  0  0
 18 20  1  0  0  0  0
 20 22  1  0  0  0  0
M  CHG  1   9  -1
M  END
>  <CHROM.1>
14.11199083,108.12436186,-59.32577060,73.43749347,166.66091390,38.08301164
24.87840049,39.80105741,66.54071051,-3.01898244,0.13848336,2.41832768

>  <Name>
ligand

>  <RI>
0

>  <Rbt.Current_Directory>
/home/itssahil/PROJECTS/Mol_Feturizer/New_Systems/rnas/2HOM

>  <Rbt.Executable>
rbdock ($Id: //depot/dev/client3/rdock/2013.1/src/exe/rbdock.cxx#4 $)

>  <Rbt.Library>
libRbt.so (2013.1, Build901 2013/11/27)

>  <Rbt.Parameter_File>
/export/apps/rDock/src/rDock_2013.1_src/data/scripts/dock_solv.prm

>  <Rbt.Receptor>
prm/pocket_docking_6.prm

>  <SCORE>
-13.0552

>  <SCORE.INTER>
-15.7458

>  <SCORE.INTER.CONST>
1

>  <SCORE.INTER.POLAR>
-1.1697

>  <SCORE.INTER.ROT>
6

>  <SCORE.INTER.SOLV>
15.7068

>  <SCORE.INTER.VDW>
-19.4339

>  <SCORE.INTER.norm>
-0.71572

>  <SCORE.INTRA>
2.69068

>  <SCORE.INTRA.DIHEDRAL>
1.81751

>  <SCORE.INTRA.DIHEDRAL.0>
5.05013

>  <SCORE.INTRA.POLAR>
0

>  <SCORE.INTRA.POLAR.0>
0

>  <SCORE.INTRA.REPUL>
0

>  <SCORE.INTRA.REPUL.0>
0

>  <SCORE.INTRA.SOLV>
2.41482

>  <SCORE.INTRA.SOLV.lig_0>
-54.1265

>  <SCORE.INTRA.VDW>
0.574517

>  <SCORE.INTRA.VDW.0>
-2.1303

>  <SCORE.INTRA.norm>
0.122304

>  <SCORE.RESTR>
0

>  <SCORE.RESTR.CAVITY>
0

>  <SCORE.RESTR.norm>
0

>  <SCORE.SYSTEM>
0

>  <SCORE.SYSTEM.CONST>
0

>  <SCORE.SYSTEM.DIHEDRAL>
0

>  <SCORE.SYSTEM.SOLV>
0

>  <SCORE.SYSTEM.norm>
0

>  <SCORE.heavy>
22

>  <SCORE.norm>
-0.593416

>  <RMSD>
2.130

$$$$
ligand
 OpenBabel11021811443D
libRbt.so/2013.1/901 2013/11/27
 22 23  0  0  0  0  0  0  0  0999 V2000
   17.2998   39.7023   63.8456 C   0  0  0  0  0  0  0  0  0  0  0  0
   24.0463   40.8137   64.6450 C   0  0  0  0  0  0  0  0  0  0  0  0
   29.1538   37.7721   65.3481 P   0  0  1  0  0  0  0  0  0  0  0  0
   18.7195   41.5174   64.4883 N   0  0  0  0  0  0  0  0  0  0  0  0
   28.1440   36.9038   64.6902 O   0  0  0  0  0  0  0  0  0  0  0  0
   24.3399   39.0238   68.2390 S   0  0  0  0  0  0  0  0  0  0  0  0
   23.0812   40.1288   68.1071 C   0  0  0  0  0  0  0  0  0  0  0  0
   18.4586   40.1693   64.6054 C   0  0  0  0  0  0  0  0  0  0  0  0
   30.1380   37.0355   66.1823 O   0  5  0  0  0  0  0  0  0  0  0  0
   22.9649   40.7395   66.9086 N   0  0  0  0  0  0  0  0  0  0  0  0
   19.1655   39.3546   65.3418 N   0  0  0  0  0  0  0  0  0  0  0  0
   29.7901   38.6867   64.3469 O   0  0  0  0  0  0  0  0  0  0  0  0
   23.9609   40.2804   66.0448 C   0  0  2  0  0  0  0  0  0  0  0  0
   20.2628   39.8321   66.0510 C   0  0  0  0  0  0  0  0  0  0  0  0
   20.9593   38.9914   66.8102 N   0  0  0  0  0  0  0  0  0  0  0  0
   24.8097   39.3467   66.5908 C   0  0  1  0  0  0  0  0  0  0  0  0
   20.6215   41.2365   65.9414 C   0  0  0  0  0  0  0  0  0  0  0  0
   25.9721   38.6813   65.9464 C   0  0  0  0  0  0  0  0  0  0  0  0
   19.7844   42.0145   65.1671 C   0  0  0  0  0  0  0  0  0  0  0  0
   27.2250   39.4391   66.1796 C   0  0  0  0  0  0  0  0  0  0  0  0
   21.8753   41.7841   66.5961 C   0  0  0  0  0  0  0  0  0  0  0  0
   28.4110   38.6756   66.4030 O   0  0  0  0  0  0  0  0  0  0  0  0
  1  8  1  0  0  0  0
  3  5  1  6  0  0  0
  3  9  1  0  0  0  0
  3 12  2  0  0  0  0
  3 22  1  0  0  0  0
  4  8  2  0  0  0  0
  4 19  1  0  0  0  0
  6 16  1  0  0  0  0
  6  7  1  0  0  0  0
  7 10  1  0  0  0  0
  8 11  1  0  0  0  0
 10 13  1  0  0  0  0
 10 21  1  0  0  0  0
 11 14  2  0  0  0  0
 13  2  1  1  0  0  0
 13 16  1  0  0  0  0
 14 15  1  0  0  0  0
 14 17  1  0  0  0  0
 16 18  1  1  0  0  0
 17 19  2  0  0  0  0
 17 21  1  0  0  0  0
 18 20  1  0  0  0  0
 20 22  1  0  0  0  0
M  CHG  1   9  -1
M  END
>  <CHROM.1>
-94.33742934,-88.39723572,21.62888172,142.20755762,67.98072600,-48.56196653
24.11231612,39.44447271,65.91362825,3.12497980,-0.26470848,1.39035889

>  <Name>
ligand

>  <RI>
0

>  <Rbt.Current_Directory>
/home/itssahil/PROJECTS/Mol_Feturizer/New_Systems/rnas/2HOM

>  <Rbt.Executable>
rbdock ($Id: //depot/dev/client3/rdock/2013.1/src/exe/rbdock.cxx#4 $)

>  <Rbt.Library>
libRbt.so (2013.1, Build901 2013/11/27)

>  <Rbt.Parameter_File>
/export/apps/rDock/src/rDock_2013.1_src/data/scripts/dock_solv.prm

>  <Rbt.Receptor>
prm/pocket_docking_3.prm

>  <SCORE>
-21.2624

>  <SCORE.INTER>
-25.3419

>  <SCORE.INTER.CONST>
1

>  <SCORE.INTER.POLAR>
-1.63459

>  <SCORE.INTER.ROT>
6

>  <SCORE.INTER.SOLV>
13.5995

>  <SCORE.INTER.VDW>
-23.5791

>  <SCORE.INTER.norm>
-1.1519

>  <SCORE.INTRA>
4.07947

>  <SCORE.INTRA.DIHEDRAL>
4.26752

>  <SCORE.INTRA.DIHEDRAL.0>
5.05013

>  <SCORE.INTRA.POLAR>
0

>  <SCORE.INTRA.POLAR.0>
0

>  <SCORE.INTRA.REPUL>
0

>  <SCORE.INTRA.REPUL.0>
0

>  <SCORE.INTRA.SOLV>
3.97738

>  <SCORE.INTRA.SOLV.lig_0>
-54.1265

>  <SCORE.INTRA.VDW>
-0.0429773

>  <SCORE.INTRA.VDW.0>
-2.1303

>  <SCORE.INTRA.norm>
0.18543

>  <SCORE.RESTR>
0

>  <SCORE.RESTR.CAVITY>
0

>  <SCORE.RESTR.norm>
0

>  <SCORE.SYSTEM>
0

>  <SCORE.SYSTEM.CONST>
0

>  <SCORE.SYSTEM.DIHEDRAL>
0

>  <SCORE.SYSTEM.SOLV>
0

>  <SCORE.SYSTEM.norm>
0

>  <SCORE.heavy>
22

>  <SCORE.norm>
-0.966472

>  <RMSD>
2.159

$$$$
ligand
 OpenBabel11021811443D
libRbt.so/2013.1/901 2013/11/27
 22 23  0  0  0  0  0  0  0  0999 V2000
   17.1450   40.0460   63.7835 C   0  0  0  0  0  0  0  0  0  0  0  0
   24.5094   41.5353   65.0426 C   0  0  0  0  0  0  0  0  0  0  0  0
   29.4619   36.4210   65.0990 P   0  0  1  0  0  0  0  0  0  0  0  0
   18.9964   39.2844   65.0934 N   0  0  0  0  0  0  0  0  0  0  0  0
   28.7256   35.2307   64.6019 O   0  0  0  0  0  0  0  0  0  0  0  0
   24.5218   37.8618   66.6893 S   0  0  0  0  0  0  0  0  0  0  0  0
   23.1617   38.7831   67.0416 C   0  0  0  0  0  0  0  0  0  0  0  0
   18.3933   40.3596   64.4772 C   0  0  0  0  0  0  0  0  0  0  0  0
   29.7173   36.4106   66.5625 O   0  5  0  0  0  0  0  0  0  0  0  0
   23.1378   40.0187   66.4977 N   0  0  0  0  0  0  0  0  0  0  0  0
   18.8850   41.5696   64.4844 N   0  0  0  0  0  0  0  0  0  0  0  0
   30.6960   36.6523   64.2822 O   0  0  0  0  0  0  0  0  0  0  0  0
   24.2970   40.2284   65.7484 C   0  0  2  0  0  0  0  0  0  0  0  0
   20.0746   41.8335   65.1554 C   0  0  0  0  0  0  0  0  0  0  0  0
   20.5693   43.0676   65.1359 N   0  0  0  0  0  0  0  0  0  0  0  0
   25.1739   39.1696   65.7376 C   0  0  1  0  0  0  0  0  0  0  0  0
   20.7442   40.7545   65.8628 C   0  0  0  0  0  0  0  0  0  0  0  0
   26.4921   39.0820   65.0565 C   0  0  0  0  0  0  0  0  0  0  0  0
   20.1582   39.5091   65.7578 C   0  0  0  0  0  0  0  0  0  0  0  0
   27.2226   37.8536   65.4510 C   0  0  0  0  0  0  0  0  0  0  0  0
   21.9771   41.0108   66.7083 C   0  0  0  0  0  0  0  0  0  0  0  0
   28.5357   37.6819   64.9166 O   0  0  0  0  0  0  0  0  0  0  0  0
  1  8  1  0  0  0  0
  3  5  1  6  0  0  0
  3  9  1  0  0  0  0
  3 12  2  0  0  0  0
  3 22  1  0  0  0  0
  4  8  2  0  0  0  0
  4 19  1  0  0  0  0
  6 16  1  0  0  0  0
  6  7  1  0  0  0  0
  7 10  1  0  0  0  0
  8 11  1  0  0  0  0
 10 13  1  0  0  0  0
 10 21  1  0  0  0  0
 11 14  2  0  0  0  0
 13  2  1  1  0  0  0
 13 16  1  0  0  0  0
 14 15  1  0  0  0  0
 14 17  1  0  0  0  0
 16 18  1  1  0  0  0
 17 19  2  0  0  0  0
 17 21  1  0  0  0  0
 18 20  1  0  0  0  0
 20 22  1  0  0  0  0
M  CHG  1   9  -1
M  END
>  <CHROM.1>
-78.61070705,-7.97507068,-133.95232747,-176.97191654,-175.12223301,56.77862980
24.28020477,38.98028829,65.44462226,2.73736999,-0.05520644,0.09272141

>  <Name>
ligand

>  <RI>
0

>  <Rbt.Current_Directory>
/home/itssahil/PROJECTS/Mol_Feturizer/New_Systems/rnas/2HOM

>  <Rbt.Executable>
rbdock ($Id: //depot/dev/client3/rdock/2013.1/src/exe/rbdock.cxx#4 $)

>  <Rbt.Library>
libRbt.so (2013.1, Build901 2013/11/27)

>  <Rbt.Parameter_File>
/export/apps/rDock/src/rDock_2013.1_src/data/scripts/dock_solv.prm

>  <Rbt.Receptor>
prm/pocket_docking_5.prm

>  <SCORE>
-26.5966

>  <SCORE.INTER>
-28.0628

>  <SCORE.INTER.CONST>
1

>  <SCORE.INTER.POLAR>
-1.63459

>  <SCORE.INTER.ROT>
6

>  <SCORE.INTER.SOLV>
17.3984

>  <SCORE.INTER.VDW>
-26.6594

>  <SCORE.INTER.norm>
-1.27558

>  <SCORE.INTRA>
1.46625

>  <SCORE.INTRA.DIHEDRAL>
-0.3434

>  <SCORE.INTRA.DIHEDRAL.0>
5.05013

>  <SCORE.INTRA.POLAR>
0

>  <SCORE.INTRA.POLAR.0>
0

>  <SCORE.INTRA.REPUL>
0

>  <SCORE.INTRA.REPUL.0>
0

>  <SCORE.INTRA.SOLV>
0.610946

>  <SCORE.INTRA.SOLV.lig_0>
-54.1265

>  <SCORE.INTRA.VDW>
1.33248

>  <SCORE.INTRA.VDW.0>
-2.1303

>  <SCORE.INTRA.norm>
0.0666479

>  <SCORE.RESTR>
0

>  <SCORE.RESTR.CAVITY>
0

>  <SCORE.RESTR.norm>
0

>  <SCORE.SYSTEM>
0

>  <SCORE.SYSTEM.CONST>
0

>  <SCORE.SYSTEM.DIHEDRAL>
0

>  <SCORE.SYSTEM.SOLV>
0

>  <SCORE.SYSTEM.norm>
0

>  <SCORE.heavy>
22

>  <SCORE.norm>
-1.20894

>  <RMSD>
2.162

$$$$
ligand
 OpenBabel11021811443D
libRbt.so/2013.1/901 2013/11/27
 22 23  0  0  0  0  0  0  0  0999 V2000
   16.8231   39.5477   63.8479 C   0  0  0  0  0  0  0  0  0  0  0  0
   22.9094   40.0020   68.4400 C   0  0  0  0  0  0  0  0  0  0  0  0
   28.3904   39.0967   68.2377 P   0  0  1  0  0  0  0  0  0  0  0  0
   19.0582   38.9556   64.4618 N   0  0  0  0  0  0  0  0  0  0  0  0
   28.1551   40.2212   69.1792 O   0  0  0  0  0  0  0  0  0  0  0  0
   24.4908   37.6767   65.5593 S   0  0  0  0  0  0  0  0  0  0  0  0
   23.5351   38.9383   64.9956 C   0  0  0  0  0  0  0  0  0  0  0  0
   18.1572   39.9792   64.2628 C   0  0  0  0  0  0  0  0  0  0  0  0
   28.8486   39.5187   66.8889 O   0  5  0  0  0  0  0  0  0  0  0  0
   22.9960   39.7309   65.9465 N   0  0  0  0  0  0  0  0  0  0  0  0
   18.4504   41.2433   64.4115 N   0  0  0  0  0  0  0  0  0  0  0  0
   29.2714   38.0619   68.8676 O   0  0  0  0  0  0  0  0  0  0  0  0
   23.3842   39.2843   67.2109 C   0  0  2  0  0  0  0  0  0  0  0  0
   19.7295   41.6189   64.8086 C   0  0  0  0  0  0  0  0  0  0  0  0
   20.0147   42.9114   64.9366 N   0  0  0  0  0  0  0  0  0  0  0  0
   24.1950   38.1739   67.2045 C   0  0  1  0  0  0  0  0  0  0  0  0
   20.7200   40.5892   65.0765 C   0  0  0  0  0  0  0  0  0  0  0  0
   24.7600   37.4485   68.3722 C   0  0  0  0  0  0  0  0  0  0  0  0
   20.3149   39.2890   64.8511 C   0  0  0  0  0  0  0  0  0  0  0  0
   25.9791   38.1186   68.8853 C   0  0  0  0  0  0  0  0  0  0  0  0
   22.0903   40.9364   65.6261 C   0  0  0  0  0  0  0  0  0  0  0  0
   27.0045   38.4119   67.9357 O   0  0  0  0  0  0  0  0  0  0  0  0
  1  8  1  0  0  0  0
  3  5  1  1  0  0  0
  3  9  1  0  0  0  0
  3 12  2  0  0  0  0
  3 22  1  0  0  0  0
  4  8  2  0  0  0  0
  4 19  1  0  0  0  0
  6 16  1  0  0  0  0
  6  7  1  0  0  0  0
  7 10  1  0  0  0  0
  8 11  1  0  0  0  0
 10 13  1  0  0  0  0
 10 21  1  0  0  0  0
 11 14  2  0  0  0  0
 13  2  1  1  0  0  0
 13 16  1  0  0  0  0
 14 15  1  0  0  0  0
 14 17  1  0  0  0  0
 16 18  1  1  0  0  0
 17 19  2  0  0  0  0
 17 21  1  0  0  0  0
 18 20  1  0  0  0  0
 20 22  1  0  0  0  0
M  CHG  1   9  -1
M  END
>  <CHROM.1>
69.69610467,98.80847074,176.08294323,-51.70732018,-179.11764949,-42.41723551
23.65493282,39.39694120,66.49336266,3.02220210,-0.41173865,0.12918949

>  <Name>
ligand

>  <RI>
0

>  <Rbt.Current_Directory>
/home/itssahil/PROJECTS/Mol_Feturizer/New_Systems/rnas/2HOM

>  <Rbt.Executable>
rbdock ($Id: //depot/dev/client3/rdock/2013.1/src/exe/rbdock.cxx#4 $)

>  <Rbt.Library>
libRbt.so (2013.1, Build901 2013/11/27)

>  <Rbt.Parameter_File>
/export/apps/rDock/src/rDock_2013.1_src/data/scripts/dock_solv.prm

>  <Rbt.Receptor>
prm/pocket_docking_6.prm

>  <SCORE>
-25.6979

>  <SCORE.INTER>
-25.5575

>  <SCORE.INTER.CONST>
1

>  <SCORE.INTER.POLAR>
-1.63459

>  <SCORE.INTER.ROT>
6

>  <SCORE.INTER.SOLV>
19.1309

>  <SCORE.INTER.VDW>
-25.5667

>  <SCORE.INTER.norm>
-1.1617

>  <SCORE.INTRA>
-0.140408

>  <SCORE.INTRA.DIHEDRAL>
0.423548

>  <SCORE.INTRA.DIHEDRAL.0>
5.05013

>  <SCORE.INTRA.POLAR>
0

>  <SCORE.INTRA.POLAR.0>
0

>  <SCORE.INTRA.REPUL>
0

>  <SCORE.INTRA.REPUL.0>
0

>  <SCORE.INTRA.SOLV>
-0.199647

>  <SCORE.INTRA.SOLV.lig_0>
-54.1265

>  <SCORE.INTRA.VDW>
-0.252359

>  <SCORE.INTRA.VDW.0>
-2.1303

>  <SCORE.INTRA.norm>
-0.0063822

>  <SCORE.RESTR>
0

>  <SCORE.RESTR.CAVITY>
0

>  <SCORE.RESTR.norm>
0

>  <SCORE.SYSTEM>
0

>  <SCORE.SYSTEM.CONST>
0

>  <SCORE.SYSTEM.DIHEDRAL>
0

>  <SCORE.SYSTEM.SOLV>
0

>  <SCORE.SYSTEM.norm>
0

>  <SCORE.heavy>
22

>  <SCORE.norm>
-1.16809

>  <RMSD>
2.162

$$$$
ligand
 OpenBabel11021811443D
libRbt.so/2013.1/901 2013/11/27
 22 23  0  0  0  0  0  0  0  0999 V2000
   17.4644   40.2407   64.2699 C   0  0  0  0  0  0  0  0  0  0  0  0
   25.0601   42.0436   65.2812 C   0  0  0  0  0  0  0  0  0  0  0  0
   29.2782   36.6512   65.3324 P   0  0  1  0  0  0  0  0  0  0  0  0
   19.3694   39.3423   65.4043 N   0  0  0  0  0  0  0  0  0  0  0  0
   30.5609   36.9471   64.6442 O   0  0  0  0  0  0  0  0  0  0  0  0
   25.2408   38.0253   65.4460 S   0  0  0  0  0  0  0  0  0  0  0  0
   23.8728   38.6949   66.1550 C   0  0  0  0  0  0  0  0  0  0  0  0
   18.7942   40.4589   64.8372 C   0  0  0  0  0  0  0  0  0  0  0  0
   28.6923   35.3309   64.9849 O   0  5  0  0  0  0  0  0  0  0  0  0
   23.7927   40.0419   66.1093 N   0  0  0  0  0  0  0  0  0  0  0  0
   19.3757   41.6272   64.7842 N   0  0  0  0  0  0  0  0  0  0  0  0
   29.4125   36.8717   66.8079 O   0  0  0  0  0  0  0  0  0  0  0  0
   24.9130   40.5609   65.4576 C   0  0  2  0  0  0  0  0  0  0  0  0
   20.6412   41.8003   65.3352 C   0  0  0  0  0  0  0  0  0  0  0  0
   21.2252   42.9923   65.2551 N   0  0  0  0  0  0  0  0  0  0  0  0
   25.8167   39.6177   65.0288 C   0  0  1  0  0  0  0  0  0  0  0  0
   21.2911   40.6750   65.9867 C   0  0  0  0  0  0  0  0  0  0  0  0
   27.1067   39.8419   64.3253 C   0  0  0  0  0  0  0  0  0  0  0  0
   20.6038   39.4784   65.9518 C   0  0  0  0  0  0  0  0  0  0  0  0
   28.2084   39.0822   64.9635 C   0  0  0  0  0  0  0  0  0  0  0  0
   22.6158   40.8378   66.7072 C   0  0  0  0  0  0  0  0  0  0  0  0
   28.1933   37.6632   64.8037 O   0  0  0  0  0  0  0  0  0  0  0  0
  1  8  1  0  0  0  0
  3  5  1  6  0  0  0
  3  9  1  0  0  0  0
  3 12  2  0  0  0  0
  3 22  1  0  0  0  0
  4  8  2  0  0  0  0
  4 19  1  0  0  0  0
  6 16  1  0  0  0  0
  6  7  1  0  0  0  0
  7 10  1  0  0  0  0
  8 11  1  0  0  0  0
 10 13  1  0  0  0  0
 10 21  1  0  0  0  0
 11 14  2  0  0  0  0
 13  2  1  1  0  0  0
 13 16  1  0  0  0  0
 14 15  1  0  0  0  0
 14 17  1  0  0  0  0
 16 18  1  1  0  0  0
 17 19  2  0  0  0  0
 17 21  1  0  0  0  0
 18 20  1  0  0  0  0
 20 22  1  0  0  0  0
M  CHG  1   9  -1
M  END
>  <CHROM.1>
-68.85450752,-48.44026073,-116.53283624,70.95141992,177.28234662,-63.59651078
24.65293941,39.18800585,65.34921354,2.74649861,-0.00202830,-0.00283079

>  <Name>
ligand

>  <RI>
0

>  <Rbt.Current_Directory>
/home/itssahil/PROJECTS/Mol_Feturizer/New_Systems/rnas/2HOM

>  <Rbt.Executable>
rbdock ($Id: //depot/dev/client3/rdock/2013.1/src/exe/rbdock.cxx#4 $)

>  <Rbt.Library>
libRbt.so (2013.1, Build901 2013/11/27)

>  <Rbt.Parameter_File>
/export/apps/rDock/src/rDock_2013.1_src/data/scripts/dock_solv.prm

>  <Rbt.Receptor>
prm/pocket_docking_5.prm

>  <SCORE>
-23.4067

>  <SCORE.INTER>
-24.0291

>  <SCORE.INTER.CONST>
1

>  <SCORE.INTER.POLAR>
-1.63459

>  <SCORE.INTER.ROT>
6

>  <SCORE.INTER.SOLV>
16.043

>  <SCORE.INTER.VDW>
-23.5185

>  <SCORE.INTER.norm>
-1.09223

>  <SCORE.INTRA>
0.622429

>  <SCORE.INTRA.DIHEDRAL>
0.613337

>  <SCORE.INTRA.DIHEDRAL.0>
5.05013

>  <SCORE.INTRA.POLAR>
0

>  <SCORE.INTRA.POLAR.0>
0

>  <SCORE.INTRA.REPUL>
0

>  <SCORE.INTRA.REPUL.0>
0

>  <SCORE.INTRA.SOLV>
0.855876

>  <SCORE.INTRA.SOLV.lig_0>
-54.1265

>  <SCORE.INTRA.VDW>
-0.112178

>  <SCORE.INTRA.VDW.0>
-2.1303

>  <SCORE.INTRA.norm>
0.0282922

>  <SCORE.RESTR>
0

>  <SCORE.RESTR.CAVITY>
0

>  <SCORE.RESTR.norm>
0

>  <SCORE.SYSTEM>
0

>  <SCORE.SYSTEM.CONST>
0

>  <SCORE.SYSTEM.DIHEDRAL>
0

>  <SCORE.SYSTEM.SOLV>
0

>  <SCORE.SYSTEM.norm>
0

>  <SCORE.heavy>
22

>  <SCORE.norm>
-1.06394

>  <RMSD>
2.165

$$$$
ligand
 OpenBabel11021811443D
libRbt.so/2013.1/901 2013/11/27
 22 23  0  0  0  0  0  0  0  0999 V2000
   16.5305   39.4125   63.7643 C   0  0  0  0  0  0  0  0  0  0  0  0
   23.5703   40.3596   68.0721 C   0  0  0  0  0  0  0  0  0  0  0  0
   28.5374   37.7634   65.6729 P   0  0  1  0  0  0  0  0  0  0  0  0
   18.7977   38.8480   64.2788 N   0  0  0  0  0  0  0  0  0  0  0  0
   28.6873   39.2162   65.4026 O   0  0  0  0  0  0  0  0  0  0  0  0
   23.9146   37.3840   65.3825 S   0  0  0  0  0  0  0  0  0  0  0  0
   22.8380   38.5990   64.9495 C   0  0  0  0  0  0  0  0  0  0  0  0
   17.8535   39.8494   64.2079 C   0  0  0  0  0  0  0  0  0  0  0  0
   28.5253   36.9160   64.4527 O   0  5  0  0  0  0  0  0  0  0  0  0
   22.7088   39.6072   65.8382 N   0  0  0  0  0  0  0  0  0  0  0  0
   18.0991   41.0999   64.4942 N   0  0  0  0  0  0  0  0  0  0  0  0
   29.5344   37.3156   66.6973 O   0  0  0  0  0  0  0  0  0  0  0  0
   23.5365   39.3771   66.9387 C   0  0  2  0  0  0  0  0  0  0  0  0
   19.3691   41.4811   64.9146 C   0  0  0  0  0  0  0  0  0  0  0  0
   19.6052   42.7618   65.1836 N   0  0  0  0  0  0  0  0  0  0  0  0
   24.2671   38.2142   66.8752 C   0  0  1  0  0  0  0  0  0  0  0  0
   20.4040   40.4697   65.0520 C   0  0  0  0  0  0  0  0  0  0  0  0
   25.2177   37.6763   67.8833 C   0  0  0  0  0  0  0  0  0  0  0  0
   20.0467   39.1873   64.6869 C   0  0  0  0  0  0  0  0  0  0  0  0
   26.6201   38.0053   67.5319 C   0  0  0  0  0  0  0  0  0  0  0  0
   21.7690   40.8093   65.6196 C   0  0  0  0  0  0  0  0  0  0  0  0
   27.1032   37.5225   66.2778 O   0  0  0  0  0  0  0  0  0  0  0  0
  1  8  1  0  0  0  0
  3  5  1  6  0  0  0
  3  9  1  0  0  0  0
  3 12  2  0  0  0  0
  3 22  1  0  0  0  0
  4  8  2  0  0  0  0
  4 19  1  0  0  0  0
  6 16  1  0  0  0  0
  6  7  1  0  0  0  0
  7 10  1  0  0  0  0
  8 11  1  0  0  0  0
 10 13  1  0  0  0  0
 10 21  1  0  0  0  0
 11 14  2  0  0  0  0
 13  2  1  1  0  0  0
 13 16  1  0  0  0  0
 14 15  1  0  0  0  0
 14 17  1  0  0  0  0
 16 18  1  1  0  0  0
 17 19  2  0  0  0  0
 17 21  1  0  0  0  0
 18 20  1  0  0  0  0
 20 22  1  0  0  0  0
M  CHG  1   9  -1
M  END
>  <CHROM.1>
42.13321343,82.56301761,173.96586863,-59.47307488,178.72613210,-65.13586981
23.57433740,38.96338837,65.64636314,3.00416635,-0.28360490,0.61545789

>  <Name>
ligand

>  <RI>
0

>  <Rbt.Current_Directory>
/home/itssahil/PROJECTS/Mol_Feturizer/New_Systems/rnas/2HOM

>  <Rbt.Executable>
rbdock ($Id: //depot/dev/client3/rdock/2013.1/src/exe/rbdock.cxx#4 $)

>  <Rbt.Library>
libRbt.so (2013.1, Build901 2013/11/27)

>  <Rbt.Parameter_File>
/export/apps/rDock/src/rDock_2013.1_src/data/scripts/dock_solv.prm

>  <Rbt.Receptor>
prm/pocket_docking_4.prm

>  <SCORE>
-23.9953

>  <SCORE.INTER>
-24.1253

>  <SCORE.INTER.CONST>
1

>  <SCORE.INTER.POLAR>
-1.63459

>  <SCORE.INTER.ROT>
6

>  <SCORE.INTER.SOLV>
20.9966

>  <SCORE.INTER.VDW>
-25.2337

>  <SCORE.INTER.norm>
-1.0966

>  <SCORE.INTRA>
0.130007

>  <SCORE.INTRA.DIHEDRAL>
0.0495117

>  <SCORE.INTRA.DIHEDRAL.0>
5.05013

>  <SCORE.INTRA.POLAR>
0

>  <SCORE.INTRA.POLAR.0>
0

>  <SCORE.INTRA.REPUL>
0

>  <SCORE.INTRA.REPUL.0>
0

>  <SCORE.INTRA.SOLV>
-0.0376592

>  <SCORE.INTRA.SOLV.lig_0>
-54.1265

>  <SCORE.INTRA.VDW>
0.124081

>  <SCORE.INTRA.VDW.0>
-2.1303

>  <SCORE.INTRA.norm>
0.0059094

>  <SCORE.RESTR>
0

>  <SCORE.RESTR.CAVITY>
0

>  <SCORE.RESTR.norm>
0

>  <SCORE.SYSTEM>
0

>  <SCORE.SYSTEM.CONST>
0

>  <SCORE.SYSTEM.DIHEDRAL>
0

>  <SCORE.SYSTEM.SOLV>
0

>  <SCORE.SYSTEM.norm>
0

>  <SCORE.heavy>
22

>  <SCORE.norm>
-1.09069

>  <RMSD>
2.182

$$$$
ligand
 OpenBabel11021811443D
libRbt.so/2013.1/901 2013/11/27
 22 23  0  0  0  0  0  0  0  0999 V2000
   17.4937   40.0713   63.9467 C   0  0  0  0  0  0  0  0  0  0  0  0
   24.5081   39.3173   67.9497 C   0  0  0  0  0  0  0  0  0  0  0  0
   29.4927   37.5713   65.4585 P   0  0  1  0  0  0  0  0  0  0  0  0
   19.2845   39.3434   65.3562 N   0  0  0  0  0  0  0  0  0  0  0  0
   28.4589   36.5048   65.4671 O   0  0  0  0  0  0  0  0  0  0  0  0
   25.4252   41.5653   64.7384 S   0  0  0  0  0  0  0  0  0  0  0  0
   23.8706   41.7940   65.3330 C   0  0  0  0  0  0  0  0  0  0  0  0
   18.7029   40.4053   64.6978 C   0  0  0  0  0  0  0  0  0  0  0  0
   29.8059   38.1253   66.8009 O   0  5  0  0  0  0  0  0  0  0  0  0
   23.5436   41.0497   66.4111 N   0  0  0  0  0  0  0  0  0  0  0  0
   19.1822   41.6202   64.7149 N   0  0  0  0  0  0  0  0  0  0  0  0
   30.7056   37.1190   64.7048 O   0  0  0  0  0  0  0  0  0  0  0  0
   24.6240   40.2441   66.7754 C   0  0  2  0  0  0  0  0  0  0  0  0
   20.3344   41.9036   65.4410 C   0  0  0  0  0  0  0  0  0  0  0  0
   20.8179   43.1423   65.4314 N   0  0  0  0  0  0  0  0  0  0  0  0
   25.7369   40.3807   65.9797 C   0  0  1  0  0  0  0  0  0  0  0  0
   20.9779   40.8396   66.1939 C   0  0  0  0  0  0  0  0  0  0  0  0
   27.0323   39.6603   66.0894 C   0  0  0  0  0  0  0  0  0  0  0  0
   20.4096   39.5872   66.0748 C   0  0  0  0  0  0  0  0  0  0  0  0
   27.5578   39.2888   64.7537 C   0  0  0  0  0  0  0  0  0  0  0  0
   22.1646   41.1179   67.0965 C   0  0  0  0  0  0  0  0  0  0  0  0
   28.9048   38.8180   64.6963 O   0  0  0  0  0  0  0  0  0  0  0  0
  1  8  1  0  0  0  0
  3  5  1  1  0  0  0
  3  9  1  0  0  0  0
  3 12  2  0  0  0  0
  3 22  1  0  0  0  0
  4  8  2  0  0  0  0
  4 19  1  0  0  0  0
  6 16  1  0  0  0  0
  6  7  1  0  0  0  0
  7 10  1  0  0  0  0
  8 11  1  0  0  0  0
 10 13  1  0  0  0  0
 10 21  1  0  0  0  0
 11 14  2  0  0  0  0
 13  2  1  6  0  0  0
 13 16  1  0  0  0  0
 14 15  1  0  0  0  0
 14 17  1  0  0  0  0
 16 18  1  6  0  0  0
 17 19  2  0  0  0  0
 17 21  1  0  0  0  0
 18 20  1  0  0  0  0
 20 22  1  0  0  0  0
M  CHG  1   9  -1
M  END
>  <CHROM.1>
56.44512353,-39.81530651,-88.21380233,168.63314936,58.54544013,37.74011052
24.58231289,39.85234651,65.57495160,2.83821094,-0.04414907,0.07257866

>  <Name>
ligand

>  <RI>
0

>  <Rbt.Current_Directory>
/home/itssahil/PROJECTS/Mol_Feturizer/New_Systems/rnas/2HOM

>  <Rbt.Executable>
rbdock ($Id: //depot/dev/client3/rdock/2013.1/src/exe/rbdock.cxx#4 $)

>  <Rbt.Library>
libRbt.so (2013.1, Build901 2013/11/27)

>  <Rbt.Parameter_File>
/export/apps/rDock/src/rDock_2013.1_src/data/scripts/dock_solv.prm

>  <Rbt.Receptor>
prm/pocket_docking_3.prm

>  <SCORE>
-18.3198

>  <SCORE.INTER>
-20.468

>  <SCORE.INTER.CONST>
1

>  <SCORE.INTER.POLAR>
-1.63381

>  <SCORE.INTER.ROT>
6

>  <SCORE.INTER.SOLV>
14.8144

>  <SCORE.INTER.VDW>
-20.7375

>  <SCORE.INTER.norm>
-0.930366

>  <SCORE.INTRA>
2.14821

>  <SCORE.INTRA.DIHEDRAL>
1.35077

>  <SCORE.INTRA.DIHEDRAL.0>
5.05013

>  <SCORE.INTRA.POLAR>
0

>  <SCORE.INTRA.POLAR.0>
0

>  <SCORE.INTRA.REPUL>
0

>  <SCORE.INTRA.REPUL.0>
0

>  <SCORE.INTRA.SOLV>
1.71212

>  <SCORE.INTRA.SOLV.lig_0>
-54.1265

>  <SCORE.INTRA.VDW>
0.616765

>  <SCORE.INTRA.VDW.0>
-2.1303

>  <SCORE.INTRA.norm>
0.0976458

>  <SCORE.RESTR>
0

>  <SCORE.RESTR.CAVITY>
0

>  <SCORE.RESTR.norm>
0

>  <SCORE.SYSTEM>
0

>  <SCORE.SYSTEM.CONST>
0

>  <SCORE.SYSTEM.DIHEDRAL>
0

>  <SCORE.SYSTEM.SOLV>
0

>  <SCORE.SYSTEM.norm>
0

>  <SCORE.heavy>
22

>  <SCORE.norm>
-0.83272

>  <RMSD>
2.190

$$$$
ligand
 OpenBabel11021811443D
libRbt.so/2013.1/901 2013/11/27
 22 23  0  0  0  0  0  0  0  0999 V2000
   16.8630   39.6298   63.7220 C   0  0  0  0  0  0  0  0  0  0  0  0
   24.7973   40.9639   67.1884 C   0  0  0  0  0  0  0  0  0  0  0  0
   29.6590   36.7068   65.1487 P   0  0  1  0  0  0  0  0  0  0  0  0
   19.0252   38.9872   64.5191 N   0  0  0  0  0  0  0  0  0  0  0  0
   30.0322   37.7180   64.1267 O   0  0  0  0  0  0  0  0  0  0  0  0
   24.0845   37.4588   65.3409 S   0  0  0  0  0  0  0  0  0  0  0  0
   22.8341   38.5756   65.2316 C   0  0  0  0  0  0  0  0  0  0  0  0
   18.1758   40.0318   64.2249 C   0  0  0  0  0  0  0  0  0  0  0  0
   28.9563   35.5184   64.5998 O   0  5  0  0  0  0  0  0  0  0  0  0
   23.0540   39.7586   65.8441 N   0  0  0  0  0  0  0  0  0  0  0  0
   18.4987   41.2901   64.3611 N   0  0  0  0  0  0  0  0  0  0  0  0
   30.8431   36.3575   65.9969 O   0  0  0  0  0  0  0  0  0  0  0  0
   24.3171   39.7561   66.4388 C   0  0  2  0  0  0  0  0  0  0  0  0
   19.7562   41.6375   64.8436 C   0  0  0  0  0  0  0  0  0  0  0  0
   20.0736   42.9238   64.9578 N   0  0  0  0  0  0  0  0  0  0  0  0
   25.0260   38.5891   66.2776 C   0  0  1  0  0  0  0  0  0  0  0  0
   20.6894   40.5861   65.2134 C   0  0  0  0  0  0  0  0  0  0  0  0
   26.3793   38.2630   66.7985 C   0  0  0  0  0  0  0  0  0  0  0  0
   20.2595   39.2929   64.9932 C   0  0  0  0  0  0  0  0  0  0  0  0
   27.2811   37.8109   65.7119 C   0  0  0  0  0  0  0  0  0  0  0  0
   22.0255   40.9067   65.8555 C   0  0  0  0  0  0  0  0  0  0  0  0
   28.5749   37.3447   66.0967 O   0  0  0  0  0  0  0  0  0  0  0  0
  1  8  1  0  0  0  0
  3  5  1  6  0  0  0
  3  9  1  0  0  0  0
  3 12  2  0  0  0  0
  3 22  1  0  0  0  0
  4  8  2  0  0  0  0
  4 19  1  0  0  0  0
  6 16  1  0  0  0  0
  6  7  1  0  0  0  0
  7 10  1  0  0  0  0
  8 11  1  0  0  0  0
 10 13  1  0  0  0  0
 10 21  1  0  0  0  0
 11 14  2  0  0  0  0
 13  2  1  1  0  0  0
 13 16  1  0  0  0  0
 14 15  1  0  0  0  0
 14 17  1  0  0  0  0
 16 18  1  1  0  0  0
 17 19  2  0  0  0  0
 17 21  1  0  0  0  0
 18 20  1  0  0  0  0
 20 22  1  0  0  0  0
M  CHG  1   9  -1
M  END
>  <CHROM.1>
4.34513565,54.28667876,-164.18561294,-174.21535145,174.61573325,61.51672097
24.21929068,38.81277108,65.32952511,2.85511684,-0.21337344,0.43456617

>  <Name>
ligand

>  <RI>
0

>  <Rbt.Current_Directory>
/home/itssahil/PROJECTS/Mol_Feturizer/New_Systems/rnas/2HOM

>  <Rbt.Executable>
rbdock ($Id: //depot/dev/client3/rdock/2013.1/src/exe/rbdock.cxx#4 $)

>  <Rbt.Library>
libRbt.so (2013.1, Build901 2013/11/27)

>  <Rbt.Parameter_File>
/export/apps/rDock/src/rDock_2013.1_src/data/scripts/dock_solv.prm

>  <Rbt.Receptor>
prm/pocket_docking_6.prm

>  <SCORE>
-24.1743

>  <SCORE.INTER>
-26.1023

>  <SCORE.INTER.CONST>
1

>  <SCORE.INTER.POLAR>
-1.63459

>  <SCORE.INTER.ROT>
6

>  <SCORE.INTER.SOLV>
22.6508

>  <SCORE.INTER.VDW>
-27.1032

>  <SCORE.INTER.norm>
-1.18647

>  <SCORE.INTRA>
1.92794

>  <SCORE.INTRA.DIHEDRAL>
0.264691

>  <SCORE.INTRA.DIHEDRAL.0>
5.05013

>  <SCORE.INTRA.POLAR>
0

>  <SCORE.INTRA.POLAR.0>
0

>  <SCORE.INTRA.REPUL>
0

>  <SCORE.INTRA.REPUL.0>
0

>  <SCORE.INTRA.SOLV>
0.0693877

>  <SCORE.INTRA.SOLV.lig_0>
-54.1265

>  <SCORE.INTRA.VDW>
1.7609

>  <SCORE.INTRA.VDW.0>
-2.1303

>  <SCORE.INTRA.norm>
0.0876337

>  <SCORE.RESTR>
0

>  <SCORE.RESTR.CAVITY>
0

>  <SCORE.RESTR.norm>
0

>  <SCORE.SYSTEM>
0

>  <SCORE.SYSTEM.CONST>
0

>  <SCORE.SYSTEM.DIHEDRAL>
0

>  <SCORE.SYSTEM.SOLV>
0

>  <SCORE.SYSTEM.norm>
0

>  <SCORE.heavy>
22

>  <SCORE.norm>
-1.09883

>  <RMSD>
2.198

$$$$
ligand
 OpenBabel11021811443D
libRbt.so/2013.1/901 2013/11/27
 22 23  0  0  0  0  0  0  0  0999 V2000
   17.2744   40.0970   63.8162 C   0  0  0  0  0  0  0  0  0  0  0  0
   24.8469   42.0165   65.8410 C   0  0  0  0  0  0  0  0  0  0  0  0
   29.1850   36.6066   65.4874 P   0  0  1  0  0  0  0  0  0  0  0  0
   19.0992   39.2130   65.0858 N   0  0  0  0  0  0  0  0  0  0  0  0
   29.5530   36.1517   66.8527 O   0  0  0  0  0  0  0  0  0  0  0  0
   24.9103   38.0041   65.5196 S   0  0  0  0  0  0  0  0  0  0  0  0
   23.4617   38.6389   66.0864 C   0  0  0  0  0  0  0  0  0  0  0  0
   18.5444   40.3313   64.5019 C   0  0  0  0  0  0  0  0  0  0  0  0
   30.3058   37.2180   64.7276 O   0  5  0  0  0  0  0  0  0  0  0  0
   23.4197   39.9836   66.2005 N   0  0  0  0  0  0  0  0  0  0  0  0
   19.0963   41.5147   64.5312 N   0  0  0  0  0  0  0  0  0  0  0  0
   28.4887   35.5109   64.7402 O   0  0  0  0  0  0  0  0  0  0  0  0
   24.6408   40.5308   65.8024 C   0  0  2  0  0  0  0  0  0  0  0  0
   20.3049   41.7027   65.1938 C   0  0  0  0  0  0  0  0  0  0  0  0
   20.8609   42.9106   65.1970 N   0  0  0  0  0  0  0  0  0  0  0  0
   25.5804   39.6099   65.4030 C   0  0  1  0  0  0  0  0  0  0  0  0
   20.9270   40.5751   65.8680 C   0  0  0  0  0  0  0  0  0  0  0  0
   26.9707   39.8641   64.9430 C   0  0  0  0  0  0  0  0  0  0  0  0
   20.2780   39.3633   65.7412 C   0  0  0  0  0  0  0  0  0  0  0  0
   27.6522   38.6033   64.5632 C   0  0  0  0  0  0  0  0  0  0  0  0
   22.1803   40.7492   66.7043 C   0  0  0  0  0  0  0  0  0  0  0  0
   28.1668   37.8003   65.6260 O   0  0  0  0  0  0  0  0  0  0  0  0
  1  8  1  0  0  0  0
  3  5  1  1  0  0  0
  3  9  1  0  0  0  0
  3 12  2  0  0  0  0
  3 22  1  0  0  0  0
  4  8  2  0  0  0  0
  4 19  1  0  0  0  0
  6 16  1  0  0  0  0
  6  7  1  0  0  0  0
  7 10  1  0  0  0  0
  8 11  1  0  0  0  0
 10 13  1  0  0  0  0
 10 21  1  0  0  0  0
 11 14  2  0  0  0  0
 13  2  1  1  0  0  0
 13 16  1  0  0  0  0
 14 15  1  0  0  0  0
 14 17  1  0  0  0  0
 16 18  1  1  0  0  0
 17 19  2  0  0  0  0
 17 21  1  0  0  0  0
 18 20  1  0  0  0  0
 20 22  1  0  0  0  0
M  CHG  1   9  -1
M  END
>  <CHROM.1>
-60.81478867,2.20494229,-117.41868036,-79.29624091,-165.69427892,174.14459012
24.40160405,39.11093611,65.38943770,2.76401537,-0.09085681,0.11961115

>  <Name>
ligand

>  <RI>
0

>  <Rbt.Current_Directory>
/home/itssahil/PROJECTS/Mol_Feturizer/New_Systems/rnas/2HOM

>  <Rbt.Executable>
rbdock ($Id: //depot/dev/client3/rdock/2013.1/src/exe/rbdock.cxx#4 $)

>  <Rbt.Library>
libRbt.so (2013.1, Build901 2013/11/27)

>  <Rbt.Parameter_File>
/export/apps/rDock/src/rDock_2013.1_src/data/scripts/dock_solv.prm

>  <Rbt.Receptor>
prm/pocket_docking_6.prm

>  <SCORE>
-20.9714

>  <SCORE.INTER>
-23.6374

>  <SCORE.INTER.CONST>
1

>  <SCORE.INTER.POLAR>
-1.30767

>  <SCORE.INTER.ROT>
6

>  <SCORE.INTER.SOLV>
17.1581

>  <SCORE.INTER.VDW>
-24.7187

>  <SCORE.INTER.norm>
-1.07443

>  <SCORE.INTRA>
2.66599

>  <SCORE.INTRA.DIHEDRAL>
1.85768

>  <SCORE.INTRA.DIHEDRAL.0>
5.05013

>  <SCORE.INTRA.POLAR>
0

>  <SCORE.INTRA.POLAR.0>
0

>  <SCORE.INTRA.REPUL>
0

>  <SCORE.INTRA.REPUL.0>
0

>  <SCORE.INTRA.SOLV>
1.25668

>  <SCORE.INTRA.SOLV.lig_0>
-54.1265

>  <SCORE.INTRA.VDW>
1.10881

>  <SCORE.INTRA.VDW.0>
-2.1303

>  <SCORE.INTRA.norm>
0.121181

>  <SCORE.RESTR>
0

>  <SCORE.RESTR.CAVITY>
0

>  <SCORE.RESTR.norm>
0

>  <SCORE.SYSTEM>
0

>  <SCORE.SYSTEM.CONST>
0

>  <SCORE.SYSTEM.DIHEDRAL>
0

>  <SCORE.SYSTEM.SOLV>
0

>  <SCORE.SYSTEM.norm>
0

>  <SCORE.heavy>
22

>  <SCORE.norm>
-0.953246

>  <RMSD>
2.206

$$$$
ligand
 OpenBabel11021811443D
libRbt.so/2013.1/901 2013/11/27
 22 23  0  0  0  0  0  0  0  0999 V2000
   17.9002   40.2522   64.3330 C   0  0  0  0  0  0  0  0  0  0  0  0
   23.7554   39.5517   65.2795 C   0  0  0  0  0  0  0  0  0  0  0  0
   28.4111   37.8513   66.2906 P   0  0  1  0  0  0  0  0  0  0  0  0
   19.6648   39.4666   65.7445 N   0  0  0  0  0  0  0  0  0  0  0  0
   28.4827   36.8853   65.1645 O   0  0  0  0  0  0  0  0  0  0  0  0
   26.0758   42.6620   66.3510 S   0  0  0  0  0  0  0  0  0  0  0  0
   24.6577   42.5073   67.2384 C   0  0  0  0  0  0  0  0  0  0  0  0
   19.0987   40.5537   65.1145 C   0  0  0  0  0  0  0  0  0  0  0  0
   27.4266   37.4875   67.3421 O   0  5  0  0  0  0  0  0  0  0  0  0
   23.8656   41.4691   66.8951 N   0  0  0  0  0  0  0  0  0  0  0  0
   19.5830   41.7649   65.1818 N   0  0  0  0  0  0  0  0  0  0  0  0
   29.7807   38.1295   66.8297 O   0  0  0  0  0  0  0  0  0  0  0  0
   24.4483   40.7561   65.8458 C   0  0  2  0  0  0  0  0  0  0  0  0
   20.7246   42.0169   65.9356 C   0  0  0  0  0  0  0  0  0  0  0  0
   21.2137   43.2528   65.9771 N   0  0  0  0  0  0  0  0  0  0  0  0
   25.6523   41.2565   65.4095 C   0  0  1  0  0  0  0  0  0  0  0  0
   21.3512   40.9241   66.6609 C   0  0  0  0  0  0  0  0  0  0  0  0
   26.5099   40.7438   64.3091 C   0  0  0  0  0  0  0  0  0  0  0  0
   20.7793   39.6795   66.4890 C   0  0  0  0  0  0  0  0  0  0  0  0
   26.9940   39.3722   64.5968 C   0  0  0  0  0  0  0  0  0  0  0  0
   22.5245   41.1647   67.5915 C   0  0  0  0  0  0  0  0  0  0  0  0
   27.8407   39.2104   65.7353 O   0  0  0  0  0  0  0  0  0  0  0  0
  1  8  1  0  0  0  0
  3  5  1  6  0  0  0
  3  9  1  0  0  0  0
  3 12  2  0  0  0  0
  3 22  1  0  0  0  0
  4  8  2  0  0  0  0
  4 19  1  0  0  0  0
  6 16  1  0  0  0  0
  6  7  1  0  0  0  0
  7 10  1  0  0  0  0
  8 11  1  0  0  0  0
 10 13  1  0  0  0  0
 10 21  1  0  0  0  0
 11 14  2  0  0  0  0
 13  2  1  6  0  0  0
 13 16  1  0  0  0  0
 14 15  1  0  0  0  0
 14 17  1  0  0  0  0
 16 18  1  6  0  0  0
 17 19  2  0  0  0  0
 17 21  1  0  0  0  0
 18 20  1  0  0  0  0
 20 22  1  0  0  0  0
M  CHG  1   9  -1
M  END
>  <CHROM.1>
131.15873570,117.76876063,-73.36510323,-63.23777848,176.28087725,26.06976084
24.42945489,40.22698379,65.95855178,2.84402660,-0.09976547,0.15198394

>  <Name>
ligand

>  <RI>
0

>  <Rbt.Current_Directory>
/home/itssahil/PROJECTS/Mol_Feturizer/New_Systems/rnas/2HOM

>  <Rbt.Executable>
rbdock ($Id: //depot/dev/client3/rdock/2013.1/src/exe/rbdock.cxx#4 $)

>  <Rbt.Library>
libRbt.so (2013.1, Build901 2013/11/27)

>  <Rbt.Parameter_File>
/export/apps/rDock/src/rDock_2013.1_src/data/scripts/dock_solv.prm

>  <Rbt.Receptor>
prm/pocket_docking_4.prm

>  <SCORE>
-18.1895

>  <SCORE.INTER>
-19.445

>  <SCORE.INTER.CONST>
1

>  <SCORE.INTER.POLAR>
-1.63121

>  <SCORE.INTER.ROT>
6

>  <SCORE.INTER.SOLV>
12.9172

>  <SCORE.INTER.VDW>
-19.4317

>  <SCORE.INTER.norm>
-0.883866

>  <SCORE.INTRA>
1.25552

>  <SCORE.INTRA.DIHEDRAL>
1.17831

>  <SCORE.INTRA.DIHEDRAL.0>
5.05013

>  <SCORE.INTRA.POLAR>
0

>  <SCORE.INTRA.POLAR.0>
0

>  <SCORE.INTRA.REPUL>
0

>  <SCORE.INTRA.REPUL.0>
0

>  <SCORE.INTRA.SOLV>
0.900653

>  <SCORE.INTRA.SOLV.lig_0>
-54.1265

>  <SCORE.INTRA.VDW>
0.216038

>  <SCORE.INTRA.VDW.0>
-2.1303

>  <SCORE.INTRA.norm>
0.057069

>  <SCORE.RESTR>
0

>  <SCORE.RESTR.CAVITY>
0

>  <SCORE.RESTR.norm>
0

>  <SCORE.SYSTEM>
0

>  <SCORE.SYSTEM.CONST>
0

>  <SCORE.SYSTEM.DIHEDRAL>
0

>  <SCORE.SYSTEM.SOLV>
0

>  <SCORE.SYSTEM.norm>
0

>  <SCORE.heavy>
22

>  <SCORE.norm>
-0.826797

>  <RMSD>
2.210

$$$$
ligand
 OpenBabel11021811443D
libRbt.so/2013.1/901 2013/11/27
 22 23  0  0  0  0  0  0  0  0999 V2000
   17.1797   39.7117   64.2664 C   0  0  0  0  0  0  0  0  0  0  0  0
   22.8427   39.8921   68.2911 C   0  0  0  0  0  0  0  0  0  0  0  0
   28.2890   38.3869   67.6327 P   0  0  1  0  0  0  0  0  0  0  0  0
   19.4712   39.2515   64.7769 N   0  0  0  0  0  0  0  0  0  0  0  0
   27.7151   37.4967   66.5913 O   0  0  0  0  0  0  0  0  0  0  0  0
   25.3284   38.5646   65.4161 S   0  0  0  0  0  0  0  0  0  0  0  0
   24.3160   39.8191   64.9428 C   0  0  0  0  0  0  0  0  0  0  0  0
   18.5140   40.2227   64.5770 C   0  0  0  0  0  0  0  0  0  0  0  0
   29.0691   37.6756   68.6780 O   0  5  0  0  0  0  0  0  0  0  0  0
   23.4749   40.2795   65.8934 N   0  0  0  0  0  0  0  0  0  0  0  0
   18.7568   41.5046   64.6392 N   0  0  0  0  0  0  0  0  0  0  0  0
   29.0384   39.5187   66.9993 O   0  0  0  0  0  0  0  0  0  0  0  0
   23.6659   39.5680   67.0793 C   0  0  2  0  0  0  0  0  0  0  0  0
   20.0379   41.9565   64.9384 C   0  0  0  0  0  0  0  0  0  0  0  0
   20.2701   43.2652   64.9790 N   0  0  0  0  0  0  0  0  0  0  0  0
   24.6294   38.5894   67.0137 C   0  0  1  0  0  0  0  0  0  0  0  0
   21.0884   40.9870   65.2019 C   0  0  0  0  0  0  0  0  0  0  0  0
   25.0558   37.6537   68.0869 C   0  0  0  0  0  0  0  0  0  0  0  0
   20.7313   39.6599   65.0718 C   0  0  0  0  0  0  0  0  0  0  0  0
   25.9998   38.3048   69.0267 C   0  0  0  0  0  0  0  0  0  0  0  0
   22.4706   41.4231   65.6492 C   0  0  0  0  0  0  0  0  0  0  0  0
   27.0989   39.0131   68.4527 O   0  0  0  0  0  0  0  0  0  0  0  0
  1  8  1  0  0  0  0
  3  5  1  6  0  0  0
  3  9  1  0  0  0  0
  3 12  2  0  0  0  0
  3 22  1  0  0  0  0
  4  8  2  0  0  0  0
  4 19  1  0  0  0  0
  6 16  1  0  0  0  0
  6  7  1  0  0  0  0
  7 10  1  0  0  0  0
  8 11  1  0  0  0  0
 10 13  1  0  0  0  0
 10 21  1  0  0  0  0
 11 14  2  0  0  0  0
 13  2  1  6  0  0  0
 13 16  1  0  0  0  0
 14 15  1  0  0  0  0
 14 17  1  0  0  0  0
 16 18  1  6  0  0  0
 17 19  2  0  0  0  0
 17 21  1  0  0  0  0
 18 20  1  0  0  0  0
 20 22  1  0  0  0  0
M  CHG  1   9  -1
M  END
>  <CHROM.1>
92.14018522,99.97726174,179.80363953,-48.83091602,-65.94248915,49.40343698
23.91394055,39.50037694,66.36681301,2.76351938,-0.19871343,-0.39145074

>  <Name>
ligand

>  <RI>
0

>  <Rbt.Current_Directory>
/home/itssahil/PROJECTS/Mol_Feturizer/New_Systems/rnas/2HOM

>  <Rbt.Executable>
rbdock ($Id: //depot/dev/client3/rdock/2013.1/src/exe/rbdock.cxx#4 $)

>  <Rbt.Library>
libRbt.so (2013.1, Build901 2013/11/27)

>  <Rbt.Parameter_File>
/export/apps/rDock/src/rDock_2013.1_src/data/scripts/dock_solv.prm

>  <Rbt.Receptor>
prm/pocket_docking_6.prm

>  <SCORE>
-23.7188

>  <SCORE.INTER>
-23.5977

>  <SCORE.INTER.CONST>
1

>  <SCORE.INTER.POLAR>
-1.63459

>  <SCORE.INTER.ROT>
6

>  <SCORE.INTER.SOLV>
17.7316

>  <SCORE.INTER.VDW>
-23.7937

>  <SCORE.INTER.norm>
-1.07262

>  <SCORE.INTRA>
-0.121062

>  <SCORE.INTRA.DIHEDRAL>
0.511475

>  <SCORE.INTRA.DIHEDRAL.0>
5.05013

>  <SCORE.INTRA.POLAR>
0

>  <SCORE.INTRA.POLAR.0>
0

>  <SCORE.INTRA.REPUL>
0

>  <SCORE.INTRA.REPUL.0>
0

>  <SCORE.INTRA.SOLV>
0.631543

>  <SCORE.INTRA.SOLV.lig_0>
-54.1265

>  <SCORE.INTRA.VDW>
-0.692571

>  <SCORE.INTRA.VDW.0>
-2.1303

>  <SCORE.INTRA.norm>
-0.00550283

>  <SCORE.RESTR>
0

>  <SCORE.RESTR.CAVITY>
0

>  <SCORE.RESTR.norm>
0

>  <SCORE.SYSTEM>
0

>  <SCORE.SYSTEM.CONST>
0

>  <SCORE.SYSTEM.DIHEDRAL>
0

>  <SCORE.SYSTEM.SOLV>
0

>  <SCORE.SYSTEM.norm>
0

>  <SCORE.heavy>
22

>  <SCORE.norm>
-1.07813

>  <RMSD>
2.213

$$$$
ligand
 OpenBabel11021811443D
libRbt.so/2013.1/901 2013/11/27
 22 23  0  0  0  0  0  0  0  0999 V2000
   17.3686   39.8759   63.7856 C   0  0  0  0  0  0  0  0  0  0  0  0
   23.6394   39.4564   67.9351 C   0  0  0  0  0  0  0  0  0  0  0  0
   29.2218   39.9191   67.0037 P   0  0  1  0  0  0  0  0  0  0  0  0
   18.8637   41.6137   64.4695 N   0  0  0  0  0  0  0  0  0  0  0  0
   30.0320   40.9993   67.6226 O   0  0  0  0  0  0  0  0  0  0  0  0
   25.3107   40.6863   64.4853 S   0  0  0  0  0  0  0  0  0  0  0  0
   23.8930   41.4861   64.9014 C   0  0  0  0  0  0  0  0  0  0  0  0
   18.5414   40.2769   64.5611 C   0  0  0  0  0  0  0  0  0  0  0  0
   28.9212   40.1330   65.5646 O   0  5  0  0  0  0  0  0  0  0  0  0
   23.3170   41.0888   66.0561 N   0  0  0  0  0  0  0  0  0  0  0  0
   19.2055   39.4186   65.2878 N   0  0  0  0  0  0  0  0  0  0  0  0
   29.8276   38.5797   67.2914 O   0  0  0  0  0  0  0  0  0  0  0  0
   24.0757   40.0714   66.6379 C   0  0  2  0  0  0  0  0  0  0  0  0
   20.3178   39.8338   66.0126 C   0  0  0  0  0  0  0  0  0  0  0  0
   20.9702   38.9496   66.7615 N   0  0  0  0  0  0  0  0  0  0  0  0
   25.1961   39.7115   65.9269 C   0  0  1  0  0  0  0  0  0  0  0  0
   20.7402   41.2223   65.9301 C   0  0  0  0  0  0  0  0  0  0  0  0
   26.1926   38.6610   66.2623 C   0  0  0  0  0  0  0  0  0  0  0  0
   19.9447   42.0505   65.1640 C   0  0  0  0  0  0  0  0  0  0  0  0
   26.8089   38.9059   67.5884 C   0  0  0  0  0  0  0  0  0  0  0  0
   22.0124   41.7014   66.6027 C   0  0  0  0  0  0  0  0  0  0  0  0
   27.7921   39.9389   67.6643 O   0  0  0  0  0  0  0  0  0  0  0  0
  1  8  1  0  0  0  0
  3  5  1  1  0  0  0
  3  9  1  0  0  0  0
  3 12  2  0  0  0  0
  3 22  1  0  0  0  0
  4  8  2  0  0  0  0
  4 19  1  0  0  0  0
  6 16  1  0  0  0  0
  6  7  1  0  0  0  0
  7 10  1  0  0  0  0
  8 11  1  0  0  0  0
 10 13  1  0  0  0  0
 10 21  1  0  0  0  0
 11 14  2  0  0  0  0
 13  2  1  6  0  0  0
 13 16  1  0  0  0  0
 14 15  1  0  0  0  0
 14 17  1  0  0  0  0
 16 18  1  6  0  0  0
 17 19  2  0  0  0  0
 17 21  1  0  0  0  0
 18 20  1  0  0  0  0
 20 22  1  0  0  0  0
M  CHG  1   9  -1
M  END
>  <CHROM.1>
77.61916429,122.67941265,64.21617961,-75.88312288,-67.99582773,-165.05289796
24.28091860,40.19007182,66.07263419,-2.94641626,0.07431327,2.29529711

>  <Name>
ligand

>  <RI>
0

>  <Rbt.Current_Directory>
/home/itssahil/PROJECTS/Mol_Feturizer/New_Systems/rnas/2HOM

>  <Rbt.Executable>
rbdock ($Id: //depot/dev/client3/rdock/2013.1/src/exe/rbdock.cxx#4 $)

>  <Rbt.Library>
libRbt.so (2013.1, Build901 2013/11/27)

>  <Rbt.Parameter_File>
/export/apps/rDock/src/rDock_2013.1_src/data/scripts/dock_solv.prm

>  <Rbt.Receptor>
prm/pocket_docking_3.prm

>  <SCORE>
-21.1514

>  <SCORE.INTER>
-24.3051

>  <SCORE.INTER.CONST>
1

>  <SCORE.INTER.POLAR>
-2.5758

>  <SCORE.INTER.ROT>
6

>  <SCORE.INTER.SOLV>
14.9739

>  <SCORE.INTER.VDW>
-20.2087

>  <SCORE.INTER.norm>
-1.10478

>  <SCORE.INTRA>
3.1537

>  <SCORE.INTRA.DIHEDRAL>
1.0059

>  <SCORE.INTRA.DIHEDRAL.0>
5.05013

>  <SCORE.INTRA.POLAR>
0

>  <SCORE.INTRA.POLAR.0>
0

>  <SCORE.INTRA.REPUL>
0

>  <SCORE.INTRA.REPUL.0>
0

>  <SCORE.INTRA.SOLV>
5.05306

>  <SCORE.INTRA.SOLV.lig_0>
-54.1265

>  <SCORE.INTRA.VDW>
0.124224

>  <SCORE.INTRA.VDW.0>
-2.1303

>  <SCORE.INTRA.norm>
0.14335

>  <SCORE.RESTR>
0

>  <SCORE.RESTR.CAVITY>
0

>  <SCORE.RESTR.norm>
0

>  <SCORE.SYSTEM>
0

>  <SCORE.SYSTEM.CONST>
0

>  <SCORE.SYSTEM.DIHEDRAL>
0

>  <SCORE.SYSTEM.SOLV>
0

>  <SCORE.SYSTEM.norm>
0

>  <SCORE.heavy>
22

>  <SCORE.norm>
-0.961428

>  <RMSD>
2.223

$$$$
ligand
 OpenBabel11021811443D
libRbt.so/2013.1/901 2013/11/27
 22 23  0  0  0  0  0  0  0  0999 V2000
   17.0541   40.1008   63.6480 C   0  0  0  0  0  0  0  0  0  0  0  0
   25.1726   40.9739   66.6677 C   0  0  0  0  0  0  0  0  0  0  0  0
   29.4254   36.5543   65.3230 P   0  0  1  0  0  0  0  0  0  0  0  0
   19.0627   39.2113   64.5953 N   0  0  0  0  0  0  0  0  0  0  0  0
   30.8197   36.5266   64.8117 O   0  0  0  0  0  0  0  0  0  0  0  0
   24.0825   37.3012   65.4309 S   0  0  0  0  0  0  0  0  0  0  0  0
   22.8151   38.3928   65.5874 C   0  0  0  0  0  0  0  0  0  0  0  0
   18.3586   40.3477   64.2605 C   0  0  0  0  0  0  0  0  0  0  0  0
   28.5696   35.4511   64.8154 O   0  5  0  0  0  0  0  0  0  0  0  0
   23.1600   39.6312   66.0003 N   0  0  0  0  0  0  0  0  0  0  0  0
   18.8050   41.5603   64.4506 N   0  0  0  0  0  0  0  0  0  0  0  0
   29.4173   36.6735   66.8161 O   0  0  0  0  0  0  0  0  0  0  0  0
   24.5400   39.6956   66.2017 C   0  0  2  0  0  0  0  0  0  0  0  0
   20.0505   41.7594   65.0372 C   0  0  0  0  0  0  0  0  0  0  0  0
   20.4962   43.0009   65.2057 N   0  0  0  0  0  0  0  0  0  0  0  0
   25.2132   38.5239   65.9486 C   0  0  1  0  0  0  0  0  0  0  0  0
   20.8308   40.6059   65.4537 C   0  0  0  0  0  0  0  0  0  0  0  0
   26.6697   38.2598   66.0828 C   0  0  0  0  0  0  0  0  0  0  0  0
   20.2813   39.3716   65.1707 C   0  0  0  0  0  0  0  0  0  0  0  0
   27.3151   38.1086   64.7565 C   0  0  0  0  0  0  0  0  0  0  0  0
   22.1386   40.7673   66.2049 C   0  0  0  0  0  0  0  0  0  0  0  0
   28.7171   37.8375   64.7463 O   0  0  0  0  0  0  0  0  0  0  0  0
  1  8  1  0  0  0  0
  3  5  1  6  0  0  0
  3  9  1  0  0  0  0
  3 12  2  0  0  0  0
  3 22  1  0  0  0  0
  4  8  2  0  0  0  0
  4 19  1  0  0  0  0
  6 16  1  0  0  0  0
  6  7  1  0  0  0  0
  7 10  1  0  0  0  0
  8 11  1  0  0  0  0
 10 13  1  0  0  0  0
 10 21  1  0  0  0  0
 11 14  2  0  0  0  0
 13  2  1  1  0  0  0
 13 16  1  0  0  0  0
 14 15  1  0  0  0  0
 14 17  1  0  0  0  0
 16 18  1  1  0  0  0
 17 19  2  0  0  0  0
 17 21  1  0  0  0  0
 18 20  1  0  0  0  0
 20 22  1  0  0  0  0
M  CHG  1   9  -1
M  END
>  <CHROM.1>
-21.69215499,71.40996009,-151.77924706,-179.40229236,63.71253304,166.23881921
24.27186818,38.81684804,65.32936159,2.79864712,-0.18670021,0.32783619

>  <Name>
ligand

>  <RI>
0

>  <Rbt.Current_Directory>
/home/itssahil/PROJECTS/Mol_Feturizer/New_Systems/rnas/2HOM

>  <Rbt.Executable>
rbdock ($Id: //depot/dev/client3/rdock/2013.1/src/exe/rbdock.cxx#4 $)

>  <Rbt.Library>
libRbt.so (2013.1, Build901 2013/11/27)

>  <Rbt.Parameter_File>
/export/apps/rDock/src/rDock_2013.1_src/data/scripts/dock_solv.prm

>  <Rbt.Receptor>
prm/pocket_docking_6.prm

>  <SCORE>
-25.9507

>  <SCORE.INTER>
-28.0434

>  <SCORE.INTER.CONST>
1

>  <SCORE.INTER.POLAR>
-1.62955

>  <SCORE.INTER.ROT>
6

>  <SCORE.INTER.SOLV>
19.4482

>  <SCORE.INTER.VDW>
-27.3465

>  <SCORE.INTER.norm>
-1.2747

>  <SCORE.INTRA>
2.09264

>  <SCORE.INTRA.DIHEDRAL>
0.349317

>  <SCORE.INTRA.DIHEDRAL.0>
5.05013

>  <SCORE.INTRA.POLAR>
0

>  <SCORE.INTRA.POLAR.0>
0

>  <SCORE.INTRA.REPUL>
0

>  <SCORE.INTRA.REPUL.0>
0

>  <SCORE.INTRA.SOLV>
1.79686

>  <SCORE.INTRA.SOLV.lig_0>
-54.1265

>  <SCORE.INTRA.VDW>
1.01956

>  <SCORE.INTRA.VDW.0>
-2.1303

>  <SCORE.INTRA.norm>
0.0951202

>  <SCORE.RESTR>
0

>  <SCORE.RESTR.CAVITY>
0

>  <SCORE.RESTR.norm>
0

>  <SCORE.SYSTEM>
0

>  <SCORE.SYSTEM.CONST>
0

>  <SCORE.SYSTEM.DIHEDRAL>
0

>  <SCORE.SYSTEM.SOLV>
0

>  <SCORE.SYSTEM.norm>
0

>  <SCORE.heavy>
22

>  <SCORE.norm>
-1.17958

>  <RMSD>
2.227

$$$$
ligand
 OpenBabel11021811443D
libRbt.so/2013.1/901 2013/11/27
 22 23  0  0  0  0  0  0  0  0999 V2000
   17.2550   39.3456   63.9553 C   0  0  0  0  0  0  0  0  0  0  0  0
   23.4953   40.3426   67.9679 C   0  0  0  0  0  0  0  0  0  0  0  0
   30.0284   39.9735   67.1008 P   0  0  1  0  0  0  0  0  0  0  0  0
   18.5580   41.3289   64.2583 N   0  0  0  0  0  0  0  0  0  0  0  0
   30.6558   39.6359   65.7975 O   0  0  0  0  0  0  0  0  0  0  0  0
   25.1106   40.9894   64.3376 S   0  0  0  0  0  0  0  0  0  0  0  0
   23.6293   41.7410   64.5896 C   0  0  0  0  0  0  0  0  0  0  0  0
   18.3895   40.0047   64.6007 C   0  0  0  0  0  0  0  0  0  0  0  0
   30.5964   39.2355   68.2584 O   0  5  0  0  0  0  0  0  0  0  0  0
   23.0710   41.5373   65.8020 N   0  0  0  0  0  0  0  0  0  0  0  0
   19.1588   39.3696   65.4438 N   0  0  0  0  0  0  0  0  0  0  0  0
   29.9990   41.4579   67.2992 O   0  0  0  0  0  0  0  0  0  0  0  0
   23.8992   40.7195   66.5730 C   0  0  2  0  0  0  0  0  0  0  0  0
   20.2306   40.0268   66.0390 C   0  0  0  0  0  0  0  0  0  0  0  0
   20.9915   39.3692   66.9090 N   0  0  0  0  0  0  0  0  0  0  0  0
   25.0535   40.3152   65.9450 C   0  0  1  0  0  0  0  0  0  0  0  0
   20.4929   41.4140   65.6925 C   0  0  0  0  0  0  0  0  0  0  0  0
   26.1247   39.4349   66.4806 C   0  0  0  0  0  0  0  0  0  0  0  0
   19.5958   41.9983   64.8212 C   0  0  0  0  0  0  0  0  0  0  0  0
   27.4612   40.0592   66.3310 C   0  0  0  0  0  0  0  0  0  0  0  0
   21.7154   42.1412   66.2188 C   0  0  0  0  0  0  0  0  0  0  0  0
   28.5346   39.4749   67.0697 O   0  0  0  0  0  0  0  0  0  0  0  0
  1  8  1  0  0  0  0
  3  5  1  6  0  0  0
  3  9  1  0  0  0  0
  3 12  2  0  0  0  0
  3 22  1  0  0  0  0
  4  8  2  0  0  0  0
  4 19  1  0  0  0  0
  6 16  1  0  0  0  0
  6  7  1  0  0  0  0
  7 10  1  0  0  0  0
  8 11  1  0  0  0  0
 10 13  1  0  0  0  0
 10 21  1  0  0  0  0
 11 14  2  0  0  0  0
 13  2  1  6  0  0  0
 13 16  1  0  0  0  0
 14 15  1  0  0  0  0
 14 17  1  0  0  0  0
 16 18  1  6  0  0  0
 17 19  2  0  0  0  0
 17 21  1  0  0  0  0
 18 20  1  0  0  0  0
 20 22  1  0  0  0  0
M  CHG  1   9  -1
M  END
>  <CHROM.1>
79.35739754,52.25247564,61.12400511,165.96966018,-178.57941475,-72.64507957
24.41357624,40.42205378,65.99339763,2.96576101,-0.06940578,-0.93142420

>  <Name>
ligand

>  <RI>
0

>  <Rbt.Current_Directory>
/home/itssahil/PROJECTS/Mol_Feturizer/New_Systems/rnas/2HOM

>  <Rbt.Executable>
rbdock ($Id: //depot/dev/client3/rdock/2013.1/src/exe/rbdock.cxx#4 $)

>  <Rbt.Library>
libRbt.so (2013.1, Build901 2013/11/27)

>  <Rbt.Parameter_File>
/export/apps/rDock/src/rDock_2013.1_src/data/scripts/dock_solv.prm

>  <Rbt.Receptor>
prm/pocket_docking_2.prm

>  <SCORE>
-21.0107

>  <SCORE.INTER>
-23.8749

>  <SCORE.INTER.CONST>
1

>  <SCORE.INTER.POLAR>
-2.80925

>  <SCORE.INTER.ROT>
6

>  <SCORE.INTER.SOLV>
20.6838

>  <SCORE.INTER.VDW>
-21.0471

>  <SCORE.INTER.norm>
-1.08522

>  <SCORE.INTRA>
2.81701

>  <SCORE.INTRA.DIHEDRAL>
1.05372

>  <SCORE.INTRA.DIHEDRAL.0>
5.05013

>  <SCORE.INTRA.POLAR>
0

>  <SCORE.INTRA.POLAR.0>
0

>  <SCORE.INTRA.REPUL>
0

>  <SCORE.INTRA.REPUL.0>
0

>  <SCORE.INTRA.SOLV>
3.42385

>  <SCORE.INTRA.SOLV.lig_0>
-54.1265

>  <SCORE.INTRA.VDW>
0.578226

>  <SCORE.INTRA.VDW.0>
-2.1303

>  <SCORE.INTRA.norm>
0.128046

>  <SCORE.RESTR>
0.0472376

>  <SCORE.RESTR.CAVITY>
0.0472376

>  <SCORE.RESTR.norm>
0.00214716

>  <SCORE.SYSTEM>
0

>  <SCORE.SYSTEM.CONST>
0

>  <SCORE.SYSTEM.DIHEDRAL>
0

>  <SCORE.SYSTEM.SOLV>
0

>  <SCORE.SYSTEM.norm>
0

>  <SCORE.heavy>
22

>  <SCORE.norm>
-0.955032

>  <RMSD>
2.229

$$$$
ligand
 OpenBabel11021811443D
libRbt.so/2013.1/901 2013/11/27
 22 23  0  0  0  0  0  0  0  0999 V2000
   16.6391   39.4811   63.7029 C   0  0  0  0  0  0  0  0  0  0  0  0
   23.1964   40.0583   68.3392 C   0  0  0  0  0  0  0  0  0  0  0  0
   28.5003   37.6433   66.2589 P   0  0  1  0  0  0  0  0  0  0  0  0
   18.8642   38.8780   64.3421 N   0  0  0  0  0  0  0  0  0  0  0  0
   28.9403   39.0212   66.5964 O   0  0  0  0  0  0  0  0  0  0  0  0
   24.1405   37.5013   65.3767 S   0  0  0  0  0  0  0  0  0  0  0  0
   23.1090   38.7479   64.9242 C   0  0  0  0  0  0  0  0  0  0  0  0
   17.9579   39.9024   64.1731 C   0  0  0  0  0  0  0  0  0  0  0  0
   28.4944   37.3463   64.8032 O   0  5  0  0  0  0  0  0  0  0  0  0
   22.7809   39.6174   65.9037 N   0  0  0  0  0  0  0  0  0  0  0  0
   18.2344   41.1597   64.3940 N   0  0  0  0  0  0  0  0  0  0  0  0
   29.2611   36.6377   67.0673 O   0  0  0  0  0  0  0  0  0  0  0  0
   23.4070   39.2465   67.0951 C   0  0  2  0  0  0  0  0  0  0  0  0
   19.4994   41.5257   64.8423 C   0  0  0  0  0  0  0  0  0  0  0  0
   19.7681   42.8124   65.0437 N   0  0  0  0  0  0  0  0  0  0  0  0
   24.1851   38.1164   67.0079 C   0  0  1  0  0  0  0  0  0  0  0  0
   20.4933   40.4925   65.0819 C   0  0  0  0  0  0  0  0  0  0  0  0
   24.9615   37.4561   68.0898 C   0  0  0  0  0  0  0  0  0  0  0  0
   20.1072   39.2020   64.7798 C   0  0  0  0  0  0  0  0  0  0  0  0
   26.4148   37.7104   67.9432 C   0  0  0  0  0  0  0  0  0  0  0  0
   21.8460   40.8230   65.6832 C   0  0  0  0  0  0  0  0  0  0  0  0
   26.9804   37.5047   66.6482 O   0  0  0  0  0  0  0  0  0  0  0  0
  1  8  1  0  0  0  0
  3  5  1  1  0  0  0
  3  9  1  0  0  0  0
  3 12  2  0  0  0  0
  3 22  1  0  0  0  0
  4  8  2  0  0  0  0
  4 19  1  0  0  0  0
  6 16  1  0  0  0  0
  6  7  1  0  0  0  0
  7 10  1  0  0  0  0
  8 11  1  0  0  0  0
 10 13  1  0  0  0  0
 10 21  1  0  0  0  0
 11 14  2  0  0  0  0
 13  2  1  1  0  0  0
 13 16  1  0  0  0  0
 14 15  1  0  0  0  0
 14 17  1  0  0  0  0
 16 18  1  1  0  0  0
 17 19  2  0  0  0  0
 17 21  1  0  0  0  0
 18 20  1  0  0  0  0
 20 22  1  0  0  0  0
M  CHG  1   9  -1
M  END
>  <CHROM.1>
53.98293435,75.06006885,178.78919520,-48.13810023,-177.00959928,-57.83161128
23.59018985,38.91894054,65.84963808,3.02515752,-0.34462076,0.63118731

>  <Name>
ligand

>  <RI>
0

>  <Rbt.Current_Directory>
/home/itssahil/PROJECTS/Mol_Feturizer/New_Systems/rnas/2HOM

>  <Rbt.Executable>
rbdock ($Id: //depot/dev/client3/rdock/2013.1/src/exe/rbdock.cxx#4 $)

>  <Rbt.Library>
libRbt.so (2013.1, Build901 2013/11/27)

>  <Rbt.Parameter_File>
/export/apps/rDock/src/rDock_2013.1_src/data/scripts/dock_solv.prm

>  <Rbt.Receptor>
prm/pocket_docking_4.prm

>  <SCORE>
-25.2586

>  <SCORE.INTER>
-25.4201

>  <SCORE.INTER.CONST>
1

>  <SCORE.INTER.POLAR>
-1.63459

>  <SCORE.INTER.ROT>
6

>  <SCORE.INTER.SOLV>
20.6974

>  <SCORE.INTER.VDW>
-25.9972

>  <SCORE.INTER.norm>
-1.15546

>  <SCORE.INTRA>
0.161483

>  <SCORE.INTRA.DIHEDRAL>
0.608779

>  <SCORE.INTRA.DIHEDRAL.0>
5.05013

>  <SCORE.INTRA.POLAR>
0

>  <SCORE.INTRA.POLAR.0>
0

>  <SCORE.INTRA.REPUL>
0

>  <SCORE.INTRA.REPUL.0>
0

>  <SCORE.INTRA.SOLV>
-0.0861822

>  <SCORE.INTRA.SOLV.lig_0>
-54.1265

>  <SCORE.INTRA.VDW>
-0.099815

>  <SCORE.INTRA.VDW.0>
-2.1303

>  <SCORE.INTRA.norm>
0.00734015

>  <SCORE.RESTR>
0

>  <SCORE.RESTR.CAVITY>
0

>  <SCORE.RESTR.norm>
0

>  <SCORE.SYSTEM>
0

>  <SCORE.SYSTEM.CONST>
0

>  <SCORE.SYSTEM.DIHEDRAL>
0

>  <SCORE.SYSTEM.SOLV>
0

>  <SCORE.SYSTEM.norm>
0

>  <SCORE.heavy>
22

>  <SCORE.norm>
-1.14812

>  <RMSD>
2.229

$$$$
ligand
 OpenBabel11021811443D
libRbt.so/2013.1/901 2013/11/27
 22 23  0  0  0  0  0  0  0  0999 V2000
   18.6167   40.6379   64.6849 C   0  0  0  0  0  0  0  0  0  0  0  0
   25.9449   41.9610   66.7026 C   0  0  0  0  0  0  0  0  0  0  0  0
   29.7388   36.9065   65.8288 P   0  0  1  0  0  0  0  0  0  0  0  0
   20.3316   39.6257   66.0107 N   0  0  0  0  0  0  0  0  0  0  0  0
   30.4671   37.8123   64.9039 O   0  0  0  0  0  0  0  0  0  0  0  0
   25.9427   37.9748   67.2655 S   0  0  0  0  0  0  0  0  0  0  0  0
   24.5338   38.7517   67.7494 C   0  0  0  0  0  0  0  0  0  0  0  0
   19.8378   40.7950   65.4737 C   0  0  0  0  0  0  0  0  0  0  0  0
   28.4290   36.4338   65.3109 O   0  5  0  0  0  0  0  0  0  0  0  0
   24.5141   40.0895   67.5680 N   0  0  0  0  0  0  0  0  0  0  0  0
   20.4046   41.9613   65.6296 N   0  0  0  0  0  0  0  0  0  0  0  0
   30.6331   35.7951   66.2856 O   0  0  0  0  0  0  0  0  0  0  0  0
   25.7191   40.5079   67.0005 C   0  0  2  0  0  0  0  0  0  0  0  0
   21.5653   42.0752   66.3877 C   0  0  0  0  0  0  0  0  0  0  0  0
   22.1385   43.2678   66.5196 N   0  0  0  0  0  0  0  0  0  0  0  0
   26.6251   39.5004   66.7672 C   0  0  1  0  0  0  0  0  0  0  0  0
   22.1197   40.8887   67.0185 C   0  0  0  0  0  0  0  0  0  0  0  0
   27.9922   39.6156   66.1955 C   0  0  0  0  0  0  0  0  0  0  0  0
   21.4626   39.7033   66.7568 C   0  0  0  0  0  0  0  0  0  0  0  0
   29.0182   39.1271   67.1480 C   0  0  0  0  0  0  0  0  0  0  0  0
   23.3123   40.9753   67.9516 C   0  0  0  0  0  0  0  0  0  0  0  0
   29.3300   37.7341   67.1050 O   0  0  0  0  0  0  0  0  0  0  0  0
  1  8  1  0  0  0  0
  3  5  1  6  0  0  0
  3  9  1  0  0  0  0
  3 12  2  0  0  0  0
  3 22  1  0  0  0  0
  4  8  2  0  0  0  0
  4 19  1  0  0  0  0
  6 16  1  0  0  0  0
  6  7  1  0  0  0  0
  7 10  1  0  0  0  0
  8 11  1  0  0  0  0
 10 13  1  0  0  0  0
 10 21  1  0  0  0  0
 11 14  2  0  0  0  0
 13  2  1  1  0  0  0
 13 16  1  0  0  0  0
 14 15  1  0  0  0  0
 14 17  1  0  0  0  0
 16 18  1  1  0  0  0
 17 19  2  0  0  0  0
 17 21  1  0  0  0  0
 18 20  1  0  0  0  0
 20 22  1  0  0  0  0
M  CHG  1   9  -1
M  END
>  <CHROM.1>
-74.97578782,-59.67451625,-124.39241002,88.06834940,52.49824623,31.24587347
25.40442207,39.33604097,66.44819529,2.74086809,-0.13053960,0.29661046

>  <Name>
ligand

>  <RI>
0

>  <Rbt.Current_Directory>
/home/itssahil/PROJECTS/Mol_Feturizer/New_Systems/rnas/2HOM

>  <Rbt.Executable>
rbdock ($Id: //depot/dev/client3/rdock/2013.1/src/exe/rbdock.cxx#4 $)

>  <Rbt.Library>
libRbt.so (2013.1, Build901 2013/11/27)

>  <Rbt.Parameter_File>
/export/apps/rDock/src/rDock_2013.1_src/data/scripts/dock_solv.prm

>  <Rbt.Receptor>
prm/pocket_docking_5.prm

>  <SCORE>
-15.9594

>  <SCORE.INTER>
-18.4865

>  <SCORE.INTER.CONST>
1

>  <SCORE.INTER.POLAR>
-1.76942

>  <SCORE.INTER.ROT>
6

>  <SCORE.INTER.SOLV>
16.0623

>  <SCORE.INTER.VDW>
-19.3804

>  <SCORE.INTER.norm>
-0.840297

>  <SCORE.INTRA>
2.52712

>  <SCORE.INTRA.DIHEDRAL>
4.01007

>  <SCORE.INTRA.DIHEDRAL.0>
5.05013

>  <SCORE.INTRA.POLAR>
0

>  <SCORE.INTRA.POLAR.0>
0

>  <SCORE.INTRA.REPUL>
0

>  <SCORE.INTRA.REPUL.0>
0

>  <SCORE.INTRA.SOLV>
1.81066

>  <SCORE.INTRA.SOLV.lig_0>
-54.1265

>  <SCORE.INTRA.VDW>
-0.383245

>  <SCORE.INTRA.VDW.0>
-2.1303

>  <SCORE.INTRA.norm>
0.114869

>  <SCORE.RESTR>
0

>  <SCORE.RESTR.CAVITY>
0

>  <SCORE.RESTR.norm>
0

>  <SCORE.SYSTEM>
0

>  <SCORE.SYSTEM.CONST>
0

>  <SCORE.SYSTEM.DIHEDRAL>
0

>  <SCORE.SYSTEM.SOLV>
0

>  <SCORE.SYSTEM.norm>
0

>  <SCORE.heavy>
22

>  <SCORE.norm>
-0.725428

>  <RMSD>
2.235

$$$$
ligand
 OpenBabel11021811443D
libRbt.so/2013.1/901 2013/11/27
 22 23  0  0  0  0  0  0  0  0999 V2000
   16.7321   39.5454   63.7877 C   0  0  0  0  0  0  0  0  0  0  0  0
   23.0936   39.9797   68.3753 C   0  0  0  0  0  0  0  0  0  0  0  0
   28.3729   39.1564   68.1052 P   0  0  1  0  0  0  0  0  0  0  0  0
   18.9511   38.8997   64.4061 N   0  0  0  0  0  0  0  0  0  0  0  0
   29.1911   38.0271   68.6166 O   0  0  0  0  0  0  0  0  0  0  0  0
   24.2639   37.4381   65.4810 S   0  0  0  0  0  0  0  0  0  0  0  0
   23.3043   38.7108   64.9500 C   0  0  0  0  0  0  0  0  0  0  0  0
   18.0721   39.9440   64.2159 C   0  0  0  0  0  0  0  0  0  0  0  0
   28.4803   40.3993   68.9121 O   0  5  0  0  0  0  0  0  0  0  0  0
   22.9019   39.5756   65.9057 N   0  0  0  0  0  0  0  0  0  0  0  0
   18.3899   41.1997   64.3834 N   0  0  0  0  0  0  0  0  0  0  0  0
   28.6314   39.3716   66.6456 O   0  0  0  0  0  0  0  0  0  0  0  0
   23.4052   39.1782   67.1458 C   0  0  2  0  0  0  0  0  0  0  0  0
   19.6740   41.5439   64.7928 C   0  0  0  0  0  0  0  0  0  0  0  0
   19.9846   42.8285   64.9399 N   0  0  0  0  0  0  0  0  0  0  0  0
   24.1659   38.0333   67.1173 C   0  0  1  0  0  0  0  0  0  0  0  0
   20.6419   40.4908   65.0523 C   0  0  0  0  0  0  0  0  0  0  0  0
   24.8235   37.3447   68.2587 C   0  0  0  0  0  0  0  0  0  0  0  0
   20.2119   39.2022   64.8069 C   0  0  0  0  0  0  0  0  0  0  0  0
   26.2997   37.4574   68.1787 C   0  0  0  0  0  0  0  0  0  0  0  0
   22.0157   40.8027   65.6143 C   0  0  0  0  0  0  0  0  0  0  0  0
   26.8537   38.7711   68.2606 O   0  0  0  0  0  0  0  0  0  0  0  0
  1  8  1  0  0  0  0
  3  5  1  1  0  0  0
  3  9  1  0  0  0  0
  3 12  2  0  0  0  0
  3 22  1  0  0  0  0
  4  8  2  0  0  0  0
  4 19  1  0  0  0  0
  6 16  1  0  0  0  0
  6  7  1  0  0  0  0
  7 10  1  0  0  0  0
  8 11  1  0  0  0  0
 10 13  1  0  0  0  0
 10 21  1  0  0  0  0
 11 14  2  0  0  0  0
 13  2  1  1  0  0  0
 13 16  1  0  0  0  0
 14 15  1  0  0  0  0
 14 17  1  0  0  0  0
 16 18  1  1  0  0  0
 17 19  2  0  0  0  0
 17 21  1  0  0  0  0
 18 20  1  0  0  0  0
 20 22  1  0  0  0  0
M  CHG  1   9  -1
M  END
>  <CHROM.1>
61.78322693,69.41484332,176.86371871,63.12048337,-175.64364978,-31.68261776
23.61112815,39.31717165,66.39670706,3.02880297,-0.39786479,0.13030716

>  <Name>
ligand

>  <RI>
0

>  <Rbt.Current_Directory>
/home/itssahil/PROJECTS/Mol_Feturizer/New_Systems/rnas/2HOM

>  <Rbt.Executable>
rbdock ($Id: //depot/dev/client3/rdock/2013.1/src/exe/rbdock.cxx#4 $)

>  <Rbt.Library>
libRbt.so (2013.1, Build901 2013/11/27)

>  <Rbt.Parameter_File>
/export/apps/rDock/src/rDock_2013.1_src/data/scripts/dock_solv.prm

>  <Rbt.Receptor>
prm/pocket_docking_4.prm

>  <SCORE>
-23.095

>  <SCORE.INTER>
-23.4917

>  <SCORE.INTER.CONST>
1

>  <SCORE.INTER.POLAR>
-1.30767

>  <SCORE.INTER.ROT>
6

>  <SCORE.INTER.SOLV>
18.9082

>  <SCORE.INTER.VDW>
-25.205

>  <SCORE.INTER.norm>
-1.0678

>  <SCORE.INTRA>
0.396715

>  <SCORE.INTRA.DIHEDRAL>
1.28587

>  <SCORE.INTRA.DIHEDRAL.0>
5.05013

>  <SCORE.INTRA.POLAR>
0

>  <SCORE.INTRA.POLAR.0>
0

>  <SCORE.INTRA.REPUL>
0

>  <SCORE.INTRA.REPUL.0>
0

>  <SCORE.INTRA.SOLV>
-0.259884

>  <SCORE.INTRA.SOLV.lig_0>
-54.1265

>  <SCORE.INTRA.VDW>
-0.116277

>  <SCORE.INTRA.VDW.0>
-2.1303

>  <SCORE.INTRA.norm>
0.0180325

>  <SCORE.RESTR>
0

>  <SCORE.RESTR.CAVITY>
0

>  <SCORE.RESTR.norm>
0

>  <SCORE.SYSTEM>
0

>  <SCORE.SYSTEM.CONST>
0

>  <SCORE.SYSTEM.DIHEDRAL>
0

>  <SCORE.SYSTEM.SOLV>
0

>  <SCORE.SYSTEM.norm>
0

>  <SCORE.heavy>
22

>  <SCORE.norm>
-1.04977

>  <RMSD>
2.237

$$$$
ligand
 OpenBabel11021811443D
libRbt.so/2013.1/901 2013/11/27
 22 23  0  0  0  0  0  0  0  0999 V2000
   16.9947   39.1686   63.9862 C   0  0  0  0  0  0  0  0  0  0  0  0
   23.0603   40.3025   68.2450 C   0  0  0  0  0  0  0  0  0  0  0  0
   29.6805   39.3608   66.4955 P   0  0  1  0  0  0  0  0  0  0  0  0
   18.0680   41.1676   64.7446 N   0  0  0  0  0  0  0  0  0  0  0  0
   30.3404   38.5796   65.4182 O   0  0  0  0  0  0  0  0  0  0  0  0
   24.9837   40.4272   64.7106 S   0  0  0  0  0  0  0  0  0  0  0  0
   23.5281   41.2655   64.7463 C   0  0  0  0  0  0  0  0  0  0  0  0
   18.1708   39.8033   64.5794 C   0  0  0  0  0  0  0  0  0  0  0  0
   30.1333   39.0091   67.8661 O   0  5  0  0  0  0  0  0  0  0  0  0
   22.8677   41.2367   65.9236 N   0  0  0  0  0  0  0  0  0  0  0  0
   19.2185   39.1067   64.9304 N   0  0  0  0  0  0  0  0  0  0  0  0
   29.7588   40.8276   66.2021 O   0  0  0  0  0  0  0  0  0  0  0  0
   23.5902   40.4868   66.8534 C   0  0  2  0  0  0  0  0  0  0  0  0
   20.3212   39.7429   65.4910 C   0  0  0  0  0  0  0  0  0  0  0  0
   21.3712   39.0147   65.8593 N   0  0  0  0  0  0  0  0  0  0  0  0
   24.7674   39.9601   66.3769 C   0  0  1  0  0  0  0  0  0  0  0  0
   20.2986   41.1868   65.6569 C   0  0  0  0  0  0  0  0  0  0  0  0
   25.7469   39.1089   67.1016 C   0  0  0  0  0  0  0  0  0  0  0  0
   19.1278   41.8183   65.2880 C   0  0  0  0  0  0  0  0  0  0  0  0
   27.0956   39.7248   67.1087 C   0  0  0  0  0  0  0  0  0  0  0  0
   21.5168   41.9436   66.1506 C   0  0  0  0  0  0  0  0  0  0  0  0
   28.1553   38.9685   66.5218 O   0  0  0  0  0  0  0  0  0  0  0  0
  1  8  1  0  0  0  0
  3  5  1  6  0  0  0
  3  9  1  0  0  0  0
  3 12  2  0  0  0  0
  3 22  1  0  0  0  0
  4  8  2  0  0  0  0
  4 19  1  0  0  0  0
  6 16  1  0  0  0  0
  6  7  1  0  0  0  0
  7 10  1  0  0  0  0
  8 11  1  0  0  0  0
 10 13  1  0  0  0  0
 10 21  1  0  0  0  0
 11 14  2  0  0  0  0
 13  2  1  6  0  0  0
 13 16  1  0  0  0  0
 14 15  1  0  0  0  0
 14 17  1  0  0  0  0
 16 18  1  6  0  0  0
 17 19  2  0  0  0  0
 17 21  1  0  0  0  0
 18 20  1  0  0  0  0
 20 22  1  0  0  0  0
M  CHG  1   9  -1
M  END
>  <CHROM.1>
81.32752661,58.09164612,23.49046599,-120.95185060,-175.54586577,-160.61723187
24.17104979,40.04002758,65.91451754,-3.08609001,-0.16066591,0.88169049

>  <Name>
ligand

>  <RI>
0

>  <Rbt.Current_Directory>
/home/itssahil/PROJECTS/Mol_Feturizer/New_Systems/rnas/2HOM

>  <Rbt.Executable>
rbdock ($Id: //depot/dev/client3/rdock/2013.1/src/exe/rbdock.cxx#4 $)

>  <Rbt.Library>
libRbt.so (2013.1, Build901 2013/11/27)

>  <Rbt.Parameter_File>
/export/apps/rDock/src/rDock_2013.1_src/data/scripts/dock_solv.prm

>  <Rbt.Receptor>
prm/pocket_docking_2.prm

>  <SCORE>
-17.0714

>  <SCORE.INTER>
-22.7519

>  <SCORE.INTER.CONST>
1

>  <SCORE.INTER.POLAR>
-1.63459

>  <SCORE.INTER.ROT>
6

>  <SCORE.INTER.SOLV>
11.8651

>  <SCORE.INTER.VDW>
-21.2744

>  <SCORE.INTER.norm>
-1.03418

>  <SCORE.INTRA>
5.67924

>  <SCORE.INTRA.DIHEDRAL>
6.36247

>  <SCORE.INTRA.DIHEDRAL.0>
5.05013

>  <SCORE.INTRA.POLAR>
0

>  <SCORE.INTRA.POLAR.0>
0

>  <SCORE.INTRA.REPUL>
0

>  <SCORE.INTRA.REPUL.0>
0

>  <SCORE.INTRA.SOLV>
5.14113

>  <SCORE.INTRA.SOLV.lig_0>
-54.1265

>  <SCORE.INTRA.VDW>
-0.0725544

>  <SCORE.INTRA.VDW.0>
-2.1303

>  <SCORE.INTRA.norm>
0.258147

>  <SCORE.RESTR>
0.00134877

>  <SCORE.RESTR.CAVITY>
0.00134877

>  <SCORE.RESTR.norm>
6.13079e-05

>  <SCORE.SYSTEM>
0

>  <SCORE.SYSTEM.CONST>
0

>  <SCORE.SYSTEM.DIHEDRAL>
0

>  <SCORE.SYSTEM.SOLV>
0

>  <SCORE.SYSTEM.norm>
0

>  <SCORE.heavy>
22

>  <SCORE.norm>
-0.775971

>  <RMSD>
2.238

$$$$
ligand
 OpenBabel11021811443D
libRbt.so/2013.1/901 2013/11/27
 22 23  0  0  0  0  0  0  0  0999 V2000
   17.5478   40.2417   64.2900 C   0  0  0  0  0  0  0  0  0  0  0  0
   25.3007   41.9895   65.9410 C   0  0  0  0  0  0  0  0  0  0  0  0
   29.3312   36.4951   65.4448 P   0  0  1  0  0  0  0  0  0  0  0  0
   19.4266   39.2873   65.4225 N   0  0  0  0  0  0  0  0  0  0  0  0
   30.5988   36.8277   64.7454 O   0  0  0  0  0  0  0  0  0  0  0  0
   25.2530   38.0137   65.3104 S   0  0  0  0  0  0  0  0  0  0  0  0
   23.8514   38.6305   66.0016 C   0  0  0  0  0  0  0  0  0  0  0  0
   18.8674   40.4293   64.8911 C   0  0  0  0  0  0  0  0  0  0  0  0
   28.4482   35.5659   64.6938 O   0  5  0  0  0  0  0  0  0  0  0  0
   23.8469   39.9628   66.2205 N   0  0  0  0  0  0  0  0  0  0  0  0
   19.4551   41.5958   64.8974 N   0  0  0  0  0  0  0  0  0  0  0  0
   29.6085   36.0480   66.8472 O   0  0  0  0  0  0  0  0  0  0  0  0
   25.0580   40.5156   65.7999 C   0  0  2  0  0  0  0  0  0  0  0  0
   20.7105   41.7393   65.4790 C   0  0  0  0  0  0  0  0  0  0  0  0
   21.3013   42.9305   65.4594 N   0  0  0  0  0  0  0  0  0  0  0  0
   25.9535   39.6106   65.2810 C   0  0  1  0  0  0  0  0  0  0  0  0
   21.3426   40.5847   66.0959 C   0  0  0  0  0  0  0  0  0  0  0  0
   27.3234   39.8727   64.7674 C   0  0  0  0  0  0  0  0  0  0  0  0
   20.6507   39.3942   65.9985 C   0  0  0  0  0  0  0  0  0  0  0  0
   28.0265   38.6099   64.4368 C   0  0  0  0  0  0  0  0  0  0  0  0
   22.6539   40.7108   66.8476 C   0  0  0  0  0  0  0  0  0  0  0  0
   28.4619   37.8055   65.5335 O   0  0  0  0  0  0  0  0  0  0  0  0
  1  8  1  0  0  0  0
  3  5  1  6  0  0  0
  3  9  1  0  0  0  0
  3 12  2  0  0  0  0
  3 22  1  0  0  0  0
  4  8  2  0  0  0  0
  4 19  1  0  0  0  0
  6 16  1  0  0  0  0
  6  7  1  0  0  0  0
  7 10  1  0  0  0  0
  8 11  1  0  0  0  0
 10 13  1  0  0  0  0
 10 21  1  0  0  0  0
 11 14  2  0  0  0  0
 13  2  1  1  0  0  0
 13 16  1  0  0  0  0
 14 15  1  0  0  0  0
 14 17  1  0  0  0  0
 16 18  1  1  0  0  0
 17 19  2  0  0  0  0
 17 21  1  0  0  0  0
 18 20  1  0  0  0  0
 20 22  1  0  0  0  0
M  CHG  1   9  -1
M  END
>  <CHROM.1>
-58.69415568,-5.94040425,-115.05914110,-72.57644520,-174.36628723,57.37473867
24.71727105,39.09723699,65.45299892,2.73909808,-0.04449868,0.09876558

>  <Name>
ligand

>  <RI>
0

>  <Rbt.Current_Directory>
/home/itssahil/PROJECTS/Mol_Feturizer/New_Systems/rnas/2HOM

>  <Rbt.Executable>
rbdock ($Id: //depot/dev/client3/rdock/2013.1/src/exe/rbdock.cxx#4 $)

>  <Rbt.Library>
libRbt.so (2013.1, Build901 2013/11/27)

>  <Rbt.Parameter_File>
/export/apps/rDock/src/rDock_2013.1_src/data/scripts/dock_solv.prm

>  <Rbt.Receptor>
prm/pocket_docking_6.prm

>  <SCORE>
-22.2873

>  <SCORE.INTER>
-23.7287

>  <SCORE.INTER.CONST>
1

>  <SCORE.INTER.POLAR>
-1.63459

>  <SCORE.INTER.ROT>
6

>  <SCORE.INTER.SOLV>
16.6705

>  <SCORE.INTER.VDW>
-23.5273

>  <SCORE.INTER.norm>
-1.07858

>  <SCORE.INTRA>
1.44141

>  <SCORE.INTRA.DIHEDRAL>
0.322759

>  <SCORE.INTRA.DIHEDRAL.0>
5.05013

>  <SCORE.INTRA.POLAR>
0

>  <SCORE.INTRA.POLAR.0>
0

>  <SCORE.INTRA.REPUL>
0

>  <SCORE.INTRA.REPUL.0>
0

>  <SCORE.INTRA.SOLV>
0.680783

>  <SCORE.INTRA.SOLV.lig_0>
-54.1265

>  <SCORE.INTRA.VDW>
0.939637

>  <SCORE.INTRA.VDW.0>
-2.1303

>  <SCORE.INTRA.norm>
0.0655185

>  <SCORE.RESTR>
0

>  <SCORE.RESTR.CAVITY>
0

>  <SCORE.RESTR.norm>
0

>  <SCORE.SYSTEM>
0

>  <SCORE.SYSTEM.CONST>
0

>  <SCORE.SYSTEM.DIHEDRAL>
0

>  <SCORE.SYSTEM.SOLV>
0

>  <SCORE.SYSTEM.norm>
0

>  <SCORE.heavy>
22

>  <SCORE.norm>
-1.01306

>  <RMSD>
2.247

$$$$
ligand
 OpenBabel11021811443D
libRbt.so/2013.1/901 2013/11/27
 22 23  0  0  0  0  0  0  0  0999 V2000
   16.9721   39.3995   64.1678 C   0  0  0  0  0  0  0  0  0  0  0  0
   22.8968   40.0758   68.4251 C   0  0  0  0  0  0  0  0  0  0  0  0
   29.2517   39.9952   67.0244 P   0  0  1  0  0  0  0  0  0  0  0  0
   18.1713   41.3236   64.9313 N   0  0  0  0  0  0  0  0  0  0  0  0
   29.9934   38.7605   67.3874 O   0  0  0  0  0  0  0  0  0  0  0  0
   25.0934   40.0430   65.0516 S   0  0  0  0  0  0  0  0  0  0  0  0
   23.7313   41.0246   64.9914 C   0  0  0  0  0  0  0  0  0  0  0  0
   18.1966   39.9594   64.7380 C   0  0  0  0  0  0  0  0  0  0  0  0
   29.6015   41.1796   67.8502 O   0  5  0  0  0  0  0  0  0  0  0  0
   22.9813   41.0503   66.1138 N   0  0  0  0  0  0  0  0  0  0  0  0
   19.2152   39.2017   65.0452 N   0  0  0  0  0  0  0  0  0  0  0  0
   29.3465   40.2491   65.5512 O   0  0  0  0  0  0  0  0  0  0  0  0
   23.5497   40.2205   67.0820 C   0  0  2  0  0  0  0  0  0  0  0  0
   20.3656   39.7675   65.5850 C   0  0  0  0  0  0  0  0  0  0  0  0
   21.3853   38.9778   65.9089 N   0  0  0  0  0  0  0  0  0  0  0  0
   24.7016   39.5820   66.6872 C   0  0  1  0  0  0  0  0  0  0  0  0
   20.4246   41.2070   65.7781 C   0  0  0  0  0  0  0  0  0  0  0  0
   25.5307   38.6275   67.4687 C   0  0  0  0  0  0  0  0  0  0  0  0
   19.2791   41.9066   65.4554 C   0  0  0  0  0  0  0  0  0  0  0  0
   26.9404   38.6357   67.0092 C   0  0  0  0  0  0  0  0  0  0  0  0
   21.6948   41.8885   66.2499 C   0  0  0  0  0  0  0  0  0  0  0  0
   27.7302   39.7711   67.3647 O   0  0  0  0  0  0  0  0  0  0  0  0
  1  8  1  0  0  0  0
  3  5  1  1  0  0  0
  3  9  1  0  0  0  0
  3 12  2  0  0  0  0
  3 22  1  0  0  0  0
  4  8  2  0  0  0  0
  4 19  1  0  0  0  0
  6 16  1  0  0  0  0
  6  7  1  0  0  0  0
  7 10  1  0  0  0  0
  8 11  1  0  0  0  0
 10 13  1  0  0  0  0
 10 21  1  0  0  0  0
 11 14  2  0  0  0  0
 13  2  1  6  0  0  0
 13 16  1  0  0  0  0
 14 15  1  0  0  0  0
 14 17  1  0  0  0  0
 16 18  1  6  0  0  0
 17 19  2  0  0  0  0
 17 21  1  0  0  0  0
 18 20  1  0  0  0  0
 20 22  1  0  0  0  0
M  CHG  1   9  -1
M  END
>  <CHROM.1>
87.29436458,26.75534713,16.95848337,73.49325832,178.51166339,-48.31927391
24.07022170,40.09611798,66.19663940,3.03655390,-0.16186177,-0.30243643

>  <Name>
ligand

>  <RI>
0

>  <Rbt.Current_Directory>
/home/itssahil/PROJECTS/Mol_Feturizer/New_Systems/rnas/2HOM

>  <Rbt.Executable>
rbdock ($Id: //depot/dev/client3/rdock/2013.1/src/exe/rbdock.cxx#4 $)

>  <Rbt.Library>
libRbt.so (2013.1, Build901 2013/11/27)

>  <Rbt.Parameter_File>
/export/apps/rDock/src/rDock_2013.1_src/data/scripts/dock_solv.prm

>  <Rbt.Receptor>
prm/pocket_docking_2.prm

>  <SCORE>
-21.7001

>  <SCORE.INTER>
-25.0089

>  <SCORE.INTER.CONST>
1

>  <SCORE.INTER.POLAR>
-2.49313

>  <SCORE.INTER.ROT>
6

>  <SCORE.INTER.SOLV>
12.6647

>  <SCORE.INTER.VDW>
-20.1837

>  <SCORE.INTER.norm>
-1.13677

>  <SCORE.INTRA>
3.30212

>  <SCORE.INTRA.DIHEDRAL>
0.686186

>  <SCORE.INTRA.DIHEDRAL.0>
5.05013

>  <SCORE.INTRA.POLAR>
0

>  <SCORE.INTRA.POLAR.0>
0

>  <SCORE.INTRA.REPUL>
0

>  <SCORE.INTRA.REPUL.0>
0

>  <SCORE.INTRA.SOLV>
4.84025

>  <SCORE.INTRA.SOLV.lig_0>
-54.1265

>  <SCORE.INTRA.VDW>
0.538904

>  <SCORE.INTRA.VDW.0>
-2.1303

>  <SCORE.INTRA.norm>
0.150097

>  <SCORE.RESTR>
0.006685

>  <SCORE.RESTR.CAVITY>
0.006685

>  <SCORE.RESTR.norm>
0.000303864

>  <SCORE.SYSTEM>
0

>  <SCORE.SYSTEM.CONST>
0

>  <SCORE.SYSTEM.DIHEDRAL>
0

>  <SCORE.SYSTEM.SOLV>
0

>  <SCORE.SYSTEM.norm>
0

>  <SCORE.heavy>
22

>  <SCORE.norm>
-0.986368

>  <RMSD>
2.250

$$$$
ligand
 OpenBabel11021811443D
libRbt.so/2013.1/901 2013/11/27
 22 23  0  0  0  0  0  0  0  0999 V2000
   17.7409   40.0723   64.1966 C   0  0  0  0  0  0  0  0  0  0  0  0
   25.2509   42.4441   66.4503 C   0  0  0  0  0  0  0  0  0  0  0  0
   27.4782   37.0401   68.8588 P   0  0  1  0  0  0  0  0  0  0  0  0
   19.6764   39.7516   65.5656 N   0  0  0  0  0  0  0  0  0  0  0  0
   27.1369   38.0976   69.8445 O   0  0  0  0  0  0  0  0  0  0  0  0
   24.4868   38.9325   68.2645 S   0  0  0  0  0  0  0  0  0  0  0  0
   23.1354   39.8968   68.0068 C   0  0  0  0  0  0  0  0  0  0  0  0
   18.8976   40.6550   64.8752 C   0  0  0  0  0  0  0  0  0  0  0  0
   28.9362   36.8709   68.6290 O   0  5  0  0  0  0  0  0  0  0  0  0
   23.3703   41.0790   67.3983 N   0  0  0  0  0  0  0  0  0  0  0  0
   19.1585   41.9328   64.8042 N   0  0  0  0  0  0  0  0  0  0  0  0
   26.7782   35.7606   69.1999 O   0  0  0  0  0  0  0  0  0  0  0  0
   24.7333   41.2080   67.1251 C   0  0  2  0  0  0  0  0  0  0  0  0
   20.2670   42.4544   65.4631 C   0  0  0  0  0  0  0  0  0  0  0  0
   20.5271   43.7547   65.3640 N   0  0  0  0  0  0  0  0  0  0  0  0
   25.5036   40.1427   67.5276 C   0  0  1  0  0  0  0  0  0  0  0  0
   21.1103   41.5655   66.2452 C   0  0  0  0  0  0  0  0  0  0  0  0
   26.9755   39.9798   67.4004 C   0  0  0  0  0  0  0  0  0  0  0  0
   20.7649   40.2292   66.2204 C   0  0  0  0  0  0  0  0  0  0  0  0
   27.3218   38.6920   66.7524 C   0  0  0  0  0  0  0  0  0  0  0  0
   22.2596   42.0989   67.0790 C   0  0  0  0  0  0  0  0  0  0  0  0
   26.9544   37.4991   67.4461 O   0  0  0  0  0  0  0  0  0  0  0  0
  1  8  1  0  0  0  0
  3  5  1  1  0  0  0
  3  9  1  0  0  0  0
  3 12  2  0  0  0  0
  3 22  1  0  0  0  0
  4  8  2  0  0  0  0
  4 19  1  0  0  0  0
  6 16  1  0  0  0  0
  6  7  1  0  0  0  0
  7 10  1  0  0  0  0
  8 11  1  0  0  0  0
 10 13  1  0  0  0  0
 10 21  1  0  0  0  0
 11 14  2  0  0  0  0
 13  2  1  1  0  0  0
 13 16  1  0  0  0  0
 14 15  1  0  0  0  0
 14 17  1  0  0  0  0
 16 18  1  1  0  0  0
 17 19  2  0  0  0  0
 17 21  1  0  0  0  0
 18 20  1  0  0  0  0
 20 22  1  0  0  0  0
M  CHG  1   9  -1
M  END
>  <CHROM.1>
-55.75475770,52.56671408,-157.21043757,-63.55920998,-62.59550173,58.64103601
23.95227595,39.70402179,67.15976096,2.62653036,-0.30975799,-0.19081658

>  <Name>
ligand

>  <RI>
0

>  <Rbt.Current_Directory>
/home/itssahil/PROJECTS/Mol_Feturizer/New_Systems/rnas/2HOM

>  <Rbt.Executable>
rbdock ($Id: //depot/dev/client3/rdock/2013.1/src/exe/rbdock.cxx#4 $)

>  <Rbt.Library>
libRbt.so (2013.1, Build901 2013/11/27)

>  <Rbt.Parameter_File>
/export/apps/rDock/src/rDock_2013.1_src/data/scripts/dock_solv.prm

>  <Rbt.Receptor>
prm/pocket_docking_5.prm

>  <SCORE>
-22.0573

>  <SCORE.INTER>
-22.2893

>  <SCORE.INTER.CONST>
1

>  <SCORE.INTER.POLAR>
-1.61034

>  <SCORE.INTER.ROT>
6

>  <SCORE.INTER.SOLV>
17.5526

>  <SCORE.INTER.VDW>
-22.9426

>  <SCORE.INTER.norm>
-1.01315

>  <SCORE.INTRA>
0.23198

>  <SCORE.INTRA.DIHEDRAL>
0.0493361

>  <SCORE.INTRA.DIHEDRAL.0>
5.05013

>  <SCORE.INTRA.POLAR>
0

>  <SCORE.INTRA.POLAR.0>
0

>  <SCORE.INTRA.REPUL>
0

>  <SCORE.INTRA.REPUL.0>
0

>  <SCORE.INTRA.SOLV>
0.793532

>  <SCORE.INTRA.SOLV.lig_0>
-54.1265

>  <SCORE.INTRA.VDW>
-0.189454

>  <SCORE.INTRA.VDW.0>
-2.1303

>  <SCORE.INTRA.norm>
0.0105445

>  <SCORE.RESTR>
0

>  <SCORE.RESTR.CAVITY>
0

>  <SCORE.RESTR.norm>
0

>  <SCORE.SYSTEM>
0

>  <SCORE.SYSTEM.CONST>
0

>  <SCORE.SYSTEM.DIHEDRAL>
0

>  <SCORE.SYSTEM.SOLV>
0

>  <SCORE.SYSTEM.norm>
0

>  <SCORE.heavy>
22

>  <SCORE.norm>
-1.0026

>  <RMSD>
2.250

$$$$
ligand
 OpenBabel11021811443D
libRbt.so/2013.1/901 2013/11/27
 22 23  0  0  0  0  0  0  0  0999 V2000
   16.7671   39.4936   63.8823 C   0  0  0  0  0  0  0  0  0  0  0  0
   23.0106   39.9579   68.3982 C   0  0  0  0  0  0  0  0  0  0  0  0
   27.9825   38.4386   67.1932 P   0  0  1  0  0  0  0  0  0  0  0  0
   19.0430   38.9477   64.3775 N   0  0  0  0  0  0  0  0  0  0  0  0
   27.7361   39.8785   66.9248 O   0  0  0  0  0  0  0  0  0  0  0  0
   24.4667   37.7286   65.3788 S   0  0  0  0  0  0  0  0  0  0  0  0
   23.4598   38.9853   64.8998 C   0  0  0  0  0  0  0  0  0  0  0  0
   18.0928   39.9431   64.3046 C   0  0  0  0  0  0  0  0  0  0  0  0
   27.3411   37.5198   66.2177 O   0  5  0  0  0  0  0  0  0  0  0  0
   22.9616   39.7459   65.8979 N   0  0  0  0  0  0  0  0  0  0  0  0
   18.3350   41.1986   64.5716 N   0  0  0  0  0  0  0  0  0  0  0  0
   29.4472   38.1830   67.3755 O   0  0  0  0  0  0  0  0  0  0  0  0
   23.4277   39.2774   67.1277 C   0  0  2  0  0  0  0  0  0  0  0  0
   19.6077   41.5919   64.9721 C   0  0  0  0  0  0  0  0  0  0  0  0
   19.8401   42.8772   65.2215 N   0  0  0  0  0  0  0  0  0  0  0  0
   24.2554   38.1824   67.0494 C   0  0  1  0  0  0  0  0  0  0  0  0
   20.6496   40.5877   65.1106 C   0  0  0  0  0  0  0  0  0  0  0  0
   24.8972   37.4407   68.1661 C   0  0  0  0  0  0  0  0  0  0  0  0
   20.2949   39.2987   64.7665 C   0  0  0  0  0  0  0  0  0  0  0  0
   25.8953   38.2819   68.8693 C   0  0  0  0  0  0  0  0  0  0  0  0
   22.0192   40.9418   65.6576 C   0  0  0  0  0  0  0  0  0  0  0  0
   27.2689   38.0628   68.5461 O   0  0  0  0  0  0  0  0  0  0  0  0
  1  8  1  0  0  0  0
  3  5  1  6  0  0  0
  3  9  1  0  0  0  0
  3 12  2  0  0  0  0
  3 22  1  0  0  0  0
  4  8  2  0  0  0  0
  4 19  1  0  0  0  0
  6 16  1  0  0  0  0
  6  7  1  0  0  0  0
  7 10  1  0  0  0  0
  8 11  1  0  0  0  0
 10 13  1  0  0  0  0
 10 21  1  0  0  0  0
 11 14  2  0  0  0  0
 13  2  1  1  0  0  0
 13 16  1  0  0  0  0
 14 15  1  0  0  0  0
 14 17  1  0  0  0  0
 16 18  1  1  0  0  0
 17 19  2  0  0  0  0
 17 21  1  0  0  0  0
 18 20  1  0  0  0  0
 20 22  1  0  0  0  0
M  CHG  1   9  -1
M  END
>  <CHROM.1>
66.74705768,114.42716225,173.21309510,-100.90139062,70.79685089,53.74478219
23.52380648,39.21969796,66.19974946,3.04460505,-0.37992679,0.41694313

>  <Name>
ligand

>  <RI>
0

>  <Rbt.Current_Directory>
/home/itssahil/PROJECTS/Mol_Feturizer/New_Systems/rnas/2HOM

>  <Rbt.Executable>
rbdock ($Id: //depot/dev/client3/rdock/2013.1/src/exe/rbdock.cxx#4 $)

>  <Rbt.Library>
libRbt.so (2013.1, Build901 2013/11/27)

>  <Rbt.Parameter_File>
/export/apps/rDock/src/rDock_2013.1_src/data/scripts/dock_solv.prm

>  <Rbt.Receptor>
prm/pocket_docking_3.prm

>  <SCORE>
-22.3953

>  <SCORE.INTER>
-24.8783

>  <SCORE.INTER.CONST>
1

>  <SCORE.INTER.POLAR>
-1.63459

>  <SCORE.INTER.ROT>
6

>  <SCORE.INTER.SOLV>
19.4342

>  <SCORE.INTER.VDW>
-25.215

>  <SCORE.INTER.norm>
-1.13083

>  <SCORE.INTRA>
2.48304

>  <SCORE.INTRA.DIHEDRAL>
4.45293

>  <SCORE.INTRA.DIHEDRAL.0>
5.05013

>  <SCORE.INTRA.POLAR>
0

>  <SCORE.INTRA.POLAR.0>
0

>  <SCORE.INTRA.REPUL>
0

>  <SCORE.INTRA.REPUL.0>
0

>  <SCORE.INTRA.SOLV>
1.71884

>  <SCORE.INTRA.SOLV.lig_0>
-54.1265

>  <SCORE.INTRA.VDW>
-0.602847

>  <SCORE.INTRA.VDW.0>
-2.1303

>  <SCORE.INTRA.norm>
0.112865

>  <SCORE.RESTR>
0

>  <SCORE.RESTR.CAVITY>
0

>  <SCORE.RESTR.norm>
0

>  <SCORE.SYSTEM>
0

>  <SCORE.SYSTEM.CONST>
0

>  <SCORE.SYSTEM.DIHEDRAL>
0

>  <SCORE.SYSTEM.SOLV>
0

>  <SCORE.SYSTEM.norm>
0

>  <SCORE.heavy>
22

>  <SCORE.norm>
-1.01797

>  <RMSD>
2.257

$$$$
ligand
 OpenBabel11021811443D
libRbt.so/2013.1/901 2013/11/27
 22 23  0  0  0  0  0  0  0  0999 V2000
   16.8669   39.7852   63.6862 C   0  0  0  0  0  0  0  0  0  0  0  0
   25.0250   41.1332   65.6272 C   0  0  0  0  0  0  0  0  0  0  0  0
   29.4070   36.7374   65.3266 P   0  0  1  0  0  0  0  0  0  0  0  0
   19.0121   39.0124   64.4102 N   0  0  0  0  0  0  0  0  0  0  0  0
   28.5261   35.5783   65.0321 O   0  0  0  0  0  0  0  0  0  0  0  0
   24.0444   37.2305   65.5072 S   0  0  0  0  0  0  0  0  0  0  0  0
   22.7511   38.2703   65.7698 C   0  0  0  0  0  0  0  0  0  0  0  0
   18.1760   40.0973   64.2580 C   0  0  0  0  0  0  0  0  0  0  0  0
   30.6624   36.3819   66.0371 O   0  5  0  0  0  0  0  0  0  0  0  0
   23.0590   39.5842   65.8125 N   0  0  0  0  0  0  0  0  0  0  0  0
   18.5077   41.3196   64.5771 N   0  0  0  0  0  0  0  0  0  0  0  0
   29.6345   37.5501   64.0890 O   0  0  0  0  0  0  0  0  0  0  0  0
   24.4310   39.7553   65.6197 C   0  0  2  0  0  0  0  0  0  0  0  0
   19.7614   41.5812   65.1202 C   0  0  0  0  0  0  0  0  0  0  0  0
   20.0882   42.8345   65.4214 N   0  0  0  0  0  0  0  0  0  0  0  0
   25.1364   38.5887   65.4415 C   0  0  1  0  0  0  0  0  0  0  0  0
   20.6802   40.4779   65.3472 C   0  0  0  0  0  0  0  0  0  0  0  0
   26.5992   38.4284   65.2325 C   0  0  0  0  0  0  0  0  0  0  0  0
   20.2423   39.2342   64.9387 C   0  0  0  0  0  0  0  0  0  0  0  0
   27.2622   37.8937   66.4461 C   0  0  0  0  0  0  0  0  0  0  0  0
   22.0099   40.6894   66.0454 C   0  0  0  0  0  0  0  0  0  0  0  0
   28.6692   37.6625   66.3661 O   0  0  0  0  0  0  0  0  0  0  0  0
  1  8  1  0  0  0  0
  3  5  1  6  0  0  0
  3  9  1  0  0  0  0
  3 12  2  0  0  0  0
  3 22  1  0  0  0  0
  4  8  2  0  0  0  0
  4 19  1  0  0  0  0
  6 16  1  0  0  0  0
  6  7  1  0  0  0  0
  7 10  1  0  0  0  0
  8 11  1  0  0  0  0
 10 13  1  0  0  0  0
 10 21  1  0  0  0  0
 11 14  2  0  0  0  0
 13  2  1  1  0  0  0
 13 16  1  0  0  0  0
 14 15  1  0  0  0  0
 14 17  1  0  0  0  0
 16 18  1  1  0  0  0
 17 19  2  0  0  0  0
 17 21  1  0  0  0  0
 18 20  1  0  0  0  0
 20 22  1  0  0  0  0
M  CHG  1   9  -1
M  END
>  <CHROM.1>
-39.50634127,-73.18247669,-160.63451627,178.56138041,-57.27280998,-34.31183405
24.17221426,38.79565256,65.29386475,2.81708687,-0.14683124,0.21392423

>  <Name>
ligand

>  <RI>
0

>  <Rbt.Current_Directory>
/home/itssahil/PROJECTS/Mol_Feturizer/New_Systems/rnas/2HOM

>  <Rbt.Executable>
rbdock ($Id: //depot/dev/client3/rdock/2013.1/src/exe/rbdock.cxx#4 $)

>  <Rbt.Library>
libRbt.so (2013.1, Build901 2013/11/27)

>  <Rbt.Parameter_File>
/export/apps/rDock/src/rDock_2013.1_src/data/scripts/dock_solv.prm

>  <Rbt.Receptor>
prm/pocket_docking_8.prm

>  <SCORE>
-26.7607

>  <SCORE.INTER>
-28.2055

>  <SCORE.INTER.CONST>
1

>  <SCORE.INTER.POLAR>
-1.63459

>  <SCORE.INTER.ROT>
6

>  <SCORE.INTER.SOLV>
19.2812

>  <SCORE.INTER.VDW>
-27.3821

>  <SCORE.INTER.norm>
-1.28207

>  <SCORE.INTRA>
1.44487

>  <SCORE.INTRA.DIHEDRAL>
0.850576

>  <SCORE.INTRA.DIHEDRAL.0>
5.05013

>  <SCORE.INTRA.POLAR>
0

>  <SCORE.INTRA.POLAR.0>
0

>  <SCORE.INTRA.REPUL>
0

>  <SCORE.INTRA.REPUL.0>
0

>  <SCORE.INTRA.SOLV>
0.735151

>  <SCORE.INTRA.SOLV.lig_0>
-54.1265

>  <SCORE.INTRA.VDW>
0.652002

>  <SCORE.INTRA.VDW.0>
-2.1303

>  <SCORE.INTRA.norm>
0.0656757

>  <SCORE.RESTR>
0

>  <SCORE.RESTR.CAVITY>
0

>  <SCORE.RESTR.norm>
0

>  <SCORE.SYSTEM>
0

>  <SCORE.SYSTEM.CONST>
0

>  <SCORE.SYSTEM.DIHEDRAL>
0

>  <SCORE.SYSTEM.SOLV>
0

>  <SCORE.SYSTEM.norm>
0

>  <SCORE.heavy>
22

>  <SCORE.norm>
-1.21639

>  <RMSD>
2.259

$$$$
ligand
 OpenBabel11021811443D
libRbt.so/2013.1/901 2013/11/27
 22 23  0  0  0  0  0  0  0  0999 V2000
   17.7826   40.2596   64.2956 C   0  0  0  0  0  0  0  0  0  0  0  0
   24.9472   42.6368   64.9039 C   0  0  0  0  0  0  0  0  0  0  0  0
   30.1226   39.1670   65.9442 P   0  0  1  0  0  0  0  0  0  0  0  0
   19.5146   41.7648   64.9719 N   0  0  0  0  0  0  0  0  0  0  0  0
   30.6704   38.3022   64.8680 O   0  0  0  0  0  0  0  0  0  0  0  0
   25.5698   38.6806   65.3137 S   0  0  0  0  0  0  0  0  0  0  0  0
   24.2457   39.2732   66.1613 C   0  0  0  0  0  0  0  0  0  0  0  0
   19.0639   40.4625   64.9701 C   0  0  0  0  0  0  0  0  0  0  0  0
   29.7587   38.4361   67.1854 O   0  5  0  0  0  0  0  0  0  0  0  0
   24.0190   40.5983   66.0361 N   0  0  0  0  0  0  0  0  0  0  0  0
   19.7038   39.4723   65.5322 N   0  0  0  0  0  0  0  0  0  0  0  0
   31.0260   40.3369   66.1869 O   0  0  0  0  0  0  0  0  0  0  0  0
   24.9816   41.1662   65.1994 C   0  0  2  0  0  0  0  0  0  0  0  0
   20.9216   39.7004   66.1647 C   0  0  0  0  0  0  0  0  0  0  0  0
   21.5494   38.6834   66.7476 N   0  0  0  0  0  0  0  0  0  0  0  0
   25.9142   40.2811   64.7125 C   0  0  1  0  0  0  0  0  0  0  0  0
   21.4777   41.0434   66.1693 C   0  0  0  0  0  0  0  0  0  0  0  0
   27.0681   40.5684   63.8208 C   0  0  0  0  0  0  0  0  0  0  0  0
   20.7007   42.0203   65.5800 C   0  0  0  0  0  0  0  0  0  0  0  0
   28.2198   39.6864   64.1277 C   0  0  0  0  0  0  0  0  0  0  0  0
   22.8552   41.3252   66.7384 C   0  0  0  0  0  0  0  0  0  0  0  0
   28.7374   39.7373   65.4576 O   0  0  0  0  0  0  0  0  0  0  0  0
  1  8  1  0  0  0  0
  3  5  1  6  0  0  0
  3  9  1  0  0  0  0
  3 12  2  0  0  0  0
  3 22  1  0  0  0  0
  4  8  2  0  0  0  0
  4 19  1  0  0  0  0
  6 16  1  0  0  0  0
  6  7  1  0  0  0  0
  7 10  1  0  0  0  0
  8 11  1  0  0  0  0
 10 13  1  0  0  0  0
 10 21  1  0  0  0  0
 11 14  2  0  0  0  0
 13  2  1  1  0  0  0
 13 16  1  0  0  0  0
 14 15  1  0  0  0  0
 14 17  1  0  0  0  0
 16 18  1  1  0  0  0
 17 19  2  0  0  0  0
 17 21  1  0  0  0  0
 18 20  1  0  0  0  0
 20 22  1  0  0  0  0
M  CHG  1   9  -1
M  END
>  <CHROM.1>
-72.40088469,-32.90910391,61.33025899,-58.37847651,-165.15607964,-12.49758812
25.02703214,40.00378081,65.51763275,3.01141117,0.02422335,-0.35519981

>  <Name>
ligand

>  <RI>
0

>  <Rbt.Current_Directory>
/home/itssahil/PROJECTS/Mol_Feturizer/New_Systems/rnas/2HOM

>  <Rbt.Executable>
rbdock ($Id: //depot/dev/client3/rdock/2013.1/src/exe/rbdock.cxx#4 $)

>  <Rbt.Library>
libRbt.so (2013.1, Build901 2013/11/27)

>  <Rbt.Parameter_File>
/export/apps/rDock/src/rDock_2013.1_src/data/scripts/dock_solv.prm

>  <Rbt.Receptor>
prm/pocket_docking_4.prm

>  <SCORE>
-16.8479

>  <SCORE.INTER>
-19.5637

>  <SCORE.INTER.CONST>
1

>  <SCORE.INTER.POLAR>
-1.63459

>  <SCORE.INTER.ROT>
6

>  <SCORE.INTER.SOLV>
15.6257

>  <SCORE.INTER.VDW>
-20.4024

>  <SCORE.INTER.norm>
-0.889259

>  <SCORE.INTRA>
2.71579

>  <SCORE.INTRA.DIHEDRAL>
3.04547

>  <SCORE.INTRA.DIHEDRAL.0>
5.05013

>  <SCORE.INTRA.POLAR>
0

>  <SCORE.INTRA.POLAR.0>
0

>  <SCORE.INTRA.REPUL>
0

>  <SCORE.INTRA.REPUL.0>
0

>  <SCORE.INTRA.SOLV>
1.38671

>  <SCORE.INTRA.SOLV.lig_0>
-54.1265

>  <SCORE.INTRA.VDW>
0.499696

>  <SCORE.INTRA.VDW.0>
-2.1303

>  <SCORE.INTRA.norm>
0.123445

>  <SCORE.RESTR>
0

>  <SCORE.RESTR.CAVITY>
0

>  <SCORE.RESTR.norm>
0

>  <SCORE.SYSTEM>
0

>  <SCORE.SYSTEM.CONST>
0

>  <SCORE.SYSTEM.DIHEDRAL>
0

>  <SCORE.SYSTEM.SOLV>
0

>  <SCORE.SYSTEM.norm>
0

>  <SCORE.heavy>
22

>  <SCORE.norm>
-0.765814

>  <RMSD>
2.277

$$$$
ligand
 OpenBabel11021811443D
libRbt.so/2013.1/901 2013/11/27
 22 23  0  0  0  0  0  0  0  0999 V2000
   17.0524   39.9739   63.7841 C   0  0  0  0  0  0  0  0  0  0  0  0
   24.9484   41.5809   66.9592 C   0  0  0  0  0  0  0  0  0  0  0  0
   29.5028   36.4036   65.1589 P   0  0  1  0  0  0  0  0  0  0  0  0
   18.9366   39.2175   65.0493 N   0  0  0  0  0  0  0  0  0  0  0  0
   28.5399   35.3289   64.8068 O   0  0  0  0  0  0  0  0  0  0  0  0
   24.3623   37.8232   65.6390 S   0  0  0  0  0  0  0  0  0  0  0  0
   22.9559   38.7146   65.8630 C   0  0  0  0  0  0  0  0  0  0  0  0
   18.3195   40.2896   64.4418 C   0  0  0  0  0  0  0  0  0  0  0  0
   30.4656   36.0312   66.2274 O   0  5  0  0  0  0  0  0  0  0  0  0
   23.1311   39.9785   66.3046 N   0  0  0  0  0  0  0  0  0  0  0  0
   18.8137   41.4985   64.4272 N   0  0  0  0  0  0  0  0  0  0  0  0
   30.1623   36.9406   63.9258 O   0  0  0  0  0  0  0  0  0  0  0  0
   24.4929   40.2372   66.4709 C   0  0  2  0  0  0  0  0  0  0  0  0
   20.0215   41.7644   65.0641 C   0  0  0  0  0  0  0  0  0  0  0  0
   20.5181   42.9972   65.0226 N   0  0  0  0  0  0  0  0  0  0  0  0
   25.3200   39.1828   66.1639 C   0  0  1  0  0  0  0  0  0  0  0  0
   20.7075   40.6889   65.7611 C   0  0  0  0  0  0  0  0  0  0  0  0
   26.8028   39.1295   66.2510 C   0  0  0  0  0  0  0  0  0  0  0  0
   20.1163   39.4441   65.6808 C   0  0  0  0  0  0  0  0  0  0  0  0
   27.3429   37.9466   65.5386 C   0  0  0  0  0  0  0  0  0  0  0  0
   21.9631   40.9484   66.5714 C   0  0  0  0  0  0  0  0  0  0  0  0
   28.6976   37.5883   65.8138 O   0  0  0  0  0  0  0  0  0  0  0  0
  1  8  1  0  0  0  0
  3  5  1  6  0  0  0
  3  9  1  0  0  0  0
  3 12  2  0  0  0  0
  3 22  1  0  0  0  0
  4  8  2  0  0  0  0
  4 19  1  0  0  0  0
  6 16  1  0  0  0  0
  6  7  1  0  0  0  0
  7 10  1  0  0  0  0
  8 11  1  0  0  0  0
 10 13  1  0  0  0  0
 10 21  1  0  0  0  0
 11 14  2  0  0  0  0
 13  2  1  1  0  0  0
 13 16  1  0  0  0  0
 14 15  1  0  0  0  0
 14 17  1  0  0  0  0
 16 18  1  1  0  0  0
 17 19  2  0  0  0  0
 17 21  1  0  0  0  0
 18 20  1  0  0  0  0
 20 22  1  0  0  0  0
M  CHG  1   9  -1
M  END
>  <CHROM.1>
-26.69758779,13.99353907,-132.12489217,-164.93474149,-178.30103458,-29.75806809
24.30021046,38.95157739,65.47381961,2.79714724,-0.19351063,0.40966188

>  <Name>
ligand

>  <RI>
0

>  <Rbt.Current_Directory>
/home/itssahil/PROJECTS/Mol_Feturizer/New_Systems/rnas/2HOM

>  <Rbt.Executable>
rbdock ($Id: //depot/dev/client3/rdock/2013.1/src/exe/rbdock.cxx#4 $)

>  <Rbt.Library>
libRbt.so (2013.1, Build901 2013/11/27)

>  <Rbt.Parameter_File>
/export/apps/rDock/src/rDock_2013.1_src/data/scripts/dock_solv.prm

>  <Rbt.Receptor>
prm/pocket_docking_8.prm

>  <SCORE>
-24.7294

>  <SCORE.INTER>
-27.1288

>  <SCORE.INTER.CONST>
1

>  <SCORE.INTER.POLAR>
-1.63459

>  <SCORE.INTER.ROT>
6

>  <SCORE.INTER.SOLV>
17.8995

>  <SCORE.INTER.VDW>
-26.2038

>  <SCORE.INTER.norm>
-1.23313

>  <SCORE.INTRA>
2.39947

>  <SCORE.INTRA.DIHEDRAL>
1.50387

>  <SCORE.INTRA.DIHEDRAL.0>
5.05013

>  <SCORE.INTRA.POLAR>
0

>  <SCORE.INTRA.POLAR.0>
0

>  <SCORE.INTRA.REPUL>
0

>  <SCORE.INTRA.REPUL.0>
0

>  <SCORE.INTRA.SOLV>
-0.184204

>  <SCORE.INTRA.SOLV.lig_0>
-54.1265

>  <SCORE.INTRA.VDW>
1.73964

>  <SCORE.INTRA.VDW.0>
-2.1303

>  <SCORE.INTRA.norm>
0.109067

>  <SCORE.RESTR>
0

>  <SCORE.RESTR.CAVITY>
0

>  <SCORE.RESTR.norm>
0

>  <SCORE.SYSTEM>
0

>  <SCORE.SYSTEM.CONST>
0

>  <SCORE.SYSTEM.DIHEDRAL>
0

>  <SCORE.SYSTEM.SOLV>
0

>  <SCORE.SYSTEM.norm>
0

>  <SCORE.heavy>
22

>  <SCORE.norm>
-1.12406

>  <RMSD>
2.305

$$$$
ligand
 OpenBabel11021811443D
libRbt.so/2013.1/901 2013/11/27
 22 23  0  0  0  0  0  0  0  0999 V2000
   16.9970   39.8639   63.7518 C   0  0  0  0  0  0  0  0  0  0  0  0
   24.9371   41.6425   65.3361 C   0  0  0  0  0  0  0  0  0  0  0  0
   29.6995   36.4408   64.9239 P   0  0  1  0  0  0  0  0  0  0  0  0
   19.0953   39.1061   64.6156 N   0  0  0  0  0  0  0  0  0  0  0  0
   28.9357   35.2808   64.3974 O   0  0  0  0  0  0  0  0  0  0  0  0
   24.4478   37.6476   65.4254 S   0  0  0  0  0  0  0  0  0  0  0  0
   23.0833   38.5304   65.8512 C   0  0  0  0  0  0  0  0  0  0  0  0
   18.2965   40.1936   64.3354 C   0  0  0  0  0  0  0  0  0  0  0  0
   29.9362   36.3980   66.3900 O   0  5  0  0  0  0  0  0  0  0  0  0
   23.2264   39.8728   65.8265 N   0  0  0  0  0  0  0  0  0  0  0  0
   18.6541   41.4313   64.5504 N   0  0  0  0  0  0  0  0  0  0  0  0
   30.9498   36.6503   64.1262 O   0  0  0  0  0  0  0  0  0  0  0  0
   24.5258   40.2031   65.4374 C   0  0  2  0  0  0  0  0  0  0  0  0
   19.8976   41.7095   65.1083 C   0  0  0  0  0  0  0  0  0  0  0  0
   20.2517   42.9764   65.3025 N   0  0  0  0  0  0  0  0  0  0  0  0
   25.3405   39.1257   65.1812 C   0  0  1  0  0  0  0  0  0  0  0  0
   20.7761   40.6084   65.4675 C   0  0  0  0  0  0  0  0  0  0  0  0
   26.7685   39.1377   64.7688 C   0  0  0  0  0  0  0  0  0  0  0  0
   20.3146   39.3439   65.1620 C   0  0  0  0  0  0  0  0  0  0  0  0
   27.4596   37.8924   65.1810 C   0  0  0  0  0  0  0  0  0  0  0  0
   22.0895   40.8493   66.1870 C   0  0  0  0  0  0  0  0  0  0  0  0
   28.8122   37.7308   64.7525 O   0  0  0  0  0  0  0  0  0  0  0  0
  1  8  1  0  0  0  0
  3  5  1  6  0  0  0
  3  9  1  0  0  0  0
  3 12  2  0  0  0  0
  3 22  1  0  0  0  0
  4  8  2  0  0  0  0
  4 19  1  0  0  0  0
  6 16  1  0  0  0  0
  6  7  1  0  0  0  0
  7 10  1  0  0  0  0
  8 11  1  0  0  0  0
 10 13  1  0  0  0  0
 10 21  1  0  0  0  0
 11 14  2  0  0  0  0
 13  2  1  1  0  0  0
 13 16  1  0  0  0  0
 14 15  1  0  0  0  0
 14 17  1  0  0  0  0
 16 18  1  1  0  0  0
 17 19  2  0  0  0  0
 17 21  1  0  0  0  0
 18 20  1  0  0  0  0
 20 22  1  0  0  0  0
M  CHG  1   9  -1
M  END
>  <CHROM.1>
-51.14254966,-25.69185487,-146.72331729,175.19631523,-172.82375241,51.39709702
24.37171007,38.90420479,65.09088092,2.77305263,-0.09030604,0.19919793

>  <Name>
ligand

>  <RI>
0

>  <Rbt.Current_Directory>
/home/itssahil/PROJECTS/Mol_Feturizer/New_Systems/rnas/2HOM

>  <Rbt.Executable>
rbdock ($Id: //depot/dev/client3/rdock/2013.1/src/exe/rbdock.cxx#4 $)

>  <Rbt.Library>
libRbt.so (2013.1, Build901 2013/11/27)

>  <Rbt.Parameter_File>
/export/apps/rDock/src/rDock_2013.1_src/data/scripts/dock_solv.prm

>  <Rbt.Receptor>
prm/pocket_docking_8.prm

>  <SCORE>
-27.2358

>  <SCORE.INTER>
-28.6069

>  <SCORE.INTER.CONST>
1

>  <SCORE.INTER.POLAR>
-1.63459

>  <SCORE.INTER.ROT>
6

>  <SCORE.INTER.SOLV>
19.3833

>  <SCORE.INTER.VDW>
-27.6837

>  <SCORE.INTER.norm>
-1.30031

>  <SCORE.INTRA>
1.37105

>  <SCORE.INTRA.DIHEDRAL>
0.135214

>  <SCORE.INTRA.DIHEDRAL.0>
5.05013

>  <SCORE.INTRA.POLAR>
0

>  <SCORE.INTRA.POLAR.0>
0

>  <SCORE.INTRA.REPUL>
0

>  <SCORE.INTRA.REPUL.0>
0

>  <SCORE.INTRA.SOLV>
-0.0423902

>  <SCORE.INTRA.SOLV.lig_0>
-54.1265

>  <SCORE.INTRA.VDW>
1.32464

>  <SCORE.INTRA.VDW.0>
-2.1303

>  <SCORE.INTRA.norm>
0.0623204

>  <SCORE.RESTR>
0

>  <SCORE.RESTR.CAVITY>
0

>  <SCORE.RESTR.norm>
0

>  <SCORE.SYSTEM>
0

>  <SCORE.SYSTEM.CONST>
0

>  <SCORE.SYSTEM.DIHEDRAL>
0

>  <SCORE.SYSTEM.SOLV>
0

>  <SCORE.SYSTEM.norm>
0

>  <SCORE.heavy>
22

>  <SCORE.norm>
-1.23799

>  <RMSD>
2.342

$$$$
ligand
 OpenBabel11021811443D
libRbt.so/2013.1/901 2013/11/27
 22 23  0  0  0  0  0  0  0  0999 V2000
   16.9831   39.7702   63.6578 C   0  0  0  0  0  0  0  0  0  0  0  0
   24.8287   41.6207   65.3944 C   0  0  0  0  0  0  0  0  0  0  0  0
   29.6533   36.4534   64.9102 P   0  0  1  0  0  0  0  0  0  0  0  0
   19.0967   39.0384   64.5063 N   0  0  0  0  0  0  0  0  0  0  0  0
   28.8788   35.2781   64.4360 O   0  0  0  0  0  0  0  0  0  0  0  0
   24.4120   37.6190   65.5341 S   0  0  0  0  0  0  0  0  0  0  0  0
   23.0301   38.4822   65.9440 C   0  0  0  0  0  0  0  0  0  0  0  0
   18.2589   40.1102   64.2859 C   0  0  0  0  0  0  0  0  0  0  0  0
   29.9557   36.4357   66.3647 O   0  5  0  0  0  0  0  0  0  0  0  0
   23.1489   39.8265   65.9023 N   0  0  0  0  0  0  0  0  0  0  0  0
   18.5627   41.3434   64.5906 N   0  0  0  0  0  0  0  0  0  0  0  0
   30.8645   36.6627   64.0542 O   0  0  0  0  0  0  0  0  0  0  0  0
   24.4434   40.1754   65.5131 C   0  0  2  0  0  0  0  0  0  0  0  0
   19.7851   41.6315   65.1886 C   0  0  0  0  0  0  0  0  0  0  0  0
   20.0846   42.8952   65.4746 N   0  0  0  0  0  0  0  0  0  0  0  0
   25.2785   39.1099   65.2735 C   0  0  1  0  0  0  0  0  0  0  0  0
   20.7019   40.5440   65.4884 C   0  0  0  0  0  0  0  0  0  0  0  0
   26.7074   39.1427   64.8657 C   0  0  0  0  0  0  0  0  0  0  0  0
   20.2968   39.2861   65.0896 C   0  0  0  0  0  0  0  0  0  0  0  0
   27.3463   37.8150   65.0311 C   0  0  0  0  0  0  0  0  0  0  0  0
   21.9931   40.7866   66.2464 C   0  0  0  0  0  0  0  0  0  0  0  0
   28.7458   37.7319   64.7593 O   0  0  0  0  0  0  0  0  0  0  0  0
  1  8  1  0  0  0  0
  3  5  1  6  0  0  0
  3  9  1  0  0  0  0
  3 12  2  0  0  0  0
  3 22  1  0  0  0  0
  4  8  2  0  0  0  0
  4 19  1  0  0  0  0
  6 16  1  0  0  0  0
  6  7  1  0  0  0  0
  7 10  1  0  0  0  0
  8 11  1  0  0  0  0
 10 13  1  0  0  0  0
 10 21  1  0  0  0  0
 11 14  2  0  0  0  0
 13  2  1  1  0  0  0
 13 16  1  0  0  0  0
 14 15  1  0  0  0  0
 14 17  1  0  0  0  0
 16 18  1  1  0  0  0
 17 19  2  0  0  0  0
 17 21  1  0  0  0  0
 18 20  1  0  0  0  0
 20 22  1  0  0  0  0
M  CHG  1   9  -1
M  END
>  <CHROM.1>
-53.28032440,-13.51504537,-150.28276194,-175.87808085,177.74060628,39.62841106
24.30918893,38.86926308,65.11202041,2.78330456,-0.10430156,0.24609403

>  <Name>
ligand

>  <RI>
0

>  <Rbt.Current_Directory>
/home/itssahil/PROJECTS/Mol_Feturizer/New_Systems/rnas/2HOM

>  <Rbt.Executable>
rbdock ($Id: //depot/dev/client3/rdock/2013.1/src/exe/rbdock.cxx#4 $)

>  <Rbt.Library>
libRbt.so (2013.1, Build901 2013/11/27)

>  <Rbt.Parameter_File>
/export/apps/rDock/src/rDock_2013.1_src/data/scripts/dock_solv.prm

>  <Rbt.Receptor>
prm/pocket_docking_6.prm

>  <SCORE>
-27.045

>  <SCORE.INTER>
-28.7592

>  <SCORE.INTER.CONST>
1

>  <SCORE.INTER.POLAR>
-1.63459

>  <SCORE.INTER.ROT>
6

>  <SCORE.INTER.SOLV>
19.8637

>  <SCORE.INTER.VDW>
-27.9454

>  <SCORE.INTER.norm>
-1.30724

>  <SCORE.INTRA>
1.71423

>  <SCORE.INTRA.DIHEDRAL>
0.229522

>  <SCORE.INTRA.DIHEDRAL.0>
5.05013

>  <SCORE.INTRA.POLAR>
0

>  <SCORE.INTRA.POLAR.0>
0

>  <SCORE.INTRA.REPUL>
0

>  <SCORE.INTRA.REPUL.0>
0

>  <SCORE.INTRA.SOLV>
-0.0868079

>  <SCORE.INTRA.SOLV.lig_0>
-54.1265

>  <SCORE.INTRA.VDW>
1.64288

>  <SCORE.INTRA.VDW.0>
-2.1303

>  <SCORE.INTRA.norm>
0.0779197

>  <SCORE.RESTR>
0

>  <SCORE.RESTR.CAVITY>
0

>  <SCORE.RESTR.norm>
0

>  <SCORE.SYSTEM>
0

>  <SCORE.SYSTEM.CONST>
0

>  <SCORE.SYSTEM.DIHEDRAL>
0

>  <SCORE.SYSTEM.SOLV>
0

>  <SCORE.SYSTEM.norm>
0

>  <SCORE.heavy>
22

>  <SCORE.norm>
-1.22932

>  <RMSD>
2.345

$$$$
ligand
 OpenBabel11021811443D
libRbt.so/2013.1/901 2013/11/27
 22 23  0  0  0  0  0  0  0  0999 V2000
   16.7799   39.6376   63.8736 C   0  0  0  0  0  0  0  0  0  0  0  0
   24.5463   40.6942   64.5039 C   0  0  0  0  0  0  0  0  0  0  0  0
   29.3901   37.4392   65.2740 P   0  0  1  0  0  0  0  0  0  0  0  0
   18.2132   41.1253   65.0802 N   0  0  0  0  0  0  0  0  0  0  0  0
   28.6169   36.5881   64.3337 O   0  0  0  0  0  0  0  0  0  0  0  0
   23.9472   37.7705   67.2057 S   0  0  0  0  0  0  0  0  0  0  0  0
   22.7250   38.9211   67.1357 C   0  0  0  0  0  0  0  0  0  0  0  0
   18.1031   39.9149   64.4305 C   0  0  0  0  0  0  0  0  0  0  0  0
   29.5618   36.8497   66.6268 O   0  5  0  0  0  0  0  0  0  0  0  0
   22.9065   39.9101   66.2346 N   0  0  0  0  0  0  0  0  0  0  0  0
   19.0834   39.0588   64.3201 N   0  0  0  0  0  0  0  0  0  0  0  0
   30.6793   37.8742   64.6475 O   0  0  0  0  0  0  0  0  0  0  0  0
   24.1139   39.7200   65.5600 C   0  0  2  0  0  0  0  0  0  0  0  0
   20.3303   39.3551   64.8608 C   0  0  0  0  0  0  0  0  0  0  0  0
   21.3109   38.4632   64.7548 N   0  0  0  0  0  0  0  0  0  0  0  0
   24.8243   38.6110   65.9545 C   0  0  1  0  0  0  0  0  0  0  0  0
   20.5300   40.6328   65.5246 C   0  0  0  0  0  0  0  0  0  0  0  0
   26.1421   38.1433   65.4505 C   0  0  0  0  0  0  0  0  0  0  0  0
   19.4176   41.4447   65.6179 C   0  0  0  0  0  0  0  0  0  0  0  0
   27.2592   38.7936   66.1770 C   0  0  0  0  0  0  0  0  0  0  0  0
   21.8975   41.0566   66.0255 C   0  0  0  0  0  0  0  0  0  0  0  0
   28.5483   38.7382   65.5650 O   0  0  0  0  0  0  0  0  0  0  0  0
  1  8  1  0  0  0  0
  3  5  1  6  0  0  0
  3  9  1  0  0  0  0
  3 12  2  0  0  0  0
  3 22  1  0  0  0  0
  4  8  2  0  0  0  0
  4 19  1  0  0  0  0
  6 16  1  0  0  0  0
  6  7  1  0  0  0  0
  7 10  1  0  0  0  0
  8 11  1  0  0  0  0
 10 13  1  0  0  0  0
 10 21  1  0  0  0  0
 11 14  2  0  0  0  0
 13  2  1  1  0  0  0
 13 16  1  0  0  0  0
 14 15  1  0  0  0  0
 14 17  1  0  0  0  0
 16 18  1  1  0  0  0
 17 19  2  0  0  0  0
 17 21  1  0  0  0  0
 18 20  1  0  0  0  0
 20 22  1  0  0  0  0
M  CHG  1   9  -1
M  END
>  <CHROM.1>
-63.36292437,-93.15000940,-20.33349396,-162.73712694,-63.64098844,61.81864383
24.10350784,38.90896935,65.48718450,-2.94058893,-0.14932800,2.30987672

>  <Name>
ligand

>  <RI>
0

>  <Rbt.Current_Directory>
/home/itssahil/PROJECTS/Mol_Feturizer/New_Systems/rnas/2HOM

>  <Rbt.Executable>
rbdock ($Id: //depot/dev/client3/rdock/2013.1/src/exe/rbdock.cxx#4 $)

>  <Rbt.Library>
libRbt.so (2013.1, Build901 2013/11/27)

>  <Rbt.Parameter_File>
/export/apps/rDock/src/rDock_2013.1_src/data/scripts/dock_solv.prm

>  <Rbt.Receptor>
prm/pocket_docking_5.prm

>  <SCORE>
-22.2956

>  <SCORE.INTER>
-25.0379

>  <SCORE.INTER.CONST>
1

>  <SCORE.INTER.POLAR>
-1.63459

>  <SCORE.INTER.ROT>
6

>  <SCORE.INTER.SOLV>
15.3218

>  <SCORE.INTER.VDW>
-23.9506

>  <SCORE.INTER.norm>
-1.13809

>  <SCORE.INTRA>
2.74223

>  <SCORE.INTRA.DIHEDRAL>
0.750662

>  <SCORE.INTRA.DIHEDRAL.0>
5.05013

>  <SCORE.INTRA.POLAR>
0

>  <SCORE.INTRA.POLAR.0>
0

>  <SCORE.INTRA.REPUL>
0

>  <SCORE.INTRA.REPUL.0>
0

>  <SCORE.INTRA.SOLV>
4.60128

>  <SCORE.INTRA.SOLV.lig_0>
-54.1265

>  <SCORE.INTRA.VDW>
0.0662579

>  <SCORE.INTRA.VDW.0>
-2.1303

>  <SCORE.INTRA.norm>
0.124647

>  <SCORE.RESTR>
0

>  <SCORE.RESTR.CAVITY>
0

>  <SCORE.RESTR.norm>
0

>  <SCORE.SYSTEM>
0

>  <SCORE.SYSTEM.CONST>
0

>  <SCORE.SYSTEM.DIHEDRAL>
0

>  <SCORE.SYSTEM.SOLV>
0

>  <SCORE.SYSTEM.norm>
0

>  <SCORE.heavy>
22

>  <SCORE.norm>
-1.01344

>  <RMSD>
2.347

$$$$
ligand
 OpenBabel11021811443D
libRbt.so/2013.1/901 2013/11/27
 22 23  0  0  0  0  0  0  0  0999 V2000
   16.5916   39.5004   63.6944 C   0  0  0  0  0  0  0  0  0  0  0  0
   23.1354   40.0934   68.3427 C   0  0  0  0  0  0  0  0  0  0  0  0
   28.3991   37.7125   66.6598 P   0  0  1  0  0  0  0  0  0  0  0  0
   18.8184   38.8599   64.2897 N   0  0  0  0  0  0  0  0  0  0  0  0
   28.6269   37.4275   65.2200 O   0  0  0  0  0  0  0  0  0  0  0  0
   23.9677   37.2998   65.5660 S   0  0  0  0  0  0  0  0  0  0  0  0
   23.0021   38.5625   65.0222 C   0  0  0  0  0  0  0  0  0  0  0  0
   17.9213   39.8974   64.1550 C   0  0  0  0  0  0  0  0  0  0  0  0
   29.0234   36.7280   67.5808 O   0  5  0  0  0  0  0  0  0  0  0  0
   22.7122   39.5109   65.9385 N   0  0  0  0  0  0  0  0  0  0  0  0
   18.2148   41.1467   64.3983 N   0  0  0  0  0  0  0  0  0  0  0  0
   28.7578   39.1321   66.9759 O   0  0  0  0  0  0  0  0  0  0  0  0
   23.3124   39.1905   67.1575 C   0  0  2  0  0  0  0  0  0  0  0  0
   19.4897   41.4894   64.8365 C   0  0  0  0  0  0  0  0  0  0  0  0
   19.7755   42.7685   65.0612 N   0  0  0  0  0  0  0  0  0  0  0  0
   24.0337   38.0200   67.1530 C   0  0  1  0  0  0  0  0  0  0  0  0
   20.4754   40.4406   65.0404 C   0  0  0  0  0  0  0  0  0  0  0  0
   24.7702   37.3964   68.2834 C   0  0  0  0  0  0  0  0  0  0  0  0
   20.0708   39.1611   64.7167 C   0  0  0  0  0  0  0  0  0  0  0  0
   26.2186   37.7071   68.2205 C   0  0  0  0  0  0  0  0  0  0  0  0
   21.8397   40.7437   65.6297 C   0  0  0  0  0  0  0  0  0  0  0  0
   26.8619   37.5401   66.9565 O   0  0  0  0  0  0  0  0  0  0  0  0
  1  8  1  0  0  0  0
  3  5  1  6  0  0  0
  3  9  1  0  0  0  0
  3 12  2  0  0  0  0
  3 22  1  0  0  0  0
  4  8  2  0  0  0  0
  4 19  1  0  0  0  0
  6 16  1  0  0  0  0
  6  7  1  0  0  0  0
  7 10  1  0  0  0  0
  8 11  1  0  0  0  0
 10 13  1  0  0  0  0
 10 21  1  0  0  0  0
 11 14  2  0  0  0  0
 13  2  1  1  0  0  0
 13 16  1  0  0  0  0
 14 15  1  0  0  0  0
 14 17  1  0  0  0  0
 16 18  1  1  0  0  0
 17 19  2  0  0  0  0
 17 21  1  0  0  0  0
 18 20  1  0  0  0  0
 20 22  1  0  0  0  0
M  CHG  1   9  -1
M  END
>  <CHROM.1>
54.01790972,81.90117456,173.12833748,-47.04997118,-175.68318283,179.30020157
23.50307978,38.89351937,66.00390325,2.98709008,-0.35170850,0.43473229

>  <Name>
ligand

>  <RI>
0

>  <Rbt.Current_Directory>
/home/itssahil/PROJECTS/Mol_Feturizer/New_Systems/rnas/2HOM

>  <Rbt.Executable>
rbdock ($Id: //depot/dev/client3/rdock/2013.1/src/exe/rbdock.cxx#4 $)

>  <Rbt.Library>
libRbt.so (2013.1, Build901 2013/11/27)

>  <Rbt.Parameter_File>
/export/apps/rDock/src/rDock_2013.1_src/data/scripts/dock_solv.prm

>  <Rbt.Receptor>
prm/pocket_docking_5.prm

>  <SCORE>
-25.0564

>  <SCORE.INTER>
-25.6418

>  <SCORE.INTER.CONST>
1

>  <SCORE.INTER.POLAR>
-1.63459

>  <SCORE.INTER.ROT>
6

>  <SCORE.INTER.SOLV>
19.6433

>  <SCORE.INTER.VDW>
-25.7937

>  <SCORE.INTER.norm>
-1.16554

>  <SCORE.INTRA>
0.585426

>  <SCORE.INTRA.DIHEDRAL>
0.703513

>  <SCORE.INTRA.DIHEDRAL.0>
5.05013

>  <SCORE.INTRA.POLAR>
0

>  <SCORE.INTRA.POLAR.0>
0

>  <SCORE.INTRA.REPUL>
0

>  <SCORE.INTRA.REPUL.0>
0

>  <SCORE.INTRA.SOLV>
0.510719

>  <SCORE.INTRA.SOLV.lig_0>
-54.1265

>  <SCORE.INTRA.VDW>
-0.0216898

>  <SCORE.INTRA.VDW.0>
-2.1303

>  <SCORE.INTRA.norm>
0.0266103

>  <SCORE.RESTR>
0

>  <SCORE.RESTR.CAVITY>
0

>  <SCORE.RESTR.norm>
0

>  <SCORE.SYSTEM>
0

>  <SCORE.SYSTEM.CONST>
0

>  <SCORE.SYSTEM.DIHEDRAL>
0

>  <SCORE.SYSTEM.SOLV>
0

>  <SCORE.SYSTEM.norm>
0

>  <SCORE.heavy>
22

>  <SCORE.norm>
-1.13893

>  <RMSD>
2.349

$$$$
ligand
 OpenBabel11021811443D
libRbt.so/2013.1/901 2013/11/27
 22 23  0  0  0  0  0  0  0  0999 V2000
   17.3948   39.8070   63.9757 C   0  0  0  0  0  0  0  0  0  0  0  0
   25.1043   41.9256   67.1159 C   0  0  0  0  0  0  0  0  0  0  0  0
   27.0599   37.8330   64.9098 P   0  0  1  0  0  0  0  0  0  0  0  0
   19.2920   39.3649   65.3645 N   0  0  0  0  0  0  0  0  0  0  0  0
   25.6478   37.3741   64.9484 O   0  0  0  0  0  0  0  0  0  0  0  0
   24.0150   38.1012   67.7438 S   0  0  0  0  0  0  0  0  0  0  0  0
   22.7470   39.1392   67.3729 C   0  0  0  0  0  0  0  0  0  0  0  0
   18.5973   40.3087   64.6392 C   0  0  0  0  0  0  0  0  0  0  0  0
   27.9431   37.0103   64.0435 O   0  5  0  0  0  0  0  0  0  0  0  0
   23.0917   40.4268   67.1576 N   0  0  0  0  0  0  0  0  0  0  0  0
   18.9703   41.5553   64.5252 N   0  0  0  0  0  0  0  0  0  0  0  0
   27.1264   39.2980   64.6050 O   0  0  0  0  0  0  0  0  0  0  0  0
   24.4719   40.5780   67.3034 C   0  0  2  0  0  0  0  0  0  0  0  0
   20.1194   41.9997   65.1710 C   0  0  0  0  0  0  0  0  0  0  0  0
   20.4935   43.2677   65.0280 N   0  0  0  0  0  0  0  0  0  0  0  0
   25.1455   39.4240   67.6273 C   0  0  1  0  0  0  0  0  0  0  0  0
   20.8794   41.0678   65.9876 C   0  0  0  0  0  0  0  0  0  0  0  0
   26.6023   39.2534   67.8675 C   0  0  0  0  0  0  0  0  0  0  0  0
   20.4173   39.7672   66.0076 C   0  0  0  0  0  0  0  0  0  0  0  0
   27.0355   37.8626   67.5910 C   0  0  0  0  0  0  0  0  0  0  0  0
   22.0698   41.5266   66.8079 C   0  0  0  0  0  0  0  0  0  0  0  0
   27.6831   37.6230   66.3410 O   0  0  0  0  0  0  0  0  0  0  0  0
  1  8  1  0  0  0  0
  3  5  1  6  0  0  0
  3  9  1  0  0  0  0
  3 12  2  0  0  0  0
  3 22  1  0  0  0  0
  4  8  2  0  0  0  0
  4 19  1  0  0  0  0
  6 16  1  0  0  0  0
  6  7  1  0  0  0  0
  7 10  1  0  0  0  0
  8 11  1  0  0  0  0
 10 13  1  0  0  0  0
 10 21  1  0  0  0  0
 11 14  2  0  0  0  0
 13  2  1  1  0  0  0
 13 16  1  0  0  0  0
 14 15  1  0  0  0  0
 14 17  1  0  0  0  0
 16 18  1  1  0  0  0
 17 19  2  0  0  0  0
 17 21  1  0  0  0  0
 18 20  1  0  0  0  0
 20 22  1  0  0  0  0
M  CHG  1   9  -1
M  END
>  <CHROM.1>
-32.75708508,26.11724826,-156.70473003,100.92879097,-61.69638240,-39.88246684
23.63775093,39.50477444,66.00501312,2.97910600,-0.34218091,0.85751893

>  <Name>
ligand

>  <RI>
0

>  <Rbt.Current_Directory>
/home/itssahil/PROJECTS/Mol_Feturizer/New_Systems/rnas/2HOM

>  <Rbt.Executable>
rbdock ($Id: //depot/dev/client3/rdock/2013.1/src/exe/rbdock.cxx#4 $)

>  <Rbt.Library>
libRbt.so (2013.1, Build901 2013/11/27)

>  <Rbt.Parameter_File>
/export/apps/rDock/src/rDock_2013.1_src/data/scripts/dock_solv.prm

>  <Rbt.Receptor>
prm/pocket_docking_4.prm

>  <SCORE>
-15.4957

>  <SCORE.INTER>
-18.9542

>  <SCORE.INTER.CONST>
1

>  <SCORE.INTER.POLAR>
0

>  <SCORE.INTER.ROT>
6

>  <SCORE.INTER.SOLV>
21.6855

>  <SCORE.INTER.VDW>
-27.4647

>  <SCORE.INTER.norm>
-0.861557

>  <SCORE.INTRA>
3.45853

>  <SCORE.INTRA.DIHEDRAL>
4.44197

>  <SCORE.INTRA.DIHEDRAL.0>
5.05013

>  <SCORE.INTRA.POLAR>
0

>  <SCORE.INTRA.POLAR.0>
0

>  <SCORE.INTRA.REPUL>
0

>  <SCORE.INTRA.REPUL.0>
0

>  <SCORE.INTRA.SOLV>
1.38057

>  <SCORE.INTRA.SOLV.lig_0>
-54.1265

>  <SCORE.INTRA.VDW>
0.547266

>  <SCORE.INTRA.VDW.0>
-2.1303

>  <SCORE.INTRA.norm>
0.157206

>  <SCORE.RESTR>
0

>  <SCORE.RESTR.CAVITY>
0

>  <SCORE.RESTR.norm>
0

>  <SCORE.SYSTEM>
0

>  <SCORE.SYSTEM.CONST>
0

>  <SCORE.SYSTEM.DIHEDRAL>
0

>  <SCORE.SYSTEM.SOLV>
0

>  <SCORE.SYSTEM.norm>
0

>  <SCORE.heavy>
22

>  <SCORE.norm>
-0.704351

>  <RMSD>
2.353

$$$$
ligand
 OpenBabel11021811443D
libRbt.so/2013.1/901 2013/11/27
 22 23  0  0  0  0  0  0  0  0999 V2000
   17.6248   40.2462   64.1075 C   0  0  0  0  0  0  0  0  0  0  0  0
   24.1643   38.6143   67.4789 C   0  0  0  0  0  0  0  0  0  0  0  0
   28.8731   39.3592   67.4075 P   0  0  1  0  0  0  0  0  0  0  0  0
   19.1456   41.6784   65.2732 N   0  0  0  0  0  0  0  0  0  0  0  0
   28.6103   40.7992   67.1552 O   0  0  0  0  0  0  0  0  0  0  0  0
   25.6524   40.5877   64.3011 S   0  0  0  0  0  0  0  0  0  0  0  0
   24.3104   41.3095   65.0087 C   0  0  0  0  0  0  0  0  0  0  0  0
   18.8842   40.3984   64.8345 C   0  0  0  0  0  0  0  0  0  0  0  0
   30.2145   39.0771   67.9803 O   0  5  0  0  0  0  0  0  0  0  0  0
   23.7966   40.6634   66.0772 N   0  0  0  0  0  0  0  0  0  0  0  0
   19.6748   39.3815   65.0509 N   0  0  0  0  0  0  0  0  0  0  0  0
   27.7518   38.7521   68.1936 O   0  0  0  0  0  0  0  0  0  0  0  0
   24.5404   39.5106   66.3359 C   0  0  2  0  0  0  0  0  0  0  0  0
   20.8665   39.5619   65.7453 C   0  0  0  0  0  0  0  0  0  0  0  0
   21.6495   38.5114   65.9722 N   0  0  0  0  0  0  0  0  0  0  0  0
   25.5883   39.2968   65.4719 C   0  0  1  0  0  0  0  0  0  0  0  0
   21.2265   40.8941   66.2021 C   0  0  0  0  0  0  0  0  0  0  0  0
   26.5502   38.1637   65.4653 C   0  0  0  0  0  0  0  0  0  0  0  0
   20.3013   41.8879   65.9532 C   0  0  0  0  0  0  0  0  0  0  0  0
   27.8972   38.6020   65.0274 C   0  0  0  0  0  0  0  0  0  0  0  0
   22.5667   41.1684   66.8573 C   0  0  0  0  0  0  0  0  0  0  0  0
   28.9257   38.6195   66.0179 O   0  0  0  0  0  0  0  0  0  0  0  0
  1  8  1  0  0  0  0
  3  5  1  6  0  0  0
  3  9  1  0  0  0  0
  3 12  2  0  0  0  0
  3 22  1  0  0  0  0
  4  8  2  0  0  0  0
  4 19  1  0  0  0  0
  6 16  1  0  0  0  0
  6  7  1  0  0  0  0
  7 10  1  0  0  0  0
  8 11  1  0  0  0  0
 10 13  1  0  0  0  0
 10 21  1  0  0  0  0
 11 14  2  0  0  0  0
 13  2  1  6  0  0  0
 13 16  1  0  0  0  0
 14 15  1  0  0  0  0
 14 17  1  0  0  0  0
 16 18  1  6  0  0  0
 17 19  2  0  0  0  0
 17 21  1  0  0  0  0
 18 20  1  0  0  0  0
 20 22  1  0  0  0  0
M  CHG  1   9  -1
M  END
>  <CHROM.1>
78.34480304,34.65525967,51.19851648,110.35195705,-54.05896172,-56.85755888
24.53356073,39.84226126,66.02108220,-2.91704126,-0.05104931,1.99809060

>  <Name>
ligand

>  <RI>
0

>  <Rbt.Current_Directory>
/home/itssahil/PROJECTS/Mol_Feturizer/New_Systems/rnas/2HOM

>  <Rbt.Executable>
rbdock ($Id: //depot/dev/client3/rdock/2013.1/src/exe/rbdock.cxx#4 $)

>  <Rbt.Library>
libRbt.so (2013.1, Build901 2013/11/27)

>  <Rbt.Parameter_File>
/export/apps/rDock/src/rDock_2013.1_src/data/scripts/dock_solv.prm

>  <Rbt.Receptor>
prm/pocket_docking_3.prm

>  <SCORE>
-15.2532

>  <SCORE.INTER>
-20.6141

>  <SCORE.INTER.CONST>
1

>  <SCORE.INTER.POLAR>
-1.62309

>  <SCORE.INTER.ROT>
6

>  <SCORE.INTER.SOLV>
11.4716

>  <SCORE.INTER.VDW>
-19.7563

>  <SCORE.INTER.norm>
-0.937004

>  <SCORE.INTRA>
5.36088

>  <SCORE.INTRA.DIHEDRAL>
5.25025

>  <SCORE.INTRA.DIHEDRAL.0>
5.05013

>  <SCORE.INTRA.POLAR>
0

>  <SCORE.INTRA.POLAR.0>
0

>  <SCORE.INTRA.REPUL>
0

>  <SCORE.INTRA.REPUL.0>
0

>  <SCORE.INTRA.SOLV>
5.58694

>  <SCORE.INTRA.SOLV.lig_0>
-54.1265

>  <SCORE.INTRA.VDW>
-0.0577116

>  <SCORE.INTRA.VDW.0>
-2.1303

>  <SCORE.INTRA.norm>
0.243676

>  <SCORE.RESTR>
0

>  <SCORE.RESTR.CAVITY>
0

>  <SCORE.RESTR.norm>
0

>  <SCORE.SYSTEM>
0

>  <SCORE.SYSTEM.CONST>
0

>  <SCORE.SYSTEM.DIHEDRAL>
0

>  <SCORE.SYSTEM.SOLV>
0

>  <SCORE.SYSTEM.norm>
0

>  <SCORE.heavy>
22

>  <SCORE.norm>
-0.693327

>  <RMSD>
2.363

$$$$
ligand
 OpenBabel11021811443D
libRbt.so/2013.1/901 2013/11/27
 22 23  0  0  0  0  0  0  0  0999 V2000
   17.1936   39.9861   63.8307 C   0  0  0  0  0  0  0  0  0  0  0  0
   23.4986   38.5253   67.2026 C   0  0  0  0  0  0  0  0  0  0  0  0
   29.2098   36.8251   65.5142 P   0  0  1  0  0  0  0  0  0  0  0  0
   19.1474   39.3106   65.0347 N   0  0  0  0  0  0  0  0  0  0  0  0
   28.4530   35.9640   64.5697 O   0  0  0  0  0  0  0  0  0  0  0  0
   25.5049   40.6892   64.4641 S   0  0  0  0  0  0  0  0  0  0  0  0
   24.0903   41.4034   65.0223 C   0  0  0  0  0  0  0  0  0  0  0  0
   18.4497   40.3609   64.4786 C   0  0  0  0  0  0  0  0  0  0  0  0
   30.2507   36.1054   66.2925 O   0  5  0  0  0  0  0  0  0  0  0  0
   23.4029   40.6937   65.9426 N   0  0  0  0  0  0  0  0  0  0  0  0
   18.8630   41.5997   64.5014 N   0  0  0  0  0  0  0  0  0  0  0  0
   29.7286   38.0425   64.8123 O   0  0  0  0  0  0  0  0  0  0  0  0
   24.0679   39.4956   66.2098 C   0  0  2  0  0  0  0  0  0  0  0  0
   20.0626   41.9216   65.1276 C   0  0  0  0  0  0  0  0  0  0  0  0
   20.4763   43.1854   65.1245 N   0  0  0  0  0  0  0  0  0  0  0  0
   25.2292   39.3115   65.4972 C   0  0  1  0  0  0  0  0  0  0  0  0
   20.8311   40.8693   65.7719 C   0  0  0  0  0  0  0  0  0  0  0  0
   26.1506   38.1459   65.5374 C   0  0  0  0  0  0  0  0  0  0  0  0
   20.3216   39.5918   65.6544 C   0  0  0  0  0  0  0  0  0  0  0  0
   27.2493   38.3600   66.5096 C   0  0  0  0  0  0  0  0  0  0  0  0
   22.0823   41.1817   66.5703 C   0  0  0  0  0  0  0  0  0  0  0  0
   28.2165   37.3166   66.6333 O   0  0  0  0  0  0  0  0  0  0  0  0
  1  8  1  0  0  0  0
  3  5  1  6  0  0  0
  3  9  1  0  0  0  0
  3 12  2  0  0  0  0
  3 22  1  0  0  0  0
  4  8  2  0  0  0  0
  4 19  1  0  0  0  0
  6 16  1  0  0  0  0
  6  7  1  0  0  0  0
  7 10  1  0  0  0  0
  8 11  1  0  0  0  0
 10 13  1  0  0  0  0
 10 21  1  0  0  0  0
 11 14  2  0  0  0  0
 13  2  1  6  0  0  0
 13 16  1  0  0  0  0
 14 15  1  0  0  0  0
 14 17  1  0  0  0  0
 16 18  1  6  0  0  0
 17 19  2  0  0  0  0
 17 21  1  0  0  0  0
 18 20  1  0  0  0  0
 20 22  1  0  0  0  0
M  CHG  1   9  -1
M  END
>  <CHROM.1>
85.12505308,87.19480265,-111.21404427,-179.27931090,64.17215316,-77.82006063
24.30000050,39.32318378,65.42313643,2.75365572,-0.04032807,-0.07244734

>  <Name>
ligand

>  <RI>
0

>  <Rbt.Current_Directory>
/home/itssahil/PROJECTS/Mol_Feturizer/New_Systems/rnas/2HOM

>  <Rbt.Executable>
rbdock ($Id: //depot/dev/client3/rdock/2013.1/src/exe/rbdock.cxx#4 $)

>  <Rbt.Library>
libRbt.so (2013.1, Build901 2013/11/27)

>  <Rbt.Parameter_File>
/export/apps/rDock/src/rDock_2013.1_src/data/scripts/dock_solv.prm

>  <Rbt.Receptor>
prm/pocket_docking_4.prm

>  <SCORE>
-25.4151

>  <SCORE.INTER>
-25.9916

>  <SCORE.INTER.CONST>
1

>  <SCORE.INTER.POLAR>
-1.63459

>  <SCORE.INTER.ROT>
6

>  <SCORE.INTER.SOLV>
17.6093

>  <SCORE.INTER.VDW>
-25.3489

>  <SCORE.INTER.norm>
-1.18144

>  <SCORE.INTRA>
0.576518

>  <SCORE.INTRA.DIHEDRAL>
0.547353

>  <SCORE.INTRA.DIHEDRAL.0>
5.05013

>  <SCORE.INTRA.POLAR>
0

>  <SCORE.INTRA.POLAR.0>
0

>  <SCORE.INTRA.REPUL>
0

>  <SCORE.INTRA.REPUL.0>
0

>  <SCORE.INTRA.SOLV>
0.787251

>  <SCORE.INTRA.SOLV.lig_0>
-54.1265

>  <SCORE.INTRA.VDW>
-0.0907846

>  <SCORE.INTRA.VDW.0>
-2.1303

>  <SCORE.INTRA.norm>
0.0262053

>  <SCORE.RESTR>
0

>  <SCORE.RESTR.CAVITY>
0

>  <SCORE.RESTR.norm>
0

>  <SCORE.SYSTEM>
0

>  <SCORE.SYSTEM.CONST>
0

>  <SCORE.SYSTEM.DIHEDRAL>
0

>  <SCORE.SYSTEM.SOLV>
0

>  <SCORE.SYSTEM.norm>
0

>  <SCORE.heavy>
22

>  <SCORE.norm>
-1.15523

>  <RMSD>
2.366

$$$$
ligand
 OpenBabel11021811443D
libRbt.so/2013.1/901 2013/11/27
 22 23  0  0  0  0  0  0  0  0999 V2000
   17.5476   39.9477   63.8171 C   0  0  0  0  0  0  0  0  0  0  0  0
   24.5412   42.0178   64.8328 C   0  0  0  0  0  0  0  0  0  0  0  0
   28.9943   36.6806   65.7594 P   0  0  1  0  0  0  0  0  0  0  0  0
   19.1484   41.5874   64.5044 N   0  0  0  0  0  0  0  0  0  0  0  0
   30.1561   37.3939   65.1697 O   0  0  0  0  0  0  0  0  0  0  0  0
   24.9457   38.5283   66.7993 S   0  0  0  0  0  0  0  0  0  0  0  0
   23.5623   39.3974   67.1913 C   0  0  0  0  0  0  0  0  0  0  0  0
   18.7165   40.2845   64.6284 C   0  0  0  0  0  0  0  0  0  0  0  0
   28.4618   35.5819   64.9129 O   0  5  0  0  0  0  0  0  0  0  0  0
   23.4075   40.5708   66.5415 N   0  0  0  0  0  0  0  0  0  0  0  0
   19.2797   39.4049   65.4126 N   0  0  0  0  0  0  0  0  0  0  0  0
   29.2984   36.2551   67.1630 O   0  0  0  0  0  0  0  0  0  0  0  0
   24.4801   40.7752   65.6716 C   0  0  2  0  0  0  0  0  0  0  0  0
   20.3914   39.7586   66.1701 C   0  0  0  0  0  0  0  0  0  0  0  0
   20.9398   38.8550   66.9769 N   0  0  0  0  0  0  0  0  0  0  0  0
   25.4224   39.7740   65.6757 C   0  0  1  0  0  0  0  0  0  0  0  0
   20.9267   41.1055   66.0579 C   0  0  0  0  0  0  0  0  0  0  0  0
   26.6791   39.6990   64.8856 C   0  0  0  0  0  0  0  0  0  0  0  0
   20.2320   41.9638   65.2296 C   0  0  0  0  0  0  0  0  0  0  0  0
   27.1260   38.2957   64.7147 C   0  0  0  0  0  0  0  0  0  0  0  0
   22.2050   41.5083   66.7680 C   0  0  0  0  0  0  0  0  0  0  0  0
   27.7839   37.6862   65.8260 O   0  0  0  0  0  0  0  0  0  0  0  0
  1  8  1  0  0  0  0
  3  5  1  6  0  0  0
  3  9  1  0  0  0  0
  3 12  2  0  0  0  0
  3 22  1  0  0  0  0
  4  8  2  0  0  0  0
  4 19  1  0  0  0  0
  6 16  1  0  0  0  0
  6  7  1  0  0  0  0
  7 10  1  0  0  0  0
  8 11  1  0  0  0  0
 10 13  1  0  0  0  0
 10 21  1  0  0  0  0
 11 14  2  0  0  0  0
 13  2  1  1  0  0  0
 13 16  1  0  0  0  0
 14 15  1  0  0  0  0
 14 17  1  0  0  0  0
 16 18  1  1  0  0  0
 17 19  2  0  0  0  0
 17 21  1  0  0  0  0
 18 20  1  0  0  0  0
 20 22  1  0  0  0  0
M  CHG  1   9  -1
M  END
>  <CHROM.1>
-79.13588701,24.44516844,50.88899374,-78.36327466,-142.85097262,63.73829412
24.32707281,39.13305911,65.72187207,2.76049214,-0.01966961,-0.07612661

>  <Name>
ligand

>  <RI>
0

>  <Rbt.Current_Directory>
/home/itssahil/PROJECTS/Mol_Feturizer/New_Systems/rnas/2HOM

>  <Rbt.Executable>
rbdock ($Id: //depot/dev/client3/rdock/2013.1/src/exe/rbdock.cxx#4 $)

>  <Rbt.Library>
libRbt.so (2013.1, Build901 2013/11/27)

>  <Rbt.Parameter_File>
/export/apps/rDock/src/rDock_2013.1_src/data/scripts/dock_solv.prm

>  <Rbt.Receptor>
prm/pocket_docking_4.prm

>  <SCORE>
-18.0604

>  <SCORE.INTER>
-22.7272

>  <SCORE.INTER.CONST>
1

>  <SCORE.INTER.POLAR>
-1.63062

>  <SCORE.INTER.ROT>
6

>  <SCORE.INTER.SOLV>
18.3853

>  <SCORE.INTER.VDW>
-23.4445

>  <SCORE.INTER.norm>
-1.03305

>  <SCORE.INTRA>
4.66673

>  <SCORE.INTRA.DIHEDRAL>
5.85476

>  <SCORE.INTRA.DIHEDRAL.0>
5.05013

>  <SCORE.INTRA.POLAR>
0

>  <SCORE.INTRA.POLAR.0>
0

>  <SCORE.INTRA.REPUL>
0

>  <SCORE.INTRA.REPUL.0>
0

>  <SCORE.INTRA.SOLV>
1.86098

>  <SCORE.INTRA.SOLV.lig_0>
-54.1265

>  <SCORE.INTRA.VDW>
0.808861

>  <SCORE.INTRA.VDW.0>
-2.1303

>  <SCORE.INTRA.norm>
0.212124

>  <SCORE.RESTR>
0

>  <SCORE.RESTR.CAVITY>
0

>  <SCORE.RESTR.norm>
0

>  <SCORE.SYSTEM>
0

>  <SCORE.SYSTEM.CONST>
0

>  <SCORE.SYSTEM.DIHEDRAL>
0

>  <SCORE.SYSTEM.SOLV>
0

>  <SCORE.SYSTEM.norm>
0

>  <SCORE.heavy>
22

>  <SCORE.norm>
-0.820929

>  <RMSD>
2.379

$$$$
ligand
 OpenBabel11021811443D
libRbt.so/2013.1/901 2013/11/27
 22 23  0  0  0  0  0  0  0  0999 V2000
   16.8355   39.6291   63.6836 C   0  0  0  0  0  0  0  0  0  0  0  0
   25.0100   41.2444   65.3036 C   0  0  0  0  0  0  0  0  0  0  0  0
   27.5240   37.5484   68.8435 P   0  0  1  0  0  0  0  0  0  0  0  0
   18.9946   38.9408   64.4503 N   0  0  0  0  0  0  0  0  0  0  0  0
   28.9685   37.2247   68.7213 O   0  0  0  0  0  0  0  0  0  0  0  0
   24.0998   37.3296   65.5333 S   0  0  0  0  0  0  0  0  0  0  0  0
   22.7947   38.3661   65.7454 C   0  0  0  0  0  0  0  0  0  0  0  0
   18.1534   40.0023   64.1953 C   0  0  0  0  0  0  0  0  0  0  0  0
   26.6369   36.3580   68.9017 O   0  5  0  0  0  0  0  0  0  0  0  0
   23.0789   39.6840   65.6710 N   0  0  0  0  0  0  0  0  0  0  0  0
   18.4877   41.2522   64.3737 N   0  0  0  0  0  0  0  0  0  0  0  0
   27.2968   38.5141   69.9658 O   0  0  0  0  0  0  0  0  0  0  0  0
   24.4420   39.8611   65.4264 C   0  0  2  0  0  0  0  0  0  0  0  0
   19.7498   41.5720   64.8634 C   0  0  0  0  0  0  0  0  0  0  0  0
   20.0788   42.8507   65.0207 N   0  0  0  0  0  0  0  0  0  0  0  0
   25.1640   38.6955   65.3253 C   0  0  1  0  0  0  0  0  0  0  0  0
   20.6749   40.5004   65.1933 C   0  0  0  0  0  0  0  0  0  0  0  0
   26.6235   38.5425   65.0893 C   0  0  0  0  0  0  0  0  0  0  0  0
   20.2331   39.2194   64.9302 C   0  0  0  0  0  0  0  0  0  0  0  0
   27.2701   37.7798   66.1841 C   0  0  0  0  0  0  0  0  0  0  0  0
   22.0160   40.7872   65.8413 C   0  0  0  0  0  0  0  0  0  0  0  0
   27.0664   38.2583   67.5140 O   0  0  0  0  0  0  0  0  0  0  0  0
  1  8  1  0  0  0  0
  3  5  1  6  0  0  0
  3  9  1  0  0  0  0
  3 12  2  0  0  0  0
  3 22  1  0  0  0  0
  4  8  2  0  0  0  0
  4 19  1  0  0  0  0
  6 16  1  0  0  0  0
  6  7  1  0  0  0  0
  7 10  1  0  0  0  0
  8 11  1  0  0  0  0
 10 13  1  0  0  0  0
 10 21  1  0  0  0  0
 11 14  2  0  0  0  0
 13  2  1  1  0  0  0
 13 16  1  0  0  0  0
 14 15  1  0  0  0  0
 14 17  1  0  0  0  0
 16 18  1  1  0  0  0
 17 19  2  0  0  0  0
 17 21  1  0  0  0  0
 18 20  1  0  0  0  0
 20 22  1  0  0  0  0
M  CHG  1   9  -1
M  END
>  <CHROM.1>
-39.85907634,-57.63772287,-158.65006600,-54.06459328,173.52813803,51.78005966
23.65034555,39.03772293,66.16006573,2.79275696,-0.37562665,-0.12245419

>  <Name>
ligand

>  <RI>
0

>  <Rbt.Current_Directory>
/home/itssahil/PROJECTS/Mol_Feturizer/New_Systems/rnas/2HOM

>  <Rbt.Executable>
rbdock ($Id: //depot/dev/client3/rdock/2013.1/src/exe/rbdock.cxx#4 $)

>  <Rbt.Library>
libRbt.so (2013.1, Build901 2013/11/27)

>  <Rbt.Parameter_File>
/export/apps/rDock/src/rDock_2013.1_src/data/scripts/dock_solv.prm

>  <Rbt.Receptor>
prm/pocket_docking_6.prm

>  <SCORE>
-22.8684

>  <SCORE.INTER>
-23.4615

>  <SCORE.INTER.CONST>
1

>  <SCORE.INTER.POLAR>
-1.30043

>  <SCORE.INTER.ROT>
6

>  <SCORE.INTER.SOLV>
19.1195

>  <SCORE.INTER.VDW>
-25.2794

>  <SCORE.INTER.norm>
-1.06643

>  <SCORE.INTRA>
0.593136

>  <SCORE.INTRA.DIHEDRAL>
0.462534

>  <SCORE.INTRA.DIHEDRAL.0>
5.05013

>  <SCORE.INTRA.POLAR>
0

>  <SCORE.INTRA.POLAR.0>
0

>  <SCORE.INTRA.REPUL>
0

>  <SCORE.INTRA.REPUL.0>
0

>  <SCORE.INTRA.SOLV>
-0.0756554

>  <SCORE.INTRA.SOLV.lig_0>
-54.1265

>  <SCORE.INTRA.VDW>
0.399697

>  <SCORE.INTRA.VDW.0>
-2.1303

>  <SCORE.INTRA.norm>
0.0269607

>  <SCORE.RESTR>
0

>  <SCORE.RESTR.CAVITY>
0

>  <SCORE.RESTR.norm>
0

>  <SCORE.SYSTEM>
0

>  <SCORE.SYSTEM.CONST>
0

>  <SCORE.SYSTEM.DIHEDRAL>
0

>  <SCORE.SYSTEM.SOLV>
0

>  <SCORE.SYSTEM.norm>
0

>  <SCORE.heavy>
22

>  <SCORE.norm>
-1.03947

>  <RMSD>
2.384

$$$$
ligand
 OpenBabel11021811443D
libRbt.so/2013.1/901 2013/11/27
 22 23  0  0  0  0  0  0  0  0999 V2000
   17.5314   39.8513   63.8925 C   0  0  0  0  0  0  0  0  0  0  0  0
   24.3163   42.0007   64.6895 C   0  0  0  0  0  0  0  0  0  0  0  0
   28.6020   42.8964   66.6042 P   0  0  1  0  0  0  0  0  0  0  0  0
   18.9248   41.6368   64.6631 N   0  0  0  0  0  0  0  0  0  0  0  0
   27.9185   44.1607   66.9793 O   0  0  0  0  0  0  0  0  0  0  0  0
   24.9465   38.9873   67.2835 S   0  0  0  0  0  0  0  0  0  0  0  0
   23.5407   39.8654   67.5576 C   0  0  0  0  0  0  0  0  0  0  0  0
   18.6832   40.2801   64.6845 C   0  0  0  0  0  0  0  0  0  0  0  0
   29.5846   43.0410   65.4993 O   0  5  0  0  0  0  0  0  0  0  0  0
   23.3104   40.8804   66.6974 N   0  0  0  0  0  0  0  0  0  0  0  0
   19.4018   39.4257   65.3624 N   0  0  0  0  0  0  0  0  0  0  0  0
   29.1679   42.2267   67.8187 O   0  0  0  0  0  0  0  0  0  0  0  0
   24.3409   40.9475   65.7579 C   0  0  2  0  0  0  0  0  0  0  0  0
   20.4920   39.8677   66.1047 C   0  0  0  0  0  0  0  0  0  0  0  0
   21.2005   38.9856   66.8034 N   0  0  0  0  0  0  0  0  0  0  0  0
   25.3265   40.0023   65.9172 C   0  0  1  0  0  0  0  0  0  0  0  0
   20.8305   41.2814   66.0949 C   0  0  0  0  0  0  0  0  0  0  0  0
   26.5561   39.8184   65.1027 C   0  0  0  0  0  0  0  0  0  0  0  0
   19.9823   42.0999   65.3765 C   0  0  0  0  0  0  0  0  0  0  0  0
   27.7093   40.5362   65.6971 C   0  0  0  0  0  0  0  0  0  0  0  0
   22.0762   41.7994   66.7880 C   0  0  0  0  0  0  0  0  0  0  0  0
   27.5280   41.9222   65.9892 O   0  0  0  0  0  0  0  0  0  0  0  0
  1  8  1  0  0  0  0
  3  5  1  1  0  0  0
  3  9  1  0  0  0  0
  3 12  2  0  0  0  0
  3 22  1  0  0  0  0
  4  8  2  0  0  0  0
  4 19  1  0  0  0  0
  6 16  1  0  0  0  0
  6  7  1  0  0  0  0
  7 10  1  0  0  0  0
  8 11  1  0  0  0  0
 10 13  1  0  0  0  0
 10 21  1  0  0  0  0
 11 14  2  0  0  0  0
 13  2  1  1  0  0  0
 13 16  1  0  0  0  0
 14 15  1  0  0  0  0
 14 17  1  0  0  0  0
 16 18  1  1  0  0  0
 17 19  2  0  0  0  0
 17 21  1  0  0  0  0
 18 20  1  0  0  0  0
 20 22  1  0  0  0  0
M  CHG  1   9  -1
M  END
>  <CHROM.1>
-85.50601275,-85.73200764,37.17842363,-52.79597665,-179.29091833,-169.28094990
24.20717793,41.06723869,66.07828473,2.97981187,0.19738521,2.81023475

>  <Name>
ligand

>  <RI>
0

>  <Rbt.Current_Directory>
/home/itssahil/PROJECTS/Mol_Feturizer/New_Systems/rnas/2HOM

>  <Rbt.Executable>
rbdock ($Id: //depot/dev/client3/rdock/2013.1/src/exe/rbdock.cxx#4 $)

>  <Rbt.Library>
libRbt.so (2013.1, Build901 2013/11/27)

>  <Rbt.Parameter_File>
/export/apps/rDock/src/rDock_2013.1_src/data/scripts/dock_solv.prm

>  <Rbt.Receptor>
prm/pocket_docking_5.prm

>  <SCORE>
-15.1522

>  <SCORE.INTER>
-16.669

>  <SCORE.INTER.CONST>
1

>  <SCORE.INTER.POLAR>
-1.18585

>  <SCORE.INTER.ROT>
6

>  <SCORE.INTER.SOLV>
13.259

>  <SCORE.INTER.VDW>
-19.1795

>  <SCORE.INTER.norm>
-0.75768

>  <SCORE.INTRA>
1.51678

>  <SCORE.INTRA.DIHEDRAL>
0.314007

>  <SCORE.INTRA.DIHEDRAL.0>
5.05013

>  <SCORE.INTRA.POLAR>
0

>  <SCORE.INTRA.POLAR.0>
0

>  <SCORE.INTRA.REPUL>
0

>  <SCORE.INTRA.REPUL.0>
0

>  <SCORE.INTRA.SOLV>
2.94301

>  <SCORE.INTRA.SOLV.lig_0>
-54.1265

>  <SCORE.INTRA.VDW>
-0.111729

>  <SCORE.INTRA.VDW.0>
-2.1303

>  <SCORE.INTRA.norm>
0.0689446

>  <SCORE.RESTR>
0

>  <SCORE.RESTR.CAVITY>
0

>  <SCORE.RESTR.norm>
0

>  <SCORE.SYSTEM>
0

>  <SCORE.SYSTEM.CONST>
0

>  <SCORE.SYSTEM.DIHEDRAL>
0

>  <SCORE.SYSTEM.SOLV>
0

>  <SCORE.SYSTEM.norm>
0

>  <SCORE.heavy>
22

>  <SCORE.norm>
-0.688736

>  <RMSD>
2.393

$$$$
ligand
 OpenBabel11021811443D
libRbt.so/2013.1/901 2013/11/27
 22 23  0  0  0  0  0  0  0  0999 V2000
   17.1910   40.0211   63.7267 C   0  0  0  0  0  0  0  0  0  0  0  0
   25.1219   41.5240   65.2665 C   0  0  0  0  0  0  0  0  0  0  0  0
   29.3468   35.9856   65.6641 P   0  0  1  0  0  0  0  0  0  0  0  0
   19.2242   39.1829   64.6683 N   0  0  0  0  0  0  0  0  0  0  0  0
   29.3229   35.4299   64.2868 O   0  0  0  0  0  0  0  0  0  0  0  0
   24.5664   37.5458   65.5353 S   0  0  0  0  0  0  0  0  0  0  0  0
   23.2295   38.4704   65.9603 C   0  0  0  0  0  0  0  0  0  0  0  0
   18.4964   40.3010   64.3231 C   0  0  0  0  0  0  0  0  0  0  0  0
   28.8117   35.0653   66.7004 O   0  5  0  0  0  0  0  0  0  0  0  0
   23.3951   39.8077   65.8758 N   0  0  0  0  0  0  0  0  0  0  0  0
   18.9221   41.5244   64.4909 N   0  0  0  0  0  0  0  0  0  0  0  0
   30.7077   36.5200   65.9898 O   0  0  0  0  0  0  0  0  0  0  0  0
   24.6888   40.0978   65.4387 C   0  0  2  0  0  0  0  0  0  0  0  0
   20.1690   41.7550   65.0628 C   0  0  0  0  0  0  0  0  0  0  0  0
   20.5934   43.0067   65.2084 N   0  0  0  0  0  0  0  0  0  0  0  0
   25.4775   38.9959   65.2059 C   0  0  1  0  0  0  0  0  0  0  0  0
   20.9742   40.6223   65.4892 C   0  0  0  0  0  0  0  0  0  0  0  0
   26.8936   38.9647   64.7553 C   0  0  0  0  0  0  0  0  0  0  0  0
   20.4448   39.3740   65.2299 C   0  0  0  0  0  0  0  0  0  0  0  0
   27.4133   37.5771   64.7052 C   0  0  0  0  0  0  0  0  0  0  0  0
   22.2855   40.8189   66.2256 C   0  0  0  0  0  0  0  0  0  0  0  0
   28.3413   37.1966   65.7218 O   0  0  0  0  0  0  0  0  0  0  0  0
  1  8  1  0  0  0  0
  3  5  1  6  0  0  0
  3  9  1  0  0  0  0
  3 12  2  0  0  0  0
  3 22  1  0  0  0  0
  4  8  2  0  0  0  0
  4 19  1  0  0  0  0
  6 16  1  0  0  0  0
  6  7  1  0  0  0  0
  7 10  1  0  0  0  0
  8 11  1  0  0  0  0
 10 13  1  0  0  0  0
 10 21  1  0  0  0  0
 11 14  2  0  0  0  0
 13  2  1  1  0  0  0
 13 16  1  0  0  0  0
 14 15  1  0  0  0  0
 14 17  1  0  0  0  0
 16 18  1  1  0  0  0
 17 19  2  0  0  0  0
 17 21  1  0  0  0  0
 18 20  1  0  0  0  0
 20 22  1  0  0  0  0
M  CHG  1   9  -1
M  END
>  <CHROM.1>
-54.64978377,-3.09198921,-143.54714667,-107.09019958,-160.35392992,8.84906860
24.39203760,38.74825672,65.29280757,2.70939968,-0.11949815,0.08387314

>  <Name>
ligand

>  <RI>
0

>  <Rbt.Current_Directory>
/home/itssahil/PROJECTS/Mol_Feturizer/New_Systems/rnas/2HOM

>  <Rbt.Executable>
rbdock ($Id: //depot/dev/client3/rdock/2013.1/src/exe/rbdock.cxx#4 $)

>  <Rbt.Library>
libRbt.so (2013.1, Build901 2013/11/27)

>  <Rbt.Parameter_File>
/export/apps/rDock/src/rDock_2013.1_src/data/scripts/dock_solv.prm

>  <Rbt.Receptor>
prm/pocket_docking_5.prm

>  <SCORE>
-21.793

>  <SCORE.INTER>
-27.5136

>  <SCORE.INTER.CONST>
1

>  <SCORE.INTER.POLAR>
-1.63113

>  <SCORE.INTER.ROT>
6

>  <SCORE.INTER.SOLV>
21.7469

>  <SCORE.INTER.VDW>
-27.7542

>  <SCORE.INTER.norm>
-1.25062

>  <SCORE.INTRA>
5.72058

>  <SCORE.INTRA.DIHEDRAL>
8.35649

>  <SCORE.INTRA.DIHEDRAL.0>
5.05013

>  <SCORE.INTRA.POLAR>
0

>  <SCORE.INTRA.POLAR.0>
0

>  <SCORE.INTRA.REPUL>
0

>  <SCORE.INTRA.REPUL.0>
0

>  <SCORE.INTRA.SOLV>
-0.212706

>  <SCORE.INTRA.SOLV.lig_0>
-54.1265

>  <SCORE.INTRA.VDW>
1.64868

>  <SCORE.INTRA.VDW.0>
-2.1303

>  <SCORE.INTRA.norm>
0.260026

>  <SCORE.RESTR>
0

>  <SCORE.RESTR.CAVITY>
0

>  <SCORE.RESTR.norm>
0

>  <SCORE.SYSTEM>
0

>  <SCORE.SYSTEM.CONST>
0

>  <SCORE.SYSTEM.DIHEDRAL>
0

>  <SCORE.SYSTEM.SOLV>
0

>  <SCORE.SYSTEM.norm>
0

>  <SCORE.heavy>
22

>  <SCORE.norm>
-0.99059

>  <RMSD>
2.395

$$$$
ligand
 OpenBabel11021811443D
libRbt.so/2013.1/901 2013/11/27
 22 23  0  0  0  0  0  0  0  0999 V2000
   16.8049   39.6617   63.6947 C   0  0  0  0  0  0  0  0  0  0  0  0
   25.0224   41.0708   65.2530 C   0  0  0  0  0  0  0  0  0  0  0  0
   27.6160   37.1943   68.7764 P   0  0  1  0  0  0  0  0  0  0  0  0
   18.9796   38.9424   64.3852 N   0  0  0  0  0  0  0  0  0  0  0  0
   28.9520   36.5927   68.5326 O   0  0  0  0  0  0  0  0  0  0  0  0
   23.9892   37.1946   65.5913 S   0  0  0  0  0  0  0  0  0  0  0  0
   22.7193   38.2777   65.7838 C   0  0  0  0  0  0  0  0  0  0  0  0
   18.1305   40.0124   64.2025 C   0  0  0  0  0  0  0  0  0  0  0  0
   26.6657   36.2983   69.4844 O   0  5  0  0  0  0  0  0  0  0  0  0
   23.0450   39.5833   65.6729 N   0  0  0  0  0  0  0  0  0  0  0  0
   18.4637   41.2524   64.4420 N   0  0  0  0  0  0  0  0  0  0  0  0
   27.7569   38.5391   69.4208 O   0  0  0  0  0  0  0  0  0  0  0  0
   24.4113   39.7101   65.4156 C   0  0  2  0  0  0  0  0  0  0  0  0
   19.7332   41.5507   64.9260 C   0  0  0  0  0  0  0  0  0  0  0  0
   20.0607   42.8206   65.1462 N   0  0  0  0  0  0  0  0  0  0  0  0
   25.0950   38.5197   65.3410 C   0  0  1  0  0  0  0  0  0  0  0  0
   20.6677   40.4669   65.1815 C   0  0  0  0  0  0  0  0  0  0  0  0
   26.5473   38.3138   65.1004 C   0  0  0  0  0  0  0  0  0  0  0  0
   20.2255   39.2000   64.8576 C   0  0  0  0  0  0  0  0  0  0  0  0
   27.3131   38.3375   66.3697 C   0  0  0  0  0  0  0  0  0  0  0  0
   22.0190   40.7242   65.8204 C   0  0  0  0  0  0  0  0  0  0  0  0
   26.9151   37.4132   67.3829 O   0  0  0  0  0  0  0  0  0  0  0  0
  1  8  1  0  0  0  0
  3  5  1  6  0  0  0
  3  9  1  0  0  0  0
  3 12  2  0  0  0  0
  3 22  1  0  0  0  0
  4  8  2  0  0  0  0
  4 19  1  0  0  0  0
  6 16  1  0  0  0  0
  6  7  1  0  0  0  0
  7 10  1  0  0  0  0
  8 11  1  0  0  0  0
 10 13  1  0  0  0  0
 10 21  1  0  0  0  0
 11 14  2  0  0  0  0
 13  2  1  1  0  0  0
 13 16  1  0  0  0  0
 14 15  1  0  0  0  0
 14 17  1  0  0  0  0
 16 18  1  1  0  0  0
 17 19  2  0  0  0  0
 17 21  1  0  0  0  0
 18 20  1  0  0  0  0
 20 22  1  0  0  0  0
M  CHG  1   9  -1
M  END
>  <CHROM.1>
-40.18467178,-91.55160191,-163.57157084,56.16379840,176.49399877,-67.73421474
23.64949991,38.90380273,66.15805760,2.74218261,-0.33611510,-0.19809871

>  <Name>
ligand

>  <RI>
0

>  <Rbt.Current_Directory>
/home/itssahil/PROJECTS/Mol_Feturizer/New_Systems/rnas/2HOM

>  <Rbt.Executable>
rbdock ($Id: //depot/dev/client3/rdock/2013.1/src/exe/rbdock.cxx#4 $)

>  <Rbt.Library>
libRbt.so (2013.1, Build901 2013/11/27)

>  <Rbt.Parameter_File>
/export/apps/rDock/src/rDock_2013.1_src/data/scripts/dock_solv.prm

>  <Rbt.Receptor>
prm/pocket_docking_8.prm

>  <SCORE>
-24.4388

>  <SCORE.INTER>
-24.6602

>  <SCORE.INTER.CONST>
1

>  <SCORE.INTER.POLAR>
-1.29381

>  <SCORE.INTER.ROT>
6

>  <SCORE.INTER.SOLV>
17.9375

>  <SCORE.INTER.VDW>
-25.7066

>  <SCORE.INTER.norm>
-1.12092

>  <SCORE.INTRA>
0.221382

>  <SCORE.INTRA.DIHEDRAL>
-0.115769

>  <SCORE.INTRA.DIHEDRAL.0>
5.05013

>  <SCORE.INTRA.POLAR>
0

>  <SCORE.INTRA.POLAR.0>
0

>  <SCORE.INTRA.REPUL>
0

>  <SCORE.INTRA.REPUL.0>
0

>  <SCORE.INTRA.SOLV>
-0.0270107

>  <SCORE.INTRA.SOLV.lig_0>
-54.1265

>  <SCORE.INTRA.VDW>
0.292772

>  <SCORE.INTRA.VDW.0>
-2.1303

>  <SCORE.INTRA.norm>
0.0100628

>  <SCORE.RESTR>
0

>  <SCORE.RESTR.CAVITY>
0

>  <SCORE.RESTR.norm>
0

>  <SCORE.SYSTEM>
0

>  <SCORE.SYSTEM.CONST>
0

>  <SCORE.SYSTEM.DIHEDRAL>
0

>  <SCORE.SYSTEM.SOLV>
0

>  <SCORE.SYSTEM.norm>
0

>  <SCORE.heavy>
22

>  <SCORE.norm>
-1.11086

>  <RMSD>
2.419

$$$$
ligand
 OpenBabel11021811443D
libRbt.so/2013.1/901 2013/11/27
 22 23  0  0  0  0  0  0  0  0999 V2000
   16.7163   39.5458   63.8220 C   0  0  0  0  0  0  0  0  0  0  0  0
   22.9144   39.9603   68.3826 C   0  0  0  0  0  0  0  0  0  0  0  0
   27.8990   38.0815   67.3686 P   0  0  1  0  0  0  0  0  0  0  0  0
   18.9480   38.9186   64.4132 N   0  0  0  0  0  0  0  0  0  0  0  0
   26.9970   37.7917   66.2246 O   0  0  0  0  0  0  0  0  0  0  0  0
   24.3252   37.5249   65.5042 S   0  0  0  0  0  0  0  0  0  0  0  0
   23.3813   38.7974   64.9451 C   0  0  0  0  0  0  0  0  0  0  0  0
   18.0586   39.9557   64.2324 C   0  0  0  0  0  0  0  0  0  0  0  0
   29.0528   37.1527   67.4836 O   0  5  0  0  0  0  0  0  0  0  0  0
   22.8991   39.6267   65.8952 N   0  0  0  0  0  0  0  0  0  0  0  0
   18.3687   41.2142   64.3935 N   0  0  0  0  0  0  0  0  0  0  0  0
   28.2967   39.5257   67.3693 O   0  0  0  0  0  0  0  0  0  0  0  0
   23.3236   39.2007   67.1551 C   0  0  2  0  0  0  0  0  0  0  0  0
   19.6552   41.5691   64.7858 C   0  0  0  0  0  0  0  0  0  0  0  0
   19.9576   42.8563   64.9267 N   0  0  0  0  0  0  0  0  0  0  0  0
   24.1050   38.0695   67.1462 C   0  0  1  0  0  0  0  0  0  0  0  0
   20.6345   40.5240   65.0348 C   0  0  0  0  0  0  0  0  0  0  0  0
   24.6954   37.3579   68.3100 C   0  0  0  0  0  0  0  0  0  0  0  0
   20.2114   39.2317   64.7974 C   0  0  0  0  0  0  0  0  0  0  0  0
   25.7462   38.1735   68.9647 C   0  0  0  0  0  0  0  0  0  0  0  0
   22.0129   40.8476   65.5786 C   0  0  0  0  0  0  0  0  0  0  0  0
   27.1028   37.8137   68.7009 O   0  0  0  0  0  0  0  0  0  0  0  0
  1  8  1  0  0  0  0
  3  5  1  6  0  0  0
  3  9  1  0  0  0  0
  3 12  2  0  0  0  0
  3 22  1  0  0  0  0
  4  8  2  0  0  0  0
  4 19  1  0  0  0  0
  6 16  1  0  0  0  0
  6  7  1  0  0  0  0
  7 10  1  0  0  0  0
  8 11  1  0  0  0  0
 10 13  1  0  0  0  0
 10 21  1  0  0  0  0
 11 14  2  0  0  0  0
 13  2  1  1  0  0  0
 13 16  1  0  0  0  0
 14 15  1  0  0  0  0
 14 17  1  0  0  0  0
 16 18  1  1  0  0  0
 17 19  2  0  0  0  0
 17 21  1  0  0  0  0
 18 20  1  0  0  0  0
 20 22  1  0  0  0  0
M  CHG  1   9  -1
M  END
>  <CHROM.1>
67.25670463,112.65003614,175.35638177,-103.12138955,74.58858893,-41.78298920
23.45025492,39.06963615,66.24164903,2.99322720,-0.41030206,0.33121030

>  <Name>
ligand

>  <RI>
0

>  <Rbt.Current_Directory>
/home/itssahil/PROJECTS/Mol_Feturizer/New_Systems/rnas/2HOM

>  <Rbt.Executable>
rbdock ($Id: //depot/dev/client3/rdock/2013.1/src/exe/rbdock.cxx#4 $)

>  <Rbt.Library>
libRbt.so (2013.1, Build901 2013/11/27)

>  <Rbt.Parameter_File>
/export/apps/rDock/src/rDock_2013.1_src/data/scripts/dock_solv.prm

>  <Rbt.Receptor>
prm/pocket_docking_5.prm

>  <SCORE>
-23.1564

>  <SCORE.INTER>
-26.1436

>  <SCORE.INTER.CONST>
1

>  <SCORE.INTER.POLAR>
-1.63459

>  <SCORE.INTER.ROT>
6

>  <SCORE.INTER.SOLV>
18.8633

>  <SCORE.INTER.VDW>
-25.8682

>  <SCORE.INTER.norm>
-1.18835

>  <SCORE.INTRA>
2.98721

>  <SCORE.INTRA.DIHEDRAL>
5.54881

>  <SCORE.INTRA.DIHEDRAL.0>
5.05013

>  <SCORE.INTRA.POLAR>
0

>  <SCORE.INTRA.POLAR.0>
0

>  <SCORE.INTRA.REPUL>
0

>  <SCORE.INTRA.REPUL.0>
0

>  <SCORE.INTRA.SOLV>
0.370845

>  <SCORE.INTRA.SOLV.lig_0>
-54.1265

>  <SCORE.INTRA.VDW>
0.0273884

>  <SCORE.INTRA.VDW.0>
-2.1303

>  <SCORE.INTRA.norm>
0.135782

>  <SCORE.RESTR>
0

>  <SCORE.RESTR.CAVITY>
0

>  <SCORE.RESTR.norm>
0

>  <SCORE.SYSTEM>
0

>  <SCORE.SYSTEM.CONST>
0

>  <SCORE.SYSTEM.DIHEDRAL>
0

>  <SCORE.SYSTEM.SOLV>
0

>  <SCORE.SYSTEM.norm>
0

>  <SCORE.heavy>
22

>  <SCORE.norm>
-1.05256

>  <RMSD>
2.424

$$$$
ligand
 OpenBabel11021811443D
libRbt.so/2013.1/901 2013/11/27
 22 23  0  0  0  0  0  0  0  0999 V2000
   17.3872   39.7109   64.1542 C   0  0  0  0  0  0  0  0  0  0  0  0
   23.3833   39.2196   67.6956 C   0  0  0  0  0  0  0  0  0  0  0  0
   29.4929   36.5340   65.2042 P   0  0  1  0  0  0  0  0  0  0  0  0
   19.5650   39.3826   65.0883 N   0  0  0  0  0  0  0  0  0  0  0  0
   29.0693   35.5165   64.2084 O   0  0  0  0  0  0  0  0  0  0  0  0
   25.7564   40.3729   64.6550 S   0  0  0  0  0  0  0  0  0  0  0  0
   24.4042   41.3408   64.8947 C   0  0  0  0  0  0  0  0  0  0  0  0
   18.6328   40.2968   64.6473 C   0  0  0  0  0  0  0  0  0  0  0  0
   30.3698   36.0037   66.2799 O   0  5  0  0  0  0  0  0  0  0  0  0
   23.5956   40.9713   65.9109 N   0  0  0  0  0  0  0  0  0  0  0  0
   18.8275   41.5883   64.6452 N   0  0  0  0  0  0  0  0  0  0  0  0
   30.0594   37.7372   64.5151 O   0  0  0  0  0  0  0  0  0  0  0  0
   24.1076   39.8309   66.5324 C   0  0  2  0  0  0  0  0  0  0  0  0
   20.0243   42.1124   65.1227 C   0  0  0  0  0  0  0  0  0  0  0  0
   20.2118   43.4286   65.0953 N   0  0  0  0  0  0  0  0  0  0  0  0
   25.2756   39.3539   65.9862 C   0  0  1  0  0  0  0  0  0  0  0  0
   21.0372   41.2085   65.6422 C   0  0  0  0  0  0  0  0  0  0  0  0
   26.0572   38.1596   66.4010 C   0  0  0  0  0  0  0  0  0  0  0  0
   20.7430   39.8622   65.5617 C   0  0  0  0  0  0  0  0  0  0  0  0
   27.2902   38.0137   65.5906 C   0  0  0  0  0  0  0  0  0  0  0  0
   22.3079   41.7321   66.2838 C   0  0  0  0  0  0  0  0  0  0  0  0
   28.2161   37.0053   65.9971 O   0  0  0  0  0  0  0  0  0  0  0  0
  1  8  1  0  0  0  0
  3  5  1  6  0  0  0
  3  9  1  0  0  0  0
  3 12  2  0  0  0  0
  3 22  1  0  0  0  0
  4  8  2  0  0  0  0
  4 19  1  0  0  0  0
  6 16  1  0  0  0  0
  6  7  1  0  0  0  0
  7 10  1  0  0  0  0
  8 11  1  0  0  0  0
 10 13  1  0  0  0  0
 10 21  1  0  0  0  0
 11 14  2  0  0  0  0
 13  2  1  6  0  0  0
 13 16  1  0  0  0  0
 14 15  1  0  0  0  0
 14 17  1  0  0  0  0
 16 18  1  6  0  0  0
 17 19  2  0  0  0  0
 17 21  1  0  0  0  0
 18 20  1  0  0  0  0
 20 22  1  0  0  0  0
M  CHG  1   9  -1
M  END
>  <CHROM.1>
93.33694782,2.79756465,-138.73133353,172.30557294,171.60066693,-84.23482576
24.46480492,39.30053443,65.40104599,2.72430478,-0.06516563,0.09318081

>  <Name>
ligand

>  <RI>
0

>  <Rbt.Current_Directory>
/home/itssahil/PROJECTS/Mol_Feturizer/New_Systems/rnas/2HOM

>  <Rbt.Executable>
rbdock ($Id: //depot/dev/client3/rdock/2013.1/src/exe/rbdock.cxx#4 $)

>  <Rbt.Library>
libRbt.so (2013.1, Build901 2013/11/27)

>  <Rbt.Parameter_File>
/export/apps/rDock/src/rDock_2013.1_src/data/scripts/dock_solv.prm

>  <Rbt.Receptor>
prm/pocket_docking_7.prm

>  <SCORE>
-23.5907

>  <SCORE.INTER>
-25.5027

>  <SCORE.INTER.CONST>
1

>  <SCORE.INTER.POLAR>
-1.63459

>  <SCORE.INTER.ROT>
6

>  <SCORE.INTER.SOLV>
19.4977

>  <SCORE.INTER.VDW>
-25.6524

>  <SCORE.INTER.norm>
-1.15921

>  <SCORE.INTRA>
1.91197

>  <SCORE.INTRA.DIHEDRAL>
0.856521

>  <SCORE.INTRA.DIHEDRAL.0>
5.05013

>  <SCORE.INTRA.POLAR>
0

>  <SCORE.INTRA.POLAR.0>
0

>  <SCORE.INTRA.REPUL>
0

>  <SCORE.INTRA.REPUL.0>
0

>  <SCORE.INTRA.SOLV>
0.130957

>  <SCORE.INTRA.SOLV.lig_0>
-54.1265

>  <SCORE.INTRA.VDW>
1.41823

>  <SCORE.INTRA.VDW.0>
-2.1303

>  <SCORE.INTRA.norm>
0.0869076

>  <SCORE.RESTR>
0

>  <SCORE.RESTR.CAVITY>
0

>  <SCORE.RESTR.norm>
0

>  <SCORE.SYSTEM>
0

>  <SCORE.SYSTEM.CONST>
0

>  <SCORE.SYSTEM.DIHEDRAL>
0

>  <SCORE.SYSTEM.SOLV>
0

>  <SCORE.SYSTEM.norm>
0

>  <SCORE.heavy>
22

>  <SCORE.norm>
-1.0723

>  <RMSD>
2.435

$$$$
ligand
 OpenBabel11021811443D
libRbt.so/2013.1/901 2013/11/27
 22 23  0  0  0  0  0  0  0  0999 V2000
   19.1178   41.6430   65.2613 C   0  0  0  0  0  0  0  0  0  0  0  0
   26.3216   39.9875   66.1005 C   0  0  0  0  0  0  0  0  0  0  0  0
   30.2493   40.1436   66.8598 P   0  0  1  0  0  0  0  0  0  0  0  0
   20.2393   39.5540   64.9426 N   0  0  0  0  0  0  0  0  0  0  0  0
   31.2408   39.2003   67.4372 O   0  0  0  0  0  0  0  0  0  0  0  0
   24.8999   37.2397   68.6763 S   0  0  0  0  0  0  0  0  0  0  0  0
   24.0643   37.3354   67.2220 C   0  0  0  0  0  0  0  0  0  0  0  0
   20.3777   40.9085   65.1561 C   0  0  0  0  0  0  0  0  0  0  0  0
   30.6284   41.5749   66.9829 O   0  5  0  0  0  0  0  0  0  0  0  0
   24.5263   38.2507   66.3434 N   0  0  0  0  0  0  0  0  0  0  0  0
   21.5310   41.5149   65.2461 N   0  0  0  0  0  0  0  0  0  0  0  0
   29.8959   39.7408   65.4611 O   0  0  0  0  0  0  0  0  0  0  0  0
   25.6275   38.9148   66.8870 C   0  0  2  0  0  0  0  0  0  0  0  0
   22.7108   40.7852   65.1426 C   0  0  0  0  0  0  0  0  0  0  0  0
   23.8754   41.4226   65.2180 N   0  0  0  0  0  0  0  0  0  0  0  0
   25.9783   38.5060   68.1519 C   0  0  1  0  0  0  0  0  0  0  0  0
   22.6402   39.3451   64.9581 C   0  0  0  0  0  0  0  0  0  0  0  0
   27.0809   39.0208   69.0055 C   0  0  0  0  0  0  0  0  0  0  0  0
   21.3719   38.8136   64.8383 C   0  0  0  0  0  0  0  0  0  0  0  0
   28.3941   38.8846   68.3308 C   0  0  0  0  0  0  0  0  0  0  0  0
   23.8910   38.4872   64.9590 C   0  0  0  0  0  0  0  0  0  0  0  0
   28.9323   40.0576   67.7195 O   0  0  0  0  0  0  0  0  0  0  0  0
  1  8  1  0  0  0  0
  3  5  1  1  0  0  0
  3  9  1  0  0  0  0
  3 12  2  0  0  0  0
  3 22  1  0  0  0  0
  4  8  2  0  0  0  0
  4 19  1  0  0  0  0
  6 16  1  0  0  0  0
  6  7  1  0  0  0  0
  7 10  1  0  0  0  0
  8 11  1  0  0  0  0
 10 13  1  0  0  0  0
 10 21  1  0  0  0  0
 11 14  2  0  0  0  0
 13  2  1  1  0  0  0
 13 16  1  0  0  0  0
 14 15  1  0  0  0  0
 14 17  1  0  0  0  0
 16 18  1  1  0  0  0
 17 19  2  0  0  0  0
 17 21  1  0  0  0  0
 18 20  1  0  0  0  0
 20 22  1  0  0  0  0
M  CHG  1   9  -1
M  END
>  <CHROM.1>
79.94408479,122.52167047,74.65792471,100.64466139,-175.26596702,-35.66786872
25.58552709,39.54224162,66.57020053,-2.97306168,0.15368548,2.47979563

>  <Name>
ligand

>  <RI>
0

>  <Rbt.Current_Directory>
/home/itssahil/PROJECTS/Mol_Feturizer/New_Systems/rnas/2HOM

>  <Rbt.Executable>
rbdock ($Id: //depot/dev/client3/rdock/2013.1/src/exe/rbdock.cxx#4 $)

>  <Rbt.Library>
libRbt.so (2013.1, Build901 2013/11/27)

>  <Rbt.Parameter_File>
/export/apps/rDock/src/rDock_2013.1_src/data/scripts/dock_solv.prm

>  <Rbt.Receptor>
prm/pocket_docking_3.prm

>  <SCORE>
-16.7266

>  <SCORE.INTER>
-21.2521

>  <SCORE.INTER.CONST>
1

>  <SCORE.INTER.POLAR>
-2.46751

>  <SCORE.INTER.ROT>
6

>  <SCORE.INTER.SOLV>
15.874

>  <SCORE.INTER.VDW>
-18.8344

>  <SCORE.INTER.norm>
-0.966003

>  <SCORE.INTRA>
4.52549

>  <SCORE.INTRA.DIHEDRAL>
4.56008

>  <SCORE.INTRA.DIHEDRAL.0>
5.05013

>  <SCORE.INTRA.POLAR>
0

>  <SCORE.INTRA.POLAR.0>
0

>  <SCORE.INTRA.REPUL>
0

>  <SCORE.INTRA.REPUL.0>
0

>  <SCORE.INTRA.SOLV>
3.76481

>  <SCORE.INTRA.SOLV.lig_0>
-54.1265

>  <SCORE.INTRA.VDW>
0.363038

>  <SCORE.INTRA.VDW.0>
-2.1303

>  <SCORE.INTRA.norm>
0.205704

>  <SCORE.RESTR>
0

>  <SCORE.RESTR.CAVITY>
0

>  <SCORE.RESTR.norm>
0

>  <SCORE.SYSTEM>
0

>  <SCORE.SYSTEM.CONST>
0

>  <SCORE.SYSTEM.DIHEDRAL>
0

>  <SCORE.SYSTEM.SOLV>
0

>  <SCORE.SYSTEM.norm>
0

>  <SCORE.heavy>
22

>  <SCORE.norm>
-0.760299

>  <RMSD>
2.448

$$$$
ligand
 OpenBabel11021811443D
libRbt.so/2013.1/901 2013/11/27
 22 23  0  0  0  0  0  0  0  0999 V2000
   17.6181   39.9094   64.6835 C   0  0  0  0  0  0  0  0  0  0  0  0
   26.0163   41.1211   66.9635 C   0  0  0  0  0  0  0  0  0  0  0  0
   29.0107   37.1573   65.4575 P   0  0  1  0  0  0  0  0  0  0  0  0
   19.3365   41.2211   65.7083 N   0  0  0  0  0  0  0  0  0  0  0  0
   29.3079   38.4105   64.7176 O   0  0  0  0  0  0  0  0  0  0  0  0
   24.3422   37.6078   67.9934 S   0  0  0  0  0  0  0  0  0  0  0  0
   23.3385   38.6327   67.1187 C   0  0  0  0  0  0  0  0  0  0  0  0
   19.0344   40.0732   65.0080 C   0  0  0  0  0  0  0  0  0  0  0  0
   28.3315   36.1168   64.6430 O   0  5  0  0  0  0  0  0  0  0  0  0
   23.8819   39.8163   66.7626 N   0  0  0  0  0  0  0  0  0  0  0  0
   19.9218   39.1792   64.6625 N   0  0  0  0  0  0  0  0  0  0  0  0
   30.2380   36.6577   66.1558 O   0  0  0  0  0  0  0  0  0  0  0  0
   25.1951   39.8940   67.2300 C   0  0  2  0  0  0  0  0  0  0  0  0
   21.2615   39.3671   64.9863 C   0  0  0  0  0  0  0  0  0  0  0  0
   22.1476   38.4371   64.6426 N   0  0  0  0  0  0  0  0  0  0  0  0
   25.6231   38.7895   67.9279 C   0  0  1  0  0  0  0  0  0  0  0  0
   21.6585   40.5762   65.6888 C   0  0  0  0  0  0  0  0  0  0  0  0
   26.9476   38.5682   68.5650 C   0  0  0  0  0  0  0  0  0  0  0  0
   20.6354   41.4345   66.0384 C   0  0  0  0  0  0  0  0  0  0  0  0
   28.0302   38.5122   67.5535 C   0  0  0  0  0  0  0  0  0  0  0  0
   23.1178   40.8880   65.9602 C   0  0  0  0  0  0  0  0  0  0  0  0
   27.9408   37.4844   66.5661 O   0  0  0  0  0  0  0  0  0  0  0  0
  1  8  1  0  0  0  0
  3  5  1  6  0  0  0
  3  9  1  0  0  0  0
  3 12  2  0  0  0  0
  3 22  1  0  0  0  0
  4  8  2  0  0  0  0
  4 19  1  0  0  0  0
  6 16  1  0  0  0  0
  6  7  1  0  0  0  0
  7 10  1  0  0  0  0
  8 11  1  0  0  0  0
 10 13  1  0  0  0  0
 10 21  1  0  0  0  0
 11 14  2  0  0  0  0
 13  2  1  1  0  0  0
 13 16  1  0  0  0  0
 14 15  1  0  0  0  0
 14 17  1  0  0  0  0
 16 18  1  1  0  0  0
 17 19  2  0  0  0  0
 17 21  1  0  0  0  0
 18 20  1  0  0  0  0
 20 22  1  0  0  0  0
M  CHG  1   9  -1
M  END
>  <CHROM.1>
4.91165029,115.71277165,-57.61225695,-60.42014246,-175.36421421,-53.00881826
24.64227639,38.84258348,66.18031145,3.06433091,-0.29982369,1.04463302

>  <Name>
ligand

>  <RI>
0

>  <Rbt.Current_Directory>
/home/itssahil/PROJECTS/Mol_Feturizer/New_Systems/rnas/2HOM

>  <Rbt.Executable>
rbdock ($Id: //depot/dev/client3/rdock/2013.1/src/exe/rbdock.cxx#4 $)

>  <Rbt.Library>
libRbt.so (2013.1, Build901 2013/11/27)

>  <Rbt.Parameter_File>
/export/apps/rDock/src/rDock_2013.1_src/data/scripts/dock_solv.prm

>  <Rbt.Receptor>
prm/pocket_docking_4.prm

>  <SCORE>
-19.8141

>  <SCORE.INTER>
-20.7585

>  <SCORE.INTER.CONST>
1

>  <SCORE.INTER.POLAR>
-1.63459

>  <SCORE.INTER.ROT>
6

>  <SCORE.INTER.SOLV>
15.9822

>  <SCORE.INTER.VDW>
-21.3178

>  <SCORE.INTER.norm>
-0.943569

>  <SCORE.INTRA>
0.944443

>  <SCORE.INTRA.DIHEDRAL>
-0.323828

>  <SCORE.INTRA.DIHEDRAL.0>
5.05013

>  <SCORE.INTRA.POLAR>
0

>  <SCORE.INTRA.POLAR.0>
0

>  <SCORE.INTRA.REPUL>
0

>  <SCORE.INTRA.REPUL.0>
0

>  <SCORE.INTRA.SOLV>
1.69602

>  <SCORE.INTRA.SOLV.lig_0>
-54.1265

>  <SCORE.INTRA.VDW>
0.258349

>  <SCORE.INTRA.VDW.0>
-2.1303

>  <SCORE.INTRA.norm>
0.0429292

>  <SCORE.RESTR>
0

>  <SCORE.RESTR.CAVITY>
0

>  <SCORE.RESTR.norm>
0

>  <SCORE.SYSTEM>
0

>  <SCORE.SYSTEM.CONST>
0

>  <SCORE.SYSTEM.DIHEDRAL>
0

>  <SCORE.SYSTEM.SOLV>
0

>  <SCORE.SYSTEM.norm>
0

>  <SCORE.heavy>
22

>  <SCORE.norm>
-0.90064

>  <RMSD>
2.469

$$$$
ligand
 OpenBabel11021811443D
libRbt.so/2013.1/901 2013/11/27
 22 23  0  0  0  0  0  0  0  0999 V2000
   17.6778   40.0808   64.6737 C   0  0  0  0  0  0  0  0  0  0  0  0
   25.2553   39.3367   67.3202 C   0  0  0  0  0  0  0  0  0  0  0  0
   29.6226   36.9377   65.2762 P   0  0  1  0  0  0  0  0  0  0  0  0
   19.7428   39.3951   65.6681 N   0  0  0  0  0  0  0  0  0  0  0  0
   30.3203   35.7665   64.6867 O   0  0  0  0  0  0  0  0  0  0  0  0
   25.6755   41.1774   63.7647 S   0  0  0  0  0  0  0  0  0  0  0  0
   24.2806   41.5885   64.6062 C   0  0  0  0  0  0  0  0  0  0  0  0
   19.0165   40.4402   65.1394 C   0  0  0  0  0  0  0  0  0  0  0  0
   29.4553   36.8669   66.7507 O   0  5  0  0  0  0  0  0  0  0  0  0
   24.1214   40.9824   65.8022 N   0  0  0  0  0  0  0  0  0  0  0  0
   19.4701   41.6607   65.0370 N   0  0  0  0  0  0  0  0  0  0  0  0
   30.2554   38.2132   64.8108 O   0  0  0  0  0  0  0  0  0  0  0  0
   25.2004   40.1315   66.0488 C   0  0  2  0  0  0  0  0  0  0  0  0
   20.7483   41.9684   65.4914 C   0  0  0  0  0  0  0  0  0  0  0  0
   21.2000   43.2124   65.3617 N   0  0  0  0  0  0  0  0  0  0  0  0
   26.1463   40.0987   65.0516 C   0  0  1  0  0  0  0  0  0  0  0  0
   21.5558   40.9234   66.0988 C   0  0  0  0  0  0  0  0  0  0  0  0
   27.3922   39.2898   65.0005 C   0  0  0  0  0  0  0  0  0  0  0  0
   20.9937   39.6629   66.1215 C   0  0  0  0  0  0  0  0  0  0  0  0
   27.1020   37.8426   65.1410 C   0  0  0  0  0  0  0  0  0  0  0  0
   22.9063   41.2291   66.7179 C   0  0  0  0  0  0  0  0  0  0  0  0
   28.1356   36.9352   64.7570 O   0  0  0  0  0  0  0  0  0  0  0  0
  1  8  1  0  0  0  0
  3  5  1  6  0  0  0
  3  9  1  0  0  0  0
  3 12  2  0  0  0  0
  3 22  1  0  0  0  0
  4  8  2  0  0  0  0
  4 19  1  0  0  0  0
  6 16  1  0  0  0  0
  6  7  1  0  0  0  0
  7 10  1  0  0  0  0
  8 11  1  0  0  0  0
 10 13  1  0  0  0  0
 10 21  1  0  0  0  0
 11 14  2  0  0  0  0
 13  2  1  6  0  0  0
 13 16  1  0  0  0  0
 14 15  1  0  0  0  0
 14 17  1  0  0  0  0
 16 18  1  6  0  0  0
 17 19  2  0  0  0  0
 17 21  1  0  0  0  0
 18 20  1  0  0  0  0
 20 22  1  0  0  0  0
M  CHG  1   9  -1
M  END
>  <CHROM.1>
58.09832526,-122.77771108,-96.13368523,163.68383220,53.76125105,176.13267754
24.88626281,39.54912383,65.32421824,2.76481270,0.11163792,-0.23083886

>  <Name>
ligand

>  <RI>
0

>  <Rbt.Current_Directory>
/home/itssahil/PROJECTS/Mol_Feturizer/New_Systems/rnas/2HOM

>  <Rbt.Executable>
rbdock ($Id: //depot/dev/client3/rdock/2013.1/src/exe/rbdock.cxx#4 $)

>  <Rbt.Library>
libRbt.so (2013.1, Build901 2013/11/27)

>  <Rbt.Parameter_File>
/export/apps/rDock/src/rDock_2013.1_src/data/scripts/dock_solv.prm

>  <Rbt.Receptor>
prm/pocket_docking_6.prm

>  <SCORE>
-21.6056

>  <SCORE.INTER>
-24.1463

>  <SCORE.INTER.CONST>
1

>  <SCORE.INTER.POLAR>
-1.63459

>  <SCORE.INTER.ROT>
6

>  <SCORE.INTER.SOLV>
13.1873

>  <SCORE.INTER.VDW>
-22.6446

>  <SCORE.INTER.norm>
-1.09756

>  <SCORE.INTRA>
2.54068

>  <SCORE.INTRA.DIHEDRAL>
0.803524

>  <SCORE.INTRA.DIHEDRAL.0>
5.05013

>  <SCORE.INTRA.POLAR>
0

>  <SCORE.INTRA.POLAR.0>
0

>  <SCORE.INTRA.REPUL>
0

>  <SCORE.INTRA.REPUL.0>
0

>  <SCORE.INTRA.SOLV>
2.54438

>  <SCORE.INTRA.SOLV.lig_0>
-54.1265

>  <SCORE.INTRA.VDW>
0.86673

>  <SCORE.INTRA.VDW.0>
-2.1303

>  <SCORE.INTRA.norm>
0.115486

>  <SCORE.RESTR>
0

>  <SCORE.RESTR.CAVITY>
0

>  <SCORE.RESTR.norm>
0

>  <SCORE.SYSTEM>
0

>  <SCORE.SYSTEM.CONST>
0

>  <SCORE.SYSTEM.DIHEDRAL>
0

>  <SCORE.SYSTEM.SOLV>
0

>  <SCORE.SYSTEM.norm>
0

>  <SCORE.heavy>
22

>  <SCORE.norm>
-0.982073

>  <RMSD>
2.482

$$$$
ligand
 OpenBabel11021811443D
libRbt.so/2013.1/901 2013/11/27
 22 23  0  0  0  0  0  0  0  0999 V2000
   17.0481   39.5417   64.0533 C   0  0  0  0  0  0  0  0  0  0  0  0
   22.5033   40.0358   68.3052 C   0  0  0  0  0  0  0  0  0  0  0  0
   28.7128   39.1525   68.5383 P   0  0  1  0  0  0  0  0  0  0  0  0
   18.4709   41.3147   64.7985 N   0  0  0  0  0  0  0  0  0  0  0  0
   29.4604   39.7250   67.3895 O   0  0  0  0  0  0  0  0  0  0  0  0
   25.2840   38.9631   65.5990 S   0  0  0  0  0  0  0  0  0  0  0  0
   24.1965   40.1262   65.0630 C   0  0  0  0  0  0  0  0  0  0  0  0
   18.3746   39.9750   64.4898 C   0  0  0  0  0  0  0  0  0  0  0  0
   29.1709   37.8000   68.9485 O   0  5  0  0  0  0  0  0  0  0  0  0
   23.2560   40.5005   65.9566 N   0  0  0  0  0  0  0  0  0  0  0  0
   19.3701   39.1349   64.5856 N   0  0  0  0  0  0  0  0  0  0  0  0
   28.6626   40.1316   69.6708 O   0  0  0  0  0  0  0  0  0  0  0  0
   23.4310   39.7980   67.1502 C   0  0  2  0  0  0  0  0  0  0  0  0
   20.6196   39.5812   65.0032 C   0  0  0  0  0  0  0  0  0  0  0  0
   21.6163   38.7077   65.1126 N   0  0  0  0  0  0  0  0  0  0  0  0
   24.4810   38.9104   67.1462 C   0  0  1  0  0  0  0  0  0  0  0  0
   20.8044   40.9909   65.3060 C   0  0  0  0  0  0  0  0  0  0  0  0
   24.9175   38.0067   68.2425 C   0  0  0  0  0  0  0  0  0  0  0  0
   19.6774   41.7819   65.2080 C   0  0  0  0  0  0  0  0  0  0  0  0
   26.1336   38.5231   68.9153 C   0  0  0  0  0  0  0  0  0  0  0  0
   22.1713   41.5517   65.6493 C   0  0  0  0  0  0  0  0  0  0  0  0
   27.2294   38.8923   68.0773 O   0  0  0  0  0  0  0  0  0  0  0  0
  1  8  1  0  0  0  0
  3  5  1  6  0  0  0
  3  9  1  0  0  0  0
  3 12  2  0  0  0  0
  3 22  1  0  0  0  0
  4  8  2  0  0  0  0
  4 19  1  0  0  0  0
  6 16  1  0  0  0  0
  6  7  1  0  0  0  0
  7 10  1  0  0  0  0
  8 11  1  0  0  0  0
 10 13  1  0  0  0  0
 10 21  1  0  0  0  0
 11 14  2  0  0  0  0
 13  2  1  6  0  0  0
 13 16  1  0  0  0  0
 14 15  1  0  0  0  0
 14 17  1  0  0  0  0
 16 18  1  6  0  0  0
 17 19  2  0  0  0  0
 17 21  1  0  0  0  0
 18 20  1  0  0  0  0
 20 22  1  0  0  0  0
M  CHG  1   9  -1
M  END
>  <CHROM.1>
100.78707555,76.65895393,-12.94722156,-50.37546705,-165.29448723,-170.78712918
23.97158949,39.59093482,66.64443646,2.75526241,0.12042353,-1.53199626

>  <Name>
ligand

>  <RI>
0

>  <Rbt.Current_Directory>
/home/itssahil/PROJECTS/Mol_Feturizer/New_Systems/rnas/2HOM

>  <Rbt.Executable>
rbdock ($Id: //depot/dev/client3/rdock/2013.1/src/exe/rbdock.cxx#4 $)

>  <Rbt.Library>
libRbt.so (2013.1, Build901 2013/11/27)

>  <Rbt.Parameter_File>
/export/apps/rDock/src/rDock_2013.1_src/data/scripts/dock_solv.prm

>  <Rbt.Receptor>
prm/pocket_docking_6.prm

>  <SCORE>
-21.7346

>  <SCORE.INTER>
-24.5919

>  <SCORE.INTER.CONST>
1

>  <SCORE.INTER.POLAR>
-1.63459

>  <SCORE.INTER.ROT>
6

>  <SCORE.INTER.SOLV>
14.1722

>  <SCORE.INTER.VDW>
-23.27

>  <SCORE.INTER.norm>
-1.11781

>  <SCORE.INTRA>
2.85725

>  <SCORE.INTRA.DIHEDRAL>
1.43605

>  <SCORE.INTRA.DIHEDRAL.0>
5.05013

>  <SCORE.INTRA.POLAR>
0

>  <SCORE.INTRA.POLAR.0>
0

>  <SCORE.INTRA.REPUL>
0

>  <SCORE.INTRA.REPUL.0>
0

>  <SCORE.INTRA.SOLV>
5.19693

>  <SCORE.INTRA.SOLV.lig_0>
-54.1265

>  <SCORE.INTRA.VDW>
-0.45924

>  <SCORE.INTRA.VDW.0>
-2.1303

>  <SCORE.INTRA.norm>
0.129875

>  <SCORE.RESTR>
0

>  <SCORE.RESTR.CAVITY>
0

>  <SCORE.RESTR.norm>
0

>  <SCORE.SYSTEM>
0

>  <SCORE.SYSTEM.CONST>
0

>  <SCORE.SYSTEM.DIHEDRAL>
0

>  <SCORE.SYSTEM.SOLV>
0

>  <SCORE.SYSTEM.norm>
0

>  <SCORE.heavy>
22

>  <SCORE.norm>
-0.987936

>  <RMSD>
2.485

$$$$
ligand
 OpenBabel11021811443D
libRbt.so/2013.1/901 2013/11/27
 22 23  0  0  0  0  0  0  0  0999 V2000
   17.4119   39.8211   64.2262 C   0  0  0  0  0  0  0  0  0  0  0  0
   25.4381   42.0012   66.9323 C   0  0  0  0  0  0  0  0  0  0  0  0
   29.3069   36.8374   65.3535 P   0  0  1  0  0  0  0  0  0  0  0  0
   19.1374   41.4587   64.4785 N   0  0  0  0  0  0  0  0  0  0  0  0
   30.5327   37.2539   64.6253 O   0  0  0  0  0  0  0  0  0  0  0  0
   24.7806   38.3927   65.2730 S   0  0  0  0  0  0  0  0  0  0  0  0
   23.3998   39.3236   65.4960 C   0  0  0  0  0  0  0  0  0  0  0  0
   18.6855   40.2059   64.8326 C   0  0  0  0  0  0  0  0  0  0  0  0
   28.9100   35.4253   65.1179 O   0  5  0  0  0  0  0  0  0  0  0  0
   23.5992   40.5384   66.0506 N   0  0  0  0  0  0  0  0  0  0  0  0
   19.3180   39.4118   65.6543 N   0  0  0  0  0  0  0  0  0  0  0  0
   29.4150   37.1898   66.8054 O   0  0  0  0  0  0  0  0  0  0  0  0
   24.9585   40.7230   66.3099 C   0  0  2  0  0  0  0  0  0  0  0  0
   20.5286   39.8090   66.2126 C   0  0  0  0  0  0  0  0  0  0  0  0
   21.1486   38.9948   67.0616 N   0  0  0  0  0  0  0  0  0  0  0  0
   25.7597   39.6619   65.9599 C   0  0  1  0  0  0  0  0  0  0  0  0
   21.0859   41.1020   65.8511 C   0  0  0  0  0  0  0  0  0  0  0  0
   27.2320   39.5369   66.1206 C   0  0  0  0  0  0  0  0  0  0  0  0
   20.3166   41.8755   65.0053 C   0  0  0  0  0  0  0  0  0  0  0  0
   27.8714   39.0510   64.8742 C   0  0  0  0  0  0  0  0  0  0  0  0
   22.4569   41.5335   66.3354 C   0  0  0  0  0  0  0  0  0  0  0  0
   28.0889   37.6439   64.7646 O   0  0  0  0  0  0  0  0  0  0  0  0
  1  8  1  0  0  0  0
  3  5  1  6  0  0  0
  3  9  1  0  0  0  0
  3 12  2  0  0  0  0
  3 22  1  0  0  0  0
  4  8  2  0  0  0  0
  4 19  1  0  0  0  0
  6 16  1  0  0  0  0
  6  7  1  0  0  0  0
  7 10  1  0  0  0  0
  8 11  1  0  0  0  0
 10 13  1  0  0  0  0
 10 21  1  0  0  0  0
 11 14  2  0  0  0  0
 13  2  1  1  0  0  0
 13 16  1  0  0  0  0
 14 15  1  0  0  0  0
 14 17  1  0  0  0  0
 16 18  1  1  0  0  0
 17 19  2  0  0  0  0
 17 21  1  0  0  0  0
 18 20  1  0  0  0  0
 20 22  1  0  0  0  0
M  CHG  1   9  -1
M  END
>  <CHROM.1>
-4.51434909,48.24854239,52.84591681,-94.18317294,-83.43846096,-67.08547920
24.54978798,39.16860505,65.56685687,2.82906422,-0.11784801,0.33146069

>  <Name>
ligand

>  <RI>
0

>  <Rbt.Current_Directory>
/home/itssahil/PROJECTS/Mol_Feturizer/New_Systems/rnas/2HOM

>  <Rbt.Executable>
rbdock ($Id: //depot/dev/client3/rdock/2013.1/src/exe/rbdock.cxx#4 $)

>  <Rbt.Library>
libRbt.so (2013.1, Build901 2013/11/27)

>  <Rbt.Parameter_File>
/export/apps/rDock/src/rDock_2013.1_src/data/scripts/dock_solv.prm

>  <Rbt.Receptor>
prm/pocket_docking_5.prm

>  <SCORE>
-18.8627

>  <SCORE.INTER>
-23.492

>  <SCORE.INTER.CONST>
1

>  <SCORE.INTER.POLAR>
-1.62302

>  <SCORE.INTER.ROT>
6

>  <SCORE.INTER.SOLV>
15.6458

>  <SCORE.INTER.VDW>
-23.0665

>  <SCORE.INTER.norm>
-1.06782

>  <SCORE.INTRA>
4.6293

>  <SCORE.INTRA.DIHEDRAL>
5.91329

>  <SCORE.INTRA.DIHEDRAL.0>
5.05013

>  <SCORE.INTRA.POLAR>
0

>  <SCORE.INTRA.POLAR.0>
0

>  <SCORE.INTRA.REPUL>
0

>  <SCORE.INTRA.REPUL.0>
0

>  <SCORE.INTRA.SOLV>
2.66931

>  <SCORE.INTRA.SOLV.lig_0>
-54.1265

>  <SCORE.INTRA.VDW>
0.337998

>  <SCORE.INTRA.VDW.0>
-2.1303

>  <SCORE.INTRA.norm>
0.210423

>  <SCORE.RESTR>
0

>  <SCORE.RESTR.CAVITY>
0

>  <SCORE.RESTR.norm>
0

>  <SCORE.SYSTEM>
0

>  <SCORE.SYSTEM.CONST>
0

>  <SCORE.SYSTEM.DIHEDRAL>
0

>  <SCORE.SYSTEM.SOLV>
0

>  <SCORE.SYSTEM.norm>
0

>  <SCORE.heavy>
22

>  <SCORE.norm>
-0.857396

>  <RMSD>
2.488

$$$$
ligand
 OpenBabel11021811443D
libRbt.so/2013.1/901 2013/11/27
 22 23  0  0  0  0  0  0  0  0999 V2000
   17.1106   39.5305   64.0969 C   0  0  0  0  0  0  0  0  0  0  0  0
   22.8992   39.7699   68.1764 C   0  0  0  0  0  0  0  0  0  0  0  0
   28.9859   37.4496   65.7895 P   0  0  1  0  0  0  0  0  0  0  0  0
   18.4400   41.3303   64.9435 N   0  0  0  0  0  0  0  0  0  0  0  0
   29.3231   37.9092   64.4179 O   0  0  0  0  0  0  0  0  0  0  0  0
   25.3763   39.4691   65.0171 S   0  0  0  0  0  0  0  0  0  0  0  0
   24.1404   40.5923   64.8342 C   0  0  0  0  0  0  0  0  0  0  0  0
   18.4066   40.0001   64.5847 C   0  0  0  0  0  0  0  0  0  0  0  0
   28.9828   35.9728   65.9523 O   0  5  0  0  0  0  0  0  0  0  0  0
   23.2989   40.7092   65.8836 N   0  0  0  0  0  0  0  0  0  0  0  0
   19.4328   39.1974   64.6775 N   0  0  0  0  0  0  0  0  0  0  0  0
   29.8331   38.1571   66.8021 O   0  0  0  0  0  0  0  0  0  0  0  0
   23.6832   39.8310   66.8985 C   0  0  2  0  0  0  0  0  0  0  0  0
   20.6518   39.6776   65.1447 C   0  0  0  0  0  0  0  0  0  0  0  0
   21.6802   38.8412   65.2500 N   0  0  0  0  0  0  0  0  0  0  0  0
   24.7897   39.0677   66.6097 C   0  0  1  0  0  0  0  0  0  0  0  0
   20.7710   41.0815   65.5026 C   0  0  0  0  0  0  0  0  0  0  0  0
   25.4355   38.0356   67.4624 C   0  0  0  0  0  0  0  0  0  0  0  0
   19.6155   41.8299   65.4022 C   0  0  0  0  0  0  0  0  0  0  0  0
   26.9133   38.1002   67.3616 C   0  0  0  0  0  0  0  0  0  0  0  0
   22.1044   41.6834   65.9028 C   0  0  0  0  0  0  0  0  0  0  0  0
   27.4867   37.8347   66.0809 O   0  0  0  0  0  0  0  0  0  0  0  0
  1  8  1  0  0  0  0
  3  5  1  6  0  0  0
  3  9  1  0  0  0  0
  3 12  2  0  0  0  0
  3 22  1  0  0  0  0
  4  8  2  0  0  0  0
  4 19  1  0  0  0  0
  6 16  1  0  0  0  0
  6  7  1  0  0  0  0
  7 10  1  0  0  0  0
  8 11  1  0  0  0  0
 10 13  1  0  0  0  0
 10 21  1  0  0  0  0
 11 14  2  0  0  0  0
 13  2  1  6  0  0  0
 13 16  1  0  0  0  0
 14 15  1  0  0  0  0
 14 17  1  0  0  0  0
 16 18  1  6  0  0  0
 17 19  2  0  0  0  0
 17 21  1  0  0  0  0
 18 20  1  0  0  0  0
 20 22  1  0  0  0  0
M  CHG  1   9  -1
M  END
>  <CHROM.1>
95.66660015,39.85601807,0.65246138,-63.09233972,-161.84547985,-152.27028407
24.15090871,39.19516863,65.73651762,3.02312852,-0.28590190,0.84096623

>  <Name>
ligand

>  <RI>
0

>  <Rbt.Current_Directory>
/home/itssahil/PROJECTS/Mol_Feturizer/New_Systems/rnas/2HOM

>  <Rbt.Executable>
rbdock ($Id: //depot/dev/client3/rdock/2013.1/src/exe/rbdock.cxx#4 $)

>  <Rbt.Library>
libRbt.so (2013.1, Build901 2013/11/27)

>  <Rbt.Parameter_File>
/export/apps/rDock/src/rDock_2013.1_src/data/scripts/dock_solv.prm

>  <Rbt.Receptor>
prm/pocket_docking_4.prm

>  <SCORE>
-19.8083

>  <SCORE.INTER>
-24.5049

>  <SCORE.INTER.CONST>
1

>  <SCORE.INTER.POLAR>
-1.63459

>  <SCORE.INTER.ROT>
6

>  <SCORE.INTER.SOLV>
12.7981

>  <SCORE.INTER.VDW>
-22.754

>  <SCORE.INTER.norm>
-1.11386

>  <SCORE.INTRA>
4.69661

>  <SCORE.INTRA.DIHEDRAL>
2.50007

>  <SCORE.INTRA.DIHEDRAL.0>
5.05013

>  <SCORE.INTRA.POLAR>
0

>  <SCORE.INTRA.POLAR.0>
0

>  <SCORE.INTRA.REPUL>
0

>  <SCORE.INTRA.REPUL.0>
0

>  <SCORE.INTRA.SOLV>
5.67651

>  <SCORE.INTRA.SOLV.lig_0>
-54.1265

>  <SCORE.INTRA.VDW>
0.608321

>  <SCORE.INTRA.VDW.0>
-2.1303

>  <SCORE.INTRA.norm>
0.213482

>  <SCORE.RESTR>
0

>  <SCORE.RESTR.CAVITY>
0

>  <SCORE.RESTR.norm>
0

>  <SCORE.SYSTEM>
0

>  <SCORE.SYSTEM.CONST>
0

>  <SCORE.SYSTEM.DIHEDRAL>
0

>  <SCORE.SYSTEM.SOLV>
0

>  <SCORE.SYSTEM.norm>
0

>  <SCORE.heavy>
22

>  <SCORE.norm>
-0.900378

>  <RMSD>
2.515

$$$$
ligand
 OpenBabel11021811443D
libRbt.so/2013.1/901 2013/11/27
 22 23  0  0  0  0  0  0  0  0999 V2000
   17.2895   39.7685   64.0142 C   0  0  0  0  0  0  0  0  0  0  0  0
   24.6345   40.7863   64.7669 C   0  0  0  0  0  0  0  0  0  0  0  0
   27.6526   37.4353   69.2101 P   0  0  1  0  0  0  0  0  0  0  0  0
   18.5800   41.4923   65.0565 N   0  0  0  0  0  0  0  0  0  0  0  0
   28.9828   36.9071   68.8128 O   0  0  0  0  0  0  0  0  0  0  0  0
   24.2925   38.8783   68.2953 S   0  0  0  0  0  0  0  0  0  0  0  0
   23.0769   39.9948   67.9816 C   0  0  0  0  0  0  0  0  0  0  0  0
   18.5487   40.1815   64.6321 C   0  0  0  0  0  0  0  0  0  0  0  0
   26.5058   36.6379   68.7039 O   0  5  0  0  0  0  0  0  0  0  0  0
   23.1729   40.6451   66.8022 N   0  0  0  0  0  0  0  0  0  0  0  0
   19.5455   39.3493   64.7724 N   0  0  0  0  0  0  0  0  0  0  0  0
   27.6039   37.6739   70.6881 O   0  0  0  0  0  0  0  0  0  0  0  0
   24.3047   40.2081   66.1116 C   0  0  2  0  0  0  0  0  0  0  0  0
   20.7301   39.7758   65.3638 C   0  0  0  0  0  0  0  0  0  0  0  0
   21.7273   38.9092   65.5151 N   0  0  0  0  0  0  0  0  0  0  0  0
   25.0442   39.2518   66.7666 C   0  0  1  0  0  0  0  0  0  0  0  0
   20.8485   41.1579   65.7982 C   0  0  0  0  0  0  0  0  0  0  0  0
   26.3013   38.6005   66.3142 C   0  0  0  0  0  0  0  0  0  0  0  0
   19.7223   41.9397   65.6368 C   0  0  0  0  0  0  0  0  0  0  0  0
   27.4672   39.0759   67.0971 C   0  0  0  0  0  0  0  0  0  0  0  0
   22.1554   41.7061   66.3386 C   0  0  0  0  0  0  0  0  0  0  0  0
   27.4469   38.8278   68.5033 O   0  0  0  0  0  0  0  0  0  0  0  0
  1  8  1  0  0  0  0
  3  5  1  6  0  0  0
  3  9  1  0  0  0  0
  3 12  2  0  0  0  0
  3 22  1  0  0  0  0
  4  8  2  0  0  0  0
  4 19  1  0  0  0  0
  6 16  1  0  0  0  0
  6  7  1  0  0  0  0
  7 10  1  0  0  0  0
  8 11  1  0  0  0  0
 10 13  1  0  0  0  0
 10 21  1  0  0  0  0
 11 14  2  0  0  0  0
 13  2  1  1  0  0  0
 13 16  1  0  0  0  0
 14 15  1  0  0  0  0
 14 17  1  0  0  0  0
 16 18  1  1  0  0  0
 17 19  2  0  0  0  0
 17 21  1  0  0  0  0
 18 20  1  0  0  0  0
 20 22  1  0  0  0  0
M  CHG  1   9  -1
M  END
>  <CHROM.1>
-77.95556236,-71.37553631,-18.30596145,61.16344317,72.74768960,58.54194951
23.84741788,39.29474227,66.97268816,2.62619192,-0.14293375,-0.69455370

>  <Name>
ligand

>  <RI>
0

>  <Rbt.Current_Directory>
/home/itssahil/PROJECTS/Mol_Feturizer/New_Systems/rnas/2HOM

>  <Rbt.Executable>
rbdock ($Id: //depot/dev/client3/rdock/2013.1/src/exe/rbdock.cxx#4 $)

>  <Rbt.Library>
libRbt.so (2013.1, Build901 2013/11/27)

>  <Rbt.Parameter_File>
/export/apps/rDock/src/rDock_2013.1_src/data/scripts/dock_solv.prm

>  <Rbt.Receptor>
prm/pocket_docking_6.prm

>  <SCORE>
-20.3216

>  <SCORE.INTER>
-22.754

>  <SCORE.INTER.CONST>
1

>  <SCORE.INTER.POLAR>
-1.30767

>  <SCORE.INTER.ROT>
6

>  <SCORE.INTER.SOLV>
11.1294

>  <SCORE.INTER.VDW>
-22.1202

>  <SCORE.INTER.norm>
-1.03427

>  <SCORE.INTRA>
2.43239

>  <SCORE.INTRA.DIHEDRAL>
0.736143

>  <SCORE.INTRA.DIHEDRAL.0>
5.05013

>  <SCORE.INTRA.POLAR>
0

>  <SCORE.INTRA.POLAR.0>
0

>  <SCORE.INTRA.REPUL>
0

>  <SCORE.INTRA.REPUL.0>
0

>  <SCORE.INTRA.SOLV>
6.0744

>  <SCORE.INTRA.SOLV.lig_0>
-54.1265

>  <SCORE.INTRA.VDW>
-0.972877

>  <SCORE.INTRA.VDW.0>
-2.1303

>  <SCORE.INTRA.norm>
0.110563

>  <SCORE.RESTR>
0

>  <SCORE.RESTR.CAVITY>
0

>  <SCORE.RESTR.norm>
0

>  <SCORE.SYSTEM>
0

>  <SCORE.SYSTEM.CONST>
0

>  <SCORE.SYSTEM.DIHEDRAL>
0

>  <SCORE.SYSTEM.SOLV>
0

>  <SCORE.SYSTEM.norm>
0

>  <SCORE.heavy>
22

>  <SCORE.norm>
-0.923708

>  <RMSD>
2.520

$$$$
ligand
 OpenBabel11021811443D
libRbt.so/2013.1/901 2013/11/27
 22 23  0  0  0  0  0  0  0  0999 V2000
   17.8508   40.2306   64.6758 C   0  0  0  0  0  0  0  0  0  0  0  0
   26.2467   40.4039   65.4488 C   0  0  0  0  0  0  0  0  0  0  0  0
   28.8700   35.6984   68.9740 P   0  0  1  0  0  0  0  0  0  0  0  0
   20.0987   39.4876   65.0193 N   0  0  0  0  0  0  0  0  0  0  0  0
   29.8975   34.9608   68.1952 O   0  0  0  0  0  0  0  0  0  0  0  0
   24.4245   37.8841   68.0055 S   0  0  0  0  0  0  0  0  0  0  0  0
   23.4621   39.1503   67.4641 C   0  0  0  0  0  0  0  0  0  0  0  0
   19.2409   40.5655   64.9817 C   0  0  0  0  0  0  0  0  0  0  0  0
   27.4706   35.3364   68.6303 O   0  5  0  0  0  0  0  0  0  0  0  0
   24.0546   40.0065   66.6045 N   0  0  0  0  0  0  0  0  0  0  0  0
   19.6170   41.7998   65.1845 N   0  0  0  0  0  0  0  0  0  0  0  0
   29.1627   35.6125   70.4405 O   0  0  0  0  0  0  0  0  0  0  0  0
   25.3723   39.6079   66.3723 C   0  0  2  0  0  0  0  0  0  0  0  0
   20.9476   42.0830   65.4745 C   0  0  0  0  0  0  0  0  0  0  0  0
   21.3154   43.3475   65.6595 N   0  0  0  0  0  0  0  0  0  0  0  0
   25.7586   38.4764   67.0512 C   0  0  1  0  0  0  0  0  0  0  0  0
   21.9007   40.9897   65.5710 C   0  0  0  0  0  0  0  0  0  0  0  0
   27.0871   37.8101   67.0349 C   0  0  0  0  0  0  0  0  0  0  0  0
   21.4039   39.7305   65.3010 C   0  0  0  0  0  0  0  0  0  0  0  0
   27.8393   38.0760   68.2846 C   0  0  0  0  0  0  0  0  0  0  0  0
   23.3354   41.2292   66.0013 C   0  0  0  0  0  0  0  0  0  0  0  0
   28.9454   37.2186   68.5690 O   0  0  0  0  0  0  0  0  0  0  0  0
  1  8  1  0  0  0  0
  3  5  1  6  0  0  0
  3  9  1  0  0  0  0
  3 12  2  0  0  0  0
  3 22  1  0  0  0  0
  4  8  2  0  0  0  0
  4 19  1  0  0  0  0
  6 16  1  0  0  0  0
  6  7  1  0  0  0  0
  7 10  1  0  0  0  0
  8 11  1  0  0  0  0
 10 13  1  0  0  0  0
 10 21  1  0  0  0  0
 11 14  2  0  0  0  0
 13  2  1  1  0  0  0
 13 16  1  0  0  0  0
 14 15  1  0  0  0  0
 14 17  1  0  0  0  0
 16 18  1  1  0  0  0
 17 19  2  0  0  0  0
 17 21  1  0  0  0  0
 18 20  1  0  0  0  0
 20 22  1  0  0  0  0
M  CHG  1   9  -1
M  END
>  <CHROM.1>
-41.31113712,-74.65522369,156.15621187,163.07392275,-69.64269016,135.41823424
24.68754559,38.73357491,67.01768810,2.53076119,-0.17923768,-0.36442970

>  <Name>
ligand

>  <RI>
0

>  <Rbt.Current_Directory>
/home/itssahil/PROJECTS/Mol_Feturizer/New_Systems/rnas/2HOM

>  <Rbt.Executable>
rbdock ($Id: //depot/dev/client3/rdock/2013.1/src/exe/rbdock.cxx#4 $)

>  <Rbt.Library>
libRbt.so (2013.1, Build901 2013/11/27)

>  <Rbt.Parameter_File>
/export/apps/rDock/src/rDock_2013.1_src/data/scripts/dock_solv.prm

>  <Rbt.Receptor>
prm/pocket_docking_7.prm

>  <SCORE>
-17.565

>  <SCORE.INTER>
-20.9183

>  <SCORE.INTER.CONST>
1

>  <SCORE.INTER.POLAR>
-1.54449

>  <SCORE.INTER.ROT>
6

>  <SCORE.INTER.SOLV>
17.124

>  <SCORE.INTER.VDW>
-22.1053

>  <SCORE.INTER.norm>
-0.950834

>  <SCORE.INTRA>
3.3533

>  <SCORE.INTRA.DIHEDRAL>
3.62887

>  <SCORE.INTRA.DIHEDRAL.0>
5.05013

>  <SCORE.INTRA.POLAR>
0

>  <SCORE.INTRA.POLAR.0>
0

>  <SCORE.INTRA.REPUL>
0

>  <SCORE.INTRA.REPUL.0>
0

>  <SCORE.INTRA.SOLV>
1.47406

>  <SCORE.INTRA.SOLV.lig_0>
-54.1265

>  <SCORE.INTRA.VDW>
0.80184

>  <SCORE.INTRA.VDW.0>
-2.1303

>  <SCORE.INTRA.norm>
0.152423

>  <SCORE.RESTR>
0

>  <SCORE.RESTR.CAVITY>
0

>  <SCORE.RESTR.norm>
0

>  <SCORE.SYSTEM>
0

>  <SCORE.SYSTEM.CONST>
0

>  <SCORE.SYSTEM.DIHEDRAL>
0

>  <SCORE.SYSTEM.SOLV>
0

>  <SCORE.SYSTEM.norm>
0

>  <SCORE.heavy>
22

>  <SCORE.norm>
-0.798411

>  <RMSD>
2.523

$$$$
ligand
 OpenBabel11021811443D
libRbt.so/2013.1/901 2013/11/27
 22 23  0  0  0  0  0  0  0  0999 V2000
   20.5184   44.2673   65.7911 C   0  0  0  0  0  0  0  0  0  0  0  0
   24.3996   37.6462   65.0947 C   0  0  0  0  0  0  0  0  0  0  0  0
   29.3331   39.9829   67.5077 P   0  0  1  0  0  0  0  0  0  0  0  0
   21.9138   42.6410   66.8546 N   0  0  0  0  0  0  0  0  0  0  0  0
   30.0053   41.3023   67.3909 O   0  0  0  0  0  0  0  0  0  0  0  0
   25.6234   38.8481   68.7367 S   0  0  0  0  0  0  0  0  0  0  0  0
   23.9902   39.0947   68.4295 C   0  0  0  0  0  0  0  0  0  0  0  0
   20.8390   42.8592   66.0200 C   0  0  0  0  0  0  0  0  0  0  0  0
   30.2193   38.8226   67.2331 O   0  5  0  0  0  0  0  0  0  0  0  0
   23.5593   38.6972   67.2132 N   0  0  0  0  0  0  0  0  0  0  0  0
   20.1366   41.9018   65.4760 N   0  0  0  0  0  0  0  0  0  0  0  0
   28.6062   39.8793   68.8133 O   0  0  0  0  0  0  0  0  0  0  0  0
   24.6233   38.1591   66.4869 C   0  0  2  0  0  0  0  0  0  0  0  0
   20.4700   40.5725   65.7140 C   0  0  0  0  0  0  0  0  0  0  0  0
   19.7319   39.6114   65.1665 N   0  0  0  0  0  0  0  0  0  0  0  0
   25.8290   38.1598   67.1476 C   0  0  1  0  0  0  0  0  0  0  0  0
   21.6182   40.2684   66.5521 C   0  0  0  0  0  0  0  0  0  0  0  0
   27.1441   37.6788   66.6493 C   0  0  0  0  0  0  0  0  0  0  0  0
   22.2655   41.3545   67.1060 C   0  0  0  0  0  0  0  0  0  0  0  0
   27.7800   38.6762   65.7554 C   0  0  0  0  0  0  0  0  0  0  0  0
   22.0973   38.8426   66.7470 C   0  0  0  0  0  0  0  0  0  0  0  0
   28.2572   39.8776   66.3622 O   0  0  0  0  0  0  0  0  0  0  0  0
  1  8  1  0  0  0  0
  3  5  1  6  0  0  0
  3  9  1  0  0  0  0
  3 12  2  0  0  0  0
  3 22  1  0  0  0  0
  4  8  2  0  0  0  0
  4 19  1  0  0  0  0
  6 16  1  0  0  0  0
  6  7  1  0  0  0  0
  7 10  1  0  0  0  0
  8 11  1  0  0  0  0
 10 13  1  0  0  0  0
 10 21  1  0  0  0  0
 11 14  2  0  0  0  0
 13  2  1  6  0  0  0
 13 16  1  0  0  0  0
 14 15  1  0  0  0  0
 14 17  1  0  0  0  0
 16 18  1  6  0  0  0
 17 19  2  0  0  0  0
 17 21  1  0  0  0  0
 18 20  1  0  0  0  0
 20 22  1  0  0  0  0
M  CHG  1   9  -1
M  END
>  <CHROM.1>
67.14234099,-100.17990142,159.02774766,70.00658903,59.00191563,152.81385748
24.96960021,39.90457052,66.89044515,-2.90891431,0.17371263,-3.12429207

>  <Name>
ligand

>  <RI>
0

>  <Rbt.Current_Directory>
/home/itssahil/PROJECTS/Mol_Feturizer/New_Systems/rnas/2HOM

>  <Rbt.Executable>
rbdock ($Id: //depot/dev/client3/rdock/2013.1/src/exe/rbdock.cxx#4 $)

>  <Rbt.Library>
libRbt.so (2013.1, Build901 2013/11/27)

>  <Rbt.Parameter_File>
/export/apps/rDock/src/rDock_2013.1_src/data/scripts/dock_solv.prm

>  <Rbt.Receptor>
prm/pocket_docking_3.prm

>  <SCORE>
-17.8419

>  <SCORE.INTER>
-19.2572

>  <SCORE.INTER.CONST>
1

>  <SCORE.INTER.POLAR>
-2.57639

>  <SCORE.INTER.ROT>
6

>  <SCORE.INTER.SOLV>
18.9831

>  <SCORE.INTER.VDW>
-18.1779

>  <SCORE.INTER.norm>
-0.875326

>  <SCORE.INTRA>
1.41527

>  <SCORE.INTRA.DIHEDRAL>
1.16582

>  <SCORE.INTRA.DIHEDRAL.0>
5.05013

>  <SCORE.INTRA.POLAR>
0

>  <SCORE.INTRA.POLAR.0>
0

>  <SCORE.INTRA.REPUL>
0

>  <SCORE.INTRA.REPUL.0>
0

>  <SCORE.INTRA.SOLV>
2.40502

>  <SCORE.INTRA.SOLV.lig_0>
-54.1265

>  <SCORE.INTRA.VDW>
-0.370153

>  <SCORE.INTRA.VDW.0>
-2.1303

>  <SCORE.INTRA.norm>
0.0643302

>  <SCORE.RESTR>
0

>  <SCORE.RESTR.CAVITY>
0

>  <SCORE.RESTR.norm>
0

>  <SCORE.SYSTEM>
0

>  <SCORE.SYSTEM.CONST>
0

>  <SCORE.SYSTEM.DIHEDRAL>
0

>  <SCORE.SYSTEM.SOLV>
0

>  <SCORE.SYSTEM.norm>
0

>  <SCORE.heavy>
22

>  <SCORE.norm>
-0.810996

>  <RMSD>
2.544

$$$$
ligand
 OpenBabel11021811443D
libRbt.so/2013.1/901 2013/11/27
 22 23  0  0  0  0  0  0  0  0999 V2000
   18.0858   40.4133   64.5505 C   0  0  0  0  0  0  0  0  0  0  0  0
   24.1758   38.6364   65.8033 C   0  0  0  0  0  0  0  0  0  0  0  0
   29.4152   36.6157   64.9948 P   0  0  1  0  0  0  0  0  0  0  0  0
   19.7035   39.3741   65.9740 N   0  0  0  0  0  0  0  0  0  0  0  0
   28.5111   35.4493   64.8268 O   0  0  0  0  0  0  0  0  0  0  0  0
   26.3802   41.9609   66.3461 S   0  0  0  0  0  0  0  0  0  0  0  0
   24.9409   41.9253   67.2119 C   0  0  0  0  0  0  0  0  0  0  0  0
   19.3270   40.5246   65.3152 C   0  0  0  0  0  0  0  0  0  0  0  0
   29.7912   36.8954   66.4047 O   0  5  0  0  0  0  0  0  0  0  0  0
   24.1871   40.8177   67.0444 N   0  0  0  0  0  0  0  0  0  0  0  0
   20.0144   41.6349   65.3432 N   0  0  0  0  0  0  0  0  0  0  0  0
   30.5936   36.5015   64.0772 O   0  0  0  0  0  0  0  0  0  0  0  0
   24.8194   39.9447   66.1572 C   0  0  2  0  0  0  0  0  0  0  0  0
   21.1908   41.7066   66.0821 C   0  0  0  0  0  0  0  0  0  0  0  0
   21.8868   42.8396   66.0835 N   0  0  0  0  0  0  0  0  0  0  0  0
   26.0221   40.3952   65.6665 C   0  0  1  0  0  0  0  0  0  0  0  0
   21.6269   40.5427   66.8359 C   0  0  0  0  0  0  0  0  0  0  0  0
   26.9253   39.7185   64.6993 C   0  0  0  0  0  0  0  0  0  0  0  0
   20.8463   39.4118   66.7050 C   0  0  0  0  0  0  0  0  0  0  0  0
   27.5273   38.4975   65.2867 C   0  0  0  0  0  0  0  0  0  0  0  0
   22.8345   40.6028   67.7517 C   0  0  0  0  0  0  0  0  0  0  0  0
   28.6235   37.9133   64.5821 O   0  0  0  0  0  0  0  0  0  0  0  0
  1  8  1  0  0  0  0
  3  5  1  6  0  0  0
  3  9  1  0  0  0  0
  3 12  2  0  0  0  0
  3 22  1  0  0  0  0
  4  8  2  0  0  0  0
  4 19  1  0  0  0  0
  6 16  1  0  0  0  0
  6  7  1  0  0  0  0
  7 10  1  0  0  0  0
  8 11  1  0  0  0  0
 10 13  1  0  0  0  0
 10 21  1  0  0  0  0
 11 14  2  0  0  0  0
 13  2  1  6  0  0  0
 13 16  1  0  0  0  0
 14 15  1  0  0  0  0
 14 17  1  0  0  0  0
 16 18  1  6  0  0  0
 17 19  2  0  0  0  0
 17 21  1  0  0  0  0
 18 20  1  0  0  0  0
 20 22  1  0  0  0  0
M  CHG  1   9  -1
M  END
>  <CHROM.1>
114.85797352,112.93479672,-66.44874821,-166.94529953,-179.38431391,68.92662518
24.95030899,39.51120698,65.75160945,2.71999440,-0.04695206,0.33467236

>  <Name>
ligand

>  <RI>
0

>  <Rbt.Current_Directory>
/home/itssahil/PROJECTS/Mol_Feturizer/New_Systems/rnas/2HOM

>  <Rbt.Executable>
rbdock ($Id: //depot/dev/client3/rdock/2013.1/src/exe/rbdock.cxx#4 $)

>  <Rbt.Library>
libRbt.so (2013.1, Build901 2013/11/27)

>  <Rbt.Parameter_File>
/export/apps/rDock/src/rDock_2013.1_src/data/scripts/dock_solv.prm

>  <Rbt.Receptor>
prm/pocket_docking_6.prm

>  <SCORE>
-21.538

>  <SCORE.INTER>
-22.3233

>  <SCORE.INTER.CONST>
1

>  <SCORE.INTER.POLAR>
-1.62074

>  <SCORE.INTER.ROT>
6

>  <SCORE.INTER.SOLV>
12.6335

>  <SCORE.INTER.VDW>
-21.2909

>  <SCORE.INTER.norm>
-1.01469

>  <SCORE.INTRA>
0.785287

>  <SCORE.INTRA.DIHEDRAL>
0.306681

>  <SCORE.INTRA.DIHEDRAL.0>
5.05013

>  <SCORE.INTRA.POLAR>
0

>  <SCORE.INTRA.POLAR.0>
0

>  <SCORE.INTRA.REPUL>
0

>  <SCORE.INTRA.REPUL.0>
0

>  <SCORE.INTRA.SOLV>
1.2899

>  <SCORE.INTRA.SOLV.lig_0>
-54.1265

>  <SCORE.INTRA.VDW>
-0.0130027

>  <SCORE.INTRA.VDW.0>
-2.1303

>  <SCORE.INTRA.norm>
0.0356949

>  <SCORE.RESTR>
0

>  <SCORE.RESTR.CAVITY>
0

>  <SCORE.RESTR.norm>
0

>  <SCORE.SYSTEM>
0

>  <SCORE.SYSTEM.CONST>
0

>  <SCORE.SYSTEM.DIHEDRAL>
0

>  <SCORE.SYSTEM.SOLV>
0

>  <SCORE.SYSTEM.norm>
0

>  <SCORE.heavy>
22

>  <SCORE.norm>
-0.979

>  <RMSD>
2.544

$$$$
ligand
 OpenBabel11021811443D
libRbt.so/2013.1/901 2013/11/27
 22 23  0  0  0  0  0  0  0  0999 V2000
   17.3767   39.8552   63.8709 C   0  0  0  0  0  0  0  0  0  0  0  0
   23.8519   39.5328   67.9002 C   0  0  0  0  0  0  0  0  0  0  0  0
   29.2552   37.3633   65.3436 P   0  0  1  0  0  0  0  0  0  0  0  0
   18.6747   41.5837   64.8959 N   0  0  0  0  0  0  0  0  0  0  0  0
   29.5387   38.6596   64.6760 O   0  0  0  0  0  0  0  0  0  0  0  0
   25.3321   40.7506   64.3601 S   0  0  0  0  0  0  0  0  0  0  0  0
   23.8998   41.5010   64.8162 C   0  0  0  0  0  0  0  0  0  0  0  0
   18.5848   40.2410   64.5986 C   0  0  0  0  0  0  0  0  0  0  0  0
   29.9577   36.2019   64.7396 O   0  5  0  0  0  0  0  0  0  0  0  0
   23.3873   41.1071   66.0016 N   0  0  0  0  0  0  0  0  0  0  0  0
   19.4859   39.3599   64.9414 N   0  0  0  0  0  0  0  0  0  0  0  0
   29.4624   37.4795   66.8225 O   0  0  0  0  0  0  0  0  0  0  0  0
   24.2103   40.1352   66.5736 C   0  0  2  0  0  0  0  0  0  0  0  0
   20.6244   39.7615   65.6324 C   0  0  0  0  0  0  0  0  0  0  0  0
   21.5218   38.8474   65.9892 N   0  0  0  0  0  0  0  0  0  0  0  0
   25.3156   39.8053   65.8255 C   0  0  1  0  0  0  0  0  0  0  0  0
   20.8053   41.1699   65.9435 C   0  0  0  0  0  0  0  0  0  0  0  0
   26.3678   38.8044   66.1425 C   0  0  0  0  0  0  0  0  0  0  0  0
   19.7745   42.0079   65.5685 C   0  0  0  0  0  0  0  0  0  0  0  0
   26.6637   37.9437   64.9721 C   0  0  0  0  0  0  0  0  0  0  0  0
   22.0810   41.6783   66.5876 C   0  0  0  0  0  0  0  0  0  0  0  0
   27.7378   37.0125   65.1088 O   0  0  0  0  0  0  0  0  0  0  0  0
  1  8  1  0  0  0  0
  3  5  1  6  0  0  0
  3  9  1  0  0  0  0
  3 12  2  0  0  0  0
  3 22  1  0  0  0  0
  4  8  2  0  0  0  0
  4 19  1  0  0  0  0
  6 16  1  0  0  0  0
  6  7  1  0  0  0  0
  7 10  1  0  0  0  0
  8 11  1  0  0  0  0
 10 13  1  0  0  0  0
 10 21  1  0  0  0  0
 11 14  2  0  0  0  0
 13  2  1  6  0  0  0
 13 16  1  0  0  0  0
 14 15  1  0  0  0  0
 14 17  1  0  0  0  0
 16 18  1  6  0  0  0
 17 19  2  0  0  0  0
 17 21  1  0  0  0  0
 18 20  1  0  0  0  0
 20 22  1  0  0  0  0
M  CHG  1   9  -1
M  END
>  <CHROM.1>
75.49324819,-45.95036645,43.82027040,174.86485078,-63.18190528,-31.32714213
24.35302674,39.43667307,65.44021739,2.84117498,-0.10856281,0.27550359

>  <Name>
ligand

>  <RI>
0

>  <Rbt.Current_Directory>
/home/itssahil/PROJECTS/Mol_Feturizer/New_Systems/rnas/2HOM

>  <Rbt.Executable>
rbdock ($Id: //depot/dev/client3/rdock/2013.1/src/exe/rbdock.cxx#4 $)

>  <Rbt.Library>
libRbt.so (2013.1, Build901 2013/11/27)

>  <Rbt.Parameter_File>
/export/apps/rDock/src/rDock_2013.1_src/data/scripts/dock_solv.prm

>  <Rbt.Receptor>
prm/pocket_docking_6.prm

>  <SCORE>
-22.6418

>  <SCORE.INTER>
-25.6029

>  <SCORE.INTER.CONST>
1

>  <SCORE.INTER.POLAR>
-1.63428

>  <SCORE.INTER.ROT>
6

>  <SCORE.INTER.SOLV>
11.842

>  <SCORE.INTER.VDW>
-23.1684

>  <SCORE.INTER.norm>
-1.16377

>  <SCORE.INTRA>
2.96116

>  <SCORE.INTRA.DIHEDRAL>
1.36079

>  <SCORE.INTRA.DIHEDRAL.0>
5.05013

>  <SCORE.INTRA.POLAR>
0

>  <SCORE.INTRA.POLAR.0>
0

>  <SCORE.INTRA.REPUL>
0

>  <SCORE.INTRA.REPUL.0>
0

>  <SCORE.INTRA.SOLV>
4.35834

>  <SCORE.INTRA.SOLV.lig_0>
-54.1265

>  <SCORE.INTRA.VDW>
0.101596

>  <SCORE.INTRA.VDW.0>
-2.1303

>  <SCORE.INTRA.norm>
0.134598

>  <SCORE.RESTR>
0

>  <SCORE.RESTR.CAVITY>
0

>  <SCORE.RESTR.norm>
0

>  <SCORE.SYSTEM>
0

>  <SCORE.SYSTEM.CONST>
0

>  <SCORE.SYSTEM.DIHEDRAL>
0

>  <SCORE.SYSTEM.SOLV>
0

>  <SCORE.SYSTEM.norm>
0

>  <SCORE.heavy>
22

>  <SCORE.norm>
-1.02917

>  <RMSD>
2.552

$$$$
ligand
 OpenBabel11021811443D
libRbt.so/2013.1/901 2013/11/27
 22 23  0  0  0  0  0  0  0  0999 V2000
   17.6846   40.2626   64.5858 C   0  0  0  0  0  0  0  0  0  0  0  0
   23.5149   37.8179   66.5108 C   0  0  0  0  0  0  0  0  0  0  0  0
   30.0470   36.4961   64.8125 P   0  0  1  0  0  0  0  0  0  0  0  0
   19.4334   39.3321   65.9272 N   0  0  0  0  0  0  0  0  0  0  0  0
   30.4626   35.3709   63.9364 O   0  0  0  0  0  0  0  0  0  0  0  0
   26.2404   40.5259   65.3086 S   0  0  0  0  0  0  0  0  0  0  0  0
   24.9210   41.1734   66.1226 C   0  0  0  0  0  0  0  0  0  0  0  0
   18.9928   40.4283   65.2177 C   0  0  0  0  0  0  0  0  0  0  0  0
   30.2080   36.2274   66.2648 O   0  5  0  0  0  0  0  0  0  0  0  0
   23.9955   40.2811   66.5352 N   0  0  0  0  0  0  0  0  0  0  0  0
   19.6767   41.5339   65.0916 N   0  0  0  0  0  0  0  0  0  0  0  0
   30.6944   37.7719   64.3690 O   0  0  0  0  0  0  0  0  0  0  0  0
   24.3837   38.9918   66.1665 C   0  0  2  0  0  0  0  0  0  0  0  0
   20.9178   41.6585   65.7072 C   0  0  0  0  0  0  0  0  0  0  0  0
   21.6078   42.7846   65.5521 N   0  0  0  0  0  0  0  0  0  0  0  0
   25.5761   38.9232   65.4854 C   0  0  1  0  0  0  0  0  0  0  0  0
   21.4270   40.5561   66.5064 C   0  0  0  0  0  0  0  0  0  0  0  0
   26.2506   37.7145   64.9439 C   0  0  0  0  0  0  0  0  0  0  0  0
   20.6405   39.4222   66.5408 C   0  0  0  0  0  0  0  0  0  0  0  0
   27.7062   37.7375   65.2249 C   0  0  0  0  0  0  0  0  0  0  0  0
   22.7161   40.6830   67.2953 C   0  0  0  0  0  0  0  0  0  0  0  0
   28.4902   36.6839   64.6641 O   0  0  0  0  0  0  0  0  0  0  0  0
  1  8  1  0  0  0  0
  3  5  1  6  0  0  0
  3  9  1  0  0  0  0
  3 12  2  0  0  0  0
  3 22  1  0  0  0  0
  4  8  2  0  0  0  0
  4 19  1  0  0  0  0
  6 16  1  0  0  0  0
  6  7  1  0  0  0  0
  7 10  1  0  0  0  0
  8 11  1  0  0  0  0
 10 13  1  0  0  0  0
 10 21  1  0  0  0  0
 11 14  2  0  0  0  0
 13  2  1  6  0  0  0
 13 16  1  0  0  0  0
 14 15  1  0  0  0  0
 14 17  1  0  0  0  0
 16 18  1  6  0  0  0
 17 19  2  0  0  0  0
 17 21  1  0  0  0  0
 18 20  1  0  0  0  0
 20 22  1  0  0  0  0
M  CHG  1   9  -1
M  END
>  <CHROM.1>
108.89876394,44.03840257,-89.63377394,-175.13787208,179.62111510,-173.17499471
24.92018023,39.03045968,65.49345524,2.74056515,0.02750829,0.14332634

>  <Name>
ligand

>  <RI>
0

>  <Rbt.Current_Directory>
/home/itssahil/PROJECTS/Mol_Feturizer/New_Systems/rnas/2HOM

>  <Rbt.Executable>
rbdock ($Id: //depot/dev/client3/rdock/2013.1/src/exe/rbdock.cxx#4 $)

>  <Rbt.Library>
libRbt.so (2013.1, Build901 2013/11/27)

>  <Rbt.Parameter_File>
/export/apps/rDock/src/rDock_2013.1_src/data/scripts/dock_solv.prm

>  <Rbt.Receptor>
prm/pocket_docking_5.prm

>  <SCORE>
-23.1669

>  <SCORE.INTER>
-24.4048

>  <SCORE.INTER.CONST>
1

>  <SCORE.INTER.POLAR>
-1.62879

>  <SCORE.INTER.ROT>
6

>  <SCORE.INTER.SOLV>
15.3264

>  <SCORE.INTER.VDW>
-23.5494

>  <SCORE.INTER.norm>
-1.10931

>  <SCORE.INTRA>
1.23787

>  <SCORE.INTRA.DIHEDRAL>
0.253632

>  <SCORE.INTRA.DIHEDRAL.0>
5.05013

>  <SCORE.INTRA.POLAR>
0

>  <SCORE.INTRA.POLAR.0>
0

>  <SCORE.INTRA.REPUL>
0

>  <SCORE.INTRA.REPUL.0>
0

>  <SCORE.INTRA.SOLV>
1.14959

>  <SCORE.INTRA.SOLV.lig_0>
-54.1265

>  <SCORE.INTRA.VDW>
0.536261

>  <SCORE.INTRA.VDW.0>
-2.1303

>  <SCORE.INTRA.norm>
0.0562668

>  <SCORE.RESTR>
0

>  <SCORE.RESTR.CAVITY>
0

>  <SCORE.RESTR.norm>
0

>  <SCORE.SYSTEM>
0

>  <SCORE.SYSTEM.CONST>
0

>  <SCORE.SYSTEM.DIHEDRAL>
0

>  <SCORE.SYSTEM.SOLV>
0

>  <SCORE.SYSTEM.norm>
0

>  <SCORE.heavy>
22

>  <SCORE.norm>
-1.05304

>  <RMSD>
2.553

$$$$
ligand
 OpenBabel11021811443D
libRbt.so/2013.1/901 2013/11/27
 22 23  0  0  0  0  0  0  0  0999 V2000
   16.7053   39.3703   64.1340 C   0  0  0  0  0  0  0  0  0  0  0  0
   24.4668   41.2385   67.4052 C   0  0  0  0  0  0  0  0  0  0  0  0
   28.5242   38.9467   69.3701 P   0  0  1  0  0  0  0  0  0  0  0  0
   18.4924   40.9576   64.0346 N   0  0  0  0  0  0  0  0  0  0  0  0
   29.4408   38.4707   68.3027 O   0  0  0  0  0  0  0  0  0  0  0  0
   24.1243   37.8767   65.2171 S   0  0  0  0  0  0  0  0  0  0  0  0
   22.8583   38.9655   65.0317 C   0  0  0  0  0  0  0  0  0  0  0  0
   18.0165   39.8022   64.6158 C   0  0  0  0  0  0  0  0  0  0  0  0
   28.9727   38.6182   70.7479 O   0  5  0  0  0  0  0  0  0  0  0  0
   22.9548   40.1005   65.7567 N   0  0  0  0  0  0  0  0  0  0  0  0
   18.6591   39.1353   65.5368 N   0  0  0  0  0  0  0  0  0  0  0  0
   28.2065   40.3980   69.1790 O   0  0  0  0  0  0  0  0  0  0  0  0
   24.1308   40.0830   66.5089 C   0  0  2  0  0  0  0  0  0  0  0  0
   19.9056   39.5737   65.9716 C   0  0  0  0  0  0  0  0  0  0  0  0
   20.5363   38.8922   66.9233 N   0  0  0  0  0  0  0  0  0  0  0  0
   24.8965   38.9519   66.3525 C   0  0  1  0  0  0  0  0  0  0  0  0
   20.4877   40.7633   65.3722 C   0  0  0  0  0  0  0  0  0  0  0  0
   26.1831   38.6203   67.0187 C   0  0  0  0  0  0  0  0  0  0  0  0
   19.7068   41.4112   64.4363 C   0  0  0  0  0  0  0  0  0  0  0  0
   26.0237   38.5411   68.4907 C   0  0  0  0  0  0  0  0  0  0  0  0
   21.8922   41.2166   65.7221 C   0  0  0  0  0  0  0  0  0  0  0  0
   27.1711   38.1502   69.2457 O   0  0  0  0  0  0  0  0  0  0  0  0
  1  8  1  0  0  0  0
  3  5  1  6  0  0  0
  3  9  1  0  0  0  0
  3 12  2  0  0  0  0
  3 22  1  0  0  0  0
  4  8  2  0  0  0  0
  4 19  1  0  0  0  0
  6 16  1  0  0  0  0
  6  7  1  0  0  0  0
  7 10  1  0  0  0  0
  8 11  1  0  0  0  0
 10 13  1  0  0  0  0
 10 21  1  0  0  0  0
 11 14  2  0  0  0  0
 13  2  1  1  0  0  0
 13 16  1  0  0  0  0
 14 15  1  0  0  0  0
 14 17  1  0  0  0  0
 16 18  1  1  0  0  0
 17 19  2  0  0  0  0
 17 21  1  0  0  0  0
 18 20  1  0  0  0  0
 20 22  1  0  0  0  0
M  CHG  1   9  -1
M  END
>  <CHROM.1>
26.86820560,-118.11647593,44.79806504,176.37237778,64.40352422,-91.40888359
23.77682210,39.40373784,66.77876655,-3.04311578,-0.43614298,0.48441084

>  <Name>
ligand

>  <RI>
0

>  <Rbt.Current_Directory>
/home/itssahil/PROJECTS/Mol_Feturizer/New_Systems/rnas/2HOM

>  <Rbt.Executable>
rbdock ($Id: //depot/dev/client3/rdock/2013.1/src/exe/rbdock.cxx#4 $)

>  <Rbt.Library>
libRbt.so (2013.1, Build901 2013/11/27)

>  <Rbt.Parameter_File>
/export/apps/rDock/src/rDock_2013.1_src/data/scripts/dock_solv.prm

>  <Rbt.Receptor>
prm/pocket_docking_5.prm

>  <SCORE>
-17.089

>  <SCORE.INTER>
-19.5378

>  <SCORE.INTER.CONST>
1

>  <SCORE.INTER.POLAR>
-1.29188

>  <SCORE.INTER.ROT>
6

>  <SCORE.INTER.SOLV>
15.516

>  <SCORE.INTER.VDW>
-21.4909

>  <SCORE.INTER.norm>
-0.88808

>  <SCORE.INTRA>
2.44876

>  <SCORE.INTRA.DIHEDRAL>
1.06235

>  <SCORE.INTRA.DIHEDRAL.0>
5.05013

>  <SCORE.INTRA.POLAR>
0

>  <SCORE.INTRA.POLAR.0>
0

>  <SCORE.INTRA.REPUL>
0

>  <SCORE.INTRA.REPUL.0>
0

>  <SCORE.INTRA.SOLV>
3.2293

>  <SCORE.INTRA.SOLV.lig_0>
-54.1265

>  <SCORE.INTRA.VDW>
0.30293

>  <SCORE.INTRA.VDW.0>
-2.1303

>  <SCORE.INTRA.norm>
0.111307

>  <SCORE.RESTR>
0

>  <SCORE.RESTR.CAVITY>
0

>  <SCORE.RESTR.norm>
0

>  <SCORE.SYSTEM>
0

>  <SCORE.SYSTEM.CONST>
0

>  <SCORE.SYSTEM.DIHEDRAL>
0

>  <SCORE.SYSTEM.SOLV>
0

>  <SCORE.SYSTEM.norm>
0

>  <SCORE.heavy>
22

>  <SCORE.norm>
-0.776773

>  <RMSD>
2.583

$$$$
ligand
 OpenBabel11021811443D
libRbt.so/2013.1/901 2013/11/27
 22 23  0  0  0  0  0  0  0  0999 V2000
   20.2499   44.4042   65.8575 C   0  0  0  0  0  0  0  0  0  0  0  0
   23.7586   39.8742   64.7005 C   0  0  0  0  0  0  0  0  0  0  0  0
   29.7786   39.8779   67.4480 P   0  0  1  0  0  0  0  0  0  0  0  0
   19.9980   42.0328   65.6670 N   0  0  0  0  0  0  0  0  0  0  0  0
   30.8202   39.8435   66.3895 O   0  0  0  0  0  0  0  0  0  0  0  0
   25.7430   37.7804   67.5085 S   0  0  0  0  0  0  0  0  0  0  0  0
   24.1139   38.0257   67.8380 C   0  0  0  0  0  0  0  0  0  0  0  0
   20.7598   43.0684   66.1633 C   0  0  0  0  0  0  0  0  0  0  0  0
   30.0458   38.9705   68.5936 O   0  5  0  0  0  0  0  0  0  0  0  0
   23.4299   38.7252   66.9075 N   0  0  0  0  0  0  0  0  0  0  0  0
   21.8621   42.8975   66.8429 N   0  0  0  0  0  0  0  0  0  0  0  0
   29.4985   41.2901   67.8614 O   0  0  0  0  0  0  0  0  0  0  0  0
   24.2837   39.0836   65.8626 C   0  0  2  0  0  0  0  0  0  0  0  0
   22.3183   41.6124   67.1173 C   0  0  0  0  0  0  0  0  0  0  0  0
   23.4523   41.4583   67.7944 N   0  0  0  0  0  0  0  0  0  0  0  0
   25.5841   38.6633   66.0130 C   0  0  1  0  0  0  0  0  0  0  0  0
   21.5423   40.4715   66.6597 C   0  0  0  0  0  0  0  0  0  0  0  0
   26.7309   38.8954   65.0965 C   0  0  0  0  0  0  0  0  0  0  0  0
   20.4156   40.7663   65.9186 C   0  0  0  0  0  0  0  0  0  0  0  0
   27.7385   39.7938   65.7098 C   0  0  0  0  0  0  0  0  0  0  0  0
   21.9290   39.0532   67.0331 C   0  0  0  0  0  0  0  0  0  0  0  0
   28.4466   39.2930   66.8443 O   0  0  0  0  0  0  0  0  0  0  0  0
  1  8  1  0  0  0  0
  3  5  1  6  0  0  0
  3  9  1  0  0  0  0
  3 12  2  0  0  0  0
  3 22  1  0  0  0  0
  4  8  2  0  0  0  0
  4 19  1  0  0  0  0
  6 16  1  0  0  0  0
  6  7  1  0  0  0  0
  7 10  1  0  0  0  0
  8 11  1  0  0  0  0
 10 13  1  0  0  0  0
 10 21  1  0  0  0  0
 11 14  2  0  0  0  0
 13  2  1  1  0  0  0
 13 16  1  0  0  0  0
 14 15  1  0  0  0  0
 14 17  1  0  0  0  0
 16 18  1  1  0  0  0
 17 19  2  0  0  0  0
 17 21  1  0  0  0  0
 18 20  1  0  0  0  0
 20 22  1  0  0  0  0
M  CHG  1   9  -1
M  END
>  <CHROM.1>
136.56886120,-67.11282947,-44.64792559,66.81865506,163.89716967,-58.90079958
25.15530149,40.11791356,66.73152898,-2.86392190,0.10288875,3.09877945

>  <Name>
ligand

>  <RI>
0

>  <Rbt.Current_Directory>
/home/itssahil/PROJECTS/Mol_Feturizer/New_Systems/rnas/2HOM

>  <Rbt.Executable>
rbdock ($Id: //depot/dev/client3/rdock/2013.1/src/exe/rbdock.cxx#4 $)

>  <Rbt.Library>
libRbt.so (2013.1, Build901 2013/11/27)

>  <Rbt.Parameter_File>
/export/apps/rDock/src/rDock_2013.1_src/data/scripts/dock_solv.prm

>  <Rbt.Receptor>
prm/pocket_docking_2.prm

>  <SCORE>
-18.2945

>  <SCORE.INTER>
-20.9545

>  <SCORE.INTER.CONST>
1

>  <SCORE.INTER.POLAR>
-2.76981

>  <SCORE.INTER.ROT>
6

>  <SCORE.INTER.SOLV>
17.8963

>  <SCORE.INTER.VDW>
-18.3024

>  <SCORE.INTER.norm>
-0.952477

>  <SCORE.INTRA>
1.96229

>  <SCORE.INTRA.DIHEDRAL>
1.36989

>  <SCORE.INTRA.DIHEDRAL.0>
5.05013

>  <SCORE.INTRA.POLAR>
0

>  <SCORE.INTRA.POLAR.0>
0

>  <SCORE.INTRA.REPUL>
0

>  <SCORE.INTRA.REPUL.0>
0

>  <SCORE.INTRA.SOLV>
3.25758

>  <SCORE.INTRA.SOLV.lig_0>
-54.1265

>  <SCORE.INTRA.VDW>
-0.351442

>  <SCORE.INTRA.VDW.0>
-2.1303

>  <SCORE.INTRA.norm>
0.089195

>  <SCORE.RESTR>
0.697751

>  <SCORE.RESTR.CAVITY>
0.697751

>  <SCORE.RESTR.norm>
0.031716

>  <SCORE.SYSTEM>
0

>  <SCORE.SYSTEM.CONST>
0

>  <SCORE.SYSTEM.DIHEDRAL>
0

>  <SCORE.SYSTEM.SOLV>
0

>  <SCORE.SYSTEM.norm>
0

>  <SCORE.heavy>
22

>  <SCORE.norm>
-0.831566

>  <RMSD>
2.595

$$$$
ligand
 OpenBabel11021811443D
libRbt.so/2013.1/901 2013/11/27
 22 23  0  0  0  0  0  0  0  0999 V2000
   17.8124   40.2290   64.4660 C   0  0  0  0  0  0  0  0  0  0  0  0
   24.2760   38.8110   67.8504 C   0  0  0  0  0  0  0  0  0  0  0  0
   29.4077   36.0076   65.6151 P   0  0  1  0  0  0  0  0  0  0  0  0
   19.8605   39.5295   65.4854 N   0  0  0  0  0  0  0  0  0  0  0  0
   30.4685   35.5838   64.6657 O   0  0  0  0  0  0  0  0  0  0  0  0
   26.1157   40.3738   64.6286 S   0  0  0  0  0  0  0  0  0  0  0  0
   24.7719   41.2343   65.1544 C   0  0  0  0  0  0  0  0  0  0  0  0
   19.1120   40.5927   65.0286 C   0  0  0  0  0  0  0  0  0  0  0  0
   28.8859   34.9121   66.4723 O   0  5  0  0  0  0  0  0  0  0  0  0
   24.1410   40.7269   66.2349 N   0  0  0  0  0  0  0  0  0  0  0  0
   19.5148   41.8346   65.0696 N   0  0  0  0  0  0  0  0  0  0  0  0
   29.8495   37.2101   66.3913 O   0  0  0  0  0  0  0  0  0  0  0  0
   24.7908   39.5671   66.6610 C   0  0  2  0  0  0  0  0  0  0  0  0
   20.7569   42.1457   65.6129 C   0  0  0  0  0  0  0  0  0  0  0  0
   21.1578   43.4135   65.6290 N   0  0  0  0  0  0  0  0  0  0  0  0
   25.8849   39.2116   65.9082 C   0  0  1  0  0  0  0  0  0  0  0  0
   21.5830   41.0778   66.1518 C   0  0  0  0  0  0  0  0  0  0  0  0
   26.7727   38.0329   66.0867 C   0  0  0  0  0  0  0  0  0  0  0  0
   21.0772   39.7999   66.0225 C   0  0  0  0  0  0  0  0  0  0  0  0
   27.4750   37.6908   64.8265 C   0  0  0  0  0  0  0  0  0  0  0  0
   22.8901   41.3732   66.8622 C   0  0  0  0  0  0  0  0  0  0  0  0
   28.1410   36.4284   64.7790 O   0  0  0  0  0  0  0  0  0  0  0  0
  1  8  1  0  0  0  0
  3  5  1  6  0  0  0
  3  9  1  0  0  0  0
  3 12  2  0  0  0  0
  3 22  1  0  0  0  0
  4  8  2  0  0  0  0
  4 19  1  0  0  0  0
  6 16  1  0  0  0  0
  6  7  1  0  0  0  0
  7 10  1  0  0  0  0
  8 11  1  0  0  0  0
 10 13  1  0  0  0  0
 10 21  1  0  0  0  0
 11 14  2  0  0  0  0
 13  2  1  6  0  0  0
 13 16  1  0  0  0  0
 14 15  1  0  0  0  0
 14 17  1  0  0  0  0
 16 18  1  6  0  0  0
 17 19  2  0  0  0  0
 17 21  1  0  0  0  0
 18 20  1  0  0  0  0
 20 22  1  0  0  0  0
M  CHG  1   9  -1
M  END
>  <CHROM.1>
79.89737510,-22.03134513,-120.86055208,-167.49942256,-67.24143951,-123.46261692
24.82821293,39.11583343,65.64326363,2.64338705,-0.01708221,0.01326988

>  <Name>
ligand

>  <RI>
0

>  <Rbt.Current_Directory>
/home/itssahil/PROJECTS/Mol_Feturizer/New_Systems/rnas/2HOM

>  <Rbt.Executable>
rbdock ($Id: //depot/dev/client3/rdock/2013.1/src/exe/rbdock.cxx#4 $)

>  <Rbt.Library>
libRbt.so (2013.1, Build901 2013/11/27)

>  <Rbt.Parameter_File>
/export/apps/rDock/src/rDock_2013.1_src/data/scripts/dock_solv.prm

>  <Rbt.Receptor>
prm/pocket_docking_5.prm

>  <SCORE>
-20.8433

>  <SCORE.INTER>
-24.3957

>  <SCORE.INTER.CONST>
1

>  <SCORE.INTER.POLAR>
-1.63459

>  <SCORE.INTER.ROT>
6

>  <SCORE.INTER.SOLV>
17.1356

>  <SCORE.INTER.VDW>
-24.127

>  <SCORE.INTER.norm>
-1.10889

>  <SCORE.INTRA>
3.55234

>  <SCORE.INTRA.DIHEDRAL>
2.91708

>  <SCORE.INTRA.DIHEDRAL.0>
5.05013

>  <SCORE.INTRA.POLAR>
0

>  <SCORE.INTRA.POLAR.0>
0

>  <SCORE.INTRA.REPUL>
0

>  <SCORE.INTRA.REPUL.0>
0

>  <SCORE.INTRA.SOLV>
1.61841

>  <SCORE.INTRA.SOLV.lig_0>
-54.1265

>  <SCORE.INTRA.VDW>
1.2846

>  <SCORE.INTRA.VDW.0>
-2.1303

>  <SCORE.INTRA.norm>
0.16147

>  <SCORE.RESTR>
0

>  <SCORE.RESTR.CAVITY>
0

>  <SCORE.RESTR.norm>
0

>  <SCORE.SYSTEM>
0

>  <SCORE.SYSTEM.CONST>
0

>  <SCORE.SYSTEM.DIHEDRAL>
0

>  <SCORE.SYSTEM.SOLV>
0

>  <SCORE.SYSTEM.norm>
0

>  <SCORE.heavy>
22

>  <SCORE.norm>
-0.947423

>  <RMSD>
2.603

$$$$
ligand
 OpenBabel11021811443D
libRbt.so/2013.1/901 2013/11/27
 22 23  0  0  0  0  0  0  0  0999 V2000
   17.2892   39.7107   64.1792 C   0  0  0  0  0  0  0  0  0  0  0  0
   23.1758   39.0885   67.3770 C   0  0  0  0  0  0  0  0  0  0  0  0
   28.0334   36.8458   69.1952 P   0  0  1  0  0  0  0  0  0  0  0  0
   19.5388   39.4113   64.9360 N   0  0  0  0  0  0  0  0  0  0  0  0
   28.4899   35.4364   69.3017 O   0  0  0  0  0  0  0  0  0  0  0  0
   25.7110   40.4934   64.5832 S   0  0  0  0  0  0  0  0  0  0  0  0
   24.3768   41.4721   64.8744 C   0  0  0  0  0  0  0  0  0  0  0  0
   18.5337   40.3118   64.6564 C   0  0  0  0  0  0  0  0  0  0  0  0
   27.0674   37.2532   70.2479 O   0  5  0  0  0  0  0  0  0  0  0  0
   23.5144   41.0188   65.8093 N   0  0  0  0  0  0  0  0  0  0  0  0
   18.6620   41.6053   64.7845 N   0  0  0  0  0  0  0  0  0  0  0  0
   29.2070   37.7690   69.0765 O   0  0  0  0  0  0  0  0  0  0  0  0
   23.9670   39.8008   66.3198 C   0  0  2  0  0  0  0  0  0  0  0  0
   19.8599   42.1439   65.2425 C   0  0  0  0  0  0  0  0  0  0  0  0
   19.9780   43.4641   65.3487 N   0  0  0  0  0  0  0  0  0  0  0  0
   25.1444   39.3497   65.7716 C   0  0  1  0  0  0  0  0  0  0  0  0
   20.9502   41.2499   65.5960 C   0  0  0  0  0  0  0  0  0  0  0  0
   25.8739   38.0924   66.0818 C   0  0  0  0  0  0  0  0  0  0  0  0
   20.7201   39.9051   65.3861 C   0  0  0  0  0  0  0  0  0  0  0  0
   26.5718   38.1815   67.3869 C   0  0  0  0  0  0  0  0  0  0  0  0
   22.2329   41.7748   66.2122 C   0  0  0  0  0  0  0  0  0  0  0  0
   27.1884   36.9890   67.8737 O   0  0  0  0  0  0  0  0  0  0  0  0
  1  8  1  0  0  0  0
  3  5  1  1  0  0  0
  3  9  1  0  0  0  0
  3 12  2  0  0  0  0
  3 22  1  0  0  0  0
  4  8  2  0  0  0  0
  4 19  1  0  0  0  0
  6 16  1  0  0  0  0
  6  7  1  0  0  0  0
  7 10  1  0  0  0  0
  8 11  1  0  0  0  0
 10 13  1  0  0  0  0
 10 21  1  0  0  0  0
 11 14  2  0  0  0  0
 13  2  1  6  0  0  0
 13 16  1  0  0  0  0
 14 15  1  0  0  0  0
 14 17  1  0  0  0  0
 16 18  1  6  0  0  0
 17 19  2  0  0  0  0
 17 21  1  0  0  0  0
 18 20  1  0  0  0  0
 20 22  1  0  0  0  0
M  CHG  1   9  -1
M  END
>  <CHROM.1>
100.76083706,105.64768467,-145.89732321,173.25358777,177.30214987,-179.53298372
23.95692347,39.40975361,66.52120480,2.55497706,-0.07181233,-0.64848729

>  <Name>
ligand

>  <RI>
0

>  <Rbt.Current_Directory>
/home/itssahil/PROJECTS/Mol_Feturizer/New_Systems/rnas/2HOM

>  <Rbt.Executable>
rbdock ($Id: //depot/dev/client3/rdock/2013.1/src/exe/rbdock.cxx#4 $)

>  <Rbt.Library>
libRbt.so (2013.1, Build901 2013/11/27)

>  <Rbt.Parameter_File>
/export/apps/rDock/src/rDock_2013.1_src/data/scripts/dock_solv.prm

>  <Rbt.Receptor>
prm/pocket_docking_8.prm

>  <SCORE>
-21.5795

>  <SCORE.INTER>
-21.8935

>  <SCORE.INTER.CONST>
1

>  <SCORE.INTER.POLAR>
-1.63459

>  <SCORE.INTER.ROT>
6

>  <SCORE.INTER.SOLV>
18.8062

>  <SCORE.INTER.VDW>
-23.0158

>  <SCORE.INTER.norm>
-0.99516

>  <SCORE.INTRA>
0.314059

>  <SCORE.INTRA.DIHEDRAL>
-0.295436

>  <SCORE.INTRA.DIHEDRAL.0>
5.05013

>  <SCORE.INTRA.POLAR>
0

>  <SCORE.INTRA.POLAR.0>
0

>  <SCORE.INTRA.REPUL>
0

>  <SCORE.INTRA.REPUL.0>
0

>  <SCORE.INTRA.SOLV>
0.551407

>  <SCORE.INTRA.SOLV.lig_0>
-54.1265

>  <SCORE.INTRA.VDW>
0.186073

>  <SCORE.INTRA.VDW.0>
-2.1303

>  <SCORE.INTRA.norm>
0.0142754

>  <SCORE.RESTR>
0

>  <SCORE.RESTR.CAVITY>
0

>  <SCORE.RESTR.norm>
0

>  <SCORE.SYSTEM>
0

>  <SCORE.SYSTEM.CONST>
0

>  <SCORE.SYSTEM.DIHEDRAL>
0

>  <SCORE.SYSTEM.SOLV>
0

>  <SCORE.SYSTEM.norm>
0

>  <SCORE.heavy>
22

>  <SCORE.norm>
-0.980884

>  <RMSD>
2.611

$$$$
ligand
 OpenBabel11021811443D
libRbt.so/2013.1/901 2013/11/27
 22 23  0  0  0  0  0  0  0  0999 V2000
   17.8900   40.3235   64.4157 C   0  0  0  0  0  0  0  0  0  0  0  0
   24.7862   40.5300   64.7323 C   0  0  0  0  0  0  0  0  0  0  0  0
   29.5619   36.5390   64.9573 P   0  0  1  0  0  0  0  0  0  0  0  0
   19.5577   41.7395   65.3835 N   0  0  0  0  0  0  0  0  0  0  0  0
   29.9126   36.4068   66.3946 O   0  0  0  0  0  0  0  0  0  0  0  0
   25.1246   37.7661   67.6397 S   0  0  0  0  0  0  0  0  0  0  0  0
   24.0020   38.9767   67.9508 C   0  0  0  0  0  0  0  0  0  0  0  0
   19.1567   40.4445   65.1359 C   0  0  0  0  0  0  0  0  0  0  0  0
   30.7315   36.5152   64.0414 O   0  5  0  0  0  0  0  0  0  0  0  0
   23.8726   39.9134   66.9870 N   0  0  0  0  0  0  0  0  0  0  0  0
   19.8288   39.3913   65.5168 N   0  0  0  0  0  0  0  0  0  0  0  0
   28.4961   35.5544   64.5855 O   0  0  0  0  0  0  0  0  0  0  0  0
   24.7400   39.6286   65.9308 C   0  0  2  0  0  0  0  0  0  0  0  0
   21.0314   39.5426   66.1993 C   0  0  0  0  0  0  0  0  0  0  0  0
   21.6922   38.4588   66.5955 N   0  0  0  0  0  0  0  0  0  0  0  0
   25.5078   38.5015   66.1055 C   0  0  1  0  0  0  0  0  0  0  0  0
   21.5361   40.8808   66.4588 C   0  0  0  0  0  0  0  0  0  0  0  0
   26.5312   37.9415   65.1844 C   0  0  0  0  0  0  0  0  0  0  0  0
   20.7278   41.9211   66.0466 C   0  0  0  0  0  0  0  0  0  0  0  0
   27.8592   38.5597   65.4136 C   0  0  0  0  0  0  0  0  0  0  0  0
   22.8968   41.1021   67.0914 C   0  0  0  0  0  0  0  0  0  0  0  0
   28.9696   37.9803   64.7276 O   0  0  0  0  0  0  0  0  0  0  0  0
  1  8  1  0  0  0  0
  3  5  1  1  0  0  0
  3  9  1  0  0  0  0
  3 12  2  0  0  0  0
  3 22  1  0  0  0  0
  4  8  2  0  0  0  0
  4 19  1  0  0  0  0
  6 16  1  0  0  0  0
  6  7  1  0  0  0  0
  7 10  1  0  0  0  0
  8 11  1  0  0  0  0
 10 13  1  0  0  0  0
 10 21  1  0  0  0  0
 11 14  2  0  0  0  0
 13  2  1  1  0  0  0
 13 16  1  0  0  0  0
 14 15  1  0  0  0  0
 14 17  1  0  0  0  0
 16 18  1  1  0  0  0
 17 19  2  0  0  0  0
 17 21  1  0  0  0  0
 18 20  1  0  0  0  0
 20 22  1  0  0  0  0
M  CHG  1   9  -1
M  END
>  <CHROM.1>
-93.68631828,-92.99637717,20.24210024,171.41450306,-66.06196363,-55.79319122
24.78323218,38.74882561,65.80470369,3.10602036,-0.39398485,1.64586501

>  <Name>
ligand

>  <RI>
0

>  <Rbt.Current_Directory>
/home/itssahil/PROJECTS/Mol_Feturizer/New_Systems/rnas/2HOM

>  <Rbt.Executable>
rbdock ($Id: //depot/dev/client3/rdock/2013.1/src/exe/rbdock.cxx#4 $)

>  <Rbt.Library>
libRbt.so (2013.1, Build901 2013/11/27)

>  <Rbt.Parameter_File>
/export/apps/rDock/src/rDock_2013.1_src/data/scripts/dock_solv.prm

>  <Rbt.Receptor>
prm/pocket_docking_6.prm

>  <SCORE>
-21.5475

>  <SCORE.INTER>
-23.8897

>  <SCORE.INTER.CONST>
1

>  <SCORE.INTER.POLAR>
-1.30329

>  <SCORE.INTER.ROT>
6

>  <SCORE.INTER.SOLV>
16.2562

>  <SCORE.INTER.VDW>
-24.6009

>  <SCORE.INTER.norm>
-1.0859

>  <SCORE.INTRA>
2.34218

>  <SCORE.INTRA.DIHEDRAL>
0.315472

>  <SCORE.INTRA.DIHEDRAL.0>
5.05013

>  <SCORE.INTRA.POLAR>
0

>  <SCORE.INTRA.POLAR.0>
0

>  <SCORE.INTRA.REPUL>
0

>  <SCORE.INTRA.REPUL.0>
0

>  <SCORE.INTRA.SOLV>
4.57791

>  <SCORE.INTRA.SOLV.lig_0>
-54.1265

>  <SCORE.INTRA.VDW>
-0.104509

>  <SCORE.INTRA.VDW.0>
-2.1303

>  <SCORE.INTRA.norm>
0.106463

>  <SCORE.RESTR>
0

>  <SCORE.RESTR.CAVITY>
0

>  <SCORE.RESTR.norm>
0

>  <SCORE.SYSTEM>
0

>  <SCORE.SYSTEM.CONST>
0

>  <SCORE.SYSTEM.DIHEDRAL>
0

>  <SCORE.SYSTEM.SOLV>
0

>  <SCORE.SYSTEM.norm>
0

>  <SCORE.heavy>
22

>  <SCORE.norm>
-0.979433

>  <RMSD>
2.612

$$$$
ligand
 OpenBabel11021811443D
libRbt.so/2013.1/901 2013/11/27
 22 23  0  0  0  0  0  0  0  0999 V2000
   20.5165   44.3331   65.6723 C   0  0  0  0  0  0  0  0  0  0  0  0
   23.7042   39.3453   64.8100 C   0  0  0  0  0  0  0  0  0  0  0  0
   29.6364   40.1477   67.1203 P   0  0  1  0  0  0  0  0  0  0  0  0
   20.1851   41.9652   65.7535 N   0  0  0  0  0  0  0  0  0  0  0  0
   29.3973   41.3669   67.9343 O   0  0  0  0  0  0  0  0  0  0  0  0
   25.8634   37.7730   67.8221 S   0  0  0  0  0  0  0  0  0  0  0  0
   24.2756   38.1508   68.2208 C   0  0  0  0  0  0  0  0  0  0  0  0
   20.9926   43.0227   66.1128 C   0  0  0  0  0  0  0  0  0  0  0  0
   30.4823   40.3741   65.9201 O   0  5  0  0  0  0  0  0  0  0  0  0
   23.5340   38.6786   67.2236 N   0  0  0  0  0  0  0  0  0  0  0  0
   22.1073   42.8903   66.7805 N   0  0  0  0  0  0  0  0  0  0  0  0
   30.1222   39.0265   67.9866 O   0  0  0  0  0  0  0  0  0  0  0  0
   24.3049   38.7819   66.0642 C   0  0  2  0  0  0  0  0  0  0  0  0
   22.5304   41.6286   67.1854 C   0  0  0  0  0  0  0  0  0  0  0  0
   23.6774   41.5116   67.8480 N   0  0  0  0  0  0  0  0  0  0  0  0
   25.6015   38.3437   66.1951 C   0  0  1  0  0  0  0  0  0  0  0  0
   21.7066   40.4714   66.8767 C   0  0  0  0  0  0  0  0  0  0  0  0
   26.6718   38.3364   65.1639 C   0  0  0  0  0  0  0  0  0  0  0  0
   20.5696   40.7208   66.1347 C   0  0  0  0  0  0  0  0  0  0  0  0
   28.0130   38.4889   65.7773 C   0  0  0  0  0  0  0  0  0  0  0  0
   22.0588   39.0907   67.3965 C   0  0  0  0  0  0  0  0  0  0  0  0
   28.2619   39.6970   66.4969 O   0  0  0  0  0  0  0  0  0  0  0  0
  1  8  1  0  0  0  0
  3  5  1  1  0  0  0
  3  9  1  0  0  0  0
  3 12  2  0  0  0  0
  3 22  1  0  0  0  0
  4  8  2  0  0  0  0
  4 19  1  0  0  0  0
  6 16  1  0  0  0  0
  6  7  1  0  0  0  0
  7 10  1  0  0  0  0
  8 11  1  0  0  0  0
 10 13  1  0  0  0  0
 10 21  1  0  0  0  0
 11 14  2  0  0  0  0
 13  2  1  1  0  0  0
 13 16  1  0  0  0  0
 14 15  1  0  0  0  0
 14 17  1  0  0  0  0
 16 18  1  1  0  0  0
 17 19  2  0  0  0  0
 17 21  1  0  0  0  0
 18 20  1  0  0  0  0
 20 22  1  0  0  0  0
M  CHG  1   9  -1
M  END
>  <CHROM.1>
131.62992082,-29.47847865,-46.86591719,-61.73879770,-174.05735108,-172.21692812
25.21711186,40.06705284,66.74413133,-2.86143224,0.04952898,3.04475695

>  <Name>
ligand

>  <RI>
0

>  <Rbt.Current_Directory>
/home/itssahil/PROJECTS/Mol_Feturizer/New_Systems/rnas/2HOM

>  <Rbt.Executable>
rbdock ($Id: //depot/dev/client3/rdock/2013.1/src/exe/rbdock.cxx#4 $)

>  <Rbt.Library>
libRbt.so (2013.1, Build901 2013/11/27)

>  <Rbt.Parameter_File>
/export/apps/rDock/src/rDock_2013.1_src/data/scripts/dock_solv.prm

>  <Rbt.Receptor>
prm/pocket_docking_7.prm

>  <SCORE>
-17.9271

>  <SCORE.INTER>
-19.8926

>  <SCORE.INTER.CONST>
1

>  <SCORE.INTER.POLAR>
-2.57039

>  <SCORE.INTER.ROT>
6

>  <SCORE.INTER.SOLV>
17.0946

>  <SCORE.INTER.VDW>
-17.9919

>  <SCORE.INTER.norm>
-0.904207

>  <SCORE.INTRA>
1.96544

>  <SCORE.INTRA.DIHEDRAL>
0.0245125

>  <SCORE.INTRA.DIHEDRAL.0>
5.05013

>  <SCORE.INTRA.POLAR>
0

>  <SCORE.INTRA.POLAR.0>
0

>  <SCORE.INTRA.REPUL>
0

>  <SCORE.INTRA.REPUL.0>
0

>  <SCORE.INTRA.SOLV>
3.52098

>  <SCORE.INTRA.SOLV.lig_0>
-54.1265

>  <SCORE.INTRA.VDW>
0.192695

>  <SCORE.INTRA.VDW.0>
-2.1303

>  <SCORE.INTRA.norm>
0.0893382

>  <SCORE.RESTR>
0

>  <SCORE.RESTR.CAVITY>
0

>  <SCORE.RESTR.norm>
0

>  <SCORE.SYSTEM>
0

>  <SCORE.SYSTEM.CONST>
0

>  <SCORE.SYSTEM.DIHEDRAL>
0

>  <SCORE.SYSTEM.SOLV>
0

>  <SCORE.SYSTEM.norm>
0

>  <SCORE.heavy>
22

>  <SCORE.norm>
-0.814869

>  <RMSD>
2.613

$$$$
ligand
 OpenBabel11021811443D
libRbt.so/2013.1/901 2013/11/27
 22 23  0  0  0  0  0  0  0  0999 V2000
   18.6199   39.6748   64.9146 C   0  0  0  0  0  0  0  0  0  0  0  0
   26.4212   41.7617   67.3139 C   0  0  0  0  0  0  0  0  0  0  0  0
   29.4666   35.5926   66.4827 P   0  0  1  0  0  0  0  0  0  0  0  0
   20.3948   39.2354   66.4573 N   0  0  0  0  0  0  0  0  0  0  0  0
   30.9452   35.4951   66.3809 O   0  0  0  0  0  0  0  0  0  0  0  0
   25.6605   37.8881   68.1034 S   0  0  0  0  0  0  0  0  0  0  0  0
   24.2980   38.8678   68.0239 C   0  0  0  0  0  0  0  0  0  0  0  0
   19.8626   40.1194   65.5438 C   0  0  0  0  0  0  0  0  0  0  0  0
   28.7802   35.8037   65.1821 O   0  5  0  0  0  0  0  0  0  0  0  0
   24.5317   40.1710   67.7590 N   0  0  0  0  0  0  0  0  0  0  0  0
   20.4127   41.2633   65.2354 N   0  0  0  0  0  0  0  0  0  0  0  0
   28.9180   34.4380   67.2634 O   0  0  0  0  0  0  0  0  0  0  0  0
   25.9033   40.3853   67.6117 C   0  0  2  0  0  0  0  0  0  0  0  0
   21.5949   41.6562   65.8543 C   0  0  0  0  0  0  0  0  0  0  0  0
   22.1500   42.8155   65.5138 N   0  0  0  0  0  0  0  0  0  0  0  0
   26.6808   39.2624   67.7692 C   0  0  1  0  0  0  0  0  0  0  0  0
   22.1909   40.7912   66.8590 C   0  0  0  0  0  0  0  0  0  0  0  0
   28.1616   39.1585   67.6934 C   0  0  0  0  0  0  0  0  0  0  0  0
   21.5476   39.5899   67.0795 C   0  0  0  0  0  0  0  0  0  0  0  0
   28.5803   38.1112   66.7309 C   0  0  0  0  0  0  0  0  0  0  0  0
   23.4112   41.2238   67.6492 C   0  0  0  0  0  0  0  0  0  0  0  0
   29.1154   36.9058   67.2784 O   0  0  0  0  0  0  0  0  0  0  0  0
  1  8  1  0  0  0  0
  3  5  1  6  0  0  0
  3  9  1  0  0  0  0
  3 12  2  0  0  0  0
  3 22  1  0  0  0  0
  4  8  2  0  0  0  0
  4 19  1  0  0  0  0
  6 16  1  0  0  0  0
  6  7  1  0  0  0  0
  7 10  1  0  0  0  0
  8 11  1  0  0  0  0
 10 13  1  0  0  0  0
 10 21  1  0  0  0  0
 11 14  2  0  0  0  0
 13  2  1  1  0  0  0
 13 16  1  0  0  0  0
 14 15  1  0  0  0  0
 14 17  1  0  0  0  0
 16 18  1  1  0  0  0
 17 19  2  0  0  0  0
 17 21  1  0  0  0  0
 18 20  1  0  0  0  0
 20 22  1  0  0  0  0
M  CHG  1   9  -1
M  END
>  <CHROM.1>
-43.80760629,53.91628080,-133.49724056,-107.37257797,172.21054041,106.51486778
25.32698981,38.74861557,66.79912528,2.67901643,-0.22813452,0.27637281

>  <Name>
ligand

>  <RI>
0

>  <Rbt.Current_Directory>
/home/itssahil/PROJECTS/Mol_Feturizer/New_Systems/rnas/2HOM

>  <Rbt.Executable>
rbdock ($Id: //depot/dev/client3/rdock/2013.1/src/exe/rbdock.cxx#4 $)

>  <Rbt.Library>
libRbt.so (2013.1, Build901 2013/11/27)

>  <Rbt.Parameter_File>
/export/apps/rDock/src/rDock_2013.1_src/data/scripts/dock_solv.prm

>  <Rbt.Receptor>
prm/pocket_docking_6.prm

>  <SCORE>
-15.819

>  <SCORE.INTER>
-20.442

>  <SCORE.INTER.CONST>
1

>  <SCORE.INTER.POLAR>
-1.68392

>  <SCORE.INTER.ROT>
6

>  <SCORE.INTER.SOLV>
18.5301

>  <SCORE.INTER.VDW>
-21.7917

>  <SCORE.INTER.norm>
-0.929183

>  <SCORE.INTRA>
4.62306

>  <SCORE.INTRA.DIHEDRAL>
7.33199

>  <SCORE.INTRA.DIHEDRAL.0>
5.05013

>  <SCORE.INTRA.POLAR>
0

>  <SCORE.INTRA.POLAR.0>
0

>  <SCORE.INTRA.REPUL>
0

>  <SCORE.INTRA.REPUL.0>
0

>  <SCORE.INTRA.SOLV>
0.375757

>  <SCORE.INTRA.SOLV.lig_0>
-54.1265

>  <SCORE.INTRA.VDW>
0.769194

>  <SCORE.INTRA.VDW.0>
-2.1303

>  <SCORE.INTRA.norm>
0.210139

>  <SCORE.RESTR>
0

>  <SCORE.RESTR.CAVITY>
0

>  <SCORE.RESTR.norm>
0

>  <SCORE.SYSTEM>
0

>  <SCORE.SYSTEM.CONST>
0

>  <SCORE.SYSTEM.DIHEDRAL>
0

>  <SCORE.SYSTEM.SOLV>
0

>  <SCORE.SYSTEM.norm>
0

>  <SCORE.heavy>
22

>  <SCORE.norm>
-0.719043

>  <RMSD>
2.629

$$$$
ligand
 OpenBabel11021811443D
libRbt.so/2013.1/901 2013/11/27
 22 23  0  0  0  0  0  0  0  0999 V2000
   17.7462   39.9593   64.6498 C   0  0  0  0  0  0  0  0  0  0  0  0
   26.2370   41.0270   66.4886 C   0  0  0  0  0  0  0  0  0  0  0  0
   29.1681   36.0742   65.8056 P   0  0  1  0  0  0  0  0  0  0  0  0
   19.4022   41.2655   65.7788 N   0  0  0  0  0  0  0  0  0  0  0  0
   30.5475   36.5723   66.0412 O   0  0  0  0  0  0  0  0  0  0  0  0
   24.5642   37.5729   67.7043 S   0  0  0  0  0  0  0  0  0  0  0  0
   23.4779   38.7030   67.0997 C   0  0  0  0  0  0  0  0  0  0  0  0
   19.1495   40.1462   65.0155 C   0  0  0  0  0  0  0  0  0  0  0  0
   28.9821   35.3948   64.4975 O   0  5  0  0  0  0  0  0  0  0  0  0
   24.0194   39.8684   66.6855 N   0  0  0  0  0  0  0  0  0  0  0  0
   20.0701   39.2960   64.6473 N   0  0  0  0  0  0  0  0  0  0  0  0
   28.6998   35.2578   66.9709 O   0  0  0  0  0  0  0  0  0  0  0  0
   25.4028   39.8401   66.8715 C   0  0  2  0  0  0  0  0  0  0  0  0
   21.3962   39.5050   65.0117 C   0  0  0  0  0  0  0  0  0  0  0  0
   22.3166   38.6186   64.6435 N   0  0  0  0  0  0  0  0  0  0  0  0
   25.8852   38.6754   67.4202 C   0  0  1  0  0  0  0  0  0  0  0  0
   21.7420   40.6880   65.7824 C   0  0  0  0  0  0  0  0  0  0  0  0
   27.2932   38.3392   67.7577 C   0  0  0  0  0  0  0  0  0  0  0  0
   20.6867   41.4985   66.1498 C   0  0  0  0  0  0  0  0  0  0  0  0
   28.1728   38.4443   66.5687 C   0  0  0  0  0  0  0  0  0  0  0  0
   23.1851   41.0266   66.1035 C   0  0  0  0  0  0  0  0  0  0  0  0
   28.2102   37.3191   65.6901 O   0  0  0  0  0  0  0  0  0  0  0  0
  1  8  1  0  0  0  0
  3  5  1  1  0  0  0
  3  9  1  0  0  0  0
  3 12  2  0  0  0  0
  3 22  1  0  0  0  0
  4  8  2  0  0  0  0
  4 19  1  0  0  0  0
  6 16  1  0  0  0  0
  6  7  1  0  0  0  0
  7 10  1  0  0  0  0
  8 11  1  0  0  0  0
 10 13  1  0  0  0  0
 10 21  1  0  0  0  0
 11 14  2  0  0  0  0
 13  2  1  1  0  0  0
 13 16  1  0  0  0  0
 14 15  1  0  0  0  0
 14 17  1  0  0  0  0
 16 18  1  1  0  0  0
 17 19  2  0  0  0  0
 17 21  1  0  0  0  0
 18 20  1  0  0  0  0
 20 22  1  0  0  0  0
M  CHG  1   9  -1
M  END
>  <CHROM.1>
-10.87751662,123.12475447,-49.17778873,-82.97691277,-88.16526264,-46.92886678
24.80202869,38.56387515,66.12296445,2.83053523,-0.27531233,0.50628982

>  <Name>
ligand

>  <RI>
0

>  <Rbt.Current_Directory>
/home/itssahil/PROJECTS/Mol_Feturizer/New_Systems/rnas/2HOM

>  <Rbt.Executable>
rbdock ($Id: //depot/dev/client3/rdock/2013.1/src/exe/rbdock.cxx#4 $)

>  <Rbt.Library>
libRbt.so (2013.1, Build901 2013/11/27)

>  <Rbt.Parameter_File>
/export/apps/rDock/src/rDock_2013.1_src/data/scripts/dock_solv.prm

>  <Rbt.Receptor>
prm/pocket_docking_7.prm

>  <SCORE>
-14.7197

>  <SCORE.INTER>
-18.9794

>  <SCORE.INTER.CONST>
1

>  <SCORE.INTER.POLAR>
-1.30333

>  <SCORE.INTER.ROT>
6

>  <SCORE.INTER.SOLV>
17.9892

>  <SCORE.INTER.VDW>
-21.9049

>  <SCORE.INTER.norm>
-0.862699

>  <SCORE.INTRA>
4.25971

>  <SCORE.INTRA.DIHEDRAL>
4.70594

>  <SCORE.INTRA.DIHEDRAL.0>
5.05013

>  <SCORE.INTRA.POLAR>
0

>  <SCORE.INTRA.POLAR.0>
0

>  <SCORE.INTRA.REPUL>
0

>  <SCORE.INTRA.REPUL.0>
0

>  <SCORE.INTRA.SOLV>
2.55945

>  <SCORE.INTRA.SOLV.lig_0>
-54.1265

>  <SCORE.INTRA.VDW>
0.627018

>  <SCORE.INTRA.VDW.0>
-2.1303

>  <SCORE.INTRA.norm>
0.193623

>  <SCORE.RESTR>
0

>  <SCORE.RESTR.CAVITY>
0

>  <SCORE.RESTR.norm>
0

>  <SCORE.SYSTEM>
0

>  <SCORE.SYSTEM.CONST>
0

>  <SCORE.SYSTEM.DIHEDRAL>
0

>  <SCORE.SYSTEM.SOLV>
0

>  <SCORE.SYSTEM.norm>
0

>  <SCORE.heavy>
22

>  <SCORE.norm>
-0.669076

>  <RMSD>
2.642

$$$$
ligand
 OpenBabel11021811443D
libRbt.so/2013.1/901 2013/11/27
 22 23  0  0  0  0  0  0  0  0999 V2000
   20.1315   44.5646   65.9346 C   0  0  0  0  0  0  0  0  0  0  0  0
   24.7740   40.2606   64.9007 C   0  0  0  0  0  0  0  0  0  0  0  0
   29.2807   39.6343   68.9308 P   0  0  1  0  0  0  0  0  0  0  0  0
   21.8261   42.8761   65.9589 N   0  0  0  0  0  0  0  0  0  0  0  0
   30.3269   39.1096   68.0162 O   0  0  0  0  0  0  0  0  0  0  0  0
   24.3705   37.3439   67.6460 S   0  0  0  0  0  0  0  0  0  0  0  0
   22.9607   37.7240   66.8150 C   0  0  0  0  0  0  0  0  0  0  0  0
   20.5002   43.1661   65.7199 C   0  0  0  0  0  0  0  0  0  0  0  0
   28.4514   38.5822   69.5733 O   0  5  0  0  0  0  0  0  0  0  0  0
   23.0752   38.6996   65.8886 N   0  0  0  0  0  0  0  0  0  0  0  0
   19.6191   42.2776   65.3453 N   0  0  0  0  0  0  0  0  0  0  0  0
   29.8761   40.6007   69.9081 O   0  0  0  0  0  0  0  0  0  0  0  0
   24.3904   39.1663   65.8528 C   0  0  2  0  0  0  0  0  0  0  0  0
   20.0043   40.9554   65.1489 C   0  0  0  0  0  0  0  0  0  0  0  0
   19.0895   40.0613   64.7856 N   0  0  0  0  0  0  0  0  0  0  0  0
   25.2422   38.5534   66.7411 C   0  0  1  0  0  0  0  0  0  0  0  0
   21.3968   40.5861   65.3428 C   0  0  0  0  0  0  0  0  0  0  0  0
   26.6857   38.8303   66.9620 C   0  0  0  0  0  0  0  0  0  0  0  0
   22.2340   41.5949   65.7752 C   0  0  0  0  0  0  0  0  0  0  0  0
   26.8813   40.0358   67.8028 C   0  0  0  0  0  0  0  0  0  0  0  0
   21.8937   39.1882   65.0275 C   0  0  0  0  0  0  0  0  0  0  0  0
   28.2285   40.4279   68.0683 O   0  0  0  0  0  0  0  0  0  0  0  0
  1  8  1  0  0  0  0
  3  5  1  6  0  0  0
  3  9  1  0  0  0  0
  3 12  2  0  0  0  0
  3 22  1  0  0  0  0
  4  8  2  0  0  0  0
  4 19  1  0  0  0  0
  6 16  1  0  0  0  0
  6  7  1  0  0  0  0
  7 10  1  0  0  0  0
  8 11  1  0  0  0  0
 10 13  1  0  0  0  0
 10 21  1  0  0  0  0
 11 14  2  0  0  0  0
 13  2  1  1  0  0  0
 13 16  1  0  0  0  0
 14 15  1  0  0  0  0
 14 17  1  0  0  0  0
 16 18  1  1  0  0  0
 17 19  2  0  0  0  0
 17 21  1  0  0  0  0
 18 20  1  0  0  0  0
 20 22  1  0  0  0  0
M  CHG  1   9  -1
M  END
>  <CHROM.1>
110.23799715,-100.26564298,-149.75084558,-178.75798925,-67.02761627,110.53213933
24.59730595,40.01209114,66.88613221,-2.92051287,0.38829518,-3.09225965

>  <Name>
ligand

>  <RI>
0

>  <Rbt.Current_Directory>
/home/itssahil/PROJECTS/Mol_Feturizer/New_Systems/rnas/2HOM

>  <Rbt.Executable>
rbdock ($Id: //depot/dev/client3/rdock/2013.1/src/exe/rbdock.cxx#4 $)

>  <Rbt.Library>
libRbt.so (2013.1, Build901 2013/11/27)

>  <Rbt.Parameter_File>
/export/apps/rDock/src/rDock_2013.1_src/data/scripts/dock_solv.prm

>  <Rbt.Receptor>
prm/pocket_docking_3.prm

>  <SCORE>
-16.3829

>  <SCORE.INTER>
-19.0741

>  <SCORE.INTER.CONST>
1

>  <SCORE.INTER.POLAR>
-2.49352

>  <SCORE.INTER.ROT>
6

>  <SCORE.INTER.SOLV>
20.3848

>  <SCORE.INTER.VDW>
-18.7992

>  <SCORE.INTER.norm>
-0.867004

>  <SCORE.INTRA>
2.69114

>  <SCORE.INTRA.DIHEDRAL>
1.992

>  <SCORE.INTRA.DIHEDRAL.0>
5.05013

>  <SCORE.INTRA.POLAR>
0

>  <SCORE.INTRA.POLAR.0>
0

>  <SCORE.INTRA.REPUL>
0

>  <SCORE.INTRA.REPUL.0>
0

>  <SCORE.INTRA.SOLV>
1.10311

>  <SCORE.INTRA.SOLV.lig_0>
-54.1265

>  <SCORE.INTRA.VDW>
1.14358

>  <SCORE.INTRA.VDW.0>
-2.1303

>  <SCORE.INTRA.norm>
0.122324

>  <SCORE.RESTR>
0

>  <SCORE.RESTR.CAVITY>
0

>  <SCORE.RESTR.norm>
0

>  <SCORE.SYSTEM>
0

>  <SCORE.SYSTEM.CONST>
0

>  <SCORE.SYSTEM.DIHEDRAL>
0

>  <SCORE.SYSTEM.SOLV>
0

>  <SCORE.SYSTEM.norm>
0

>  <SCORE.heavy>
22

>  <SCORE.norm>
-0.744679

>  <RMSD>
2.645

$$$$
ligand
 OpenBabel11021811443D
libRbt.so/2013.1/901 2013/11/27
 22 23  0  0  0  0  0  0  0  0999 V2000
   20.0914   44.8204   66.0230 C   0  0  0  0  0  0  0  0  0  0  0  0
   23.5670   40.4211   64.1876 C   0  0  0  0  0  0  0  0  0  0  0  0
   28.8986   39.8213   68.0310 P   0  0  1  0  0  0  0  0  0  0  0  0
   21.3143   42.7893   66.3430 N   0  0  0  0  0  0  0  0  0  0  0  0
   30.0528   38.9321   67.7420 O   0  0  0  0  0  0  0  0  0  0  0  0
   24.0753   37.2558   66.6226 S   0  0  0  0  0  0  0  0  0  0  0  0
   22.4721   37.6494   66.3104 C   0  0  0  0  0  0  0  0  0  0  0  0
   20.2074   43.3838   65.7768 C   0  0  0  0  0  0  0  0  0  0  0  0
   28.0593   39.3762   69.1732 O   0  5  0  0  0  0  0  0  0  0  0  0
   22.2801   38.7080   65.4945 N   0  0  0  0  0  0  0  0  0  0  0  0
   19.3102   42.7353   65.0836 N   0  0  0  0  0  0  0  0  0  0  0  0
   29.3498   41.2451   68.1446 O   0  0  0  0  0  0  0  0  0  0  0  0
   23.5129   39.2308   65.0994 C   0  0  2  0  0  0  0  0  0  0  0  0
   19.4521   41.3686   64.8673 C   0  0  0  0  0  0  0  0  0  0  0  0
   18.5189   40.7220   64.1750 N   0  0  0  0  0  0  0  0  0  0  0  0
   24.6066   38.5770   65.6158 C   0  0  1  0  0  0  0  0  0  0  0  0
   20.6179   40.6834   65.4006 C   0  0  0  0  0  0  0  0  0  0  0  0
   26.0435   38.8932   65.4051 C   0  0  0  0  0  0  0  0  0  0  0  0
   21.4823   41.4566   66.1492 C   0  0  0  0  0  0  0  0  0  0  0  0
   26.7996   38.8424   66.6795 C   0  0  0  0  0  0  0  0  0  0  0  0
   20.8832   39.2219   65.0938 C   0  0  0  0  0  0  0  0  0  0  0  0
   27.9012   39.7410   66.8146 O   0  0  0  0  0  0  0  0  0  0  0  0
  1  8  1  0  0  0  0
  3  5  1  6  0  0  0
  3  9  1  0  0  0  0
  3 12  2  0  0  0  0
  3 22  1  0  0  0  0
  4  8  2  0  0  0  0
  4 19  1  0  0  0  0
  6 16  1  0  0  0  0
  6  7  1  0  0  0  0
  7 10  1  0  0  0  0
  8 11  1  0  0  0  0
 10 13  1  0  0  0  0
 10 21  1  0  0  0  0
 11 14  2  0  0  0  0
 13  2  1  1  0  0  0
 13 16  1  0  0  0  0
 14 15  1  0  0  0  0
 14 17  1  0  0  0  0
 16 18  1  1  0  0  0
 17 19  2  0  0  0  0
 17 21  1  0  0  0  0
 18 20  1  0  0  0  0
 20 22  1  0  0  0  0
M  CHG  1   9  -1
M  END
>  <CHROM.1>
124.10997902,-44.26747802,168.65810564,-147.63875415,-176.40330298,91.46342508
24.09067899,40.08530804,66.28398910,-2.93785921,0.32450497,-2.96595324

>  <Name>
ligand

>  <RI>
0

>  <Rbt.Current_Directory>
/home/itssahil/PROJECTS/Mol_Feturizer/New_Systems/rnas/2HOM

>  <Rbt.Executable>
rbdock ($Id: //depot/dev/client3/rdock/2013.1/src/exe/rbdock.cxx#4 $)

>  <Rbt.Library>
libRbt.so (2013.1, Build901 2013/11/27)

>  <Rbt.Parameter_File>
/export/apps/rDock/src/rDock_2013.1_src/data/scripts/dock_solv.prm

>  <Rbt.Receptor>
prm/pocket_docking_3.prm

>  <SCORE>
-15.8375

>  <SCORE.INTER>
-19.5982

>  <SCORE.INTER.CONST>
1

>  <SCORE.INTER.POLAR>
-2.49199

>  <SCORE.INTER.ROT>
6

>  <SCORE.INTER.SOLV>
21.3631

>  <SCORE.INTER.VDW>
-19.4799

>  <SCORE.INTER.norm>
-0.890829

>  <SCORE.INTRA>
3.71562

>  <SCORE.INTRA.DIHEDRAL>
4.51434

>  <SCORE.INTRA.DIHEDRAL.0>
5.05013

>  <SCORE.INTRA.POLAR>
0

>  <SCORE.INTRA.POLAR.0>
0

>  <SCORE.INTRA.REPUL>
0

>  <SCORE.INTRA.REPUL.0>
0

>  <SCORE.INTRA.SOLV>
0.223274

>  <SCORE.INTRA.SOLV.lig_0>
-54.1265

>  <SCORE.INTRA.VDW>
1.34681

>  <SCORE.INTRA.VDW.0>
-2.1303

>  <SCORE.INTRA.norm>
0.168892

>  <SCORE.RESTR>
0.0450926

>  <SCORE.RESTR.CAVITY>
0.0450926

>  <SCORE.RESTR.norm>
0.00204966

>  <SCORE.SYSTEM>
0

>  <SCORE.SYSTEM.CONST>
0

>  <SCORE.SYSTEM.DIHEDRAL>
0

>  <SCORE.SYSTEM.SOLV>
0

>  <SCORE.SYSTEM.norm>
0

>  <SCORE.heavy>
22

>  <SCORE.norm>
-0.719888

>  <RMSD>
2.650

$$$$
ligand
 OpenBabel11021811443D
libRbt.so/2013.1/901 2013/11/27
 22 23  0  0  0  0  0  0  0  0999 V2000
   18.7126   41.0367   64.8735 C   0  0  0  0  0  0  0  0  0  0  0  0
   25.8761   38.2810   69.1392 C   0  0  0  0  0  0  0  0  0  0  0  0
   28.6528   41.0041   66.6569 P   0  0  1  0  0  0  0  0  0  0  0  0
   19.9833   39.4033   66.0736 N   0  0  0  0  0  0  0  0  0  0  0  0
   27.1906   40.8860   66.8898 O   0  0  0  0  0  0  0  0  0  0  0  0
   26.1114   38.4098   65.1223 S   0  0  0  0  0  0  0  0  0  0  0  0
   24.6738   39.0016   65.7595 C   0  0  0  0  0  0  0  0  0  0  0  0
   19.9376   40.6947   65.5948 C   0  0  0  0  0  0  0  0  0  0  0  0
   29.0131   41.6216   65.3545 O   0  5  0  0  0  0  0  0  0  0  0  0
   24.5755   38.9680   67.1057 N   0  0  0  0  0  0  0  0  0  0  0  0
   20.9045   41.5596   65.7467 N   0  0  0  0  0  0  0  0  0  0  0  0
   29.3187   41.6578   67.8286 O   0  0  0  0  0  0  0  0  0  0  0  0
   25.7411   38.4278   67.6521 C   0  0  2  0  0  0  0  0  0  0  0  0
   22.0561   41.2014   66.4397 C   0  0  0  0  0  0  0  0  0  0  0  0
   23.0376   42.0893   66.5680 N   0  0  0  0  0  0  0  0  0  0  0  0
   26.6913   38.0593   66.7293 C   0  0  1  0  0  0  0  0  0  0  0  0
   22.1556   39.8673   67.0083 C   0  0  0  0  0  0  0  0  0  0  0  0
   28.0202   37.4434   66.9825 C   0  0  0  0  0  0  0  0  0  0  0  0
   21.0933   39.0228   66.7555 C   0  0  0  0  0  0  0  0  0  0  0  0
   29.0110   38.4575   67.4163 C   0  0  0  0  0  0  0  0  0  0  0  0
   23.3344   39.4641   67.8735 C   0  0  0  0  0  0  0  0  0  0  0  0
   29.2480   39.5514   66.5295 O   0  0  0  0  0  0  0  0  0  0  0  0
  1  8  1  0  0  0  0
  3  5  1  1  0  0  0
  3  9  1  0  0  0  0
  3 12  2  0  0  0  0
  3 22  1  0  0  0  0
  4  8  2  0  0  0  0
  4 19  1  0  0  0  0
  6 16  1  0  0  0  0
  6  7  1  0  0  0  0
  7 10  1  0  0  0  0
  8 11  1  0  0  0  0
 10 13  1  0  0  0  0
 10 21  1  0  0  0  0
 11 14  2  0  0  0  0
 13  2  1  6  0  0  0
 13 16  1  0  0  0  0
 14 15  1  0  0  0  0
 14 17  1  0  0  0  0
 16 18  1  6  0  0  0
 17 19  2  0  0  0  0
 17 21  1  0  0  0  0
 18 20  1  0  0  0  0
 20 22  1  0  0  0  0
M  CHG  1   9  -1
M  END
>  <CHROM.1>
6.06587053,101.66540149,-85.04900442,-58.02593730,100.68543233,-48.52697010
25.19447031,39.84636455,66.56669756,-3.05291695,0.08138271,2.89438997

>  <Name>
ligand

>  <RI>
0

>  <Rbt.Current_Directory>
/home/itssahil/PROJECTS/Mol_Feturizer/New_Systems/rnas/2HOM

>  <Rbt.Executable>
rbdock ($Id: //depot/dev/client3/rdock/2013.1/src/exe/rbdock.cxx#4 $)

>  <Rbt.Library>
libRbt.so (2013.1, Build901 2013/11/27)

>  <Rbt.Parameter_File>
/export/apps/rDock/src/rDock_2013.1_src/data/scripts/dock_solv.prm

>  <Rbt.Receptor>
prm/pocket_docking_3.prm

>  <SCORE>
-13.1988

>  <SCORE.INTER>
-14.8904

>  <SCORE.INTER.CONST>
1

>  <SCORE.INTER.POLAR>
-1.18571

>  <SCORE.INTER.ROT>
6

>  <SCORE.INTER.SOLV>
10.0973

>  <SCORE.INTER.VDW>
-16.9403

>  <SCORE.INTER.norm>
-0.676835

>  <SCORE.INTRA>
1.69159

>  <SCORE.INTRA.DIHEDRAL>
5.492

>  <SCORE.INTRA.DIHEDRAL.0>
5.05013

>  <SCORE.INTRA.POLAR>
0

>  <SCORE.INTRA.POLAR.0>
0

>  <SCORE.INTRA.REPUL>
0.00863039

>  <SCORE.INTRA.REPUL.0>
0

>  <SCORE.INTRA.SOLV>
1.06994

>  <SCORE.INTRA.SOLV.lig_0>
-54.1265

>  <SCORE.INTRA.VDW>
-1.63253

>  <SCORE.INTRA.VDW.0>
-2.1303

>  <SCORE.INTRA.norm>
0.0768903

>  <SCORE.RESTR>
0

>  <SCORE.RESTR.CAVITY>
0

>  <SCORE.RESTR.norm>
0

>  <SCORE.SYSTEM>
0

>  <SCORE.SYSTEM.CONST>
0

>  <SCORE.SYSTEM.DIHEDRAL>
0

>  <SCORE.SYSTEM.SOLV>
0

>  <SCORE.SYSTEM.norm>
0

>  <SCORE.heavy>
22

>  <SCORE.norm>
-0.599945

>  <RMSD>
2.668

$$$$
ligand
 OpenBabel11021811443D
libRbt.so/2013.1/901 2013/11/27
 22 23  0  0  0  0  0  0  0  0999 V2000
   18.0868   40.6317   64.6727 C   0  0  0  0  0  0  0  0  0  0  0  0
   25.4645   38.5799   68.3143 C   0  0  0  0  0  0  0  0  0  0  0  0
   30.3839   36.6268   64.9466 P   0  0  1  0  0  0  0  0  0  0  0  0
   19.7731   39.4048   65.8449 N   0  0  0  0  0  0  0  0  0  0  0  0
   31.1306   36.0258   66.0812 O   0  0  0  0  0  0  0  0  0  0  0  0
   26.0430   40.1230   64.6413 S   0  0  0  0  0  0  0  0  0  0  0  0
   24.5916   40.5616   65.3651 C   0  0  0  0  0  0  0  0  0  0  0  0
   19.3955   40.6238   65.3247 C   0  0  0  0  0  0  0  0  0  0  0  0
   30.4810   38.1073   64.8708 O   0  5  0  0  0  0  0  0  0  0  0  0
   24.3789   40.0550   66.5985 N   0  0  0  0  0  0  0  0  0  0  0  0
   20.1357   41.6984   65.3829 N   0  0  0  0  0  0  0  0  0  0  0  0
   30.7407   35.9416   63.6632 O   0  0  0  0  0  0  0  0  0  0  0  0
   25.4631   39.2615   66.9777 C   0  0  2  0  0  0  0  0  0  0  0  0
   21.3756   41.6560   66.0120 C   0  0  0  0  0  0  0  0  0  0  0  0
   22.1232   42.7552   66.0449 N   0  0  0  0  0  0  0  0  0  0  0  0
   26.4658   39.1727   66.0412 C   0  0  1  0  0  0  0  0  0  0  0  0
   21.8205   40.4127   66.6197 C   0  0  0  0  0  0  0  0  0  0  0  0
   27.7329   38.4007   66.1298 C   0  0  0  0  0  0  0  0  0  0  0  0
   20.9773   39.3306   66.4664 C   0  0  0  0  0  0  0  0  0  0  0  0
   27.8092   37.3657   65.0709 C   0  0  0  0  0  0  0  0  0  0  0  0
   23.1068   40.3417   67.4204 C   0  0  0  0  0  0  0  0  0  0  0  0
   28.8460   36.3912   65.1921 O   0  0  0  0  0  0  0  0  0  0  0  0
  1  8  1  0  0  0  0
  3  5  1  1  0  0  0
  3  9  1  0  0  0  0
  3 12  2  0  0  0  0
  3 22  1  0  0  0  0
  4  8  2  0  0  0  0
  4 19  1  0  0  0  0
  6 16  1  0  0  0  0
  6  7  1  0  0  0  0
  7 10  1  0  0  0  0
  8 11  1  0  0  0  0
 10 13  1  0  0  0  0
 10 21  1  0  0  0  0
 11 14  2  0  0  0  0
 13  2  1  6  0  0  0
 13 16  1  0  0  0  0
 14 15  1  0  0  0  0
 14 17  1  0  0  0  0
 16 18  1  6  0  0  0
 17 19  2  0  0  0  0
 17 21  1  0  0  0  0
 18 20  1  0  0  0  0
 20 22  1  0  0  0  0
M  CHG  1   9  -1
M  END
>  <CHROM.1>
37.55754675,-61.39725181,-87.51271821,-168.44752625,-72.83180171,132.95625022
25.36595319,39.06724156,65.67038525,2.85464559,-0.28783672,0.95008724

>  <Name>
ligand

>  <RI>
0

>  <Rbt.Current_Directory>
/home/itssahil/PROJECTS/Mol_Feturizer/New_Systems/rnas/2HOM

>  <Rbt.Executable>
rbdock ($Id: //depot/dev/client3/rdock/2013.1/src/exe/rbdock.cxx#4 $)

>  <Rbt.Library>
libRbt.so (2013.1, Build901 2013/11/27)

>  <Rbt.Parameter_File>
/export/apps/rDock/src/rDock_2013.1_src/data/scripts/dock_solv.prm

>  <Rbt.Receptor>
prm/pocket_docking_6.prm

>  <SCORE>
-16.8863

>  <SCORE.INTER>
-20.6312

>  <SCORE.INTER.CONST>
1

>  <SCORE.INTER.POLAR>
-1.30767

>  <SCORE.INTER.ROT>
6

>  <SCORE.INTER.SOLV>
13.9036

>  <SCORE.INTER.VDW>
-21.6298

>  <SCORE.INTER.norm>
-0.937783

>  <SCORE.INTRA>
3.7449

>  <SCORE.INTRA.DIHEDRAL>
3.65485

>  <SCORE.INTRA.DIHEDRAL.0>
5.05013

>  <SCORE.INTRA.POLAR>
0

>  <SCORE.INTRA.POLAR.0>
0

>  <SCORE.INTRA.REPUL>
0

>  <SCORE.INTRA.REPUL.0>
0

>  <SCORE.INTRA.SOLV>
2.23599

>  <SCORE.INTRA.SOLV.lig_0>
-54.1265

>  <SCORE.INTRA.VDW>
0.79948

>  <SCORE.INTRA.VDW.0>
-2.1303

>  <SCORE.INTRA.norm>
0.170223

>  <SCORE.RESTR>
0

>  <SCORE.RESTR.CAVITY>
0

>  <SCORE.RESTR.norm>
0

>  <SCORE.SYSTEM>
0

>  <SCORE.SYSTEM.CONST>
0

>  <SCORE.SYSTEM.DIHEDRAL>
0

>  <SCORE.SYSTEM.SOLV>
0

>  <SCORE.SYSTEM.norm>
0

>  <SCORE.heavy>
22

>  <SCORE.norm>
-0.76756

>  <RMSD>
2.669

$$$$
ligand
 OpenBabel11021811443D
libRbt.so/2013.1/901 2013/11/27
 22 23  0  0  0  0  0  0  0  0999 V2000
   20.6914   44.4638   65.7163 C   0  0  0  0  0  0  0  0  0  0  0  0
   23.0559   38.2967   64.4203 C   0  0  0  0  0  0  0  0  0  0  0  0
   29.1631   39.5154   66.5378 P   0  0  1  0  0  0  0  0  0  0  0  0
   21.8386   42.7384   66.9122 N   0  0  0  0  0  0  0  0  0  0  0  0
   28.8850   40.2158   67.8178 O   0  0  0  0  0  0  0  0  0  0  0  0
   25.4100   37.9628   67.6689 S   0  0  0  0  0  0  0  0  0  0  0  0
   23.8265   38.4199   67.9949 C   0  0  0  0  0  0  0  0  0  0  0  0
   20.8232   43.0421   66.0313 C   0  0  0  0  0  0  0  0  0  0  0  0
   29.7318   40.3880   65.4783 O   0  5  0  0  0  0  0  0  0  0  0  0
   23.0201   38.5365   66.9183 N   0  0  0  0  0  0  0  0  0  0  0  0
   20.0187   42.1513   65.5162 N   0  0  0  0  0  0  0  0  0  0  0  0
   29.9686   38.2766   66.7828 O   0  0  0  0  0  0  0  0  0  0  0  0
   23.7344   38.2356   65.7571 C   0  0  2  0  0  0  0  0  0  0  0  0
   20.1729   40.8065   65.8364 C   0  0  0  0  0  0  0  0  0  0  0  0
   19.3327   39.9163   65.3168 N   0  0  0  0  0  0  0  0  0  0  0  0
   25.0530   37.9052   65.9628 C   0  0  1  0  0  0  0  0  0  0  0  0
   21.2501   40.4086   66.7278 C   0  0  0  0  0  0  0  0  0  0  0  0
   26.0766   37.5543   64.9438 C   0  0  0  0  0  0  0  0  0  0  0  0
   22.0161   41.4344   67.2440 C   0  0  0  0  0  0  0  0  0  0  0  0
   27.4494   37.7523   65.4677 C   0  0  0  0  0  0  0  0  0  0  0  0
   21.5375   38.9474   67.0151 C   0  0  0  0  0  0  0  0  0  0  0  0
   27.7877   39.0652   65.9163 O   0  0  0  0  0  0  0  0  0  0  0  0
  1  8  1  0  0  0  0
  3  5  1  1  0  0  0
  3  9  1  0  0  0  0
  3 12  2  0  0  0  0
  3 22  1  0  0  0  0
  4  8  2  0  0  0  0
  4 19  1  0  0  0  0
  6 16  1  0  0  0  0
  6  7  1  0  0  0  0
  7 10  1  0  0  0  0
  8 11  1  0  0  0  0
 10 13  1  0  0  0  0
 10 21  1  0  0  0  0
 11 14  2  0  0  0  0
 13  2  1  6  0  0  0
 13 16  1  0  0  0  0
 14 15  1  0  0  0  0
 14 17  1  0  0  0  0
 16 18  1  6  0  0  0
 17 19  2  0  0  0  0
 17 21  1  0  0  0  0
 18 20  1  0  0  0  0
 20 22  1  0  0  0  0
M  CHG  1   9  -1
M  END
>  <CHROM.1>
98.64239600,-20.61105927,132.82075859,-58.47719352,178.63055019,-128.39839147
24.62300777,39.69807630,66.34781902,-2.83433213,0.04951396,-3.13458456

>  <Name>
ligand

>  <RI>
0

>  <Rbt.Current_Directory>
/home/itssahil/PROJECTS/Mol_Feturizer/New_Systems/rnas/2HOM

>  <Rbt.Executable>
rbdock ($Id: //depot/dev/client3/rdock/2013.1/src/exe/rbdock.cxx#4 $)

>  <Rbt.Library>
libRbt.so (2013.1, Build901 2013/11/27)

>  <Rbt.Parameter_File>
/export/apps/rDock/src/rDock_2013.1_src/data/scripts/dock_solv.prm

>  <Rbt.Receptor>
prm/pocket_docking_8.prm

>  <SCORE>
-16.7416

>  <SCORE.INTER>
-18.9363

>  <SCORE.INTER.CONST>
1

>  <SCORE.INTER.POLAR>
-1.63459

>  <SCORE.INTER.ROT>
6

>  <SCORE.INTER.SOLV>
15.886

>  <SCORE.INTER.VDW>
-20.0709

>  <SCORE.INTER.norm>
-0.860742

>  <SCORE.INTRA>
2.19474

>  <SCORE.INTRA.DIHEDRAL>
2.06017

>  <SCORE.INTRA.DIHEDRAL.0>
5.05013

>  <SCORE.INTRA.POLAR>
0

>  <SCORE.INTRA.POLAR.0>
0

>  <SCORE.INTRA.REPUL>
0

>  <SCORE.INTRA.REPUL.0>
0

>  <SCORE.INTRA.SOLV>
1.05107

>  <SCORE.INTRA.SOLV.lig_0>
-54.1265

>  <SCORE.INTRA.VDW>
0.63912

>  <SCORE.INTRA.VDW.0>
-2.1303

>  <SCORE.INTRA.norm>
0.0997609

>  <SCORE.RESTR>
0

>  <SCORE.RESTR.CAVITY>
0

>  <SCORE.RESTR.norm>
0

>  <SCORE.SYSTEM>
0

>  <SCORE.SYSTEM.CONST>
0

>  <SCORE.SYSTEM.DIHEDRAL>
0

>  <SCORE.SYSTEM.SOLV>
0

>  <SCORE.SYSTEM.norm>
0

>  <SCORE.heavy>
22

>  <SCORE.norm>
-0.760982

>  <RMSD>
2.671

$$$$
ligand
 OpenBabel11021811443D
libRbt.so/2013.1/901 2013/11/27
 22 23  0  0  0  0  0  0  0  0999 V2000
   17.8408   40.4043   64.3603 C   0  0  0  0  0  0  0  0  0  0  0  0
   24.7475   38.2660   68.2242 C   0  0  0  0  0  0  0  0  0  0  0  0
   29.7491   36.4440   64.8018 P   0  0  1  0  0  0  0  0  0  0  0  0
   19.4044   39.3678   65.8450 N   0  0  0  0  0  0  0  0  0  0  0  0
   28.6507   35.4902   64.5019 O   0  0  0  0  0  0  0  0  0  0  0  0
   25.9000   40.0305   64.7941 S   0  0  0  0  0  0  0  0  0  0  0  0
   24.4552   40.6077   65.4281 C   0  0  0  0  0  0  0  0  0  0  0  0
   19.1279   40.4604   65.0519 C   0  0  0  0  0  0  0  0  0  0  0  0
   30.2704   36.3540   66.1901 O   0  5  0  0  0  0  0  0  0  0  0  0
   24.0515   40.0293   66.5794 N   0  0  0  0  0  0  0  0  0  0  0  0
   19.9405   41.4718   64.9009 N   0  0  0  0  0  0  0  0  0  0  0  0
   30.8199   36.3546   63.7582 O   0  0  0  0  0  0  0  0  0  0  0  0
   24.9743   39.0570   66.9695 C   0  0  2  0  0  0  0  0  0  0  0  0
   21.1571   41.4936   65.5749 C   0  0  0  0  0  0  0  0  0  0  0  0
   21.9795   42.5228   65.3942 N   0  0  0  0  0  0  0  0  0  0  0  0
   26.0459   38.9082   66.1210 C   0  0  1  0  0  0  0  0  0  0  0  0
   21.4966   40.3928   66.4615 C   0  0  0  0  0  0  0  0  0  0  0  0
   27.1813   37.9567   66.2415 C   0  0  0  0  0  0  0  0  0  0  0  0
   20.5833   39.3592   66.5171 C   0  0  0  0  0  0  0  0  0  0  0  0
   28.4519   38.5729   65.7895 C   0  0  0  0  0  0  0  0  0  0  0  0
   22.7528   40.4223   67.3109 C   0  0  0  0  0  0  0  0  0  0  0  0
   29.1601   37.9037   64.7455 O   0  0  0  0  0  0  0  0  0  0  0  0
  1  8  1  0  0  0  0
  3  5  1  6  0  0  0
  3  9  1  0  0  0  0
  3 12  2  0  0  0  0
  3 22  1  0  0  0  0
  4  8  2  0  0  0  0
  4 19  1  0  0  0  0
  6 16  1  0  0  0  0
  6  7  1  0  0  0  0
  7 10  1  0  0  0  0
  8 11  1  0  0  0  0
 10 13  1  0  0  0  0
 10 21  1  0  0  0  0
 11 14  2  0  0  0  0
 13  2  1  6  0  0  0
 13 16  1  0  0  0  0
 14 15  1  0  0  0  0
 14 17  1  0  0  0  0
 16 18  1  6  0  0  0
 17 19  2  0  0  0  0
 17 21  1  0  0  0  0
 18 20  1  0  0  0  0
 20 22  1  0  0  0  0
M  CHG  1   9  -1
M  END
>  <CHROM.1>
53.00416581,37.47672381,-80.91925681,-123.20322956,-61.29779007,82.25967867
25.01027993,38.98783870,65.58300763,-2.92421163,-0.33540794,2.30774557

>  <Name>
ligand

>  <RI>
0

>  <Rbt.Current_Directory>
/home/itssahil/PROJECTS/Mol_Feturizer/New_Systems/rnas/2HOM

>  <Rbt.Executable>
rbdock ($Id: //depot/dev/client3/rdock/2013.1/src/exe/rbdock.cxx#4 $)

>  <Rbt.Library>
libRbt.so (2013.1, Build901 2013/11/27)

>  <Rbt.Parameter_File>
/export/apps/rDock/src/rDock_2013.1_src/data/scripts/dock_solv.prm

>  <Rbt.Receptor>
prm/pocket_docking_7.prm

>  <SCORE>
-18.1173

>  <SCORE.INTER>
-22.8844

>  <SCORE.INTER.CONST>
1

>  <SCORE.INTER.POLAR>
-1.62808

>  <SCORE.INTER.ROT>
6

>  <SCORE.INTER.SOLV>
13.8571

>  <SCORE.INTER.VDW>
-22.0484

>  <SCORE.INTER.norm>
-1.0402

>  <SCORE.INTRA>
4.76715

>  <SCORE.INTRA.DIHEDRAL>
6.17605

>  <SCORE.INTRA.DIHEDRAL.0>
5.05013

>  <SCORE.INTRA.POLAR>
0

>  <SCORE.INTRA.POLAR.0>
0

>  <SCORE.INTRA.REPUL>
0

>  <SCORE.INTRA.REPUL.0>
0

>  <SCORE.INTRA.SOLV>
2.0355

>  <SCORE.INTRA.SOLV.lig_0>
-54.1265

>  <SCORE.INTRA.VDW>
0.661374

>  <SCORE.INTRA.VDW.0>
-2.1303

>  <SCORE.INTRA.norm>
0.216689

>  <SCORE.RESTR>
0

>  <SCORE.RESTR.CAVITY>
0

>  <SCORE.RESTR.norm>
0

>  <SCORE.SYSTEM>
0

>  <SCORE.SYSTEM.CONST>
0

>  <SCORE.SYSTEM.DIHEDRAL>
0

>  <SCORE.SYSTEM.SOLV>
0

>  <SCORE.SYSTEM.norm>
0

>  <SCORE.heavy>
22

>  <SCORE.norm>
-0.823513

>  <RMSD>
2.686

$$$$
ligand
 OpenBabel11021811443D
libRbt.so/2013.1/901 2013/11/27
 22 23  0  0  0  0  0  0  0  0999 V2000
   18.2540   40.6091   64.6107 C   0  0  0  0  0  0  0  0  0  0  0  0
   23.8958   37.5922   66.3671 C   0  0  0  0  0  0  0  0  0  0  0  0
   29.6447   36.2530   64.8467 P   0  0  1  0  0  0  0  0  0  0  0  0
   19.6748   39.3172   66.0374 N   0  0  0  0  0  0  0  0  0  0  0  0
   30.8074   35.8582   64.0109 O   0  0  0  0  0  0  0  0  0  0  0  0
   26.6377   40.5387   66.4518 S   0  0  0  0  0  0  0  0  0  0  0  0
   25.2057   40.8905   67.2570 C   0  0  0  0  0  0  0  0  0  0  0  0
   19.4780   40.5264   65.4062 C   0  0  0  0  0  0  0  0  0  0  0  0
   28.4832   35.3322   64.7464 O   0  5  0  0  0  0  0  0  0  0  0  0
   24.2731   39.9143   67.2412 N   0  0  0  0  0  0  0  0  0  0  0  0
   20.3108   41.5296   65.4839 N   0  0  0  0  0  0  0  0  0  0  0  0
   30.0774   36.5121   66.2571 O   0  0  0  0  0  0  0  0  0  0  0  0
   24.7529   38.8128   66.5303 C   0  0  2  0  0  0  0  0  0  0  0  0
   21.4658   41.4174   66.2509 C   0  0  0  0  0  0  0  0  0  0  0  0
   22.3111   42.4426   66.3029 N   0  0  0  0  0  0  0  0  0  0  0  0
   26.0202   38.9660   66.0195 C   0  0  1  0  0  0  0  0  0  0  0  0
   21.7173   40.1841   66.9781 C   0  0  0  0  0  0  0  0  0  0  0  0
   26.8017   37.9961   65.2085 C   0  0  0  0  0  0  0  0  0  0  0  0
   20.7921   39.1761   66.7948 C   0  0  0  0  0  0  0  0  0  0  0  0
   28.1741   38.4930   64.9480 C   0  0  0  0  0  0  0  0  0  0  0  0
   22.8970   40.0511   67.9221 C   0  0  0  0  0  0  0  0  0  0  0  0
   29.0679   37.6036   64.2775 O   0  0  0  0  0  0  0  0  0  0  0  0
  1  8  1  0  0  0  0
  3  5  1  6  0  0  0
  3  9  1  0  0  0  0
  3 12  2  0  0  0  0
  3 22  1  0  0  0  0
  4  8  2  0  0  0  0
  4 19  1  0  0  0  0
  6 16  1  0  0  0  0
  6  7  1  0  0  0  0
  7 10  1  0  0  0  0
  8 11  1  0  0  0  0
 10 13  1  0  0  0  0
 10 21  1  0  0  0  0
 11 14  2  0  0  0  0
 13  2  1  6  0  0  0
 13 16  1  0  0  0  0
 14 15  1  0  0  0  0
 14 17  1  0  0  0  0
 16 18  1  6  0  0  0
 17 19  2  0  0  0  0
 17 21  1  0  0  0  0
 18 20  1  0  0  0  0
 20 22  1  0  0  0  0
M  CHG  1   9  -1
M  END
>  <CHROM.1>
109.08198285,5.36884759,-73.95241631,174.68168770,-66.95361249,-163.92267599
25.11349020,38.92447980,65.83190087,2.71472036,-0.08261524,0.45625308

>  <Name>
ligand

>  <RI>
0

>  <Rbt.Current_Directory>
/home/itssahil/PROJECTS/Mol_Feturizer/New_Systems/rnas/2HOM

>  <Rbt.Executable>
rbdock ($Id: //depot/dev/client3/rdock/2013.1/src/exe/rbdock.cxx#4 $)

>  <Rbt.Library>
libRbt.so (2013.1, Build901 2013/11/27)

>  <Rbt.Parameter_File>
/export/apps/rDock/src/rDock_2013.1_src/data/scripts/dock_solv.prm

>  <Rbt.Receptor>
prm/pocket_docking_7.prm

>  <SCORE>
-20.5124

>  <SCORE.INTER>
-23.2187

>  <SCORE.INTER.CONST>
1

>  <SCORE.INTER.POLAR>
-1.63373

>  <SCORE.INTER.ROT>
6

>  <SCORE.INTER.SOLV>
16.2998

>  <SCORE.INTER.VDW>
-23.0666

>  <SCORE.INTER.norm>
-1.0554

>  <SCORE.INTRA>
2.70634

>  <SCORE.INTRA.DIHEDRAL>
0.297419

>  <SCORE.INTRA.DIHEDRAL.0>
5.05013

>  <SCORE.INTRA.POLAR>
0

>  <SCORE.INTRA.POLAR.0>
0

>  <SCORE.INTRA.REPUL>
0

>  <SCORE.INTRA.REPUL.0>
0

>  <SCORE.INTRA.SOLV>
2.81175

>  <SCORE.INTRA.SOLV.lig_0>
-54.1265

>  <SCORE.INTRA.VDW>
1.15176

>  <SCORE.INTRA.VDW.0>
-2.1303

>  <SCORE.INTRA.norm>
0.123016

>  <SCORE.RESTR>
0

>  <SCORE.RESTR.CAVITY>
0

>  <SCORE.RESTR.norm>
0

>  <SCORE.SYSTEM>
0

>  <SCORE.SYSTEM.CONST>
0

>  <SCORE.SYSTEM.DIHEDRAL>
0

>  <SCORE.SYSTEM.SOLV>
0

>  <SCORE.SYSTEM.norm>
0

>  <SCORE.heavy>
22

>  <SCORE.norm>
-0.932381

>  <RMSD>
2.689

$$$$
ligand
 OpenBabel11021811443D
libRbt.so/2013.1/901 2013/11/27
 22 23  0  0  0  0  0  0  0  0999 V2000
   17.0188   39.2447   63.9589 C   0  0  0  0  0  0  0  0  0  0  0  0
   22.9247   39.9828   68.0788 C   0  0  0  0  0  0  0  0  0  0  0  0
   28.8953   37.0508   65.5079 P   0  0  1  0  0  0  0  0  0  0  0  0
   18.0548   41.1607   64.9484 N   0  0  0  0  0  0  0  0  0  0  0  0
   28.9539   35.5716   65.3858 O   0  0  0  0  0  0  0  0  0  0  0  0
   25.1215   40.5185   64.7481 S   0  0  0  0  0  0  0  0  0  0  0  0
   23.6875   41.3928   64.7899 C   0  0  0  0  0  0  0  0  0  0  0  0
   18.2156   39.8558   64.5353 C   0  0  0  0  0  0  0  0  0  0  0  0
   29.8980   37.6240   66.4423 O   0  5  0  0  0  0  0  0  0  0  0  0
   22.9363   41.2278   65.8996 N   0  0  0  0  0  0  0  0  0  0  0  0
   19.3333   39.1902   64.6520 N   0  0  0  0  0  0  0  0  0  0  0  0
   28.9127   37.6893   64.1530 O   0  0  0  0  0  0  0  0  0  0  0  0
   23.5662   40.3353   66.7690 C   0  0  2  0  0  0  0  0  0  0  0  0
   20.4536   39.8026   65.2040 C   0  0  0  0  0  0  0  0  0  0  0  0
   21.5774   39.1033   65.3318 N   0  0  0  0  0  0  0  0  0  0  0  0
   24.7645   39.8383   66.3137 C   0  0  1  0  0  0  0  0  0  0  0  0
   20.3680   41.1917   65.6239 C   0  0  0  0  0  0  0  0  0  0  0  0
   25.6641   38.8645   66.9857 C   0  0  0  0  0  0  0  0  0  0  0  0
   19.1298   41.7871   65.4904 C   0  0  0  0  0  0  0  0  0  0  0  0
   26.9555   38.7389   66.2682 C   0  0  0  0  0  0  0  0  0  0  0  0
   21.5887   41.9427   66.1202 C   0  0  0  0  0  0  0  0  0  0  0  0
   27.5273   37.4328   66.1887 O   0  0  0  0  0  0  0  0  0  0  0  0
  1  8  1  0  0  0  0
  3  5  1  6  0  0  0
  3  9  1  0  0  0  0
  3 12  2  0  0  0  0
  3 22  1  0  0  0  0
  4  8  2  0  0  0  0
  4 19  1  0  0  0  0
  6 16  1  0  0  0  0
  6  7  1  0  0  0  0
  7 10  1  0  0  0  0
  8 11  1  0  0  0  0
 10 13  1  0  0  0  0
 10 21  1  0  0  0  0
 11 14  2  0  0  0  0
 13  2  1  6  0  0  0
 13 16  1  0  0  0  0
 14 15  1  0  0  0  0
 14 17  1  0  0  0  0
 16 18  1  6  0  0  0
 17 19  2  0  0  0  0
 17 21  1  0  0  0  0
 18 20  1  0  0  0  0
 20 22  1  0  0  0  0
M  CHG  1   9  -1
M  END
>  <CHROM.1>
90.41607579,9.21004560,10.88759044,-141.68909930,-178.77071544,-167.42904497
23.98423616,39.35281771,65.56226891,2.87571976,-0.18687043,0.41496466

>  <Name>
ligand

>  <RI>
0

>  <Rbt.Current_Directory>
/home/itssahil/PROJECTS/Mol_Feturizer/New_Systems/rnas/2HOM

>  <Rbt.Executable>
rbdock ($Id: //depot/dev/client3/rdock/2013.1/src/exe/rbdock.cxx#4 $)

>  <Rbt.Library>
libRbt.so (2013.1, Build901 2013/11/27)

>  <Rbt.Parameter_File>
/export/apps/rDock/src/rDock_2013.1_src/data/scripts/dock_solv.prm

>  <Rbt.Receptor>
prm/pocket_docking_5.prm

>  <SCORE>
-20.6953

>  <SCORE.INTER>
-26.8127

>  <SCORE.INTER.CONST>
1

>  <SCORE.INTER.POLAR>
-1.63459

>  <SCORE.INTER.ROT>
6

>  <SCORE.INTER.SOLV>
11.5229

>  <SCORE.INTER.VDW>
-23.8675

>  <SCORE.INTER.norm>
-1.21876

>  <SCORE.INTRA>
6.11738

>  <SCORE.INTRA.DIHEDRAL>
3.75397

>  <SCORE.INTRA.DIHEDRAL.0>
5.05013

>  <SCORE.INTRA.POLAR>
0

>  <SCORE.INTRA.POLAR.0>
0

>  <SCORE.INTRA.REPUL>
0

>  <SCORE.INTRA.REPUL.0>
0

>  <SCORE.INTRA.SOLV>
5.69683

>  <SCORE.INTRA.SOLV.lig_0>
-54.1265

>  <SCORE.INTRA.VDW>
1.39198

>  <SCORE.INTRA.VDW.0>
-2.1303

>  <SCORE.INTRA.norm>
0.278063

>  <SCORE.RESTR>
0

>  <SCORE.RESTR.CAVITY>
0

>  <SCORE.RESTR.norm>
0

>  <SCORE.SYSTEM>
0

>  <SCORE.SYSTEM.CONST>
0

>  <SCORE.SYSTEM.DIHEDRAL>
0

>  <SCORE.SYSTEM.SOLV>
0

>  <SCORE.SYSTEM.norm>
0

>  <SCORE.heavy>
22

>  <SCORE.norm>
-0.940696

>  <RMSD>
2.694

$$$$
ligand
 OpenBabel11021811443D
libRbt.so/2013.1/901 2013/11/27
 22 23  0  0  0  0  0  0  0  0999 V2000
   17.3355   39.5164   63.8560 C   0  0  0  0  0  0  0  0  0  0  0  0
   24.0326   40.0195   67.7448 C   0  0  0  0  0  0  0  0  0  0  0  0
   28.7562   37.4678   65.8348 P   0  0  1  0  0  0  0  0  0  0  0  0
   18.4443   41.3740   64.8773 N   0  0  0  0  0  0  0  0  0  0  0  0
   28.7394   36.8680   64.4760 O   0  0  0  0  0  0  0  0  0  0  0  0
   24.9914   41.6465   64.1895 S   0  0  0  0  0  0  0  0  0  0  0  0
   23.4726   42.0720   64.7681 C   0  0  0  0  0  0  0  0  0  0  0  0
   18.4839   40.0234   64.6057 C   0  0  0  0  0  0  0  0  0  0  0  0
   29.3885   36.6103   66.8702 O   0  5  0  0  0  0  0  0  0  0  0  0
   23.1323   41.5373   65.9603 N   0  0  0  0  0  0  0  0  0  0  0  0
   19.4513   39.2341   64.9891 N   0  0  0  0  0  0  0  0  0  0  0  0
   29.3187   38.8553   65.7879 O   0  0  0  0  0  0  0  0  0  0  0  0
   24.1708   40.7322   66.4317 C   0  0  2  0  0  0  0  0  0  0  0  0
   20.5300   39.7500   65.7000 C   0  0  0  0  0  0  0  0  0  0  0  0
   21.4963   38.9278   66.0981 N   0  0  0  0  0  0  0  0  0  0  0  0
   25.2657   40.6626   65.6031 C   0  0  1  0  0  0  0  0  0  0  0  0
   20.5746   41.1744   65.9864 C   0  0  0  0  0  0  0  0  0  0  0  0
   26.5164   39.8853   65.8051 C   0  0  0  0  0  0  0  0  0  0  0  0
   19.4828   41.9085   65.5684 C   0  0  0  0  0  0  0  0  0  0  0  0
   26.2521   38.4264   65.7972 C   0  0  0  0  0  0  0  0  0  0  0  0
   21.7814   41.8082   66.6516 C   0  0  0  0  0  0  0  0  0  0  0  0
   27.2683   37.5818   66.3388 O   0  0  0  0  0  0  0  0  0  0  0  0
  1  8  1  0  0  0  0
  3  5  1  6  0  0  0
  3  9  1  0  0  0  0
  3 12  2  0  0  0  0
  3 22  1  0  0  0  0
  4  8  2  0  0  0  0
  4 19  1  0  0  0  0
  6 16  1  0  0  0  0
  6  7  1  0  0  0  0
  7 10  1  0  0  0  0
  8 11  1  0  0  0  0
 10 13  1  0  0  0  0
 10 21  1  0  0  0  0
 11 14  2  0  0  0  0
 13  2  1  6  0  0  0
 13 16  1  0  0  0  0
 14 15  1  0  0  0  0
 14 17  1  0  0  0  0
 16 18  1  6  0  0  0
 17 19  2  0  0  0  0
 17 21  1  0  0  0  0
 18 20  1  0  0  0  0
 20 22  1  0  0  0  0
M  CHG  1   9  -1
M  END
>  <CHROM.1>
70.30349773,-114.61975572,53.81826237,-163.15938802,-59.47139359,-66.82433491
24.09853438,39.70139150,65.57800344,2.83742662,-0.06253338,-0.05269019

>  <Name>
ligand

>  <RI>
0

>  <Rbt.Current_Directory>
/home/itssahil/PROJECTS/Mol_Feturizer/New_Systems/rnas/2HOM

>  <Rbt.Executable>
rbdock ($Id: //depot/dev/client3/rdock/2013.1/src/exe/rbdock.cxx#4 $)

>  <Rbt.Library>
libRbt.so (2013.1, Build901 2013/11/27)

>  <Rbt.Parameter_File>
/export/apps/rDock/src/rDock_2013.1_src/data/scripts/dock_solv.prm

>  <Rbt.Receptor>
prm/pocket_docking_3.prm

>  <SCORE>
-20.5185

>  <SCORE.INTER>
-23.1624

>  <SCORE.INTER.CONST>
1

>  <SCORE.INTER.POLAR>
-1.63238

>  <SCORE.INTER.ROT>
6

>  <SCORE.INTER.SOLV>
9.96373

>  <SCORE.INTER.VDW>
-20.9215

>  <SCORE.INTER.norm>
-1.05283

>  <SCORE.INTRA>
2.52607

>  <SCORE.INTRA.DIHEDRAL>
0.63737

>  <SCORE.INTRA.DIHEDRAL.0>
5.05013

>  <SCORE.INTRA.POLAR>
0

>  <SCORE.INTRA.POLAR.0>
0

>  <SCORE.INTRA.REPUL>
0

>  <SCORE.INTRA.REPUL.0>
0

>  <SCORE.INTRA.SOLV>
4.19501

>  <SCORE.INTRA.SOLV.lig_0>
-54.1265

>  <SCORE.INTRA.VDW>
0.109881

>  <SCORE.INTRA.VDW.0>
-2.1303

>  <SCORE.INTRA.norm>
0.114822

>  <SCORE.RESTR>
0.117783

>  <SCORE.RESTR.CAVITY>
0.117783

>  <SCORE.RESTR.norm>
0.00535376

>  <SCORE.SYSTEM>
0

>  <SCORE.SYSTEM.CONST>
0

>  <SCORE.SYSTEM.DIHEDRAL>
0

>  <SCORE.SYSTEM.SOLV>
0

>  <SCORE.SYSTEM.norm>
0

>  <SCORE.heavy>
22

>  <SCORE.norm>
-0.93266

>  <RMSD>
2.700

$$$$
ligand
 OpenBabel11021811443D
libRbt.so/2013.1/901 2013/11/27
 22 23  0  0  0  0  0  0  0  0999 V2000
   17.9602   40.3848   64.7485 C   0  0  0  0  0  0  0  0  0  0  0  0
   25.4378   43.1544   67.5142 C   0  0  0  0  0  0  0  0  0  0  0  0
   29.1312   38.4146   65.7631 P   0  0  1  0  0  0  0  0  0  0  0  0
   19.2428   42.4011   64.8620 N   0  0  0  0  0  0  0  0  0  0  0  0
   29.5676   39.3049   64.6571 O   0  0  0  0  0  0  0  0  0  0  0  0
   25.6529   40.9284   64.1667 S   0  0  0  0  0  0  0  0  0  0  0  0
   24.1735   41.6866   64.4103 C   0  0  0  0  0  0  0  0  0  0  0  0
   19.2138   41.0455   65.1088 C   0  0  0  0  0  0  0  0  0  0  0  0
   27.8628   37.6890   65.4951 O   0  5  0  0  0  0  0  0  0  0  0  0
   24.0812   42.4392   65.5275 N   0  0  0  0  0  0  0  0  0  0  0  0
   20.2080   40.3825   65.6360 N   0  0  0  0  0  0  0  0  0  0  0  0
   30.2523   37.5153   66.1850 O   0  0  0  0  0  0  0  0  0  0  0  0
   25.2880   42.3962   66.2281 C   0  0  2  0  0  0  0  0  0  0  0  0
   21.3873   41.0423   65.9659 C   0  0  0  0  0  0  0  0  0  0  0  0
   22.3818   40.3542   66.5189 N   0  0  0  0  0  0  0  0  0  0  0  0
   26.2629   41.6205   65.6467 C   0  0  1  0  0  0  0  0  0  0  0  0
   21.5034   42.4657   65.6948 C   0  0  0  0  0  0  0  0  0  0  0  0
   27.6378   41.3555   66.1453 C   0  0  0  0  0  0  0  0  0  0  0  0
   20.3800   43.0739   65.1717 C   0  0  0  0  0  0  0  0  0  0  0  0
   27.6574   40.2165   67.0942 C   0  0  0  0  0  0  0  0  0  0  0  0
   22.8057   43.2089   65.9232 C   0  0  0  0  0  0  0  0  0  0  0  0
   28.7615   39.3156   67.0010 O   0  0  0  0  0  0  0  0  0  0  0  0
  1  8  1  0  0  0  0
  3  5  1  6  0  0  0
  3  9  1  0  0  0  0
  3 12  2  0  0  0  0
  3 22  1  0  0  0  0
  4  8  2  0  0  0  0
  4 19  1  0  0  0  0
  6 16  1  0  0  0  0
  6  7  1  0  0  0  0
  7 10  1  0  0  0  0
  8 11  1  0  0  0  0
 10 13  1  0  0  0  0
 10 21  1  0  0  0  0
 11 14  2  0  0  0  0
 13  2  1  1  0  0  0
 13 16  1  0  0  0  0
 14 15  1  0  0  0  0
 14 17  1  0  0  0  0
 16 18  1  1  0  0  0
 17 19  2  0  0  0  0
 17 21  1  0  0  0  0
 18 20  1  0  0  0  0
 20 22  1  0  0  0  0
M  CHG  1   9  -1
M  END
>  <CHROM.1>
40.80271214,-93.45427663,39.33229733,140.51745661,-62.66506296,67.94446544
24.87399518,40.70843461,65.63995641,2.85623009,-0.12419042,0.19872032

>  <Name>
ligand

>  <RI>
0

>  <Rbt.Current_Directory>
/home/itssahil/PROJECTS/Mol_Feturizer/New_Systems/rnas/2HOM

>  <Rbt.Executable>
rbdock ($Id: //depot/dev/client3/rdock/2013.1/src/exe/rbdock.cxx#4 $)

>  <Rbt.Library>
libRbt.so (2013.1, Build901 2013/11/27)

>  <Rbt.Parameter_File>
/export/apps/rDock/src/rDock_2013.1_src/data/scripts/dock_solv.prm

>  <Rbt.Receptor>
prm/pocket_docking_4.prm

>  <SCORE>
-17.7225

>  <SCORE.INTER>
-20.819

>  <SCORE.INTER.CONST>
1

>  <SCORE.INTER.POLAR>
-1.63459

>  <SCORE.INTER.ROT>
6

>  <SCORE.INTER.SOLV>
7.99776

>  <SCORE.INTER.VDW>
-18.6966

>  <SCORE.INTER.norm>
-0.946316

>  <SCORE.INTRA>
3.09644

>  <SCORE.INTRA.DIHEDRAL>
4.02313

>  <SCORE.INTRA.DIHEDRAL.0>
5.05013

>  <SCORE.INTRA.POLAR>
0

>  <SCORE.INTRA.POLAR.0>
0

>  <SCORE.INTRA.REPUL>
0

>  <SCORE.INTRA.REPUL.0>
0

>  <SCORE.INTRA.SOLV>
3.24759

>  <SCORE.INTRA.SOLV.lig_0>
-54.1265

>  <SCORE.INTRA.VDW>
-0.53892

>  <SCORE.INTRA.VDW.0>
-2.1303

>  <SCORE.INTRA.norm>
0.140747

>  <SCORE.RESTR>
0

>  <SCORE.RESTR.CAVITY>
0

>  <SCORE.RESTR.norm>
0

>  <SCORE.SYSTEM>
0

>  <SCORE.SYSTEM.CONST>
0

>  <SCORE.SYSTEM.DIHEDRAL>
0

>  <SCORE.SYSTEM.SOLV>
0

>  <SCORE.SYSTEM.norm>
0

>  <SCORE.heavy>
22

>  <SCORE.norm>
-0.805569

>  <RMSD>
2.724

$$$$
ligand
 OpenBabel11021811443D
libRbt.so/2013.1/901 2013/11/27
 22 23  0  0  0  0  0  0  0  0999 V2000
   17.1924   40.0204   64.0388 C   0  0  0  0  0  0  0  0  0  0  0  0
   22.8637   39.9248   68.3107 C   0  0  0  0  0  0  0  0  0  0  0  0
   28.4634   38.7593   69.4576 P   0  0  1  0  0  0  0  0  0  0  0  0
   18.8889   41.5607   64.7262 N   0  0  0  0  0  0  0  0  0  0  0  0
   28.2302   40.1693   69.8622 O   0  0  0  0  0  0  0  0  0  0  0  0
   25.1787   38.1108   65.5617 S   0  0  0  0  0  0  0  0  0  0  0  0
   24.2753   39.4006   64.9761 C   0  0  0  0  0  0  0  0  0  0  0  0
   18.5766   40.2467   64.4519 C   0  0  0  0  0  0  0  0  0  0  0  0
   29.5568   38.5839   68.4671 O   0  5  0  0  0  0  0  0  0  0  0  0
   23.4927   40.0234   65.8830 N   0  0  0  0  0  0  0  0  0  0  0  0
   19.4269   39.2611   64.5593 N   0  0  0  0  0  0  0  0  0  0  0  0
   28.6100   37.8853   70.6652 O   0  0  0  0  0  0  0  0  0  0  0  0
   23.6368   39.4138   67.1307 C   0  0  2  0  0  0  0  0  0  0  0  0
   20.7370   39.5120   64.9538 C   0  0  0  0  0  0  0  0  0  0  0  0
   21.5832   38.4936   65.0756 N   0  0  0  0  0  0  0  0  0  0  0  0
   24.5082   38.3506   67.1537 C   0  0  1  0  0  0  0  0  0  0  0  0
   21.1477   40.8809   65.2197 C   0  0  0  0  0  0  0  0  0  0  0  0
   24.8651   37.4868   68.3094 C   0  0  0  0  0  0  0  0  0  0  0  0
   20.1598   41.8389   65.1126 C   0  0  0  0  0  0  0  0  0  0  0  0
   25.8686   38.1415   69.1827 C   0  0  0  0  0  0  0  0  0  0  0  0
   22.5908   41.2244   65.5360 C   0  0  0  0  0  0  0  0  0  0  0  0
   27.1955   38.2595   68.6681 O   0  0  0  0  0  0  0  0  0  0  0  0
  1  8  1  0  0  0  0
  3  5  1  1  0  0  0
  3  9  1  0  0  0  0
  3 12  2  0  0  0  0
  3 22  1  0  0  0  0
  4  8  2  0  0  0  0
  4 19  1  0  0  0  0
  6 16  1  0  0  0  0
  6  7  1  0  0  0  0
  7 10  1  0  0  0  0
  8 11  1  0  0  0  0
 10 13  1  0  0  0  0
 10 21  1  0  0  0  0
 11 14  2  0  0  0  0
 13  2  1  6  0  0  0
 13 16  1  0  0  0  0
 14 15  1  0  0  0  0
 14 17  1  0  0  0  0
 16 18  1  6  0  0  0
 17 19  2  0  0  0  0
 17 21  1  0  0  0  0
 18 20  1  0  0  0  0
 20 22  1  0  0  0  0
M  CHG  1   9  -1
M  END
>  <CHROM.1>
95.54923038,100.46036647,-13.95988566,-71.02896489,-172.48267451,-62.72628688
24.00114175,39.29514363,66.88055312,2.91675528,0.47352493,-2.30854378

>  <Name>
ligand

>  <RI>
0

>  <Rbt.Current_Directory>
/home/itssahil/PROJECTS/Mol_Feturizer/New_Systems/rnas/2HOM

>  <Rbt.Executable>
rbdock ($Id: //depot/dev/client3/rdock/2013.1/src/exe/rbdock.cxx#4 $)

>  <Rbt.Library>
libRbt.so (2013.1, Build901 2013/11/27)

>  <Rbt.Parameter_File>
/export/apps/rDock/src/rDock_2013.1_src/data/scripts/dock_solv.prm

>  <Rbt.Receptor>
prm/pocket_docking_5.prm

>  <SCORE>
-23.2094

>  <SCORE.INTER>
-25.2528

>  <SCORE.INTER.CONST>
1

>  <SCORE.INTER.POLAR>
-1.63459

>  <SCORE.INTER.ROT>
6

>  <SCORE.INTER.SOLV>
14.8268

>  <SCORE.INTER.VDW>
-23.9288

>  <SCORE.INTER.norm>
-1.14785

>  <SCORE.INTRA>
2.04337

>  <SCORE.INTRA.DIHEDRAL>
0.348228

>  <SCORE.INTRA.DIHEDRAL.0>
5.05013

>  <SCORE.INTRA.POLAR>
0

>  <SCORE.INTRA.POLAR.0>
0

>  <SCORE.INTRA.REPUL>
0

>  <SCORE.INTRA.REPUL.0>
0

>  <SCORE.INTRA.SOLV>
4.37869

>  <SCORE.INTRA.SOLV.lig_0>
-54.1265

>  <SCORE.INTRA.VDW>
-0.320093

>  <SCORE.INTRA.VDW.0>
-2.1303

>  <SCORE.INTRA.norm>
0.0928803

>  <SCORE.RESTR>
0

>  <SCORE.RESTR.CAVITY>
0

>  <SCORE.RESTR.norm>
0

>  <SCORE.SYSTEM>
0

>  <SCORE.SYSTEM.CONST>
0

>  <SCORE.SYSTEM.DIHEDRAL>
0

>  <SCORE.SYSTEM.SOLV>
0

>  <SCORE.SYSTEM.norm>
0

>  <SCORE.heavy>
22

>  <SCORE.norm>
-1.05497

>  <RMSD>
2.747

$$$$
ligand
 OpenBabel11021811443D
libRbt.so/2013.1/901 2013/11/27
 22 23  0  0  0  0  0  0  0  0999 V2000
   21.4480   44.5504   65.8907 C   0  0  0  0  0  0  0  0  0  0  0  0
   24.0539   39.4651   64.9766 C   0  0  0  0  0  0  0  0  0  0  0  0
   29.7866   39.6891   66.9102 P   0  0  1  0  0  0  0  0  0  0  0  0
   22.5283   42.9080   67.2541 N   0  0  0  0  0  0  0  0  0  0  0  0
   30.7052   39.8622   65.7559 O   0  0  0  0  0  0  0  0  0  0  0  0
   26.0859   37.7271   67.9860 S   0  0  0  0  0  0  0  0  0  0  0  0
   24.4901   38.1090   68.3467 C   0  0  0  0  0  0  0  0  0  0  0  0
   21.5874   43.1467   66.2758 C   0  0  0  0  0  0  0  0  0  0  0  0
   29.5549   38.2732   67.2959 O   0  5  0  0  0  0  0  0  0  0  0  0
   23.7907   38.6921   67.3497 N   0  0  0  0  0  0  0  0  0  0  0  0
   20.8546   42.2132   65.7304 N   0  0  0  0  0  0  0  0  0  0  0  0
   30.2156   40.5542   68.0553 O   0  0  0  0  0  0  0  0  0  0  0  0
   24.6030   38.8369   66.2236 C   0  0  2  0  0  0  0  0  0  0  0  0
   21.0140   40.8872   66.1194 C   0  0  0  0  0  0  0  0  0  0  0  0
   20.2459   39.9530   65.5665 N   0  0  0  0  0  0  0  0  0  0  0  0
   25.8885   38.3748   66.3789 C   0  0  1  0  0  0  0  0  0  0  0  0
   22.0177   40.5566   67.1176 C   0  0  0  0  0  0  0  0  0  0  0  0
   26.9942   38.3990   65.3858 C   0  0  0  0  0  0  0  0  0  0  0  0
   22.7087   41.6240   67.6550 C   0  0  0  0  0  0  0  0  0  0  0  0
   27.6293   39.7370   65.3182 C   0  0  0  0  0  0  0  0  0  0  0  0
   22.3156   39.1169   67.4904 C   0  0  0  0  0  0  0  0  0  0  0  0
   28.3521   40.1693   66.4715 O   0  0  0  0  0  0  0  0  0  0  0  0
  1  8  1  0  0  0  0
  3  5  1  6  0  0  0
  3  9  1  0  0  0  0
  3 12  2  0  0  0  0
  3 22  1  0  0  0  0
  4  8  2  0  0  0  0
  4 19  1  0  0  0  0
  6 16  1  0  0  0  0
  6  7  1  0  0  0  0
  7 10  1  0  0  0  0
  8 11  1  0  0  0  0
 10 13  1  0  0  0  0
 10 21  1  0  0  0  0
 11 14  2  0  0  0  0
 13  2  1  1  0  0  0
 13 16  1  0  0  0  0
 14 15  1  0  0  0  0
 14 17  1  0  0  0  0
 16 18  1  1  0  0  0
 17 19  2  0  0  0  0
 17 21  1  0  0  0  0
 18 20  1  0  0  0  0
 20 22  1  0  0  0  0
M  CHG  1   9  -1
M  END
>  <CHROM.1>
127.37565757,-99.75956279,124.60571470,67.10894596,76.56639351,52.63556771
25.33968084,39.97723921,66.69235923,-2.84480957,-0.00310249,2.93343692

>  <Name>
ligand

>  <RI>
0

>  <Rbt.Current_Directory>
/home/itssahil/PROJECTS/Mol_Feturizer/New_Systems/rnas/2HOM

>  <Rbt.Executable>
rbdock ($Id: //depot/dev/client3/rdock/2013.1/src/exe/rbdock.cxx#4 $)

>  <Rbt.Library>
libRbt.so (2013.1, Build901 2013/11/27)

>  <Rbt.Parameter_File>
/export/apps/rDock/src/rDock_2013.1_src/data/scripts/dock_solv.prm

>  <Rbt.Receptor>
prm/pocket_docking_3.prm

>  <SCORE>
-19.6718

>  <SCORE.INTER>
-20.5819

>  <SCORE.INTER.CONST>
1

>  <SCORE.INTER.POLAR>
-2.81596

>  <SCORE.INTER.ROT>
6

>  <SCORE.INTER.SOLV>
17.8325

>  <SCORE.INTER.VDW>
-17.8789

>  <SCORE.INTER.norm>
-0.93554

>  <SCORE.INTRA>
0.910059

>  <SCORE.INTRA.DIHEDRAL>
1.23587

>  <SCORE.INTRA.DIHEDRAL.0>
5.05013

>  <SCORE.INTRA.POLAR>
0

>  <SCORE.INTRA.POLAR.0>
0

>  <SCORE.INTRA.REPUL>
0

>  <SCORE.INTRA.REPUL.0>
0

>  <SCORE.INTRA.SOLV>
2.02218

>  <SCORE.INTRA.SOLV.lig_0>
-54.1265

>  <SCORE.INTRA.VDW>
-0.718965

>  <SCORE.INTRA.VDW.0>
-2.1303

>  <SCORE.INTRA.norm>
0.0413663

>  <SCORE.RESTR>
0

>  <SCORE.RESTR.CAVITY>
0

>  <SCORE.RESTR.norm>
0

>  <SCORE.SYSTEM>
0

>  <SCORE.SYSTEM.CONST>
0

>  <SCORE.SYSTEM.DIHEDRAL>
0

>  <SCORE.SYSTEM.SOLV>
0

>  <SCORE.SYSTEM.norm>
0

>  <SCORE.heavy>
22

>  <SCORE.norm>
-0.894174

>  <RMSD>
2.754

$$$$
ligand
 OpenBabel11021811443D
libRbt.so/2013.1/901 2013/11/27
 22 23  0  0  0  0  0  0  0  0999 V2000
   17.8640   40.1179   64.5794 C   0  0  0  0  0  0  0  0  0  0  0  0
   25.4606   43.2211   67.4253 C   0  0  0  0  0  0  0  0  0  0  0  0
   28.2501   39.0866   67.2481 P   0  0  1  0  0  0  0  0  0  0  0  0
   19.1322   42.1073   64.9763 N   0  0  0  0  0  0  0  0  0  0  0  0
   27.0578   38.3393   66.7725 O   0  0  0  0  0  0  0  0  0  0  0  0
   25.3711   41.1128   63.9969 S   0  0  0  0  0  0  0  0  0  0  0  0
   23.8628   41.5749   64.5751 C   0  0  0  0  0  0  0  0  0  0  0  0
   19.0814   40.7359   65.1030 C   0  0  0  0  0  0  0  0  0  0  0  0
   27.9359   40.2141   68.1632 O   0  5  0  0  0  0  0  0  0  0  0  0
   23.8712   42.2841   65.7240 N   0  0  0  0  0  0  0  0  0  0  0  0
   20.0254   40.0228   65.6565 N   0  0  0  0  0  0  0  0  0  0  0  0
   29.2748   38.1427   67.7984 O   0  0  0  0  0  0  0  0  0  0  0  0
   25.1852   42.4624   66.1605 C   0  0  2  0  0  0  0  0  0  0  0  0
   21.1713   40.6430   66.1433 C   0  0  0  0  0  0  0  0  0  0  0  0
   22.1133   39.9027   66.7203 N   0  0  0  0  0  0  0  0  0  0  0  0
   26.1412   41.8914   65.3542 C   0  0  1  0  0  0  0  0  0  0  0  0
   21.3111   42.0834   66.0059 C   0  0  0  0  0  0  0  0  0  0  0  0
   27.6149   41.8857   65.5477 C   0  0  0  0  0  0  0  0  0  0  0  0
   20.2380   42.7425   65.4405 C   0  0  0  0  0  0  0  0  0  0  0  0
   28.2193   40.6257   65.0524 C   0  0  0  0  0  0  0  0  0  0  0  0
   22.5885   42.7944   66.4098 C   0  0  0  0  0  0  0  0  0  0  0  0
   28.8989   39.8136   66.0106 O   0  0  0  0  0  0  0  0  0  0  0  0
  1  8  1  0  0  0  0
  3  5  1  6  0  0  0
  3  9  1  0  0  0  0
  3 12  2  0  0  0  0
  3 22  1  0  0  0  0
  4  8  2  0  0  0  0
  4 19  1  0  0  0  0
  6 16  1  0  0  0  0
  6  7  1  0  0  0  0
  7 10  1  0  0  0  0
  8 11  1  0  0  0  0
 10 13  1  0  0  0  0
 10 21  1  0  0  0  0
 11 14  2  0  0  0  0
 13  2  1  1  0  0  0
 13 16  1  0  0  0  0
 14 15  1  0  0  0  0
 14 17  1  0  0  0  0
 16 18  1  1  0  0  0
 17 19  2  0  0  0  0
 17 21  1  0  0  0  0
 18 20  1  0  0  0  0
 20 22  1  0  0  0  0
M  CHG  1   9  -1
M  END
>  <CHROM.1>
19.82539179,-33.50311735,56.32056688,-118.52332681,64.65987857,49.61306398
24.54748334,40.83223385,65.95568200,2.91262392,-0.09191050,-0.35907350

>  <Name>
ligand

>  <RI>
0

>  <Rbt.Current_Directory>
/home/itssahil/PROJECTS/Mol_Feturizer/New_Systems/rnas/2HOM

>  <Rbt.Executable>
rbdock ($Id: //depot/dev/client3/rdock/2013.1/src/exe/rbdock.cxx#4 $)

>  <Rbt.Library>
libRbt.so (2013.1, Build901 2013/11/27)

>  <Rbt.Parameter_File>
/export/apps/rDock/src/rDock_2013.1_src/data/scripts/dock_solv.prm

>  <Rbt.Receptor>
prm/pocket_docking_4.prm

>  <SCORE>
-15.8529

>  <SCORE.INTER>
-20.1301

>  <SCORE.INTER.CONST>
1

>  <SCORE.INTER.POLAR>
-1.63459

>  <SCORE.INTER.ROT>
6

>  <SCORE.INTER.SOLV>
7.35861

>  <SCORE.INTER.VDW>
-18.0243

>  <SCORE.INTER.norm>
-0.915006

>  <SCORE.INTRA>
4.27722

>  <SCORE.INTRA.DIHEDRAL>
5.72742

>  <SCORE.INTRA.DIHEDRAL.0>
5.05013

>  <SCORE.INTRA.POLAR>
0

>  <SCORE.INTRA.POLAR.0>
0

>  <SCORE.INTRA.REPUL>
0

>  <SCORE.INTRA.REPUL.0>
0

>  <SCORE.INTRA.SOLV>
2.88593

>  <SCORE.INTRA.SOLV.lig_0>
-54.1265

>  <SCORE.INTRA.VDW>
-0.0294485

>  <SCORE.INTRA.VDW.0>
-2.1303

>  <SCORE.INTRA.norm>
0.194419

>  <SCORE.RESTR>
0

>  <SCORE.RESTR.CAVITY>
0

>  <SCORE.RESTR.norm>
0

>  <SCORE.SYSTEM>
0

>  <SCORE.SYSTEM.CONST>
0

>  <SCORE.SYSTEM.DIHEDRAL>
0

>  <SCORE.SYSTEM.SOLV>
0

>  <SCORE.SYSTEM.norm>
0

>  <SCORE.heavy>
22

>  <SCORE.norm>
-0.720586

>  <RMSD>
2.763

$$$$
ligand
 OpenBabel11021811443D
libRbt.so/2013.1/901 2013/11/27
 22 23  0  0  0  0  0  0  0  0999 V2000
   20.3835   44.2675   65.7663 C   0  0  0  0  0  0  0  0  0  0  0  0
   23.4487   39.4027   68.0769 C   0  0  0  0  0  0  0  0  0  0  0  0
   29.7261   40.0925   66.7004 P   0  0  1  0  0  0  0  0  0  0  0  0
   22.0619   42.5674   65.8928 N   0  0  0  0  0  0  0  0  0  0  0  0
   30.1800   40.0454   65.2869 O   0  0  0  0  0  0  0  0  0  0  0  0
   25.9697   37.8174   65.3680 S   0  0  0  0  0  0  0  0  0  0  0  0
   24.3909   38.0108   64.8270 C   0  0  0  0  0  0  0  0  0  0  0  0
   20.7264   42.8477   65.7002 C   0  0  0  0  0  0  0  0  0  0  0  0
   30.2006   38.9547   67.5296 O   0  5  0  0  0  0  0  0  0  0  0  0
   23.5295   38.5422   65.7207 N   0  0  0  0  0  0  0  0  0  0  0  0
   19.8165   41.9348   65.4888 N   0  0  0  0  0  0  0  0  0  0  0  0
   30.0250   41.4313   67.3022 O   0  0  0  0  0  0  0  0  0  0  0  0
   24.1949   38.8082   66.9189 C   0  0  2  0  0  0  0  0  0  0  0  0
   20.1775   40.5927   65.4307 C   0  0  0  0  0  0  0  0  0  0  0  0
   19.2346   39.6761   65.2332 N   0  0  0  0  0  0  0  0  0  0  0  0
   25.5290   38.4761   66.9215 C   0  0  1  0  0  0  0  0  0  0  0  0
   21.5761   40.2272   65.5842 C   0  0  0  0  0  0  0  0  0  0  0  0
   26.5029   38.6153   68.0357 C   0  0  0  0  0  0  0  0  0  0  0  0
   22.4468   41.2671   65.8410 C   0  0  0  0  0  0  0  0  0  0  0  0
   27.3313   39.8350   67.8789 C   0  0  0  0  0  0  0  0  0  0  0  0
   22.0407   38.7938   65.4107 C   0  0  0  0  0  0  0  0  0  0  0  0
   28.1620   39.9084   66.7197 O   0  0  0  0  0  0  0  0  0  0  0  0
  1  8  1  0  0  0  0
  3  5  1  6  0  0  0
  3  9  1  0  0  0  0
  3 12  2  0  0  0  0
  3 22  1  0  0  0  0
  4  8  2  0  0  0  0
  4 19  1  0  0  0  0
  6 16  1  0  0  0  0
  6  7  1  0  0  0  0
  7 10  1  0  0  0  0
  8 11  1  0  0  0  0
 10 13  1  0  0  0  0
 10 21  1  0  0  0  0
 11 14  2  0  0  0  0
 13  2  1  1  0  0  0
 13 16  1  0  0  0  0
 14 15  1  0  0  0  0
 14 17  1  0  0  0  0
 16 18  1  1  0  0  0
 17 19  2  0  0  0  0
 17 21  1  0  0  0  0
 18 20  1  0  0  0  0
 20 22  1  0  0  0  0
M  CHG  1   9  -1
M  END
>  <CHROM.1>
-122.74275531,81.19203683,-175.06007867,-62.18991910,-122.29750420,177.15280555
24.96259481,39.98738517,66.26101564,-2.97023151,0.14929223,-3.05501381

>  <Name>
ligand

>  <RI>
0

>  <Rbt.Current_Directory>
/home/itssahil/PROJECTS/Mol_Feturizer/New_Systems/rnas/2HOM

>  <Rbt.Executable>
rbdock ($Id: //depot/dev/client3/rdock/2013.1/src/exe/rbdock.cxx#4 $)

>  <Rbt.Library>
libRbt.so (2013.1, Build901 2013/11/27)

>  <Rbt.Parameter_File>
/export/apps/rDock/src/rDock_2013.1_src/data/scripts/dock_solv.prm

>  <Rbt.Receptor>
prm/pocket_docking_3.prm

>  <SCORE>
-18.2725

>  <SCORE.INTER>
-22.2832

>  <SCORE.INTER.CONST>
1

>  <SCORE.INTER.POLAR>
-2.82

>  <SCORE.INTER.ROT>
6

>  <SCORE.INTER.SOLV>
19.188

>  <SCORE.INTER.VDW>
-19.4515

>  <SCORE.INTER.norm>
-1.01287

>  <SCORE.INTRA>
4.00396

>  <SCORE.INTRA.DIHEDRAL>
7.14676

>  <SCORE.INTRA.DIHEDRAL.0>
5.05013

>  <SCORE.INTRA.POLAR>
0

>  <SCORE.INTRA.POLAR.0>
0

>  <SCORE.INTRA.REPUL>
0

>  <SCORE.INTRA.REPUL.0>
0

>  <SCORE.INTRA.SOLV>
0.854858

>  <SCORE.INTRA.SOLV.lig_0>
-54.1265

>  <SCORE.INTRA.VDW>
0.00315153

>  <SCORE.INTRA.VDW.0>
-2.1303

>  <SCORE.INTRA.norm>
0.181998

>  <SCORE.RESTR>
0.00669646

>  <SCORE.RESTR.CAVITY>
0.00669646

>  <SCORE.RESTR.norm>
0.000304385

>  <SCORE.SYSTEM>
0

>  <SCORE.SYSTEM.CONST>
0

>  <SCORE.SYSTEM.DIHEDRAL>
0

>  <SCORE.SYSTEM.SOLV>
0

>  <SCORE.SYSTEM.norm>
0

>  <SCORE.heavy>
22

>  <SCORE.norm>
-0.83057

>  <RMSD>
2.766

$$$$
ligand
 OpenBabel11021811443D
libRbt.so/2013.1/901 2013/11/27
 22 23  0  0  0  0  0  0  0  0999 V2000
   17.4193   39.9993   63.9063 C   0  0  0  0  0  0  0  0  0  0  0  0
   23.9479   39.2843   67.6225 C   0  0  0  0  0  0  0  0  0  0  0  0
   29.3317   37.0827   65.2331 P   0  0  1  0  0  0  0  0  0  0  0  0
   18.8000   41.6669   64.9242 N   0  0  0  0  0  0  0  0  0  0  0  0
   28.1239   36.3178   64.8301 O   0  0  0  0  0  0  0  0  0  0  0  0
   25.4101   40.8374   64.2083 S   0  0  0  0  0  0  0  0  0  0  0  0
   24.0084   41.5743   64.7695 C   0  0  0  0  0  0  0  0  0  0  0  0
   18.6497   40.3304   64.6235 C   0  0  0  0  0  0  0  0  0  0  0  0
   30.1860   36.3888   66.2311 O   0  5  0  0  0  0  0  0  0  0  0  0
   23.5023   41.0685   65.9146 N   0  0  0  0  0  0  0  0  0  0  0  0
   19.5155   39.4103   64.9548 N   0  0  0  0  0  0  0  0  0  0  0  0
   30.0862   37.5452   64.0246 O   0  0  0  0  0  0  0  0  0  0  0  0
   24.3041   40.0170   66.3625 C   0  0  2  0  0  0  0  0  0  0  0  0
   20.6767   39.7603   65.6359 C   0  0  0  0  0  0  0  0  0  0  0  0
   21.5375   38.8074   65.9812 N   0  0  0  0  0  0  0  0  0  0  0  0
   25.3873   39.7390   65.5627 C   0  0  1  0  0  0  0  0  0  0  0  0
   20.9208   41.1586   65.9497 C   0  0  0  0  0  0  0  0  0  0  0  0
   26.4132   38.6799   65.7499 C   0  0  0  0  0  0  0  0  0  0  0  0
   19.9232   42.0413   65.5874 C   0  0  0  0  0  0  0  0  0  0  0  0
   27.7849   39.2335   65.6478 C   0  0  0  0  0  0  0  0  0  0  0  0
   22.2231   41.6095   66.5830 C   0  0  0  0  0  0  0  0  0  0  0  0
   28.8607   38.3680   66.0122 O   0  0  0  0  0  0  0  0  0  0  0  0
  1  8  1  0  0  0  0
  3  5  1  6  0  0  0
  3  9  1  0  0  0  0
  3 12  2  0  0  0  0
  3 22  1  0  0  0  0
  4  8  2  0  0  0  0
  4 19  1  0  0  0  0
  6 16  1  0  0  0  0
  6  7  1  0  0  0  0
  7 10  1  0  0  0  0
  8 11  1  0  0  0  0
 10 13  1  0  0  0  0
 10 21  1  0  0  0  0
 11 14  2  0  0  0  0
 13  2  1  6  0  0  0
 13 16  1  0  0  0  0
 14 15  1  0  0  0  0
 14 17  1  0  0  0  0
 16 18  1  6  0  0  0
 17 19  2  0  0  0  0
 17 21  1  0  0  0  0
 18 20  1  0  0  0  0
 20 22  1  0  0  0  0
M  CHG  1   9  -1
M  END
>  <CHROM.1>
78.20851594,50.81210109,48.25093869,170.56320319,68.49908440,-43.52639119
24.48903591,39.42759661,65.38608716,2.81377192,-0.03349234,0.05483490

>  <Name>
ligand

>  <RI>
0

>  <Rbt.Current_Directory>
/home/itssahil/PROJECTS/Mol_Feturizer/New_Systems/rnas/2HOM

>  <Rbt.Executable>
rbdock ($Id: //depot/dev/client3/rdock/2013.1/src/exe/rbdock.cxx#4 $)

>  <Rbt.Library>
libRbt.so (2013.1, Build901 2013/11/27)

>  <Rbt.Parameter_File>
/export/apps/rDock/src/rDock_2013.1_src/data/scripts/dock_solv.prm

>  <Rbt.Receptor>
prm/pocket_docking_5.prm

>  <SCORE>
-21.7167

>  <SCORE.INTER>
-24.6911

>  <SCORE.INTER.CONST>
1

>  <SCORE.INTER.POLAR>
-1.63459

>  <SCORE.INTER.ROT>
6

>  <SCORE.INTER.SOLV>
11.684

>  <SCORE.INTER.VDW>
-22.5068

>  <SCORE.INTER.norm>
-1.12232

>  <SCORE.INTRA>
2.9744

>  <SCORE.INTRA.DIHEDRAL>
1.18894

>  <SCORE.INTRA.DIHEDRAL.0>
5.05013

>  <SCORE.INTRA.POLAR>
0

>  <SCORE.INTRA.POLAR.0>
0

>  <SCORE.INTRA.REPUL>
0

>  <SCORE.INTRA.REPUL.0>
0

>  <SCORE.INTRA.SOLV>
4.01552

>  <SCORE.INTRA.SOLV.lig_0>
-54.1265

>  <SCORE.INTRA.VDW>
0.37217

>  <SCORE.INTRA.VDW.0>
-2.1303

>  <SCORE.INTRA.norm>
0.1352

>  <SCORE.RESTR>
0

>  <SCORE.RESTR.CAVITY>
0

>  <SCORE.RESTR.norm>
0

>  <SCORE.SYSTEM>
0

>  <SCORE.SYSTEM.CONST>
0

>  <SCORE.SYSTEM.DIHEDRAL>
0

>  <SCORE.SYSTEM.SOLV>
0

>  <SCORE.SYSTEM.norm>
0

>  <SCORE.heavy>
22

>  <SCORE.norm>
-0.987124

>  <RMSD>
2.766

$$$$
ligand
 OpenBabel11021811443D
libRbt.so/2013.1/901 2013/11/27
 22 23  0  0  0  0  0  0  0  0999 V2000
   17.4523   40.0359   63.9342 C   0  0  0  0  0  0  0  0  0  0  0  0
   24.3033   39.1657   66.9064 C   0  0  0  0  0  0  0  0  0  0  0  0
   28.8062   37.1190   65.9581 P   0  0  1  0  0  0  0  0  0  0  0  0
   18.9001   41.6631   64.9240 N   0  0  0  0  0  0  0  0  0  0  0  0
   28.1981   36.4508   64.7790 O   0  0  0  0  0  0  0  0  0  0  0  0
   25.3182   41.5837   63.8520 S   0  0  0  0  0  0  0  0  0  0  0  0
   23.9263   42.0404   64.6747 C   0  0  0  0  0  0  0  0  0  0  0  0
   18.6969   40.3292   64.6434 C   0  0  0  0  0  0  0  0  0  0  0  0
   27.9848   37.0384   67.1934 O   0  5  0  0  0  0  0  0  0  0  0  0
   23.5693   41.2426   65.7038 N   0  0  0  0  0  0  0  0  0  0  0  0
   19.5272   39.3809   64.9861 N   0  0  0  0  0  0  0  0  0  0  0  0
   30.2177   36.6565   66.1520 O   0  0  0  0  0  0  0  0  0  0  0  0
   24.4842   40.1957   65.8305 C   0  0  2  0  0  0  0  0  0  0  0  0
   20.7032   39.6953   65.6592 C   0  0  0  0  0  0  0  0  0  0  0  0
   21.5272   38.7146   66.0164 N   0  0  0  0  0  0  0  0  0  0  0  0
   25.5039   40.2087   64.9084 C   0  0  1  0  0  0  0  0  0  0  0  0
   21.0025   41.0874   65.9517 C   0  0  0  0  0  0  0  0  0  0  0  0
   26.6172   39.2345   64.7638 C   0  0  0  0  0  0  0  0  0  0  0  0
   20.0391   42.0030   65.5789 C   0  0  0  0  0  0  0  0  0  0  0  0
   27.7435   39.5640   65.6700 C   0  0  0  0  0  0  0  0  0  0  0  0
   22.3234   41.4964   66.5752 C   0  0  0  0  0  0  0  0  0  0  0  0
   28.8549   38.6673   65.6732 O   0  0  0  0  0  0  0  0  0  0  0  0
  1  8  1  0  0  0  0
  3  5  1  6  0  0  0
  3  9  1  0  0  0  0
  3 12  2  0  0  0  0
  3 22  1  0  0  0  0
  4  8  2  0  0  0  0
  4 19  1  0  0  0  0
  6 16  1  0  0  0  0
  6  7  1  0  0  0  0
  7 10  1  0  0  0  0
  8 11  1  0  0  0  0
 10 13  1  0  0  0  0
 10 21  1  0  0  0  0
 11 14  2  0  0  0  0
 13  2  1  6  0  0  0
 13 16  1  0  0  0  0
 14 15  1  0  0  0  0
 14 17  1  0  0  0  0
 16 18  1  6  0  0  0
 17 19  2  0  0  0  0
 17 21  1  0  0  0  0
 18 20  1  0  0  0  0
 20 22  1  0  0  0  0
M  CHG  1   9  -1
M  END
>  <CHROM.1>
77.99313438,95.87243183,64.92557519,177.20496926,-56.07764294,73.06255378
24.39024469,39.57404350,65.42522072,2.79834349,0.02392616,-0.30283755

>  <Name>
ligand

>  <RI>
0

>  <Rbt.Current_Directory>
/home/itssahil/PROJECTS/Mol_Feturizer/New_Systems/rnas/2HOM

>  <Rbt.Executable>
rbdock ($Id: //depot/dev/client3/rdock/2013.1/src/exe/rbdock.cxx#4 $)

>  <Rbt.Library>
libRbt.so (2013.1, Build901 2013/11/27)

>  <Rbt.Parameter_File>
/export/apps/rDock/src/rDock_2013.1_src/data/scripts/dock_solv.prm

>  <Rbt.Receptor>
prm/pocket_docking_4.prm

>  <SCORE>
-20.905

>  <SCORE.INTER>
-23.1597

>  <SCORE.INTER.CONST>
1

>  <SCORE.INTER.POLAR>
-1.63459

>  <SCORE.INTER.ROT>
6

>  <SCORE.INTER.SOLV>
11.9941

>  <SCORE.INTER.VDW>
-21.5892

>  <SCORE.INTER.norm>
-1.05272

>  <SCORE.INTRA>
2.25477

>  <SCORE.INTRA.DIHEDRAL>
0.0613191

>  <SCORE.INTRA.DIHEDRAL.0>
5.05013

>  <SCORE.INTRA.POLAR>
0

>  <SCORE.INTRA.POLAR.0>
0

>  <SCORE.INTRA.REPUL>
0

>  <SCORE.INTRA.REPUL.0>
0

>  <SCORE.INTRA.SOLV>
4.19533

>  <SCORE.INTRA.SOLV.lig_0>
-54.1265

>  <SCORE.INTRA.VDW>
0.126446

>  <SCORE.INTRA.VDW.0>
-2.1303

>  <SCORE.INTRA.norm>
0.10249

>  <SCORE.RESTR>
0

>  <SCORE.RESTR.CAVITY>
0

>  <SCORE.RESTR.norm>
0

>  <SCORE.SYSTEM>
0

>  <SCORE.SYSTEM.CONST>
0

>  <SCORE.SYSTEM.DIHEDRAL>
0

>  <SCORE.SYSTEM.SOLV>
0

>  <SCORE.SYSTEM.norm>
0

>  <SCORE.heavy>
22

>  <SCORE.norm>
-0.950226

>  <RMSD>
2.776

$$$$
ligand
 OpenBabel11021811443D
libRbt.so/2013.1/901 2013/11/27
 22 23  0  0  0  0  0  0  0  0999 V2000
   20.2827   44.3573   65.8770 C   0  0  0  0  0  0  0  0  0  0  0  0
   23.0287   39.6002   68.0553 C   0  0  0  0  0  0  0  0  0  0  0  0
   29.4525   40.0899   66.9243 P   0  0  1  0  0  0  0  0  0  0  0  0
   19.8331   42.0093   65.7864 N   0  0  0  0  0  0  0  0  0  0  0  0
   29.9506   41.4198   67.3598 O   0  0  0  0  0  0  0  0  0  0  0  0
   25.8600   37.8586   65.7844 S   0  0  0  0  0  0  0  0  0  0  0  0
   24.3789   38.0680   65.0195 C   0  0  0  0  0  0  0  0  0  0  0  0
   20.7829   43.0002   65.6628 C   0  0  0  0  0  0  0  0  0  0  0  0
   29.2571   39.9645   65.4569 O   0  5  0  0  0  0  0  0  0  0  0  0
   23.4156   38.6517   65.7642 N   0  0  0  0  0  0  0  0  0  0  0  0
   22.0340   42.7729   65.3639 N   0  0  0  0  0  0  0  0  0  0  0  0
   30.2966   38.9981   67.5066 O   0  0  0  0  0  0  0  0  0  0  0  0
   23.9132   38.9464   67.0348 C   0  0  2  0  0  0  0  0  0  0  0  0
   22.4768   41.4690   65.1678 C   0  0  0  0  0  0  0  0  0  0  0  0
   23.7498   41.2586   64.8458 N   0  0  0  0  0  0  0  0  0  0  0  0
   25.2240   38.5842   67.2371 C   0  0  1  0  0  0  0  0  0  0  0  0
   21.5379   40.3702   65.3229 C   0  0  0  0  0  0  0  0  0  0  0  0
   26.0352   38.7421   68.4725 C   0  0  0  0  0  0  0  0  0  0  0  0
   20.2336   40.7258   65.6021 C   0  0  0  0  0  0  0  0  0  0  0  0
   27.4861   38.7562   68.1671 C   0  0  0  0  0  0  0  0  0  0  0  0
   21.9927   38.9257   65.2386 C   0  0  0  0  0  0  0  0  0  0  0  0
   27.9929   39.9048   67.4866 O   0  0  0  0  0  0  0  0  0  0  0  0
  1  8  1  0  0  0  0
  3  5  1  1  0  0  0
  3  9  1  0  0  0  0
  3 12  2  0  0  0  0
  3 22  1  0  0  0  0
  4  8  2  0  0  0  0
  4 19  1  0  0  0  0
  6 16  1  0  0  0  0
  6  7  1  0  0  0  0
  7 10  1  0  0  0  0
  8 11  1  0  0  0  0
 10 13  1  0  0  0  0
 10 21  1  0  0  0  0
 11 14  2  0  0  0  0
 13  2  1  1  0  0  0
 13 16  1  0  0  0  0
 14 15  1  0  0  0  0
 14 17  1  0  0  0  0
 16 18  1  1  0  0  0
 17 19  2  0  0  0  0
 17 21  1  0  0  0  0
 18 20  1  0  0  0  0
 20 22  1  0  0  0  0
M  CHG  1   9  -1
M  END
>  <CHROM.1>
-123.93786488,23.53765570,32.98328485,70.16569096,-173.26167117,-132.29321178
25.00251511,40.08186052,66.36342681,-2.87612641,0.16975215,3.10039534

>  <Name>
ligand

>  <RI>
0

>  <Rbt.Current_Directory>
/home/itssahil/PROJECTS/Mol_Feturizer/New_Systems/rnas/2HOM

>  <Rbt.Executable>
rbdock ($Id: //depot/dev/client3/rdock/2013.1/src/exe/rbdock.cxx#4 $)

>  <Rbt.Library>
libRbt.so (2013.1, Build901 2013/11/27)

>  <Rbt.Parameter_File>
/export/apps/rDock/src/rDock_2013.1_src/data/scripts/dock_solv.prm

>  <Rbt.Receptor>
prm/pocket_docking_3.prm

>  <SCORE>
-19.4258

>  <SCORE.INTER>
-22.8492

>  <SCORE.INTER.CONST>
1

>  <SCORE.INTER.POLAR>
-2.58143

>  <SCORE.INTER.ROT>
6

>  <SCORE.INTER.SOLV>
13.8769

>  <SCORE.INTER.VDW>
-18.8537

>  <SCORE.INTER.norm>
-1.0386

>  <SCORE.INTRA>
3.42288

>  <SCORE.INTRA.DIHEDRAL>
2.53196

>  <SCORE.INTRA.DIHEDRAL.0>
5.05013

>  <SCORE.INTRA.POLAR>
0

>  <SCORE.INTRA.POLAR.0>
0

>  <SCORE.INTRA.REPUL>
0

>  <SCORE.INTRA.REPUL.0>
0

>  <SCORE.INTRA.SOLV>
3.91275

>  <SCORE.INTRA.SOLV.lig_0>
-54.1265

>  <SCORE.INTRA.VDW>
0.200527

>  <SCORE.INTRA.VDW.0>
-2.1303

>  <SCORE.INTRA.norm>
0.155586

>  <SCORE.RESTR>
0.000569878

>  <SCORE.RESTR.CAVITY>
0.000569878

>  <SCORE.RESTR.norm>
2.59036e-05

>  <SCORE.SYSTEM>
0

>  <SCORE.SYSTEM.CONST>
0

>  <SCORE.SYSTEM.DIHEDRAL>
0

>  <SCORE.SYSTEM.SOLV>
0

>  <SCORE.SYSTEM.norm>
0

>  <SCORE.heavy>
22

>  <SCORE.norm>
-0.882991

>  <RMSD>
2.786

$$$$
ligand
 OpenBabel11021811443D
libRbt.so/2013.1/901 2013/11/27
 22 23  0  0  0  0  0  0  0  0999 V2000
   17.8776   40.1975   64.4877 C   0  0  0  0  0  0  0  0  0  0  0  0
   25.3500   39.6805   67.3209 C   0  0  0  0  0  0  0  0  0  0  0  0
   29.5384   36.9894   65.3439 P   0  0  1  0  0  0  0  0  0  0  0  0
   19.4383   41.7914   65.3518 N   0  0  0  0  0  0  0  0  0  0  0  0
   30.1607   38.3207   65.1279 O   0  0  0  0  0  0  0  0  0  0  0  0
   25.6121   41.2026   63.6032 S   0  0  0  0  0  0  0  0  0  0  0  0
   24.2671   41.7078   64.4741 C   0  0  0  0  0  0  0  0  0  0  0  0
   19.1876   40.4638   65.0800 C   0  0  0  0  0  0  0  0  0  0  0  0
   30.1752   35.8887   64.5756 O   0  5  0  0  0  0  0  0  0  0  0  0
   24.1613   41.2091   65.7243 N   0  0  0  0  0  0  0  0  0  0  0  0
   20.0302   39.4991   65.3355 N   0  0  0  0  0  0  0  0  0  0  0  0
   29.4178   36.6991   66.8084 O   0  0  0  0  0  0  0  0  0  0  0  0
   25.2406   40.3643   65.9899 C   0  0  2  0  0  0  0  0  0  0  0  0
   21.2690   39.7880   65.8984 C   0  0  0  0  0  0  0  0  0  0  0  0
   22.1062   38.7908   66.1686 N   0  0  0  0  0  0  0  0  0  0  0  0
   26.1341   40.2303   64.9536 C   0  0  1  0  0  0  0  0  0  0  0  0
   21.6175   41.1721   66.1737 C   0  0  0  0  0  0  0  0  0  0  0  0
   27.3656   39.3991   64.9109 C   0  0  0  0  0  0  0  0  0  0  0  0
   20.6389   42.1066   65.9004 C   0  0  0  0  0  0  0  0  0  0  0  0
   27.0521   37.9609   65.0891 C   0  0  0  0  0  0  0  0  0  0  0  0
   22.9974   41.5539   66.6744 C   0  0  0  0  0  0  0  0  0  0  0  0
   28.0794   37.0281   64.7517 O   0  0  0  0  0  0  0  0  0  0  0  0
  1  8  1  0  0  0  0
  3  5  1  6  0  0  0
  3  9  1  0  0  0  0
  3 12  2  0  0  0  0
  3 22  1  0  0  0  0
  4  8  2  0  0  0  0
  4 19  1  0  0  0  0
  6 16  1  0  0  0  0
  6  7  1  0  0  0  0
  7 10  1  0  0  0  0
  8 11  1  0  0  0  0
 10 13  1  0  0  0  0
 10 21  1  0  0  0  0
 11 14  2  0  0  0  0
 13  2  1  6  0  0  0
 13 16  1  0  0  0  0
 14 15  1  0  0  0  0
 14 17  1  0  0  0  0
 16 18  1  6  0  0  0
 17 19  2  0  0  0  0
 17 21  1  0  0  0  0
 18 20  1  0  0  0  0
 20 22  1  0  0  0  0
M  CHG  1   9  -1
M  END
>  <CHROM.1>
60.27355712,-118.52015952,61.29482421,165.31680001,56.52189687,-55.37493662
24.93474420,39.47936626,65.33772545,2.78551017,0.11399309,-0.25310074

>  <Name>
ligand

>  <RI>
0

>  <Rbt.Current_Directory>
/home/itssahil/PROJECTS/Mol_Feturizer/New_Systems/rnas/2HOM

>  <Rbt.Executable>
rbdock ($Id: //depot/dev/client3/rdock/2013.1/src/exe/rbdock.cxx#4 $)

>  <Rbt.Library>
libRbt.so (2013.1, Build901 2013/11/27)

>  <Rbt.Parameter_File>
/export/apps/rDock/src/rDock_2013.1_src/data/scripts/dock_solv.prm

>  <Rbt.Receptor>
prm/pocket_docking_4.prm

>  <SCORE>
-21.7052

>  <SCORE.INTER>
-23.6293

>  <SCORE.INTER.CONST>
1

>  <SCORE.INTER.POLAR>
-1.62316

>  <SCORE.INTER.ROT>
6

>  <SCORE.INTER.SOLV>
11.4986

>  <SCORE.INTER.VDW>
-21.7752

>  <SCORE.INTER.norm>
-1.07406

>  <SCORE.INTRA>
1.91863

>  <SCORE.INTRA.DIHEDRAL>
0.354909

>  <SCORE.INTRA.DIHEDRAL.0>
5.05013

>  <SCORE.INTRA.POLAR>
0

>  <SCORE.INTRA.POLAR.0>
0

>  <SCORE.INTRA.REPUL>
0

>  <SCORE.INTRA.REPUL.0>
0

>  <SCORE.INTRA.SOLV>
2.9669

>  <SCORE.INTRA.SOLV.lig_0>
-54.1265

>  <SCORE.INTRA.VDW>
0.257722

>  <SCORE.INTRA.VDW.0>
-2.1303

>  <SCORE.INTRA.norm>
0.0872103

>  <SCORE.RESTR>
0.005397

>  <SCORE.RESTR.CAVITY>
0.005397

>  <SCORE.RESTR.norm>
0.000245318

>  <SCORE.SYSTEM>
0

>  <SCORE.SYSTEM.CONST>
0

>  <SCORE.SYSTEM.DIHEDRAL>
0

>  <SCORE.SYSTEM.SOLV>
0

>  <SCORE.SYSTEM.norm>
0

>  <SCORE.heavy>
22

>  <SCORE.norm>
-0.986601

>  <RMSD>
2.805

$$$$
ligand
 OpenBabel11021811443D
libRbt.so/2013.1/901 2013/11/27
 22 23  0  0  0  0  0  0  0  0999 V2000
   17.7080   40.1015   64.5320 C   0  0  0  0  0  0  0  0  0  0  0  0
   25.8729   40.3867   64.7898 C   0  0  0  0  0  0  0  0  0  0  0  0
   28.8563   35.4926   67.6653 P   0  0  1  0  0  0  0  0  0  0  0  0
   19.3964   41.6319   65.2601 N   0  0  0  0  0  0  0  0  0  0  0  0
   28.7458   35.1986   66.2135 O   0  0  0  0  0  0  0  0  0  0  0  0
   24.7122   38.3509   68.0632 S   0  0  0  0  0  0  0  0  0  0  0  0
   23.6319   39.5320   67.5528 C   0  0  0  0  0  0  0  0  0  0  0  0
   19.1063   40.3369   64.8888 C   0  0  0  0  0  0  0  0  0  0  0  0
   27.6442   35.1435   68.4503 O   0  5  0  0  0  0  0  0  0  0  0  0
   24.0024   40.2258   66.4554 N   0  0  0  0  0  0  0  0  0  0  0  0
   19.9886   39.3741   64.8638 N   0  0  0  0  0  0  0  0  0  0  0  0
   30.1157   34.9053   68.2243 O   0  0  0  0  0  0  0  0  0  0  0  0
   25.2410   39.7683   66.0021 C   0  0  2  0  0  0  0  0  0  0  0  0
   21.3112   39.6332   65.2083 C   0  0  0  0  0  0  0  0  0  0  0  0
   22.1912   38.6364   65.1949 N   0  0  0  0  0  0  0  0  0  0  0  0
   25.7885   38.7539   66.7515 C   0  0  1  0  0  0  0  0  0  0  0  0
   21.6976   40.9868   65.5707 C   0  0  0  0  0  0  0  0  0  0  0  0
   27.0906   38.0671   66.5466 C   0  0  0  0  0  0  0  0  0  0  0  0
   20.6786   41.9176   65.6009 C   0  0  0  0  0  0  0  0  0  0  0  0
   27.8580   37.9771   67.8120 C   0  0  0  0  0  0  0  0  0  0  0  0
   23.1459   41.3491   65.8383 C   0  0  0  0  0  0  0  0  0  0  0  0
   28.9479   37.0549   67.8436 O   0  0  0  0  0  0  0  0  0  0  0  0
  1  8  1  0  0  0  0
  3  5  1  6  0  0  0
  3  9  1  0  0  0  0
  3 12  2  0  0  0  0
  3 22  1  0  0  0  0
  4  8  2  0  0  0  0
  4 19  1  0  0  0  0
  6 16  1  0  0  0  0
  6  7  1  0  0  0  0
  7 10  1  0  0  0  0
  8 11  1  0  0  0  0
 10 13  1  0  0  0  0
 10 21  1  0  0  0  0
 11 14  2  0  0  0  0
 13  2  1  1  0  0  0
 13 16  1  0  0  0  0
 14 15  1  0  0  0  0
 14 17  1  0  0  0  0
 16 18  1  1  0  0  0
 17 19  2  0  0  0  0
 17 21  1  0  0  0  0
 18 20  1  0  0  0  0
 20 22  1  0  0  0  0
M  CHG  1   9  -1
M  END
>  <CHROM.1>
-51.10714153,-47.35813504,-32.21358626,164.23325377,-62.11627517,79.80701779
24.68061847,38.53941489,66.52963842,2.61970561,-0.19349804,-0.16851755

>  <Name>
ligand

>  <RI>
0

>  <Rbt.Current_Directory>
/home/itssahil/PROJECTS/Mol_Feturizer/New_Systems/rnas/2HOM

>  <Rbt.Executable>
rbdock ($Id: //depot/dev/client3/rdock/2013.1/src/exe/rbdock.cxx#4 $)

>  <Rbt.Library>
libRbt.so (2013.1, Build901 2013/11/27)

>  <Rbt.Parameter_File>
/export/apps/rDock/src/rDock_2013.1_src/data/scripts/dock_solv.prm

>  <Rbt.Receptor>
prm/pocket_docking_8.prm

>  <SCORE>
-17.3936

>  <SCORE.INTER>
-20.4009

>  <SCORE.INTER.CONST>
1

>  <SCORE.INTER.POLAR>
-1.91122

>  <SCORE.INTER.ROT>
6

>  <SCORE.INTER.SOLV>
18.8701

>  <SCORE.INTER.VDW>
-21.1199

>  <SCORE.INTER.norm>
-0.927312

>  <SCORE.INTRA>
2.99159

>  <SCORE.INTRA.DIHEDRAL>
1.41446

>  <SCORE.INTRA.DIHEDRAL.0>
5.05013

>  <SCORE.INTRA.POLAR>
0

>  <SCORE.INTRA.POLAR.0>
0

>  <SCORE.INTRA.REPUL>
0

>  <SCORE.INTRA.REPUL.0>
0

>  <SCORE.INTRA.SOLV>
4.13781

>  <SCORE.INTRA.SOLV.lig_0>
-54.1265

>  <SCORE.INTRA.VDW>
0.215454

>  <SCORE.INTRA.VDW.0>
-2.1303

>  <SCORE.INTRA.norm>
0.135981

>  <SCORE.RESTR>
0.0157188

>  <SCORE.RESTR.CAVITY>
0.0157188

>  <SCORE.RESTR.norm>
0.000714492

>  <SCORE.SYSTEM>
0

>  <SCORE.SYSTEM.CONST>
0

>  <SCORE.SYSTEM.DIHEDRAL>
0

>  <SCORE.SYSTEM.SOLV>
0

>  <SCORE.SYSTEM.norm>
0

>  <SCORE.heavy>
22

>  <SCORE.norm>
-0.790617

>  <RMSD>
2.815

$$$$
ligand
 OpenBabel11021811443D
libRbt.so/2013.1/901 2013/11/27
 22 23  0  0  0  0  0  0  0  0999 V2000
   19.1075   41.1696   64.9837 C   0  0  0  0  0  0  0  0  0  0  0  0
   26.4851   38.6174   68.8287 C   0  0  0  0  0  0  0  0  0  0  0  0
   29.8646   41.2545   66.1536 P   0  0  1  0  0  0  0  0  0  0  0  0
   20.1484   39.4556   66.2883 N   0  0  0  0  0  0  0  0  0  0  0  0
   29.1248   41.6760   64.9365 O   0  0  0  0  0  0  0  0  0  0  0  0
   26.1753   37.6738   64.9274 S   0  0  0  0  0  0  0  0  0  0  0  0
   24.7444   38.1925   65.6387 C   0  0  0  0  0  0  0  0  0  0  0  0
   20.3111   40.6606   65.6396 C   0  0  0  0  0  0  0  0  0  0  0  0
   31.2771   40.8679   65.9033 O   0  5  0  0  0  0  0  0  0  0  0  0
   24.8274   38.5150   66.9472 N   0  0  0  0  0  0  0  0  0  0  0  0
   21.4435   41.3094   65.5871 N   0  0  0  0  0  0  0  0  0  0  0  0
   29.7115   42.2750   67.2393 O   0  0  0  0  0  0  0  0  0  0  0  0
   26.1352   38.3285   67.3985 C   0  0  2  0  0  0  0  0  0  0  0  0
   22.5693   40.7970   66.2235 C   0  0  0  0  0  0  0  0  0  0  0  0
   23.7178   41.4623   66.1433 N   0  0  0  0  0  0  0  0  0  0  0  0
   27.0126   37.8695   66.4446 C   0  0  1  0  0  0  0  0  0  0  0  0
   22.4603   39.5498   66.9623 C   0  0  0  0  0  0  0  0  0  0  0  0
   28.4563   37.5555   66.6068 C   0  0  0  0  0  0  0  0  0  0  0  0
   21.2279   38.9294   66.9204 C   0  0  0  0  0  0  0  0  0  0  0  0
   29.3087   38.6333   66.0500 C   0  0  0  0  0  0  0  0  0  0  0  0
   23.6227   39.0085   67.7725 C   0  0  0  0  0  0  0  0  0  0  0  0
   29.2246   39.9137   66.6767 O   0  0  0  0  0  0  0  0  0  0  0  0
  1  8  1  0  0  0  0
  3  5  1  6  0  0  0
  3  9  1  0  0  0  0
  3 12  2  0  0  0  0
  3 22  1  0  0  0  0
  4  8  2  0  0  0  0
  4 19  1  0  0  0  0
  6 16  1  0  0  0  0
  6  7  1  0  0  0  0
  7 10  1  0  0  0  0
  8 11  1  0  0  0  0
 10 13  1  0  0  0  0
 10 21  1  0  0  0  0
 11 14  2  0  0  0  0
 13  2  1  1  0  0  0
 13 16  1  0  0  0  0
 14 15  1  0  0  0  0
 14 17  1  0  0  0  0
 16 18  1  1  0  0  0
 17 19  2  0  0  0  0
 17 21  1  0  0  0  0
 18 20  1  0  0  0  0
 20 22  1  0  0  0  0
M  CHG  1   9  -1
M  END
>  <CHROM.1>
-19.49301009,77.89298668,-68.88325530,64.03083294,-170.78393471,70.07428119
25.75558828,39.73972762,66.28319284,3.11875797,0.02619207,2.97703149

>  <Name>
ligand

>  <RI>
0

>  <Rbt.Current_Directory>
/home/itssahil/PROJECTS/Mol_Feturizer/New_Systems/rnas/2HOM

>  <Rbt.Executable>
rbdock ($Id: //depot/dev/client3/rdock/2013.1/src/exe/rbdock.cxx#4 $)

>  <Rbt.Library>
libRbt.so (2013.1, Build901 2013/11/27)

>  <Rbt.Parameter_File>
/export/apps/rDock/src/rDock_2013.1_src/data/scripts/dock_solv.prm

>  <Rbt.Receptor>
prm/pocket_docking_4.prm

>  <SCORE>
-14.6717

>  <SCORE.INTER>
-15.1838

>  <SCORE.INTER.CONST>
1

>  <SCORE.INTER.POLAR>
-1.18585

>  <SCORE.INTER.ROT>
6

>  <SCORE.INTER.SOLV>
11.88

>  <SCORE.INTER.VDW>
-17.7297

>  <SCORE.INTER.norm>
-0.690174

>  <SCORE.INTRA>
0.512149

>  <SCORE.INTRA.DIHEDRAL>
0.672774

>  <SCORE.INTRA.DIHEDRAL.0>
5.05013

>  <SCORE.INTRA.POLAR>
0

>  <SCORE.INTRA.POLAR.0>
0

>  <SCORE.INTRA.REPUL>
0

>  <SCORE.INTRA.REPUL.0>
0

>  <SCORE.INTRA.SOLV>
1.08933

>  <SCORE.INTRA.SOLV.lig_0>
-54.1265

>  <SCORE.INTRA.VDW>
-0.368904

>  <SCORE.INTRA.VDW.0>
-2.1303

>  <SCORE.INTRA.norm>
0.0232795

>  <SCORE.RESTR>
0

>  <SCORE.RESTR.CAVITY>
0

>  <SCORE.RESTR.norm>
0

>  <SCORE.SYSTEM>
0

>  <SCORE.SYSTEM.CONST>
0

>  <SCORE.SYSTEM.DIHEDRAL>
0

>  <SCORE.SYSTEM.SOLV>
0

>  <SCORE.SYSTEM.norm>
0

>  <SCORE.heavy>
22

>  <SCORE.norm>
-0.666895

>  <RMSD>
2.817

$$$$
ligand
 OpenBabel11021811443D
libRbt.so/2013.1/901 2013/11/27
 22 23  0  0  0  0  0  0  0  0999 V2000
   17.6529   39.0202   64.1693 C   0  0  0  0  0  0  0  0  0  0  0  0
   22.8287   41.3001   68.0210 C   0  0  0  0  0  0  0  0  0  0  0  0
   27.8706   38.1254   67.3187 P   0  0  1  0  0  0  0  0  0  0  0  0
   18.1524   41.2117   64.9883 N   0  0  0  0  0  0  0  0  0  0  0  0
   26.5745   37.9133   68.0126 O   0  0  0  0  0  0  0  0  0  0  0  0
   25.2736   42.4170   65.0241 S   0  0  0  0  0  0  0  0  0  0  0  0
   23.6931   42.9687   64.8816 C   0  0  0  0  0  0  0  0  0  0  0  0
   18.6534   39.9748   64.6443 C   0  0  0  0  0  0  0  0  0  0  0  0
   29.0621   37.7894   68.1401 O   0  5  0  0  0  0  0  0  0  0  0  0
   22.8570   42.6056   65.8777 N   0  0  0  0  0  0  0  0  0  0  0  0
   19.9150   39.6506   64.7399 N   0  0  0  0  0  0  0  0  0  0  0  0
   27.8637   37.4542   65.9796 O   0  0  0  0  0  0  0  0  0  0  0  0
   23.5445   41.8312   66.8140 C   0  0  2  0  0  0  0  0  0  0  0  0
   20.8408   40.5840   65.1946 C   0  0  0  0  0  0  0  0  0  0  0  0
   22.1180   40.2299   65.3029 N   0  0  0  0  0  0  0  0  0  0  0  0
   24.8699   41.6153   66.5193 C   0  0  1  0  0  0  0  0  0  0  0  0
   20.3890   41.9227   65.5364 C   0  0  0  0  0  0  0  0  0  0  0  0
   25.8616   40.8260   67.2956 C   0  0  0  0  0  0  0  0  0  0  0  0
   19.0305   42.1454   65.4346 C   0  0  0  0  0  0  0  0  0  0  0  0
   27.0785   40.5510   66.4945 C   0  0  0  0  0  0  0  0  0  0  0  0
   21.3709   43.0124   65.9221 C   0  0  0  0  0  0  0  0  0  0  0  0
   28.0455   39.6705   67.0680 O   0  0  0  0  0  0  0  0  0  0  0  0
  1  8  1  0  0  0  0
  3  5  1  1  0  0  0
  3  9  1  0  0  0  0
  3 12  2  0  0  0  0
  3 22  1  0  0  0  0
  4  8  2  0  0  0  0
  4 19  1  0  0  0  0
  6 16  1  0  0  0  0
  6  7  1  0  0  0  0
  7 10  1  0  0  0  0
  8 11  1  0  0  0  0
 10 13  1  0  0  0  0
 10 21  1  0  0  0  0
 11 14  2  0  0  0  0
 13  2  1  6  0  0  0
 13 16  1  0  0  0  0
 14 15  1  0  0  0  0
 14 17  1  0  0  0  0
 16 18  1  6  0  0  0
 17 19  2  0  0  0  0
 17 21  1  0  0  0  0
 18 20  1  0  0  0  0
 20 22  1  0  0  0  0
M  CHG  1   9  -1
M  END
>  <CHROM.1>
103.18959713,-13.55265871,1.89409980,-172.98543449,68.38928017,-49.16974746
23.83318694,40.45822141,66.11967535,2.85811146,-0.22520293,-0.10544459

>  <Name>
ligand

>  <RI>
0

>  <Rbt.Current_Directory>
/home/itssahil/PROJECTS/Mol_Feturizer/New_Systems/rnas/2HOM

>  <Rbt.Executable>
rbdock ($Id: //depot/dev/client3/rdock/2013.1/src/exe/rbdock.cxx#4 $)

>  <Rbt.Library>
libRbt.so (2013.1, Build901 2013/11/27)

>  <Rbt.Parameter_File>
/export/apps/rDock/src/rDock_2013.1_src/data/scripts/dock_solv.prm

>  <Rbt.Receptor>
prm/pocket_docking_3.prm

>  <SCORE>
-16.3088

>  <SCORE.INTER>
-21.4823

>  <SCORE.INTER.CONST>
1

>  <SCORE.INTER.POLAR>
-1.63459

>  <SCORE.INTER.ROT>
6

>  <SCORE.INTER.SOLV>
10.3968

>  <SCORE.INTER.VDW>
-19.9385

>  <SCORE.INTER.norm>
-0.97647

>  <SCORE.INTRA>
5.17353

>  <SCORE.INTRA.DIHEDRAL>
0.314786

>  <SCORE.INTRA.DIHEDRAL.0>
5.05013

>  <SCORE.INTRA.POLAR>
0

>  <SCORE.INTRA.POLAR.0>
0

>  <SCORE.INTRA.REPUL>
0

>  <SCORE.INTRA.REPUL.0>
0

>  <SCORE.INTRA.SOLV>
5.98358

>  <SCORE.INTRA.SOLV.lig_0>
-54.1265

>  <SCORE.INTRA.VDW>
2.02435

>  <SCORE.INTRA.VDW.0>
-2.1303

>  <SCORE.INTRA.norm>
0.235161

>  <SCORE.RESTR>
0

>  <SCORE.RESTR.CAVITY>
0

>  <SCORE.RESTR.norm>
0

>  <SCORE.SYSTEM>
0

>  <SCORE.SYSTEM.CONST>
0

>  <SCORE.SYSTEM.DIHEDRAL>
0

>  <SCORE.SYSTEM.SOLV>
0

>  <SCORE.SYSTEM.norm>
0

>  <SCORE.heavy>
22

>  <SCORE.norm>
-0.741309

>  <RMSD>
2.838

$$$$
ligand
 OpenBabel11021811443D
libRbt.so/2013.1/901 2013/11/27
 22 23  0  0  0  0  0  0  0  0999 V2000
   21.4178   44.4771   65.7467 C   0  0  0  0  0  0  0  0  0  0  0  0
   23.8542   39.0395   65.1177 C   0  0  0  0  0  0  0  0  0  0  0  0
   30.0039   40.1127   66.7077 P   0  0  1  0  0  0  0  0  0  0  0  0
   22.5801   43.0136   67.2402 N   0  0  0  0  0  0  0  0  0  0  0  0
   30.8763   38.9473   67.0028 O   0  0  0  0  0  0  0  0  0  0  0  0
   26.3354   38.0220   68.1202 S   0  0  0  0  0  0  0  0  0  0  0  0
   24.7926   38.4737   68.6086 C   0  0  0  0  0  0  0  0  0  0  0  0
   21.6094   43.1246   66.2683 C   0  0  0  0  0  0  0  0  0  0  0  0
   29.7477   40.9920   67.8774 O   0  5  0  0  0  0  0  0  0  0  0  0
   23.9444   38.8178   67.6160 N   0  0  0  0  0  0  0  0  0  0  0  0
   20.8928   42.1199   65.8403 N   0  0  0  0  0  0  0  0  0  0  0  0
   30.5075   40.8531   65.5069 O   0  0  0  0  0  0  0  0  0  0  0  0
   24.5893   38.7072   66.3827 C   0  0  2  0  0  0  0  0  0  0  0  0
   21.1020   40.8457   66.3574 C   0  0  0  0  0  0  0  0  0  0  0  0
   20.3500   39.8387   65.9229 N   0  0  0  0  0  0  0  0  0  0  0  0
   25.8983   38.2928   66.4537 C   0  0  1  0  0  0  0  0  0  0  0  0
   22.1389   40.6472   67.3566 C   0  0  0  0  0  0  0  0  0  0  0  0
   26.8559   38.0948   65.3343 C   0  0  0  0  0  0  0  0  0  0  0  0
   22.8094   41.7829   67.7642 C   0  0  0  0  0  0  0  0  0  0  0  0
   28.2550   38.3053   65.7776 C   0  0  0  0  0  0  0  0  0  0  0  0
   22.4896   39.2621   67.8655 C   0  0  0  0  0  0  0  0  0  0  0  0
   28.5664   39.5728   66.3569 O   0  0  0  0  0  0  0  0  0  0  0  0
  1  8  1  0  0  0  0
  3  5  1  1  0  0  0
  3  9  1  0  0  0  0
  3 12  2  0  0  0  0
  3 22  1  0  0  0  0
  4  8  2  0  0  0  0
  4 19  1  0  0  0  0
  6 16  1  0  0  0  0
  6  7  1  0  0  0  0
  7 10  1  0  0  0  0
  8 11  1  0  0  0  0
 10 13  1  0  0  0  0
 10 21  1  0  0  0  0
 11 14  2  0  0  0  0
 13  2  1  1  0  0  0
 13 16  1  0  0  0  0
 14 15  1  0  0  0  0
 14 17  1  0  0  0  0
 16 18  1  1  0  0  0
 17 19  2  0  0  0  0
 17 21  1  0  0  0  0
 18 20  1  0  0  0  0
 20 22  1  0  0  0  0
M  CHG  1   9  -1
M  END
>  <CHROM.1>
121.09928823,-27.65708120,119.39854115,-57.33552888,-170.46392968,-28.42919780
25.47796153,40.03991062,66.74714362,-2.88841618,-0.02686684,2.95489799

>  <Name>
ligand

>  <RI>
0

>  <Rbt.Current_Directory>
/home/itssahil/PROJECTS/Mol_Feturizer/New_Systems/rnas/2HOM

>  <Rbt.Executable>
rbdock ($Id: //depot/dev/client3/rdock/2013.1/src/exe/rbdock.cxx#4 $)

>  <Rbt.Library>
libRbt.so (2013.1, Build901 2013/11/27)

>  <Rbt.Parameter_File>
/export/apps/rDock/src/rDock_2013.1_src/data/scripts/dock_solv.prm

>  <Rbt.Receptor>
prm/pocket_docking_6.prm

>  <SCORE>
-18.3626

>  <SCORE.INTER>
-19.9702

>  <SCORE.INTER.CONST>
1

>  <SCORE.INTER.POLAR>
-2.47785

>  <SCORE.INTER.ROT>
6

>  <SCORE.INTER.SOLV>
17.323

>  <SCORE.INTER.VDW>
-18.4283

>  <SCORE.INTER.norm>
-0.907738

>  <SCORE.INTRA>
1.60762

>  <SCORE.INTRA.DIHEDRAL>
1.53704

>  <SCORE.INTRA.DIHEDRAL.0>
5.05013

>  <SCORE.INTRA.POLAR>
0

>  <SCORE.INTRA.POLAR.0>
0

>  <SCORE.INTRA.REPUL>
0

>  <SCORE.INTRA.REPUL.0>
0

>  <SCORE.INTRA.SOLV>
0.969418

>  <SCORE.INTRA.SOLV.lig_0>
-54.1265

>  <SCORE.INTRA.VDW>
0.35439

>  <SCORE.INTRA.VDW.0>
-2.1303

>  <SCORE.INTRA.norm>
0.0730736

>  <SCORE.RESTR>
0

>  <SCORE.RESTR.CAVITY>
0

>  <SCORE.RESTR.norm>
0

>  <SCORE.SYSTEM>
0

>  <SCORE.SYSTEM.CONST>
0

>  <SCORE.SYSTEM.DIHEDRAL>
0

>  <SCORE.SYSTEM.SOLV>
0

>  <SCORE.SYSTEM.norm>
0

>  <SCORE.heavy>
22

>  <SCORE.norm>
-0.834664

>  <RMSD>
2.848

$$$$
ligand
 OpenBabel11021811443D
libRbt.so/2013.1/901 2013/11/27
 22 23  0  0  0  0  0  0  0  0999 V2000
   17.9446   40.2287   64.6084 C   0  0  0  0  0  0  0  0  0  0  0  0
   25.4909   43.5107   67.3308 C   0  0  0  0  0  0  0  0  0  0  0  0
   28.2308   37.8962   66.3244 P   0  0  1  0  0  0  0  0  0  0  0  0
   19.2308   42.2380   64.7857 N   0  0  0  0  0  0  0  0  0  0  0  0
   28.0214   36.9429   65.2047 O   0  0  0  0  0  0  0  0  0  0  0  0
   25.5175   40.9141   64.2545 S   0  0  0  0  0  0  0  0  0  0  0  0
   24.0006   41.5209   64.6462 C   0  0  0  0  0  0  0  0  0  0  0  0
   19.1615   40.8922   65.0741 C   0  0  0  0  0  0  0  0  0  0  0  0
   27.2569   37.7509   67.4369 O   0  5  0  0  0  0  0  0  0  0  0  0
   23.9703   42.3946   65.6752 N   0  0  0  0  0  0  0  0  0  0  0  0
   20.0885   40.2406   65.7237 N   0  0  0  0  0  0  0  0  0  0  0  0
   29.6584   37.8671   66.7771 O   0  0  0  0  0  0  0  0  0  0  0  0
   25.2602   42.5817   66.1753 C   0  0  2  0  0  0  0  0  0  0  0  0
   21.2346   40.9027   66.1515 C   0  0  0  0  0  0  0  0  0  0  0  0
   22.1589   40.2269   66.8277 N   0  0  0  0  0  0  0  0  0  0  0  0
   26.2362   41.8560   65.5342 C   0  0  1  0  0  0  0  0  0  0  0  0
   21.3938   42.3148   65.8457 C   0  0  0  0  0  0  0  0  0  0  0  0
   27.6916   41.8181   65.8336 C   0  0  0  0  0  0  0  0  0  0  0  0
   20.3372   42.9127   65.1887 C   0  0  0  0  0  0  0  0  0  0  0  0
   28.0664   40.5646   66.5313 C   0  0  0  0  0  0  0  0  0  0  0  0
   22.6736   43.0559   66.1826 C   0  0  0  0  0  0  0  0  0  0  0  0
   27.9370   39.3494   65.7926 O   0  0  0  0  0  0  0  0  0  0  0  0
  1  8  1  0  0  0  0
  3  5  1  6  0  0  0
  3  9  1  0  0  0  0
  3 12  2  0  0  0  0
  3 22  1  0  0  0  0
  4  8  2  0  0  0  0
  4 19  1  0  0  0  0
  6 16  1  0  0  0  0
  6  7  1  0  0  0  0
  7 10  1  0  0  0  0
  8 11  1  0  0  0  0
 10 13  1  0  0  0  0
 10 21  1  0  0  0  0
 11 14  2  0  0  0  0
 13  2  1  1  0  0  0
 13 16  1  0  0  0  0
 14 15  1  0  0  0  0
 14 17  1  0  0  0  0
 16 18  1  1  0  0  0
 17 19  2  0  0  0  0
 17 21  1  0  0  0  0
 18 20  1  0  0  0  0
 20 22  1  0  0  0  0
M  CHG  1   9  -1
M  END
>  <CHROM.1>
22.28202895,-75.04765694,51.79029482,66.12708721,-178.11991694,-177.55727457
24.58605852,40.57344549,65.78115646,2.80616377,-0.11362852,0.01755477

>  <Name>
ligand

>  <RI>
0

>  <Rbt.Current_Directory>
/home/itssahil/PROJECTS/Mol_Feturizer/New_Systems/rnas/2HOM

>  <Rbt.Executable>
rbdock ($Id: //depot/dev/client3/rdock/2013.1/src/exe/rbdock.cxx#4 $)

>  <Rbt.Library>
libRbt.so (2013.1, Build901 2013/11/27)

>  <Rbt.Parameter_File>
/export/apps/rDock/src/rDock_2013.1_src/data/scripts/dock_solv.prm

>  <Rbt.Receptor>
prm/pocket_docking_4.prm

>  <SCORE>
-20.9129

>  <SCORE.INTER>
-21.627

>  <SCORE.INTER.CONST>
1

>  <SCORE.INTER.POLAR>
-1.6338

>  <SCORE.INTER.ROT>
6

>  <SCORE.INTER.SOLV>
8.04217

>  <SCORE.INTER.VDW>
-19.2527

>  <SCORE.INTER.norm>
-0.983046

>  <SCORE.INTRA>
0.714104

>  <SCORE.INTRA.DIHEDRAL>
0.206348

>  <SCORE.INTRA.DIHEDRAL.0>
5.05013

>  <SCORE.INTRA.POLAR>
0

>  <SCORE.INTRA.POLAR.0>
0

>  <SCORE.INTRA.REPUL>
0

>  <SCORE.INTRA.REPUL.0>
0

>  <SCORE.INTRA.SOLV>
2.18934

>  <SCORE.INTRA.SOLV.lig_0>
-54.1265

>  <SCORE.INTRA.VDW>
-0.483737

>  <SCORE.INTRA.VDW.0>
-2.1303

>  <SCORE.INTRA.norm>
0.0324593

>  <SCORE.RESTR>
0

>  <SCORE.RESTR.CAVITY>
0

>  <SCORE.RESTR.norm>
0

>  <SCORE.SYSTEM>
0

>  <SCORE.SYSTEM.CONST>
0

>  <SCORE.SYSTEM.DIHEDRAL>
0

>  <SCORE.SYSTEM.SOLV>
0

>  <SCORE.SYSTEM.norm>
0

>  <SCORE.heavy>
22

>  <SCORE.norm>
-0.950586

>  <RMSD>
2.850

$$$$
ligand
 OpenBabel11021811443D
libRbt.so/2013.1/901 2013/11/27
 22 23  0  0  0  0  0  0  0  0999 V2000
   20.4259   44.4531   65.7500 C   0  0  0  0  0  0  0  0  0  0  0  0
   23.2650   38.5734   64.5599 C   0  0  0  0  0  0  0  0  0  0  0  0
   29.5615   38.2601   65.2754 P   0  0  1  0  0  0  0  0  0  0  0  0
   19.9631   42.1067   65.6890 N   0  0  0  0  0  0  0  0  0  0  0  0
   30.8063   38.2941   64.4656 O   0  0  0  0  0  0  0  0  0  0  0  0
   25.4943   37.8941   67.8425 S   0  0  0  0  0  0  0  0  0  0  0  0
   23.9120   38.3648   68.1550 C   0  0  0  0  0  0  0  0  0  0  0  0
   20.8280   43.0940   66.1093 C   0  0  0  0  0  0  0  0  0  0  0  0
   29.1343   36.8949   65.6765 O   0  5  0  0  0  0  0  0  0  0  0  0
   23.1472   38.5967   67.0667 N   0  0  0  0  0  0  0  0  0  0  0  0
   21.9332   42.8597   66.7648 N   0  0  0  0  0  0  0  0  0  0  0  0
   29.6591   39.2141   66.4261 O   0  0  0  0  0  0  0  0  0  0  0  0
   23.8943   38.3779   65.9079 C   0  0  2  0  0  0  0  0  0  0  0  0
   22.2851   41.5542   67.0916 C   0  0  0  0  0  0  0  0  0  0  0  0
   23.4233   41.3338   67.7429 N   0  0  0  0  0  0  0  0  0  0  0  0
   25.1963   37.9945   66.1271 C   0  0  1  0  0  0  0  0  0  0  0  0
   21.3983   40.4654   66.7158 C   0  0  0  0  0  0  0  0  0  0  0  0
   26.2461   37.7050   65.1156 C   0  0  0  0  0  0  0  0  0  0  0  0
   20.2775   40.8220   65.9933 C   0  0  0  0  0  0  0  0  0  0  0  0
   27.0136   38.9257   64.7701 C   0  0  0  0  0  0  0  0  0  0  0  0
   21.6728   39.0384   67.1504 C   0  0  0  0  0  0  0  0  0  0  0  0
   28.3708   38.7437   64.3649 O   0  0  0  0  0  0  0  0  0  0  0  0
  1  8  1  0  0  0  0
  3  5  1  6  0  0  0
  3  9  1  0  0  0  0
  3 12  2  0  0  0  0
  3 22  1  0  0  0  0
  4  8  2  0  0  0  0
  4 19  1  0  0  0  0
  6 16  1  0  0  0  0
  6  7  1  0  0  0  0
  7 10  1  0  0  0  0
  8 11  1  0  0  0  0
 10 13  1  0  0  0  0
 10 21  1  0  0  0  0
 11 14  2  0  0  0  0
 13  2  1  1  0  0  0
 13 16  1  0  0  0  0
 14 15  1  0  0  0  0
 14 17  1  0  0  0  0
 16 18  1  1  0  0  0
 17 19  2  0  0  0  0
 17 21  1  0  0  0  0
 18 20  1  0  0  0  0
 20 22  1  0  0  0  0
M  CHG  1   9  -1
M  END
>  <CHROM.1>
110.18985645,-89.45621979,-41.64562526,150.73260574,-68.31361480,-176.57293122
24.94288457,39.50003524,66.12845279,-2.79318979,-0.29257993,2.74193106

>  <Name>
ligand

>  <RI>
0

>  <Rbt.Current_Directory>
/home/itssahil/PROJECTS/Mol_Feturizer/New_Systems/rnas/2HOM

>  <Rbt.Executable>
rbdock ($Id: //depot/dev/client3/rdock/2013.1/src/exe/rbdock.cxx#4 $)

>  <Rbt.Library>
libRbt.so (2013.1, Build901 2013/11/27)

>  <Rbt.Parameter_File>
/export/apps/rDock/src/rDock_2013.1_src/data/scripts/dock_solv.prm

>  <Rbt.Receptor>
prm/pocket_docking_3.prm

>  <SCORE>
-10.2925

>  <SCORE.INTER>
-13.1882

>  <SCORE.INTER.CONST>
1

>  <SCORE.INTER.POLAR>
0

>  <SCORE.INTER.ROT>
6

>  <SCORE.INTER.SOLV>
12.0781

>  <SCORE.INTER.VDW>
-20.4182

>  <SCORE.INTER.norm>
-0.599464

>  <SCORE.INTRA>
2.89061

>  <SCORE.INTRA.DIHEDRAL>
2.68565

>  <SCORE.INTRA.DIHEDRAL.0>
5.05013

>  <SCORE.INTRA.POLAR>
0

>  <SCORE.INTRA.POLAR.0>
0

>  <SCORE.INTRA.REPUL>
0

>  <SCORE.INTRA.REPUL.0>
0

>  <SCORE.INTRA.SOLV>
4.44852

>  <SCORE.INTRA.SOLV.lig_0>
-54.1265

>  <SCORE.INTRA.VDW>
-0.676468

>  <SCORE.INTRA.VDW.0>
-2.1303

>  <SCORE.INTRA.norm>
0.131392

>  <SCORE.RESTR>
0.00512713

>  <SCORE.RESTR.CAVITY>
0.00512713

>  <SCORE.RESTR.norm>
0.000233051

>  <SCORE.SYSTEM>
0

>  <SCORE.SYSTEM.CONST>
0

>  <SCORE.SYSTEM.DIHEDRAL>
0

>  <SCORE.SYSTEM.SOLV>
0

>  <SCORE.SYSTEM.norm>
0

>  <SCORE.heavy>
22

>  <SCORE.norm>
-0.467839

>  <RMSD>
2.875

$$$$
ligand
 OpenBabel11021811443D
libRbt.so/2013.1/901 2013/11/27
 22 23  0  0  0  0  0  0  0  0999 V2000
   17.9571   40.3989   64.7199 C   0  0  0  0  0  0  0  0  0  0  0  0
   24.9304   40.5086   65.6744 C   0  0  0  0  0  0  0  0  0  0  0  0
   29.8065   42.0028   66.0046 P   0  0  1  0  0  0  0  0  0  0  0  0
   20.3209   40.2895   65.0720 N   0  0  0  0  0  0  0  0  0  0  0  0
   30.1270   43.3921   65.5883 O   0  0  0  0  0  0  0  0  0  0  0  0
   25.6162   43.5574   63.1365 S   0  0  0  0  0  0  0  0  0  0  0  0
   24.3363   43.8026   64.1968 C   0  0  0  0  0  0  0  0  0  0  0  0
   19.2026   41.0943   65.0414 C   0  0  0  0  0  0  0  0  0  0  0  0
   30.8032   40.9916   65.5671 O   0  5  0  0  0  0  0  0  0  0  0  0
   24.0905   42.7917   65.0574 N   0  0  0  0  0  0  0  0  0  0  0  0
   19.2283   42.3812   65.2632 N   0  0  0  0  0  0  0  0  0  0  0  0
   29.5123   41.9505   67.4724 O   0  0  0  0  0  0  0  0  0  0  0  0
   24.9991   41.7541   64.8407 C   0  0  2  0  0  0  0  0  0  0  0  0
   20.4307   43.0109   65.5677 C   0  0  0  0  0  0  0  0  0  0  0  0
   20.4402   44.3248   65.7720 N   0  0  0  0  0  0  0  0  0  0  0  0
   25.9045   41.9843   63.8319 C   0  0  1  0  0  0  0  0  0  0  0  0
   21.6446   42.2163   65.6578 C   0  0  0  0  0  0  0  0  0  0  0  0
   26.9795   41.0804   63.3455 C   0  0  0  0  0  0  0  0  0  0  0  0
   21.5097   40.8735   65.3674 C   0  0  0  0  0  0  0  0  0  0  0  0
   28.3107   41.5141   63.8334 C   0  0  0  0  0  0  0  0  0  0  0  0
   22.9583   42.8301   66.1028 C   0  0  0  0  0  0  0  0  0  0  0  0
   28.5001   41.5533   65.2483 O   0  0  0  0  0  0  0  0  0  0  0  0
  1  8  1  0  0  0  0
  3  5  1  6  0  0  0
  3  9  1  0  0  0  0
  3 12  2  0  0  0  0
  3 22  1  0  0  0  0
  4  8  2  0  0  0  0
  4 19  1  0  0  0  0
  6 16  1  0  0  0  0
  6  7  1  0  0  0  0
  7 10  1  0  0  0  0
  8 11  1  0  0  0  0
 10 13  1  0  0  0  0
 10 21  1  0  0  0  0
 11 14  2  0  0  0  0
 13  2  1  6  0  0  0
 13 16  1  0  0  0  0
 14 15  1  0  0  0  0
 14 17  1  0  0  0  0
 16 18  1  6  0  0  0
 17 19  2  0  0  0  0
 17 21  1  0  0  0  0
 18 20  1  0  0  0  0
 20 22  1  0  0  0  0
M  CHG  1   9  -1
M  END
>  <CHROM.1>
93.02369144,76.76923195,-118.01591645,60.41290674,-178.77529455,57.74191063
24.95135617,42.08111715,65.07535930,3.13971433,-0.03372994,-0.54424222

>  <Name>
ligand

>  <RI>
0

>  <Rbt.Current_Directory>
/home/itssahil/PROJECTS/Mol_Feturizer/New_Systems/rnas/2HOM

>  <Rbt.Executable>
rbdock ($Id: //depot/dev/client3/rdock/2013.1/src/exe/rbdock.cxx#4 $)

>  <Rbt.Library>
libRbt.so (2013.1, Build901 2013/11/27)

>  <Rbt.Parameter_File>
/export/apps/rDock/src/rDock_2013.1_src/data/scripts/dock_solv.prm

>  <Rbt.Receptor>
prm/pocket_docking_4.prm

>  <SCORE>
-13.9328

>  <SCORE.INTER>
-13.4878

>  <SCORE.INTER.CONST>
1

>  <SCORE.INTER.POLAR>
-1.18538

>  <SCORE.INTER.ROT>
6

>  <SCORE.INTER.SOLV>
18.9197

>  <SCORE.INTER.VDW>
-18.9472

>  <SCORE.INTER.norm>
-0.613083

>  <SCORE.INTRA>
-0.444944

>  <SCORE.INTRA.DIHEDRAL>
0.0653832

>  <SCORE.INTRA.DIHEDRAL.0>
5.05013

>  <SCORE.INTRA.POLAR>
0

>  <SCORE.INTRA.POLAR.0>
0

>  <SCORE.INTRA.REPUL>
0

>  <SCORE.INTRA.REPUL.0>
0

>  <SCORE.INTRA.SOLV>
-0.104655

>  <SCORE.INTRA.SOLV.lig_0>
-54.1265

>  <SCORE.INTRA.VDW>
-0.425308

>  <SCORE.INTRA.VDW.0>
-2.1303

>  <SCORE.INTRA.norm>
-0.0202247

>  <SCORE.RESTR>
0

>  <SCORE.RESTR.CAVITY>
0

>  <SCORE.RESTR.norm>
0

>  <SCORE.SYSTEM>
0

>  <SCORE.SYSTEM.CONST>
0

>  <SCORE.SYSTEM.DIHEDRAL>
0

>  <SCORE.SYSTEM.SOLV>
0

>  <SCORE.SYSTEM.norm>
0

>  <SCORE.heavy>
22

>  <SCORE.norm>
-0.633307

>  <RMSD>
2.894

$$$$
ligand
 OpenBabel11021811443D
libRbt.so/2013.1/901 2013/11/27
 22 23  0  0  0  0  0  0  0  0999 V2000
   20.4405   44.5409   65.7161 C   0  0  0  0  0  0  0  0  0  0  0  0
   23.0001   38.5225   64.4030 C   0  0  0  0  0  0  0  0  0  0  0  0
   28.6255   38.2837   66.6728 P   0  0  1  0  0  0  0  0  0  0  0  0
   19.8556   42.2227   65.6327 N   0  0  0  0  0  0  0  0  0  0  0  0
   28.1274   36.9403   67.0643 O   0  0  0  0  0  0  0  0  0  0  0  0
   25.2140   37.7396   67.6729 S   0  0  0  0  0  0  0  0  0  0  0  0
   23.6548   38.2764   67.9944 C   0  0  0  0  0  0  0  0  0  0  0  0
   20.7809   43.1574   66.0444 C   0  0  0  0  0  0  0  0  0  0  0  0
   27.9894   39.4064   67.4091 O   0  5  0  0  0  0  0  0  0  0  0  0
   22.8953   38.5436   66.9105 N   0  0  0  0  0  0  0  0  0  0  0  0
   21.8891   42.8562   66.6667 N   0  0  0  0  0  0  0  0  0  0  0  0
   30.1225   38.3195   66.7130 O   0  0  0  0  0  0  0  0  0  0  0  0
   23.6269   38.2965   65.7474 C   0  0  2  0  0  0  0  0  0  0  0  0
   22.1813   41.5292   66.9646 C   0  0  0  0  0  0  0  0  0  0  0  0
   23.3231   41.2402   67.5820 N   0  0  0  0  0  0  0  0  0  0  0  0
   24.9124   37.8574   65.9593 C   0  0  1  0  0  0  0  0  0  0  0  0
   21.2300   40.4936   66.5965 C   0  0  0  0  0  0  0  0  0  0  0  0
   25.9441   37.5264   64.9418 C   0  0  0  0  0  0  0  0  0  0  0  0
   20.1108   40.9188   65.9095 C   0  0  0  0  0  0  0  0  0  0  0  0
   26.8514   38.6740   64.7004 C   0  0  0  0  0  0  0  0  0  0  0  0
   21.4415   39.0475   67.0025 C   0  0  0  0  0  0  0  0  0  0  0  0
   28.1898   38.5535   65.1835 O   0  0  0  0  0  0  0  0  0  0  0  0
  1  8  1  0  0  0  0
  3  5  1  1  0  0  0
  3  9  1  0  0  0  0
  3 12  2  0  0  0  0
  3 22  1  0  0  0  0
  4  8  2  0  0  0  0
  4 19  1  0  0  0  0
  6 16  1  0  0  0  0
  6  7  1  0  0  0  0
  7 10  1  0  0  0  0
  8 11  1  0  0  0  0
 10 13  1  0  0  0  0
 10 21  1  0  0  0  0
 11 14  2  0  0  0  0
 13  2  1  1  0  0  0
 13 16  1  0  0  0  0
 14 15  1  0  0  0  0
 14 17  1  0  0  0  0
 16 18  1  1  0  0  0
 17 19  2  0  0  0  0
 17 21  1  0  0  0  0
 18 20  1  0  0  0  0
 20 22  1  0  0  0  0
M  CHG  1   9  -1
M  END
>  <CHROM.1>
109.14482800,-83.48691809,-40.01037692,109.19084525,-57.42830965,64.13332761
24.55748724,39.46875878,66.42098615,-2.63901809,0.00679209,3.08297681

>  <Name>
ligand

>  <RI>
0

>  <Rbt.Current_Directory>
/home/itssahil/PROJECTS/Mol_Feturizer/New_Systems/rnas/2HOM

>  <Rbt.Executable>
rbdock ($Id: //depot/dev/client3/rdock/2013.1/src/exe/rbdock.cxx#4 $)

>  <Rbt.Library>
libRbt.so (2013.1, Build901 2013/11/27)

>  <Rbt.Parameter_File>
/export/apps/rDock/src/rDock_2013.1_src/data/scripts/dock_solv.prm

>  <Rbt.Receptor>
prm/pocket_docking_5.prm

>  <SCORE>
-15.7718

>  <SCORE.INTER>
-18.8928

>  <SCORE.INTER.CONST>
1

>  <SCORE.INTER.POLAR>
-1.63459

>  <SCORE.INTER.ROT>
6

>  <SCORE.INTER.SOLV>
13.4433

>  <SCORE.INTER.VDW>
-19.2277

>  <SCORE.INTER.norm>
-0.858765

>  <SCORE.INTRA>
3.12107

>  <SCORE.INTRA.DIHEDRAL>
4.91388

>  <SCORE.INTRA.DIHEDRAL.0>
5.05013

>  <SCORE.INTRA.POLAR>
0

>  <SCORE.INTRA.POLAR.0>
0

>  <SCORE.INTRA.REPUL>
0

>  <SCORE.INTRA.REPUL.0>
0

>  <SCORE.INTRA.SOLV>
4.18152

>  <SCORE.INTRA.SOLV.lig_0>
-54.1265

>  <SCORE.INTRA.VDW>
-1.42663

>  <SCORE.INTRA.VDW.0>
-2.1303

>  <SCORE.INTRA.norm>
0.141867

>  <SCORE.RESTR>
0

>  <SCORE.RESTR.CAVITY>
0

>  <SCORE.RESTR.norm>
0

>  <SCORE.SYSTEM>
0

>  <SCORE.SYSTEM.CONST>
0

>  <SCORE.SYSTEM.DIHEDRAL>
0

>  <SCORE.SYSTEM.SOLV>
0

>  <SCORE.SYSTEM.norm>
0

>  <SCORE.heavy>
22

>  <SCORE.norm>
-0.716898

>  <RMSD>
2.895

$$$$
ligand
 OpenBabel11021811443D
libRbt.so/2013.1/901 2013/11/27
 22 23  0  0  0  0  0  0  0  0999 V2000
   19.0810   40.5769   65.0977 C   0  0  0  0  0  0  0  0  0  0  0  0
   25.1836   42.9976   64.0029 C   0  0  0  0  0  0  0  0  0  0  0  0
   28.3315   39.1400   68.2161 P   0  0  1  0  0  0  0  0  0  0  0  0
   21.3939   41.1852   65.1574 N   0  0  0  0  0  0  0  0  0  0  0  0
   29.6094   38.5607   67.7287 O   0  0  0  0  0  0  0  0  0  0  0  0
   26.5982   43.0281   67.7718 S   0  0  0  0  0  0  0  0  0  0  0  0
   25.1043   43.7720   67.5779 C   0  0  0  0  0  0  0  0  0  0  0  0
   20.0916   41.6162   65.2889 C   0  0  0  0  0  0  0  0  0  0  0  0
   27.2304   38.1524   68.3561 O   0  5  0  0  0  0  0  0  0  0  0  0
   24.6117   43.7715   66.3208 N   0  0  0  0  0  0  0  0  0  0  0  0
   19.7589   42.8524   65.5483 N   0  0  0  0  0  0  0  0  0  0  0  0
   28.5626   39.9515   69.4537 O   0  0  0  0  0  0  0  0  0  0  0  0
   25.5044   43.1265   65.4629 C   0  0  2  0  0  0  0  0  0  0  0  0
   20.7462   43.8161   65.7257 C   0  0  0  0  0  0  0  0  0  0  0  0
   20.3880   45.0730   65.9707 N   0  0  0  0  0  0  0  0  0  0  0  0
   26.6466   42.6581   66.0682 C   0  0  1  0  0  0  0  0  0  0  0  0
   22.1434   43.4239   65.6420 C   0  0  0  0  0  0  0  0  0  0  0  0
   27.7906   41.9500   65.4366 C   0  0  0  0  0  0  0  0  0  0  0  0
   22.3810   42.1013   65.3258 C   0  0  0  0  0  0  0  0  0  0  0  0
   28.5272   41.1260   66.4250 C   0  0  0  0  0  0  0  0  0  0  0  0
   23.2584   44.4065   65.9447 C   0  0  0  0  0  0  0  0  0  0  0  0
   27.7829   40.1178   67.1098 O   0  0  0  0  0  0  0  0  0  0  0  0
  1  8  1  0  0  0  0
  3  5  1  6  0  0  0
  3  9  1  0  0  0  0
  3 12  2  0  0  0  0
  3 22  1  0  0  0  0
  4  8  2  0  0  0  0
  4 19  1  0  0  0  0
  6 16  1  0  0  0  0
  6  7  1  0  0  0  0
  7 10  1  0  0  0  0
  8 11  1  0  0  0  0
 10 13  1  0  0  0  0
 10 21  1  0  0  0  0
 11 14  2  0  0  0  0
 13  2  1  6  0  0  0
 13 16  1  0  0  0  0
 14 15  1  0  0  0  0
 14 17  1  0  0  0  0
 16 18  1  6  0  0  0
 17 19  2  0  0  0  0
 17 21  1  0  0  0  0
 18 20  1  0  0  0  0
 20 22  1  0  0  0  0
M  CHG  1   9  -1
M  END
>  <CHROM.1>
-106.93965793,24.43873947,158.55395917,58.53272346,-178.79539233,-47.65366614
25.00195500,41.78165768,66.56749812,2.71352131,-0.22637511,-0.20460021

>  <Name>
ligand

>  <RI>
0

>  <Rbt.Current_Directory>
/home/itssahil/PROJECTS/Mol_Feturizer/New_Systems/rnas/2HOM

>  <Rbt.Executable>
rbdock ($Id: //depot/dev/client3/rdock/2013.1/src/exe/rbdock.cxx#4 $)

>  <Rbt.Library>
libRbt.so (2013.1, Build901 2013/11/27)

>  <Rbt.Parameter_File>
/export/apps/rDock/src/rDock_2013.1_src/data/scripts/dock_solv.prm

>  <Rbt.Receptor>
prm/pocket_docking_7.prm

>  <SCORE>
-13.2138

>  <SCORE.INTER>
-13.7417

>  <SCORE.INTER.CONST>
1

>  <SCORE.INTER.POLAR>
-1.30767

>  <SCORE.INTER.ROT>
6

>  <SCORE.INTER.SOLV>
16.6414

>  <SCORE.INTER.VDW>
-17.9494

>  <SCORE.INTER.norm>
-0.624622

>  <SCORE.INTRA>
0.527929

>  <SCORE.INTRA.DIHEDRAL>
0.031075

>  <SCORE.INTRA.DIHEDRAL.0>
5.05013

>  <SCORE.INTRA.POLAR>
0

>  <SCORE.INTRA.POLAR.0>
0

>  <SCORE.INTRA.REPUL>
0

>  <SCORE.INTRA.REPUL.0>
0

>  <SCORE.INTRA.SOLV>
-0.136916

>  <SCORE.INTRA.SOLV.lig_0>
-54.1265

>  <SCORE.INTRA.VDW>
0.580849

>  <SCORE.INTRA.VDW.0>
-2.1303

>  <SCORE.INTRA.norm>
0.0239968

>  <SCORE.RESTR>
0

>  <SCORE.RESTR.CAVITY>
0

>  <SCORE.RESTR.norm>
0

>  <SCORE.SYSTEM>
0

>  <SCORE.SYSTEM.CONST>
0

>  <SCORE.SYSTEM.DIHEDRAL>
0

>  <SCORE.SYSTEM.SOLV>
0

>  <SCORE.SYSTEM.norm>
0

>  <SCORE.heavy>
22

>  <SCORE.norm>
-0.600626

>  <RMSD>
2.896

$$$$
ligand
 OpenBabel11021811443D
libRbt.so/2013.1/901 2013/11/27
 22 23  0  0  0  0  0  0  0  0999 V2000
   20.4618   44.2086   65.6384 C   0  0  0  0  0  0  0  0  0  0  0  0
   26.1114   40.5149   67.2654 C   0  0  0  0  0  0  0  0  0  0  0  0
   29.8560   39.9870   66.9213 P   0  0  1  0  0  0  0  0  0  0  0  0
   22.1492   43.2862   67.0614 N   0  0  0  0  0  0  0  0  0  0  0  0
   30.2814   40.4165   68.2781 O   0  0  0  0  0  0  0  0  0  0  0  0
   24.8720   37.3158   65.1590 S   0  0  0  0  0  0  0  0  0  0  0  0
   23.7254   37.9492   66.2111 C   0  0  0  0  0  0  0  0  0  0  0  0
   21.0899   43.0232   66.2200 C   0  0  0  0  0  0  0  0  0  0  0  0
   28.9937   40.9693   66.2150 O   0  5  0  0  0  0  0  0  0  0  0  0
   24.1214   39.0237   66.9265 N   0  0  0  0  0  0  0  0  0  0  0  0
   20.6524   41.8207   65.9581 N   0  0  0  0  0  0  0  0  0  0  0  0
   31.0401   39.5485   66.1155 O   0  0  0  0  0  0  0  0  0  0  0  0
   25.4381   39.3516   66.5984 C   0  0  2  0  0  0  0  0  0  0  0  0
   21.2743   40.7145   66.5277 C   0  0  0  0  0  0  0  0  0  0  0  0
   20.8031   39.4993   66.2641 N   0  0  0  0  0  0  0  0  0  0  0  0
   26.0173   38.5326   65.6581 C   0  0  1  0  0  0  0  0  0  0  0  0
   22.4247   40.9151   67.3933 C   0  0  0  0  0  0  0  0  0  0  0  0
   27.3979   38.6022   65.1121 C   0  0  0  0  0  0  0  0  0  0  0  0
   22.7784   42.2279   67.6323 C   0  0  0  0  0  0  0  0  0  0  0  0
   28.3703   37.9454   66.0184 C   0  0  0  0  0  0  0  0  0  0  0  0
   23.2124   39.7416   67.9436 C   0  0  0  0  0  0  0  0  0  0  0  0
   28.9068   38.7398   67.0770 O   0  0  0  0  0  0  0  0  0  0  0  0
  1  8  1  0  0  0  0
  3  5  1  1  0  0  0
  3  9  1  0  0  0  0
  3 12  2  0  0  0  0
  3 22  1  0  0  0  0
  4  8  2  0  0  0  0
  4 19  1  0  0  0  0
  6 16  1  0  0  0  0
  6  7  1  0  0  0  0
  7 10  1  0  0  0  0
  8 11  1  0  0  0  0
 10 13  1  0  0  0  0
 10 21  1  0  0  0  0
 11 14  2  0  0  0  0
 13  2  1  1  0  0  0
 13 16  1  0  0  0  0
 14 15  1  0  0  0  0
 14 17  1  0  0  0  0
 16 18  1  1  0  0  0
 17 19  2  0  0  0  0
 17 21  1  0  0  0  0
 18 20  1  0  0  0  0
 20 22  1  0  0  0  0
M  CHG  1   9  -1
M  END
>  <CHROM.1>
-92.83638630,-97.38775698,74.00100134,-85.70481196,-66.59928384,-174.11693262
25.40996193,40.03164841,66.50426633,-2.88003647,0.09460060,-2.87950790

>  <Name>
ligand

>  <RI>
0

>  <Rbt.Current_Directory>
/home/itssahil/PROJECTS/Mol_Feturizer/New_Systems/rnas/2HOM

>  <Rbt.Executable>
rbdock ($Id: //depot/dev/client3/rdock/2013.1/src/exe/rbdock.cxx#4 $)

>  <Rbt.Library>
libRbt.so (2013.1, Build901 2013/11/27)

>  <Rbt.Parameter_File>
/export/apps/rDock/src/rDock_2013.1_src/data/scripts/dock_solv.prm

>  <Rbt.Receptor>
prm/pocket_docking_4.prm

>  <SCORE>
-11.0911

>  <SCORE.INTER>
-13.4135

>  <SCORE.INTER.CONST>
1

>  <SCORE.INTER.POLAR>
-0.947405

>  <SCORE.INTER.ROT>
6

>  <SCORE.INTER.SOLV>
16.1973

>  <SCORE.INTER.VDW>
-18.7834

>  <SCORE.INTER.norm>
-0.609707

>  <SCORE.INTRA>
2.32247

>  <SCORE.INTRA.DIHEDRAL>
1.98813

>  <SCORE.INTRA.DIHEDRAL.0>
5.05013

>  <SCORE.INTRA.POLAR>
0

>  <SCORE.INTRA.POLAR.0>
0

>  <SCORE.INTRA.REPUL>
0

>  <SCORE.INTRA.REPUL.0>
0

>  <SCORE.INTRA.SOLV>
4.12465

>  <SCORE.INTRA.SOLV.lig_0>
-54.1265

>  <SCORE.INTRA.VDW>
-0.733917

>  <SCORE.INTRA.VDW.0>
-2.1303

>  <SCORE.INTRA.norm>
0.105567

>  <SCORE.RESTR>
0

>  <SCORE.RESTR.CAVITY>
0

>  <SCORE.RESTR.norm>
0

>  <SCORE.SYSTEM>
0

>  <SCORE.SYSTEM.CONST>
0

>  <SCORE.SYSTEM.DIHEDRAL>
0

>  <SCORE.SYSTEM.SOLV>
0

>  <SCORE.SYSTEM.norm>
0

>  <SCORE.heavy>
22

>  <SCORE.norm>
-0.50414

>  <RMSD>
2.913

$$$$
ligand
 OpenBabel11021811443D
libRbt.so/2013.1/901 2013/11/27
 22 23  0  0  0  0  0  0  0  0999 V2000
   20.2469   44.6873   65.9094 C   0  0  0  0  0  0  0  0  0  0  0  0
   22.5156   39.5210   67.8376 C   0  0  0  0  0  0  0  0  0  0  0  0
   28.8558   38.7625   66.1764 P   0  0  1  0  0  0  0  0  0  0  0  0
   21.7169   42.8025   65.8089 N   0  0  0  0  0  0  0  0  0  0  0  0
   29.2096   37.9780   64.9658 O   0  0  0  0  0  0  0  0  0  0  0  0
   24.9039   37.4426   65.3510 S   0  0  0  0  0  0  0  0  0  0  0  0
   23.4292   37.8990   64.6878 C   0  0  0  0  0  0  0  0  0  0  0  0
   20.4148   43.2464   65.7259 C   0  0  0  0  0  0  0  0  0  0  0  0
   29.7541   38.5287   67.3365 O   0  5  0  0  0  0  0  0  0  0  0  0
   22.6137   38.5982   65.5057 N   0  0  0  0  0  0  0  0  0  0  0  0
   19.3924   42.4612   65.5160 N   0  0  0  0  0  0  0  0  0  0  0  0
   28.6943   40.2115   65.8328 O   0  0  0  0  0  0  0  0  0  0  0  0
   23.2262   38.7733   66.7480 C   0  0  2  0  0  0  0  0  0  0  0  0
   19.5880   41.0948   65.3444 C   0  0  0  0  0  0  0  0  0  0  0  0
   18.5332   40.3086   65.1503 N   0  0  0  0  0  0  0  0  0  0  0  0
   24.4755   38.2097   66.8574 C   0  0  1  0  0  0  0  0  0  0  0  0
   20.9401   40.5621   65.3785 C   0  0  0  0  0  0  0  0  0  0  0  0
   25.3741   38.2030   68.0413 C   0  0  0  0  0  0  0  0  0  0  0  0
   21.9415   41.4742   65.6447 C   0  0  0  0  0  0  0  0  0  0  0  0
   26.6751   38.8447   67.7347 C   0  0  0  0  0  0  0  0  0  0  0  0
   21.2208   39.1019   65.0789 C   0  0  0  0  0  0  0  0  0  0  0  0
   27.4642   38.2479   66.7049 O   0  0  0  0  0  0  0  0  0  0  0  0
  1  8  1  0  0  0  0
  3  5  1  6  0  0  0
  3  9  1  0  0  0  0
  3 12  2  0  0  0  0
  3 22  1  0  0  0  0
  4  8  2  0  0  0  0
  4 19  1  0  0  0  0
  6 16  1  0  0  0  0
  6  7  1  0  0  0  0
  7 10  1  0  0  0  0
  8 11  1  0  0  0  0
 10 13  1  0  0  0  0
 10 21  1  0  0  0  0
 11 14  2  0  0  0  0
 13  2  1  1  0  0  0
 13 16  1  0  0  0  0
 14 15  1  0  0  0  0
 14 17  1  0  0  0  0
 16 18  1  1  0  0  0
 17 19  2  0  0  0  0
 17 21  1  0  0  0  0
 18 20  1  0  0  0  0
 20 22  1  0  0  0  0
M  CHG  1   9  -1
M  END
>  <CHROM.1>
-130.97031584,59.43285022,-164.61999216,-60.94434464,178.35652093,-170.97364577
24.18841365,39.65204343,66.04937524,-2.76148772,0.12115114,-3.06970069

>  <Name>
ligand

>  <RI>
0

>  <Rbt.Current_Directory>
/home/itssahil/PROJECTS/Mol_Feturizer/New_Systems/rnas/2HOM

>  <Rbt.Executable>
rbdock ($Id: //depot/dev/client3/rdock/2013.1/src/exe/rbdock.cxx#4 $)

>  <Rbt.Library>
libRbt.so (2013.1, Build901 2013/11/27)

>  <Rbt.Parameter_File>
/export/apps/rDock/src/rDock_2013.1_src/data/scripts/dock_solv.prm

>  <Rbt.Receptor>
prm/pocket_docking_6.prm

>  <SCORE>
-20.3869

>  <SCORE.INTER>
-21.3834

>  <SCORE.INTER.CONST>
1

>  <SCORE.INTER.POLAR>
-1.63459

>  <SCORE.INTER.ROT>
6

>  <SCORE.INTER.SOLV>
15.4889

>  <SCORE.INTER.VDW>
-21.57

>  <SCORE.INTER.norm>
-0.971975

>  <SCORE.INTRA>
0.996498

>  <SCORE.INTRA.DIHEDRAL>
0.147439

>  <SCORE.INTRA.DIHEDRAL.0>
5.05013

>  <SCORE.INTRA.POLAR>
0

>  <SCORE.INTRA.POLAR.0>
0

>  <SCORE.INTRA.REPUL>
0

>  <SCORE.INTRA.REPUL.0>
0

>  <SCORE.INTRA.SOLV>
0.474859

>  <SCORE.INTRA.SOLV.lig_0>
-54.1265

>  <SCORE.INTRA.VDW>
0.685349

>  <SCORE.INTRA.VDW.0>
-2.1303

>  <SCORE.INTRA.norm>
0.0452954

>  <SCORE.RESTR>
0

>  <SCORE.RESTR.CAVITY>
0

>  <SCORE.RESTR.norm>
0

>  <SCORE.SYSTEM>
0

>  <SCORE.SYSTEM.CONST>
0

>  <SCORE.SYSTEM.DIHEDRAL>
0

>  <SCORE.SYSTEM.SOLV>
0

>  <SCORE.SYSTEM.norm>
0

>  <SCORE.heavy>
22

>  <SCORE.norm>
-0.926679

>  <RMSD>
2.928

$$$$
ligand
 OpenBabel11021811443D
libRbt.so/2013.1/901 2013/11/27
 22 23  0  0  0  0  0  0  0  0999 V2000
   20.2418   43.7670   65.4904 C   0  0  0  0  0  0  0  0  0  0  0  0
   24.7169   39.7090   65.1958 C   0  0  0  0  0  0  0  0  0  0  0  0
   29.3951   36.7170   65.3507 P   0  0  1  0  0  0  0  0  0  0  0  0
   20.4528   41.3841   65.4648 N   0  0  0  0  0  0  0  0  0  0  0  0
   30.4886   37.6063   64.8818 O   0  0  0  0  0  0  0  0  0  0  0  0
   26.4740   38.5593   68.6306 S   0  0  0  0  0  0  0  0  0  0  0  0
   24.7949   38.5058   68.6503 C   0  0  0  0  0  0  0  0  0  0  0  0
   20.9305   42.5717   65.9753 C   0  0  0  0  0  0  0  0  0  0  0  0
   29.3531   35.3957   64.6727 O   0  5  0  0  0  0  0  0  0  0  0  0
   24.1861   38.8868   67.5069 N   0  0  0  0  0  0  0  0  0  0  0  0
   21.9277   42.6518   66.8151 N   0  0  0  0  0  0  0  0  0  0  0  0
   29.4051   36.6178   66.8453 O   0  0  0  0  0  0  0  0  0  0  0  0
   25.1446   39.2441   66.5568 C   0  0  2  0  0  0  0  0  0  0  0  0
   22.5598   41.4942   67.2571 C   0  0  0  0  0  0  0  0  0  0  0  0
   23.5852   41.5967   68.0975 N   0  0  0  0  0  0  0  0  0  0  0  0
   26.4466   39.1369   66.9852 C   0  0  1  0  0  0  0  0  0  0  0  0
   22.0814   40.2029   66.7917 C   0  0  0  0  0  0  0  0  0  0  0  0
   27.6862   39.4548   66.2293 C   0  0  0  0  0  0  0  0  0  0  0  0
   21.0476   40.2362   65.8775 C   0  0  0  0  0  0  0  0  0  0  0  0
   27.7127   38.7601   64.9198 C   0  0  0  0  0  0  0  0  0  0  0  0
   22.6547   38.9072   67.3328 C   0  0  0  0  0  0  0  0  0  0  0  0
   28.0221   37.3661   64.9330 O   0  0  0  0  0  0  0  0  0  0  0  0
  1  8  1  0  0  0  0
  3  5  1  6  0  0  0
  3  9  1  0  0  0  0
  3 12  2  0  0  0  0
  3 22  1  0  0  0  0
  4  8  2  0  0  0  0
  4 19  1  0  0  0  0
  6 16  1  0  0  0  0
  6  7  1  0  0  0  0
  7 10  1  0  0  0  0
  8 11  1  0  0  0  0
 10 13  1  0  0  0  0
 10 21  1  0  0  0  0
 11 14  2  0  0  0  0
 13  2  1  1  0  0  0
 13 16  1  0  0  0  0
 14 15  1  0  0  0  0
 14 17  1  0  0  0  0
 16 18  1  1  0  0  0
 17 19  2  0  0  0  0
 17 21  1  0  0  0  0
 18 20  1  0  0  0  0
 20 22  1  0  0  0  0
M  CHG  1   9  -1
M  END
>  <CHROM.1>
129.34916697,127.87926674,-42.02298536,-76.22704451,-65.75844301,-36.76840585
25.42653651,39.22134890,66.40130221,-3.13367215,-0.56005036,1.75487990

>  <Name>
ligand

>  <RI>
0

>  <Rbt.Current_Directory>
/home/itssahil/PROJECTS/Mol_Feturizer/New_Systems/rnas/2HOM

>  <Rbt.Executable>
rbdock ($Id: //depot/dev/client3/rdock/2013.1/src/exe/rbdock.cxx#4 $)

>  <Rbt.Library>
libRbt.so (2013.1, Build901 2013/11/27)

>  <Rbt.Parameter_File>
/export/apps/rDock/src/rDock_2013.1_src/data/scripts/dock_solv.prm

>  <Rbt.Receptor>
prm/pocket_docking_5.prm

>  <SCORE>
-15.5359

>  <SCORE.INTER>
-18.2097

>  <SCORE.INTER.CONST>
1

>  <SCORE.INTER.POLAR>
-1.63114

>  <SCORE.INTER.ROT>
6

>  <SCORE.INTER.SOLV>
15.7381

>  <SCORE.INTER.VDW>
-19.5487

>  <SCORE.INTER.norm>
-0.827714

>  <SCORE.INTRA>
2.67378

>  <SCORE.INTRA.DIHEDRAL>
1.27186

>  <SCORE.INTRA.DIHEDRAL.0>
5.05013

>  <SCORE.INTRA.POLAR>
0

>  <SCORE.INTRA.POLAR.0>
0

>  <SCORE.INTRA.REPUL>
0

>  <SCORE.INTRA.REPUL.0>
0

>  <SCORE.INTRA.SOLV>
4.09003

>  <SCORE.INTRA.SOLV.lig_0>
-54.1265

>  <SCORE.INTRA.VDW>
-0.00716955

>  <SCORE.INTRA.VDW.0>
-2.1303

>  <SCORE.INTRA.norm>
0.121535

>  <SCORE.RESTR>
0

>  <SCORE.RESTR.CAVITY>
0

>  <SCORE.RESTR.norm>
0

>  <SCORE.SYSTEM>
0

>  <SCORE.SYSTEM.CONST>
0

>  <SCORE.SYSTEM.DIHEDRAL>
0

>  <SCORE.SYSTEM.SOLV>
0

>  <SCORE.SYSTEM.norm>
0

>  <SCORE.heavy>
22

>  <SCORE.norm>
-0.706179

>  <RMSD>
2.960

$$$$
ligand
 OpenBabel11021811443D
libRbt.so/2013.1/901 2013/11/27
 22 23  0  0  0  0  0  0  0  0999 V2000
   20.2017   44.7202   65.9244 C   0  0  0  0  0  0  0  0  0  0  0  0
   22.5092   39.7703   67.7877 C   0  0  0  0  0  0  0  0  0  0  0  0
   28.9587   40.0643   68.2425 P   0  0  1  0  0  0  0  0  0  0  0  0
   19.3762   42.4841   65.7205 N   0  0  0  0  0  0  0  0  0  0  0  0
   29.2806   40.9895   69.3591 O   0  0  0  0  0  0  0  0  0  0  0  0
   24.6816   37.3731   65.3917 S   0  0  0  0  0  0  0  0  0  0  0  0
   23.1765   37.7987   64.7786 C   0  0  0  0  0  0  0  0  0  0  0  0
   20.4827   43.3050   65.6874 C   0  0  0  0  0  0  0  0  0  0  0  0
   28.8470   40.7264   66.9172 O   0  5  0  0  0  0  0  0  0  0  0  0
   22.4323   38.6036   65.5670 N   0  0  0  0  0  0  0  0  0  0  0  0
   21.6948   42.8801   65.4503 N   0  0  0  0  0  0  0  0  0  0  0  0
   29.8945   38.8947   68.2452 O   0  0  0  0  0  0  0  0  0  0  0  0
   23.1295   38.8915   66.7417 C   0  0  2  0  0  0  0  0  0  0  0  0
   21.9270   41.5263   65.2302 C   0  0  0  0  0  0  0  0  0  0  0  0
   23.1649   41.1150   64.9720 N   0  0  0  0  0  0  0  0  0  0  0  0
   24.3708   38.3072   66.8313 C   0  0  1  0  0  0  0  0  0  0  0  0
   20.8115   40.5963   65.2913 C   0  0  0  0  0  0  0  0  0  0  0  0
   25.3457   38.4000   67.9494 C   0  0  0  0  0  0  0  0  0  0  0  0
   19.5695   41.1573   65.5107 C   0  0  0  0  0  0  0  0  0  0  0  0
   26.6506   38.9289   67.4848 C   0  0  0  0  0  0  0  0  0  0  0  0
   21.0254   39.0990   65.1781 C   0  0  0  0  0  0  0  0  0  0  0  0
   27.5055   39.5028   68.4743 O   0  0  0  0  0  0  0  0  0  0  0  0
  1  8  1  0  0  0  0
  3  5  1  1  0  0  0
  3  9  1  0  0  0  0
  3 12  2  0  0  0  0
  3 22  1  0  0  0  0
  4  8  2  0  0  0  0
  4 19  1  0  0  0  0
  6 16  1  0  0  0  0
  6  7  1  0  0  0  0
  7 10  1  0  0  0  0
  8 11  1  0  0  0  0
 10 13  1  0  0  0  0
 10 21  1  0  0  0  0
 11 14  2  0  0  0  0
 13  2  1  1  0  0  0
 13 16  1  0  0  0  0
 14 15  1  0  0  0  0
 14 17  1  0  0  0  0
 16 18  1  1  0  0  0
 17 19  2  0  0  0  0
 17 21  1  0  0  0  0
 18 20  1  0  0  0  0
 20 22  1  0  0  0  0
M  CHG  1   9  -1
M  END
>  <CHROM.1>
-128.97502545,57.67144996,23.81815980,158.79561594,176.85803114,159.45215895
24.34612310,40.08016652,66.59250786,-2.96636659,0.35885298,-2.92796294

>  <Name>
ligand

>  <RI>
0

>  <Rbt.Current_Directory>
/home/itssahil/PROJECTS/Mol_Feturizer/New_Systems/rnas/2HOM

>  <Rbt.Executable>
rbdock ($Id: //depot/dev/client3/rdock/2013.1/src/exe/rbdock.cxx#4 $)

>  <Rbt.Library>
libRbt.so (2013.1, Build901 2013/11/27)

>  <Rbt.Parameter_File>
/export/apps/rDock/src/rDock_2013.1_src/data/scripts/dock_solv.prm

>  <Rbt.Receptor>
prm/pocket_docking_5.prm

>  <SCORE>
-20.1065

>  <SCORE.INTER>
-24.4711

>  <SCORE.INTER.CONST>
1

>  <SCORE.INTER.POLAR>
-2.55908

>  <SCORE.INTER.ROT>
6

>  <SCORE.INTER.SOLV>
15.0606

>  <SCORE.INTER.VDW>
-20.404

>  <SCORE.INTER.norm>
-1.11232

>  <SCORE.INTRA>
4.36454

>  <SCORE.INTRA.DIHEDRAL>
2.46186

>  <SCORE.INTRA.DIHEDRAL.0>
5.05013

>  <SCORE.INTRA.POLAR>
0

>  <SCORE.INTRA.POLAR.0>
0

>  <SCORE.INTRA.REPUL>
0

>  <SCORE.INTRA.REPUL.0>
0

>  <SCORE.INTRA.SOLV>
5.09263

>  <SCORE.INTRA.SOLV.lig_0>
-54.1265

>  <SCORE.INTRA.VDW>
0.587297

>  <SCORE.INTRA.VDW.0>
-2.1303

>  <SCORE.INTRA.norm>
0.198388

>  <SCORE.RESTR>
0

>  <SCORE.RESTR.CAVITY>
0

>  <SCORE.RESTR.norm>
0

>  <SCORE.SYSTEM>
0

>  <SCORE.SYSTEM.CONST>
0

>  <SCORE.SYSTEM.DIHEDRAL>
0

>  <SCORE.SYSTEM.SOLV>
0

>  <SCORE.SYSTEM.norm>
0

>  <SCORE.heavy>
22

>  <SCORE.norm>
-0.913933

>  <RMSD>
2.969

$$$$
ligand
 OpenBabel11021811443D
libRbt.so/2013.1/901 2013/11/27
 22 23  0  0  0  0  0  0  0  0999 V2000
   19.8359   42.5962   65.1627 C   0  0  0  0  0  0  0  0  0  0  0  0
   24.9405   37.5209   68.6389 C   0  0  0  0  0  0  0  0  0  0  0  0
   30.1851   39.6992   66.5113 P   0  0  1  0  0  0  0  0  0  0  0  0
   20.3442   40.2808   64.8403 N   0  0  0  0  0  0  0  0  0  0  0  0
   29.1052   40.4343   67.2182 O   0  0  0  0  0  0  0  0  0  0  0  0
   26.5240   37.9415   64.9616 S   0  0  0  0  0  0  0  0  0  0  0  0
   24.8452   37.9839   65.0108 C   0  0  0  0  0  0  0  0  0  0  0  0
   20.6515   41.4375   65.5236 C   0  0  0  0  0  0  0  0  0  0  0  0
   30.7593   40.4293   65.3518 O   0  5  0  0  0  0  0  0  0  0  0  0
   24.2942   37.8455   66.2357 N   0  0  0  0  0  0  0  0  0  0  0  0
   21.6010   41.5225   66.4164 N   0  0  0  0  0  0  0  0  0  0  0  0
   31.2191   39.2234   67.4850 O   0  0  0  0  0  0  0  0  0  0  0  0
   25.2996   37.6958   67.1927 C   0  0  2  0  0  0  0  0  0  0  0  0
   22.3574   40.3999   66.7369 C   0  0  0  0  0  0  0  0  0  0  0  0
   23.3321   40.5102   67.6346 N   0  0  0  0  0  0  0  0  0  0  0  0
   26.5792   37.7166   66.6902 C   0  0  1  0  0  0  0  0  0  0  0  0
   22.0608   39.1351   66.0847 C   0  0  0  0  0  0  0  0  0  0  0  0
   27.8561   37.5663   67.4359 C   0  0  0  0  0  0  0  0  0  0  0  0
   21.0634   39.1672   65.1310 C   0  0  0  0  0  0  0  0  0  0  0  0
   28.9890   37.2992   66.5175 C   0  0  0  0  0  0  0  0  0  0  0  0
   22.7727   37.8562   66.4825 C   0  0  0  0  0  0  0  0  0  0  0  0
   29.5512   38.4233   65.8396 O   0  0  0  0  0  0  0  0  0  0  0  0
  1  8  1  0  0  0  0
  3  5  1  1  0  0  0
  3  9  1  0  0  0  0
  3 12  2  0  0  0  0
  3 22  1  0  0  0  0
  4  8  2  0  0  0  0
  4 19  1  0  0  0  0
  6 16  1  0  0  0  0
  6  7  1  0  0  0  0
  7 10  1  0  0  0  0
  8 11  1  0  0  0  0
 10 13  1  0  0  0  0
 10 21  1  0  0  0  0
 11 14  2  0  0  0  0
 13  2  1  6  0  0  0
 13 16  1  0  0  0  0
 14 15  1  0  0  0  0
 14 17  1  0  0  0  0
 16 18  1  6  0  0  0
 17 19  2  0  0  0  0
 17 21  1  0  0  0  0
 18 20  1  0  0  0  0
 20 22  1  0  0  0  0
M  CHG  1   9  -1
M  END
>  <CHROM.1>
-61.02781995,-13.99257101,-63.39783171,79.97799050,58.80839739,-66.30199558
25.68948604,39.18980344,66.27806965,-2.97144457,0.05651562,2.98892247

>  <Name>
ligand

>  <RI>
0

>  <Rbt.Current_Directory>
/home/itssahil/PROJECTS/Mol_Feturizer/New_Systems/rnas/2HOM

>  <Rbt.Executable>
rbdock ($Id: //depot/dev/client3/rdock/2013.1/src/exe/rbdock.cxx#4 $)

>  <Rbt.Library>
libRbt.so (2013.1, Build901 2013/11/27)

>  <Rbt.Parameter_File>
/export/apps/rDock/src/rDock_2013.1_src/data/scripts/dock_solv.prm

>  <Rbt.Receptor>
prm/pocket_docking_4.prm

>  <SCORE>
-17.2698

>  <SCORE.INTER>
-19.8219

>  <SCORE.INTER.CONST>
1

>  <SCORE.INTER.POLAR>
-1.63443

>  <SCORE.INTER.ROT>
6

>  <SCORE.INTER.SOLV>
18.3831

>  <SCORE.INTER.VDW>
-21.4942

>  <SCORE.INTER.norm>
-0.900997

>  <SCORE.INTRA>
2.55217

>  <SCORE.INTRA.DIHEDRAL>
1.08489

>  <SCORE.INTRA.DIHEDRAL.0>
5.05013

>  <SCORE.INTRA.POLAR>
0

>  <SCORE.INTRA.POLAR.0>
0

>  <SCORE.INTRA.REPUL>
0

>  <SCORE.INTRA.REPUL.0>
0

>  <SCORE.INTRA.SOLV>
3.1583

>  <SCORE.INTRA.SOLV.lig_0>
-54.1265

>  <SCORE.INTRA.VDW>
0.430578

>  <SCORE.INTRA.VDW.0>
-2.1303

>  <SCORE.INTRA.norm>
0.116008

>  <SCORE.RESTR>
0

>  <SCORE.RESTR.CAVITY>
0

>  <SCORE.RESTR.norm>
0

>  <SCORE.SYSTEM>
0

>  <SCORE.SYSTEM.CONST>
0

>  <SCORE.SYSTEM.DIHEDRAL>
0

>  <SCORE.SYSTEM.SOLV>
0

>  <SCORE.SYSTEM.norm>
0

>  <SCORE.heavy>
22

>  <SCORE.norm>
-0.784989

>  <RMSD>
2.973

$$$$
ligand
 OpenBabel11021811443D
libRbt.so/2013.1/901 2013/11/27
 22 23  0  0  0  0  0  0  0  0999 V2000
   17.1218   39.2432   63.9312 C   0  0  0  0  0  0  0  0  0  0  0  0
   23.1402   40.1387   68.1130 C   0  0  0  0  0  0  0  0  0  0  0  0
   27.0748   42.4625   67.7492 P   0  0  1  0  0  0  0  0  0  0  0  0
   18.1251   41.1617   64.9491 N   0  0  0  0  0  0  0  0  0  0  0  0
   25.6129   42.6557   67.5711 O   0  0  0  0  0  0  0  0  0  0  0  0
   25.1567   40.6366   64.6645 S   0  0  0  0  0  0  0  0  0  0  0  0
   23.6936   41.4584   64.7456 C   0  0  0  0  0  0  0  0  0  0  0  0
   18.3061   39.8636   64.5232 C   0  0  0  0  0  0  0  0  0  0  0  0
   27.9100   43.2074   66.7721 O   0  5  0  0  0  0  0  0  0  0  0  0
   23.0020   41.3051   65.8951 N   0  0  0  0  0  0  0  0  0  0  0  0
   19.4317   39.2114   64.6411 N   0  0  0  0  0  0  0  0  0  0  0  0
   27.4658   42.7083   69.1741 O   0  0  0  0  0  0  0  0  0  0  0  0
   23.7057   40.4679   66.7628 C   0  0  2  0  0  0  0  0  0  0  0  0
   20.5396   39.8325   65.2082 C   0  0  0  0  0  0  0  0  0  0  0  0
   21.6715   39.1466   65.3369 N   0  0  0  0  0  0  0  0  0  0  0  0
   24.8997   39.9997   66.2675 C   0  0  1  0  0  0  0  0  0  0  0  0
   20.4326   41.2157   65.6423 C   0  0  0  0  0  0  0  0  0  0  0  0
   25.8666   39.0842   66.9279 C   0  0  0  0  0  0  0  0  0  0  0  0
   19.1876   41.7962   65.5059 C   0  0  0  0  0  0  0  0  0  0  0  0
   26.7170   39.8094   67.9023 C   0  0  0  0  0  0  0  0  0  0  0  0
   21.6395   41.9772   66.1560 C   0  0  0  0  0  0  0  0  0  0  0  0
   27.4142   40.9596   67.4224 O   0  0  0  0  0  0  0  0  0  0  0  0
  1  8  1  0  0  0  0
  3  5  1  6  0  0  0
  3  9  1  0  0  0  0
  3 12  2  0  0  0  0
  3 22  1  0  0  0  0
  4  8  2  0  0  0  0
  4 19  1  0  0  0  0
  6 16  1  0  0  0  0
  6  7  1  0  0  0  0
  7 10  1  0  0  0  0
  8 11  1  0  0  0  0
 10 13  1  0  0  0  0
 10 21  1  0  0  0  0
 11 14  2  0  0  0  0
 13  2  1  6  0  0  0
 13 16  1  0  0  0  0
 14 15  1  0  0  0  0
 14 17  1  0  0  0  0
 16 18  1  6  0  0  0
 17 19  2  0  0  0  0
 17 21  1  0  0  0  0
 18 20  1  0  0  0  0
 20 22  1  0  0  0  0
M  CHG  1   9  -1
M  END
>  <CHROM.1>
85.63904715,100.65995160,12.88505411,-53.60602444,107.06450578,-47.13614918
23.54530785,40.94111502,66.23657253,-2.82953198,-0.21737012,0.43436638

>  <Name>
ligand

>  <RI>
0

>  <Rbt.Current_Directory>
/home/itssahil/PROJECTS/Mol_Feturizer/New_Systems/rnas/2HOM

>  <Rbt.Executable>
rbdock ($Id: //depot/dev/client3/rdock/2013.1/src/exe/rbdock.cxx#4 $)

>  <Rbt.Library>
libRbt.so (2013.1, Build901 2013/11/27)

>  <Rbt.Parameter_File>
/export/apps/rDock/src/rDock_2013.1_src/data/scripts/dock_solv.prm

>  <Rbt.Receptor>
prm/pocket_docking_6.prm

>  <SCORE>
-13.3467

>  <SCORE.INTER>
-17.3715

>  <SCORE.INTER.CONST>
1

>  <SCORE.INTER.POLAR>
0

>  <SCORE.INTER.ROT>
6

>  <SCORE.INTER.SOLV>
10.4172

>  <SCORE.INTER.VDW>
-22.6534

>  <SCORE.INTER.norm>
-0.789614

>  <SCORE.INTRA>
4.02477

>  <SCORE.INTRA.DIHEDRAL>
6.55253

>  <SCORE.INTRA.DIHEDRAL.0>
5.05013

>  <SCORE.INTRA.POLAR>
0

>  <SCORE.INTRA.POLAR.0>
0

>  <SCORE.INTRA.REPUL>
0

>  <SCORE.INTRA.REPUL.0>
0

>  <SCORE.INTRA.SOLV>
5.12934

>  <SCORE.INTRA.SOLV.lig_0>
-54.1265

>  <SCORE.INTRA.VDW>
-1.81616

>  <SCORE.INTRA.VDW.0>
-2.1303

>  <SCORE.INTRA.norm>
0.182944

>  <SCORE.RESTR>
0

>  <SCORE.RESTR.CAVITY>
0

>  <SCORE.RESTR.norm>
0

>  <SCORE.SYSTEM>
0

>  <SCORE.SYSTEM.CONST>
0

>  <SCORE.SYSTEM.DIHEDRAL>
0

>  <SCORE.SYSTEM.SOLV>
0

>  <SCORE.SYSTEM.norm>
0

>  <SCORE.heavy>
22

>  <SCORE.norm>
-0.60667

>  <RMSD>
3.001

$$$$
ligand
 OpenBabel11021811443D
libRbt.so/2013.1/901 2013/11/27
 22 23  0  0  0  0  0  0  0  0999 V2000
   20.2252   44.4133   65.8485 C   0  0  0  0  0  0  0  0  0  0  0  0
   23.2332   39.4877   68.0414 C   0  0  0  0  0  0  0  0  0  0  0  0
   29.0091   39.5310   69.3698 P   0  0  1  0  0  0  0  0  0  0  0  0
   21.7857   42.6149   66.0813 N   0  0  0  0  0  0  0  0  0  0  0  0
   28.4542   38.6112   70.3956 O   0  0  0  0  0  0  0  0  0  0  0  0
   25.4613   37.7231   65.1904 S   0  0  0  0  0  0  0  0  0  0  0  0
   23.8518   37.9637   64.7730 C   0  0  0  0  0  0  0  0  0  0  0  0
   20.4901   42.9768   65.7818 C   0  0  0  0  0  0  0  0  0  0  0  0
   29.8141   40.6485   69.9269 O   0  5  0  0  0  0  0  0  0  0  0  0
   23.0874   38.5555   65.7157 N   0  0  0  0  0  0  0  0  0  0  0  0
   19.5507   42.1230   65.4745 N   0  0  0  0  0  0  0  0  0  0  0  0
   29.7237   38.7576   68.3045 O   0  0  0  0  0  0  0  0  0  0  0  0
   23.8586   38.8298   66.8467 C   0  0  2  0  0  0  0  0  0  0  0  0
   19.8375   40.7630   65.4189 C   0  0  0  0  0  0  0  0  0  0  0  0
   18.8638   39.9072   65.1225 N   0  0  0  0  0  0  0  0  0  0  0  0
   25.1750   38.4445   66.7521 C   0  0  1  0  0  0  0  0  0  0  0  0
   21.1942   40.3129   65.6830 C   0  0  0  0  0  0  0  0  0  0  0  0
   26.2418   38.5773   67.7785 C   0  0  0  0  0  0  0  0  0  0  0  0
   22.0981   41.2951   66.0349 C   0  0  0  0  0  0  0  0  0  0  0  0
   27.0408   39.8087   67.5700 C   0  0  0  0  0  0  0  0  0  0  0  0
   21.5887   38.8575   65.5193 C   0  0  0  0  0  0  0  0  0  0  0  0
   27.8067   40.2787   68.6799 O   0  0  0  0  0  0  0  0  0  0  0  0
  1  8  1  0  0  0  0
  3  5  1  1  0  0  0
  3  9  1  0  0  0  0
  3 12  2  0  0  0  0
  3 22  1  0  0  0  0
  4  8  2  0  0  0  0
  4 19  1  0  0  0  0
  6 16  1  0  0  0  0
  6  7  1  0  0  0  0
  7 10  1  0  0  0  0
  8 11  1  0  0  0  0
 10 13  1  0  0  0  0
 10 21  1  0  0  0  0
 11 14  2  0  0  0  0
 13  2  1  1  0  0  0
 13 16  1  0  0  0  0
 14 15  1  0  0  0  0
 14 17  1  0  0  0  0
 16 18  1  1  0  0  0
 17 19  2  0  0  0  0
 17 21  1  0  0  0  0
 18 20  1  0  0  0  0
 20 22  1  0  0  0  0
M  CHG  1   9  -1
M  END
>  <CHROM.1>
-122.74540915,85.14881488,174.86502965,161.22628732,64.09125707,-86.08135752
24.51474109,39.87344260,66.96952790,-3.10751196,0.45037640,-2.68092589

>  <Name>
ligand

>  <RI>
0

>  <Rbt.Current_Directory>
/home/itssahil/PROJECTS/Mol_Feturizer/New_Systems/rnas/2HOM

>  <Rbt.Executable>
rbdock ($Id: //depot/dev/client3/rdock/2013.1/src/exe/rbdock.cxx#4 $)

>  <Rbt.Library>
libRbt.so (2013.1, Build901 2013/11/27)

>  <Rbt.Parameter_File>
/export/apps/rDock/src/rDock_2013.1_src/data/scripts/dock_solv.prm

>  <Rbt.Receptor>
prm/pocket_docking_8.prm

>  <SCORE>
-21.9406

>  <SCORE.INTER>
-24.526

>  <SCORE.INTER.CONST>
1

>  <SCORE.INTER.POLAR>
-2.81913

>  <SCORE.INTER.ROT>
6

>  <SCORE.INTER.SOLV>
19.8723

>  <SCORE.INTER.VDW>
-21.1777

>  <SCORE.INTER.norm>
-1.11482

>  <SCORE.INTRA>
2.5854

>  <SCORE.INTRA.DIHEDRAL>
2.24571

>  <SCORE.INTRA.DIHEDRAL.0>
5.05013

>  <SCORE.INTRA.POLAR>
0

>  <SCORE.INTRA.POLAR.0>
0

>  <SCORE.INTRA.REPUL>
0

>  <SCORE.INTRA.REPUL.0>
0

>  <SCORE.INTRA.SOLV>
0.809901

>  <SCORE.INTRA.SOLV.lig_0>
-54.1265

>  <SCORE.INTRA.VDW>
1.0576

>  <SCORE.INTRA.VDW.0>
-2.1303

>  <SCORE.INTRA.norm>
0.117518

>  <SCORE.RESTR>
0

>  <SCORE.RESTR.CAVITY>
0

>  <SCORE.RESTR.norm>
0

>  <SCORE.SYSTEM>
0

>  <SCORE.SYSTEM.CONST>
0

>  <SCORE.SYSTEM.DIHEDRAL>
0

>  <SCORE.SYSTEM.SOLV>
0

>  <SCORE.SYSTEM.norm>
0

>  <SCORE.heavy>
22

>  <SCORE.norm>
-0.997302

>  <RMSD>
3.035

$$$$
ligand
 OpenBabel11021811443D
libRbt.so/2013.1/901 2013/11/27
 22 23  0  0  0  0  0  0  0  0999 V2000
   17.4329   40.0204   63.9714 C   0  0  0  0  0  0  0  0  0  0  0  0
   24.2091   39.3788   67.4194 C   0  0  0  0  0  0  0  0  0  0  0  0
   29.2786   40.5284   62.9104 P   0  0  1  0  0  0  0  0  0  0  0  0
   18.8646   41.6956   64.9026 N   0  0  0  0  0  0  0  0  0  0  0  0
   29.8040   41.6269   63.7611 O   0  0  0  0  0  0  0  0  0  0  0  0
   25.3589   41.0701   63.9519 S   0  0  0  0  0  0  0  0  0  0  0  0
   23.9591   41.7183   64.6174 C   0  0  0  0  0  0  0  0  0  0  0  0
   18.6767   40.3511   64.6652 C   0  0  0  0  0  0  0  0  0  0  0  0
   28.7669   40.9744   61.5889 O   0  5  0  0  0  0  0  0  0  0  0  0
   23.5570   41.1652   65.7817 N   0  0  0  0  0  0  0  0  0  0  0  0
   19.5201   39.4243   65.0337 N   0  0  0  0  0  0  0  0  0  0  0  0
   30.2769   39.4156   62.8162 O   0  0  0  0  0  0  0  0  0  0  0  0
   24.4420   40.1521   66.1549 C   0  0  2  0  0  0  0  0  0  0  0  0
   20.6950   39.7741   65.6911 C   0  0  0  0  0  0  0  0  0  0  0  0
   21.5325   38.8153   66.0752 N   0  0  0  0  0  0  0  0  0  0  0  0
   25.4842   39.9486   65.2815 C   0  0  1  0  0  0  0  0  0  0  0  0
   20.9784   41.1783   65.9382 C   0  0  0  0  0  0  0  0  0  0  0  0
   26.5759   38.9448   65.3800 C   0  0  0  0  0  0  0  0  0  0  0  0
   20.0022   42.0698   65.5412 C   0  0  0  0  0  0  0  0  0  0  0  0
   27.8770   39.5201   64.9621 C   0  0  0  0  0  0  0  0  0  0  0  0
   22.2968   41.6228   66.5422 C   0  0  0  0  0  0  0  0  0  0  0  0
   27.9901   39.9450   63.6034 O   0  0  0  0  0  0  0  0  0  0  0  0
  1  8  1  0  0  0  0
  3  5  1  1  0  0  0
  3  9  1  0  0  0  0
  3 12  2  0  0  0  0
  3 22  1  0  0  0  0
  4  8  2  0  0  0  0
  4 19  1  0  0  0  0
  6 16  1  0  0  0  0
  6  7  1  0  0  0  0
  7 10  1  0  0  0  0
  8 11  1  0  0  0  0
 10 13  1  0  0  0  0
 10 21  1  0  0  0  0
 11 14  2  0  0  0  0
 13  2  1  6  0  0  0
 13 16  1  0  0  0  0
 14 15  1  0  0  0  0
 14 17  1  0  0  0  0
 16 18  1  6  0  0  0
 17 19  2  0  0  0  0
 17 21  1  0  0  0  0
 18 20  1  0  0  0  0
 20 22  1  0  0  0  0
M  CHG  1   9  -1
M  END
>  <CHROM.1>
74.81148845,40.52936844,55.84862552,-63.48814757,-177.29887944,-50.96952386
24.50327817,40.44811365,64.63793240,2.95514234,-0.10186579,1.98975649

>  <Name>
ligand

>  <RI>
0

>  <Rbt.Current_Directory>
/home/itssahil/PROJECTS/Mol_Feturizer/New_Systems/rnas/2HOM

>  <Rbt.Executable>
rbdock ($Id: //depot/dev/client3/rdock/2013.1/src/exe/rbdock.cxx#4 $)

>  <Rbt.Library>
libRbt.so (2013.1, Build901 2013/11/27)

>  <Rbt.Parameter_File>
/export/apps/rDock/src/rDock_2013.1_src/data/scripts/dock_solv.prm

>  <Rbt.Receptor>
prm/pocket_docking_8.prm

>  <SCORE>
-13.2111

>  <SCORE.INTER>
-14.9977

>  <SCORE.INTER.CONST>
1

>  <SCORE.INTER.POLAR>
0

>  <SCORE.INTER.ROT>
6

>  <SCORE.INTER.SOLV>
9.52311

>  <SCORE.INTER.VDW>
-20.7728

>  <SCORE.INTER.norm>
-0.681714

>  <SCORE.INTRA>
1.78664

>  <SCORE.INTRA.DIHEDRAL>
0.149575

>  <SCORE.INTRA.DIHEDRAL.0>
5.05013

>  <SCORE.INTRA.POLAR>
0

>  <SCORE.INTRA.POLAR.0>
0

>  <SCORE.INTRA.REPUL>
0

>  <SCORE.INTRA.REPUL.0>
0

>  <SCORE.INTRA.SOLV>
3.15407

>  <SCORE.INTRA.SOLV.lig_0>
-54.1265

>  <SCORE.INTRA.VDW>
0.134818

>  <SCORE.INTRA.VDW.0>
-2.1303

>  <SCORE.INTRA.norm>
0.0812108

>  <SCORE.RESTR>
0

>  <SCORE.RESTR.CAVITY>
0

>  <SCORE.RESTR.norm>
0

>  <SCORE.SYSTEM>
0

>  <SCORE.SYSTEM.CONST>
0

>  <SCORE.SYSTEM.DIHEDRAL>
0

>  <SCORE.SYSTEM.SOLV>
0

>  <SCORE.SYSTEM.norm>
0

>  <SCORE.heavy>
22

>  <SCORE.norm>
-0.600503

>  <RMSD>
3.037

$$$$
ligand
 OpenBabel11021811443D
libRbt.so/2013.1/901 2013/11/27
 22 23  0  0  0  0  0  0  0  0999 V2000
   21.0432   44.6146   65.9221 C   0  0  0  0  0  0  0  0  0  0  0  0
   23.6443   39.6508   64.7658 C   0  0  0  0  0  0  0  0  0  0  0  0
   29.7381   37.3442   65.2409 P   0  0  1  0  0  0  0  0  0  0  0  0
   22.1983   42.9695   67.2192 N   0  0  0  0  0  0  0  0  0  0  0  0
   30.1441   37.3517   63.8122 O   0  0  0  0  0  0  0  0  0  0  0  0
   25.8870   37.7898   67.5432 S   0  0  0  0  0  0  0  0  0  0  0  0
   24.3178   38.1410   68.0298 C   0  0  0  0  0  0  0  0  0  0  0  0
   21.2268   43.2066   66.2709 C   0  0  0  0  0  0  0  0  0  0  0  0
   30.5010   36.3887   66.0848 O   0  5  0  0  0  0  0  0  0  0  0  0
   23.5486   38.7645   67.1119 N   0  0  0  0  0  0  0  0  0  0  0  0
   20.5031   42.2675   65.7229 N   0  0  0  0  0  0  0  0  0  0  0  0
   29.7221   38.7384   65.7882 O   0  0  0  0  0  0  0  0  0  0  0  0
   24.2809   38.9690   65.9410 C   0  0  2  0  0  0  0  0  0  0  0  0
   20.7049   40.9375   66.0770 C   0  0  0  0  0  0  0  0  0  0  0  0
   19.9458   39.9971   65.5223 N   0  0  0  0  0  0  0  0  0  0  0  0
   25.5764   38.5108   65.9859 C   0  0  1  0  0  0  0  0  0  0  0  0
   21.7420   40.6098   67.0414 C   0  0  0  0  0  0  0  0  0  0  0  0
   26.6112   38.5911   64.9219 C   0  0  0  0  0  0  0  0  0  0  0  0
   22.4204   41.6818   67.5855 C   0  0  0  0  0  0  0  0  0  0  0  0
   27.1406   37.2485   64.5819 C   0  0  0  0  0  0  0  0  0  0  0  0
   22.0846   39.1700   67.3732 C   0  0  0  0  0  0  0  0  0  0  0  0
   28.2669   36.7887   65.3297 O   0  0  0  0  0  0  0  0  0  0  0  0
  1  8  1  0  0  0  0
  3  5  1  6  0  0  0
  3  9  1  0  0  0  0
  3 12  2  0  0  0  0
  3 22  1  0  0  0  0
  4  8  2  0  0  0  0
  4 19  1  0  0  0  0
  6 16  1  0  0  0  0
  6  7  1  0  0  0  0
  7 10  1  0  0  0  0
  8 11  1  0  0  0  0
 10 13  1  0  0  0  0
 10 21  1  0  0  0  0
 11 14  2  0  0  0  0
 13  2  1  1  0  0  0
 13 16  1  0  0  0  0
 14 15  1  0  0  0  0
 14 17  1  0  0  0  0
 16 18  1  1  0  0  0
 17 19  2  0  0  0  0
 17 21  1  0  0  0  0
 18 20  1  0  0  0  0
 20 22  1  0  0  0  0
M  CHG  1   9  -1
M  END
>  <CHROM.1>
129.56432569,56.91238874,121.39709842,-89.44699194,-70.29485989,-51.64605487
25.10290478,39.26315829,66.07083342,-2.73187928,-0.34829956,2.69938308

>  <Name>
ligand

>  <RI>
0

>  <Rbt.Current_Directory>
/home/itssahil/PROJECTS/Mol_Feturizer/New_Systems/rnas/2HOM

>  <Rbt.Executable>
rbdock ($Id: //depot/dev/client3/rdock/2013.1/src/exe/rbdock.cxx#4 $)

>  <Rbt.Library>
libRbt.so (2013.1, Build901 2013/11/27)

>  <Rbt.Parameter_File>
/export/apps/rDock/src/rDock_2013.1_src/data/scripts/dock_solv.prm

>  <Rbt.Receptor>
prm/pocket_docking_4.prm

>  <SCORE>
-16.6032

>  <SCORE.INTER>
-18.9323

>  <SCORE.INTER.CONST>
1

>  <SCORE.INTER.POLAR>
-1.63459

>  <SCORE.INTER.ROT>
6

>  <SCORE.INTER.SOLV>
16.7164

>  <SCORE.INTER.VDW>
-20.345

>  <SCORE.INTER.norm>
-0.86056

>  <SCORE.INTRA>
2.32908

>  <SCORE.INTRA.DIHEDRAL>
3.40658

>  <SCORE.INTRA.DIHEDRAL.0>
5.05013

>  <SCORE.INTRA.POLAR>
0

>  <SCORE.INTRA.POLAR.0>
0

>  <SCORE.INTRA.REPUL>
0

>  <SCORE.INTRA.REPUL.0>
0

>  <SCORE.INTRA.SOLV>
1.86889

>  <SCORE.INTRA.SOLV.lig_0>
-54.1265

>  <SCORE.INTRA.VDW>
-0.308654

>  <SCORE.INTRA.VDW.0>
-2.1303

>  <SCORE.INTRA.norm>
0.105867

>  <SCORE.RESTR>
0

>  <SCORE.RESTR.CAVITY>
0

>  <SCORE.RESTR.norm>
0

>  <SCORE.SYSTEM>
0

>  <SCORE.SYSTEM.CONST>
0

>  <SCORE.SYSTEM.DIHEDRAL>
0

>  <SCORE.SYSTEM.SOLV>
0

>  <SCORE.SYSTEM.norm>
0

>  <SCORE.heavy>
22

>  <SCORE.norm>
-0.754692

>  <RMSD>
3.043

$$$$
ligand
 OpenBabel11021811443D
libRbt.so/2013.1/901 2013/11/27
 22 23  0  0  0  0  0  0  0  0999 V2000
   20.4690   44.4916   65.6584 C   0  0  0  0  0  0  0  0  0  0  0  0
   23.8298   39.6435   68.2950 C   0  0  0  0  0  0  0  0  0  0  0  0
   29.2672   37.5362   65.6078 P   0  0  1  0  0  0  0  0  0  0  0  0
   21.6492   42.7093   66.7326 N   0  0  0  0  0  0  0  0  0  0  0  0
   28.3812   36.9186   64.5881 O   0  0  0  0  0  0  0  0  0  0  0  0
   24.5744   37.2487   65.1459 S   0  0  0  0  0  0  0  0  0  0  0  0
   22.9560   37.6482   65.3553 C   0  0  0  0  0  0  0  0  0  0  0  0
   20.5860   43.0594   65.9287 C   0  0  0  0  0  0  0  0  0  0  0  0
   29.3651   36.7664   66.8746 O   0  5  0  0  0  0  0  0  0  0  0  0
   22.6852   38.4519   66.4059 N   0  0  0  0  0  0  0  0  0  0  0  0
   19.7277   42.2012   65.4461 N   0  0  0  0  0  0  0  0  0  0  0  0
   30.5998   37.8697   65.0108 O   0  0  0  0  0  0  0  0  0  0  0  0
   23.8669   38.7615   67.0818 C   0  0  2  0  0  0  0  0  0  0  0  0
   19.8693   40.8452   65.7221 C   0  0  0  0  0  0  0  0  0  0  0  0
   18.9750   39.9887   65.2374 N   0  0  0  0  0  0  0  0  0  0  0  0
   24.9999   38.1942   66.5481 C   0  0  1  0  0  0  0  0  0  0  0  0
   20.9924   40.3994   66.5301 C   0  0  0  0  0  0  0  0  0  0  0  0
   26.3982   38.3118   67.0382 C   0  0  0  0  0  0  0  0  0  0  0  0
   21.8158   41.3934   67.0196 C   0  0  0  0  0  0  0  0  0  0  0  0
   27.2119   39.1723   66.1461 C   0  0  0  0  0  0  0  0  0  0  0  0
   21.2619   38.9249   66.7615 C   0  0  0  0  0  0  0  0  0  0  0  0
   28.6099   38.8897   66.0733 O   0  0  0  0  0  0  0  0  0  0  0  0
  1  8  1  0  0  0  0
  3  5  1  6  0  0  0
  3  9  1  0  0  0  0
  3 12  2  0  0  0  0
  3 22  1  0  0  0  0
  4  8  2  0  0  0  0
  4 19  1  0  0  0  0
  6 16  1  0  0  0  0
  6  7  1  0  0  0  0
  7 10  1  0  0  0  0
  8 11  1  0  0  0  0
 10 13  1  0  0  0  0
 10 21  1  0  0  0  0
 11 14  2  0  0  0  0
 13  2  1  1  0  0  0
 13 16  1  0  0  0  0
 14 15  1  0  0  0  0
 14 17  1  0  0  0  0
 16 18  1  1  0  0  0
 17 19  2  0  0  0  0
 17 21  1  0  0  0  0
 18 20  1  0  0  0  0
 20 22  1  0  0  0  0
M  CHG  1   9  -1
M  END
>  <CHROM.1>
-110.23763768,72.91320945,126.29432407,-150.62589414,59.80212017,31.59215600
24.48577157,39.24826963,66.05198759,-2.68800624,0.00682554,-3.04518877

>  <Name>
ligand

>  <RI>
0

>  <Rbt.Current_Directory>
/home/itssahil/PROJECTS/Mol_Feturizer/New_Systems/rnas/2HOM

>  <Rbt.Executable>
rbdock ($Id: //depot/dev/client3/rdock/2013.1/src/exe/rbdock.cxx#4 $)

>  <Rbt.Library>
libRbt.so (2013.1, Build901 2013/11/27)

>  <Rbt.Parameter_File>
/export/apps/rDock/src/rDock_2013.1_src/data/scripts/dock_solv.prm

>  <Rbt.Receptor>
prm/pocket_docking_3.prm

>  <SCORE>
-16.9053

>  <SCORE.INTER>
-20.1335

>  <SCORE.INTER.CONST>
1

>  <SCORE.INTER.POLAR>
-1.63459

>  <SCORE.INTER.ROT>
6

>  <SCORE.INTER.SOLV>
16.5518

>  <SCORE.INTER.VDW>
-21.091

>  <SCORE.INTER.norm>
-0.91516

>  <SCORE.INTRA>
2.89302

>  <SCORE.INTRA.DIHEDRAL>
3.92064

>  <SCORE.INTRA.DIHEDRAL.0>
5.05013

>  <SCORE.INTRA.POLAR>
0

>  <SCORE.INTRA.POLAR.0>
0

>  <SCORE.INTRA.REPUL>
0

>  <SCORE.INTRA.REPUL.0>
0

>  <SCORE.INTRA.SOLV>
0.665009

>  <SCORE.INTRA.SOLV.lig_0>
-54.1265

>  <SCORE.INTRA.VDW>
0.60019

>  <SCORE.INTRA.VDW.0>
-2.1303

>  <SCORE.INTRA.norm>
0.131501

>  <SCORE.RESTR>
0.335196

>  <SCORE.RESTR.CAVITY>
0.335196

>  <SCORE.RESTR.norm>
0.0152362

>  <SCORE.SYSTEM>
0

>  <SCORE.SYSTEM.CONST>
0

>  <SCORE.SYSTEM.DIHEDRAL>
0

>  <SCORE.SYSTEM.SOLV>
0

>  <SCORE.SYSTEM.norm>
0

>  <SCORE.heavy>
22

>  <SCORE.norm>
-0.768423

>  <RMSD>
3.051

$$$$
ligand
 OpenBabel11021811443D
libRbt.so/2013.1/901 2013/11/27
 22 23  0  0  0  0  0  0  0  0999 V2000
   19.1750   40.5656   65.1274 C   0  0  0  0  0  0  0  0  0  0  0  0
   27.3897   40.2094   68.0545 C   0  0  0  0  0  0  0  0  0  0  0  0
   29.4075   36.6495   65.6084 P   0  0  1  0  0  0  0  0  0  0  0  0
   20.8521   39.7528   66.6274 N   0  0  0  0  0  0  0  0  0  0  0  0
   28.0645   36.4812   64.9965 O   0  0  0  0  0  0  0  0  0  0  0  0
   25.0473   37.0150   68.7724 S   0  0  0  0  0  0  0  0  0  0  0  0
   24.2357   38.3587   68.1737 C   0  0  0  0  0  0  0  0  0  0  0  0
   20.5472   40.6486   65.6254 C   0  0  0  0  0  0  0  0  0  0  0  0
   30.1727   35.3842   65.7527 O   0  5  0  0  0  0  0  0  0  0  0  0
   25.0041   39.4409   67.9252 N   0  0  0  0  0  0  0  0  0  0  0  0
   21.4021   41.5037   65.1316 N   0  0  0  0  0  0  0  0  0  0  0  0
   30.1718   37.7291   64.9055 O   0  0  0  0  0  0  0  0  0  0  0  0
   26.3344   39.1594   68.2414 C   0  0  2  0  0  0  0  0  0  0  0  0
   22.6999   41.5569   65.6297 C   0  0  0  0  0  0  0  0  0  0  0  0
   23.5615   42.4212   65.1017 N   0  0  0  0  0  0  0  0  0  0  0  0
   26.5547   37.8905   68.7228 C   0  0  1  0  0  0  0  0  0  0  0  0
   23.0795   40.6688   66.7161 C   0  0  0  0  0  0  0  0  0  0  0  0
   27.8417   37.2910   69.1626 C   0  0  0  0  0  0  0  0  0  0  0  0
   22.1102   39.7800   67.1357 C   0  0  0  0  0  0  0  0  0  0  0  0
   28.4344   36.4453   68.0987 C   0  0  0  0  0  0  0  0  0  0  0  0
   24.4416   40.7668   67.3760 C   0  0  0  0  0  0  0  0  0  0  0  0
   29.2117   37.1097   67.1019 O   0  0  0  0  0  0  0  0  0  0  0  0
  1  8  1  0  0  0  0
  3  5  1  6  0  0  0
  3  9  1  0  0  0  0
  3 12  2  0  0  0  0
  3 22  1  0  0  0  0
  4  8  2  0  0  0  0
  4 19  1  0  0  0  0
  6 16  1  0  0  0  0
  6  7  1  0  0  0  0
  7 10  1  0  0  0  0
  8 11  1  0  0  0  0
 10 13  1  0  0  0  0
 10 21  1  0  0  0  0
 11 14  2  0  0  0  0
 13  2  1  1  0  0  0
 13 16  1  0  0  0  0
 14 15  1  0  0  0  0
 14 17  1  0  0  0  0
 16 18  1  1  0  0  0
 17 19  2  0  0  0  0
 17 21  1  0  0  0  0
 18 20  1  0  0  0  0
 20 22  1  0  0  0  0
M  CHG  1   9  -1
M  END
>  <CHROM.1>
-18.76158236,81.51139724,-149.43109086,83.92988726,-151.05857558,54.68500826
25.60882479,38.65233555,66.81867459,-2.89727986,-0.43136500,1.99150287

>  <Name>
ligand

>  <RI>
0

>  <Rbt.Current_Directory>
/home/itssahil/PROJECTS/Mol_Feturizer/New_Systems/rnas/2HOM

>  <Rbt.Executable>
rbdock ($Id: //depot/dev/client3/rdock/2013.1/src/exe/rbdock.cxx#4 $)

>  <Rbt.Library>
libRbt.so (2013.1, Build901 2013/11/27)

>  <Rbt.Parameter_File>
/export/apps/rDock/src/rDock_2013.1_src/data/scripts/dock_solv.prm

>  <Rbt.Receptor>
prm/pocket_docking_6.prm

>  <SCORE>
-13.8147

>  <SCORE.INTER>
-16.7803

>  <SCORE.INTER.CONST>
1

>  <SCORE.INTER.POLAR>
-1.29483

>  <SCORE.INTER.ROT>
6

>  <SCORE.INTER.SOLV>
13.2854

>  <SCORE.INTER.VDW>
-18.8992

>  <SCORE.INTER.norm>
-0.762739

>  <SCORE.INTRA>
2.96559

>  <SCORE.INTRA.DIHEDRAL>
5.20465

>  <SCORE.INTRA.DIHEDRAL.0>
5.05013

>  <SCORE.INTRA.POLAR>
0

>  <SCORE.INTRA.POLAR.0>
0

>  <SCORE.INTRA.REPUL>
0

>  <SCORE.INTRA.REPUL.0>
0

>  <SCORE.INTRA.SOLV>
-0.0106827

>  <SCORE.INTRA.SOLV.lig_0>
-54.1265

>  <SCORE.INTRA.VDW>
0.368606

>  <SCORE.INTRA.VDW.0>
-2.1303

>  <SCORE.INTRA.norm>
0.1348

>  <SCORE.RESTR>
0

>  <SCORE.RESTR.CAVITY>
0

>  <SCORE.RESTR.norm>
0

>  <SCORE.SYSTEM>
0

>  <SCORE.SYSTEM.CONST>
0

>  <SCORE.SYSTEM.DIHEDRAL>
0

>  <SCORE.SYSTEM.SOLV>
0

>  <SCORE.SYSTEM.norm>
0

>  <SCORE.heavy>
22

>  <SCORE.norm>
-0.62794

>  <RMSD>
3.054

$$$$
ligand
 OpenBabel11021811443D
libRbt.so/2013.1/901 2013/11/27
 22 23  0  0  0  0  0  0  0  0999 V2000
   20.6037   44.0821   65.3296 C   0  0  0  0  0  0  0  0  0  0  0  0
   23.3050   38.4154   65.2268 C   0  0  0  0  0  0  0  0  0  0  0  0
   30.1847   37.9574   65.3079 P   0  0  1  0  0  0  0  0  0  0  0  0
   20.4959   41.8051   66.0552 N   0  0  0  0  0  0  0  0  0  0  0  0
   30.9883   36.9026   65.9772 O   0  0  0  0  0  0  0  0  0  0  0  0
   26.6159   38.2240   67.5089 S   0  0  0  0  0  0  0  0  0  0  0  0
   25.2775   38.8955   68.2708 C   0  0  0  0  0  0  0  0  0  0  0  0
   21.2507   42.9569   66.0028 C   0  0  0  0  0  0  0  0  0  0  0  0
   30.2393   39.2814   65.9798 O   0  5  0  0  0  0  0  0  0  0  0  0
   24.1560   38.9678   67.5223 N   0  0  0  0  0  0  0  0  0  0  0  0
   22.4566   43.0573   66.4944 N   0  0  0  0  0  0  0  0  0  0  0  0
   30.5127   38.0183   63.8477 O   0  0  0  0  0  0  0  0  0  0  0  0
   24.4009   38.4449   66.2512 C   0  0  2  0  0  0  0  0  0  0  0  0
   23.0420   41.9672   67.1299 C   0  0  0  0  0  0  0  0  0  0  0  0
   24.2776   42.0825   67.6076 N   0  0  0  0  0  0  0  0  0  0  0  0
   25.6847   37.9948   66.0523 C   0  0  1  0  0  0  0  0  0  0  0  0
   22.2871   40.7316   67.2582 C   0  0  0  0  0  0  0  0  0  0  0  0
   26.2650   37.4052   64.8175 C   0  0  0  0  0  0  0  0  0  0  0  0
   21.0383   40.7235   66.6699 C   0  0  0  0  0  0  0  0  0  0  0  0
   27.6151   37.9524   64.5414 C   0  0  0  0  0  0  0  0  0  0  0  0
   22.8294   39.5535   68.0447 C   0  0  0  0  0  0  0  0  0  0  0  0
   28.6637   37.5674   65.4311 O   0  0  0  0  0  0  0  0  0  0  0  0
  1  8  1  0  0  0  0
  3  5  1  1  0  0  0
  3  9  1  0  0  0  0
  3 12  2  0  0  0  0
  3 22  1  0  0  0  0
  4  8  2  0  0  0  0
  4 19  1  0  0  0  0
  6 16  1  0  0  0  0
  6  7  1  0  0  0  0
  7 10  1  0  0  0  0
  8 11  1  0  0  0  0
 10 13  1  0  0  0  0
 10 21  1  0  0  0  0
 11 14  2  0  0  0  0
 13  2  1  6  0  0  0
 13 16  1  0  0  0  0
 14 15  1  0  0  0  0
 14 17  1  0  0  0  0
 16 18  1  6  0  0  0
 17 19  2  0  0  0  0
 17 21  1  0  0  0  0
 18 20  1  0  0  0  0
 20 22  1  0  0  0  0
M  CHG  1   9  -1
M  END
>  <CHROM.1>
121.21967501,-42.96413459,-60.85056081,69.64516923,176.83735871,-153.52976848
25.60785815,39.46266844,66.21181888,-2.76680143,-0.32813781,2.71834990

>  <Name>
ligand

>  <RI>
0

>  <Rbt.Current_Directory>
/home/itssahil/PROJECTS/Mol_Feturizer/New_Systems/rnas/2HOM

>  <Rbt.Executable>
rbdock ($Id: //depot/dev/client3/rdock/2013.1/src/exe/rbdock.cxx#4 $)

>  <Rbt.Library>
libRbt.so (2013.1, Build901 2013/11/27)

>  <Rbt.Parameter_File>
/export/apps/rDock/src/rDock_2013.1_src/data/scripts/dock_solv.prm

>  <Rbt.Receptor>
prm/pocket_docking_3.prm

>  <SCORE>
-13.3291

>  <SCORE.INTER>
-15.0334

>  <SCORE.INTER.CONST>
1

>  <SCORE.INTER.POLAR>
-1.30767

>  <SCORE.INTER.ROT>
6

>  <SCORE.INTER.SOLV>
15.4414

>  <SCORE.INTER.VDW>
-18.4105

>  <SCORE.INTER.norm>
-0.683335

>  <SCORE.INTRA>
1.58443

>  <SCORE.INTRA.DIHEDRAL>
1.35628

>  <SCORE.INTRA.DIHEDRAL.0>
5.05013

>  <SCORE.INTRA.POLAR>
0

>  <SCORE.INTRA.POLAR.0>
0

>  <SCORE.INTRA.REPUL>
0

>  <SCORE.INTRA.REPUL.0>
0

>  <SCORE.INTRA.SOLV>
2.13801

>  <SCORE.INTRA.SOLV.lig_0>
-54.1265

>  <SCORE.INTRA.VDW>
-0.162712

>  <SCORE.INTRA.VDW.0>
-2.1303

>  <SCORE.INTRA.norm>
0.0720196

>  <SCORE.RESTR>
0.119839

>  <SCORE.RESTR.CAVITY>
0.119839

>  <SCORE.RESTR.norm>
0.00544721

>  <SCORE.SYSTEM>
0

>  <SCORE.SYSTEM.CONST>
0

>  <SCORE.SYSTEM.DIHEDRAL>
0

>  <SCORE.SYSTEM.SOLV>
0

>  <SCORE.SYSTEM.norm>
0

>  <SCORE.heavy>
22

>  <SCORE.norm>
-0.605868

>  <RMSD>
3.058

$$$$
ligand
 OpenBabel11021811443D
libRbt.so/2013.1/901 2013/11/27
 22 23  0  0  0  0  0  0  0  0999 V2000
   20.3427   43.2960   65.3008 C   0  0  0  0  0  0  0  0  0  0  0  0
   25.1020   37.5493   68.6480 C   0  0  0  0  0  0  0  0  0  0  0  0
   29.9472   40.0987   66.8846 P   0  0  1  0  0  0  0  0  0  0  0  0
   20.3548   40.9092   65.4637 N   0  0  0  0  0  0  0  0  0  0  0  0
   29.5156   39.8736   65.4813 O   0  0  0  0  0  0  0  0  0  0  0  0
   26.6141   38.2653   64.9863 S   0  0  0  0  0  0  0  0  0  0  0  0
   24.9501   38.4627   65.1082 C   0  0  0  0  0  0  0  0  0  0  0  0
   21.0760   42.0727   65.6231 C   0  0  0  0  0  0  0  0  0  0  0  0
   30.9923   39.1549   67.3582 O   0  5  0  0  0  0  0  0  0  0  0  0
   24.4233   38.2282   66.3291 N   0  0  0  0  0  0  0  0  0  0  0  0
   22.3215   42.1066   66.0150 N   0  0  0  0  0  0  0  0  0  0  0  0
   30.3053   41.5374   67.0981 O   0  0  0  0  0  0  0  0  0  0  0  0
   25.4354   37.8657   67.2197 C   0  0  2  0  0  0  0  0  0  0  0  0
   22.9891   40.9236   66.3147 C   0  0  0  0  0  0  0  0  0  0  0  0
   24.2625   40.9766   66.6941 N   0  0  0  0  0  0  0  0  0  0  0  0
   26.6958   37.8250   66.6718 C   0  0  1  0  0  0  0  0  0  0  0  0
   22.2769   39.6608   66.2086 C   0  0  0  0  0  0  0  0  0  0  0  0
   27.9719   37.4617   67.3418 C   0  0  0  0  0  0  0  0  0  0  0  0
   20.9774   39.7377   65.7492 C   0  0  0  0  0  0  0  0  0  0  0  0
   28.3702   38.4870   68.3359 C   0  0  0  0  0  0  0  0  0  0  0  0
   22.9182   38.3547   66.6369 C   0  0  0  0  0  0  0  0  0  0  0  0
   28.7304   39.7731   67.8302 O   0  0  0  0  0  0  0  0  0  0  0  0
  1  8  1  0  0  0  0
  3  5  1  6  0  0  0
  3  9  1  0  0  0  0
  3 12  2  0  0  0  0
  3 22  1  0  0  0  0
  4  8  2  0  0  0  0
  4 19  1  0  0  0  0
  6 16  1  0  0  0  0
  6  7  1  0  0  0  0
  7 10  1  0  0  0  0
  8 11  1  0  0  0  0
 10 13  1  0  0  0  0
 10 21  1  0  0  0  0
 11 14  2  0  0  0  0
 13  2  1  6  0  0  0
 13 16  1  0  0  0  0
 14 15  1  0  0  0  0
 14 17  1  0  0  0  0
 16 18  1  6  0  0  0
 17 19  2  0  0  0  0
 17 21  1  0  0  0  0
 18 20  1  0  0  0  0
 20 22  1  0  0  0  0
M  CHG  1   9  -1
M  END
>  <CHROM.1>
-51.24445499,111.69842113,-37.24616557,-66.72550216,-63.42998745,85.50131038
25.76822963,39.63251094,66.47979734,-2.92921215,0.11380701,2.97798268

>  <Name>
ligand

>  <RI>
0

>  <Rbt.Current_Directory>
/home/itssahil/PROJECTS/Mol_Feturizer/New_Systems/rnas/2HOM

>  <Rbt.Executable>
rbdock ($Id: //depot/dev/client3/rdock/2013.1/src/exe/rbdock.cxx#4 $)

>  <Rbt.Library>
libRbt.so (2013.1, Build901 2013/11/27)

>  <Rbt.Parameter_File>
/export/apps/rDock/src/rDock_2013.1_src/data/scripts/dock_solv.prm

>  <Rbt.Receptor>
prm/pocket_docking_3.prm

>  <SCORE>
-20.7345

>  <SCORE.INTER>
-22.3323

>  <SCORE.INTER.CONST>
1

>  <SCORE.INTER.POLAR>
-2.79624

>  <SCORE.INTER.ROT>
6

>  <SCORE.INTER.SOLV>
16.5955

>  <SCORE.INTER.VDW>
-18.6993

>  <SCORE.INTER.norm>
-1.01511

>  <SCORE.INTRA>
1.5979

>  <SCORE.INTRA.DIHEDRAL>
0.548276

>  <SCORE.INTRA.DIHEDRAL.0>
5.05013

>  <SCORE.INTRA.POLAR>
0

>  <SCORE.INTRA.POLAR.0>
0

>  <SCORE.INTRA.REPUL>
0

>  <SCORE.INTRA.REPUL.0>
0

>  <SCORE.INTRA.SOLV>
3.90991

>  <SCORE.INTRA.SOLV.lig_0>
-54.1265

>  <SCORE.INTRA.VDW>
-0.631196

>  <SCORE.INTRA.VDW.0>
-2.1303

>  <SCORE.INTRA.norm>
0.0726317

>  <SCORE.RESTR>
0

>  <SCORE.RESTR.CAVITY>
0

>  <SCORE.RESTR.norm>
0

>  <SCORE.SYSTEM>
0

>  <SCORE.SYSTEM.CONST>
0

>  <SCORE.SYSTEM.DIHEDRAL>
0

>  <SCORE.SYSTEM.SOLV>
0

>  <SCORE.SYSTEM.norm>
0

>  <SCORE.heavy>
22

>  <SCORE.norm>
-0.942475

>  <RMSD>
3.067

$$$$
ligand
 OpenBabel11021811443D
libRbt.so/2013.1/901 2013/11/27
 22 23  0  0  0  0  0  0  0  0999 V2000
   19.8914   42.5945   65.1876 C   0  0  0  0  0  0  0  0  0  0  0  0
   25.1567   37.6817   68.7077 C   0  0  0  0  0  0  0  0  0  0  0  0
   29.7691   41.0948   66.3001 P   0  0  1  0  0  0  0  0  0  0  0  0
   20.4510   40.2849   64.9118 N   0  0  0  0  0  0  0  0  0  0  0  0
   29.7536   42.2706   67.2075 O   0  0  0  0  0  0  0  0  0  0  0  0
   26.5884   37.9626   64.9556 S   0  0  0  0  0  0  0  0  0  0  0  0
   24.9130   38.0082   65.0716 C   0  0  0  0  0  0  0  0  0  0  0  0
   20.7245   41.4588   65.5800 C   0  0  0  0  0  0  0  0  0  0  0  0
   29.1001   41.3259   64.9938 O   0  5  0  0  0  0  0  0  0  0  0  0
   24.4126   37.9164   66.3223 N   0  0  0  0  0  0  0  0  0  0  0  0
   21.6584   41.5778   66.4854 N   0  0  0  0  0  0  0  0  0  0  0  0
   31.1596   40.5536   66.1678 O   0  0  0  0  0  0  0  0  0  0  0  0
   25.4563   37.8019   67.2424 C   0  0  2  0  0  0  0  0  0  0  0  0
   22.4322   40.4762   66.8359 C   0  0  0  0  0  0  0  0  0  0  0  0
   23.3907   40.6211   67.7461 N   0  0  0  0  0  0  0  0  0  0  0  0
   26.7143   37.8028   66.6877 C   0  0  1  0  0  0  0  0  0  0  0  0
   22.1711   39.1951   66.2007 C   0  0  0  0  0  0  0  0  0  0  0  0
   28.0207   37.6794   67.3858 C   0  0  0  0  0  0  0  0  0  0  0  0
   21.1879   39.1911   65.2318 C   0  0  0  0  0  0  0  0  0  0  0  0
   29.0461   38.5558   66.7703 C   0  0  0  0  0  0  0  0  0  0  0  0
   22.9024   37.9376   66.6305 C   0  0  0  0  0  0  0  0  0  0  0  0
   28.8853   39.9636   66.9481 O   0  0  0  0  0  0  0  0  0  0  0  0
  1  8  1  0  0  0  0
  3  5  1  1  0  0  0
  3  9  1  0  0  0  0
  3 12  2  0  0  0  0
  3 22  1  0  0  0  0
  4  8  2  0  0  0  0
  4 19  1  0  0  0  0
  6 16  1  0  0  0  0
  6  7  1  0  0  0  0
  7 10  1  0  0  0  0
  8 11  1  0  0  0  0
 10 13  1  0  0  0  0
 10 21  1  0  0  0  0
 11 14  2  0  0  0  0
 13  2  1  6  0  0  0
 13 16  1  0  0  0  0
 14 15  1  0  0  0  0
 14 17  1  0  0  0  0
 16 18  1  6  0  0  0
 17 19  2  0  0  0  0
 17 21  1  0  0  0  0
 18 20  1  0  0  0  0
 20 22  1  0  0  0  0
M  CHG  1   9  -1
M  END
>  <CHROM.1>
-60.38884599,38.80461481,-67.24063034,69.76266472,-174.78244987,-151.61330064
25.64265451,39.67454277,66.28061050,-3.11445080,0.06050968,3.00236833

>  <Name>
ligand

>  <RI>
0

>  <Rbt.Current_Directory>
/home/itssahil/PROJECTS/Mol_Feturizer/New_Systems/rnas/2HOM

>  <Rbt.Executable>
rbdock ($Id: //depot/dev/client3/rdock/2013.1/src/exe/rbdock.cxx#4 $)

>  <Rbt.Library>
libRbt.so (2013.1, Build901 2013/11/27)

>  <Rbt.Parameter_File>
/export/apps/rDock/src/rDock_2013.1_src/data/scripts/dock_solv.prm

>  <Rbt.Receptor>
prm/pocket_docking_4.prm

>  <SCORE>
-13.0273

>  <SCORE.INTER>
-15.2033

>  <SCORE.INTER.CONST>
1

>  <SCORE.INTER.POLAR>
-0.948683

>  <SCORE.INTER.ROT>
6

>  <SCORE.INTER.SOLV>
15.5686

>  <SCORE.INTER.VDW>
-19.7628

>  <SCORE.INTER.norm>
-0.691059

>  <SCORE.INTRA>
2.17604

>  <SCORE.INTRA.DIHEDRAL>
1.49535

>  <SCORE.INTRA.DIHEDRAL.0>
5.05013

>  <SCORE.INTRA.POLAR>
0

>  <SCORE.INTRA.POLAR.0>
0

>  <SCORE.INTRA.REPUL>
0

>  <SCORE.INTRA.REPUL.0>
0

>  <SCORE.INTRA.SOLV>
2.85684

>  <SCORE.INTRA.SOLV.lig_0>
-54.1265

>  <SCORE.INTRA.VDW>
-5.23578e-05

>  <SCORE.INTRA.VDW.0>
-2.1303

>  <SCORE.INTRA.norm>
0.0989109

>  <SCORE.RESTR>
0

>  <SCORE.RESTR.CAVITY>
0

>  <SCORE.RESTR.norm>
0

>  <SCORE.SYSTEM>
0

>  <SCORE.SYSTEM.CONST>
0

>  <SCORE.SYSTEM.DIHEDRAL>
0

>  <SCORE.SYSTEM.SOLV>
0

>  <SCORE.SYSTEM.norm>
0

>  <SCORE.heavy>
22

>  <SCORE.norm>
-0.592148

>  <RMSD>
3.079

$$$$
ligand
 OpenBabel11021811443D
libRbt.so/2013.1/901 2013/11/27
 22 23  0  0  0  0  0  0  0  0999 V2000
   22.1429   45.8025   66.4956 C   0  0  0  0  0  0  0  0  0  0  0  0
   24.4718   40.5875   64.5899 C   0  0  0  0  0  0  0  0  0  0  0  0
   29.9315   39.9045   67.2484 P   0  0  1  0  0  0  0  0  0  0  0  0
   21.2226   43.8885   65.3942 N   0  0  0  0  0  0  0  0  0  0  0  0
   29.5963   41.2652   67.7409 O   0  0  0  0  0  0  0  0  0  0  0  0
   24.4043   37.4267   67.0821 S   0  0  0  0  0  0  0  0  0  0  0  0
   22.9317   38.2179   66.9137 C   0  0  0  0  0  0  0  0  0  0  0  0
   22.1068   44.3484   66.3460 C   0  0  0  0  0  0  0  0  0  0  0  0
   31.1348   39.8520   66.3787 O   0  5  0  0  0  0  0  0  0  0  0  0
   22.9330   39.2807   66.0809 N   0  0  0  0  0  0  0  0  0  0  0  0
   22.8738   43.5694   67.0606 N   0  0  0  0  0  0  0  0  0  0  0  0
   29.9783   38.9322   68.3869 O   0  0  0  0  0  0  0  0  0  0  0  0
   24.2103   39.4623   65.5473 C   0  0  2  0  0  0  0  0  0  0  0  0
   22.8131   42.1897   66.8937 C   0  0  0  0  0  0  0  0  0  0  0  0
   23.6151   41.4137   67.6168 N   0  0  0  0  0  0  0  0  0  0  0  0
   25.1479   38.5539   65.9786 C   0  0  1  0  0  0  0  0  0  0  0  0
   21.8727   41.6319   65.9358 C   0  0  0  0  0  0  0  0  0  0  0  0
   26.5878   38.4854   65.6163 C   0  0  0  0  0  0  0  0  0  0  0  0
   21.1387   42.5468   65.2080 C   0  0  0  0  0  0  0  0  0  0  0  0
   27.4346   39.1346   66.6457 C   0  0  0  0  0  0  0  0  0  0  0  0
   21.6803   40.1336   65.7996 C   0  0  0  0  0  0  0  0  0  0  0  0
   28.7813   39.4367   66.2793 O   0  0  0  0  0  0  0  0  0  0  0  0
  1  8  1  0  0  0  0
  3  5  1  1  0  0  0
  3  9  1  0  0  0  0
  3 12  2  0  0  0  0
  3 22  1  0  0  0  0
  4  8  2  0  0  0  0
  4 19  1  0  0  0  0
  6 16  1  0  0  0  0
  6  7  1  0  0  0  0
  7 10  1  0  0  0  0
  8 11  1  0  0  0  0
 10 13  1  0  0  0  0
 10 21  1  0  0  0  0
 11 14  2  0  0  0  0
 13  2  1  1  0  0  0
 13 16  1  0  0  0  0
 14 15  1  0  0  0  0
 14 17  1  0  0  0  0
 16 18  1  1  0  0  0
 17 19  2  0  0  0  0
 17 21  1  0  0  0  0
 18 20  1  0  0  0  0
 20 22  1  0  0  0  0
M  CHG  1   9  -1
M  END
>  <CHROM.1>
130.21167456,-82.06851175,-31.85162113,-164.85979383,-169.47173114,-67.80867591
25.28267050,40.49679712,66.52192747,-2.74383893,0.14405261,-3.11165366

>  <Name>
ligand

>  <RI>
0

>  <Rbt.Current_Directory>
/home/itssahil/PROJECTS/Mol_Feturizer/New_Systems/rnas/2HOM

>  <Rbt.Executable>
rbdock ($Id: //depot/dev/client3/rdock/2013.1/src/exe/rbdock.cxx#4 $)

>  <Rbt.Library>
libRbt.so (2013.1, Build901 2013/11/27)

>  <Rbt.Parameter_File>
/export/apps/rDock/src/rDock_2013.1_src/data/scripts/dock_solv.prm

>  <Rbt.Receptor>
prm/pocket_docking_4.prm

>  <SCORE>
-13.9205

>  <SCORE.INTER>
-17.3652

>  <SCORE.INTER.CONST>
1

>  <SCORE.INTER.POLAR>
-2.52885

>  <SCORE.INTER.ROT>
6

>  <SCORE.INTER.SOLV>
17.6051

>  <SCORE.INTER.VDW>
-16.6157

>  <SCORE.INTER.norm>
-0.789328

>  <SCORE.INTRA>
2.86819

>  <SCORE.INTRA.DIHEDRAL>
1.2561

>  <SCORE.INTRA.DIHEDRAL.0>
5.05013

>  <SCORE.INTRA.POLAR>
0

>  <SCORE.INTRA.POLAR.0>
0

>  <SCORE.INTRA.REPUL>
0

>  <SCORE.INTRA.REPUL.0>
0

>  <SCORE.INTRA.SOLV>
4.51925

>  <SCORE.INTRA.SOLV.lig_0>
-54.1265

>  <SCORE.INTRA.VDW>
-0.0194861

>  <SCORE.INTRA.VDW.0>
-2.1303

>  <SCORE.INTRA.norm>
0.130372

>  <SCORE.RESTR>
0.576533

>  <SCORE.RESTR.CAVITY>
0.576533

>  <SCORE.RESTR.norm>
0.0262061

>  <SCORE.SYSTEM>
0

>  <SCORE.SYSTEM.CONST>
0

>  <SCORE.SYSTEM.DIHEDRAL>
0

>  <SCORE.SYSTEM.SOLV>
0

>  <SCORE.SYSTEM.norm>
0

>  <SCORE.heavy>
22

>  <SCORE.norm>
-0.63275

>  <RMSD>
3.095

$$$$
ligand
 OpenBabel11021811443D
libRbt.so/2013.1/901 2013/11/27
 22 23  0  0  0  0  0  0  0  0999 V2000
   19.7670   43.0240   65.2665 C   0  0  0  0  0  0  0  0  0  0  0  0
   25.6474   37.4310   68.1886 C   0  0  0  0  0  0  0  0  0  0  0  0
   29.0417   39.8149   68.1236 P   0  0  1  0  0  0  0  0  0  0  0  0
   21.6489   42.7757   66.7225 N   0  0  0  0  0  0  0  0  0  0  0  0
   27.7675   39.6078   68.8583 O   0  0  0  0  0  0  0  0  0  0  0  0
   26.6310   39.8180   65.0997 S   0  0  0  0  0  0  0  0  0  0  0  0
   25.2694   40.3044   65.9552 C   0  0  0  0  0  0  0  0  0  0  0  0
   20.7147   42.1353   65.9374 C   0  0  0  0  0  0  0  0  0  0  0  0
   28.9020   40.6096   66.8761 O   0  5  0  0  0  0  0  0  0  0  0  0
   24.9232   39.5173   66.9962 N   0  0  0  0  0  0  0  0  0  0  0  0
   20.6499   40.8382   65.7988 N   0  0  0  0  0  0  0  0  0  0  0  0
   30.0991   40.3386   69.0463 O   0  0  0  0  0  0  0  0  0  0  0  0
   25.8208   38.4535   67.1043 C   0  0  2  0  0  0  0  0  0  0  0  0
   21.5684   40.0219   66.4507 C   0  0  0  0  0  0  0  0  0  0  0  0
   21.4751   38.7026   66.3125 N   0  0  0  0  0  0  0  0  0  0  0  0
   26.8170   38.4435   66.1567 C   0  0  1  0  0  0  0  0  0  0  0  0
   22.6080   40.6319   67.2632 C   0  0  0  0  0  0  0  0  0  0  0  0
   27.9074   37.4476   65.9881 C   0  0  0  0  0  0  0  0  0  0  0  0
   22.5603   42.0073   67.3711 C   0  0  0  0  0  0  0  0  0  0  0  0
   28.7084   37.3095   67.2281 C   0  0  0  0  0  0  0  0  0  0  0  0
   23.7047   39.7982   67.8977 C   0  0  0  0  0  0  0  0  0  0  0  0
   29.5339   38.4165   67.5918 O   0  0  0  0  0  0  0  0  0  0  0  0
  1  8  1  0  0  0  0
  3  5  1  1  0  0  0
  3  9  1  0  0  0  0
  3 12  2  0  0  0  0
  3 22  1  0  0  0  0
  4  8  2  0  0  0  0
  4 19  1  0  0  0  0
  6 16  1  0  0  0  0
  6  7  1  0  0  0  0
  7 10  1  0  0  0  0
  8 11  1  0  0  0  0
 10 13  1  0  0  0  0
 10 21  1  0  0  0  0
 11 14  2  0  0  0  0
 13  2  1  6  0  0  0
 13 16  1  0  0  0  0
 14 15  1  0  0  0  0
 14 17  1  0  0  0  0
 16 18  1  6  0  0  0
 17 19  2  0  0  0  0
 17 21  1  0  0  0  0
 18 20  1  0  0  0  0
 20 22  1  0  0  0  0
M  CHG  1   9  -1
M  END
>  <CHROM.1>
24.00026434,124.27763530,85.52434157,-69.62599755,70.61237219,29.92121996
25.50069165,39.85894907,66.92242162,-2.89253523,0.23855013,-2.93587753

>  <Name>
ligand

>  <RI>
0

>  <Rbt.Current_Directory>
/home/itssahil/PROJECTS/Mol_Feturizer/New_Systems/rnas/2HOM

>  <Rbt.Executable>
rbdock ($Id: //depot/dev/client3/rdock/2013.1/src/exe/rbdock.cxx#4 $)

>  <Rbt.Library>
libRbt.so (2013.1, Build901 2013/11/27)

>  <Rbt.Parameter_File>
/export/apps/rDock/src/rDock_2013.1_src/data/scripts/dock_solv.prm

>  <Rbt.Receptor>
prm/pocket_docking_5.prm

>  <SCORE>
-15.5959

>  <SCORE.INTER>
-16.6011

>  <SCORE.INTER.CONST>
1

>  <SCORE.INTER.POLAR>
-2.49352

>  <SCORE.INTER.ROT>
6

>  <SCORE.INTER.SOLV>
15.6454

>  <SCORE.INTER.VDW>
-15.5708

>  <SCORE.INTER.norm>
-0.754595

>  <SCORE.INTRA>
1.00522

>  <SCORE.INTRA.DIHEDRAL>
1.52694

>  <SCORE.INTRA.DIHEDRAL.0>
5.05013

>  <SCORE.INTRA.POLAR>
0

>  <SCORE.INTRA.POLAR.0>
0

>  <SCORE.INTRA.REPUL>
0

>  <SCORE.INTRA.REPUL.0>
0

>  <SCORE.INTRA.SOLV>
2.61033

>  <SCORE.INTRA.SOLV.lig_0>
-54.1265

>  <SCORE.INTRA.VDW>
-1.06341

>  <SCORE.INTRA.VDW.0>
-2.1303

>  <SCORE.INTRA.norm>
0.0456918

>  <SCORE.RESTR>
0

>  <SCORE.RESTR.CAVITY>
0

>  <SCORE.RESTR.norm>
0

>  <SCORE.SYSTEM>
0

>  <SCORE.SYSTEM.CONST>
0

>  <SCORE.SYSTEM.DIHEDRAL>
0

>  <SCORE.SYSTEM.SOLV>
0

>  <SCORE.SYSTEM.norm>
0

>  <SCORE.heavy>
22

>  <SCORE.norm>
-0.708903

>  <RMSD>
3.114

$$$$
ligand
 OpenBabel11021811443D
libRbt.so/2013.1/901 2013/11/27
 22 23  0  0  0  0  0  0  0  0999 V2000
   18.3046   40.6534   64.7629 C   0  0  0  0  0  0  0  0  0  0  0  0
   26.6957   38.9251   66.7095 C   0  0  0  0  0  0  0  0  0  0  0  0
   29.6352   36.5939   64.8624 P   0  0  1  0  0  0  0  0  0  0  0  0
   20.1692   39.1554   64.7150 N   0  0  0  0  0  0  0  0  0  0  0  0
   30.5186   36.4779   66.0509 O   0  0  0  0  0  0  0  0  0  0  0  0
   26.0289   41.1772   63.4400 S   0  0  0  0  0  0  0  0  0  0  0  0
   24.6392   40.6288   64.2085 C   0  0  0  0  0  0  0  0  0  0  0  0
   19.6982   40.3870   65.1159 C   0  0  0  0  0  0  0  0  0  0  0  0
   30.3633   36.7113   63.5727 O   0  5  0  0  0  0  0  0  0  0  0  0
   24.8413   39.8722   65.3084 N   0  0  0  0  0  0  0  0  0  0  0  0
   20.4230   41.2702   65.7489 N   0  0  0  0  0  0  0  0  0  0  0  0
   28.6059   35.5057   64.8666 O   0  0  0  0  0  0  0  0  0  0  0  0
   26.2107   39.7300   65.5399 C   0  0  2  0  0  0  0  0  0  0  0  0
   21.7456   40.9835   66.0705 C   0  0  0  0  0  0  0  0  0  0  0  0
   22.4734   41.9023   66.6985 N   0  0  0  0  0  0  0  0  0  0  0  0
   27.0173   40.3651   64.6253 C   0  0  1  0  0  0  0  0  0  0  0  0
   22.2969   39.6864   65.7146 C   0  0  0  0  0  0  0  0  0  0  0  0
   28.5027   40.3917   64.5804 C   0  0  0  0  0  0  0  0  0  0  0  0
   21.4559   38.8447   65.0147 C   0  0  0  0  0  0  0  0  0  0  0  0
   29.0513   39.0990   64.1046 C   0  0  0  0  0  0  0  0  0  0  0  0
   23.6922   39.2768   66.1457 C   0  0  0  0  0  0  0  0  0  0  0  0
   28.8673   37.9660   64.9543 O   0  0  0  0  0  0  0  0  0  0  0  0
  1  8  1  0  0  0  0
  3  5  1  1  0  0  0
  3  9  1  0  0  0  0
  3 12  2  0  0  0  0
  3 22  1  0  0  0  0
  4  8  2  0  0  0  0
  4 19  1  0  0  0  0
  6 16  1  0  0  0  0
  6  7  1  0  0  0  0
  7 10  1  0  0  0  0
  8 11  1  0  0  0  0
 10 13  1  0  0  0  0
 10 21  1  0  0  0  0
 11 14  2  0  0  0  0
 13  2  1  6  0  0  0
 13 16  1  0  0  0  0
 14 15  1  0  0  0  0
 14 17  1  0  0  0  0
 16 18  1  6  0  0  0
 17 19  2  0  0  0  0
 17 21  1  0  0  0  0
 18 20  1  0  0  0  0
 20 22  1  0  0  0  0
M  CHG  1   9  -1
M  END
>  <CHROM.1>
-4.56702401,-104.90329816,-78.70515021,-66.89644023,-164.01312744,111.20095693
25.50083584,39.21458860,65.01973532,2.81403454,0.14432281,-0.23223860

>  <Name>
ligand

>  <RI>
0

>  <Rbt.Current_Directory>
/home/itssahil/PROJECTS/Mol_Feturizer/New_Systems/rnas/2HOM

>  <Rbt.Executable>
rbdock ($Id: //depot/dev/client3/rdock/2013.1/src/exe/rbdock.cxx#4 $)

>  <Rbt.Library>
libRbt.so (2013.1, Build901 2013/11/27)

>  <Rbt.Parameter_File>
/export/apps/rDock/src/rDock_2013.1_src/data/scripts/dock_solv.prm

>  <Rbt.Receptor>
prm/pocket_docking_6.prm

>  <SCORE>
-14.6673

>  <SCORE.INTER>
-17.8355

>  <SCORE.INTER.CONST>
1

>  <SCORE.INTER.POLAR>
-1.29465

>  <SCORE.INTER.ROT>
6

>  <SCORE.INTER.SOLV>
13.0798

>  <SCORE.INTER.VDW>
-19.5347

>  <SCORE.INTER.norm>
-0.810703

>  <SCORE.INTRA>
3.16821

>  <SCORE.INTRA.DIHEDRAL>
3.29121

>  <SCORE.INTRA.DIHEDRAL.0>
5.05013

>  <SCORE.INTRA.POLAR>
0

>  <SCORE.INTRA.POLAR.0>
0

>  <SCORE.INTRA.REPUL>
0

>  <SCORE.INTRA.REPUL.0>
0

>  <SCORE.INTRA.SOLV>
1.77342

>  <SCORE.INTRA.SOLV.lig_0>
-54.1265

>  <SCORE.INTRA.VDW>
0.635893

>  <SCORE.INTRA.VDW.0>
-2.1303

>  <SCORE.INTRA.norm>
0.14401

>  <SCORE.RESTR>
0

>  <SCORE.RESTR.CAVITY>
0

>  <SCORE.RESTR.norm>
0

>  <SCORE.SYSTEM>
0

>  <SCORE.SYSTEM.CONST>
0

>  <SCORE.SYSTEM.DIHEDRAL>
0

>  <SCORE.SYSTEM.SOLV>
0

>  <SCORE.SYSTEM.norm>
0

>  <SCORE.heavy>
22

>  <SCORE.norm>
-0.666693

>  <RMSD>
3.128

$$$$
ligand
 OpenBabel11021811443D
libRbt.so/2013.1/901 2013/11/27
 22 23  0  0  0  0  0  0  0  0999 V2000
   21.9924   45.2411   66.3283 C   0  0  0  0  0  0  0  0  0  0  0  0
   23.6100   39.4762   68.2534 C   0  0  0  0  0  0  0  0  0  0  0  0
   29.2308   39.8033   67.4621 P   0  0  1  0  0  0  0  0  0  0  0  0
   23.1334   43.1386   66.3019 N   0  0  0  0  0  0  0  0  0  0  0  0
   29.9545   40.4693   68.5752 O   0  0  0  0  0  0  0  0  0  0  0  0
   25.5825   37.5902   65.2939 S   0  0  0  0  0  0  0  0  0  0  0  0
   24.1058   38.2517   64.8415 C   0  0  0  0  0  0  0  0  0  0  0  0
   21.9260   43.7893   66.1681 C   0  0  0  0  0  0  0  0  0  0  0  0
   29.4330   40.4432   66.1366 O   0  5  0  0  0  0  0  0  0  0  0  0
   23.4287   38.8898   65.8199 N   0  0  0  0  0  0  0  0  0  0  0  0
   20.7953   43.1795   65.9319 N   0  0  0  0  0  0  0  0  0  0  0  0
   29.5120   38.3321   67.4606 O   0  0  0  0  0  0  0  0  0  0  0  0
   24.1559   38.8372   67.0105 C   0  0  2  0  0  0  0  0  0  0  0  0
   20.7681   41.7967   65.7836 C   0  0  0  0  0  0  0  0  0  0  0  0
   19.6049   41.1916   65.5621 N   0  0  0  0  0  0  0  0  0  0  0  0
   25.3530   38.1666   66.9238 C   0  0  1  0  0  0  0  0  0  0  0  0
   22.0119   41.0494   65.8714 C   0  0  0  0  0  0  0  0  0  0  0  0
   26.3427   37.9203   68.0050 C   0  0  0  0  0  0  0  0  0  0  0  0
   23.1409   41.7887   66.1615 C   0  0  0  0  0  0  0  0  0  0  0  0
   26.8622   39.1929   68.5609 C   0  0  0  0  0  0  0  0  0  0  0  0
   22.0572   39.5579   65.5993 C   0  0  0  0  0  0  0  0  0  0  0  0
   27.6851   39.9852   67.7039 O   0  0  0  0  0  0  0  0  0  0  0  0
  1  8  1  0  0  0  0
  3  5  1  1  0  0  0
  3  9  1  0  0  0  0
  3 12  2  0  0  0  0
  3 22  1  0  0  0  0
  4  8  2  0  0  0  0
  4 19  1  0  0  0  0
  6 16  1  0  0  0  0
  6  7  1  0  0  0  0
  7 10  1  0  0  0  0
  8 11  1  0  0  0  0
 10 13  1  0  0  0  0
 10 21  1  0  0  0  0
 11 14  2  0  0  0  0
 13  2  1  1  0  0  0
 13 16  1  0  0  0  0
 14 15  1  0  0  0  0
 14 17  1  0  0  0  0
 16 18  1  1  0  0  0
 17 19  2  0  0  0  0
 17 21  1  0  0  0  0
 18 20  1  0  0  0  0
 20 22  1  0  0  0  0
M  CHG  1   9  -1
M  END
>  <CHROM.1>
-119.78620491,119.97086368,-176.23928754,-68.10222553,-83.45829393,-82.10554013
25.02183463,40.18388041,66.64152201,-2.79077728,0.26133016,-2.98297823

>  <Name>
ligand

>  <RI>
0

>  <Rbt.Current_Directory>
/home/itssahil/PROJECTS/Mol_Feturizer/New_Systems/rnas/2HOM

>  <Rbt.Executable>
rbdock ($Id: //depot/dev/client3/rdock/2013.1/src/exe/rbdock.cxx#4 $)

>  <Rbt.Library>
libRbt.so (2013.1, Build901 2013/11/27)

>  <Rbt.Parameter_File>
/export/apps/rDock/src/rDock_2013.1_src/data/scripts/dock_solv.prm

>  <Rbt.Receptor>
prm/pocket_docking_5.prm

>  <SCORE>
-16.6105

>  <SCORE.INTER>
-18.698

>  <SCORE.INTER.CONST>
1

>  <SCORE.INTER.POLAR>
-2.56388

>  <SCORE.INTER.ROT>
6

>  <SCORE.INTER.SOLV>
16.942

>  <SCORE.INTER.VDW>
-17.1664

>  <SCORE.INTER.norm>
-0.849908

>  <SCORE.INTRA>
2.08749

>  <SCORE.INTRA.DIHEDRAL>
2.86911

>  <SCORE.INTRA.DIHEDRAL.0>
5.05013

>  <SCORE.INTRA.POLAR>
0

>  <SCORE.INTRA.POLAR.0>
0

>  <SCORE.INTRA.REPUL>
0

>  <SCORE.INTRA.REPUL.0>
0

>  <SCORE.INTRA.SOLV>
0.973983

>  <SCORE.INTRA.SOLV.lig_0>
-54.1265

>  <SCORE.INTRA.VDW>
0.165945

>  <SCORE.INTRA.VDW.0>
-2.1303

>  <SCORE.INTRA.norm>
0.094886

>  <SCORE.RESTR>
0

>  <SCORE.RESTR.CAVITY>
0

>  <SCORE.RESTR.norm>
0

>  <SCORE.SYSTEM>
0

>  <SCORE.SYSTEM.CONST>
0

>  <SCORE.SYSTEM.DIHEDRAL>
0

>  <SCORE.SYSTEM.SOLV>
0

>  <SCORE.SYSTEM.norm>
0

>  <SCORE.heavy>
22

>  <SCORE.norm>
-0.755022

>  <RMSD>
3.152

$$$$
ligand
 OpenBabel11021811443D
libRbt.so/2013.1/901 2013/11/27
 22 23  0  0  0  0  0  0  0  0999 V2000
   20.5058   44.4666   65.7365 C   0  0  0  0  0  0  0  0  0  0  0  0
   23.1166   38.0826   64.4425 C   0  0  0  0  0  0  0  0  0  0  0  0
   29.4164   36.5655   65.0162 P   0  0  1  0  0  0  0  0  0  0  0  0
   21.7771   42.7611   66.8312 N   0  0  0  0  0  0  0  0  0  0  0  0
   28.5501   35.3706   64.8493 O   0  0  0  0  0  0  0  0  0  0  0  0
   25.4709   38.2550   67.7036 S   0  0  0  0  0  0  0  0  0  0  0  0
   23.8658   38.6703   67.9753 C   0  0  0  0  0  0  0  0  0  0  0  0
   20.6894   43.0470   66.0347 C   0  0  0  0  0  0  0  0  0  0  0  0
   29.7695   36.8682   66.4272 O   0  5  0  0  0  0  0  0  0  0  0  0
   23.0591   38.6178   66.8939 N   0  0  0  0  0  0  0  0  0  0  0  0
   19.8639   42.1419   65.5815 N   0  0  0  0  0  0  0  0  0  0  0  0
   30.6069   36.4799   64.1112 O   0  0  0  0  0  0  0  0  0  0  0  0
   23.7918   38.2151   65.7759 C   0  0  2  0  0  0  0  0  0  0  0  0
   20.0688   40.7996   65.8835 C   0  0  0  0  0  0  0  0  0  0  0  0
   19.2073   39.8944   65.4287 N   0  0  0  0  0  0  0  0  0  0  0  0
   25.1241   37.9762   66.0173 C   0  0  1  0  0  0  0  0  0  0  0  0
   21.2206   40.4208   66.6853 C   0  0  0  0  0  0  0  0  0  0  0  0
   26.1676   37.5560   65.0459 C   0  0  0  0  0  0  0  0  0  0  0  0
   22.0053   41.4602   67.1431 C   0  0  0  0  0  0  0  0  0  0  0  0
   27.4148   38.3381   65.2219 C   0  0  0  0  0  0  0  0  0  0  0  0
   21.5580   38.9647   66.9435 C   0  0  0  0  0  0  0  0  0  0  0  0
   28.5895   37.8348   64.5847 O   0  0  0  0  0  0  0  0  0  0  0  0
  1  8  1  0  0  0  0
  3  5  1  6  0  0  0
  3  9  1  0  0  0  0
  3 12  2  0  0  0  0
  3 22  1  0  0  0  0
  4  8  2  0  0  0  0
  4 19  1  0  0  0  0
  6 16  1  0  0  0  0
  6  7  1  0  0  0  0
  7 10  1  0  0  0  0
  8 11  1  0  0  0  0
 10 13  1  0  0  0  0
 10 21  1  0  0  0  0
 11 14  2  0  0  0  0
 13  2  1  6  0  0  0
 13 16  1  0  0  0  0
 14 15  1  0  0  0  0
 14 17  1  0  0  0  0
 16 18  1  6  0  0  0
 17 19  2  0  0  0  0
 17 21  1  0  0  0  0
 18 20  1  0  0  0  0
 20 22  1  0  0  0  0
M  CHG  1   9  -1
M  END
>  <CHROM.1>
89.85903441,-44.31365580,139.85737225,165.50843520,-72.15015844,64.36413732
24.68701386,38.94974346,65.92272830,-2.64080083,-0.22068605,2.96574526

>  <Name>
ligand

>  <RI>
0

>  <Rbt.Current_Directory>
/home/itssahil/PROJECTS/Mol_Feturizer/New_Systems/rnas/2HOM

>  <Rbt.Executable>
rbdock ($Id: //depot/dev/client3/rdock/2013.1/src/exe/rbdock.cxx#4 $)

>  <Rbt.Library>
libRbt.so (2013.1, Build901 2013/11/27)

>  <Rbt.Parameter_File>
/export/apps/rDock/src/rDock_2013.1_src/data/scripts/dock_solv.prm

>  <Rbt.Receptor>
prm/pocket_docking_5.prm

>  <SCORE>
-21.734

>  <SCORE.INTER>
-23.241

>  <SCORE.INTER.CONST>
1

>  <SCORE.INTER.POLAR>
-1.63299

>  <SCORE.INTER.ROT>
6

>  <SCORE.INTER.SOLV>
18.1217

>  <SCORE.INTER.VDW>
-23.6913

>  <SCORE.INTER.norm>
-1.05641

>  <SCORE.INTRA>
1.50695

>  <SCORE.INTRA.DIHEDRAL>
1.6244

>  <SCORE.INTRA.DIHEDRAL.0>
5.05013

>  <SCORE.INTRA.POLAR>
0

>  <SCORE.INTRA.POLAR.0>
0

>  <SCORE.INTRA.REPUL>
0

>  <SCORE.INTRA.REPUL.0>
0

>  <SCORE.INTRA.SOLV>
0.910531

>  <SCORE.INTRA.SOLV.lig_0>
-54.1265

>  <SCORE.INTRA.VDW>
0.239487

>  <SCORE.INTRA.VDW.0>
-2.1303

>  <SCORE.INTRA.norm>
0.0684979

>  <SCORE.RESTR>
0

>  <SCORE.RESTR.CAVITY>
0

>  <SCORE.RESTR.norm>
0

>  <SCORE.SYSTEM>
0

>  <SCORE.SYSTEM.CONST>
0

>  <SCORE.SYSTEM.DIHEDRAL>
0

>  <SCORE.SYSTEM.SOLV>
0

>  <SCORE.SYSTEM.norm>
0

>  <SCORE.heavy>
22

>  <SCORE.norm>
-0.987911

>  <RMSD>
3.161

$$$$
ligand
 OpenBabel11021811443D
libRbt.so/2013.1/901 2013/11/27
 22 23  0  0  0  0  0  0  0  0999 V2000
   20.4051   44.5225   65.8543 C   0  0  0  0  0  0  0  0  0  0  0  0
   24.0830   39.9999   64.7563 C   0  0  0  0  0  0  0  0  0  0  0  0
   29.9552   36.5847   64.7515 P   0  0  1  0  0  0  0  0  0  0  0  0
   20.0877   42.2154   65.3070 N   0  0  0  0  0  0  0  0  0  0  0  0
   29.1814   35.4535   64.1791 O   0  0  0  0  0  0  0  0  0  0  0  0
   25.2999   37.5391   67.7009 S   0  0  0  0  0  0  0  0  0  0  0  0
   23.6408   37.7977   67.6446 C   0  0  0  0  0  0  0  0  0  0  0  0
   20.8240   43.1322   66.0259 C   0  0  0  0  0  0  0  0  0  0  0  0
   30.5331   36.3094   66.0922 O   0  5  0  0  0  0  0  0  0  0  0  0
   23.2120   38.6197   66.6629 N   0  0  0  0  0  0  0  0  0  0  0  0
   21.8302   42.8122   66.7946 N   0  0  0  0  0  0  0  0  0  0  0  0
   30.9624   37.0843   63.7618 O   0  0  0  0  0  0  0  0  0  0  0  0
   24.3000   39.0664   65.9108 C   0  0  2  0  0  0  0  0  0  0  0  0
   22.2014   41.4791   66.9362 C   0  0  0  0  0  0  0  0  0  0  0  0
   23.2402   41.1744   67.7085 N   0  0  0  0  0  0  0  0  0  0  0  0
   25.5208   38.5904   66.3271 C   0  0  1  0  0  0  0  0  0  0  0  0
   21.4426   40.4538   66.2392 C   0  0  0  0  0  0  0  0  0  0  0  0
   26.8604   38.8878   65.7559 C   0  0  0  0  0  0  0  0  0  0  0  0
   20.4241   40.9059   65.4245 C   0  0  0  0  0  0  0  0  0  0  0  0
   27.5716   37.6445   65.3727 C   0  0  0  0  0  0  0  0  0  0  0  0
   21.7280   38.9793   66.4518 C   0  0  0  0  0  0  0  0  0  0  0  0
   28.9550   37.7668   65.0400 O   0  0  0  0  0  0  0  0  0  0  0  0
  1  8  1  0  0  0  0
  3  5  1  6  0  0  0
  3  9  1  0  0  0  0
  3 12  2  0  0  0  0
  3 22  1  0  0  0  0
  4  8  2  0  0  0  0
  4 19  1  0  0  0  0
  6 16  1  0  0  0  0
  6  7  1  0  0  0  0
  7 10  1  0  0  0  0
  8 11  1  0  0  0  0
 10 13  1  0  0  0  0
 10 21  1  0  0  0  0
 11 14  2  0  0  0  0
 13  2  1  1  0  0  0
 13 16  1  0  0  0  0
 14 15  1  0  0  0  0
 14 17  1  0  0  0  0
 16 18  1  1  0  0  0
 17 19  2  0  0  0  0
 17 21  1  0  0  0  0
 18 20  1  0  0  0  0
 20 22  1  0  0  0  0
M  CHG  1   9  -1
M  END
>  <CHROM.1>
133.37096003,56.22864979,-35.85380579,-168.91136763,173.12878067,29.60958685
25.14079200,39.08880191,65.92639137,-2.76635576,-0.44135560,2.54919139

>  <Name>
ligand

>  <RI>
0

>  <Rbt.Current_Directory>
/home/itssahil/PROJECTS/Mol_Feturizer/New_Systems/rnas/2HOM

>  <Rbt.Executable>
rbdock ($Id: //depot/dev/client3/rdock/2013.1/src/exe/rbdock.cxx#4 $)

>  <Rbt.Library>
libRbt.so (2013.1, Build901 2013/11/27)

>  <Rbt.Parameter_File>
/export/apps/rDock/src/rDock_2013.1_src/data/scripts/dock_solv.prm

>  <Rbt.Receptor>
prm/pocket_docking_7.prm

>  <SCORE>
-18.3591

>  <SCORE.INTER>
-21.6922

>  <SCORE.INTER.CONST>
1

>  <SCORE.INTER.POLAR>
-1.62939

>  <SCORE.INTER.ROT>
6

>  <SCORE.INTER.SOLV>
14.138

>  <SCORE.INTER.VDW>
-21.3429

>  <SCORE.INTER.norm>
-0.98601

>  <SCORE.INTRA>
3.33318

>  <SCORE.INTRA.DIHEDRAL>
1.93155

>  <SCORE.INTRA.DIHEDRAL.0>
5.05013

>  <SCORE.INTRA.POLAR>
0

>  <SCORE.INTRA.POLAR.0>
0

>  <SCORE.INTRA.REPUL>
0

>  <SCORE.INTRA.REPUL.0>
0

>  <SCORE.INTRA.SOLV>
3.91682

>  <SCORE.INTRA.SOLV.lig_0>
-54.1265

>  <SCORE.INTRA.VDW>
0.408996

>  <SCORE.INTRA.VDW.0>
-2.1303

>  <SCORE.INTRA.norm>
0.151508

>  <SCORE.RESTR>
0

>  <SCORE.RESTR.CAVITY>
0

>  <SCORE.RESTR.norm>
0

>  <SCORE.SYSTEM>
0

>  <SCORE.SYSTEM.CONST>
0

>  <SCORE.SYSTEM.DIHEDRAL>
0

>  <SCORE.SYSTEM.SOLV>
0

>  <SCORE.SYSTEM.norm>
0

>  <SCORE.heavy>
22

>  <SCORE.norm>
-0.834502

>  <RMSD>
3.180

$$$$
ligand
 OpenBabel11021811443D
libRbt.so/2013.1/901 2013/11/27
 22 23  0  0  0  0  0  0  0  0999 V2000
   20.1775   44.8184   65.9883 C   0  0  0  0  0  0  0  0  0  0  0  0
   22.1051   39.4979   67.7582 C   0  0  0  0  0  0  0  0  0  0  0  0
   28.3694   37.6835   66.0629 P   0  0  1  0  0  0  0  0  0  0  0  0
   21.5119   42.8346   65.9033 N   0  0  0  0  0  0  0  0  0  0  0  0
   28.5817   36.6739   64.9943 O   0  0  0  0  0  0  0  0  0  0  0  0
   24.3675   37.3102   65.2478 S   0  0  0  0  0  0  0  0  0  0  0  0
   22.9298   37.8732   64.5853 C   0  0  0  0  0  0  0  0  0  0  0  0
   20.2537   43.3769   65.7551 C   0  0  0  0  0  0  0  0  0  0  0  0
   29.1790   37.4526   67.2870 O   0  5  0  0  0  0  0  0  0  0  0  0
   22.1568   38.6103   65.4112 N   0  0  0  0  0  0  0  0  0  0  0  0
   19.1941   42.6784   65.4463 N   0  0  0  0  0  0  0  0  0  0  0  0
   28.5100   39.0686   65.5102 O   0  0  0  0  0  0  0  0  0  0  0  0
   22.7718   38.7239   66.6593 C   0  0  2  0  0  0  0  0  0  0  0  0
   19.3024   41.3085   65.2300 C   0  0  0  0  0  0  0  0  0  0  0  0
   18.2095   40.6109   64.9348 N   0  0  0  0  0  0  0  0  0  0  0  0
   23.9810   38.0780   66.7652 C   0  0  1  0  0  0  0  0  0  0  0  0
   20.6074   40.6759   65.3288 C   0  0  0  0  0  0  0  0  0  0  0  0
   24.8701   37.9925   67.9532 C   0  0  0  0  0  0  0  0  0  0  0  0
   21.6513   41.5004   65.6977 C   0  0  0  0  0  0  0  0  0  0  0  0
   26.2714   38.3278   67.6035 C   0  0  0  0  0  0  0  0  0  0  0  0
   20.8023   39.2112   64.9864 C   0  0  0  0  0  0  0  0  0  0  0  0
   26.8924   37.5365   66.5899 O   0  0  0  0  0  0  0  0  0  0  0  0
  1  8  1  0  0  0  0
  3  5  1  6  0  0  0
  3  9  1  0  0  0  0
  3 12  2  0  0  0  0
  3 22  1  0  0  0  0
  4  8  2  0  0  0  0
  4 19  1  0  0  0  0
  6 16  1  0  0  0  0
  6  7  1  0  0  0  0
  7 10  1  0  0  0  0
  8 11  1  0  0  0  0
 10 13  1  0  0  0  0
 10 21  1  0  0  0  0
 11 14  2  0  0  0  0
 13  2  1  1  0  0  0
 13 16  1  0  0  0  0
 14 15  1  0  0  0  0
 14 17  1  0  0  0  0
 16 18  1  1  0  0  0
 17 19  2  0  0  0  0
 17 21  1  0  0  0  0
 18 20  1  0  0  0  0
 20 22  1  0  0  0  0
M  CHG  1   9  -1
M  END
>  <CHROM.1>
-131.87041611,49.44509389,-167.89567752,-57.99016195,-179.04961624,-178.98182589
23.78683487,39.35366511,65.97000579,-2.64781175,0.16782614,-2.98756393

>  <Name>
ligand

>  <RI>
0

>  <Rbt.Current_Directory>
/home/itssahil/PROJECTS/Mol_Feturizer/New_Systems/rnas/2HOM

>  <Rbt.Executable>
rbdock ($Id: //depot/dev/client3/rdock/2013.1/src/exe/rbdock.cxx#4 $)

>  <Rbt.Library>
libRbt.so (2013.1, Build901 2013/11/27)

>  <Rbt.Parameter_File>
/export/apps/rDock/src/rDock_2013.1_src/data/scripts/dock_solv.prm

>  <Rbt.Receptor>
prm/pocket_docking_7.prm

>  <SCORE>
-21.4117

>  <SCORE.INTER>
-23.2218

>  <SCORE.INTER.CONST>
1

>  <SCORE.INTER.POLAR>
-1.63459

>  <SCORE.INTER.ROT>
6

>  <SCORE.INTER.SOLV>
16.9417

>  <SCORE.INTER.VDW>
-23.2798

>  <SCORE.INTER.norm>
-1.05553

>  <SCORE.INTRA>
1.81008

>  <SCORE.INTRA.DIHEDRAL>
-0.0105505

>  <SCORE.INTRA.DIHEDRAL.0>
5.05013

>  <SCORE.INTRA.POLAR>
0

>  <SCORE.INTRA.POLAR.0>
0

>  <SCORE.INTRA.REPUL>
0

>  <SCORE.INTRA.REPUL.0>
0

>  <SCORE.INTRA.SOLV>
0.516943

>  <SCORE.INTRA.SOLV.lig_0>
-54.1265

>  <SCORE.INTRA.VDW>
1.55689

>  <SCORE.INTRA.VDW.0>
-2.1303

>  <SCORE.INTRA.norm>
0.0822766

>  <SCORE.RESTR>
0

>  <SCORE.RESTR.CAVITY>
0

>  <SCORE.RESTR.norm>
0

>  <SCORE.SYSTEM>
0

>  <SCORE.SYSTEM.CONST>
0

>  <SCORE.SYSTEM.DIHEDRAL>
0

>  <SCORE.SYSTEM.SOLV>
0

>  <SCORE.SYSTEM.norm>
0

>  <SCORE.heavy>
22

>  <SCORE.norm>
-0.973258

>  <RMSD>
3.187

$$$$
ligand
 OpenBabel11021811443D
libRbt.so/2013.1/901 2013/11/27
 22 23  0  0  0  0  0  0  0  0999 V2000
   18.3139   40.5832   64.7152 C   0  0  0  0  0  0  0  0  0  0  0  0
   26.6884   40.5037   67.0871 C   0  0  0  0  0  0  0  0  0  0  0  0
   29.2448   37.1118   65.3015 P   0  0  1  0  0  0  0  0  0  0  0  0
   20.1365   41.8218   65.6466 N   0  0  0  0  0  0  0  0  0  0  0  0
   28.2151   36.2433   64.6756 O   0  0  0  0  0  0  0  0  0  0  0  0
   25.6814   41.3844   63.2901 S   0  0  0  0  0  0  0  0  0  0  0  0
   24.3876   41.3116   64.3594 C   0  0  0  0  0  0  0  0  0  0  0  0
   19.6691   40.5830   65.2642 C   0  0  0  0  0  0  0  0  0  0  0  0
   29.4509   36.8622   66.7515 O   0  5  0  0  0  0  0  0  0  0  0  0
   24.7045   41.0185   65.6388 N   0  0  0  0  0  0  0  0  0  0  0  0
   20.3562   39.4789   65.3860 N   0  0  0  0  0  0  0  0  0  0  0  0
   30.5138   37.0762   64.5064 O   0  0  0  0  0  0  0  0  0  0  0  0
   26.0844   40.8422   65.7560 C   0  0  2  0  0  0  0  0  0  0  0  0
   21.6437   39.5148   65.9114 C   0  0  0  0  0  0  0  0  0  0  0  0
   22.3208   38.3781   66.0450 N   0  0  0  0  0  0  0  0  0  0  0  0
   26.7852   40.9959   64.5832 C   0  0  1  0  0  0  0  0  0  0  0  0
   22.2167   40.7937   66.2977 C   0  0  0  0  0  0  0  0  0  0  0  0
   28.2495   40.8574   64.3691 C   0  0  0  0  0  0  0  0  0  0  0  0
   21.3900   41.8908   66.1621 C   0  0  0  0  0  0  0  0  0  0  0  0
   28.6285   39.4440   64.1304 C   0  0  0  0  0  0  0  0  0  0  0  0
   23.6560   40.9052   66.7630 C   0  0  0  0  0  0  0  0  0  0  0  0
   28.7166   38.5954   65.2756 O   0  0  0  0  0  0  0  0  0  0  0  0
  1  8  1  0  0  0  0
  3  5  1  6  0  0  0
  3  9  1  0  0  0  0
  3 12  2  0  0  0  0
  3 22  1  0  0  0  0
  4  8  2  0  0  0  0
  4 19  1  0  0  0  0
  6 16  1  0  0  0  0
  6  7  1  0  0  0  0
  7 10  1  0  0  0  0
  8 11  1  0  0  0  0
 10 13  1  0  0  0  0
 10 21  1  0  0  0  0
 11 14  2  0  0  0  0
 13  2  1  6  0  0  0
 13 16  1  0  0  0  0
 14 15  1  0  0  0  0
 14 17  1  0  0  0  0
 16 18  1  6  0  0  0
 17 19  2  0  0  0  0
 17 21  1  0  0  0  0
 18 20  1  0  0  0  0
 20 22  1  0  0  0  0
M  CHG  1   9  -1
M  END
>  <CHROM.1>
14.91824392,-94.32398520,83.81040766,-78.59015793,-172.99124150,-73.43249699
25.28676197,39.67473364,65.24386031,2.84629901,0.15313017,-0.33589567

>  <Name>
ligand

>  <RI>
0

>  <Rbt.Current_Directory>
/home/itssahil/PROJECTS/Mol_Feturizer/New_Systems/rnas/2HOM

>  <Rbt.Executable>
rbdock ($Id: //depot/dev/client3/rdock/2013.1/src/exe/rbdock.cxx#4 $)

>  <Rbt.Library>
libRbt.so (2013.1, Build901 2013/11/27)

>  <Rbt.Parameter_File>
/export/apps/rDock/src/rDock_2013.1_src/data/scripts/dock_solv.prm

>  <Rbt.Receptor>
prm/pocket_docking_5.prm

>  <SCORE>
-18.7678

>  <SCORE.INTER>
-19.5102

>  <SCORE.INTER.CONST>
1

>  <SCORE.INTER.POLAR>
-1.63459

>  <SCORE.INTER.ROT>
6

>  <SCORE.INTER.SOLV>
8.84987

>  <SCORE.INTER.VDW>
-18.1082

>  <SCORE.INTER.norm>
-0.886829

>  <SCORE.INTRA>
0.742402

>  <SCORE.INTRA.DIHEDRAL>
1.35705

>  <SCORE.INTRA.DIHEDRAL.0>
5.05013

>  <SCORE.INTRA.POLAR>
0

>  <SCORE.INTRA.POLAR.0>
0

>  <SCORE.INTRA.REPUL>
0

>  <SCORE.INTRA.REPUL.0>
0

>  <SCORE.INTRA.SOLV>
0.716335

>  <SCORE.INTRA.SOLV.lig_0>
-54.1265

>  <SCORE.INTRA.VDW>
-0.29429

>  <SCORE.INTRA.VDW.0>
-2.1303

>  <SCORE.INTRA.norm>
0.0337455

>  <SCORE.RESTR>
0

>  <SCORE.RESTR.CAVITY>
0

>  <SCORE.RESTR.norm>
0

>  <SCORE.SYSTEM>
0

>  <SCORE.SYSTEM.CONST>
0

>  <SCORE.SYSTEM.DIHEDRAL>
0

>  <SCORE.SYSTEM.SOLV>
0

>  <SCORE.SYSTEM.norm>
0

>  <SCORE.heavy>
22

>  <SCORE.norm>
-0.853083

>  <RMSD>
3.235

$$$$
ligand
 OpenBabel11021811443D
libRbt.so/2013.1/901 2013/11/27
 22 23  0  0  0  0  0  0  0  0999 V2000
   21.5573   43.9674   65.7157 C   0  0  0  0  0  0  0  0  0  0  0  0
   24.7584   38.3861   68.4837 C   0  0  0  0  0  0  0  0  0  0  0  0
   29.9101   40.1816   66.9753 P   0  0  1  0  0  0  0  0  0  0  0  0
   23.1868   42.2459   66.0393 N   0  0  0  0  0  0  0  0  0  0  0  0
   30.8391   39.2205   67.6230 O   0  0  0  0  0  0  0  0  0  0  0  0
   27.0007   37.7506   65.2012 S   0  0  0  0  0  0  0  0  0  0  0  0
   25.3659   37.9909   64.8974 C   0  0  0  0  0  0  0  0  0  0  0  0
   21.8636   42.5396   65.7900 C   0  0  0  0  0  0  0  0  0  0  0  0
   30.3451   41.5995   67.0609 O   0  5  0  0  0  0  0  0  0  0  0  0
   24.5964   38.2069   65.9856 N   0  0  0  0  0  0  0  0  0  0  0  0
   20.9344   41.6335   65.6429 N   0  0  0  0  0  0  0  0  0  0  0  0
   29.5905   39.7415   65.5796 O   0  0  0  0  0  0  0  0  0  0  0  0
   25.3853   38.1748   67.1370 C   0  0  2  0  0  0  0  0  0  0  0  0
   21.2608   40.2834   65.7184 C   0  0  0  0  0  0  0  0  0  0  0  0
   20.2982   39.3758   65.5848 N   0  0  0  0  0  0  0  0  0  0  0  0
   26.7202   37.9337   66.9127 C   0  0  1  0  0  0  0  0  0  0  0  0
   22.6455   39.8997   65.9381 C   0  0  0  0  0  0  0  0  0  0  0  0
   27.8096   37.8209   67.9174 C   0  0  0  0  0  0  0  0  0  0  0  0
   23.5380   40.9374   66.1176 C   0  0  0  0  0  0  0  0  0  0  0  0
   28.0560   39.1171   68.5938 C   0  0  0  0  0  0  0  0  0  0  0  0
   23.0755   38.4455   65.9095 C   0  0  0  0  0  0  0  0  0  0  0  0
   28.5605   40.1822   67.7874 O   0  0  0  0  0  0  0  0  0  0  0  0
  1  8  1  0  0  0  0
  3  5  1  1  0  0  0
  3  9  1  0  0  0  0
  3 12  2  0  0  0  0
  3 22  1  0  0  0  0
  4  8  2  0  0  0  0
  4 19  1  0  0  0  0
  6 16  1  0  0  0  0
  6  7  1  0  0  0  0
  7 10  1  0  0  0  0
  8 11  1  0  0  0  0
 10 13  1  0  0  0  0
 10 21  1  0  0  0  0
 11 14  2  0  0  0  0
 13  2  1  1  0  0  0
 13 16  1  0  0  0  0
 14 15  1  0  0  0  0
 14 17  1  0  0  0  0
 16 18  1  1  0  0  0
 17 19  2  0  0  0  0
 17 21  1  0  0  0  0
 18 20  1  0  0  0  0
 20 22  1  0  0  0  0
M  CHG  1   9  -1
M  END
>  <CHROM.1>
-97.30974698,113.81531759,172.77710530,-65.50852228,-59.67982531,-25.08285285
25.80428954,39.73358103,66.47204267,-2.95710347,0.16808848,-3.11644924

>  <Name>
ligand

>  <RI>
0

>  <Rbt.Current_Directory>
/home/itssahil/PROJECTS/Mol_Feturizer/New_Systems/rnas/2HOM

>  <Rbt.Executable>
rbdock ($Id: //depot/dev/client3/rdock/2013.1/src/exe/rbdock.cxx#4 $)

>  <Rbt.Library>
libRbt.so (2013.1, Build901 2013/11/27)

>  <Rbt.Parameter_File>
/export/apps/rDock/src/rDock_2013.1_src/data/scripts/dock_solv.prm

>  <Rbt.Receptor>
prm/pocket_docking_6.prm

>  <SCORE>
-17.7676

>  <SCORE.INTER>
-18.319

>  <SCORE.INTER.CONST>
1

>  <SCORE.INTER.POLAR>
-2.47911

>  <SCORE.INTER.ROT>
6

>  <SCORE.INTER.SOLV>
16.5004

>  <SCORE.INTER.VDW>
-17.0491

>  <SCORE.INTER.norm>
-0.832683

>  <SCORE.INTRA>
0.551449

>  <SCORE.INTRA.DIHEDRAL>
1.15778

>  <SCORE.INTRA.DIHEDRAL.0>
5.05013

>  <SCORE.INTRA.POLAR>
0

>  <SCORE.INTRA.POLAR.0>
0

>  <SCORE.INTRA.REPUL>
0

>  <SCORE.INTRA.REPUL.0>
0

>  <SCORE.INTRA.SOLV>
1.08893

>  <SCORE.INTRA.SOLV.lig_0>
-54.1265

>  <SCORE.INTRA.VDW>
-0.571909

>  <SCORE.INTRA.VDW.0>
-2.1303

>  <SCORE.INTRA.norm>
0.0250658

>  <SCORE.RESTR>
0

>  <SCORE.RESTR.CAVITY>
0

>  <SCORE.RESTR.norm>
0

>  <SCORE.SYSTEM>
0

>  <SCORE.SYSTEM.CONST>
0

>  <SCORE.SYSTEM.DIHEDRAL>
0

>  <SCORE.SYSTEM.SOLV>
0

>  <SCORE.SYSTEM.norm>
0

>  <SCORE.heavy>
22

>  <SCORE.norm>
-0.807617

>  <RMSD>
3.245

$$$$
ligand
 OpenBabel11021811443D
libRbt.so/2013.1/901 2013/11/27
 22 23  0  0  0  0  0  0  0  0999 V2000
   18.5129   40.6968   64.8675 C   0  0  0  0  0  0  0  0  0  0  0  0
   25.4919   43.1666   67.6367 C   0  0  0  0  0  0  0  0  0  0  0  0
   29.4193   38.8384   65.9777 P   0  0  1  0  0  0  0  0  0  0  0  0
   19.4780   42.8633   65.1801 N   0  0  0  0  0  0  0  0  0  0  0  0
   30.7185   38.6509   66.6727 O   0  0  0  0  0  0  0  0  0  0  0  0
   25.9133   43.2200   63.6334 S   0  0  0  0  0  0  0  0  0  0  0  0
   24.4008   43.7000   64.1853 C   0  0  0  0  0  0  0  0  0  0  0  0
   19.6675   41.5009   65.2651 C   0  0  0  0  0  0  0  0  0  0  0  0
   29.4364   38.4542   64.5426 O   0  5  0  0  0  0  0  0  0  0  0  0
   24.2394   43.6900   65.5258 N   0  0  0  0  0  0  0  0  0  0  0  0
   20.7754   40.9468   65.6791 N   0  0  0  0  0  0  0  0  0  0  0  0
   28.3126   38.1915   66.7526 O   0  0  0  0  0  0  0  0  0  0  0  0
   25.4184   43.2659   66.1413 C   0  0  2  0  0  0  0  0  0  0  0  0
   21.8554   41.7418   66.0488 C   0  0  0  0  0  0  0  0  0  0  0  0
   22.9685   41.1602   66.4855 N   0  0  0  0  0  0  0  0  0  0  0  0
   26.4410   42.9593   65.2750 C   0  0  1  0  0  0  0  0  0  0  0  0
   21.7403   43.1872   65.9451 C   0  0  0  0  0  0  0  0  0  0  0  0
   27.8035   42.4669   65.6076 C   0  0  0  0  0  0  0  0  0  0  0  0
   20.5134   43.6668   65.5326 C   0  0  0  0  0  0  0  0  0  0  0  0
   27.8648   40.9859   65.5747 C   0  0  0  0  0  0  0  0  0  0  0  0
   22.9240   44.0948   66.2202 C   0  0  0  0  0  0  0  0  0  0  0  0
   29.1118   40.3821   65.9207 O   0  0  0  0  0  0  0  0  0  0  0  0
  1  8  1  0  0  0  0
  3  5  1  1  0  0  0
  3  9  1  0  0  0  0
  3 12  2  0  0  0  0
  3 22  1  0  0  0  0
  4  8  2  0  0  0  0
  4 19  1  0  0  0  0
  6 16  1  0  0  0  0
  6  7  1  0  0  0  0
  7 10  1  0  0  0  0
  8 11  1  0  0  0  0
 10 13  1  0  0  0  0
 10 21  1  0  0  0  0
 11 14  2  0  0  0  0
 13  2  1  6  0  0  0
 13 16  1  0  0  0  0
 14 15  1  0  0  0  0
 14 17  1  0  0  0  0
 16 18  1  6  0  0  0
 17 19  2  0  0  0  0
 17 21  1  0  0  0  0
 18 20  1  0  0  0  0
 20 22  1  0  0  0  0
M  CHG  1   9  -1
M  END
>  <CHROM.1>
65.31191518,-86.01491860,47.79657283,-177.96601409,179.14966888,-167.19812871
25.15425060,41.54397676,65.59241122,2.80014236,0.01431716,-0.18166424

>  <Name>
ligand

>  <RI>
0

>  <Rbt.Current_Directory>
/home/itssahil/PROJECTS/Mol_Feturizer/New_Systems/rnas/2HOM

>  <Rbt.Executable>
rbdock ($Id: //depot/dev/client3/rdock/2013.1/src/exe/rbdock.cxx#4 $)

>  <Rbt.Library>
libRbt.so (2013.1, Build901 2013/11/27)

>  <Rbt.Parameter_File>
/export/apps/rDock/src/rDock_2013.1_src/data/scripts/dock_solv.prm

>  <Rbt.Receptor>
prm/pocket_docking_8.prm

>  <SCORE>
-16.9497

>  <SCORE.INTER>
-18.4924

>  <SCORE.INTER.CONST>
1

>  <SCORE.INTER.POLAR>
-1.30767

>  <SCORE.INTER.ROT>
6

>  <SCORE.INTER.SOLV>
5.33743

>  <SCORE.INTER.VDW>
-17.3485

>  <SCORE.INTER.norm>
-0.840564

>  <SCORE.INTRA>
1.54268

>  <SCORE.INTRA.DIHEDRAL>
0.1569

>  <SCORE.INTRA.DIHEDRAL.0>
5.05013

>  <SCORE.INTRA.POLAR>
0

>  <SCORE.INTRA.POLAR.0>
0

>  <SCORE.INTRA.REPUL>
0

>  <SCORE.INTRA.REPUL.0>
0

>  <SCORE.INTRA.SOLV>
3.68077

>  <SCORE.INTRA.SOLV.lig_0>
-54.1265

>  <SCORE.INTRA.VDW>
-0.376151

>  <SCORE.INTRA.VDW.0>
-2.1303

>  <SCORE.INTRA.norm>
0.070122

>  <SCORE.RESTR>
0

>  <SCORE.RESTR.CAVITY>
0

>  <SCORE.RESTR.norm>
0

>  <SCORE.SYSTEM>
0

>  <SCORE.SYSTEM.CONST>
0

>  <SCORE.SYSTEM.DIHEDRAL>
0

>  <SCORE.SYSTEM.SOLV>
0

>  <SCORE.SYSTEM.norm>
0

>  <SCORE.heavy>
22

>  <SCORE.norm>
-0.770442

>  <RMSD>
3.266

$$$$
ligand
 OpenBabel11021811443D
libRbt.so/2013.1/901 2013/11/27
 22 23  0  0  0  0  0  0  0  0999 V2000
   20.8220   43.5068   65.5319 C   0  0  0  0  0  0  0  0  0  0  0  0
   25.5507   38.3715   68.8193 C   0  0  0  0  0  0  0  0  0  0  0  0
   29.2619   41.6622   66.2849 P   0  0  1  0  0  0  0  0  0  0  0  0
   22.0347   42.1204   67.0585 N   0  0  0  0  0  0  0  0  0  0  0  0
   29.3481   42.1536   64.8858 O   0  0  0  0  0  0  0  0  0  0  0  0
   26.3865   37.8955   64.9101 S   0  0  0  0  0  0  0  0  0  0  0  0
   24.7547   38.0908   65.2592 C   0  0  0  0  0  0  0  0  0  0  0  0
   21.3168   42.1766   65.8834 C   0  0  0  0  0  0  0  0  0  0  0  0
   30.5671   41.6107   66.9927 O   0  5  0  0  0  0  0  0  0  0  0  0
   24.4534   38.2531   66.5653 N   0  0  0  0  0  0  0  0  0  0  0  0
   21.0709   41.1364   65.1328 N   0  0  0  0  0  0  0  0  0  0  0  0
   28.2063   42.4109   67.0390 O   0  0  0  0  0  0  0  0  0  0  0  0
   25.6217   38.2162   67.3286 C   0  0  2  0  0  0  0  0  0  0  0  0
   21.5580   39.8851   65.4963 C   0  0  0  0  0  0  0  0  0  0  0  0
   21.2817   38.8346   64.7294 N   0  0  0  0  0  0  0  0  0  0  0  0
   26.7751   38.0243   66.6054 C   0  0  1  0  0  0  0  0  0  0  0  0
   22.3588   39.7589   66.7029 C   0  0  0  0  0  0  0  0  0  0  0  0
   28.1671   37.9204   67.1161 C   0  0  0  0  0  0  0  0  0  0  0  0
   22.5248   40.9139   67.4405 C   0  0  0  0  0  0  0  0  0  0  0  0
   28.7527   39.2600   67.3624 C   0  0  0  0  0  0  0  0  0  0  0  0
   23.0136   38.4442   67.0815 C   0  0  0  0  0  0  0  0  0  0  0  0
   28.8269   40.1488   66.2471 O   0  0  0  0  0  0  0  0  0  0  0  0
  1  8  1  0  0  0  0
  3  5  1  6  0  0  0
  3  9  1  0  0  0  0
  3 12  2  0  0  0  0
  3 22  1  0  0  0  0
  4  8  2  0  0  0  0
  4 19  1  0  0  0  0
  6 16  1  0  0  0  0
  6  7  1  0  0  0  0
  7 10  1  0  0  0  0
  8 11  1  0  0  0  0
 10 13  1  0  0  0  0
 10 21  1  0  0  0  0
 11 14  2  0  0  0  0
 13  2  1  1  0  0  0
 13 16  1  0  0  0  0
 14 15  1  0  0  0  0
 14 17  1  0  0  0  0
 16 18  1  1  0  0  0
 17 19  2  0  0  0  0
 17 21  1  0  0  0  0
 18 20  1  0  0  0  0
 20 22  1  0  0  0  0
M  CHG  1   9  -1
M  END
>  <CHROM.1>
-68.71246404,98.83515232,91.86592609,-58.96553814,173.11220619,173.43039513
25.54466840,40.06381094,66.30424368,-3.12834843,0.06696469,3.08436987

>  <Name>
ligand

>  <RI>
0

>  <Rbt.Current_Directory>
/home/itssahil/PROJECTS/Mol_Feturizer/New_Systems/rnas/2HOM

>  <Rbt.Executable>
rbdock ($Id: //depot/dev/client3/rdock/2013.1/src/exe/rbdock.cxx#4 $)

>  <Rbt.Library>
libRbt.so (2013.1, Build901 2013/11/27)

>  <Rbt.Parameter_File>
/export/apps/rDock/src/rDock_2013.1_src/data/scripts/dock_solv.prm

>  <Rbt.Receptor>
prm/pocket_docking_7.prm

>  <SCORE>
-13.1048

>  <SCORE.INTER>
-13.3011

>  <SCORE.INTER.CONST>
1

>  <SCORE.INTER.POLAR>
-1.18585

>  <SCORE.INTER.ROT>
6

>  <SCORE.INTER.SOLV>
15.6915

>  <SCORE.INTER.VDW>
-17.745

>  <SCORE.INTER.norm>
-0.604594

>  <SCORE.INTRA>
0.196262

>  <SCORE.INTRA.DIHEDRAL>
-0.0880892

>  <SCORE.INTRA.DIHEDRAL.0>
5.05013

>  <SCORE.INTRA.POLAR>
0

>  <SCORE.INTRA.POLAR.0>
0

>  <SCORE.INTRA.REPUL>
0

>  <SCORE.INTRA.REPUL.0>
0

>  <SCORE.INTRA.SOLV>
1.12735

>  <SCORE.INTRA.SOLV.lig_0>
-54.1265

>  <SCORE.INTRA.VDW>
-0.323367

>  <SCORE.INTRA.VDW.0>
-2.1303

>  <SCORE.INTRA.norm>
0.008921

>  <SCORE.RESTR>
0

>  <SCORE.RESTR.CAVITY>
0

>  <SCORE.RESTR.norm>
0

>  <SCORE.SYSTEM>
0

>  <SCORE.SYSTEM.CONST>
0

>  <SCORE.SYSTEM.DIHEDRAL>
0

>  <SCORE.SYSTEM.SOLV>
0

>  <SCORE.SYSTEM.norm>
0

>  <SCORE.heavy>
22

>  <SCORE.norm>
-0.595673

>  <RMSD>
3.268

$$$$
ligand
 OpenBabel11021811443D
libRbt.so/2013.1/901 2013/11/27
 22 23  0  0  0  0  0  0  0  0999 V2000
   22.6447   45.7812   66.7689 C   0  0  0  0  0  0  0  0  0  0  0  0
   23.8790   40.6500   64.4005 C   0  0  0  0  0  0  0  0  0  0  0  0
   28.0803   38.0236   68.3384 P   0  0  1  0  0  0  0  0  0  0  0  0
   22.9261   43.4158   66.9901 N   0  0  0  0  0  0  0  0  0  0  0  0
   28.8419   39.2752   68.0944 O   0  0  0  0  0  0  0  0  0  0  0  0
   23.4507   37.2467   66.5079 S   0  0  0  0  0  0  0  0  0  0  0  0
   22.0844   38.2237   66.4692 C   0  0  0  0  0  0  0  0  0  0  0  0
   22.1599   44.4352   66.4673 C   0  0  0  0  0  0  0  0  0  0  0  0
   28.9267   36.8069   68.4406 O   0  5  0  0  0  0  0  0  0  0  0  0
   22.2072   39.3699   65.7663 N   0  0  0  0  0  0  0  0  0  0  0  0
   21.0743   44.2414   65.7675 N   0  0  0  0  0  0  0  0  0  0  0  0
   27.1460   38.1963   69.4965 O   0  0  0  0  0  0  0  0  0  0  0  0
   23.4915   39.4587   65.2262 C   0  0  2  0  0  0  0  0  0  0  0  0
   20.6419   42.9470   65.4978 C   0  0  0  0  0  0  0  0  0  0  0  0
   19.5242   42.7696   64.7996 N   0  0  0  0  0  0  0  0  0  0  0  0
   24.3153   38.3993   65.5253 C   0  0  1  0  0  0  0  0  0  0  0  0
   21.4244   41.8223   65.9833 C   0  0  0  0  0  0  0  0  0  0  0  0
   25.7322   38.2016   65.1220 C   0  0  0  0  0  0  0  0  0  0  0  0
   22.5315   42.1409   66.7438 C   0  0  0  0  0  0  0  0  0  0  0  0
   26.6637   38.6974   66.1636 C   0  0  0  0  0  0  0  0  0  0  0  0
   21.0654   40.3947   65.6175 C   0  0  0  0  0  0  0  0  0  0  0  0
   27.2002   37.7291   67.0658 O   0  0  0  0  0  0  0  0  0  0  0  0
  1  8  1  0  0  0  0
  3  5  1  6  0  0  0
  3  9  1  0  0  0  0
  3 12  2  0  0  0  0
  3 22  1  0  0  0  0
  4  8  2  0  0  0  0
  4 19  1  0  0  0  0
  6 16  1  0  0  0  0
  6  7  1  0  0  0  0
  7 10  1  0  0  0  0
  8 11  1  0  0  0  0
 10 13  1  0  0  0  0
 10 21  1  0  0  0  0
 11 14  2  0  0  0  0
 13  2  1  1  0  0  0
 13 16  1  0  0  0  0
 14 15  1  0  0  0  0
 14 17  1  0  0  0  0
 16 18  1  1  0  0  0
 17 19  2  0  0  0  0
 17 21  1  0  0  0  0
 18 20  1  0  0  0  0
 20 22  1  0  0  0  0
M  CHG  1   9  -1
M  END
>  <CHROM.1>
127.55043907,-85.69946855,159.47639091,97.75384491,-173.08352465,-29.24111612
24.24977272,40.02296552,66.57731056,-2.52435184,0.43497842,-2.96820763

>  <Name>
ligand

>  <RI>
0

>  <Rbt.Current_Directory>
/home/itssahil/PROJECTS/Mol_Feturizer/New_Systems/rnas/2HOM

>  <Rbt.Executable>
rbdock ($Id: //depot/dev/client3/rdock/2013.1/src/exe/rbdock.cxx#4 $)

>  <Rbt.Library>
libRbt.so (2013.1, Build901 2013/11/27)

>  <Rbt.Parameter_File>
/export/apps/rDock/src/rDock_2013.1_src/data/scripts/dock_solv.prm

>  <Rbt.Receptor>
prm/pocket_docking_7.prm

>  <SCORE>
-17.0831

>  <SCORE.INTER>
-19.8855

>  <SCORE.INTER.CONST>
1

>  <SCORE.INTER.POLAR>
-1.63459

>  <SCORE.INTER.ROT>
6

>  <SCORE.INTER.SOLV>
20.3655

>  <SCORE.INTER.VDW>
-22.1968

>  <SCORE.INTER.norm>
-0.903885

>  <SCORE.INTRA>
2.80238

>  <SCORE.INTRA.DIHEDRAL>
5.23699

>  <SCORE.INTRA.DIHEDRAL.0>
5.05013

>  <SCORE.INTRA.POLAR>
0

>  <SCORE.INTRA.POLAR.0>
0

>  <SCORE.INTRA.REPUL>
0

>  <SCORE.INTRA.REPUL.0>
0

>  <SCORE.INTRA.SOLV>
-0.218108

>  <SCORE.INTRA.SOLV.lig_0>
-54.1265

>  <SCORE.INTRA.VDW>
0.292943

>  <SCORE.INTRA.VDW.0>
-2.1303

>  <SCORE.INTRA.norm>
0.127381

>  <SCORE.RESTR>
0

>  <SCORE.RESTR.CAVITY>
0

>  <SCORE.RESTR.norm>
0

>  <SCORE.SYSTEM>
0

>  <SCORE.SYSTEM.CONST>
0

>  <SCORE.SYSTEM.DIHEDRAL>
0

>  <SCORE.SYSTEM.SOLV>
0

>  <SCORE.SYSTEM.norm>
0

>  <SCORE.heavy>
22

>  <SCORE.norm>
-0.776504

>  <RMSD>
3.338

$$$$
ligand
 OpenBabel11021811443D
libRbt.so/2013.1/901 2013/11/27
 22 23  0  0  0  0  0  0  0  0999 V2000
   20.7242   43.9498   65.6323 C   0  0  0  0  0  0  0  0  0  0  0  0
   26.5166   38.6851   64.9724 C   0  0  0  0  0  0  0  0  0  0  0  0
   28.4081   40.6694   70.0457 P   0  0  1  0  0  0  0  0  0  0  0  0
   22.7299   42.6625   65.4236 N   0  0  0  0  0  0  0  0  0  0  0  0
   28.0013   40.6615   71.4743 O   0  0  0  0  0  0  0  0  0  0  0  0
   24.8532   37.4650   68.4295 S   0  0  0  0  0  0  0  0  0  0  0  0
   23.7574   38.0107   67.2788 C   0  0  0  0  0  0  0  0  0  0  0  0
   21.3538   42.6373   65.4944 C   0  0  0  0  0  0  0  0  0  0  0  0
   27.8016   41.7654   69.2468 O   0  5  0  0  0  0  0  0  0  0  0  0
   24.2955   38.4236   66.1112 N   0  0  0  0  0  0  0  0  0  0  0  0
   20.6452   41.5407   65.4588 N   0  0  0  0  0  0  0  0  0  0  0  0
   29.8996   40.6018   69.9255 O   0  0  0  0  0  0  0  0  0  0  0  0
   25.6842   38.2877   66.1558 C   0  0  2  0  0  0  0  0  0  0  0  0
   21.2765   40.3083   65.3256 C   0  0  0  0  0  0  0  0  0  0  0  0
   20.5398   39.2014   65.3101 N   0  0  0  0  0  0  0  0  0  0  0  0
   26.1751   37.7869   67.3384 C   0  0  1  0  0  0  0  0  0  0  0  0
   22.7243   40.2626   65.2037 C   0  0  0  0  0  0  0  0  0  0  0  0
   27.5938   37.5416   67.7077 C   0  0  0  0  0  0  0  0  0  0  0  0
   23.3759   41.4763   65.2920 C   0  0  0  0  0  0  0  0  0  0  0  0
   28.2640   38.7931   68.1354 C   0  0  0  0  0  0  0  0  0  0  0  0
   23.4530   38.9594   64.9368 C   0  0  0  0  0  0  0  0  0  0  0  0
   27.8235   39.3763   69.3623 O   0  0  0  0  0  0  0  0  0  0  0  0
  1  8  1  0  0  0  0
  3  5  1  1  0  0  0
  3  9  1  0  0  0  0
  3 12  2  0  0  0  0
  3 22  1  0  0  0  0
  4  8  2  0  0  0  0
  4 19  1  0  0  0  0
  6 16  1  0  0  0  0
  6  7  1  0  0  0  0
  7 10  1  0  0  0  0
  8 11  1  0  0  0  0
 10 13  1  0  0  0  0
 10 21  1  0  0  0  0
 11 14  2  0  0  0  0
 13  2  1  1  0  0  0
 13 16  1  0  0  0  0
 14 15  1  0  0  0  0
 14 17  1  0  0  0  0
 16 18  1  1  0  0  0
 17 19  2  0  0  0  0
 17 21  1  0  0  0  0
 18 20  1  0  0  0  0
 20 22  1  0  0  0  0
M  CHG  1   9  -1
M  END
>  <CHROM.1>
65.43269258,-98.96260673,-110.39989186,67.84053311,177.87462539,-161.15163763
25.12723629,39.88911593,67.34005369,-3.12131422,0.58798411,-2.87607902

>  <Name>
ligand

>  <RI>
0

>  <Rbt.Current_Directory>
/home/itssahil/PROJECTS/Mol_Feturizer/New_Systems/rnas/2HOM

>  <Rbt.Executable>
rbdock ($Id: //depot/dev/client3/rdock/2013.1/src/exe/rbdock.cxx#4 $)

>  <Rbt.Library>
libRbt.so (2013.1, Build901 2013/11/27)

>  <Rbt.Parameter_File>
/export/apps/rDock/src/rDock_2013.1_src/data/scripts/dock_solv.prm

>  <Rbt.Receptor>
prm/pocket_docking_8.prm

>  <SCORE>
-13.488

>  <SCORE.INTER>
-13.8582

>  <SCORE.INTER.CONST>
1

>  <SCORE.INTER.POLAR>
-1.18585

>  <SCORE.INTER.ROT>
6

>  <SCORE.INTER.SOLV>
19.1808

>  <SCORE.INTER.VDW>
-19.2795

>  <SCORE.INTER.norm>
-0.629917

>  <SCORE.INTRA>
0.370173

>  <SCORE.INTRA.DIHEDRAL>
0.465301

>  <SCORE.INTRA.DIHEDRAL.0>
5.05013

>  <SCORE.INTRA.POLAR>
0

>  <SCORE.INTRA.POLAR.0>
0

>  <SCORE.INTRA.REPUL>
0

>  <SCORE.INTRA.REPUL.0>
0

>  <SCORE.INTRA.SOLV>
0.61497

>  <SCORE.INTRA.SOLV.lig_0>
-54.1265

>  <SCORE.INTRA.VDW>
-0.169963

>  <SCORE.INTRA.VDW.0>
-2.1303

>  <SCORE.INTRA.norm>
0.0168261

>  <SCORE.RESTR>
0

>  <SCORE.RESTR.CAVITY>
0

>  <SCORE.RESTR.norm>
0

>  <SCORE.SYSTEM>
0

>  <SCORE.SYSTEM.CONST>
0

>  <SCORE.SYSTEM.DIHEDRAL>
0

>  <SCORE.SYSTEM.SOLV>
0

>  <SCORE.SYSTEM.norm>
0

>  <SCORE.heavy>
22

>  <SCORE.norm>
-0.613091

>  <RMSD>
3.347

$$$$
ligand
 OpenBabel11021811443D
libRbt.so/2013.1/901 2013/11/27
 22 23  0  0  0  0  0  0  0  0999 V2000
   17.3184   39.2234   64.0957 C   0  0  0  0  0  0  0  0  0  0  0  0
   23.5571   44.5944   65.7245 C   0  0  0  0  0  0  0  0  0  0  0  0
   29.0104   41.3000   64.1777 P   0  0  1  0  0  0  0  0  0  0  0  0
   18.3291   41.2903   64.7512 N   0  0  0  0  0  0  0  0  0  0  0  0
   30.1496   42.2218   63.9351 O   0  0  0  0  0  0  0  0  0  0  0  0
   24.7350   41.2567   63.8063 S   0  0  0  0  0  0  0  0  0  0  0  0
   23.3460   41.0783   64.7345 C   0  0  0  0  0  0  0  0  0  0  0  0
   18.4526   39.9185   64.7026 C   0  0  0  0  0  0  0  0  0  0  0  0
   28.9865   40.1143   63.2827 O   0  5  0  0  0  0  0  0  0  0  0  0
   22.9336   42.1871   65.3854 N   0  0  0  0  0  0  0  0  0  0  0  0
   19.4836   39.2658   65.1683 N   0  0  0  0  0  0  0  0  0  0  0  0
   28.9210   40.9491   65.6311 O   0  0  0  0  0  0  0  0  0  0  0  0
   23.8008   43.2464   65.1122 C   0  0  2  0  0  0  0  0  0  0  0  0
   20.5464   39.9588   65.7385 C   0  0  0  0  0  0  0  0  0  0  0  0
   21.5790   39.2760   66.2241 N   0  0  0  0  0  0  0  0  0  0  0  0
   24.8460   42.9326   64.2759 C   0  0  1  0  0  0  0  0  0  0  0  0
   20.5023   41.4110   65.7859 C   0  0  0  0  0  0  0  0  0  0  0  0
   25.9419   43.8220   63.8099 C   0  0  0  0  0  0  0  0  0  0  0  0
   19.3499   41.9959   65.3006 C   0  0  0  0  0  0  0  0  0  0  0  0
   27.2648   43.3335   64.2678 C   0  0  0  0  0  0  0  0  0  0  0  0
   21.6833   42.2204   66.2864 C   0  0  0  0  0  0  0  0  0  0  0  0
   27.6807   42.0521   63.7941 O   0  0  0  0  0  0  0  0  0  0  0  0
  1  8  1  0  0  0  0
  3  5  1  6  0  0  0
  3  9  1  0  0  0  0
  3 12  2  0  0  0  0
  3 22  1  0  0  0  0
  4  8  2  0  0  0  0
  4 19  1  0  0  0  0
  6 16  1  0  0  0  0
  6  7  1  0  0  0  0
  7 10  1  0  0  0  0
  8 11  1  0  0  0  0
 10 13  1  0  0  0  0
 10 21  1  0  0  0  0
 11 14  2  0  0  0  0
 13  2  1  1  0  0  0
 13 16  1  0  0  0  0
 14 15  1  0  0  0  0
 14 17  1  0  0  0  0
 16 18  1  1  0  0  0
 17 19  2  0  0  0  0
 17 21  1  0  0  0  0
 18 20  1  0  0  0  0
 20 22  1  0  0  0  0
M  CHG  1   9  -1
M  END
>  <CHROM.1>
-38.37878435,-61.70488665,68.14020734,62.52925979,-177.63440326,-52.63506536
24.08955002,41.50245234,64.70571677,-3.02238081,0.12452682,0.13907023

>  <Name>
ligand

>  <RI>
0

>  <Rbt.Current_Directory>
/home/itssahil/PROJECTS/Mol_Feturizer/New_Systems/rnas/2HOM

>  <Rbt.Executable>
rbdock ($Id: //depot/dev/client3/rdock/2013.1/src/exe/rbdock.cxx#4 $)

>  <Rbt.Library>
libRbt.so (2013.1, Build901 2013/11/27)

>  <Rbt.Parameter_File>
/export/apps/rDock/src/rDock_2013.1_src/data/scripts/dock_solv.prm

>  <Rbt.Receptor>
prm/pocket_docking_7.prm

>  <SCORE>
-15.038

>  <SCORE.INTER>
-15.5148

>  <SCORE.INTER.CONST>
1

>  <SCORE.INTER.POLAR>
0

>  <SCORE.INTER.ROT>
6

>  <SCORE.INTER.SOLV>
7.16964

>  <SCORE.INTER.VDW>
-20.3331

>  <SCORE.INTER.norm>
-0.705218

>  <SCORE.INTRA>
0.476772

>  <SCORE.INTRA.DIHEDRAL>
0.172011

>  <SCORE.INTRA.DIHEDRAL.0>
5.05013

>  <SCORE.INTRA.POLAR>
0

>  <SCORE.INTRA.POLAR.0>
0

>  <SCORE.INTRA.REPUL>
0

>  <SCORE.INTRA.REPUL.0>
0

>  <SCORE.INTRA.SOLV>
1.36213

>  <SCORE.INTRA.SOLV.lig_0>
-54.1265

>  <SCORE.INTRA.VDW>
-0.290299

>  <SCORE.INTRA.VDW.0>
-2.1303

>  <SCORE.INTRA.norm>
0.0216714

>  <SCORE.RESTR>
0

>  <SCORE.RESTR.CAVITY>
0

>  <SCORE.RESTR.norm>
0

>  <SCORE.SYSTEM>
0

>  <SCORE.SYSTEM.CONST>
0

>  <SCORE.SYSTEM.DIHEDRAL>
0

>  <SCORE.SYSTEM.SOLV>
0

>  <SCORE.SYSTEM.norm>
0

>  <SCORE.heavy>
22

>  <SCORE.norm>
-0.683547

>  <RMSD>
3.350

$$$$
ligand
 OpenBabel11021811443D
libRbt.so/2013.1/901 2013/11/27
 22 23  0  0  0  0  0  0  0  0999 V2000
   22.9240   46.2779   66.6382 C   0  0  0  0  0  0  0  0  0  0  0  0
   24.5684   40.7434   64.6527 C   0  0  0  0  0  0  0  0  0  0  0  0
   28.8998   39.9203   68.8161 P   0  0  1  0  0  0  0  0  0  0  0  0
   23.5485   44.0088   67.0678 N   0  0  0  0  0  0  0  0  0  0  0  0
   28.3997   39.8608   70.2135 O   0  0  0  0  0  0  0  0  0  0  0  0
   24.7539   38.0248   67.6160 S   0  0  0  0  0  0  0  0  0  0  0  0
   23.2986   38.8587   67.5201 C   0  0  0  0  0  0  0  0  0  0  0  0
   22.5938   44.8563   66.5486 C   0  0  0  0  0  0  0  0  0  0  0  0
   29.2218   41.2915   68.3435 O   0  5  0  0  0  0  0  0  0  0  0  0
   23.2157   39.7748   66.5317 N   0  0  0  0  0  0  0  0  0  0  0  0
   21.4683   44.4485   66.0262 N   0  0  0  0  0  0  0  0  0  0  0  0
   30.0200   38.9456   68.6187 O   0  0  0  0  0  0  0  0  0  0  0  0
   24.4095   39.7996   65.8082 C   0  0  2  0  0  0  0  0  0  0  0  0
   21.1864   43.0881   65.9557 C   0  0  0  0  0  0  0  0  0  0  0  0
   20.0273   42.6928   65.4375 N   0  0  0  0  0  0  0  0  0  0  0  0
   25.3691   38.9209   66.2522 C   0  0  1  0  0  0  0  0  0  0  0  0
   22.1670   42.1342   66.4470 C   0  0  0  0  0  0  0  0  0  0  0  0
   26.7400   38.7173   65.7152 C   0  0  0  0  0  0  0  0  0  0  0  0
   23.3039   42.6750   67.0131 C   0  0  0  0  0  0  0  0  0  0  0  0
   27.7300   39.5579   66.4306 C   0  0  0  0  0  0  0  0  0  0  0  0
   21.9638   40.6398   66.2858 C   0  0  0  0  0  0  0  0  0  0  0  0
   27.7276   39.4881   67.8570 O   0  0  0  0  0  0  0  0  0  0  0  0
  1  8  1  0  0  0  0
  3  5  1  1  0  0  0
  3  9  1  0  0  0  0
  3 12  2  0  0  0  0
  3 22  1  0  0  0  0
  4  8  2  0  0  0  0
  4 19  1  0  0  0  0
  6 16  1  0  0  0  0
  6  7  1  0  0  0  0
  7 10  1  0  0  0  0
  8 11  1  0  0  0  0
 10 13  1  0  0  0  0
 10 21  1  0  0  0  0
 11 14  2  0  0  0  0
 13  2  1  1  0  0  0
 13 16  1  0  0  0  0
 14 15  1  0  0  0  0
 14 17  1  0  0  0  0
 16 18  1  1  0  0  0
 17 19  2  0  0  0  0
 17 21  1  0  0  0  0
 18 20  1  0  0  0  0
 20 22  1  0  0  0  0
M  CHG  1   9  -1
M  END
>  <CHROM.1>
117.43769386,-86.64086325,165.57929177,51.17655627,160.75600590,172.01427406
25.07243219,40.86964111,67.08585548,-2.65447076,0.37829285,-3.02890116

>  <Name>
ligand

>  <RI>
0

>  <Rbt.Current_Directory>
/home/itssahil/PROJECTS/Mol_Feturizer/New_Systems/rnas/2HOM

>  <Rbt.Executable>
rbdock ($Id: //depot/dev/client3/rdock/2013.1/src/exe/rbdock.cxx#4 $)

>  <Rbt.Library>
libRbt.so (2013.1, Build901 2013/11/27)

>  <Rbt.Parameter_File>
/export/apps/rDock/src/rDock_2013.1_src/data/scripts/dock_solv.prm

>  <Rbt.Receptor>
prm/pocket_docking_5.prm

>  <SCORE>
-16.9826

>  <SCORE.INTER>
-17.997

>  <SCORE.INTER.CONST>
1

>  <SCORE.INTER.POLAR>
-2.8138

>  <SCORE.INTER.ROT>
6

>  <SCORE.INTER.SOLV>
20.7303

>  <SCORE.INTER.VDW>
-17.1288

>  <SCORE.INTER.norm>
-0.818045

>  <SCORE.INTRA>
1.01443

>  <SCORE.INTRA.DIHEDRAL>
1.99072

>  <SCORE.INTRA.DIHEDRAL.0>
5.05013

>  <SCORE.INTRA.POLAR>
0

>  <SCORE.INTRA.POLAR.0>
0

>  <SCORE.INTRA.REPUL>
0

>  <SCORE.INTRA.REPUL.0>
0

>  <SCORE.INTRA.SOLV>
0.539553

>  <SCORE.INTRA.SOLV.lig_0>
-54.1265

>  <SCORE.INTRA.VDW>
-0.250704

>  <SCORE.INTRA.VDW.0>
-2.1303

>  <SCORE.INTRA.norm>
0.0461105

>  <SCORE.RESTR>
0

>  <SCORE.RESTR.CAVITY>
0

>  <SCORE.RESTR.norm>
0

>  <SCORE.SYSTEM>
0

>  <SCORE.SYSTEM.CONST>
0

>  <SCORE.SYSTEM.DIHEDRAL>
0

>  <SCORE.SYSTEM.SOLV>
0

>  <SCORE.SYSTEM.norm>
0

>  <SCORE.heavy>
22

>  <SCORE.norm>
-0.771935

>  <RMSD>
3.369

$$$$
ligand
 OpenBabel11021811443D
libRbt.so/2013.1/901 2013/11/27
 22 23  0  0  0  0  0  0  0  0999 V2000
   20.1660   44.3730   65.9395 C   0  0  0  0  0  0  0  0  0  0  0  0
   24.2754   38.1382   67.4222 C   0  0  0  0  0  0  0  0  0  0  0  0
   29.7589   36.3729   65.2977 P   0  0  1  0  0  0  0  0  0  0  0  0
   22.2116   43.1410   65.7953 N   0  0  0  0  0  0  0  0  0  0  0  0
   30.6381   35.7428   66.3156 O   0  0  0  0  0  0  0  0  0  0  0  0
   27.0632   40.0944   65.2754 S   0  0  0  0  0  0  0  0  0  0  0  0
   25.5035   40.1994   64.6598 C   0  0  0  0  0  0  0  0  0  0  0  0
   20.8366   43.0929   65.7169 C   0  0  0  0  0  0  0  0  0  0  0  0
   30.4900   37.1148   64.2383 O   0  5  0  0  0  0  0  0  0  0  0  0
   24.5532   39.5506   65.3662 N   0  0  0  0  0  0  0  0  0  0  0  0
   20.1610   42.0006   65.4790 N   0  0  0  0  0  0  0  0  0  0  0  0
   28.7832   35.3732   64.7573 O   0  0  0  0  0  0  0  0  0  0  0  0
   25.1294   38.9301   66.4762 C   0  0  2  0  0  0  0  0  0  0  0  0
   20.8310   40.7995   65.2706 C   0  0  0  0  0  0  0  0  0  0  0  0
   20.1256   39.6944   65.0483 N   0  0  0  0  0  0  0  0  0  0  0  0
   26.4876   39.1081   66.5935 C   0  0  1  0  0  0  0  0  0  0  0  0
   22.2843   40.7840   65.2979 C   0  0  0  0  0  0  0  0  0  0  0  0
   27.3926   38.5682   67.6418 C   0  0  0  0  0  0  0  0  0  0  0  0
   22.8951   41.9856   65.5954 C   0  0  0  0  0  0  0  0  0  0  0  0
   28.1085   37.3600   67.1665 C   0  0  0  0  0  0  0  0  0  0  0  0
   23.0665   39.5294   64.9594 C   0  0  0  0  0  0  0  0  0  0  0  0
   28.9253   37.5072   66.0043 O   0  0  0  0  0  0  0  0  0  0  0  0
  1  8  1  0  0  0  0
  3  5  1  1  0  0  0
  3  9  1  0  0  0  0
  3 12  2  0  0  0  0
  3 22  1  0  0  0  0
  4  8  2  0  0  0  0
  4 19  1  0  0  0  0
  6 16  1  0  0  0  0
  6  7  1  0  0  0  0
  7 10  1  0  0  0  0
  8 11  1  0  0  0  0
 10 13  1  0  0  0  0
 10 21  1  0  0  0  0
 11 14  2  0  0  0  0
 13  2  1  6  0  0  0
 13 16  1  0  0  0  0
 14 15  1  0  0  0  0
 14 17  1  0  0  0  0
 16 18  1  6  0  0  0
 17 19  2  0  0  0  0
 17 21  1  0  0  0  0
 18 20  1  0  0  0  0
 20 22  1  0  0  0  0
M  CHG  1   9  -1
M  END
>  <CHROM.1>
-78.45462182,-79.99685855,-165.26785798,58.96907364,-178.88981959,-54.16794015
25.49374343,39.28327043,65.69424229,-2.57126197,-0.02800609,3.08773448

>  <Name>
ligand

>  <RI>
0

>  <Rbt.Current_Directory>
/home/itssahil/PROJECTS/Mol_Feturizer/New_Systems/rnas/2HOM

>  <Rbt.Executable>
rbdock ($Id: //depot/dev/client3/rdock/2013.1/src/exe/rbdock.cxx#4 $)

>  <Rbt.Library>
libRbt.so (2013.1, Build901 2013/11/27)

>  <Rbt.Parameter_File>
/export/apps/rDock/src/rDock_2013.1_src/data/scripts/dock_solv.prm

>  <Rbt.Receptor>
prm/pocket_docking_6.prm

>  <SCORE>
-15.6241

>  <SCORE.INTER>
-15.1184

>  <SCORE.INTER.CONST>
1

>  <SCORE.INTER.POLAR>
-1.30767

>  <SCORE.INTER.ROT>
6

>  <SCORE.INTER.SOLV>
18.0865

>  <SCORE.INTER.VDW>
-19.3489

>  <SCORE.INTER.norm>
-0.687199

>  <SCORE.INTRA>
-0.505759

>  <SCORE.INTRA.DIHEDRAL>
-0.0988283

>  <SCORE.INTRA.DIHEDRAL.0>
5.05013

>  <SCORE.INTRA.POLAR>
0

>  <SCORE.INTRA.POLAR.0>
0

>  <SCORE.INTRA.REPUL>
0

>  <SCORE.INTRA.REPUL.0>
0

>  <SCORE.INTRA.SOLV>
-0.109982

>  <SCORE.INTRA.SOLV.lig_0>
-54.1265

>  <SCORE.INTRA.VDW>
-0.401354

>  <SCORE.INTRA.VDW.0>
-2.1303

>  <SCORE.INTRA.norm>
-0.022989

>  <SCORE.RESTR>
0

>  <SCORE.RESTR.CAVITY>
0

>  <SCORE.RESTR.norm>
0

>  <SCORE.SYSTEM>
0

>  <SCORE.SYSTEM.CONST>
0

>  <SCORE.SYSTEM.DIHEDRAL>
0

>  <SCORE.SYSTEM.SOLV>
0

>  <SCORE.SYSTEM.norm>
0

>  <SCORE.heavy>
22

>  <SCORE.norm>
-0.710188

>  <RMSD>
3.394

$$$$
ligand
 OpenBabel11021811443D
libRbt.so/2013.1/901 2013/11/27
 22 23  0  0  0  0  0  0  0  0999 V2000
   19.8650   42.6956   65.2185 C   0  0  0  0  0  0  0  0  0  0  0  0
   25.0936   38.1174   68.6281 C   0  0  0  0  0  0  0  0  0  0  0  0
   30.0023   36.5577   65.0058 P   0  0  1  0  0  0  0  0  0  0  0  0
   20.3250   40.3615   64.9665 N   0  0  0  0  0  0  0  0  0  0  0  0
   30.2452   35.9832   66.3539 O   0  0  0  0  0  0  0  0  0  0  0  0
   26.4576   37.7664   64.8568 S   0  0  0  0  0  0  0  0  0  0  0  0
   24.7837   37.8016   64.9962 C   0  0  0  0  0  0  0  0  0  0  0  0
   20.6821   41.5400   65.5854 C   0  0  0  0  0  0  0  0  0  0  0  0
   31.2394   36.9229   64.2686 O   0  5  0  0  0  0  0  0  0  0  0  0
   24.3058   37.9201   66.2534 N   0  0  0  0  0  0  0  0  0  0  0  0
   21.6769   41.6461   66.4251 N   0  0  0  0  0  0  0  0  0  0  0  0
   29.0804   35.6770   64.2195 O   0  0  0  0  0  0  0  0  0  0  0  0
   25.3666   37.9861   67.1586 C   0  0  2  0  0  0  0  0  0  0  0  0
   22.4333   40.5258   66.7531 C   0  0  0  0  0  0  0  0  0  0  0  0
   23.4538   40.6570   67.5955 N   0  0  0  0  0  0  0  0  0  0  0  0
   26.6151   37.9128   66.5875 C   0  0  1  0  0  0  0  0  0  0  0  0
   22.0869   39.2404   66.1692 C   0  0  0  0  0  0  0  0  0  0  0  0
   27.9350   37.9361   67.2705 C   0  0  0  0  0  0  0  0  0  0  0  0
   21.0429   39.2495   65.2663 C   0  0  0  0  0  0  0  0  0  0  0  0
   28.9679   38.5832   66.4262 C   0  0  0  0  0  0  0  0  0  0  0  0
   22.8008   37.9677   66.5830 C   0  0  0  0  0  0  0  0  0  0  0  0
   29.2826   37.9469   65.1871 O   0  0  0  0  0  0  0  0  0  0  0  0
  1  8  1  0  0  0  0
  3  5  1  1  0  0  0
  3  9  1  0  0  0  0
  3 12  2  0  0  0  0
  3 22  1  0  0  0  0
  4  8  2  0  0  0  0
  4 19  1  0  0  0  0
  6 16  1  0  0  0  0
  6  7  1  0  0  0  0
  7 10  1  0  0  0  0
  8 11  1  0  0  0  0
 10 13  1  0  0  0  0
 10 21  1  0  0  0  0
 11 14  2  0  0  0  0
 13  2  1  1  0  0  0
 13 16  1  0  0  0  0
 14 15  1  0  0  0  0
 14 17  1  0  0  0  0
 16 18  1  1  0  0  0
 17 19  2  0  0  0  0
 17 21  1  0  0  0  0
 18 20  1  0  0  0  0
 20 22  1  0  0  0  0
M  CHG  1   9  -1
M  END
>  <CHROM.1>
-70.89934502,32.68462571,-63.73548512,-63.16016631,-67.89028563,2.63510847
25.65429027,38.46839335,65.85952585,3.02798885,-0.42634060,1.47573605

>  <Name>
ligand

>  <RI>
0

>  <Rbt.Current_Directory>
/home/itssahil/PROJECTS/Mol_Feturizer/New_Systems/rnas/2HOM

>  <Rbt.Executable>
rbdock ($Id: //depot/dev/client3/rdock/2013.1/src/exe/rbdock.cxx#4 $)

>  <Rbt.Library>
libRbt.so (2013.1, Build901 2013/11/27)

>  <Rbt.Parameter_File>
/export/apps/rDock/src/rDock_2013.1_src/data/scripts/dock_solv.prm

>  <Rbt.Receptor>
prm/pocket_docking_5.prm

>  <SCORE>
-18.7921

>  <SCORE.INTER>
-22.2046

>  <SCORE.INTER.CONST>
1

>  <SCORE.INTER.POLAR>
-1.30767

>  <SCORE.INTER.ROT>
6

>  <SCORE.INTER.SOLV>
15.392

>  <SCORE.INTER.VDW>
-23.1748

>  <SCORE.INTER.norm>
-1.0093

>  <SCORE.INTRA>
3.41243

>  <SCORE.INTRA.DIHEDRAL>
2.56914

>  <SCORE.INTRA.DIHEDRAL.0>
5.05013

>  <SCORE.INTRA.POLAR>
0

>  <SCORE.INTRA.POLAR.0>
0

>  <SCORE.INTRA.REPUL>
0

>  <SCORE.INTRA.REPUL.0>
0

>  <SCORE.INTRA.SOLV>
3.76829

>  <SCORE.INTRA.SOLV.lig_0>
-54.1265

>  <SCORE.INTRA.VDW>
0.243713

>  <SCORE.INTRA.VDW.0>
-2.1303

>  <SCORE.INTRA.norm>
0.15511

>  <SCORE.RESTR>
0

>  <SCORE.RESTR.CAVITY>
0

>  <SCORE.RESTR.norm>
0

>  <SCORE.SYSTEM>
0

>  <SCORE.SYSTEM.CONST>
0

>  <SCORE.SYSTEM.DIHEDRAL>
0

>  <SCORE.SYSTEM.SOLV>
0

>  <SCORE.SYSTEM.norm>
0

>  <SCORE.heavy>
22

>  <SCORE.norm>
-0.854188

>  <RMSD>
3.416

$$$$
ligand
 OpenBabel11021811443D
libRbt.so/2013.1/901 2013/11/27
 22 23  0  0  0  0  0  0  0  0999 V2000
   22.7217   45.9073   66.6926 C   0  0  0  0  0  0  0  0  0  0  0  0
   23.9983   40.7992   64.3323 C   0  0  0  0  0  0  0  0  0  0  0  0
   27.9052   38.6798   68.4589 P   0  0  1  0  0  0  0  0  0  0  0  0
   23.0471   43.5501   66.9398 N   0  0  0  0  0  0  0  0  0  0  0  0
   27.1921   37.7003   69.3182 O   0  0  0  0  0  0  0  0  0  0  0  0
   23.7073   37.3903   66.4540 S   0  0  0  0  0  0  0  0  0  0  0  0
   22.3179   38.3348   66.4513 C   0  0  0  0  0  0  0  0  0  0  0  0
   22.2575   44.5492   66.4129 C   0  0  0  0  0  0  0  0  0  0  0  0
   27.9980   40.0440   69.0400 O   0  5  0  0  0  0  0  0  0  0  0  0
   22.3946   39.4825   65.7441 N   0  0  0  0  0  0  0  0  0  0  0  0
   21.1680   44.3277   65.7274 N   0  0  0  0  0  0  0  0  0  0  0  0
   29.2280   38.1286   68.0229 O   0  0  0  0  0  0  0  0  0  0  0  0
   23.6615   39.6005   65.1694 C   0  0  2  0  0  0  0  0  0  0  0  0
   20.7557   43.0227   65.4786 C   0  0  0  0  0  0  0  0  0  0  0  0
   19.6338   42.8170   64.7949 N   0  0  0  0  0  0  0  0  0  0  0  0
   24.5177   38.5613   65.4472 C   0  0  1  0  0  0  0  0  0  0  0  0
   21.5631   41.9180   65.9693 C   0  0  0  0  0  0  0  0  0  0  0  0
   25.9275   38.3963   65.0061 C   0  0  0  0  0  0  0  0  0  0  0  0
   22.6725   42.2655   66.7136 C   0  0  0  0  0  0  0  0  0  0  0  0
   26.7957   37.9604   66.1261 C   0  0  0  0  0  0  0  0  0  0  0  0
   21.2254   40.4799   65.6251 C   0  0  0  0  0  0  0  0  0  0  0  0
   27.0434   38.9125   67.1612 O   0  0  0  0  0  0  0  0  0  0  0  0
  1  8  1  0  0  0  0
  3  5  1  1  0  0  0
  3  9  1  0  0  0  0
  3 12  2  0  0  0  0
  3 22  1  0  0  0  0
  4  8  2  0  0  0  0
  4 19  1  0  0  0  0
  6 16  1  0  0  0  0
  6  7  1  0  0  0  0
  7 10  1  0  0  0  0
  8 11  1  0  0  0  0
 10 13  1  0  0  0  0
 10 21  1  0  0  0  0
 11 14  2  0  0  0  0
 13  2  1  1  0  0  0
 13 16  1  0  0  0  0
 14 15  1  0  0  0  0
 14 17  1  0  0  0  0
 16 18  1  1  0  0  0
 17 19  2  0  0  0  0
 17 21  1  0  0  0  0
 18 20  1  0  0  0  0
 20 22  1  0  0  0  0
M  CHG  1   9  -1
M  END
>  <CHROM.1>
128.00085681,-44.84096315,158.18490903,-69.59163757,178.81460598,-67.84388521
24.31602952,40.26566092,66.57734919,-2.55991872,0.47670093,-2.92310969

>  <Name>
ligand

>  <RI>
0

>  <Rbt.Current_Directory>
/home/itssahil/PROJECTS/Mol_Feturizer/New_Systems/rnas/2HOM

>  <Rbt.Executable>
rbdock ($Id: //depot/dev/client3/rdock/2013.1/src/exe/rbdock.cxx#4 $)

>  <Rbt.Library>
libRbt.so (2013.1, Build901 2013/11/27)

>  <Rbt.Parameter_File>
/export/apps/rDock/src/rDock_2013.1_src/data/scripts/dock_solv.prm

>  <Rbt.Receptor>
prm/pocket_docking_7.prm

>  <SCORE>
-18.2923

>  <SCORE.INTER>
-19.0766

>  <SCORE.INTER.CONST>
1

>  <SCORE.INTER.POLAR>
-1.63459

>  <SCORE.INTER.ROT>
6

>  <SCORE.INTER.SOLV>
19.2488

>  <SCORE.INTER.VDW>
-21.2854

>  <SCORE.INTER.norm>
-0.867119

>  <SCORE.INTRA>
0.784363

>  <SCORE.INTRA.DIHEDRAL>
0.612312

>  <SCORE.INTRA.DIHEDRAL.0>
5.05013

>  <SCORE.INTRA.POLAR>
0

>  <SCORE.INTRA.POLAR.0>
0

>  <SCORE.INTRA.REPUL>
0

>  <SCORE.INTRA.REPUL.0>
0

>  <SCORE.INTRA.SOLV>
-0.030376

>  <SCORE.INTRA.SOLV.lig_0>
-54.1265

>  <SCORE.INTRA.VDW>
0.493395

>  <SCORE.INTRA.VDW.0>
-2.1303

>  <SCORE.INTRA.norm>
0.0356529

>  <SCORE.RESTR>
0

>  <SCORE.RESTR.CAVITY>
0

>  <SCORE.RESTR.norm>
0

>  <SCORE.SYSTEM>
0

>  <SCORE.SYSTEM.CONST>
0

>  <SCORE.SYSTEM.DIHEDRAL>
0

>  <SCORE.SYSTEM.SOLV>
0

>  <SCORE.SYSTEM.norm>
0

>  <SCORE.heavy>
22

>  <SCORE.norm>
-0.831466

>  <RMSD>
3.417

$$$$
ligand
 OpenBabel11021811443D
libRbt.so/2013.1/901 2013/11/27
 22 23  0  0  0  0  0  0  0  0999 V2000
   20.5491   44.0436   65.5426 C   0  0  0  0  0  0  0  0  0  0  0  0
   24.3543   39.0393   68.5227 C   0  0  0  0  0  0  0  0  0  0  0  0
   29.3769   36.7392   64.3192 P   0  0  1  0  0  0  0  0  0  0  0  0
   21.8640   42.4013   66.6814 N   0  0  0  0  0  0  0  0  0  0  0  0
   28.7263   35.4148   64.1491 O   0  0  0  0  0  0  0  0  0  0  0  0
   25.5749   37.6013   64.9661 S   0  0  0  0  0  0  0  0  0  0  0  0
   23.9165   37.8376   65.0946 C   0  0  0  0  0  0  0  0  0  0  0  0
   20.8384   42.6319   65.7902 C   0  0  0  0  0  0  0  0  0  0  0  0
   30.6623   36.6943   65.0628 O   0  5  0  0  0  0  0  0  0  0  0  0
   23.4867   38.3206   66.2800 N   0  0  0  0  0  0  0  0  0  0  0  0
   20.1534   41.6828   65.2107 N   0  0  0  0  0  0  0  0  0  0  0  0
   29.4767   37.4467   63.0026 O   0  0  0  0  0  0  0  0  0  0  0  0
   24.5732   38.5099   67.1359 C   0  0  2  0  0  0  0  0  0  0  0  0
   20.4560   40.3497   65.4679 C   0  0  0  0  0  0  0  0  0  0  0  0
   19.7355   39.3973   64.8830 N   0  0  0  0  0  0  0  0  0  0  0  0
   25.7929   38.1690   66.6006 C   0  0  1  0  0  0  0  0  0  0  0  0
   21.5536   40.0322   66.3666 C   0  0  0  0  0  0  0  0  0  0  0  0
   27.1271   38.2347   67.2523 C   0  0  0  0  0  0  0  0  0  0  0  0
   22.1847   41.1108   66.9529 C   0  0  0  0  0  0  0  0  0  0  0  0
   28.0916   37.3163   66.6007 C   0  0  0  0  0  0  0  0  0  0  0  0
   22.0027   38.6006   66.5888 C   0  0  0  0  0  0  0  0  0  0  0  0
   28.4641   37.6173   65.2554 O   0  0  0  0  0  0  0  0  0  0  0  0
  1  8  1  0  0  0  0
  3  5  1  6  0  0  0
  3  9  1  0  0  0  0
  3 12  2  0  0  0  0
  3 22  1  0  0  0  0
  4  8  2  0  0  0  0
  4 19  1  0  0  0  0
  6 16  1  0  0  0  0
  6  7  1  0  0  0  0
  7 10  1  0  0  0  0
  8 11  1  0  0  0  0
 10 13  1  0  0  0  0
 10 21  1  0  0  0  0
 11 14  2  0  0  0  0
 13  2  1  1  0  0  0
 13 16  1  0  0  0  0
 14 15  1  0  0  0  0
 14 17  1  0  0  0  0
 16 18  1  1  0  0  0
 17 19  2  0  0  0  0
 17 21  1  0  0  0  0
 18 20  1  0  0  0  0
 20 22  1  0  0  0  0
M  CHG  1   9  -1
M  END
>  <CHROM.1>
-95.26840570,-22.08268843,122.99534112,66.24427793,-174.93140676,60.27738228
24.97249011,38.79191119,65.64425728,2.98547707,-0.50357285,1.51918167

>  <Name>
ligand

>  <RI>
0

>  <Rbt.Current_Directory>
/home/itssahil/PROJECTS/Mol_Feturizer/New_Systems/rnas/2HOM

>  <Rbt.Executable>
rbdock ($Id: //depot/dev/client3/rdock/2013.1/src/exe/rbdock.cxx#4 $)

>  <Rbt.Library>
libRbt.so (2013.1, Build901 2013/11/27)

>  <Rbt.Parameter_File>
/export/apps/rDock/src/rDock_2013.1_src/data/scripts/dock_solv.prm

>  <Rbt.Receptor>
prm/pocket_docking_5.prm

>  <SCORE>
-13.7886

>  <SCORE.INTER>
-14.5432

>  <SCORE.INTER.CONST>
1

>  <SCORE.INTER.POLAR>
0

>  <SCORE.INTER.ROT>
6

>  <SCORE.INTER.SOLV>
17.1818

>  <SCORE.INTER.VDW>
-23.0228

>  <SCORE.INTER.norm>
-0.661056

>  <SCORE.INTRA>
0.754639

>  <SCORE.INTRA.DIHEDRAL>
0.0225503

>  <SCORE.INTRA.DIHEDRAL.0>
5.05013

>  <SCORE.INTRA.POLAR>
0

>  <SCORE.INTRA.POLAR.0>
0

>  <SCORE.INTRA.REPUL>
0

>  <SCORE.INTRA.REPUL.0>
0

>  <SCORE.INTRA.SOLV>
0.0463515

>  <SCORE.INTRA.SOLV.lig_0>
-54.1265

>  <SCORE.INTRA.VDW>
0.720188

>  <SCORE.INTRA.VDW.0>
-2.1303

>  <SCORE.INTRA.norm>
0.0343018

>  <SCORE.RESTR>
0

>  <SCORE.RESTR.CAVITY>
0

>  <SCORE.RESTR.norm>
0

>  <SCORE.SYSTEM>
0

>  <SCORE.SYSTEM.CONST>
0

>  <SCORE.SYSTEM.DIHEDRAL>
0

>  <SCORE.SYSTEM.SOLV>
0

>  <SCORE.SYSTEM.norm>
0

>  <SCORE.heavy>
22

>  <SCORE.norm>
-0.626754

>  <RMSD>
3.435

$$$$
ligand
 OpenBabel11021811443D
libRbt.so/2013.1/901 2013/11/27
 22 23  0  0  0  0  0  0  0  0999 V2000
   21.4103   44.0371   65.7297 C   0  0  0  0  0  0  0  0  0  0  0  0
   26.0168   37.7315   69.1218 C   0  0  0  0  0  0  0  0  0  0  0  0
   29.7965   39.8379   67.4214 P   0  0  1  0  0  0  0  0  0  0  0  0
   22.9886   42.8891   67.1133 N   0  0  0  0  0  0  0  0  0  0  0  0
   28.6207   39.6463   68.3086 O   0  0  0  0  0  0  0  0  0  0  0  0
   26.3758   38.2842   65.1503 S   0  0  0  0  0  0  0  0  0  0  0  0
   24.9652   38.9046   65.8196 C   0  0  0  0  0  0  0  0  0  0  0  0
   21.8902   42.7742   66.2890 C   0  0  0  0  0  0  0  0  0  0  0  0
   29.5297   40.6898   66.2339 O   0  5  0  0  0  0  0  0  0  0  0  0
   24.8261   38.7304   67.1512 N   0  0  0  0  0  0  0  0  0  0  0  0
   21.2970   41.6411   66.0242 N   0  0  0  0  0  0  0  0  0  0  0  0
   30.9856   40.2824   68.2164 O   0  0  0  0  0  0  0  0  0  0  0  0
   25.9351   38.0504   67.6579 C   0  0  2  0  0  0  0  0  0  0  0  0
   21.7807   40.4576   66.5722 C   0  0  0  0  0  0  0  0  0  0  0  0
   21.1524   39.3162   66.3063 N   0  0  0  0  0  0  0  0  0  0  0  0
   26.8835   37.7179   66.7197 C   0  0  1  0  0  0  0  0  0  0  0  0
   22.9618   40.4987   67.4185 C   0  0  0  0  0  0  0  0  0  0  0  0
   28.1584   36.9834   66.9301 C   0  0  0  0  0  0  0  0  0  0  0  0
   23.4857   41.7522   67.6629 C   0  0  0  0  0  0  0  0  0  0  0  0
   29.2542   37.5601   66.1145 C   0  0  0  0  0  0  0  0  0  0  0  0
   23.6009   39.2274   67.9437 C   0  0  0  0  0  0  0  0  0  0  0  0
   30.1567   38.4464   66.7773 O   0  0  0  0  0  0  0  0  0  0  0  0
  1  8  1  0  0  0  0
  3  5  1  1  0  0  0
  3  9  1  0  0  0  0
  3 12  2  0  0  0  0
  3 22  1  0  0  0  0
  4  8  2  0  0  0  0
  4 19  1  0  0  0  0
  6 16  1  0  0  0  0
  6  7  1  0  0  0  0
  7 10  1  0  0  0  0
  8 11  1  0  0  0  0
 10 13  1  0  0  0  0
 10 21  1  0  0  0  0
 11 14  2  0  0  0  0
 13  2  1  6  0  0  0
 13 16  1  0  0  0  0
 14 15  1  0  0  0  0
 14 17  1  0  0  0  0
 16 18  1  6  0  0  0
 17 19  2  0  0  0  0
 17 21  1  0  0  0  0
 18 20  1  0  0  0  0
 20 22  1  0  0  0  0
M  CHG  1   9  -1
M  END
>  <CHROM.1>
-32.24315144,39.99585389,98.57825040,99.44047418,-63.57220461,50.36182568
25.95907143,39.71171290,66.88493487,-2.80655142,0.10100982,-3.09174773

>  <Name>
ligand

>  <RI>
0

>  <Rbt.Current_Directory>
/home/itssahil/PROJECTS/Mol_Feturizer/New_Systems/rnas/2HOM

>  <Rbt.Executable>
rbdock ($Id: //depot/dev/client3/rdock/2013.1/src/exe/rbdock.cxx#4 $)

>  <Rbt.Library>
libRbt.so (2013.1, Build901 2013/11/27)

>  <Rbt.Parameter_File>
/export/apps/rDock/src/rDock_2013.1_src/data/scripts/dock_solv.prm

>  <Rbt.Receptor>
prm/pocket_docking_4.prm

>  <SCORE>
-16.0103

>  <SCORE.INTER>
-18.1252

>  <SCORE.INTER.CONST>
1

>  <SCORE.INTER.POLAR>
-2.49352

>  <SCORE.INTER.ROT>
6

>  <SCORE.INTER.SOLV>
17.8323

>  <SCORE.INTER.VDW>
-17.3158

>  <SCORE.INTER.norm>
-0.823874

>  <SCORE.INTRA>
2.11494

>  <SCORE.INTRA.DIHEDRAL>
4.12646

>  <SCORE.INTRA.DIHEDRAL.0>
5.05013

>  <SCORE.INTRA.POLAR>
0

>  <SCORE.INTRA.POLAR.0>
0

>  <SCORE.INTRA.REPUL>
0

>  <SCORE.INTRA.REPUL.0>
0

>  <SCORE.INTRA.SOLV>
0.907788

>  <SCORE.INTRA.SOLV.lig_0>
-54.1265

>  <SCORE.INTRA.VDW>
-0.402183

>  <SCORE.INTRA.VDW.0>
-2.1303

>  <SCORE.INTRA.norm>
0.0961337

>  <SCORE.RESTR>
0

>  <SCORE.RESTR.CAVITY>
0

>  <SCORE.RESTR.norm>
0

>  <SCORE.SYSTEM>
0

>  <SCORE.SYSTEM.CONST>
0

>  <SCORE.SYSTEM.DIHEDRAL>
0

>  <SCORE.SYSTEM.SOLV>
0

>  <SCORE.SYSTEM.norm>
0

>  <SCORE.heavy>
22

>  <SCORE.norm>
-0.72774

>  <RMSD>
3.441

$$$$
ligand
 OpenBabel11021811443D
libRbt.so/2013.1/901 2013/11/27
 22 23  0  0  0  0  0  0  0  0999 V2000
   20.5298   43.4747   65.5222 C   0  0  0  0  0  0  0  0  0  0  0  0
   26.6865   40.7424   67.4536 C   0  0  0  0  0  0  0  0  0  0  0  0
   29.0153   36.4027   66.6060 P   0  0  1  0  0  0  0  0  0  0  0  0
   22.4466   42.7960   66.7824 N   0  0  0  0  0  0  0  0  0  0  0  0
   28.5929   35.9627   65.2517 O   0  0  0  0  0  0  0  0  0  0  0  0
   26.2246   37.6577   64.9084 S   0  0  0  0  0  0  0  0  0  0  0  0
   24.8960   37.9604   65.8911 C   0  0  0  0  0  0  0  0  0  0  0  0
   21.3260   42.3885   66.0915 C   0  0  0  0  0  0  0  0  0  0  0  0
   27.9006   36.8756   67.4669 O   0  5  0  0  0  0  0  0  0  0  0  0
   25.0304   38.9921   66.7516 N   0  0  0  0  0  0  0  0  0  0  0  0
   20.9727   41.1386   65.9543 N   0  0  0  0  0  0  0  0  0  0  0  0
   29.8644   35.3540   67.2564 O   0  0  0  0  0  0  0  0  0  0  0  0
   26.2917   39.5718   66.6022 C   0  0  2  0  0  0  0  0  0  0  0  0
   21.7541   40.1297   66.5079 C   0  0  0  0  0  0  0  0  0  0  0  0
   21.3684   38.8642   66.3739 N   0  0  0  0  0  0  0  0  0  0  0  0
   27.0873   38.9795   65.6501 C   0  0  1  0  0  0  0  0  0  0  0  0
   22.9734   40.4845   67.2155 C   0  0  0  0  0  0  0  0  0  0  0  0
   28.4762   39.3431   65.2653 C   0  0  0  0  0  0  0  0  0  0  0  0
   23.2311   41.8355   67.3337 C   0  0  0  0  0  0  0  0  0  0  0  0
   29.4349   39.0392   66.3547 C   0  0  0  0  0  0  0  0  0  0  0  0
   23.9227   39.4213   67.7339 C   0  0  0  0  0  0  0  0  0  0  0  0
   29.9038   37.6935   66.4473 O   0  0  0  0  0  0  0  0  0  0  0  0
  1  8  1  0  0  0  0
  3  5  1  6  0  0  0
  3  9  1  0  0  0  0
  3 12  2  0  0  0  0
  3 22  1  0  0  0  0
  4  8  2  0  0  0  0
  4 19  1  0  0  0  0
  6 16  1  0  0  0  0
  6  7  1  0  0  0  0
  7 10  1  0  0  0  0
  8 11  1  0  0  0  0
 10 13  1  0  0  0  0
 10 21  1  0  0  0  0
 11 14  2  0  0  0  0
 13  2  1  1  0  0  0
 13 16  1  0  0  0  0
 14 15  1  0  0  0  0
 14 17  1  0  0  0  0
 16 18  1  1  0  0  0
 17 19  2  0  0  0  0
 17 21  1  0  0  0  0
 18 20  1  0  0  0  0
 20 22  1  0  0  0  0
M  CHG  1   9  -1
M  END
>  <CHROM.1>
-91.64560555,-110.99439154,90.17320675,82.70680951,-56.90528741,85.64005768
25.72455605,39.00245849,66.35903072,-2.56823232,0.07810268,-3.01462134

>  <Name>
ligand

>  <RI>
0

>  <Rbt.Current_Directory>
/home/itssahil/PROJECTS/Mol_Feturizer/New_Systems/rnas/2HOM

>  <Rbt.Executable>
rbdock ($Id: //depot/dev/client3/rdock/2013.1/src/exe/rbdock.cxx#4 $)

>  <Rbt.Library>
libRbt.so (2013.1, Build901 2013/11/27)

>  <Rbt.Parameter_File>
/export/apps/rDock/src/rDock_2013.1_src/data/scripts/dock_solv.prm

>  <Rbt.Receptor>
prm/pocket_docking_5.prm

>  <SCORE>
-16.426

>  <SCORE.INTER>
-18.0553

>  <SCORE.INTER.CONST>
1

>  <SCORE.INTER.POLAR>
-1.79195

>  <SCORE.INTER.ROT>
6

>  <SCORE.INTER.SOLV>
15.6099

>  <SCORE.INTER.VDW>
-18.867

>  <SCORE.INTER.norm>
-0.820694

>  <SCORE.INTRA>
1.62925

>  <SCORE.INTRA.DIHEDRAL>
2.08391

>  <SCORE.INTRA.DIHEDRAL.0>
5.05013

>  <SCORE.INTRA.POLAR>
0

>  <SCORE.INTRA.POLAR.0>
0

>  <SCORE.INTRA.REPUL>
0

>  <SCORE.INTRA.REPUL.0>
0

>  <SCORE.INTRA.SOLV>
3.4984

>  <SCORE.INTRA.SOLV.lig_0>
-54.1265

>  <SCORE.INTRA.VDW>
-1.1619

>  <SCORE.INTRA.VDW.0>
-2.1303

>  <SCORE.INTRA.norm>
0.0740569

>  <SCORE.RESTR>
0

>  <SCORE.RESTR.CAVITY>
0

>  <SCORE.RESTR.norm>
0

>  <SCORE.SYSTEM>
0

>  <SCORE.SYSTEM.CONST>
0

>  <SCORE.SYSTEM.DIHEDRAL>
0

>  <SCORE.SYSTEM.SOLV>
0

>  <SCORE.SYSTEM.norm>
0

>  <SCORE.heavy>
22

>  <SCORE.norm>
-0.746637

>  <RMSD>
3.479

$$$$
ligand
 OpenBabel11021811443D
libRbt.so/2013.1/901 2013/11/27
 22 23  0  0  0  0  0  0  0  0999 V2000
   22.5428   45.8052   66.4518 C   0  0  0  0  0  0  0  0  0  0  0  0
   22.5084   39.9542   68.2425 C   0  0  0  0  0  0  0  0  0  0  0  0
   28.2204   38.0216   66.3531 P   0  0  1  0  0  0  0  0  0  0  0  0
   23.0291   43.4629   66.4679 N   0  0  0  0  0  0  0  0  0  0  0  0
   28.3263   39.5006   66.2653 O   0  0  0  0  0  0  0  0  0  0  0  0
   23.8287   37.4133   65.4128 S   0  0  0  0  0  0  0  0  0  0  0  0
   22.6119   38.4552   64.9065 C   0  0  0  0  0  0  0  0  0  0  0  0
   22.0778   44.4346   66.2441 C   0  0  0  0  0  0  0  0  0  0  0  0
   28.3756   37.3226   65.0513 O   0  5  0  0  0  0  0  0  0  0  0  0
   22.1558   39.3166   65.8409 N   0  0  0  0  0  0  0  0  0  0  0  0
   20.8475   44.1775   65.8888 N   0  0  0  0  0  0  0  0  0  0  0  0
   29.1270   37.4941   67.4224 O   0  0  0  0  0  0  0  0  0  0  0  0
   22.8382   39.1164   67.0423 C   0  0  2  0  0  0  0  0  0  0  0  0
   20.4386   42.8616   65.6986 C   0  0  0  0  0  0  0  0  0  0  0  0
   19.1772   42.6184   65.3551 N   0  0  0  0  0  0  0  0  0  0  0  0
   23.7838   38.1190   67.0070 C   0  0  1  0  0  0  0  0  0  0  0  0
   21.4012   41.7870   65.8770 C   0  0  0  0  0  0  0  0  0  0  0  0
   24.6595   37.6508   68.1130 C   0  0  0  0  0  0  0  0  0  0  0  0
   22.6620   42.1686   66.2897 C   0  0  0  0  0  0  0  0  0  0  0  0
   26.0547   38.1186   67.9313 C   0  0  0  0  0  0  0  0  0  0  0  0
   21.0420   40.3464   65.5670 C   0  0  0  0  0  0  0  0  0  0  0  0
   26.7449   37.6594   66.7685 O   0  0  0  0  0  0  0  0  0  0  0  0
  1  8  1  0  0  0  0
  3  5  1  6  0  0  0
  3  9  1  0  0  0  0
  3 12  2  0  0  0  0
  3 22  1  0  0  0  0
  4  8  2  0  0  0  0
  4 19  1  0  0  0  0
  6 16  1  0  0  0  0
  6  7  1  0  0  0  0
  7 10  1  0  0  0  0
  8 11  1  0  0  0  0
 10 13  1  0  0  0  0
 10 21  1  0  0  0  0
 11 14  2  0  0  0  0
 13  2  1  1  0  0  0
 13 16  1  0  0  0  0
 14 15  1  0  0  0  0
 14 17  1  0  0  0  0
 16 18  1  1  0  0  0
 17 19  2  0  0  0  0
 17 21  1  0  0  0  0
 18 20  1  0  0  0  0
 20 22  1  0  0  0  0
M  CHG  1   9  -1
M  END
>  <CHROM.1>
-124.95700415,74.93630488,-178.48584854,-62.39737777,179.59694143,-56.47489649
24.13304590,39.93232190,66.33576900,-2.43906377,0.11060443,-3.10519640

>  <Name>
ligand

>  <RI>
0

>  <Rbt.Current_Directory>
/home/itssahil/PROJECTS/Mol_Feturizer/New_Systems/rnas/2HOM

>  <Rbt.Executable>
rbdock ($Id: //depot/dev/client3/rdock/2013.1/src/exe/rbdock.cxx#4 $)

>  <Rbt.Library>
libRbt.so (2013.1, Build901 2013/11/27)

>  <Rbt.Parameter_File>
/export/apps/rDock/src/rDock_2013.1_src/data/scripts/dock_solv.prm

>  <Rbt.Receptor>
prm/pocket_docking_5.prm

>  <SCORE>
-22.1312

>  <SCORE.INTER>
-22.6306

>  <SCORE.INTER.CONST>
1

>  <SCORE.INTER.POLAR>
-1.63459

>  <SCORE.INTER.ROT>
6

>  <SCORE.INTER.SOLV>
19.9924

>  <SCORE.INTER.VDW>
-23.9026

>  <SCORE.INTER.norm>
-1.02866

>  <SCORE.INTRA>
0.499373

>  <SCORE.INTRA.DIHEDRAL>
0.064145

>  <SCORE.INTRA.DIHEDRAL.0>
5.05013

>  <SCORE.INTRA.POLAR>
0

>  <SCORE.INTRA.POLAR.0>
0

>  <SCORE.INTRA.REPUL>
0

>  <SCORE.INTRA.REPUL.0>
0

>  <SCORE.INTRA.SOLV>
-0.119756

>  <SCORE.INTRA.SOLV.lig_0>
-54.1265

>  <SCORE.INTRA.VDW>
0.527179

>  <SCORE.INTRA.VDW.0>
-2.1303

>  <SCORE.INTRA.norm>
0.0226988

>  <SCORE.RESTR>
0

>  <SCORE.RESTR.CAVITY>
0

>  <SCORE.RESTR.norm>
0

>  <SCORE.SYSTEM>
0

>  <SCORE.SYSTEM.CONST>
0

>  <SCORE.SYSTEM.DIHEDRAL>
0

>  <SCORE.SYSTEM.SOLV>
0

>  <SCORE.SYSTEM.norm>
0

>  <SCORE.heavy>
22

>  <SCORE.norm>
-1.00596

>  <RMSD>
3.483

$$$$
ligand
 OpenBabel11021811443D
libRbt.so/2013.1/901 2013/11/27
 22 23  0  0  0  0  0  0  0  0999 V2000
   22.7102   45.7872   66.8078 C   0  0  0  0  0  0  0  0  0  0  0  0
   24.0021   40.7118   64.4069 C   0  0  0  0  0  0  0  0  0  0  0  0
   27.6484   37.6789   68.6207 P   0  0  1  0  0  0  0  0  0  0  0  0
   22.9969   43.4190   66.9884 N   0  0  0  0  0  0  0  0  0  0  0  0
   27.3541   38.9353   69.3563 O   0  0  0  0  0  0  0  0  0  0  0  0
   23.5290   37.2523   66.4106 S   0  0  0  0  0  0  0  0  0  0  0  0
   22.1615   38.2271   66.3627 C   0  0  0  0  0  0  0  0  0  0  0  0
   22.2325   44.4454   66.4771 C   0  0  0  0  0  0  0  0  0  0  0  0
   29.0144   37.6204   68.0394 O   0  5  0  0  0  0  0  0  0  0  0  0
   22.2992   39.3920   65.6941 N   0  0  0  0  0  0  0  0  0  0  0  0
   21.1541   44.2613   65.7635 N   0  0  0  0  0  0  0  0  0  0  0  0
   27.3095   36.4873   69.4627 O   0  0  0  0  0  0  0  0  0  0  0  0
   23.5968   39.4979   65.1901 C   0  0  2  0  0  0  0  0  0  0  0  0
   20.7284   42.9708   65.4662 C   0  0  0  0  0  0  0  0  0  0  0  0
   19.6179   42.8029   64.7543 N   0  0  0  0  0  0  0  0  0  0  0  0
   24.4155   38.4327   65.4820 C   0  0  1  0  0  0  0  0  0  0  0  0
   21.5098   41.8397   65.9384 C   0  0  0  0  0  0  0  0  0  0  0  0
   25.8429   38.2489   65.1105 C   0  0  0  0  0  0  0  0  0  0  0  0
   22.6087   42.1476   66.7151 C   0  0  0  0  0  0  0  0  0  0  0  0
   26.7403   38.5484   66.2521 C   0  0  0  0  0  0  0  0  0  0  0  0
   21.1587   40.4181   65.5432 C   0  0  0  0  0  0  0  0  0  0  0  0
   26.7254   37.6297   67.3453 O   0  0  0  0  0  0  0  0  0  0  0  0
  1  8  1  0  0  0  0
  3  5  1  1  0  0  0
  3  9  1  0  0  0  0
  3 12  2  0  0  0  0
  3 22  1  0  0  0  0
  4  8  2  0  0  0  0
  4 19  1  0  0  0  0
  6 16  1  0  0  0  0
  6  7  1  0  0  0  0
  7 10  1  0  0  0  0
  8 11  1  0  0  0  0
 10 13  1  0  0  0  0
 10 21  1  0  0  0  0
 11 14  2  0  0  0  0
 13  2  1  1  0  0  0
 13 16  1  0  0  0  0
 14 15  1  0  0  0  0
 14 17  1  0  0  0  0
 16 18  1  1  0  0  0
 17 19  2  0  0  0  0
 17 21  1  0  0  0  0
 18 20  1  0  0  0  0
 20 22  1  0  0  0  0
M  CHG  1   9  -1
M  END
>  <CHROM.1>
128.34773626,-78.16082508,159.91712413,69.80203932,175.79535987,62.95262969
24.19227379,39.93684864,66.63312278,-2.49009440,0.53164676,-2.92887078

>  <Name>
ligand

>  <RI>
0

>  <Rbt.Current_Directory>
/home/itssahil/PROJECTS/Mol_Feturizer/New_Systems/rnas/2HOM

>  <Rbt.Executable>
rbdock ($Id: //depot/dev/client3/rdock/2013.1/src/exe/rbdock.cxx#4 $)

>  <Rbt.Library>
libRbt.so (2013.1, Build901 2013/11/27)

>  <Rbt.Parameter_File>
/export/apps/rDock/src/rDock_2013.1_src/data/scripts/dock_solv.prm

>  <Rbt.Receptor>
prm/pocket_docking_5.prm

>  <SCORE>
-20.4863

>  <SCORE.INTER>
-20.9779

>  <SCORE.INTER.CONST>
1

>  <SCORE.INTER.POLAR>
-1.63459

>  <SCORE.INTER.ROT>
6

>  <SCORE.INTER.SOLV>
18.9532

>  <SCORE.INTER.VDW>
-22.4544

>  <SCORE.INTER.norm>
-0.953543

>  <SCORE.INTRA>
0.491612

>  <SCORE.INTRA.DIHEDRAL>
0.507704

>  <SCORE.INTRA.DIHEDRAL.0>
5.05013

>  <SCORE.INTRA.POLAR>
0

>  <SCORE.INTRA.POLAR.0>
0

>  <SCORE.INTRA.REPUL>
0

>  <SCORE.INTRA.REPUL.0>
0

>  <SCORE.INTRA.SOLV>
-0.00631346

>  <SCORE.INTRA.SOLV.lig_0>
-54.1265

>  <SCORE.INTRA.VDW>
0.240917

>  <SCORE.INTRA.VDW.0>
-2.1303

>  <SCORE.INTRA.norm>
0.022346

>  <SCORE.RESTR>
0

>  <SCORE.RESTR.CAVITY>
0

>  <SCORE.RESTR.norm>
0

>  <SCORE.SYSTEM>
0

>  <SCORE.SYSTEM.CONST>
0

>  <SCORE.SYSTEM.DIHEDRAL>
0

>  <SCORE.SYSTEM.SOLV>
0

>  <SCORE.SYSTEM.norm>
0

>  <SCORE.heavy>
22

>  <SCORE.norm>
-0.931197

>  <RMSD>
3.494

$$$$
ligand
 OpenBabel11021811443D
libRbt.so/2013.1/901 2013/11/27
 22 23  0  0  0  0  0  0  0  0999 V2000
   22.1180   45.4852   66.4829 C   0  0  0  0  0  0  0  0  0  0  0  0
   22.3771   39.6879   68.0025 C   0  0  0  0  0  0  0  0  0  0  0  0
   28.3331   38.8938   67.2079 P   0  0  1  0  0  0  0  0  0  0  0  0
   20.6802   43.6310   66.0159 N   0  0  0  0  0  0  0  0  0  0  0  0
   28.1845   40.3073   67.6397 O   0  0  0  0  0  0  0  0  0  0  0  0
   24.2879   37.2787   65.4042 S   0  0  0  0  0  0  0  0  0  0  0  0
   23.0760   38.2225   64.7237 C   0  0  0  0  0  0  0  0  0  0  0  0
   21.9801   44.0812   66.0985 C   0  0  0  0  0  0  0  0  0  0  0  0
   28.7087   38.7306   65.7798 O   0  5  0  0  0  0  0  0  0  0  0  0
   22.4234   39.0386   65.5787 N   0  0  0  0  0  0  0  0  0  0  0  0
   23.0233   43.3375   65.8440 N   0  0  0  0  0  0  0  0  0  0  0  0
   29.2328   38.1510   68.1474 O   0  0  0  0  0  0  0  0  0  0  0  0
   22.9412   38.8867   66.8663 C   0  0  2  0  0  0  0  0  0  0  0  0
   22.8561   42.0048   65.4820 C   0  0  0  0  0  0  0  0  0  0  0  0
   23.9290   41.2684   65.2085 N   0  0  0  0  0  0  0  0  0  0  0  0
   23.9593   37.9688   66.9718 C   0  0  1  0  0  0  0  0  0  0  0  0
   21.5138   41.4510   65.4150 C   0  0  0  0  0  0  0  0  0  0  0  0
   24.7030   37.5658   68.1940 C   0  0  0  0  0  0  0  0  0  0  0  0
   20.4833   42.3346   65.6661 C   0  0  0  0  0  0  0  0  0  0  0  0
   25.9656   38.3304   68.3339 C   0  0  0  0  0  0  0  0  0  0  0  0
   21.2809   39.9772   65.1430 C   0  0  0  0  0  0  0  0  0  0  0  0
   26.9164   38.2089   67.2753 O   0  0  0  0  0  0  0  0  0  0  0  0
  1  8  1  0  0  0  0
  3  5  1  1  0  0  0
  3  9  1  0  0  0  0
  3 12  2  0  0  0  0
  3 22  1  0  0  0  0
  4  8  2  0  0  0  0
  4 19  1  0  0  0  0
  6 16  1  0  0  0  0
  6  7  1  0  0  0  0
  7 10  1  0  0  0  0
  8 11  1  0  0  0  0
 10 13  1  0  0  0  0
 10 21  1  0  0  0  0
 11 14  2  0  0  0  0
 13  2  1  1  0  0  0
 13 16  1  0  0  0  0
 14 15  1  0  0  0  0
 14 17  1  0  0  0  0
 16 18  1  1  0  0  0
 17 19  2  0  0  0  0
 17 21  1  0  0  0  0
 18 20  1  0  0  0  0
 20 22  1  0  0  0  0
M  CHG  1   9  -1
M  END
>  <CHROM.1>
-121.28157022,85.09651331,27.04286390,-59.75775143,-178.64210312,-44.24141614
24.42752854,39.95905640,66.46087707,-2.54118886,0.25713493,-3.09113458

>  <Name>
ligand

>  <RI>
0

>  <Rbt.Current_Directory>
/home/itssahil/PROJECTS/Mol_Feturizer/New_Systems/rnas/2HOM

>  <Rbt.Executable>
rbdock ($Id: //depot/dev/client3/rdock/2013.1/src/exe/rbdock.cxx#4 $)

>  <Rbt.Library>
libRbt.so (2013.1, Build901 2013/11/27)

>  <Rbt.Parameter_File>
/export/apps/rDock/src/rDock_2013.1_src/data/scripts/dock_solv.prm

>  <Rbt.Receptor>
prm/pocket_docking_3.prm

>  <SCORE>
-20.1186

>  <SCORE.INTER>
-22.0182

>  <SCORE.INTER.CONST>
1

>  <SCORE.INTER.POLAR>
-1.63459

>  <SCORE.INTER.ROT>
6

>  <SCORE.INTER.SOLV>
9.06224

>  <SCORE.INTER.VDW>
-19.8509

>  <SCORE.INTER.norm>
-1.00083

>  <SCORE.INTRA>
1.17831

>  <SCORE.INTRA.DIHEDRAL>
0.402102

>  <SCORE.INTRA.DIHEDRAL.0>
5.05013

>  <SCORE.INTRA.POLAR>
0

>  <SCORE.INTRA.POLAR.0>
0

>  <SCORE.INTRA.REPUL>
0

>  <SCORE.INTRA.REPUL.0>
0

>  <SCORE.INTRA.SOLV>
3.68576

>  <SCORE.INTRA.SOLV.lig_0>
-54.1265

>  <SCORE.INTRA.VDW>
-0.865614

>  <SCORE.INTRA.VDW.0>
-2.1303

>  <SCORE.INTRA.norm>
0.0535598

>  <SCORE.RESTR>
0.72137

>  <SCORE.RESTR.CAVITY>
0.72137

>  <SCORE.RESTR.norm>
0.0327895

>  <SCORE.SYSTEM>
0

>  <SCORE.SYSTEM.CONST>
0

>  <SCORE.SYSTEM.DIHEDRAL>
0

>  <SCORE.SYSTEM.SOLV>
0

>  <SCORE.SYSTEM.norm>
0

>  <SCORE.heavy>
22

>  <SCORE.norm>
-0.91448

>  <RMSD>
3.500

$$$$
ligand
 OpenBabel11021811443D
libRbt.so/2013.1/901 2013/11/27
 22 23  0  0  0  0  0  0  0  0999 V2000
   21.0427   43.7094   65.6190 C   0  0  0  0  0  0  0  0  0  0  0  0
   25.4176   37.5484   68.8369 C   0  0  0  0  0  0  0  0  0  0  0  0
   29.1535   39.7375   69.5199 P   0  0  1  0  0  0  0  0  0  0  0  0
   22.2825   42.2859   67.0886 N   0  0  0  0  0  0  0  0  0  0  0  0
   30.0212   39.6554   70.7227 O   0  0  0  0  0  0  0  0  0  0  0  0
   26.5659   38.3144   65.0552 S   0  0  0  0  0  0  0  0  0  0  0  0
   24.9418   38.6098   65.3679 C   0  0  0  0  0  0  0  0  0  0  0  0
   21.4952   42.3615   65.9600 C   0  0  0  0  0  0  0  0  0  0  0  0
   27.7805   39.2078   69.7233 O   0  5  0  0  0  0  0  0  0  0  0  0
   24.5367   38.3600   66.6314 N   0  0  0  0  0  0  0  0  0  0  0  0
   21.1534   41.3247   65.2429 N   0  0  0  0  0  0  0  0  0  0  0  0
   29.1776   41.1226   68.9502 O   0  0  0  0  0  0  0  0  0  0  0  0
   25.6137   37.9001   67.3915 C   0  0  2  0  0  0  0  0  0  0  0  0
   21.6027   40.0563   65.5951 C   0  0  0  0  0  0  0  0  0  0  0  0
   21.2290   39.0104   64.8637 N   0  0  0  0  0  0  0  0  0  0  0  0
   26.8014   37.8031   66.7058 C   0  0  1  0  0  0  0  0  0  0  0  0
   22.4714   39.9071   66.7510 C   0  0  0  0  0  0  0  0  0  0  0  0
   28.1160   37.3349   67.2174 C   0  0  0  0  0  0  0  0  0  0  0  0
   22.7381   41.0622   67.4584 C   0  0  0  0  0  0  0  0  0  0  0  0
   29.1255   38.4204   67.1843 C   0  0  0  0  0  0  0  0  0  0  0  0
   23.0858   38.5674   67.1088 C   0  0  0  0  0  0  0  0  0  0  0  0
   29.7408   38.7698   68.4247 O   0  0  0  0  0  0  0  0  0  0  0  0
  1  8  1  0  0  0  0
  3  5  1  1  0  0  0
  3  9  1  0  0  0  0
  3 12  2  0  0  0  0
  3 22  1  0  0  0  0
  4  8  2  0  0  0  0
  4 19  1  0  0  0  0
  6 16  1  0  0  0  0
  6  7  1  0  0  0  0
  7 10  1  0  0  0  0
  8 11  1  0  0  0  0
 10 13  1  0  0  0  0
 10 21  1  0  0  0  0
 11 14  2  0  0  0  0
 13  2  1  6  0  0  0
 13 16  1  0  0  0  0
 14 15  1  0  0  0  0
 14 17  1  0  0  0  0
 16 18  1  6  0  0  0
 17 19  2  0  0  0  0
 17 21  1  0  0  0  0
 18 20  1  0  0  0  0
 20 22  1  0  0  0  0
M  CHG  1   9  -1
M  END
>  <CHROM.1>
-49.00756654,64.39506698,98.02486777,121.84758450,-82.91103226,171.70343500
25.60272537,39.53818264,67.24495475,3.13113287,0.45864082,-2.55319386

>  <Name>
ligand

>  <RI>
0

>  <Rbt.Current_Directory>
/home/itssahil/PROJECTS/Mol_Feturizer/New_Systems/rnas/2HOM

>  <Rbt.Executable>
rbdock ($Id: //depot/dev/client3/rdock/2013.1/src/exe/rbdock.cxx#4 $)

>  <Rbt.Library>
libRbt.so (2013.1, Build901 2013/11/27)

>  <Rbt.Parameter_File>
/export/apps/rDock/src/rDock_2013.1_src/data/scripts/dock_solv.prm

>  <Rbt.Receptor>
prm/pocket_docking_4.prm

>  <SCORE>
-13.2408

>  <SCORE.INTER>
-18.6161

>  <SCORE.INTER.CONST>
1

>  <SCORE.INTER.POLAR>
-2.47839

>  <SCORE.INTER.ROT>
6

>  <SCORE.INTER.SOLV>
19.6445

>  <SCORE.INTER.VDW>
-18.2976

>  <SCORE.INTER.norm>
-0.846184

>  <SCORE.INTRA>
5.37523

>  <SCORE.INTRA.DIHEDRAL>
7.93351

>  <SCORE.INTRA.DIHEDRAL.0>
5.05013

>  <SCORE.INTRA.POLAR>
0

>  <SCORE.INTRA.POLAR.0>
0

>  <SCORE.INTRA.REPUL>
0

>  <SCORE.INTRA.REPUL.0>
0

>  <SCORE.INTRA.SOLV>
3.30208

>  <SCORE.INTRA.SOLV.lig_0>
-54.1265

>  <SCORE.INTRA.VDW>
-0.242568

>  <SCORE.INTRA.VDW.0>
-2.1303

>  <SCORE.INTRA.norm>
0.244328

>  <SCORE.RESTR>
0

>  <SCORE.RESTR.CAVITY>
0

>  <SCORE.RESTR.norm>
0

>  <SCORE.SYSTEM>
0

>  <SCORE.SYSTEM.CONST>
0

>  <SCORE.SYSTEM.DIHEDRAL>
0

>  <SCORE.SYSTEM.SOLV>
0

>  <SCORE.SYSTEM.norm>
0

>  <SCORE.heavy>
22

>  <SCORE.norm>
-0.601856

>  <RMSD>
3.520

$$$$
ligand
 OpenBabel11021811443D
libRbt.so/2013.1/901 2013/11/27
 22 23  0  0  0  0  0  0  0  0999 V2000
   21.1957   44.2165   65.8261 C   0  0  0  0  0  0  0  0  0  0  0  0
   23.9526   37.6148   67.5100 C   0  0  0  0  0  0  0  0  0  0  0  0
   29.0569   39.6650   69.5094 P   0  0  1  0  0  0  0  0  0  0  0  0
   23.0605   42.7747   65.4175 N   0  0  0  0  0  0  0  0  0  0  0  0
   29.4639   39.3486   70.9025 O   0  0  0  0  0  0  0  0  0  0  0  0
   27.3727   38.6841   65.6752 S   0  0  0  0  0  0  0  0  0  0  0  0
   25.9726   39.0943   64.8421 C   0  0  0  0  0  0  0  0  0  0  0  0
   21.6996   42.8599   65.6177 C   0  0  0  0  0  0  0  0  0  0  0  0
   29.1959   41.0988   69.1462 O   0  5  0  0  0  0  0  0  0  0  0  0
   24.8142   38.7451   65.4414 N   0  0  0  0  0  0  0  0  0  0  0  0
   20.9031   41.8249   65.6393 N   0  0  0  0  0  0  0  0  0  0  0  0
   29.7311   38.7395   68.5438 O   0  0  0  0  0  0  0  0  0  0  0  0
   25.0823   38.1046   66.6526 C   0  0  2  0  0  0  0  0  0  0  0  0
   21.4158   40.5479   65.4361 C   0  0  0  0  0  0  0  0  0  0  0  0
   20.5924   39.5046   65.4803 N   0  0  0  0  0  0  0  0  0  0  0  0
   26.4181   37.9731   66.9499 C   0  0  1  0  0  0  0  0  0  0  0  0
   22.8372   40.3871   65.1777 C   0  0  0  0  0  0  0  0  0  0  0  0
   27.0297   37.3295   68.1419 C   0  0  0  0  0  0  0  0  0  0  0  0
   23.5918   41.5424   65.2149 C   0  0  0  0  0  0  0  0  0  0  0  0
   26.8440   38.1582   69.3573 C   0  0  0  0  0  0  0  0  0  0  0  0
   23.4282   39.0338   64.8316 C   0  0  0  0  0  0  0  0  0  0  0  0
   27.5054   39.4235   69.3850 O   0  0  0  0  0  0  0  0  0  0  0  0
  1  8  1  0  0  0  0
  3  5  1  1  0  0  0
  3  9  1  0  0  0  0
  3 12  2  0  0  0  0
  3 22  1  0  0  0  0
  4  8  2  0  0  0  0
  4 19  1  0  0  0  0
  6 16  1  0  0  0  0
  6  7  1  0  0  0  0
  7 10  1  0  0  0  0
  8 11  1  0  0  0  0
 10 13  1  0  0  0  0
 10 21  1  0  0  0  0
 11 14  2  0  0  0  0
 13  2  1  6  0  0  0
 13 16  1  0  0  0  0
 14 15  1  0  0  0  0
 14 17  1  0  0  0  0
 16 18  1  6  0  0  0
 17 19  2  0  0  0  0
 17 21  1  0  0  0  0
 18 20  1  0  0  0  0
 20 22  1  0  0  0  0
M  CHG  1   9  -1
M  END
>  <CHROM.1>
-87.80909311,108.11473731,-141.86046289,-65.65007327,-70.29027405,-72.62031199
25.50292235,39.76986003,67.02895996,-3.04411390,0.55991396,-2.75959723

>  <Name>
ligand

>  <RI>
0

>  <Rbt.Current_Directory>
/home/itssahil/PROJECTS/Mol_Feturizer/New_Systems/rnas/2HOM

>  <Rbt.Executable>
rbdock ($Id: //depot/dev/client3/rdock/2013.1/src/exe/rbdock.cxx#4 $)

>  <Rbt.Library>
libRbt.so (2013.1, Build901 2013/11/27)

>  <Rbt.Parameter_File>
/export/apps/rDock/src/rDock_2013.1_src/data/scripts/dock_solv.prm

>  <Rbt.Receptor>
prm/pocket_docking_8.prm

>  <SCORE>
-17.8416

>  <SCORE.INTER>
-18.3302

>  <SCORE.INTER.CONST>
1

>  <SCORE.INTER.POLAR>
-2.82044

>  <SCORE.INTER.ROT>
6

>  <SCORE.INTER.SOLV>
17.7837

>  <SCORE.INTER.VDW>
-16.3465

>  <SCORE.INTER.norm>
-0.83319

>  <SCORE.INTRA>
0.4886

>  <SCORE.INTRA.DIHEDRAL>
0.393633

>  <SCORE.INTRA.DIHEDRAL.0>
5.05013

>  <SCORE.INTRA.POLAR>
0

>  <SCORE.INTRA.POLAR.0>
0

>  <SCORE.INTRA.REPUL>
0

>  <SCORE.INTRA.REPUL.0>
0

>  <SCORE.INTRA.SOLV>
1.81551

>  <SCORE.INTRA.SOLV.lig_0>
-54.1265

>  <SCORE.INTRA.VDW>
-0.615971

>  <SCORE.INTRA.VDW.0>
-2.1303

>  <SCORE.INTRA.norm>
0.0222091

>  <SCORE.RESTR>
0

>  <SCORE.RESTR.CAVITY>
0

>  <SCORE.RESTR.norm>
0

>  <SCORE.SYSTEM>
0

>  <SCORE.SYSTEM.CONST>
0

>  <SCORE.SYSTEM.DIHEDRAL>
0

>  <SCORE.SYSTEM.SOLV>
0

>  <SCORE.SYSTEM.norm>
0

>  <SCORE.heavy>
22

>  <SCORE.norm>
-0.810981

>  <RMSD>
3.525

$$$$
ligand
 OpenBabel11021811443D
libRbt.so/2013.1/901 2013/11/27
 22 23  0  0  0  0  0  0  0  0999 V2000
   20.3565   43.0542   65.3788 C   0  0  0  0  0  0  0  0  0  0  0  0
   24.6769   38.5949   68.3378 C   0  0  0  0  0  0  0  0  0  0  0  0
   27.7006   42.3714   67.7250 P   0  0  1  0  0  0  0  0  0  0  0  0
   20.2444   40.6975   65.7745 N   0  0  0  0  0  0  0  0  0  0  0  0
   28.7999   42.6605   68.6811 O   0  0  0  0  0  0  0  0  0  0  0  0
   26.7730   37.6884   65.0225 S   0  0  0  0  0  0  0  0  0  0  0  0
   25.1045   37.6265   64.8355 C   0  0  0  0  0  0  0  0  0  0  0  0
   21.0530   41.7721   65.4734 C   0  0  0  0  0  0  0  0  0  0  0  0
   26.4015   42.9957   68.0854 O   0  5  0  0  0  0  0  0  0  0  0  0
   24.3830   37.9284   65.9361 N   0  0  0  0  0  0  0  0  0  0  0  0
   22.3396   41.6773   65.2691 N   0  0  0  0  0  0  0  0  0  0  0  0
   28.1342   42.6695   66.3226 O   0  0  0  0  0  0  0  0  0  0  0  0
   25.2403   38.2283   66.9964 C   0  0  2  0  0  0  0  0  0  0  0  0
   22.9709   40.4418   65.3683 C   0  0  0  0  0  0  0  0  0  0  0  0
   24.2782   40.3619   65.1385 N   0  0  0  0  0  0  0  0  0  0  0  0
   26.5790   38.1465   66.6940 C   0  0  1  0  0  0  0  0  0  0  0  0
   22.1861   39.2709   65.7234 C   0  0  0  0  0  0  0  0  0  0  0  0
   27.7357   38.3843   67.5966 C   0  0  0  0  0  0  0  0  0  0  0  0
   20.8303   39.4778   65.8796 C   0  0  0  0  0  0  0  0  0  0  0  0
   28.2600   39.7634   67.4497 C   0  0  0  0  0  0  0  0  0  0  0  0
   22.8418   37.9241   65.9620 C   0  0  0  0  0  0  0  0  0  0  0  0
   27.3787   40.8314   67.7990 O   0  0  0  0  0  0  0  0  0  0  0  0
  1  8  1  0  0  0  0
  3  5  1  1  0  0  0
  3  9  1  0  0  0  0
  3 12  2  0  0  0  0
  3 22  1  0  0  0  0
  4  8  2  0  0  0  0
  4 19  1  0  0  0  0
  6 16  1  0  0  0  0
  6  7  1  0  0  0  0
  7 10  1  0  0  0  0
  8 11  1  0  0  0  0
 10 13  1  0  0  0  0
 10 21  1  0  0  0  0
 11 14  2  0  0  0  0
 13  2  1  1  0  0  0
 13 16  1  0  0  0  0
 14 15  1  0  0  0  0
 14 17  1  0  0  0  0
 16 18  1  1  0  0  0
 17 19  2  0  0  0  0
 17 21  1  0  0  0  0
 18 20  1  0  0  0  0
 20 22  1  0  0  0  0
M  CHG  1   9  -1
M  END
>  <CHROM.1>
-95.11918154,83.74754842,5.71546912,63.00438768,-179.79699883,-63.72386455
25.10577856,40.18973789,66.47624157,2.98048982,0.27035217,-2.90536892

>  <Name>
ligand

>  <RI>
0

>  <Rbt.Current_Directory>
/home/itssahil/PROJECTS/Mol_Feturizer/New_Systems/rnas/2HOM

>  <Rbt.Executable>
rbdock ($Id: //depot/dev/client3/rdock/2013.1/src/exe/rbdock.cxx#4 $)

>  <Rbt.Library>
libRbt.so (2013.1, Build901 2013/11/27)

>  <Rbt.Parameter_File>
/export/apps/rDock/src/rDock_2013.1_src/data/scripts/dock_solv.prm

>  <Rbt.Receptor>
prm/pocket_docking_4.prm

>  <SCORE>
-14.4233

>  <SCORE.INTER>
-16.1856

>  <SCORE.INTER.CONST>
1

>  <SCORE.INTER.POLAR>
-0.935282

>  <SCORE.INTER.ROT>
6

>  <SCORE.INTER.SOLV>
10.9342

>  <SCORE.INTER.VDW>
-18.9175

>  <SCORE.INTER.norm>
-0.735709

>  <SCORE.INTRA>
1.76227

>  <SCORE.INTRA.DIHEDRAL>
0.0492837

>  <SCORE.INTRA.DIHEDRAL.0>
5.05013

>  <SCORE.INTRA.POLAR>
0

>  <SCORE.INTRA.POLAR.0>
0

>  <SCORE.INTRA.REPUL>
0.0013024

>  <SCORE.INTRA.REPUL.0>
0

>  <SCORE.INTRA.SOLV>
4.77422

>  <SCORE.INTRA.SOLV.lig_0>
-54.1265

>  <SCORE.INTRA.VDW>
-0.655988

>  <SCORE.INTRA.VDW.0>
-2.1303

>  <SCORE.INTRA.norm>
0.0801034

>  <SCORE.RESTR>
0

>  <SCORE.RESTR.CAVITY>
0

>  <SCORE.RESTR.norm>
0

>  <SCORE.SYSTEM>
0

>  <SCORE.SYSTEM.CONST>
0

>  <SCORE.SYSTEM.DIHEDRAL>
0

>  <SCORE.SYSTEM.SOLV>
0

>  <SCORE.SYSTEM.norm>
0

>  <SCORE.heavy>
22

>  <SCORE.norm>
-0.655605

>  <RMSD>
3.549

$$$$
ligand
 OpenBabel11021811443D
libRbt.so/2013.1/901 2013/11/27
 22 23  0  0  0  0  0  0  0  0999 V2000
   18.3092   40.5448   64.9066 C   0  0  0  0  0  0  0  0  0  0  0  0
   26.8047   40.5432   67.0972 C   0  0  0  0  0  0  0  0  0  0  0  0
   28.5115   34.8509   69.0902 P   0  0  1  0  0  0  0  0  0  0  0  0
   20.2509   41.5638   65.8630 N   0  0  0  0  0  0  0  0  0  0  0  0
   29.4299   34.3537   70.1464 O   0  0  0  0  0  0  0  0  0  0  0  0
   24.6397   37.3664   68.2918 S   0  0  0  0  0  0  0  0  0  0  0  0
   23.8121   38.4488   67.3090 C   0  0  0  0  0  0  0  0  0  0  0  0
   19.7435   40.4780   65.1826 C   0  0  0  0  0  0  0  0  0  0  0  0
   28.5159   34.0364   67.8478 O   0  5  0  0  0  0  0  0  0  0  0  0
   24.5213   39.5212   66.8965 N   0  0  0  0  0  0  0  0  0  0  0  0
   20.4623   39.4511   64.8154 N   0  0  0  0  0  0  0  0  0  0  0  0
   27.1401   35.0725   69.6504 O   0  0  0  0  0  0  0  0  0  0  0  0
   25.8173   39.4582   67.4117 C   0  0  2  0  0  0  0  0  0  0  0  0
   21.8250   39.4205   65.0931 C   0  0  0  0  0  0  0  0  0  0  0  0
   22.5369   38.3584   64.7280 N   0  0  0  0  0  0  0  0  0  0  0  0
   26.0698   38.3603   68.1998 C   0  0  1  0  0  0  0  0  0  0  0  0
   22.4360   40.5514   65.7720 C   0  0  0  0  0  0  0  0  0  0  0  0
   27.3312   38.0125   68.9049 C   0  0  0  0  0  0  0  0  0  0  0  0
   21.5777   41.5650   66.1482 C   0  0  0  0  0  0  0  0  0  0  0  0
   28.2689   37.2931   68.0096 C   0  0  0  0  0  0  0  0  0  0  0  0
   23.9349   40.6235   65.9925 C   0  0  0  0  0  0  0  0  0  0  0  0
   29.0460   36.2466   68.5929 O   0  0  0  0  0  0  0  0  0  0  0  0
  1  8  1  0  0  0  0
  3  5  1  1  0  0  0
  3  9  1  0  0  0  0
  3 12  2  0  0  0  0
  3 22  1  0  0  0  0
  4  8  2  0  0  0  0
  4 19  1  0  0  0  0
  6 16  1  0  0  0  0
  6  7  1  0  0  0  0
  7 10  1  0  0  0  0
  8 11  1  0  0  0  0
 10 13  1  0  0  0  0
 10 21  1  0  0  0  0
 11 14  2  0  0  0  0
 13  2  1  1  0  0  0
 13 16  1  0  0  0  0
 14 15  1  0  0  0  0
 14 17  1  0  0  0  0
 16 18  1  1  0  0  0
 17 19  2  0  0  0  0
 17 21  1  0  0  0  0
 18 20  1  0  0  0  0
 20 22  1  0  0  0  0
M  CHG  1   9  -1
M  END
>  <CHROM.1>
9.56248081,95.72606256,-63.48356050,-142.89432987,70.09131923,-154.01663497
24.93343572,38.09768122,67.31904710,2.53887528,-0.34341548,-0.16530011

>  <Name>
ligand

>  <RI>
0

>  <Rbt.Current_Directory>
/home/itssahil/PROJECTS/Mol_Feturizer/New_Systems/rnas/2HOM

>  <Rbt.Executable>
rbdock ($Id: //depot/dev/client3/rdock/2013.1/src/exe/rbdock.cxx#4 $)

>  <Rbt.Library>
libRbt.so (2013.1, Build901 2013/11/27)

>  <Rbt.Parameter_File>
/export/apps/rDock/src/rDock_2013.1_src/data/scripts/dock_solv.prm

>  <Rbt.Receptor>
prm/pocket_docking_8.prm

>  <SCORE>
-17.1404

>  <SCORE.INTER>
-21.32

>  <SCORE.INTER.CONST>
1

>  <SCORE.INTER.POLAR>
-1.30767

>  <SCORE.INTER.ROT>
6

>  <SCORE.INTER.SOLV>
17.5529

>  <SCORE.INTER.VDW>
-23.3054

>  <SCORE.INTER.norm>
-0.96909

>  <SCORE.INTRA>
4.17954

>  <SCORE.INTRA.DIHEDRAL>
4.93412

>  <SCORE.INTRA.DIHEDRAL.0>
5.05013

>  <SCORE.INTRA.POLAR>
0

>  <SCORE.INTRA.POLAR.0>
0

>  <SCORE.INTRA.REPUL>
0

>  <SCORE.INTRA.REPUL.0>
0

>  <SCORE.INTRA.SOLV>
3.43469

>  <SCORE.INTRA.SOLV.lig_0>
-54.1265

>  <SCORE.INTRA.VDW>
-0.00486125

>  <SCORE.INTRA.VDW.0>
-2.1303

>  <SCORE.INTRA.norm>
0.189979

>  <SCORE.RESTR>
0

>  <SCORE.RESTR.CAVITY>
0

>  <SCORE.RESTR.norm>
0

>  <SCORE.SYSTEM>
0

>  <SCORE.SYSTEM.CONST>
0

>  <SCORE.SYSTEM.DIHEDRAL>
0

>  <SCORE.SYSTEM.SOLV>
0

>  <SCORE.SYSTEM.norm>
0

>  <SCORE.heavy>
22

>  <SCORE.norm>
-0.779111

>  <RMSD>
3.549

$$$$
ligand
 OpenBabel11021811443D
libRbt.so/2013.1/901 2013/11/27
 22 23  0  0  0  0  0  0  0  0999 V2000
   17.7257   40.0172   64.6151 C   0  0  0  0  0  0  0  0  0  0  0  0
   23.7909   45.1550   65.9999 C   0  0  0  0  0  0  0  0  0  0  0  0
   29.3918   44.0875   66.7010 P   0  0  1  0  0  0  0  0  0  0  0  0
   19.8611   39.9198   65.6893 N   0  0  0  0  0  0  0  0  0  0  0  0
   29.0318   45.0523   67.7715 O   0  0  0  0  0  0  0  0  0  0  0  0
   25.6271   41.9125   64.4763 S   0  0  0  0  0  0  0  0  0  0  0  0
   24.2692   41.5764   65.4067 C   0  0  0  0  0  0  0  0  0  0  0  0
   18.9014   40.7268   65.1174 C   0  0  0  0  0  0  0  0  0  0  0  0
   30.4672   44.5613   65.7920 O   0  5  0  0  0  0  0  0  0  0  0  0
   23.6380   42.6510   65.9263 N   0  0  0  0  0  0  0  0  0  0  0  0
   19.0152   42.0232   65.0069 N   0  0  0  0  0  0  0  0  0  0  0  0
   29.6602   42.7342   67.2841 O   0  0  0  0  0  0  0  0  0  0  0  0
   24.2999   43.8192   65.5439 C   0  0  2  0  0  0  0  0  0  0  0  0
   20.1469   42.6667   65.4970 C   0  0  0  0  0  0  0  0  0  0  0  0
   20.2535   43.9849   65.3587 N   0  0  0  0  0  0  0  0  0  0  0  0
   25.4094   43.6200   64.7568 C   0  0  1  0  0  0  0  0  0  0  0  0
   21.1819   41.8823   66.1501 C   0  0  0  0  0  0  0  0  0  0  0  0
   26.3331   44.6447   64.2038 C   0  0  0  0  0  0  0  0  0  0  0  0
   20.9772   40.5174   66.1783 C   0  0  0  0  0  0  0  0  0  0  0  0
   27.3818   45.0117   65.1856 C   0  0  0  0  0  0  0  0  0  0  0  0
   22.3776   42.5448   66.8072 C   0  0  0  0  0  0  0  0  0  0  0  0
   28.1568   43.9449   65.7339 O   0  0  0  0  0  0  0  0  0  0  0  0
  1  8  1  0  0  0  0
  3  5  1  1  0  0  0
  3  9  1  0  0  0  0
  3 12  2  0  0  0  0
  3 22  1  0  0  0  0
  4  8  2  0  0  0  0
  4 19  1  0  0  0  0
  6 16  1  0  0  0  0
  6  7  1  0  0  0  0
  7 10  1  0  0  0  0
  8 11  1  0  0  0  0
 10 13  1  0  0  0  0
 10 21  1  0  0  0  0
 11 14  2  0  0  0  0
 13  2  1  1  0  0  0
 13 16  1  0  0  0  0
 14 15  1  0  0  0  0
 14 17  1  0  0  0  0
 16 18  1  1  0  0  0
 17 19  2  0  0  0  0
 17 21  1  0  0  0  0
 18 20  1  0  0  0  0
 20 22  1  0  0  0  0
M  CHG  1   9  -1
M  END
>  <CHROM.1>
-59.89433132,-94.74548116,-94.90041624,54.22436453,174.92286954,46.66394993
24.53316774,42.93421456,65.70389105,-2.85072833,-0.10352278,-0.01356470

>  <Name>
ligand

>  <RI>
0

>  <Rbt.Current_Directory>
/home/itssahil/PROJECTS/Mol_Feturizer/New_Systems/rnas/2HOM

>  <Rbt.Executable>
rbdock ($Id: //depot/dev/client3/rdock/2013.1/src/exe/rbdock.cxx#4 $)

>  <Rbt.Library>
libRbt.so (2013.1, Build901 2013/11/27)

>  <Rbt.Parameter_File>
/export/apps/rDock/src/rDock_2013.1_src/data/scripts/dock_solv.prm

>  <Rbt.Receptor>
prm/pocket_docking_7.prm

>  <SCORE>
-17.3473

>  <SCORE.INTER>
-17.8017

>  <SCORE.INTER.CONST>
1

>  <SCORE.INTER.POLAR>
-1.18585

>  <SCORE.INTER.ROT>
6

>  <SCORE.INTER.SOLV>
19.9837

>  <SCORE.INTER.VDW>
-22.1762

>  <SCORE.INTER.norm>
-0.80917

>  <SCORE.INTRA>
0.454476

>  <SCORE.INTRA.DIHEDRAL>
0.377596

>  <SCORE.INTRA.DIHEDRAL.0>
5.05013

>  <SCORE.INTRA.POLAR>
0

>  <SCORE.INTRA.POLAR.0>
0

>  <SCORE.INTRA.REPUL>
0

>  <SCORE.INTRA.REPUL.0>
0

>  <SCORE.INTRA.SOLV>
1.26782

>  <SCORE.INTRA.SOLV.lig_0>
-54.1265

>  <SCORE.INTRA.VDW>
-0.368232

>  <SCORE.INTRA.VDW.0>
-2.1303

>  <SCORE.INTRA.norm>
0.020658

>  <SCORE.RESTR>
0

>  <SCORE.RESTR.CAVITY>
0

>  <SCORE.RESTR.norm>
0

>  <SCORE.SYSTEM>
0

>  <SCORE.SYSTEM.CONST>
0

>  <SCORE.SYSTEM.DIHEDRAL>
0

>  <SCORE.SYSTEM.SOLV>
0

>  <SCORE.SYSTEM.norm>
0

>  <SCORE.heavy>
22

>  <SCORE.norm>
-0.788512

>  <RMSD>
3.575

$$$$
ligand
 OpenBabel11021811443D
libRbt.so/2013.1/901 2013/11/27
 22 23  0  0  0  0  0  0  0  0999 V2000
   22.3965   45.5527   66.3580 C   0  0  0  0  0  0  0  0  0  0  0  0
   22.5205   39.9714   68.0676 C   0  0  0  0  0  0  0  0  0  0  0  0
   28.2013   38.0254   66.4023 P   0  0  1  0  0  0  0  0  0  0  0  0
   20.7682   43.8115   66.1582 N   0  0  0  0  0  0  0  0  0  0  0  0
   28.2901   39.5058   66.3193 O   0  0  0  0  0  0  0  0  0  0  0  0
   23.6945   37.0976   65.5045 S   0  0  0  0  0  0  0  0  0  0  0  0
   22.4770   38.0994   64.9243 C   0  0  0  0  0  0  0  0  0  0  0  0
   22.1008   44.1507   66.0670 C   0  0  0  0  0  0  0  0  0  0  0  0
   28.3727   37.3320   65.0995 O   0  5  0  0  0  0  0  0  0  0  0  0
   22.0696   39.0709   65.7688 N   0  0  0  0  0  0  0  0  0  0  0  0
   23.0427   43.3091   65.7342 N   0  0  0  0  0  0  0  0  0  0  0  0
   29.1076   37.5056   67.4757 O   0  0  0  0  0  0  0  0  0  0  0  0
   22.7923   38.9954   66.9609 C   0  0  2  0  0  0  0  0  0  0  0  0
   22.7265   41.9816   65.4649 C   0  0  0  0  0  0  0  0  0  0  0  0
   23.6962   41.1439   65.1095 N   0  0  0  0  0  0  0  0  0  0  0  0
   23.7197   37.9815   67.0076 C   0  0  1  0  0  0  0  0  0  0  0  0
   21.3454   41.5436   65.5821 C   0  0  0  0  0  0  0  0  0  0  0  0
   24.6277   37.6250   68.1291 C   0  0  0  0  0  0  0  0  0  0  0  0
   20.4269   42.5231   65.9027 C   0  0  0  0  0  0  0  0  0  0  0  0
   25.9905   38.1677   67.9131 C   0  0  0  0  0  0  0  0  0  0  0  0
   20.9633   40.0851   65.4173 C   0  0  0  0  0  0  0  0  0  0  0  0
   26.7277   37.6445   66.8076 O   0  0  0  0  0  0  0  0  0  0  0  0
  1  8  1  0  0  0  0
  3  5  1  6  0  0  0
  3  9  1  0  0  0  0
  3 12  2  0  0  0  0
  3 22  1  0  0  0  0
  4  8  2  0  0  0  0
  4 19  1  0  0  0  0
  6 16  1  0  0  0  0
  6  7  1  0  0  0  0
  7 10  1  0  0  0  0
  8 11  1  0  0  0  0
 10 13  1  0  0  0  0
 10 21  1  0  0  0  0
 11 14  2  0  0  0  0
 13  2  1  1  0  0  0
 13 16  1  0  0  0  0
 14 15  1  0  0  0  0
 14 17  1  0  0  0  0
 16 18  1  1  0  0  0
 17 19  2  0  0  0  0
 17 21  1  0  0  0  0
 18 20  1  0  0  0  0
 20 22  1  0  0  0  0
M  CHG  1   9  -1
M  END
>  <CHROM.1>
-126.49843846,81.04091685,27.07864737,-65.39734244,-177.93637689,-51.52390261
24.27422267,39.73160288,66.26672783,-2.42628566,0.09451508,3.13241779

>  <Name>
ligand

>  <RI>
0

>  <Rbt.Current_Directory>
/home/itssahil/PROJECTS/Mol_Feturizer/New_Systems/rnas/2HOM

>  <Rbt.Executable>
rbdock ($Id: //depot/dev/client3/rdock/2013.1/src/exe/rbdock.cxx#4 $)

>  <Rbt.Library>
libRbt.so (2013.1, Build901 2013/11/27)

>  <Rbt.Parameter_File>
/export/apps/rDock/src/rDock_2013.1_src/data/scripts/dock_solv.prm

>  <Rbt.Receptor>
prm/pocket_docking_5.prm

>  <SCORE>
-23.1566

>  <SCORE.INTER>
-24.6128

>  <SCORE.INTER.CONST>
1

>  <SCORE.INTER.POLAR>
-1.6273

>  <SCORE.INTER.ROT>
6

>  <SCORE.INTER.SOLV>
10.815

>  <SCORE.INTER.VDW>
-22.1892

>  <SCORE.INTER.norm>
-1.11876

>  <SCORE.INTRA>
1.45619

>  <SCORE.INTRA.DIHEDRAL>
0.321644

>  <SCORE.INTRA.DIHEDRAL.0>
5.05013

>  <SCORE.INTRA.POLAR>
0

>  <SCORE.INTRA.POLAR.0>
0

>  <SCORE.INTRA.REPUL>
0

>  <SCORE.INTRA.REPUL.0>
0

>  <SCORE.INTRA.SOLV>
3.95576

>  <SCORE.INTRA.SOLV.lig_0>
-54.1265

>  <SCORE.INTRA.VDW>
-0.682507

>  <SCORE.INTRA.VDW.0>
-2.1303

>  <SCORE.INTRA.norm>
0.0661906

>  <SCORE.RESTR>
0

>  <SCORE.RESTR.CAVITY>
0

>  <SCORE.RESTR.norm>
0

>  <SCORE.SYSTEM>
0

>  <SCORE.SYSTEM.CONST>
0

>  <SCORE.SYSTEM.DIHEDRAL>
0

>  <SCORE.SYSTEM.SOLV>
0

>  <SCORE.SYSTEM.norm>
0

>  <SCORE.heavy>
22

>  <SCORE.norm>
-1.05257

>  <RMSD>
3.607

$$$$
ligand
 OpenBabel11021811443D
libRbt.so/2013.1/901 2013/11/27
 22 23  0  0  0  0  0  0  0  0999 V2000
   22.8233   46.0915   66.4508 C   0  0  0  0  0  0  0  0  0  0  0  0
   22.9922   39.9640   68.0866 C   0  0  0  0  0  0  0  0  0  0  0  0
   28.7316   37.5635   66.0238 P   0  0  1  0  0  0  0  0  0  0  0  0
   23.0011   43.7393   66.8494 N   0  0  0  0  0  0  0  0  0  0  0  0
   28.6205   38.4413   64.8308 O   0  0  0  0  0  0  0  0  0  0  0  0
   23.1423   37.8866   64.6416 S   0  0  0  0  0  0  0  0  0  0  0  0
   21.8837   38.9954   64.7370 C   0  0  0  0  0  0  0  0  0  0  0  0
   22.2099   44.7660   66.3813 C   0  0  0  0  0  0  0  0  0  0  0  0
   29.0693   36.1511   65.7102 O   0  5  0  0  0  0  0  0  0  0  0  0
   21.8165   39.7035   65.8847 N   0  0  0  0  0  0  0  0  0  0  0  0
   20.9992   44.5974   65.9211 N   0  0  0  0  0  0  0  0  0  0  0  0
   29.6392   38.1788   67.0442 O   0  0  0  0  0  0  0  0  0  0  0  0
   22.8523   39.3202   66.7386 C   0  0  2  0  0  0  0  0  0  0  0  0
   20.4464   43.3220   65.8679 C   0  0  0  0  0  0  0  0  0  0  0  0
   19.2056   43.1722   65.4137 N   0  0  0  0  0  0  0  0  0  0  0  0
   23.6757   38.3390   66.2392 C   0  0  1  0  0  0  0  0  0  0  0  0
   21.2401   42.1861   66.3069 C   0  0  0  0  0  0  0  0  0  0  0  0
   24.8467   37.7053   66.8998 C   0  0  0  0  0  0  0  0  0  0  0  0
   22.4910   42.4823   66.8098 C   0  0  0  0  0  0  0  0  0  0  0  0
   26.1170   38.1131   66.2531 C   0  0  0  0  0  0  0  0  0  0  0  0
   20.7325   40.7644   66.1591 C   0  0  0  0  0  0  0  0  0  0  0  0
   27.3040   37.4425   66.6782 O   0  0  0  0  0  0  0  0  0  0  0  0
  1  8  1  0  0  0  0
  3  5  1  6  0  0  0
  3  9  1  0  0  0  0
  3 12  2  0  0  0  0
  3 22  1  0  0  0  0
  4  8  2  0  0  0  0
  4 19  1  0  0  0  0
  6 16  1  0  0  0  0
  6  7  1  0  0  0  0
  7 10  1  0  0  0  0
  8 11  1  0  0  0  0
 10 13  1  0  0  0  0
 10 21  1  0  0  0  0
 11 14  2  0  0  0  0
 13  2  1  1  0  0  0
 13 16  1  0  0  0  0
 14 15  1  0  0  0  0
 14 17  1  0  0  0  0
 16 18  1  1  0  0  0
 17 19  2  0  0  0  0
 17 21  1  0  0  0  0
 18 20  1  0  0  0  0
 20 22  1  0  0  0  0
M  CHG  1   9  -1
M  END
>  <CHROM.1>
-115.34125545,70.53122746,146.76293669,-172.11027021,171.72193666,-3.17942989
24.19971178,40.03947558,66.09402094,-2.44223664,0.12140171,-2.98024264

>  <Name>
ligand

>  <RI>
0

>  <Rbt.Current_Directory>
/home/itssahil/PROJECTS/Mol_Feturizer/New_Systems/rnas/2HOM

>  <Rbt.Executable>
rbdock ($Id: //depot/dev/client3/rdock/2013.1/src/exe/rbdock.cxx#4 $)

>  <Rbt.Library>
libRbt.so (2013.1, Build901 2013/11/27)

>  <Rbt.Parameter_File>
/export/apps/rDock/src/rDock_2013.1_src/data/scripts/dock_solv.prm

>  <Rbt.Receptor>
prm/pocket_docking_6.prm

>  <SCORE>
-17.397

>  <SCORE.INTER>
-20.4982

>  <SCORE.INTER.CONST>
1

>  <SCORE.INTER.POLAR>
-1.63131

>  <SCORE.INTER.ROT>
6

>  <SCORE.INTER.SOLV>
21.1139

>  <SCORE.INTER.VDW>
-22.8657

>  <SCORE.INTER.norm>
-0.931735

>  <SCORE.INTRA>
3.10118

>  <SCORE.INTRA.DIHEDRAL>
3.14129

>  <SCORE.INTRA.DIHEDRAL.0>
5.05013

>  <SCORE.INTRA.POLAR>
0

>  <SCORE.INTRA.POLAR.0>
0

>  <SCORE.INTRA.REPUL>
0

>  <SCORE.INTRA.REPUL.0>
0

>  <SCORE.INTRA.SOLV>
-0.261262

>  <SCORE.INTRA.SOLV.lig_0>
-54.1265

>  <SCORE.INTRA.VDW>
1.66116

>  <SCORE.INTRA.VDW.0>
-2.1303

>  <SCORE.INTRA.norm>
0.140963

>  <SCORE.RESTR>
0

>  <SCORE.RESTR.CAVITY>
0

>  <SCORE.RESTR.norm>
0

>  <SCORE.SYSTEM>
0

>  <SCORE.SYSTEM.CONST>
0

>  <SCORE.SYSTEM.DIHEDRAL>
0

>  <SCORE.SYSTEM.SOLV>
0

>  <SCORE.SYSTEM.norm>
0

>  <SCORE.heavy>
22

>  <SCORE.norm>
-0.790773

>  <RMSD>
3.612

$$$$
ligand
 OpenBabel11021811443D
libRbt.so/2013.1/901 2013/11/27
 22 23  0  0  0  0  0  0  0  0999 V2000
   22.5329   45.7455   66.4730 C   0  0  0  0  0  0  0  0  0  0  0  0
   22.4041   39.8274   68.1668 C   0  0  0  0  0  0  0  0  0  0  0  0
   28.2564   38.2970   69.5460 P   0  0  1  0  0  0  0  0  0  0  0  0
   23.0740   43.4157   66.4229 N   0  0  0  0  0  0  0  0  0  0  0  0
   28.2163   39.7817   69.5384 O   0  0  0  0  0  0  0  0  0  0  0  0
   24.0084   37.3901   65.3932 S   0  0  0  0  0  0  0  0  0  0  0  0
   22.8275   38.4335   64.8105 C   0  0  0  0  0  0  0  0  0  0  0  0
   22.1044   44.3721   66.2121 C   0  0  0  0  0  0  0  0  0  0  0  0
   29.0358   37.7040   68.4288 O   0  5  0  0  0  0  0  0  0  0  0  0
   22.2774   39.2603   65.7252 N   0  0  0  0  0  0  0  0  0  0  0  0
   20.8874   44.0985   65.8246 N   0  0  0  0  0  0  0  0  0  0  0  0
   28.6708   37.7911   70.8936 O   0  0  0  0  0  0  0  0  0  0  0  0
   22.8519   39.0308   66.9768 C   0  0  2  0  0  0  0  0  0  0  0  0
   20.5134   42.7805   65.5840 C   0  0  0  0  0  0  0  0  0  0  0  0
   19.2647   42.5197   65.2082 N   0  0  0  0  0  0  0  0  0  0  0  0
   23.8108   38.0457   66.9971 C   0  0  1  0  0  0  0  0  0  0  0  0
   21.4975   41.7231   65.7463 C   0  0  0  0  0  0  0  0  0  0  0  0
   24.5902   37.5534   68.1631 C   0  0  0  0  0  0  0  0  0  0  0  0
   22.7410   42.1198   66.1957 C   0  0  0  0  0  0  0  0  0  0  0  0
   25.9657   38.1067   68.1650 C   0  0  0  0  0  0  0  0  0  0  0  0
   21.1784   40.2855   65.3829 C   0  0  0  0  0  0  0  0  0  0  0  0
   26.7988   37.7657   69.2735 O   0  0  0  0  0  0  0  0  0  0  0  0
  1  8  1  0  0  0  0
  3  5  1  6  0  0  0
  3  9  1  0  0  0  0
  3 12  2  0  0  0  0
  3 22  1  0  0  0  0
  4  8  2  0  0  0  0
  4 19  1  0  0  0  0
  6 16  1  0  0  0  0
  6  7  1  0  0  0  0
  7 10  1  0  0  0  0
  8 11  1  0  0  0  0
 10 13  1  0  0  0  0
 10 21  1  0  0  0  0
 11 14  2  0  0  0  0
 13  2  1  1  0  0  0
 13 16  1  0  0  0  0
 14 15  1  0  0  0  0
 14 17  1  0  0  0  0
 16 18  1  1  0  0  0
 17 19  2  0  0  0  0
 17 21  1  0  0  0  0
 18 20  1  0  0  0  0
 20 22  1  0  0  0  0
M  CHG  1   9  -1
M  END
>  <CHROM.1>
-124.00810992,78.30112847,-174.87219519,176.84059966,-175.98172401,54.58175870
24.18532900,39.96314679,67.18799212,-2.65901199,0.58605627,-2.94883695

>  <Name>
ligand

>  <RI>
0

>  <Rbt.Current_Directory>
/home/itssahil/PROJECTS/Mol_Feturizer/New_Systems/rnas/2HOM

>  <Rbt.Executable>
rbdock ($Id: //depot/dev/client3/rdock/2013.1/src/exe/rbdock.cxx#4 $)

>  <Rbt.Library>
libRbt.so (2013.1, Build901 2013/11/27)

>  <Rbt.Parameter_File>
/export/apps/rDock/src/rDock_2013.1_src/data/scripts/dock_solv.prm

>  <Rbt.Receptor>
prm/pocket_docking_8.prm

>  <SCORE>
-21.5721

>  <SCORE.INTER>
-22.2703

>  <SCORE.INTER.CONST>
1

>  <SCORE.INTER.POLAR>
-1.63459

>  <SCORE.INTER.ROT>
6

>  <SCORE.INTER.SOLV>
20.8761

>  <SCORE.INTER.VDW>
-23.957

>  <SCORE.INTER.norm>
-1.01229

>  <SCORE.INTRA>
0.698244

>  <SCORE.INTRA.DIHEDRAL>
0.146472

>  <SCORE.INTRA.DIHEDRAL.0>
5.05013

>  <SCORE.INTRA.POLAR>
0

>  <SCORE.INTRA.POLAR.0>
0

>  <SCORE.INTRA.REPUL>
0

>  <SCORE.INTRA.REPUL.0>
0

>  <SCORE.INTRA.SOLV>
-0.0352546

>  <SCORE.INTRA.SOLV.lig_0>
-54.1265

>  <SCORE.INTRA.VDW>
0.642636

>  <SCORE.INTRA.VDW.0>
-2.1303

>  <SCORE.INTRA.norm>
0.0317384

>  <SCORE.RESTR>
0

>  <SCORE.RESTR.CAVITY>
0

>  <SCORE.RESTR.norm>
0

>  <SCORE.SYSTEM>
0

>  <SCORE.SYSTEM.CONST>
0

>  <SCORE.SYSTEM.DIHEDRAL>
0

>  <SCORE.SYSTEM.SOLV>
0

>  <SCORE.SYSTEM.norm>
0

>  <SCORE.heavy>
22

>  <SCORE.norm>
-0.98055

>  <RMSD>
3.659

$$$$
ligand
 OpenBabel11021811443D
libRbt.so/2013.1/901 2013/11/27
 22 23  0  0  0  0  0  0  0  0999 V2000
   23.2355   45.4539   65.3728 C   0  0  0  0  0  0  0  0  0  0  0  0
   22.6841   39.9887   68.0219 C   0  0  0  0  0  0  0  0  0  0  0  0
   28.2210   38.2935   68.7923 P   0  0  1  0  0  0  0  0  0  0  0  0
   23.4073   43.0757   65.5680 N   0  0  0  0  0  0  0  0  0  0  0  0
   29.1583   37.2469   69.2741 O   0  0  0  0  0  0  0  0  0  0  0  0
   23.1452   36.8797   65.5063 S   0  0  0  0  0  0  0  0  0  0  0  0
   22.0278   38.0288   65.0027 C   0  0  0  0  0  0  0  0  0  0  0  0
   22.5625   44.1581   65.4500 C   0  0  0  0  0  0  0  0  0  0  0  0
   28.0349   39.4247   69.7373 O   0  5  0  0  0  0  0  0  0  0  0  0
   21.8592   39.0806   65.8324 N   0  0  0  0  0  0  0  0  0  0  0  0
   21.2601   44.0626   65.4223 N   0  0  0  0  0  0  0  0  0  0  0  0
   28.5905   38.7305   67.4080 O   0  0  0  0  0  0  0  0  0  0  0  0
   22.6899   38.9429   66.9460 C   0  0  2  0  0  0  0  0  0  0  0  0
   20.6523   42.8136   65.4967 C   0  0  0  0  0  0  0  0  0  0  0  0
   19.3247   42.7376   65.4858 N   0  0  0  0  0  0  0  0  0  0  0  0
   23.4617   37.8051   66.9502 C   0  0  1  0  0  0  0  0  0  0  0  0
   21.4836   41.6241   65.5810 C   0  0  0  0  0  0  0  0  0  0  0  0
   24.4266   37.3596   67.9893 C   0  0  0  0  0  0  0  0  0  0  0  0
   22.8452   41.8427   65.6416 C   0  0  0  0  0  0  0  0  0  0  0  0
   25.6925   38.1280   67.9149 C   0  0  0  0  0  0  0  0  0  0  0  0
   20.8781   40.2340   65.5438 C   0  0  0  0  0  0  0  0  0  0  0  0
   26.7795   37.6633   68.7161 O   0  0  0  0  0  0  0  0  0  0  0  0
  1  8  1  0  0  0  0
  3  5  1  1  0  0  0
  3  9  1  0  0  0  0
  3 12  2  0  0  0  0
  3 22  1  0  0  0  0
  4  8  2  0  0  0  0
  4 19  1  0  0  0  0
  6 16  1  0  0  0  0
  6  7  1  0  0  0  0
  7 10  1  0  0  0  0
  8 11  1  0  0  0  0
 10 13  1  0  0  0  0
 10 21  1  0  0  0  0
 11 14  2  0  0  0  0
 13  2  1  1  0  0  0
 13 16  1  0  0  0  0
 14 15  1  0  0  0  0
 14 17  1  0  0  0  0
 16 18  1  1  0  0  0
 17 19  2  0  0  0  0
 17 21  1  0  0  0  0
 18 20  1  0  0  0  0
 20 22  1  0  0  0  0
M  CHG  1   9  -1
M  END
>  <CHROM.1>
-126.05639740,104.21293789,-172.12378942,-170.51785168,179.06519629,-157.55074073
24.09841326,39.84103027,66.83492904,-2.52409954,0.43110763,3.08719844

>  <Name>
ligand

>  <RI>
0

>  <Rbt.Current_Directory>
/home/itssahil/PROJECTS/Mol_Feturizer/New_Systems/rnas/2HOM

>  <Rbt.Executable>
rbdock ($Id: //depot/dev/client3/rdock/2013.1/src/exe/rbdock.cxx#4 $)

>  <Rbt.Library>
libRbt.so (2013.1, Build901 2013/11/27)

>  <Rbt.Parameter_File>
/export/apps/rDock/src/rDock_2013.1_src/data/scripts/dock_solv.prm

>  <Rbt.Receptor>
prm/pocket_docking_7.prm

>  <SCORE>
-18.1743

>  <SCORE.INTER>
-19.5923

>  <SCORE.INTER.CONST>
1

>  <SCORE.INTER.POLAR>
-1.30767

>  <SCORE.INTER.ROT>
6

>  <SCORE.INTER.SOLV>
20.2594

>  <SCORE.INTER.VDW>
-23.0558

>  <SCORE.INTER.norm>
-0.89056

>  <SCORE.INTRA>
1.41801

>  <SCORE.INTRA.DIHEDRAL>
0.615673

>  <SCORE.INTRA.DIHEDRAL.0>
5.05013

>  <SCORE.INTRA.POLAR>
0

>  <SCORE.INTRA.POLAR.0>
0

>  <SCORE.INTRA.REPUL>
0

>  <SCORE.INTRA.REPUL.0>
0

>  <SCORE.INTRA.SOLV>
0.523106

>  <SCORE.INTRA.SOLV.lig_0>
-54.1265

>  <SCORE.INTRA.VDW>
0.848625

>  <SCORE.INTRA.VDW.0>
-2.1303

>  <SCORE.INTRA.norm>
0.0644552

>  <SCORE.RESTR>
0

>  <SCORE.RESTR.CAVITY>
0

>  <SCORE.RESTR.norm>
0

>  <SCORE.SYSTEM>
0

>  <SCORE.SYSTEM.CONST>
0

>  <SCORE.SYSTEM.DIHEDRAL>
0

>  <SCORE.SYSTEM.SOLV>
0

>  <SCORE.SYSTEM.norm>
0

>  <SCORE.heavy>
22

>  <SCORE.norm>
-0.826105

>  <RMSD>
3.662

$$$$
ligand
 OpenBabel11021811443D
libRbt.so/2013.1/901 2013/11/27
 22 23  0  0  0  0  0  0  0  0999 V2000
   23.8829   45.6769   65.1763 C   0  0  0  0  0  0  0  0  0  0  0  0
   22.8547   40.0826   68.1648 C   0  0  0  0  0  0  0  0  0  0  0  0
   28.2871   38.8232   67.2202 P   0  0  1  0  0  0  0  0  0  0  0  0
   24.0561   43.2963   65.3372 N   0  0  0  0  0  0  0  0  0  0  0  0
   29.1439   37.9970   68.1088 O   0  0  0  0  0  0  0  0  0  0  0  0
   23.8815   37.1787   65.5725 S   0  0  0  0  0  0  0  0  0  0  0  0
   22.8306   38.3331   64.9515 C   0  0  0  0  0  0  0  0  0  0  0  0
   23.2101   44.3826   65.2763 C   0  0  0  0  0  0  0  0  0  0  0  0
   28.5113   40.2863   67.3480 O   0  5  0  0  0  0  0  0  0  0  0  0
   22.4747   39.3167   65.8052 N   0  0  0  0  0  0  0  0  0  0  0  0
   21.9078   44.2914   65.3179 N   0  0  0  0  0  0  0  0  0  0  0  0
   28.3689   38.3307   65.8080 O   0  0  0  0  0  0  0  0  0  0  0  0
   23.0950   39.1189   67.0401 C   0  0  2  0  0  0  0  0  0  0  0  0
   21.3002   43.0437   65.4121 C   0  0  0  0  0  0  0  0  0  0  0  0
   19.9738   42.9720   65.4721 N   0  0  0  0  0  0  0  0  0  0  0  0
   23.8961   38.0037   67.1089 C   0  0  1  0  0  0  0  0  0  0  0  0
   22.1304   41.8508   65.4391 C   0  0  0  0  0  0  0  0  0  0  0  0
   24.6735   37.5078   68.2747 C   0  0  0  0  0  0  0  0  0  0  0  0
   23.4942   42.0643   65.4283 C   0  0  0  0  0  0  0  0  0  0  0  0
   26.1209   37.4282   67.9634 C   0  0  0  0  0  0  0  0  0  0  0  0
   21.5187   40.4630   65.4202 C   0  0  0  0  0  0  0  0  0  0  0  0
   26.7924   38.6582   67.6886 O   0  0  0  0  0  0  0  0  0  0  0  0
  1  8  1  0  0  0  0
  3  5  1  1  0  0  0
  3  9  1  0  0  0  0
  3 12  2  0  0  0  0
  3 22  1  0  0  0  0
  4  8  2  0  0  0  0
  4 19  1  0  0  0  0
  6 16  1  0  0  0  0
  6  7  1  0  0  0  0
  7 10  1  0  0  0  0
  8 11  1  0  0  0  0
 10 13  1  0  0  0  0
 10 21  1  0  0  0  0
 11 14  2  0  0  0  0
 13  2  1  1  0  0  0
 13 16  1  0  0  0  0
 14 15  1  0  0  0  0
 14 17  1  0  0  0  0
 16 18  1  1  0  0  0
 17 19  2  0  0  0  0
 17 21  1  0  0  0  0
 18 20  1  0  0  0  0
 20 22  1  0  0  0  0
M  CHG  1   9  -1
M  END
>  <CHROM.1>
-116.21711814,59.57258745,-165.29732197,64.51600974,-174.66084325,-48.39296581
24.53221882,40.11639362,66.38233737,-2.37925931,0.19399878,2.97725910

>  <Name>
ligand

>  <RI>
0

>  <Rbt.Current_Directory>
/home/itssahil/PROJECTS/Mol_Feturizer/New_Systems/rnas/2HOM

>  <Rbt.Executable>
rbdock ($Id: //depot/dev/client3/rdock/2013.1/src/exe/rbdock.cxx#4 $)

>  <Rbt.Library>
libRbt.so (2013.1, Build901 2013/11/27)

>  <Rbt.Parameter_File>
/export/apps/rDock/src/rDock_2013.1_src/data/scripts/dock_solv.prm

>  <Rbt.Receptor>
prm/pocket_docking_8.prm

>  <SCORE>
-16.2011

>  <SCORE.INTER>
-16.0399

>  <SCORE.INTER.CONST>
1

>  <SCORE.INTER.POLAR>
-1.28368

>  <SCORE.INTER.ROT>
6

>  <SCORE.INTER.SOLV>
15.954

>  <SCORE.INTER.VDW>
-19.3324

>  <SCORE.INTER.norm>
-0.729087

>  <SCORE.INTRA>
-0.161219

>  <SCORE.INTRA.DIHEDRAL>
0.431869

>  <SCORE.INTRA.DIHEDRAL.0>
5.05013

>  <SCORE.INTRA.POLAR>
0

>  <SCORE.INTRA.POLAR.0>
0

>  <SCORE.INTRA.REPUL>
0

>  <SCORE.INTRA.REPUL.0>
0

>  <SCORE.INTRA.SOLV>
-0.151366

>  <SCORE.INTRA.SOLV.lig_0>
-54.1265

>  <SCORE.INTRA.VDW>
-0.301471

>  <SCORE.INTRA.VDW.0>
-2.1303

>  <SCORE.INTRA.norm>
-0.00732814

>  <SCORE.RESTR>
0

>  <SCORE.RESTR.CAVITY>
0

>  <SCORE.RESTR.norm>
0

>  <SCORE.SYSTEM>
0

>  <SCORE.SYSTEM.CONST>
0

>  <SCORE.SYSTEM.DIHEDRAL>
0

>  <SCORE.SYSTEM.SOLV>
0

>  <SCORE.SYSTEM.norm>
0

>  <SCORE.heavy>
22

>  <SCORE.norm>
-0.736415

>  <RMSD>
3.666

$$$$
ligand
 OpenBabel11021811443D
libRbt.so/2013.1/901 2013/11/27
 22 23  0  0  0  0  0  0  0  0999 V2000
   22.5037   45.4717   66.2157 C   0  0  0  0  0  0  0  0  0  0  0  0
   22.4780   39.9769   67.8668 C   0  0  0  0  0  0  0  0  0  0  0  0
   28.2366   38.4033   68.4947 P   0  0  1  0  0  0  0  0  0  0  0  0
   20.7658   43.8299   66.1298 N   0  0  0  0  0  0  0  0  0  0  0  0
   28.5884   38.8005   67.1073 O   0  0  0  0  0  0  0  0  0  0  0  0
   23.1970   36.9258   65.3408 S   0  0  0  0  0  0  0  0  0  0  0  0
   22.0037   37.9924   64.8297 C   0  0  0  0  0  0  0  0  0  0  0  0
   22.1060   44.0912   65.9436 C   0  0  0  0  0  0  0  0  0  0  0  0
   29.0658   37.2975   69.0394 O   0  5  0  0  0  0  0  0  0  0  0  0
   21.7481   39.0238   65.6628 N   0  0  0  0  0  0  0  0  0  0  0  0
   22.9705   43.1982   65.5420 N   0  0  0  0  0  0  0  0  0  0  0  0
   28.1886   39.6052   69.3874 O   0  0  0  0  0  0  0  0  0  0  0  0
   22.5737   38.9410   66.7856 C   0  0  2  0  0  0  0  0  0  0  0  0
   22.5584   41.8932   65.2933 C   0  0  0  0  0  0  0  0  0  0  0  0
   23.4492   41.0026   64.8671 N   0  0  0  0  0  0  0  0  0  0  0  0
   23.4273   37.8633   66.7933 C   0  0  1  0  0  0  0  0  0  0  0  0
   21.1659   41.5360   65.5086 C   0  0  0  0  0  0  0  0  0  0  0  0
   24.4103   37.4839   67.8416 C   0  0  0  0  0  0  0  0  0  0  0  0
   20.3319   42.5653   65.8966 C   0  0  0  0  0  0  0  0  0  0  0  0
   25.6979   38.1953   67.6566 C   0  0  0  0  0  0  0  0  0  0  0  0
   20.6880   40.1033   65.3684 C   0  0  0  0  0  0  0  0  0  0  0  0
   26.7917   37.7767   68.4738 O   0  0  0  0  0  0  0  0  0  0  0  0
  1  8  1  0  0  0  0
  3  5  1  6  0  0  0
  3  9  1  0  0  0  0
  3 12  2  0  0  0  0
  3 22  1  0  0  0  0
  4  8  2  0  0  0  0
  4 19  1  0  0  0  0
  6 16  1  0  0  0  0
  6  7  1  0  0  0  0
  7 10  1  0  0  0  0
  8 11  1  0  0  0  0
 10 13  1  0  0  0  0
 10 21  1  0  0  0  0
 11 14  2  0  0  0  0
 13  2  1  1  0  0  0
 13 16  1  0  0  0  0
 14 15  1  0  0  0  0
 14 17  1  0  0  0  0
 16 18  1  1  0  0  0
 17 19  2  0  0  0  0
 17 21  1  0  0  0  0
 18 20  1  0  0  0  0
 20 22  1  0  0  0  0
M  CHG  1   9  -1
M  END
>  <CHROM.1>
-129.87084894,95.34240415,28.17329913,-170.98621870,-177.95292816,-36.31556853
24.13038624,39.78743969,66.74033585,-2.59448712,0.44204893,-3.07160945

>  <Name>
ligand

>  <RI>
0

>  <Rbt.Current_Directory>
/home/itssahil/PROJECTS/Mol_Feturizer/New_Systems/rnas/2HOM

>  <Rbt.Executable>
rbdock ($Id: //depot/dev/client3/rdock/2013.1/src/exe/rbdock.cxx#4 $)

>  <Rbt.Library>
libRbt.so (2013.1, Build901 2013/11/27)

>  <Rbt.Parameter_File>
/export/apps/rDock/src/rDock_2013.1_src/data/scripts/dock_solv.prm

>  <Rbt.Receptor>
prm/pocket_docking_5.prm

>  <SCORE>
-21.9593

>  <SCORE.INTER>
-24.4573

>  <SCORE.INTER.CONST>
1

>  <SCORE.INTER.POLAR>
-1.63218

>  <SCORE.INTER.ROT>
6

>  <SCORE.INTER.SOLV>
12.8473

>  <SCORE.INTER.VDW>
-22.7467

>  <SCORE.INTER.norm>
-1.11169

>  <SCORE.INTRA>
2.49803

>  <SCORE.INTRA.DIHEDRAL>
0.970957

>  <SCORE.INTRA.DIHEDRAL.0>
5.05013

>  <SCORE.INTRA.POLAR>
0

>  <SCORE.INTRA.POLAR.0>
0

>  <SCORE.INTRA.REPUL>
0

>  <SCORE.INTRA.REPUL.0>
0

>  <SCORE.INTRA.SOLV>
4.08877

>  <SCORE.INTRA.SOLV.lig_0>
-54.1265

>  <SCORE.INTRA.VDW>
-0.0318288

>  <SCORE.INTRA.VDW.0>
-2.1303

>  <SCORE.INTRA.norm>
0.113547

>  <SCORE.RESTR>
0

>  <SCORE.RESTR.CAVITY>
0

>  <SCORE.RESTR.norm>
0

>  <SCORE.SYSTEM>
0

>  <SCORE.SYSTEM.CONST>
0

>  <SCORE.SYSTEM.DIHEDRAL>
0

>  <SCORE.SYSTEM.SOLV>
0

>  <SCORE.SYSTEM.norm>
0

>  <SCORE.heavy>
22

>  <SCORE.norm>
-0.998148

>  <RMSD>
3.697

$$$$
ligand
 OpenBabel11021811443D
libRbt.so/2013.1/901 2013/11/27
 22 23  0  0  0  0  0  0  0  0999 V2000
   23.8497   46.1925   66.1437 C   0  0  0  0  0  0  0  0  0  0  0  0
   23.6189   40.3190   64.4581 C   0  0  0  0  0  0  0  0  0  0  0  0
   29.3655   36.7191   65.4592 P   0  0  1  0  0  0  0  0  0  0  0  0
   24.0310   43.9602   66.9847 N   0  0  0  0  0  0  0  0  0  0  0  0
   29.0087   35.3646   65.9535 O   0  0  0  0  0  0  0  0  0  0  0  0
   24.3644   37.8632   67.5597 S   0  0  0  0  0  0  0  0  0  0  0  0
   23.1346   38.9762   67.8270 C   0  0  0  0  0  0  0  0  0  0  0  0
   23.2411   44.8751   66.3226 C   0  0  0  0  0  0  0  0  0  0  0  0
   29.8060   37.6581   66.5229 O   0  5  0  0  0  0  0  0  0  0  0  0
   22.8683   39.8088   66.7980 N   0  0  0  0  0  0  0  0  0  0  0  0
   22.0354   44.6159   65.8922 N   0  0  0  0  0  0  0  0  0  0  0  0
   30.3285   36.6226   64.3159 O   0  0  0  0  0  0  0  0  0  0  0  0
   23.7168   39.5237   65.7266 C   0  0  2  0  0  0  0  0  0  0  0  0
   21.4871   43.3511   66.0781 C   0  0  0  0  0  0  0  0  0  0  0  0
   20.2512   43.1115   65.6498 N   0  0  0  0  0  0  0  0  0  0  0  0
   24.6051   38.4993   65.9538 C   0  0  1  0  0  0  0  0  0  0  0  0
   22.2800   42.3235   66.7326 C   0  0  0  0  0  0  0  0  0  0  0  0
   25.6430   37.9687   65.0315 C   0  0  0  0  0  0  0  0  0  0  0  0
   23.5251   42.7162   67.1809 C   0  0  0  0  0  0  0  0  0  0  0  0
   26.9671   37.8950   65.6946 C   0  0  0  0  0  0  0  0  0  0  0  0
   21.7783   40.8973   66.8539 C   0  0  0  0  0  0  0  0  0  0  0  0
   28.0558   37.4024   64.9127 O   0  0  0  0  0  0  0  0  0  0  0  0
  1  8  1  0  0  0  0
  3  5  1  1  0  0  0
  3  9  1  0  0  0  0
  3 12  2  0  0  0  0
  3 22  1  0  0  0  0
  4  8  2  0  0  0  0
  4 19  1  0  0  0  0
  6 16  1  0  0  0  0
  6  7  1  0  0  0  0
  7 10  1  0  0  0  0
  8 11  1  0  0  0  0
 10 13  1  0  0  0  0
 10 21  1  0  0  0  0
 11 14  2  0  0  0  0
 13  2  1  1  0  0  0
 13 16  1  0  0  0  0
 14 15  1  0  0  0  0
 14 17  1  0  0  0  0
 16 18  1  1  0  0  0
 17 19  2  0  0  0  0
 17 21  1  0  0  0  0
 18 20  1  0  0  0  0
 20 22  1  0  0  0  0
M  CHG  1   9  -1
M  END
>  <CHROM.1>
116.84829236,-50.24671107,146.83296151,-179.86845476,-155.03037056,72.05710948
25.10507868,39.88040867,66.10042855,-2.35930458,-0.23459309,3.02807273

>  <Name>
ligand

>  <RI>
0

>  <Rbt.Current_Directory>
/home/itssahil/PROJECTS/Mol_Feturizer/New_Systems/rnas/2HOM

>  <Rbt.Executable>
rbdock ($Id: //depot/dev/client3/rdock/2013.1/src/exe/rbdock.cxx#4 $)

>  <Rbt.Library>
libRbt.so (2013.1, Build901 2013/11/27)

>  <Rbt.Parameter_File>
/export/apps/rDock/src/rDock_2013.1_src/data/scripts/dock_solv.prm

>  <Rbt.Receptor>
prm/pocket_docking_7.prm

>  <SCORE>
-17.289

>  <SCORE.INTER>
-19.3585

>  <SCORE.INTER.CONST>
1

>  <SCORE.INTER.POLAR>
-1.61305

>  <SCORE.INTER.ROT>
6

>  <SCORE.INTER.SOLV>
18.1142

>  <SCORE.INTER.VDW>
-21.1669

>  <SCORE.INTER.norm>
-0.87993

>  <SCORE.INTRA>
2.06948

>  <SCORE.INTRA.DIHEDRAL>
3.07559

>  <SCORE.INTRA.DIHEDRAL.0>
5.05013

>  <SCORE.INTRA.POLAR>
0

>  <SCORE.INTRA.POLAR.0>
0

>  <SCORE.INTRA.REPUL>
0

>  <SCORE.INTRA.REPUL.0>
0

>  <SCORE.INTRA.SOLV>
0.356208

>  <SCORE.INTRA.SOLV.lig_0>
-54.1265

>  <SCORE.INTRA.VDW>
0.353584

>  <SCORE.INTRA.VDW.0>
-2.1303

>  <SCORE.INTRA.norm>
0.0940674

>  <SCORE.RESTR>
0

>  <SCORE.RESTR.CAVITY>
0

>  <SCORE.RESTR.norm>
0

>  <SCORE.SYSTEM>
0

>  <SCORE.SYSTEM.CONST>
0

>  <SCORE.SYSTEM.DIHEDRAL>
0

>  <SCORE.SYSTEM.SOLV>
0

>  <SCORE.SYSTEM.norm>
0

>  <SCORE.heavy>
22

>  <SCORE.norm>
-0.785863

>  <RMSD>
3.774

$$$$
ligand
 OpenBabel11021811443D
libRbt.so/2013.1/901 2013/11/27
 22 23  0  0  0  0  0  0  0  0999 V2000
   20.8765   42.9549   65.6576 C   0  0  0  0  0  0  0  0  0  0  0  0
   25.7781   38.1265   68.7820 C   0  0  0  0  0  0  0  0  0  0  0  0
   30.1955   36.1425   65.0711 P   0  0  1  0  0  0  0  0  0  0  0  0
   21.8959   41.4449   67.2081 N   0  0  0  0  0  0  0  0  0  0  0  0
   31.2590   35.9615   66.0921 O   0  0  0  0  0  0  0  0  0  0  0  0
   26.8548   37.7036   64.9260 S   0  0  0  0  0  0  0  0  0  0  0  0
   25.1961   37.7408   65.1904 C   0  0  0  0  0  0  0  0  0  0  0  0
   21.4574   41.6382   65.9159 C   0  0  0  0  0  0  0  0  0  0  0  0
   30.6568   35.9507   63.6719 O   0  5  0  0  0  0  0  0  0  0  0  0
   24.8140   37.8831   66.4776 N   0  0  0  0  0  0  0  0  0  0  0  0
   21.5297   40.7286   64.9813 N   0  0  0  0  0  0  0  0  0  0  0  0
   28.9916   35.3214   65.4176 O   0  0  0  0  0  0  0  0  0  0  0  0
   25.9399   37.9670   67.2988 C   0  0  2  0  0  0  0  0  0  0  0  0
   22.0898   39.4864   65.2611 C   0  0  0  0  0  0  0  0  0  0  0  0
   22.1377   38.5666   64.3020 N   0  0  0  0  0  0  0  0  0  0  0  0
   27.1419   37.8833   66.6367 C   0  0  1  0  0  0  0  0  0  0  0  0
   22.6108   39.2271   66.5931 C   0  0  0  0  0  0  0  0  0  0  0  0
   28.5095   37.9204   67.2178 C   0  0  0  0  0  0  0  0  0  0  0  0
   22.4486   40.2435   67.5130 C   0  0  0  0  0  0  0  0  0  0  0  0
   29.4949   38.4496   66.2446 C   0  0  0  0  0  0  0  0  0  0  0  0
   23.3380   37.9364   66.9186 C   0  0  0  0  0  0  0  0  0  0  0  0
   29.7527   37.6540   65.0871 O   0  0  0  0  0  0  0  0  0  0  0  0
  1  8  1  0  0  0  0
  3  5  1  1  0  0  0
  3  9  1  0  0  0  0
  3 12  2  0  0  0  0
  3 22  1  0  0  0  0
  4  8  2  0  0  0  0
  4 19  1  0  0  0  0
  6 16  1  0  0  0  0
  6  7  1  0  0  0  0
  7 10  1  0  0  0  0
  8 11  1  0  0  0  0
 10 13  1  0  0  0  0
 10 21  1  0  0  0  0
 11 14  2  0  0  0  0
 13  2  1  1  0  0  0
 13 16  1  0  0  0  0
 14 15  1  0  0  0  0
 14 17  1  0  0  0  0
 16 18  1  1  0  0  0
 17 19  2  0  0  0  0
 17 21  1  0  0  0  0
 18 20  1  0  0  0  0
 20 22  1  0  0  0  0
M  CHG  1   9  -1
M  END
>  <CHROM.1>
-73.65420512,28.04315158,79.93104401,-66.61594294,-54.36310380,-44.57190650
26.05325206,38.26807439,65.88700447,2.97241722,-0.45300362,1.37573049

>  <Name>
ligand

>  <RI>
0

>  <Rbt.Current_Directory>
/home/itssahil/PROJECTS/Mol_Feturizer/New_Systems/rnas/2HOM

>  <Rbt.Executable>
rbdock ($Id: //depot/dev/client3/rdock/2013.1/src/exe/rbdock.cxx#4 $)

>  <Rbt.Library>
libRbt.so (2013.1, Build901 2013/11/27)

>  <Rbt.Parameter_File>
/export/apps/rDock/src/rDock_2013.1_src/data/scripts/dock_solv.prm

>  <Rbt.Receptor>
prm/pocket_docking_7.prm

>  <SCORE>
-17.1868

>  <SCORE.INTER>
-18.7445

>  <SCORE.INTER.CONST>
1

>  <SCORE.INTER.POLAR>
-1.30767

>  <SCORE.INTER.ROT>
6

>  <SCORE.INTER.SOLV>
21.202

>  <SCORE.INTER.VDW>
-22.8048

>  <SCORE.INTER.norm>
-0.852023

>  <SCORE.INTRA>
1.55773

>  <SCORE.INTRA.DIHEDRAL>
0.305991

>  <SCORE.INTRA.DIHEDRAL.0>
5.05013

>  <SCORE.INTRA.POLAR>
0

>  <SCORE.INTRA.POLAR.0>
0

>  <SCORE.INTRA.REPUL>
0

>  <SCORE.INTRA.REPUL.0>
0

>  <SCORE.INTRA.SOLV>
2.68535

>  <SCORE.INTRA.SOLV.lig_0>
-54.1265

>  <SCORE.INTRA.VDW>
0.0620635

>  <SCORE.INTRA.VDW.0>
-2.1303

>  <SCORE.INTRA.norm>
0.070806

>  <SCORE.RESTR>
0

>  <SCORE.RESTR.CAVITY>
0

>  <SCORE.RESTR.norm>
0

>  <SCORE.SYSTEM>
0

>  <SCORE.SYSTEM.CONST>
0

>  <SCORE.SYSTEM.DIHEDRAL>
0

>  <SCORE.SYSTEM.SOLV>
0

>  <SCORE.SYSTEM.norm>
0

>  <SCORE.heavy>
22

>  <SCORE.norm>
-0.781217

>  <RMSD>
3.779

$$$$
ligand
 OpenBabel11021811443D
libRbt.so/2013.1/901 2013/11/27
 22 23  0  0  0  0  0  0  0  0999 V2000
   18.8361   40.7522   64.9700 C   0  0  0  0  0  0  0  0  0  0  0  0
   25.0833   46.0760   64.4312 C   0  0  0  0  0  0  0  0  0  0  0  0
   29.3251   41.3146   66.2820 P   0  0  1  0  0  0  0  0  0  0  0  0
   19.3225   43.0199   65.5569 N   0  0  0  0  0  0  0  0  0  0  0  0
   28.6088   40.0804   65.8696 O   0  0  0  0  0  0  0  0  0  0  0  0
   25.9035   43.5598   67.4648 S   0  0  0  0  0  0  0  0  0  0  0  0
   24.2665   43.8363   67.2067 C   0  0  0  0  0  0  0  0  0  0  0  0
   19.8378   41.7912   65.2049 C   0  0  0  0  0  0  0  0  0  0  0  0
   29.4758   41.4677   67.7520 O   0  5  0  0  0  0  0  0  0  0  0  0
   23.9702   44.6770   66.1926 N   0  0  0  0  0  0  0  0  0  0  0  0
   21.1158   41.5440   65.0975 N   0  0  0  0  0  0  0  0  0  0  0  0
   30.6174   41.4442   65.5357 O   0  0  0  0  0  0  0  0  0  0  0  0
   25.1471   45.1234   65.5887 C   0  0  2  0  0  0  0  0  0  0  0  0
   22.0420   42.5562   65.3269 C   0  0  0  0  0  0  0  0  0  0  0  0
   23.3395   42.2810   65.2311 N   0  0  0  0  0  0  0  0  0  0  0  0
   26.3025   44.6287   66.1459 C   0  0  1  0  0  0  0  0  0  0  0  0
   21.5679   43.8888   65.6620 C   0  0  0  0  0  0  0  0  0  0  0  0
   27.7052   44.9206   65.7504 C   0  0  0  0  0  0  0  0  0  0  0  0
   20.2003   44.0292   65.7863 C   0  0  0  0  0  0  0  0  0  0  0  0
   28.6411   43.9073   66.2943 C   0  0  0  0  0  0  0  0  0  0  0  0
   22.5271   45.0551   65.8044 C   0  0  0  0  0  0  0  0  0  0  0  0
   28.4327   42.5527   65.8930 O   0  0  0  0  0  0  0  0  0  0  0  0
  1  8  1  0  0  0  0
  3  5  1  6  0  0  0
  3  9  1  0  0  0  0
  3 12  2  0  0  0  0
  3 22  1  0  0  0  0
  4  8  2  0  0  0  0
  4 19  1  0  0  0  0
  6 16  1  0  0  0  0
  6  7  1  0  0  0  0
  7 10  1  0  0  0  0
  8 11  1  0  0  0  0
 10 13  1  0  0  0  0
 10 21  1  0  0  0  0
 11 14  2  0  0  0  0
 13  2  1  1  0  0  0
 13 16  1  0  0  0  0
 14 15  1  0  0  0  0
 14 17  1  0  0  0  0
 16 18  1  1  0  0  0
 17 19  2  0  0  0  0
 17 21  1  0  0  0  0
 18 20  1  0  0  0  0
 20 22  1  0  0  0  0
M  CHG  1   9  -1
M  END
>  <CHROM.1>
-48.31940463,17.89292148,-25.94382266,60.08440030,177.11181896,169.39377336
25.11961038,42.98530152,65.97475569,3.05906600,-0.10878089,0.02616685

>  <Name>
ligand

>  <RI>
0

>  <Rbt.Current_Directory>
/home/itssahil/PROJECTS/Mol_Feturizer/New_Systems/rnas/2HOM

>  <Rbt.Executable>
rbdock ($Id: //depot/dev/client3/rdock/2013.1/src/exe/rbdock.cxx#4 $)

>  <Rbt.Library>
libRbt.so (2013.1, Build901 2013/11/27)

>  <Rbt.Parameter_File>
/export/apps/rDock/src/rDock_2013.1_src/data/scripts/dock_solv.prm

>  <Rbt.Receptor>
prm/pocket_docking_6.prm

>  <SCORE>
-17.5593

>  <SCORE.INTER>
-20.5502

>  <SCORE.INTER.CONST>
1

>  <SCORE.INTER.POLAR>
-1.18267

>  <SCORE.INTER.ROT>
6

>  <SCORE.INTER.SOLV>
11.4431

>  <SCORE.INTER.VDW>
-21.1723

>  <SCORE.INTER.norm>
-0.934099

>  <SCORE.INTRA>
2.99089

>  <SCORE.INTRA.DIHEDRAL>
-0.26652

>  <SCORE.INTRA.DIHEDRAL.0>
5.05013

>  <SCORE.INTRA.POLAR>
0

>  <SCORE.INTRA.POLAR.0>
0

>  <SCORE.INTRA.REPUL>
0

>  <SCORE.INTRA.REPUL.0>
0

>  <SCORE.INTRA.SOLV>
4.05208

>  <SCORE.INTRA.SOLV.lig_0>
-54.1265

>  <SCORE.INTRA.VDW>
1.09811

>  <SCORE.INTRA.VDW.0>
-2.1303

>  <SCORE.INTRA.norm>
0.13595

>  <SCORE.RESTR>
0

>  <SCORE.RESTR.CAVITY>
0

>  <SCORE.RESTR.norm>
0

>  <SCORE.SYSTEM>
0

>  <SCORE.SYSTEM.CONST>
0

>  <SCORE.SYSTEM.DIHEDRAL>
0

>  <SCORE.SYSTEM.SOLV>
0

>  <SCORE.SYSTEM.norm>
0

>  <SCORE.heavy>
22

>  <SCORE.norm>
-0.798149

>  <RMSD>
3.800

$$$$
ligand
 OpenBabel11021811443D
libRbt.so/2013.1/901 2013/11/27
 22 23  0  0  0  0  0  0  0  0999 V2000
   22.5257   45.5330   66.3267 C   0  0  0  0  0  0  0  0  0  0  0  0
   22.4166   39.9462   68.0257 C   0  0  0  0  0  0  0  0  0  0  0  0
   28.2203   38.2892   68.8822 P   0  0  1  0  0  0  0  0  0  0  0  0
   20.8072   43.8781   66.1486 N   0  0  0  0  0  0  0  0  0  0  0  0
   28.7489   38.0726   70.2533 O   0  0  0  0  0  0  0  0  0  0  0  0
   23.3802   37.0242   65.4295 S   0  0  0  0  0  0  0  0  0  0  0  0
   22.2003   38.0874   64.8816 C   0  0  0  0  0  0  0  0  0  0  0  0
   22.1546   44.1475   66.0426 C   0  0  0  0  0  0  0  0  0  0  0  0
   28.0834   39.7188   68.5021 O   0  5  0  0  0  0  0  0  0  0  0  0
   21.8635   39.0757   65.7376 N   0  0  0  0  0  0  0  0  0  0  0  0
   23.0480   43.2576   65.7023 N   0  0  0  0  0  0  0  0  0  0  0  0
   28.9969   37.4818   67.8879 O   0  0  0  0  0  0  0  0  0  0  0  0
   22.6112   38.9609   66.9110 C   0  0  2  0  0  0  0  0  0  0  0  0
   22.6606   41.9476   65.4399 C   0  0  0  0  0  0  0  0  0  0  0  0
   23.5817   41.0600   65.0767 N   0  0  0  0  0  0  0  0  0  0  0  0
   23.4875   37.9017   66.9328 C   0  0  1  0  0  0  0  0  0  0  0  0
   21.2599   41.5822   65.5726 C   0  0  0  0  0  0  0  0  0  0  0  0
   24.4044   37.4970   68.0304 C   0  0  0  0  0  0  0  0  0  0  0  0
   20.3969   42.6086   65.9001 C   0  0  0  0  0  0  0  0  0  0  0  0
   25.7537   38.0847   67.8505 C   0  0  0  0  0  0  0  0  0  0  0  0
   20.8010   40.1451   65.4156 C   0  0  0  0  0  0  0  0  0  0  0  0
   26.7320   37.7750   68.8436 O   0  0  0  0  0  0  0  0  0  0  0  0
  1  8  1  0  0  0  0
  3  5  1  1  0  0  0
  3  9  1  0  0  0  0
  3 12  2  0  0  0  0
  3 22  1  0  0  0  0
  4  8  2  0  0  0  0
  4 19  1  0  0  0  0
  6 16  1  0  0  0  0
  6  7  1  0  0  0  0
  7 10  1  0  0  0  0
  8 11  1  0  0  0  0
 10 13  1  0  0  0  0
 10 21  1  0  0  0  0
 11 14  2  0  0  0  0
 13  2  1  1  0  0  0
 13 16  1  0  0  0  0
 14 15  1  0  0  0  0
 14 17  1  0  0  0  0
 16 18  1  1  0  0  0
 17 19  2  0  0  0  0
 17 21  1  0  0  0  0
 18 20  1  0  0  0  0
 20 22  1  0  0  0  0
M  CHG  1   9  -1
M  END
>  <CHROM.1>
-126.48242497,86.73180194,26.18309027,179.82707781,-179.23541494,163.31740196
24.18426483,39.78648223,66.92501953,-2.58764438,0.49158427,-3.05657759

>  <Name>
ligand

>  <RI>
0

>  <Rbt.Current_Directory>
/home/itssahil/PROJECTS/Mol_Feturizer/New_Systems/rnas/2HOM

>  <Rbt.Executable>
rbdock ($Id: //depot/dev/client3/rdock/2013.1/src/exe/rbdock.cxx#4 $)

>  <Rbt.Library>
libRbt.so (2013.1, Build901 2013/11/27)

>  <Rbt.Parameter_File>
/export/apps/rDock/src/rDock_2013.1_src/data/scripts/dock_solv.prm

>  <Rbt.Receptor>
prm/pocket_docking_7.prm

>  <SCORE>
-22.2973

>  <SCORE.INTER>
-24.8748

>  <SCORE.INTER.CONST>
1

>  <SCORE.INTER.POLAR>
-1.63148

>  <SCORE.INTER.ROT>
6

>  <SCORE.INTER.SOLV>
11.3555

>  <SCORE.INTER.VDW>
-22.5301

>  <SCORE.INTER.norm>
-1.13067

>  <SCORE.INTRA>
2.57756

>  <SCORE.INTRA.DIHEDRAL>
0.471833

>  <SCORE.INTRA.DIHEDRAL.0>
5.05013

>  <SCORE.INTRA.POLAR>
0

>  <SCORE.INTRA.POLAR.0>
0

>  <SCORE.INTRA.REPUL>
0

>  <SCORE.INTRA.REPUL.0>
0

>  <SCORE.INTRA.SOLV>
4.77499

>  <SCORE.INTRA.SOLV.lig_0>
-54.1265

>  <SCORE.INTRA.VDW>
-0.0458565

>  <SCORE.INTRA.VDW.0>
-2.1303

>  <SCORE.INTRA.norm>
0.117162

>  <SCORE.RESTR>
0

>  <SCORE.RESTR.CAVITY>
0

>  <SCORE.RESTR.norm>
0

>  <SCORE.SYSTEM>
0

>  <SCORE.SYSTEM.CONST>
0

>  <SCORE.SYSTEM.DIHEDRAL>
0

>  <SCORE.SYSTEM.SOLV>
0

>  <SCORE.SYSTEM.norm>
0

>  <SCORE.heavy>
22

>  <SCORE.norm>
-1.01351

>  <RMSD>
3.802

$$$$
ligand
 OpenBabel11021811443D
libRbt.so/2013.1/901 2013/11/27
 22 23  0  0  0  0  0  0  0  0999 V2000
   22.5568   45.5651   66.3039 C   0  0  0  0  0  0  0  0  0  0  0  0
   22.4488   39.9455   68.0760 C   0  0  0  0  0  0  0  0  0  0  0  0
   28.2247   38.4622   69.0738 P   0  0  1  0  0  0  0  0  0  0  0  0
   20.8537   43.8908   66.1647 N   0  0  0  0  0  0  0  0  0  0  0  0
   28.7384   38.1849   70.4396 O   0  0  0  0  0  0  0  0  0  0  0  0
   23.5032   37.0766   65.4560 S   0  0  0  0  0  0  0  0  0  0  0  0
   22.3156   38.1285   64.9030 C   0  0  0  0  0  0  0  0  0  0  0  0
   22.1956   44.1748   66.0309 C   0  0  0  0  0  0  0  0  0  0  0  0
   28.0261   39.9050   68.7801 O   0  5  0  0  0  0  0  0  0  0  0  0
   21.9484   39.0991   65.7669 N   0  0  0  0  0  0  0  0  0  0  0  0
   23.0919   43.2938   65.6750 N   0  0  0  0  0  0  0  0  0  0  0  0
   29.0571   37.7563   68.0478 O   0  0  0  0  0  0  0  0  0  0  0  0
   22.6781   38.9794   66.9511 C   0  0  2  0  0  0  0  0  0  0  0  0
   22.7138   41.9789   65.4239 C   0  0  0  0  0  0  0  0  0  0  0  0
   23.6373   41.1005   65.0446 N   0  0  0  0  0  0  0  0  0  0  0  0
   23.5709   37.9341   66.9730 C   0  0  1  0  0  0  0  0  0  0  0  0
   21.3203   41.5984   65.5857 C   0  0  0  0  0  0  0  0  0  0  0  0
   24.4756   37.5285   68.0804 C   0  0  0  0  0  0  0  0  0  0  0  0
   20.4526   42.6161   65.9278 C   0  0  0  0  0  0  0  0  0  0  0  0
   25.7985   38.1880   67.9652 C   0  0  0  0  0  0  0  0  0  0  0  0
   20.8743   40.1558   65.4418 C   0  0  0  0  0  0  0  0  0  0  0  0
   26.7638   37.8823   68.9722 O   0  0  0  0  0  0  0  0  0  0  0  0
  1  8  1  0  0  0  0
  3  5  1  1  0  0  0
  3  9  1  0  0  0  0
  3 12  2  0  0  0  0
  3 22  1  0  0  0  0
  4  8  2  0  0  0  0
  4 19  1  0  0  0  0
  6 16  1  0  0  0  0
  6  7  1  0  0  0  0
  7 10  1  0  0  0  0
  8 11  1  0  0  0  0
 10 13  1  0  0  0  0
 10 21  1  0  0  0  0
 11 14  2  0  0  0  0
 13  2  1  1  0  0  0
 13 16  1  0  0  0  0
 14 15  1  0  0  0  0
 14 17  1  0  0  0  0
 16 18  1  1  0  0  0
 17 19  2  0  0  0  0
 17 21  1  0  0  0  0
 18 20  1  0  0  0  0
 20 22  1  0  0  0  0
M  CHG  1   9  -1
M  END
>  <CHROM.1>
-124.68854097,89.28532097,27.11592632,179.96168539,-179.42809917,164.61605791
24.23443811,39.85754041,66.99310386,-2.60965376,0.51796161,-3.05314672

>  <Name>
ligand

>  <RI>
0

>  <Rbt.Current_Directory>
/home/itssahil/PROJECTS/Mol_Feturizer/New_Systems/rnas/2HOM

>  <Rbt.Executable>
rbdock ($Id: //depot/dev/client3/rdock/2013.1/src/exe/rbdock.cxx#4 $)

>  <Rbt.Library>
libRbt.so (2013.1, Build901 2013/11/27)

>  <Rbt.Parameter_File>
/export/apps/rDock/src/rDock_2013.1_src/data/scripts/dock_solv.prm

>  <Rbt.Receptor>
prm/pocket_docking_5.prm

>  <SCORE>
-22.289

>  <SCORE.INTER>
-24.5763

>  <SCORE.INTER.CONST>
1

>  <SCORE.INTER.POLAR>
-1.63459

>  <SCORE.INTER.ROT>
6

>  <SCORE.INTER.SOLV>
11.6469

>  <SCORE.INTER.VDW>
-22.4179

>  <SCORE.INTER.norm>
-1.11711

>  <SCORE.INTRA>
2.2873

>  <SCORE.INTRA.DIHEDRAL>
0.36962

>  <SCORE.INTRA.DIHEDRAL.0>
5.05013

>  <SCORE.INTRA.POLAR>
0

>  <SCORE.INTRA.POLAR.0>
0

>  <SCORE.INTRA.REPUL>
0

>  <SCORE.INTRA.REPUL.0>
0

>  <SCORE.INTRA.SOLV>
4.58712

>  <SCORE.INTRA.SOLV.lig_0>
-54.1265

>  <SCORE.INTRA.VDW>
-0.191071

>  <SCORE.INTRA.VDW.0>
-2.1303

>  <SCORE.INTRA.norm>
0.103968

>  <SCORE.RESTR>
0

>  <SCORE.RESTR.CAVITY>
0

>  <SCORE.RESTR.norm>
0

>  <SCORE.SYSTEM>
0

>  <SCORE.SYSTEM.CONST>
0

>  <SCORE.SYSTEM.DIHEDRAL>
0

>  <SCORE.SYSTEM.SOLV>
0

>  <SCORE.SYSTEM.norm>
0

>  <SCORE.heavy>
22

>  <SCORE.norm>
-1.01314

>  <RMSD>
3.811

$$$$
ligand
 OpenBabel11021811443D
libRbt.so/2013.1/901 2013/11/27
 22 23  0  0  0  0  0  0  0  0999 V2000
   20.8298   40.3278   65.5644 C   0  0  0  0  0  0  0  0  0  0  0  0
   28.7236   41.3910   63.5236 C   0  0  0  0  0  0  0  0  0  0  0  0
   29.0861   36.8737   66.4259 P   0  0  1  0  0  0  0  0  0  0  0  0
   23.0222   40.1503   64.6236 N   0  0  0  0  0  0  0  0  0  0  0  0
   29.2082   36.0045   67.6242 O   0  0  0  0  0  0  0  0  0  0  0  0
   28.2515   41.3172   67.5209 S   0  0  0  0  0  0  0  0  0  0  0  0
   26.9434   41.9428   66.6721 C   0  0  0  0  0  0  0  0  0  0  0  0
   22.1102   40.9646   65.2595 C   0  0  0  0  0  0  0  0  0  0  0  0
   29.6508   36.2822   65.1856 O   0  5  0  0  0  0  0  0  0  0  0  0
   27.0816   41.9753   65.3294 N   0  0  0  0  0  0  0  0  0  0  0  0
   22.3408   42.2139   65.5633 N   0  0  0  0  0  0  0  0  0  0  0  0
   27.6754   37.3517   66.2672 O   0  0  0  0  0  0  0  0  0  0  0  0
   28.3279   41.4597   64.9692 C   0  0  2  0  0  0  0  0  0  0  0  0
   23.5708   42.7882   65.2599 C   0  0  0  0  0  0  0  0  0  0  0  0
   23.7806   44.0665   65.5599 N   0  0  0  0  0  0  0  0  0  0  0  0
   29.1092   41.0541   66.0254 C   0  0  1  0  0  0  0  0  0  0  0  0
   24.5959   41.9756   64.6258 C   0  0  0  0  0  0  0  0  0  0  0  0
   30.4809   40.4834   65.9808 C   0  0  0  0  0  0  0  0  0  0  0  0
   24.2327   40.6806   64.3149 C   0  0  0  0  0  0  0  0  0  0  0  0
   30.4543   39.0411   65.6381 C   0  0  0  0  0  0  0  0  0  0  0  0
   25.9922   42.5155   64.3820 C   0  0  0  0  0  0  0  0  0  0  0  0
   29.9897   38.1446   66.6478 O   0  0  0  0  0  0  0  0  0  0  0  0
  1  8  1  0  0  0  0
  3  5  1  1  0  0  0
  3  9  1  0  0  0  0
  3 12  2  0  0  0  0
  3 22  1  0  0  0  0
  4  8  2  0  0  0  0
  4 19  1  0  0  0  0
  6 16  1  0  0  0  0
  6  7  1  0  0  0  0
  7 10  1  0  0  0  0
  8 11  1  0  0  0  0
 10 13  1  0  0  0  0
 10 21  1  0  0  0  0
 11 14  2  0  0  0  0
 13  2  1  1  0  0  0
 13 16  1  0  0  0  0
 14 15  1  0  0  0  0
 14 17  1  0  0  0  0
 16 18  1  1  0  0  0
 17 19  2  0  0  0  0
 17 21  1  0  0  0  0
 18 20  1  0  0  0  0
 20 22  1  0  0  0  0
M  CHG  1   9  -1
M  END
>  <CHROM.1>
-49.01119397,100.30911588,105.31295321,-72.82003923,141.15684782,161.74403450
26.91467171,40.15511567,65.75902142,2.56638293,-0.09631986,-0.13021202

>  <Name>
ligand

>  <RI>
0

>  <Rbt.Current_Directory>
/home/itssahil/PROJECTS/Mol_Feturizer/New_Systems/rnas/2HOM

>  <Rbt.Executable>
rbdock ($Id: //depot/dev/client3/rdock/2013.1/src/exe/rbdock.cxx#4 $)

>  <Rbt.Library>
libRbt.so (2013.1, Build901 2013/11/27)

>  <Rbt.Parameter_File>
/export/apps/rDock/src/rDock_2013.1_src/data/scripts/dock_solv.prm

>  <Rbt.Receptor>
prm/pocket_docking_6.prm

>  <SCORE>
-6.09106

>  <SCORE.INTER>
-9.15262

>  <SCORE.INTER.CONST>
1

>  <SCORE.INTER.POLAR>
-1.73129

>  <SCORE.INTER.ROT>
6

>  <SCORE.INTER.SOLV>
9.41281

>  <SCORE.INTER.VDW>
-11.0684

>  <SCORE.INTER.norm>
-0.416028

>  <SCORE.INTRA>
3.06156

>  <SCORE.INTRA.DIHEDRAL>
5.95382

>  <SCORE.INTRA.DIHEDRAL.0>
5.05013

>  <SCORE.INTRA.POLAR>
0

>  <SCORE.INTRA.POLAR.0>
0

>  <SCORE.INTRA.REPUL>
0

>  <SCORE.INTRA.REPUL.0>
0

>  <SCORE.INTRA.SOLV>
0.866498

>  <SCORE.INTRA.SOLV.lig_0>
-54.1265

>  <SCORE.INTRA.VDW>
-0.3486

>  <SCORE.INTRA.VDW.0>
-2.1303

>  <SCORE.INTRA.norm>
0.139162

>  <SCORE.RESTR>
0

>  <SCORE.RESTR.CAVITY>
0

>  <SCORE.RESTR.norm>
0

>  <SCORE.SYSTEM>
0

>  <SCORE.SYSTEM.CONST>
0

>  <SCORE.SYSTEM.DIHEDRAL>
0

>  <SCORE.SYSTEM.SOLV>
0

>  <SCORE.SYSTEM.norm>
0

>  <SCORE.heavy>
22

>  <SCORE.norm>
-0.276866

>  <RMSD>
3.932

$$$$
ligand
 OpenBabel11021811443D
libRbt.so/2013.1/901 2013/11/27
 22 23  0  0  0  0  0  0  0  0999 V2000
   22.8422   45.6656   66.7219 C   0  0  0  0  0  0  0  0  0  0  0  0
   26.6181   40.3344   65.9195 C   0  0  0  0  0  0  0  0  0  0  0  0
   29.3449   36.6817   65.3178 P   0  0  1  0  0  0  0  0  0  0  0  0
   22.2284   43.3601   66.5445 N   0  0  0  0  0  0  0  0  0  0  0  0
   30.4896   36.2164   66.1421 O   0  0  0  0  0  0  0  0  0  0  0  0
   24.2903   37.5656   67.6864 S   0  0  0  0  0  0  0  0  0  0  0  0
   23.5197   38.4784   66.5051 C   0  0  0  0  0  0  0  0  0  0  0  0
   23.1147   44.3432   66.1607 C   0  0  0  0  0  0  0  0  0  0  0  0
   29.7203   37.6254   64.2335 O   0  5  0  0  0  0  0  0  0  0  0  0
   24.2839   39.4124   65.8994 N   0  0  0  0  0  0  0  0  0  0  0  0
   24.1178   44.1394   65.3493 N   0  0  0  0  0  0  0  0  0  0  0  0
   28.5373   35.5153   64.8371 O   0  0  0  0  0  0  0  0  0  0  0  0
   25.5753   39.3834   66.4290 C   0  0  2  0  0  0  0  0  0  0  0  0
   24.3491   42.8681   64.8344 C   0  0  0  0  0  0  0  0  0  0  0  0
   25.3640   42.6839   63.9951 N   0  0  0  0  0  0  0  0  0  0  0  0
   25.7705   38.4475   67.4170 C   0  0  1  0  0  0  0  0  0  0  0  0
   23.4779   41.7736   65.2293 C   0  0  0  0  0  0  0  0  0  0  0  0
   27.0126   38.1781   68.1876 C   0  0  0  0  0  0  0  0  0  0  0  0
   22.4275   42.1081   66.0602 C   0  0  0  0  0  0  0  0  0  0  0  0
   27.8688   37.1819   67.4999 C   0  0  0  0  0  0  0  0  0  0  0  0
   23.7554   40.3475   64.7938 C   0  0  0  0  0  0  0  0  0  0  0  0
   28.4067   37.5570   66.2313 O   0  0  0  0  0  0  0  0  0  0  0  0
  1  8  1  0  0  0  0
  3  5  1  1  0  0  0
  3  9  1  0  0  0  0
  3 12  2  0  0  0  0
  3 22  1  0  0  0  0
  4  8  2  0  0  0  0
  4 19  1  0  0  0  0
  6 16  1  0  0  0  0
  6  7  1  0  0  0  0
  7 10  1  0  0  0  0
  8 11  1  0  0  0  0
 10 13  1  0  0  0  0
 10 21  1  0  0  0  0
 11 14  2  0  0  0  0
 13  2  1  1  0  0  0
 13 16  1  0  0  0  0
 14 15  1  0  0  0  0
 14 17  1  0  0  0  0
 16 18  1  1  0  0  0
 17 19  2  0  0  0  0
 17 21  1  0  0  0  0
 18 20  1  0  0  0  0
 20 22  1  0  0  0  0
M  CHG  1   9  -1
M  END
>  <CHROM.1>
104.08803499,91.93392878,106.85907507,64.43499665,179.57337336,-52.10286305
25.86008875,39.59654603,66.03874079,-2.37414329,-0.45809547,2.71418142

>  <Name>
ligand

>  <RI>
0

>  <Rbt.Current_Directory>
/home/itssahil/PROJECTS/Mol_Feturizer/New_Systems/rnas/2HOM

>  <Rbt.Executable>
rbdock ($Id: //depot/dev/client3/rdock/2013.1/src/exe/rbdock.cxx#4 $)

>  <Rbt.Library>
libRbt.so (2013.1, Build901 2013/11/27)

>  <Rbt.Parameter_File>
/export/apps/rDock/src/rDock_2013.1_src/data/scripts/dock_solv.prm

>  <Rbt.Receptor>
prm/pocket_docking_8.prm

>  <SCORE>
-14.4247

>  <SCORE.INTER>
-14.6873

>  <SCORE.INTER.CONST>
1

>  <SCORE.INTER.POLAR>
-1.30767

>  <SCORE.INTER.ROT>
6

>  <SCORE.INTER.SOLV>
10.0072

>  <SCORE.INTER.VDW>
-16.3683

>  <SCORE.INTER.norm>
-0.667604

>  <SCORE.INTRA>
0.262611

>  <SCORE.INTRA.DIHEDRAL>
-0.0967208

>  <SCORE.INTRA.DIHEDRAL.0>
5.05013

>  <SCORE.INTRA.POLAR>
0

>  <SCORE.INTRA.POLAR.0>
0

>  <SCORE.INTRA.REPUL>
0

>  <SCORE.INTRA.REPUL.0>
0

>  <SCORE.INTRA.SOLV>
1.90421

>  <SCORE.INTRA.SOLV.lig_0>
-54.1265

>  <SCORE.INTRA.VDW>
-0.641132

>  <SCORE.INTRA.VDW.0>
-2.1303

>  <SCORE.INTRA.norm>
0.0119369

>  <SCORE.RESTR>
0

>  <SCORE.RESTR.CAVITY>
0

>  <SCORE.RESTR.norm>
0

>  <SCORE.SYSTEM>
0

>  <SCORE.SYSTEM.CONST>
0

>  <SCORE.SYSTEM.DIHEDRAL>
0

>  <SCORE.SYSTEM.SOLV>
0

>  <SCORE.SYSTEM.norm>
0

>  <SCORE.heavy>
22

>  <SCORE.norm>
-0.655667

>  <RMSD>
3.973

$$$$
ligand
 OpenBabel11021811443D
libRbt.so/2013.1/901 2013/11/27
 22 23  0  0  0  0  0  0  0  0999 V2000
   22.6046   45.7935   66.5862 C   0  0  0  0  0  0  0  0  0  0  0  0
   22.3267   39.9087   68.1365 C   0  0  0  0  0  0  0  0  0  0  0  0
   28.0932   36.2090   69.1162 P   0  0  1  0  0  0  0  0  0  0  0  0
   23.2110   43.4917   66.3468 N   0  0  0  0  0  0  0  0  0  0  0  0
   28.0811   34.9590   68.3139 O   0  0  0  0  0  0  0  0  0  0  0  0
   24.0613   37.3835   65.5247 S   0  0  0  0  0  0  0  0  0  0  0  0
   22.9632   38.4548   64.8398 C   0  0  0  0  0  0  0  0  0  0  0  0
   22.1989   44.4242   66.2727 C   0  0  0  0  0  0  0  0  0  0  0  0
   28.4292   36.0084   70.5494 O   0  5  0  0  0  0  0  0  0  0  0  0
   22.3709   39.3113   65.6993 N   0  0  0  0  0  0  0  0  0  0  0  0
   20.9639   44.1317   65.9641 N   0  0  0  0  0  0  0  0  0  0  0  0
   28.9364   37.2517   68.4487 O   0  0  0  0  0  0  0  0  0  0  0  0
   22.8393   39.0817   66.9942 C   0  0  2  0  0  0  0  0  0  0  0  0
   20.6124   42.8183   65.6702 C   0  0  0  0  0  0  0  0  0  0  0  0
   19.3464   42.5368   65.3765 N   0  0  0  0  0  0  0  0  0  0  0  0
   23.7615   38.0676   67.1006 C   0  0  1  0  0  0  0  0  0  0  0  0
   21.6382   41.7885   65.6885 C   0  0  0  0  0  0  0  0  0  0  0  0
   24.4322   37.5678   68.3293 C   0  0  0  0  0  0  0  0  0  0  0  0
   22.9007   42.2011   66.0645 C   0  0  0  0  0  0  0  0  0  0  0  0
   25.8711   37.3034   68.0889 C   0  0  0  0  0  0  0  0  0  0  0  0
   21.3352   40.3653   65.2606 C   0  0  0  0  0  0  0  0  0  0  0  0
   26.6211   36.7658   69.1788 O   0  0  0  0  0  0  0  0  0  0  0  0
  1  8  1  0  0  0  0
  3  5  1  6  0  0  0
  3  9  1  0  0  0  0
  3 12  2  0  0  0  0
  3 22  1  0  0  0  0
  4  8  2  0  0  0  0
  4 19  1  0  0  0  0
  6 16  1  0  0  0  0
  6  7  1  0  0  0  0
  7 10  1  0  0  0  0
  8 11  1  0  0  0  0
 10 13  1  0  0  0  0
 10 21  1  0  0  0  0
 11 14  2  0  0  0  0
 13  2  1  1  0  0  0
 13 16  1  0  0  0  0
 14 15  1  0  0  0  0
 14 17  1  0  0  0  0
 16 18  1  1  0  0  0
 17 19  2  0  0  0  0
 17 21  1  0  0  0  0
 18 20  1  0  0  0  0
 20 22  1  0  0  0  0
M  CHG  1   9  -1
M  END
>  <CHROM.1>
-126.81418023,42.52072306,-163.37899043,-177.52323430,170.49657245,-68.16380508
24.17652511,39.38737463,67.09833776,-2.44997043,0.59458634,-2.95554727

>  <Name>
ligand

>  <RI>
0

>  <Rbt.Current_Directory>
/home/itssahil/PROJECTS/Mol_Feturizer/New_Systems/rnas/2HOM

>  <Rbt.Executable>
rbdock ($Id: //depot/dev/client3/rdock/2013.1/src/exe/rbdock.cxx#4 $)

>  <Rbt.Library>
libRbt.so (2013.1, Build901 2013/11/27)

>  <Rbt.Parameter_File>
/export/apps/rDock/src/rDock_2013.1_src/data/scripts/dock_solv.prm

>  <Rbt.Receptor>
prm/pocket_docking_7.prm

>  <SCORE>
-20.623

>  <SCORE.INTER>
-21.7675

>  <SCORE.INTER.CONST>
1

>  <SCORE.INTER.POLAR>
-1.63459

>  <SCORE.INTER.ROT>
6

>  <SCORE.INTER.SOLV>
21.2817

>  <SCORE.INTER.VDW>
-23.7569

>  <SCORE.INTER.norm>
-0.989431

>  <SCORE.INTRA>
1.14444

>  <SCORE.INTRA.DIHEDRAL>
0.454641

>  <SCORE.INTRA.DIHEDRAL.0>
5.05013

>  <SCORE.INTRA.POLAR>
0

>  <SCORE.INTRA.POLAR.0>
0

>  <SCORE.INTRA.REPUL>
0

>  <SCORE.INTRA.REPUL.0>
0

>  <SCORE.INTRA.SOLV>
0.00238822

>  <SCORE.INTRA.SOLV.lig_0>
-54.1265

>  <SCORE.INTRA.VDW>
0.915929

>  <SCORE.INTRA.VDW.0>
-2.1303

>  <SCORE.INTRA.norm>
0.0520202

>  <SCORE.RESTR>
0

>  <SCORE.RESTR.CAVITY>
0

>  <SCORE.RESTR.norm>
0

>  <SCORE.SYSTEM>
0

>  <SCORE.SYSTEM.CONST>
0

>  <SCORE.SYSTEM.DIHEDRAL>
0

>  <SCORE.SYSTEM.SOLV>
0

>  <SCORE.SYSTEM.norm>
0

>  <SCORE.heavy>
22

>  <SCORE.norm>
-0.937411

>  <RMSD>
4.040

$$$$
ligand
 OpenBabel11021811443D
libRbt.so/2013.1/901 2013/11/27
 22 23  0  0  0  0  0  0  0  0999 V2000
   22.4602   45.5417   66.3338 C   0  0  0  0  0  0  0  0  0  0  0  0
   22.4612   39.9850   68.0404 C   0  0  0  0  0  0  0  0  0  0  0  0
   27.6496   36.7545   68.8773 P   0  0  1  0  0  0  0  0  0  0  0  0
   20.7892   43.8415   66.1330 N   0  0  0  0  0  0  0  0  0  0  0  0
   26.7777   35.5532   68.9319 O   0  0  0  0  0  0  0  0  0  0  0  0
   23.5372   37.0468   65.5074 S   0  0  0  0  0  0  0  0  0  0  0  0
   22.3455   38.0759   64.9212 C   0  0  0  0  0  0  0  0  0  0  0  0
   22.1301   44.1471   66.0441 C   0  0  0  0  0  0  0  0  0  0  0  0
   27.7623   37.4831   70.1672 O   0  5  0  0  0  0  0  0  0  0  0  0
   21.9711   39.0692   65.7556 N   0  0  0  0  0  0  0  0  0  0  0  0
   23.0513   43.2818   65.7143 N   0  0  0  0  0  0  0  0  0  0  0  0
   28.9757   36.4121   68.2706 O   0  0  0  0  0  0  0  0  0  0  0  0
   22.6984   38.9879   66.9446 C   0  0  2  0  0  0  0  0  0  0  0  0
   22.7024   41.9621   65.4462 C   0  0  0  0  0  0  0  0  0  0  0  0
   23.6515   41.1000   65.0939 N   0  0  0  0  0  0  0  0  0  0  0  0
   23.5965   37.9484   66.9990 C   0  0  1  0  0  0  0  0  0  0  0  0
   21.3105   41.5591   65.5611 C   0  0  0  0  0  0  0  0  0  0  0  0
   24.5006   37.5799   68.1198 C   0  0  0  0  0  0  0  0  0  0  0  0
   20.4163   42.5617   65.8785 C   0  0  0  0  0  0  0  0  0  0  0  0
   25.7017   38.4486   68.1520 C   0  0  0  0  0  0  0  0  0  0  0  0
   20.8924   40.1104   65.3974 C   0  0  0  0  0  0  0  0  0  0  0  0
   26.9638   37.8159   67.9372 O   0  0  0  0  0  0  0  0  0  0  0  0
  1  8  1  0  0  0  0
  3  5  1  1  0  0  0
  3  9  1  0  0  0  0
  3 12  2  0  0  0  0
  3 22  1  0  0  0  0
  4  8  2  0  0  0  0
  4 19  1  0  0  0  0
  6 16  1  0  0  0  0
  6  7  1  0  0  0  0
  7 10  1  0  0  0  0
  8 11  1  0  0  0  0
 10 13  1  0  0  0  0
 10 21  1  0  0  0  0
 11 14  2  0  0  0  0
 13  2  1  1  0  0  0
 13 16  1  0  0  0  0
 14 15  1  0  0  0  0
 14 17  1  0  0  0  0
 16 18  1  1  0  0  0
 17 19  2  0  0  0  0
 17 21  1  0  0  0  0
 18 20  1  0  0  0  0
 20 22  1  0  0  0  0
M  CHG  1   9  -1
M  END
>  <CHROM.1>
-127.35674849,101.26733734,27.21262839,-116.38773351,-65.45253120,62.69852838
24.07540438,39.39598968,66.94516103,-2.42553267,0.56605719,-3.02270334

>  <Name>
ligand

>  <RI>
0

>  <Rbt.Current_Directory>
/home/itssahil/PROJECTS/Mol_Feturizer/New_Systems/rnas/2HOM

>  <Rbt.Executable>
rbdock ($Id: //depot/dev/client3/rdock/2013.1/src/exe/rbdock.cxx#4 $)

>  <Rbt.Library>
libRbt.so (2013.1, Build901 2013/11/27)

>  <Rbt.Parameter_File>
/export/apps/rDock/src/rDock_2013.1_src/data/scripts/dock_solv.prm

>  <Rbt.Receptor>
prm/pocket_docking_6.prm

>  <SCORE>
-21.3122

>  <SCORE.INTER>
-26.0951

>  <SCORE.INTER.CONST>
1

>  <SCORE.INTER.POLAR>
-1.63459

>  <SCORE.INTER.ROT>
6

>  <SCORE.INTER.SOLV>
11.4139

>  <SCORE.INTER.VDW>
-23.3527

>  <SCORE.INTER.norm>
-1.18614

>  <SCORE.INTRA>
4.78283

>  <SCORE.INTRA.DIHEDRAL>
5.41055

>  <SCORE.INTRA.DIHEDRAL.0>
5.05013

>  <SCORE.INTRA.POLAR>
0

>  <SCORE.INTRA.POLAR.0>
0

>  <SCORE.INTRA.REPUL>
0

>  <SCORE.INTRA.REPUL.0>
0

>  <SCORE.INTRA.SOLV>
4.7798

>  <SCORE.INTRA.SOLV.lig_0>
-54.1265

>  <SCORE.INTRA.VDW>
-0.31234

>  <SCORE.INTRA.VDW.0>
-2.1303

>  <SCORE.INTRA.norm>
0.217401

>  <SCORE.RESTR>
0

>  <SCORE.RESTR.CAVITY>
0

>  <SCORE.RESTR.norm>
0

>  <SCORE.SYSTEM>
0

>  <SCORE.SYSTEM.CONST>
0

>  <SCORE.SYSTEM.DIHEDRAL>
0

>  <SCORE.SYSTEM.SOLV>
0

>  <SCORE.SYSTEM.norm>
0

>  <SCORE.heavy>
22

>  <SCORE.norm>
-0.968737

>  <RMSD>
4.042

$$$$
ligand
 OpenBabel11021811443D
libRbt.so/2013.1/901 2013/11/27
 22 23  0  0  0  0  0  0  0  0999 V2000
   22.4630   45.5595   66.3199 C   0  0  0  0  0  0  0  0  0  0  0  0
   22.5429   39.9852   68.0571 C   0  0  0  0  0  0  0  0  0  0  0  0
   27.7103   37.0045   69.3734 P   0  0  1  0  0  0  0  0  0  0  0  0
   20.8226   43.8291   66.1246 N   0  0  0  0  0  0  0  0  0  0  0  0
   26.9856   35.8190   68.8483 O   0  0  0  0  0  0  0  0  0  0  0  0
   23.7022   37.0913   65.5099 S   0  0  0  0  0  0  0  0  0  0  0  0
   22.4931   38.0991   64.9223 C   0  0  0  0  0  0  0  0  0  0  0  0
   22.1579   44.1582   66.0351 C   0  0  0  0  0  0  0  0  0  0  0  0
   27.9531   36.9689   70.8386 O   0  5  0  0  0  0  0  0  0  0  0  0
   22.0907   39.0773   65.7614 N   0  0  0  0  0  0  0  0  0  0  0  0
   23.0944   43.3082   65.7089 N   0  0  0  0  0  0  0  0  0  0  0  0
   28.9500   37.2580   68.5717 O   0  0  0  0  0  0  0  0  0  0  0  0
   22.8102   39.0023   66.9555 C   0  0  2  0  0  0  0  0  0  0  0  0
   22.7693   41.9816   65.4454 C   0  0  0  0  0  0  0  0  0  0  0  0
   23.7337   41.1352   65.0967 N   0  0  0  0  0  0  0  0  0  0  0  0
   23.7303   37.9820   67.0090 C   0  0  1  0  0  0  0  0  0  0  0  0
   21.3847   41.5543   65.5613 C   0  0  0  0  0  0  0  0  0  0  0  0
   24.6332   37.6242   68.1341 C   0  0  0  0  0  0  0  0  0  0  0  0
   20.4726   42.5419   65.8746 C   0  0  0  0  0  0  0  0  0  0  0  0
   25.8383   38.4878   68.1543 C   0  0  0  0  0  0  0  0  0  0  0  0
   20.9925   40.0978   65.4027 C   0  0  0  0  0  0  0  0  0  0  0  0
   26.7780   38.2629   69.2058 O   0  0  0  0  0  0  0  0  0  0  0  0
  1  8  1  0  0  0  0
  3  5  1  6  0  0  0
  3  9  1  0  0  0  0
  3 12  2  0  0  0  0
  3 22  1  0  0  0  0
  4  8  2  0  0  0  0
  4 19  1  0  0  0  0
  6 16  1  0  0  0  0
  6  7  1  0  0  0  0
  7 10  1  0  0  0  0
  8 11  1  0  0  0  0
 10 13  1  0  0  0  0
 10 21  1  0  0  0  0
 11 14  2  0  0  0  0
 13  2  1  1  0  0  0
 13 16  1  0  0  0  0
 14 15  1  0  0  0  0
 14 17  1  0  0  0  0
 16 18  1  1  0  0  0
 17 19  2  0  0  0  0
 17 21  1  0  0  0  0
 18 20  1  0  0  0  0
 20 22  1  0  0  0  0
M  CHG  1   9  -1
M  END
>  <CHROM.1>
-126.48010494,99.27816076,27.05052560,178.84182449,69.45753177,-33.13022018
24.15774959,39.48110786,67.09354566,-2.49674914,0.64244499,-2.98880467

>  <Name>
ligand

>  <RI>
0

>  <Rbt.Current_Directory>
/home/itssahil/PROJECTS/Mol_Feturizer/New_Systems/rnas/2HOM

>  <Rbt.Executable>
rbdock ($Id: //depot/dev/client3/rdock/2013.1/src/exe/rbdock.cxx#4 $)

>  <Rbt.Library>
libRbt.so (2013.1, Build901 2013/11/27)

>  <Rbt.Parameter_File>
/export/apps/rDock/src/rDock_2013.1_src/data/scripts/dock_solv.prm

>  <Rbt.Receptor>
prm/pocket_docking_7.prm

>  <SCORE>
-22.5091

>  <SCORE.INTER>
-25.1892

>  <SCORE.INTER.CONST>
1

>  <SCORE.INTER.POLAR>
-1.63459

>  <SCORE.INTER.ROT>
6

>  <SCORE.INTER.SOLV>
10.8037

>  <SCORE.INTER.VDW>
-22.5454

>  <SCORE.INTER.norm>
-1.14496

>  <SCORE.INTRA>
2.68014

>  <SCORE.INTRA.DIHEDRAL>
1.21869

>  <SCORE.INTRA.DIHEDRAL.0>
5.05013

>  <SCORE.INTRA.POLAR>
0

>  <SCORE.INTRA.POLAR.0>
0

>  <SCORE.INTRA.REPUL>
0

>  <SCORE.INTRA.REPUL.0>
0

>  <SCORE.INTRA.SOLV>
4.51534

>  <SCORE.INTRA.SOLV.lig_0>
-54.1265

>  <SCORE.INTRA.VDW>
-0.186875

>  <SCORE.INTRA.VDW.0>
-2.1303

>  <SCORE.INTRA.norm>
0.121824

>  <SCORE.RESTR>
0

>  <SCORE.RESTR.CAVITY>
0

>  <SCORE.RESTR.norm>
0

>  <SCORE.SYSTEM>
0

>  <SCORE.SYSTEM.CONST>
0

>  <SCORE.SYSTEM.DIHEDRAL>
0

>  <SCORE.SYSTEM.SOLV>
0

>  <SCORE.SYSTEM.norm>
0

>  <SCORE.heavy>
22

>  <SCORE.norm>
-1.02314

>  <RMSD>
4.065

$$$$
ligand
 OpenBabel11021811443D
libRbt.so/2013.1/901 2013/11/27
 22 23  0  0  0  0  0  0  0  0999 V2000
   21.1853   40.3658   65.9139 C   0  0  0  0  0  0  0  0  0  0  0  0
   27.2565   40.7132   63.6254 C   0  0  0  0  0  0  0  0  0  0  0  0
   28.0861   38.0514   68.1863 P   0  0  1  0  0  0  0  0  0  0  0  0
   23.1541   40.6379   64.5824 N   0  0  0  0  0  0  0  0  0  0  0  0
   27.7629   36.7152   67.6238 O   0  0  0  0  0  0  0  0  0  0  0  0
   29.1332   42.7139   66.5719 S   0  0  0  0  0  0  0  0  0  0  0  0
   27.7496   43.4652   65.9855 C   0  0  0  0  0  0  0  0  0  0  0  0
   22.3250   41.1976   65.5303 C   0  0  0  0  0  0  0  0  0  0  0  0
   26.9338   38.7363   68.8269 O   0  5  0  0  0  0  0  0  0  0  0  0
   27.1047   42.8095   64.9971 N   0  0  0  0  0  0  0  0  0  0  0  0
   22.5117   42.3814   66.0497 N   0  0  0  0  0  0  0  0  0  0  0  0
   29.2941   37.9702   69.0682 O   0  0  0  0  0  0  0  0  0  0  0  0
   27.7775   41.6231   64.6987 C   0  0  2  0  0  0  0  0  0  0  0  0
   23.6076   43.1460   65.6630 C   0  0  0  0  0  0  0  0  0  0  0  0
   23.7708   44.3565   66.1888 N   0  0  0  0  0  0  0  0  0  0  0  0
   28.9085   41.3997   65.4478 C   0  0  1  0  0  0  0  0  0  0  0  0
   24.5472   42.6011   64.6970 C   0  0  0  0  0  0  0  0  0  0  0  0
   29.8478   40.2509   65.3635 C   0  0  0  0  0  0  0  0  0  0  0  0
   24.2333   41.3584   64.1846 C   0  0  0  0  0  0  0  0  0  0  0  0
   29.7527   39.3870   66.5648 C   0  0  0  0  0  0  0  0  0  0  0  0
   25.8200   43.3402   64.3307 C   0  0  0  0  0  0  0  0  0  0  0  0
   28.4419   39.0136   66.9911 O   0  0  0  0  0  0  0  0  0  0  0  0
  1  8  1  0  0  0  0
  3  5  1  6  0  0  0
  3  9  1  0  0  0  0
  3 12  2  0  0  0  0
  3 22  1  0  0  0  0
  4  8  2  0  0  0  0
  4 19  1  0  0  0  0
  6 16  1  0  0  0  0
  6  7  1  0  0  0  0
  7 10  1  0  0  0  0
  8 11  1  0  0  0  0
 10 13  1  0  0  0  0
 10 21  1  0  0  0  0
 11 14  2  0  0  0  0
 13  2  1  6  0  0  0
 13 16  1  0  0  0  0
 14 15  1  0  0  0  0
 14 17  1  0  0  0  0
 16 18  1  6  0  0  0
 17 19  2  0  0  0  0
 17 21  1  0  0  0  0
 18 20  1  0  0  0  0
 20 22  1  0  0  0  0
M  CHG  1   9  -1
M  END
>  <CHROM.1>
-107.45325098,69.85876818,101.83262572,47.61192151,176.73159791,-100.32792021
26.62441000,40.83684992,66.17875872,2.48509232,-0.06524908,-0.50400195

>  <Name>
ligand

>  <RI>
0

>  <Rbt.Current_Directory>
/home/itssahil/PROJECTS/Mol_Feturizer/New_Systems/rnas/2HOM

>  <Rbt.Executable>
rbdock ($Id: //depot/dev/client3/rdock/2013.1/src/exe/rbdock.cxx#4 $)

>  <Rbt.Library>
libRbt.so (2013.1, Build901 2013/11/27)

>  <Rbt.Parameter_File>
/export/apps/rDock/src/rDock_2013.1_src/data/scripts/dock_solv.prm

>  <Rbt.Receptor>
prm/pocket_docking_6.prm

>  <SCORE>
-5.2053

>  <SCORE.INTER>
-6.55177

>  <SCORE.INTER.CONST>
1

>  <SCORE.INTER.POLAR>
-1.63459

>  <SCORE.INTER.ROT>
6

>  <SCORE.INTER.SOLV>
8.11537

>  <SCORE.INTER.VDW>
-9.22435

>  <SCORE.INTER.norm>
-0.297808

>  <SCORE.INTRA>
1.34648

>  <SCORE.INTRA.DIHEDRAL>
2.46233

>  <SCORE.INTRA.DIHEDRAL.0>
5.05013

>  <SCORE.INTRA.POLAR>
0

>  <SCORE.INTRA.POLAR.0>
0

>  <SCORE.INTRA.REPUL>
0

>  <SCORE.INTRA.REPUL.0>
0

>  <SCORE.INTRA.SOLV>
0.257372

>  <SCORE.INTRA.SOLV.lig_0>
-54.1265

>  <SCORE.INTRA.VDW>
-0.0133749

>  <SCORE.INTRA.VDW.0>
-2.1303

>  <SCORE.INTRA.norm>
0.0612035

>  <SCORE.RESTR>
0

>  <SCORE.RESTR.CAVITY>
0

>  <SCORE.RESTR.norm>
0

>  <SCORE.SYSTEM>
0

>  <SCORE.SYSTEM.CONST>
0

>  <SCORE.SYSTEM.DIHEDRAL>
0

>  <SCORE.SYSTEM.SOLV>
0

>  <SCORE.SYSTEM.norm>
0

>  <SCORE.heavy>
22

>  <SCORE.norm>
-0.236604

>  <RMSD>
4.069

$$$$
ligand
 OpenBabel11021811443D
libRbt.so/2013.1/901 2013/11/27
 22 23  0  0  0  0  0  0  0  0999 V2000
   22.7039   45.9719   66.4568 C   0  0  0  0  0  0  0  0  0  0  0  0
   22.3345   40.3195   67.7744 C   0  0  0  0  0  0  0  0  0  0  0  0
   27.3715   37.8240   65.1737 P   0  0  1  0  0  0  0  0  0  0  0  0
   20.8433   44.4840   66.2394 N   0  0  0  0  0  0  0  0  0  0  0  0
   27.5486   36.8711   64.0481 O   0  0  0  0  0  0  0  0  0  0  0  0
   22.7911   37.4894   64.9480 S   0  0  0  0  0  0  0  0  0  0  0  0
   21.6580   38.6733   64.5776 C   0  0  0  0  0  0  0  0  0  0  0  0
   22.2078   44.6377   66.1225 C   0  0  0  0  0  0  0  0  0  0  0  0
   28.2923   37.5929   66.3165 O   0  5  0  0  0  0  0  0  0  0  0  0
   21.4906   39.6328   65.5128 N   0  0  0  0  0  0  0  0  0  0  0  0
   23.0143   43.6875   65.7318 N   0  0  0  0  0  0  0  0  0  0  0  0
   27.3891   39.2355   64.6727 O   0  0  0  0  0  0  0  0  0  0  0  0
   22.3361   39.3897   66.5968 C   0  0  2  0  0  0  0  0  0  0  0  0
   22.5088   42.4290   65.4226 C   0  0  0  0  0  0  0  0  0  0  0  0
   23.3428   41.4797   65.0086 N   0  0  0  0  0  0  0  0  0  0  0  0
   23.1174   38.2650   66.4755 C   0  0  1  0  0  0  0  0  0  0  0  0
   21.0830   42.1833   65.5631 C   0  0  0  0  0  0  0  0  0  0  0  0
   24.0987   37.7246   67.4524 C   0  0  0  0  0  0  0  0  0  0  0  0
   20.3187   43.2672   65.9461 C   0  0  0  0  0  0  0  0  0  0  0  0
   25.4886   38.0684   67.0672 C   0  0  0  0  0  0  0  0  0  0  0  0
   20.4964   40.8001   65.3552 C   0  0  0  0  0  0  0  0  0  0  0  0
   25.9542   37.5706   65.8123 O   0  0  0  0  0  0  0  0  0  0  0  0
  1  8  1  0  0  0  0
  3  5  1  6  0  0  0
  3  9  1  0  0  0  0
  3 12  2  0  0  0  0
  3 22  1  0  0  0  0
  4  8  2  0  0  0  0
  4 19  1  0  0  0  0
  6 16  1  0  0  0  0
  6  7  1  0  0  0  0
  7 10  1  0  0  0  0
  8 11  1  0  0  0  0
 10 13  1  0  0  0  0
 10 21  1  0  0  0  0
 11 14  2  0  0  0  0
 13  2  1  1  0  0  0
 13 16  1  0  0  0  0
 14 15  1  0  0  0  0
 14 17  1  0  0  0  0
 16 18  1  1  0  0  0
 17 19  2  0  0  0  0
 17 21  1  0  0  0  0
 18 20  1  0  0  0  0
 20 22  1  0  0  0  0
M  CHG  1   9  -1
M  END
>  <CHROM.1>
-127.55348760,79.38813945,21.79031833,-61.17021925,178.62675336,166.48585250
23.78021335,39.98678135,65.74487166,-2.28582955,-0.04890914,-3.08802163

>  <Name>
ligand

>  <RI>
0

>  <Rbt.Current_Directory>
/home/itssahil/PROJECTS/Mol_Feturizer/New_Systems/rnas/2HOM

>  <Rbt.Executable>
rbdock ($Id: //depot/dev/client3/rdock/2013.1/src/exe/rbdock.cxx#4 $)

>  <Rbt.Library>
libRbt.so (2013.1, Build901 2013/11/27)

>  <Rbt.Parameter_File>
/export/apps/rDock/src/rDock_2013.1_src/data/scripts/dock_solv.prm

>  <Rbt.Receptor>
prm/pocket_docking_5.prm

>  <SCORE>
-18.9248

>  <SCORE.INTER>
-21.6781

>  <SCORE.INTER.CONST>
1

>  <SCORE.INTER.POLAR>
0

>  <SCORE.INTER.ROT>
6

>  <SCORE.INTER.SOLV>
12.6697

>  <SCORE.INTER.VDW>
-26.2753

>  <SCORE.INTER.norm>
-0.98537

>  <SCORE.INTRA>
2.75329

>  <SCORE.INTRA.DIHEDRAL>
0.433279

>  <SCORE.INTRA.DIHEDRAL.0>
5.05013

>  <SCORE.INTRA.POLAR>
0

>  <SCORE.INTRA.POLAR.0>
0

>  <SCORE.INTRA.REPUL>
0

>  <SCORE.INTRA.REPUL.0>
0

>  <SCORE.INTRA.SOLV>
5.31722

>  <SCORE.INTRA.SOLV.lig_0>
-54.1265

>  <SCORE.INTRA.VDW>
-0.121958

>  <SCORE.INTRA.VDW.0>
-2.1303

>  <SCORE.INTRA.norm>
0.12515

>  <SCORE.RESTR>
0

>  <SCORE.RESTR.CAVITY>
0

>  <SCORE.RESTR.norm>
0

>  <SCORE.SYSTEM>
0

>  <SCORE.SYSTEM.CONST>
0

>  <SCORE.SYSTEM.DIHEDRAL>
0

>  <SCORE.SYSTEM.SOLV>
0

>  <SCORE.SYSTEM.norm>
0

>  <SCORE.heavy>
22

>  <SCORE.norm>
-0.86022

>  <RMSD>
4.075

$$$$
ligand
 OpenBabel11021811443D
libRbt.so/2013.1/901 2013/11/27
 22 23  0  0  0  0  0  0  0  0999 V2000
   22.5853   45.8002   66.5205 C   0  0  0  0  0  0  0  0  0  0  0  0
   22.4170   39.9670   68.2255 C   0  0  0  0  0  0  0  0  0  0  0  0
   28.0738   35.9046   69.0143 P   0  0  1  0  0  0  0  0  0  0  0  0
   23.1990   43.4943   66.3488 N   0  0  0  0  0  0  0  0  0  0  0  0
   27.8143   34.5662   68.4248 O   0  0  0  0  0  0  0  0  0  0  0  0
   24.0887   37.3786   65.6348 S   0  0  0  0  0  0  0  0  0  0  0  0
   22.9593   38.4200   64.9545 C   0  0  0  0  0  0  0  0  0  0  0  0
   22.1829   44.4204   66.2520 C   0  0  0  0  0  0  0  0  0  0  0  0
   28.5778   35.8664   70.4114 O   0  5  0  0  0  0  0  0  0  0  0  0
   22.3875   39.2971   65.8070 N   0  0  0  0  0  0  0  0  0  0  0  0
   20.9472   44.1141   65.9601 N   0  0  0  0  0  0  0  0  0  0  0  0
   28.9281   36.7243   68.0968 O   0  0  0  0  0  0  0  0  0  0  0  0
   22.8997   39.1103   67.0923 C   0  0  2  0  0  0  0  0  0  0  0  0
   20.5989   42.7910   65.7091 C   0  0  0  0  0  0  0  0  0  0  0  0
   19.3323   42.4959   65.4320 N   0  0  0  0  0  0  0  0  0  0  0  0
   23.8340   38.1073   67.1986 C   0  0  1  0  0  0  0  0  0  0  0  0
   21.6287   41.7659   65.7531 C   0  0  0  0  0  0  0  0  0  0  0  0
   24.5487   37.6501   68.4190 C   0  0  0  0  0  0  0  0  0  0  0  0
   22.8919   42.1944   66.1084 C   0  0  0  0  0  0  0  0  0  0  0  0
   25.9489   37.2700   68.1137 C   0  0  0  0  0  0  0  0  0  0  0  0
   21.3286   40.3290   65.3713 C   0  0  0  0  0  0  0  0  0  0  0  0
   26.6947   36.6509   69.1624 O   0  0  0  0  0  0  0  0  0  0  0  0
  1  8  1  0  0  0  0
  3  5  1  6  0  0  0
  3  9  1  0  0  0  0
  3 12  2  0  0  0  0
  3 22  1  0  0  0  0
  4  8  2  0  0  0  0
  4 19  1  0  0  0  0
  6 16  1  0  0  0  0
  6  7  1  0  0  0  0
  7 10  1  0  0  0  0
  8 11  1  0  0  0  0
 10 13  1  0  0  0  0
 10 21  1  0  0  0  0
 11 14  2  0  0  0  0
 13  2  1  1  0  0  0
 13 16  1  0  0  0  0
 14 15  1  0  0  0  0
 14 17  1  0  0  0  0
 16 18  1  1  0  0  0
 17 19  2  0  0  0  0
 17 21  1  0  0  0  0
 18 20  1  0  0  0  0
 20 22  1  0  0  0  0
M  CHG  1   9  -1
M  END
>  <CHROM.1>
-127.13093608,37.23971357,-164.76486076,-172.15716422,166.91437529,-76.63498599
24.18754905,39.30317756,67.11328501,-2.41707534,0.57677980,-2.97082240

>  <Name>
ligand

>  <RI>
0

>  <Rbt.Current_Directory>
/home/itssahil/PROJECTS/Mol_Feturizer/New_Systems/rnas/2HOM

>  <Rbt.Executable>
rbdock ($Id: //depot/dev/client3/rdock/2013.1/src/exe/rbdock.cxx#4 $)

>  <Rbt.Library>
libRbt.so (2013.1, Build901 2013/11/27)

>  <Rbt.Parameter_File>
/export/apps/rDock/src/rDock_2013.1_src/data/scripts/dock_solv.prm

>  <Rbt.Receptor>
prm/pocket_docking_7.prm

>  <SCORE>
-20.9431

>  <SCORE.INTER>
-22.7826

>  <SCORE.INTER.CONST>
1

>  <SCORE.INTER.POLAR>
-1.63209

>  <SCORE.INTER.ROT>
6

>  <SCORE.INTER.SOLV>
21.3227

>  <SCORE.INTER.VDW>
-24.4557

>  <SCORE.INTER.norm>
-1.03557

>  <SCORE.INTRA>
1.83949

>  <SCORE.INTRA.DIHEDRAL>
1.29829

>  <SCORE.INTRA.DIHEDRAL.0>
5.05013

>  <SCORE.INTRA.POLAR>
0

>  <SCORE.INTRA.POLAR.0>
0

>  <SCORE.INTRA.REPUL>
0

>  <SCORE.INTRA.REPUL.0>
0

>  <SCORE.INTRA.SOLV>
0.0592876

>  <SCORE.INTRA.SOLV.lig_0>
-54.1265

>  <SCORE.INTRA.VDW>
1.1607

>  <SCORE.INTRA.VDW.0>
-2.1303

>  <SCORE.INTRA.norm>
0.0836133

>  <SCORE.RESTR>
0

>  <SCORE.RESTR.CAVITY>
0

>  <SCORE.RESTR.norm>
0

>  <SCORE.SYSTEM>
0

>  <SCORE.SYSTEM.CONST>
0

>  <SCORE.SYSTEM.DIHEDRAL>
0

>  <SCORE.SYSTEM.SOLV>
0

>  <SCORE.SYSTEM.norm>
0

>  <SCORE.heavy>
22

>  <SCORE.norm>
-0.95196

>  <RMSD>
4.077

$$$$
ligand
 OpenBabel11021811443D
libRbt.so/2013.1/901 2013/11/27
 22 23  0  0  0  0  0  0  0  0999 V2000
   20.5238   43.8256   65.6078 C   0  0  0  0  0  0  0  0  0  0  0  0
   26.4408   41.4375   64.5562 C   0  0  0  0  0  0  0  0  0  0  0  0
   29.8110   36.2716   64.7779 P   0  0  1  0  0  0  0  0  0  0  0  0
   22.3886   42.8516   66.7467 N   0  0  0  0  0  0  0  0  0  0  0  0
   30.3758   36.3474   66.1496 O   0  0  0  0  0  0  0  0  0  0  0  0
   27.8365   40.1287   68.0983 S   0  0  0  0  0  0  0  0  0  0  0  0
   27.2118   41.6881   68.1241 C   0  0  0  0  0  0  0  0  0  0  0  0
   21.9693   43.7858   65.8244 C   0  0  0  0  0  0  0  0  0  0  0  0
   30.7380   35.6961   63.7695 O   0  5  0  0  0  0  0  0  0  0  0  0
   26.7374   42.1456   66.9457 N   0  0  0  0  0  0  0  0  0  0  0  0
   22.7795   44.5746   65.1707 N   0  0  0  0  0  0  0  0  0  0  0  0
   28.4694   35.6056   64.7999 O   0  0  0  0  0  0  0  0  0  0  0  0
   26.8917   41.1674   65.9616 C   0  0  2  0  0  0  0  0  0  0  0  0
   24.1497   44.5113   65.4020 C   0  0  0  0  0  0  0  0  0  0  0  0
   24.9605   45.3092   64.7135 N   0  0  0  0  0  0  0  0  0  0  0  0
   27.4762   40.0015   66.3967 C   0  0  1  0  0  0  0  0  0  0  0  0
   24.6593   43.5772   66.3924 C   0  0  0  0  0  0  0  0  0  0  0  0
   27.7939   38.7867   65.6013 C   0  0  0  0  0  0  0  0  0  0  0  0
   23.7199   42.7657   66.9961 C   0  0  0  0  0  0  0  0  0  0  0  0
   29.1581   38.8606   65.0252 C   0  0  0  0  0  0  0  0  0  0  0  0
   26.1282   43.5506   66.7697 C   0  0  0  0  0  0  0  0  0  0  0  0
   29.5963   37.7414   64.2541 O   0  0  0  0  0  0  0  0  0  0  0  0
  1  8  1  0  0  0  0
  3  5  1  1  0  0  0
  3  9  1  0  0  0  0
  3 12  2  0  0  0  0
  3 22  1  0  0  0  0
  4  8  2  0  0  0  0
  4 19  1  0  0  0  0
  6 16  1  0  0  0  0
  6  7  1  0  0  0  0
  7 10  1  0  0  0  0
  8 11  1  0  0  0  0
 10 13  1  0  0  0  0
 10 21  1  0  0  0  0
 11 14  2  0  0  0  0
 13  2  1  6  0  0  0
 13 16  1  0  0  0  0
 14 15  1  0  0  0  0
 14 17  1  0  0  0  0
 16 18  1  6  0  0  0
 17 19  2  0  0  0  0
 17 21  1  0  0  0  0
 18 20  1  0  0  0  0
 20 22  1  0  0  0  0
M  CHG  1   9  -1
M  END
>  <CHROM.1>
-115.81613038,-89.25861838,-138.66670760,178.99614074,-63.57316723,-37.49497568
26.71999941,40.49933707,65.83549075,2.53139660,-0.62920682,0.82924014

>  <Name>
ligand

>  <RI>
0

>  <Rbt.Current_Directory>
/home/itssahil/PROJECTS/Mol_Feturizer/New_Systems/rnas/2HOM

>  <Rbt.Executable>
rbdock ($Id: //depot/dev/client3/rdock/2013.1/src/exe/rbdock.cxx#4 $)

>  <Rbt.Library>
libRbt.so (2013.1, Build901 2013/11/27)

>  <Rbt.Parameter_File>
/export/apps/rDock/src/rDock_2013.1_src/data/scripts/dock_solv.prm

>  <Rbt.Receptor>
prm/pocket_docking_8.prm

>  <SCORE>
-11.8682

>  <SCORE.INTER>
-12.5819

>  <SCORE.INTER.CONST>
1

>  <SCORE.INTER.POLAR>
-1.30767

>  <SCORE.INTER.ROT>
6

>  <SCORE.INTER.SOLV>
13.2857

>  <SCORE.INTER.VDW>
-16.0576

>  <SCORE.INTER.norm>
-0.571903

>  <SCORE.INTRA>
0.71368

>  <SCORE.INTRA.DIHEDRAL>
0.468551

>  <SCORE.INTRA.DIHEDRAL.0>
5.05013

>  <SCORE.INTRA.POLAR>
0

>  <SCORE.INTRA.POLAR.0>
0

>  <SCORE.INTRA.REPUL>
0

>  <SCORE.INTRA.REPUL.0>
0

>  <SCORE.INTRA.SOLV>
1.41162

>  <SCORE.INTRA.SOLV.lig_0>
-54.1265

>  <SCORE.INTRA.VDW>
-0.226405

>  <SCORE.INTRA.VDW.0>
-2.1303

>  <SCORE.INTRA.norm>
0.03244

>  <SCORE.RESTR>
0

>  <SCORE.RESTR.CAVITY>
0

>  <SCORE.RESTR.norm>
0

>  <SCORE.SYSTEM>
0

>  <SCORE.SYSTEM.CONST>
0

>  <SCORE.SYSTEM.DIHEDRAL>
0

>  <SCORE.SYSTEM.SOLV>
0

>  <SCORE.SYSTEM.norm>
0

>  <SCORE.heavy>
22

>  <SCORE.norm>
-0.539463

>  <RMSD>
4.122

$$$$
ligand
 OpenBabel11021811443D
libRbt.so/2013.1/901 2013/11/27
 22 23  0  0  0  0  0  0  0  0999 V2000
   20.4001   43.6790   65.4676 C   0  0  0  0  0  0  0  0  0  0  0  0
   27.1637   40.2973   67.9297 C   0  0  0  0  0  0  0  0  0  0  0  0
   28.7819   34.7481   68.6911 P   0  0  1  0  0  0  0  0  0  0  0  0
   21.5560   41.5902   65.3137 N   0  0  0  0  0  0  0  0  0  0  0  0
   29.2086   34.4011   70.0708 O   0  0  0  0  0  0  0  0  0  0  0  0
   24.3907   37.3788   67.9206 S   0  0  0  0  0  0  0  0  0  0  0  0
   24.2539   38.4795   66.6587 C   0  0  0  0  0  0  0  0  0  0  0  0
   21.6706   42.9553   65.4636 C   0  0  0  0  0  0  0  0  0  0  0  0
   29.9012   35.0947   67.7776 O   0  5  0  0  0  0  0  0  0  0  0  0
   25.1756   39.4661   66.6432 N   0  0  0  0  0  0  0  0  0  0  0  0
   22.8121   43.5794   65.5796 N   0  0  0  0  0  0  0  0  0  0  0  0
   27.8729   33.6914   68.1425 O   0  0  0  0  0  0  0  0  0  0  0  0
   26.0463   39.3172   67.7242 C   0  0  2  0  0  0  0  0  0  0  0  0
   24.0025   42.8597   65.5730 C   0  0  0  0  0  0  0  0  0  0  0  0
   25.1557   43.5141   65.6734 N   0  0  0  0  0  0  0  0  0  0  0  0
   25.7761   38.2411   68.5360 C   0  0  1  0  0  0  0  0  0  0  0  0
   23.9549   41.4113   65.4599 C   0  0  0  0  0  0  0  0  0  0  0  0
   26.4969   37.8209   69.7662 C   0  0  0  0  0  0  0  0  0  0  0  0
   22.6993   40.8590   65.3046 C   0  0  0  0  0  0  0  0  0  0  0  0
   26.9204   36.4023   69.6854 C   0  0  0  0  0  0  0  0  0  0  0  0
   25.2121   40.5696   65.5676 C   0  0  0  0  0  0  0  0  0  0  0  0
   27.9576   36.0887   68.7553 O   0  0  0  0  0  0  0  0  0  0  0  0
  1  8  1  0  0  0  0
  3  5  1  1  0  0  0
  3  9  1  0  0  0  0
  3 12  2  0  0  0  0
  3 22  1  0  0  0  0
  4  8  2  0  0  0  0
  4 19  1  0  0  0  0
  6 16  1  0  0  0  0
  6  7  1  0  0  0  0
  7 10  1  0  0  0  0
  8 11  1  0  0  0  0
 10 13  1  0  0  0  0
 10 21  1  0  0  0  0
 11 14  2  0  0  0  0
 13  2  1  1  0  0  0
 13 16  1  0  0  0  0
 14 15  1  0  0  0  0
 14 17  1  0  0  0  0
 16 18  1  1  0  0  0
 17 19  2  0  0  0  0
 17 21  1  0  0  0  0
 18 20  1  0  0  0  0
 20 22  1  0  0  0  0
M  CHG  1   9  -1
M  END
>  <CHROM.1>
58.68057604,54.06738774,124.52433294,69.58641100,166.33927496,-46.14283966
25.58197446,38.73891784,67.34969508,2.18836299,-0.12792962,-0.32902614

>  <Name>
ligand

>  <RI>
0

>  <Rbt.Current_Directory>
/home/itssahil/PROJECTS/Mol_Feturizer/New_Systems/rnas/2HOM

>  <Rbt.Executable>
rbdock ($Id: //depot/dev/client3/rdock/2013.1/src/exe/rbdock.cxx#4 $)

>  <Rbt.Library>
libRbt.so (2013.1, Build901 2013/11/27)

>  <Rbt.Parameter_File>
/export/apps/rDock/src/rDock_2013.1_src/data/scripts/dock_solv.prm

>  <Rbt.Receptor>
prm/pocket_docking_8.prm

>  <SCORE>
-18.551

>  <SCORE.INTER>
-19.5513

>  <SCORE.INTER.CONST>
1

>  <SCORE.INTER.POLAR>
-1.63459

>  <SCORE.INTER.ROT>
6

>  <SCORE.INTER.SOLV>
16.6087

>  <SCORE.INTER.VDW>
-20.7218

>  <SCORE.INTER.norm>
-0.888697

>  <SCORE.INTRA>
1.00037

>  <SCORE.INTRA.DIHEDRAL>
1.62043

>  <SCORE.INTRA.DIHEDRAL.0>
5.05013

>  <SCORE.INTRA.POLAR>
0

>  <SCORE.INTRA.POLAR.0>
0

>  <SCORE.INTRA.REPUL>
0

>  <SCORE.INTRA.REPUL.0>
0

>  <SCORE.INTRA.SOLV>
0.226149

>  <SCORE.INTRA.SOLV.lig_0>
-54.1265

>  <SCORE.INTRA.VDW>
0.0770747

>  <SCORE.INTRA.VDW.0>
-2.1303

>  <SCORE.INTRA.norm>
0.0454712

>  <SCORE.RESTR>
0

>  <SCORE.RESTR.CAVITY>
0

>  <SCORE.RESTR.norm>
0

>  <SCORE.SYSTEM>
0

>  <SCORE.SYSTEM.CONST>
0

>  <SCORE.SYSTEM.DIHEDRAL>
0

>  <SCORE.SYSTEM.SOLV>
0

>  <SCORE.SYSTEM.norm>
0

>  <SCORE.heavy>
22

>  <SCORE.norm>
-0.843226

>  <RMSD>
4.124

$$$$
ligand
 OpenBabel11021811443D
libRbt.so/2013.1/901 2013/11/27
 22 23  0  0  0  0  0  0  0  0999 V2000
   22.6841   45.6902   66.8508 C   0  0  0  0  0  0  0  0  0  0  0  0
   25.5214   40.3701   67.1754 C   0  0  0  0  0  0  0  0  0  0  0  0
   28.3793   38.3163   69.3826 P   0  0  1  0  0  0  0  0  0  0  0  0
   22.5663   43.3242   66.5171 N   0  0  0  0  0  0  0  0  0  0  0  0
   28.8171   39.6785   69.7814 O   0  0  0  0  0  0  0  0  0  0  0  0
   23.3421   37.2736   65.8080 S   0  0  0  0  0  0  0  0  0  0  0  0
   23.4950   38.5532   64.7300 C   0  0  0  0  0  0  0  0  0  0  0  0
   23.1627   44.5072   66.1373 C   0  0  0  0  0  0  0  0  0  0  0  0
   29.0638   37.7869   68.1749 O   0  5  0  0  0  0  0  0  0  0  0  0
   24.2234   39.6017   65.1694 N   0  0  0  0  0  0  0  0  0  0  0  0
   24.0745   44.5939   65.2061 N   0  0  0  0  0  0  0  0  0  0  0  0
   28.4356   37.3842   70.5538 O   0  0  0  0  0  0  0  0  0  0  0  0
   24.6854   39.3484   66.4623 C   0  0  2  0  0  0  0  0  0  0  0  0
   24.5081   43.4478   64.5478 C   0  0  0  0  0  0  0  0  0  0  0  0
   25.4236   43.5582   63.5897 N   0  0  0  0  0  0  0  0  0  0  0  0
   24.3038   38.1337   66.9813 C   0  0  1  0  0  0  0  0  0  0  0  0
   23.9519   42.1592   64.9262 C   0  0  0  0  0  0  0  0  0  0  0  0
   24.6124   37.5766   68.3243 C   0  0  0  0  0  0  0  0  0  0  0  0
   22.9684   42.1874   65.8944 C   0  0  0  0  0  0  0  0  0  0  0  0
   26.0631   37.3122   68.4784 C   0  0  0  0  0  0  0  0  0  0  0  0
   24.4737   40.8676   64.3263 C   0  0  0  0  0  0  0  0  0  0  0  0
   26.8756   38.3998   68.9215 O   0  0  0  0  0  0  0  0  0  0  0  0
  1  8  1  0  0  0  0
  3  5  1  1  0  0  0
  3  9  1  0  0  0  0
  3 12  2  0  0  0  0
  3 22  1  0  0  0  0
  4  8  2  0  0  0  0
  4 19  1  0  0  0  0
  6 16  1  0  0  0  0
  6  7  1  0  0  0  0
  7 10  1  0  0  0  0
  8 11  1  0  0  0  0
 10 13  1  0  0  0  0
 10 21  1  0  0  0  0
 11 14  2  0  0  0  0
 13  2  1  1  0  0  0
 13 16  1  0  0  0  0
 14 15  1  0  0  0  0
 14 17  1  0  0  0  0
 16 18  1  1  0  0  0
 17 19  2  0  0  0  0
 17 21  1  0  0  0  0
 18 20  1  0  0  0  0
 20 22  1  0  0  0  0
M  CHG  1   9  -1
M  END
>  <CHROM.1>
119.32286104,114.52002905,156.90664153,86.41892657,169.36576198,-178.96540026
25.26680822,40.11591037,66.91582459,-2.31290817,0.69259940,3.08063938

>  <Name>
ligand

>  <RI>
0

>  <Rbt.Current_Directory>
/home/itssahil/PROJECTS/Mol_Feturizer/New_Systems/rnas/2HOM

>  <Rbt.Executable>
rbdock ($Id: //depot/dev/client3/rdock/2013.1/src/exe/rbdock.cxx#4 $)

>  <Rbt.Library>
libRbt.so (2013.1, Build901 2013/11/27)

>  <Rbt.Parameter_File>
/export/apps/rDock/src/rDock_2013.1_src/data/scripts/dock_solv.prm

>  <Rbt.Receptor>
prm/pocket_docking_6.prm

>  <SCORE>
-14.7251

>  <SCORE.INTER>
-16.6032

>  <SCORE.INTER.CONST>
1

>  <SCORE.INTER.POLAR>
-1.63459

>  <SCORE.INTER.ROT>
6

>  <SCORE.INTER.SOLV>
10.026

>  <SCORE.INTER.VDW>
-16.5622

>  <SCORE.INTER.norm>
-0.75469

>  <SCORE.INTRA>
1.87812

>  <SCORE.INTRA.DIHEDRAL>
2.42849

>  <SCORE.INTRA.DIHEDRAL.0>
5.05013

>  <SCORE.INTRA.POLAR>
0

>  <SCORE.INTRA.POLAR.0>
0

>  <SCORE.INTRA.REPUL>
0

>  <SCORE.INTRA.REPUL.0>
0

>  <SCORE.INTRA.SOLV>
0.976635

>  <SCORE.INTRA.SOLV.lig_0>
-54.1265

>  <SCORE.INTRA.VDW>
0.175558

>  <SCORE.INTRA.VDW.0>
-2.1303

>  <SCORE.INTRA.norm>
0.085369

>  <SCORE.RESTR>
0

>  <SCORE.RESTR.CAVITY>
0

>  <SCORE.RESTR.norm>
0

>  <SCORE.SYSTEM>
0

>  <SCORE.SYSTEM.CONST>
0

>  <SCORE.SYSTEM.DIHEDRAL>
0

>  <SCORE.SYSTEM.SOLV>
0

>  <SCORE.SYSTEM.norm>
0

>  <SCORE.heavy>
22

>  <SCORE.norm>
-0.669321

>  <RMSD>
4.162

$$$$
ligand
 OpenBabel11021811443D
libRbt.so/2013.1/901 2013/11/27
 22 23  0  0  0  0  0  0  0  0999 V2000
   17.7611   40.0694   64.3187 C   0  0  0  0  0  0  0  0  0  0  0  0
   24.3483   42.3313   64.7543 C   0  0  0  0  0  0  0  0  0  0  0  0
   28.1539   44.0220   65.2154 P   0  0  1  0  0  0  0  0  0  0  0  0
   19.7808   39.8232   65.5771 N   0  0  0  0  0  0  0  0  0  0  0  0
   27.3899   43.0182   64.4311 O   0  0  0  0  0  0  0  0  0  0  0  0
   23.4693   46.0276   66.0853 S   0  0  0  0  0  0  0  0  0  0  0  0
   22.6579   44.7868   66.8756 C   0  0  0  0  0  0  0  0  0  0  0  0
   18.9147   40.6993   64.9593 C   0  0  0  0  0  0  0  0  0  0  0  0
   28.5478   43.5620   66.5721 O   0  5  0  0  0  0  0  0  0  0  0  0
   22.9397   43.5387   66.4445 N   0  0  0  0  0  0  0  0  0  0  0  0
   19.0950   41.9924   64.9216 N   0  0  0  0  0  0  0  0  0  0  0  0
   29.3012   44.5521   64.4115 O   0  0  0  0  0  0  0  0  0  0  0  0
   23.8729   43.5955   65.4077 C   0  0  2  0  0  0  0  0  0  0  0  0
   20.2031   42.5590   65.5428 C   0  0  0  0  0  0  0  0  0  0  0  0
   20.3797   43.8753   65.4778 N   0  0  0  0  0  0  0  0  0  0  0  0
   24.2769   44.8648   65.0669 C   0  0  1  0  0  0  0  0  0  0  0  0
   21.1374   41.6982   66.2494 C   0  0  0  0  0  0  0  0  0  0  0  0
   25.2361   45.2636   64.0039 C   0  0  0  0  0  0  0  0  0  0  0  0
   20.8714   40.3448   66.1937 C   0  0  0  0  0  0  0  0  0  0  0  0
   26.4146   45.9596   64.5742 C   0  0  0  0  0  0  0  0  0  0  0  0
   22.2945   42.2734   67.0436 C   0  0  0  0  0  0  0  0  0  0  0  0
   27.1973   45.2348   65.5236 O   0  0  0  0  0  0  0  0  0  0  0  0
  1  8  1  0  0  0  0
  3  5  1  6  0  0  0
  3  9  1  0  0  0  0
  3 12  2  0  0  0  0
  3 22  1  0  0  0  0
  4  8  2  0  0  0  0
  4 19  1  0  0  0  0
  6 16  1  0  0  0  0
  6  7  1  0  0  0  0
  7 10  1  0  0  0  0
  8 11  1  0  0  0  0
 10 13  1  0  0  0  0
 10 21  1  0  0  0  0
 11 14  2  0  0  0  0
 13  2  1  6  0  0  0
 13 16  1  0  0  0  0
 14 15  1  0  0  0  0
 14 17  1  0  0  0  0
 16 18  1  6  0  0  0
 17 19  2  0  0  0  0
 17 21  1  0  0  0  0
 18 20  1  0  0  0  0
 20 22  1  0  0  0  0
M  CHG  1   9  -1
M  END
>  <CHROM.1>
99.48786580,62.29775158,-35.55906711,59.39247886,71.89335841,-51.62673584
23.78489928,43.41056372,65.43849337,-2.76659606,0.07790304,0.11939143

>  <Name>
ligand

>  <RI>
0

>  <Rbt.Current_Directory>
/home/itssahil/PROJECTS/Mol_Feturizer/New_Systems/rnas/2HOM

>  <Rbt.Executable>
rbdock ($Id: //depot/dev/client3/rdock/2013.1/src/exe/rbdock.cxx#4 $)

>  <Rbt.Library>
libRbt.so (2013.1, Build901 2013/11/27)

>  <Rbt.Parameter_File>
/export/apps/rDock/src/rDock_2013.1_src/data/scripts/dock_solv.prm

>  <Rbt.Receptor>
prm/pocket_docking_6.prm

>  <SCORE>
-16.8034

>  <SCORE.INTER>
-18.0762

>  <SCORE.INTER.CONST>
1

>  <SCORE.INTER.POLAR>
0

>  <SCORE.INTER.ROT>
6

>  <SCORE.INTER.SOLV>
13.0968

>  <SCORE.INTER.VDW>
-24.0164

>  <SCORE.INTER.norm>
-0.821648

>  <SCORE.INTRA>
1.2728

>  <SCORE.INTRA.DIHEDRAL>
0.768343

>  <SCORE.INTRA.DIHEDRAL.0>
5.05013

>  <SCORE.INTRA.POLAR>
0

>  <SCORE.INTRA.POLAR.0>
0

>  <SCORE.INTRA.REPUL>
0

>  <SCORE.INTRA.REPUL.0>
0

>  <SCORE.INTRA.SOLV>
3.68371

>  <SCORE.INTRA.SOLV.lig_0>
-54.1265

>  <SCORE.INTRA.VDW>
-0.953225

>  <SCORE.INTRA.VDW.0>
-2.1303

>  <SCORE.INTRA.norm>
0.0578546

>  <SCORE.RESTR>
0

>  <SCORE.RESTR.CAVITY>
0

>  <SCORE.RESTR.norm>
0

>  <SCORE.SYSTEM>
0

>  <SCORE.SYSTEM.CONST>
0

>  <SCORE.SYSTEM.DIHEDRAL>
0

>  <SCORE.SYSTEM.SOLV>
0

>  <SCORE.SYSTEM.norm>
0

>  <SCORE.heavy>
22

>  <SCORE.norm>
-0.763793

>  <RMSD>
4.232

$$$$
ligand
 OpenBabel11021811443D
libRbt.so/2013.1/901 2013/11/27
 22 23  0  0  0  0  0  0  0  0999 V2000
   23.0056   46.4490   67.0934 C   0  0  0  0  0  0  0  0  0  0  0  0
   24.7305   38.1429   66.3810 C   0  0  0  0  0  0  0  0  0  0  0  0
   29.9179   35.9460   64.9965 P   0  0  1  0  0  0  0  0  0  0  0  0
   24.1945   44.3734   67.0521 N   0  0  0  0  0  0  0  0  0  0  0  0
   28.7154   35.2193   64.5146 O   0  0  0  0  0  0  0  0  0  0  0  0
   26.7412   40.5750   63.8812 S   0  0  0  0  0  0  0  0  0  0  0  0
   25.3139   41.2199   64.4892 C   0  0  0  0  0  0  0  0  0  0  0  0
   22.9937   45.0113   66.8273 C   0  0  0  0  0  0  0  0  0  0  0  0
   29.9870   36.0953   66.4731 O   0  5  0  0  0  0  0  0  0  0  0  0
   24.6248   40.4199   65.3308 N   0  0  0  0  0  0  0  0  0  0  0  0
   21.9121   44.4007   66.4232 N   0  0  0  0  0  0  0  0  0  0  0  0
   31.1596   35.3573   64.4002 O   0  0  0  0  0  0  0  0  0  0  0  0
   25.2994   39.2081   65.4906 C   0  0  2  0  0  0  0  0  0  0  0  0
   21.9362   43.0317   66.1781 C   0  0  0  0  0  0  0  0  0  0  0  0
   20.8204   42.4242   65.7853 N   0  0  0  0  0  0  0  0  0  0  0  0
   26.4695   39.1031   64.7763 C   0  0  1  0  0  0  0  0  0  0  0  0
   23.1805   42.3013   66.3547 C   0  0  0  0  0  0  0  0  0  0  0  0
   27.4024   37.9476   64.7159 C   0  0  0  0  0  0  0  0  0  0  0  0
   24.2512   43.0373   66.8210 C   0  0  0  0  0  0  0  0  0  0  0  0
   28.8124   38.3848   64.8537 C   0  0  0  0  0  0  0  0  0  0  0  0
   23.2932   40.8340   65.9876 C   0  0  0  0  0  0  0  0  0  0  0  0
   29.8211   37.4377   64.5003 O   0  0  0  0  0  0  0  0  0  0  0  0
  1  8  1  0  0  0  0
  3  5  1  6  0  0  0
  3  9  1  0  0  0  0
  3 12  2  0  0  0  0
  3 22  1  0  0  0  0
  4  8  2  0  0  0  0
  4 19  1  0  0  0  0
  6 16  1  0  0  0  0
  6  7  1  0  0  0  0
  7 10  1  0  0  0  0
  8 11  1  0  0  0  0
 10 13  1  0  0  0  0
 10 21  1  0  0  0  0
 11 14  2  0  0  0  0
 13  2  1  6  0  0  0
 13 16  1  0  0  0  0
 14 15  1  0  0  0  0
 14 17  1  0  0  0  0
 16 18  1  6  0  0  0
 17 19  2  0  0  0  0
 17 21  1  0  0  0  0
 18 20  1  0  0  0  0
 20 22  1  0  0  0  0
M  CHG  1   9  -1
M  END
>  <CHROM.1>
-35.21254257,46.07299820,141.04691477,-165.56031463,-50.06996530,62.60709101
26.08230075,39.95797654,65.46542369,-2.30588838,-0.12554566,-3.05155247

>  <Name>
ligand

>  <RI>
0

>  <Rbt.Current_Directory>
/home/itssahil/PROJECTS/Mol_Feturizer/New_Systems/rnas/2HOM

>  <Rbt.Executable>
rbdock ($Id: //depot/dev/client3/rdock/2013.1/src/exe/rbdock.cxx#4 $)

>  <Rbt.Library>
libRbt.so (2013.1, Build901 2013/11/27)

>  <Rbt.Parameter_File>
/export/apps/rDock/src/rDock_2013.1_src/data/scripts/dock_solv.prm

>  <Rbt.Receptor>
prm/pocket_docking_7.prm

>  <SCORE>
-16.9422

>  <SCORE.INTER>
-18.9371

>  <SCORE.INTER.CONST>
1

>  <SCORE.INTER.POLAR>
-1.63459

>  <SCORE.INTER.ROT>
6

>  <SCORE.INTER.SOLV>
18.7305

>  <SCORE.INTER.VDW>
-21.0196

>  <SCORE.INTER.norm>
-0.860778

>  <SCORE.INTRA>
1.99486

>  <SCORE.INTRA.DIHEDRAL>
1.35009

>  <SCORE.INTRA.DIHEDRAL.0>
5.05013

>  <SCORE.INTRA.POLAR>
0

>  <SCORE.INTRA.POLAR.0>
0

>  <SCORE.INTRA.REPUL>
0

>  <SCORE.INTRA.REPUL.0>
0

>  <SCORE.INTRA.SOLV>
0.731956

>  <SCORE.INTRA.SOLV.lig_0>
-54.1265

>  <SCORE.INTRA.VDW>
0.953832

>  <SCORE.INTRA.VDW.0>
-2.1303

>  <SCORE.INTRA.norm>
0.0906754

>  <SCORE.RESTR>
0

>  <SCORE.RESTR.CAVITY>
0

>  <SCORE.RESTR.norm>
0

>  <SCORE.SYSTEM>
0

>  <SCORE.SYSTEM.CONST>
0

>  <SCORE.SYSTEM.DIHEDRAL>
0

>  <SCORE.SYSTEM.SOLV>
0

>  <SCORE.SYSTEM.norm>
0

>  <SCORE.heavy>
22

>  <SCORE.norm>
-0.770102

>  <RMSD>
4.408

$$$$
ligand
 OpenBabel11021811443D
libRbt.so/2013.1/901 2013/11/27
 22 23  0  0  0  0  0  0  0  0999 V2000
   18.8305   41.0109   64.9827 C   0  0  0  0  0  0  0  0  0  0  0  0
   24.0143   44.9008   63.9077 C   0  0  0  0  0  0  0  0  0  0  0  0
   28.9818   41.9879   62.2583 P   0  0  1  0  0  0  0  0  0  0  0  0
   19.4461   43.2741   65.4538 N   0  0  0  0  0  0  0  0  0  0  0  0
   28.8069   40.7077   62.9910 O   0  0  0  0  0  0  0  0  0  0  0  0
   26.5254   43.8118   66.8599 S   0  0  0  0  0  0  0  0  0  0  0  0
   24.9695   44.1914   67.3677 C   0  0  0  0  0  0  0  0  0  0  0  0
   19.8409   41.9537   65.4602 C   0  0  0  0  0  0  0  0  0  0  0  0
   29.7420   43.0196   63.0099 O   0  5  0  0  0  0  0  0  0  0  0  0
   24.1112   44.5583   66.3921 N   0  0  0  0  0  0  0  0  0  0  0  0
   21.0132   41.5488   65.8697 N   0  0  0  0  0  0  0  0  0  0  0  0
   29.5221   41.7353   60.8843 O   0  0  0  0  0  0  0  0  0  0  0  0
   24.7593   44.5288   65.1559 C   0  0  2  0  0  0  0  0  0  0  0  0
   21.9517   42.4731   66.3167 C   0  0  0  0  0  0  0  0  0  0  0  0
   23.1331   42.0403   66.7472 N   0  0  0  0  0  0  0  0  0  0  0  0
   26.0803   44.1515   65.2082 C   0  0  1  0  0  0  0  0  0  0  0  0
   21.6181   43.8878   66.2987 C   0  0  0  0  0  0  0  0  0  0  0  0
   27.0435   44.0386   64.0818 C   0  0  0  0  0  0  0  0  0  0  0  0
   20.3396   44.2011   65.8830 C   0  0  0  0  0  0  0  0  0  0  0  0
   26.6454   42.9677   63.1369 C   0  0  0  0  0  0  0  0  0  0  0  0
   22.6435   44.9450   66.6611 C   0  0  0  0  0  0  0  0  0  0  0  0
   27.5645   42.6541   62.0899 O   0  0  0  0  0  0  0  0  0  0  0  0
  1  8  1  0  0  0  0
  3  5  1  1  0  0  0
  3  9  1  0  0  0  0
  3 12  2  0  0  0  0
  3 22  1  0  0  0  0
  4  8  2  0  0  0  0
  4 19  1  0  0  0  0
  6 16  1  0  0  0  0
  6  7  1  0  0  0  0
  7 10  1  0  0  0  0
  8 11  1  0  0  0  0
 10 13  1  0  0  0  0
 10 21  1  0  0  0  0
 11 14  2  0  0  0  0
 13  2  1  1  0  0  0
 13 16  1  0  0  0  0
 14 15  1  0  0  0  0
 14 17  1  0  0  0  0
 16 18  1  1  0  0  0
 17 19  2  0  0  0  0
 17 21  1  0  0  0  0
 18 20  1  0  0  0  0
 20 22  1  0  0  0  0
M  CHG  1   9  -1
M  END
>  <CHROM.1>
-103.69939462,115.31553563,27.84913173,-173.19402644,67.61548418,55.51800089
24.92874566,43.05072447,64.73113985,2.78837521,0.20212857,0.89456331

>  <Name>
ligand

>  <RI>
0

>  <Rbt.Current_Directory>
/home/itssahil/PROJECTS/Mol_Feturizer/New_Systems/rnas/2HOM

>  <Rbt.Executable>
rbdock ($Id: //depot/dev/client3/rdock/2013.1/src/exe/rbdock.cxx#4 $)

>  <Rbt.Library>
libRbt.so (2013.1, Build901 2013/11/27)

>  <Rbt.Parameter_File>
/export/apps/rDock/src/rDock_2013.1_src/data/scripts/dock_solv.prm

>  <Rbt.Receptor>
prm/pocket_docking_7.prm

>  <SCORE>
-13.6922

>  <SCORE.INTER>
-15.8103

>  <SCORE.INTER.CONST>
1

>  <SCORE.INTER.POLAR>
0

>  <SCORE.INTER.ROT>
6

>  <SCORE.INTER.SOLV>
4.8765

>  <SCORE.INTER.VDW>
-19.7657

>  <SCORE.INTER.norm>
-0.718649

>  <SCORE.INTRA>
2.11809

>  <SCORE.INTRA.DIHEDRAL>
0.146297

>  <SCORE.INTRA.DIHEDRAL.0>
5.05013

>  <SCORE.INTRA.POLAR>
0

>  <SCORE.INTRA.POLAR.0>
0

>  <SCORE.INTRA.REPUL>
0

>  <SCORE.INTRA.REPUL.0>
0

>  <SCORE.INTRA.SOLV>
4.19822

>  <SCORE.INTRA.SOLV.lig_0>
-54.1265

>  <SCORE.INTRA.VDW>
-0.0541662

>  <SCORE.INTRA.VDW.0>
-2.1303

>  <SCORE.INTRA.norm>
0.0962769

>  <SCORE.RESTR>
0

>  <SCORE.RESTR.CAVITY>
0

>  <SCORE.RESTR.norm>
0

>  <SCORE.SYSTEM>
0

>  <SCORE.SYSTEM.CONST>
0

>  <SCORE.SYSTEM.DIHEDRAL>
0

>  <SCORE.SYSTEM.SOLV>
0

>  <SCORE.SYSTEM.norm>
0

>  <SCORE.heavy>
22

>  <SCORE.norm>
-0.622372

>  <RMSD>
4.453

$$$$
ligand
 OpenBabel11021811443D
libRbt.so/2013.1/901 2013/11/27
 22 23  0  0  0  0  0  0  0  0999 V2000
   22.6929   45.6291   66.9004 C   0  0  0  0  0  0  0  0  0  0  0  0
   25.5536   40.3606   67.0128 C   0  0  0  0  0  0  0  0  0  0  0  0
   28.1638   35.7912   69.5891 P   0  0  1  0  0  0  0  0  0  0  0  0
   22.2992   43.3218   66.4058 N   0  0  0  0  0  0  0  0  0  0  0  0
   28.3255   35.3072   70.9841 O   0  0  0  0  0  0  0  0  0  0  0  0
   23.2250   37.2039   66.1076 S   0  0  0  0  0  0  0  0  0  0  0  0
   23.2218   38.4294   64.9584 C   0  0  0  0  0  0  0  0  0  0  0  0
   23.0949   44.4236   66.1772 C   0  0  0  0  0  0  0  0  0  0  0  0
   29.1086   36.8723   69.2073 O   0  5  0  0  0  0  0  0  0  0  0  0
   23.9977   39.4972   65.2429 N   0  0  0  0  0  0  0  0  0  0  0  0
   24.1231   44.4216   65.3717 N   0  0  0  0  0  0  0  0  0  0  0  0
   28.1613   34.6390   68.6319 O   0  0  0  0  0  0  0  0  0  0  0  0
   24.6336   39.3064   66.4710 C   0  0  2  0  0  0  0  0  0  0  0  0
   24.4787   43.2565   64.7001 C   0  0  0  0  0  0  0  0  0  0  0  0
   25.5172   43.2787   63.8699 N   0  0  0  0  0  0  0  0  0  0  0  0
   24.3334   38.1188   67.0953 C   0  0  1  0  0  0  0  0  0  0  0  0
   23.7083   42.0446   64.9255 C   0  0  0  0  0  0  0  0  0  0  0  0
   24.8258   37.6272   68.4087 C   0  0  0  0  0  0  0  0  0  0  0  0
   22.6205   42.1688   65.7662 C   0  0  0  0  0  0  0  0  0  0  0  0
   26.2066   37.0975   68.3033 C   0  0  0  0  0  0  0  0  0  0  0  0
   24.1233   40.7204   64.3133 C   0  0  0  0  0  0  0  0  0  0  0  0
   26.7612   36.4987   69.4751 O   0  0  0  0  0  0  0  0  0  0  0  0
  1  8  1  0  0  0  0
  3  5  1  1  0  0  0
  3  9  1  0  0  0  0
  3 12  2  0  0  0  0
  3 22  1  0  0  0  0
  4  8  2  0  0  0  0
  4 19  1  0  0  0  0
  6 16  1  0  0  0  0
  6  7  1  0  0  0  0
  7 10  1  0  0  0  0
  8 11  1  0  0  0  0
 10 13  1  0  0  0  0
 10 21  1  0  0  0  0
 11 14  2  0  0  0  0
 13  2  1  1  0  0  0
 13 16  1  0  0  0  0
 14 15  1  0  0  0  0
 14 17  1  0  0  0  0
 16 18  1  1  0  0  0
 17 19  2  0  0  0  0
 17 21  1  0  0  0  0
 18 20  1  0  0  0  0
 20 22  1  0  0  0  0
M  CHG  1   9  -1
M  END
>  <CHROM.1>
120.53502186,102.39451437,138.24346399,-175.32863279,176.01739516,-179.60805559
25.14943539,39.35051981,67.02608533,-2.18775611,0.69063466,3.08595789

>  <Name>
ligand

>  <RI>
0

>  <Rbt.Current_Directory>
/home/itssahil/PROJECTS/Mol_Feturizer/New_Systems/rnas/2HOM

>  <Rbt.Executable>
rbdock ($Id: //depot/dev/client3/rdock/2013.1/src/exe/rbdock.cxx#4 $)

>  <Rbt.Library>
libRbt.so (2013.1, Build901 2013/11/27)

>  <Rbt.Parameter_File>
/export/apps/rDock/src/rDock_2013.1_src/data/scripts/dock_solv.prm

>  <Rbt.Receptor>
prm/pocket_docking_8.prm

>  <SCORE>
-17.5238

>  <SCORE.INTER>
-18.0136

>  <SCORE.INTER.CONST>
1

>  <SCORE.INTER.POLAR>
-1.63407

>  <SCORE.INTER.ROT>
6

>  <SCORE.INTER.SOLV>
11.829

>  <SCORE.INTER.VDW>
-18.1052

>  <SCORE.INTER.norm>
-0.818799

>  <SCORE.INTRA>
0.489776

>  <SCORE.INTRA.DIHEDRAL>
-0.0835423

>  <SCORE.INTRA.DIHEDRAL.0>
5.05013

>  <SCORE.INTRA.POLAR>
0

>  <SCORE.INTRA.POLAR.0>
0

>  <SCORE.INTRA.REPUL>
0

>  <SCORE.INTRA.REPUL.0>
0

>  <SCORE.INTRA.SOLV>
1.10686

>  <SCORE.INTRA.SOLV.lig_0>
-54.1265

>  <SCORE.INTRA.VDW>
-0.0218803

>  <SCORE.INTRA.VDW.0>
-2.1303

>  <SCORE.INTRA.norm>
0.0222626

>  <SCORE.RESTR>
0

>  <SCORE.RESTR.CAVITY>
0

>  <SCORE.RESTR.norm>
0

>  <SCORE.SYSTEM>
0

>  <SCORE.SYSTEM.CONST>
0

>  <SCORE.SYSTEM.DIHEDRAL>
0

>  <SCORE.SYSTEM.SOLV>
0

>  <SCORE.SYSTEM.norm>
0

>  <SCORE.heavy>
22

>  <SCORE.norm>
-0.796537

>  <RMSD>
4.542

$$$$
ligand
 OpenBabel11021811443D
libRbt.so/2013.1/901 2013/11/27
 22 23  0  0  0  0  0  0  0  0999 V2000
   21.1745   43.9938   65.9369 C   0  0  0  0  0  0  0  0  0  0  0  0
   28.8703   39.7908   66.3653 C   0  0  0  0  0  0  0  0  0  0  0  0
   30.4048   38.2812   62.0622 P   0  0  1  0  0  0  0  0  0  0  0  0
   22.6553   42.5031   67.0806 N   0  0  0  0  0  0  0  0  0  0  0  0
   29.7300   37.5076   60.9887 O   0  0  0  0  0  0  0  0  0  0  0  0
   25.7263   37.6622   65.0270 S   0  0  0  0  0  0  0  0  0  0  0  0
   25.3521   39.2175   65.5406 C   0  0  0  0  0  0  0  0  0  0  0  0
   22.4784   43.3348   65.9961 C   0  0  0  0  0  0  0  0  0  0  0  0
   31.7489   37.7659   62.4299 O   0  5  0  0  0  0  0  0  0  0  0  0
   26.3935   39.9485   65.9924 N   0  0  0  0  0  0  0  0  0  0  0  0
   23.3821   43.5250   65.0724 N   0  0  0  0  0  0  0  0  0  0  0  0
   30.3976   39.7435   61.7377 O   0  0  0  0  0  0  0  0  0  0  0  0
   27.5676   39.1972   65.9161 C   0  0  2  0  0  0  0  0  0  0  0  0
   24.6129   42.8830   65.1604 C   0  0  0  0  0  0  0  0  0  0  0  0
   25.5134   43.0743   64.2008 N   0  0  0  0  0  0  0  0  0  0  0  0
   27.4048   37.9250   65.4207 C   0  0  1  0  0  0  0  0  0  0  0  0
   24.8842   42.0225   66.3001 C   0  0  0  0  0  0  0  0  0  0  0  0
   28.4431   36.8783   65.2319 C   0  0  0  0  0  0  0  0  0  0  0  0
   23.8463   41.8627   67.1961 C   0  0  0  0  0  0  0  0  0  0  0  0
   28.9701   36.8849   63.8461 C   0  0  0  0  0  0  0  0  0  0  0  0
   26.2490   41.3942   66.5074 C   0  0  0  0  0  0  0  0  0  0  0  0
   29.5839   38.0921   63.3930 O   0  0  0  0  0  0  0  0  0  0  0  0
  1  8  1  0  0  0  0
  3  5  1  6  0  0  0
  3  9  1  0  0  0  0
  3 12  2  0  0  0  0
  3 22  1  0  0  0  0
  4  8  2  0  0  0  0
  4 19  1  0  0  0  0
  6 16  1  0  0  0  0
  6  7  1  0  0  0  0
  7 10  1  0  0  0  0
  8 11  1  0  0  0  0
 10 13  1  0  0  0  0
 10 21  1  0  0  0  0
 11 14  2  0  0  0  0
 13  2  1  1  0  0  0
 13 16  1  0  0  0  0
 14 15  1  0  0  0  0
 14 17  1  0  0  0  0
 16 18  1  1  0  0  0
 17 19  2  0  0  0  0
 17 21  1  0  0  0  0
 18 20  1  0  0  0  0
 20 22  1  0  0  0  0
M  CHG  1   9  -1
M  END
>  <CHROM.1>
-8.04187418,85.33720059,-96.58312731,59.64562980,170.03309995,39.39197629
26.88986389,39.86647034,64.64862563,-2.86228220,-0.67187635,2.60887736

>  <Name>
ligand

>  <RI>
0

>  <Rbt.Current_Directory>
/home/itssahil/PROJECTS/Mol_Feturizer/New_Systems/rnas/2HOM

>  <Rbt.Executable>
rbdock ($Id: //depot/dev/client3/rdock/2013.1/src/exe/rbdock.cxx#4 $)

>  <Rbt.Library>
libRbt.so (2013.1, Build901 2013/11/27)

>  <Rbt.Parameter_File>
/export/apps/rDock/src/rDock_2013.1_src/data/scripts/dock_solv.prm

>  <Rbt.Receptor>
prm/pocket_docking_7.prm

>  <SCORE>
-9.85612

>  <SCORE.INTER>
-10.3541

>  <SCORE.INTER.CONST>
1

>  <SCORE.INTER.POLAR>
0

>  <SCORE.INTER.ROT>
6

>  <SCORE.INTER.SOLV>
6.06354

>  <SCORE.INTER.VDW>
-16.5239

>  <SCORE.INTER.norm>
-0.470642

>  <SCORE.INTRA>
0.498004

>  <SCORE.INTRA.DIHEDRAL>
1.17397

>  <SCORE.INTRA.DIHEDRAL.0>
5.05013

>  <SCORE.INTRA.POLAR>
0

>  <SCORE.INTRA.POLAR.0>
0

>  <SCORE.INTRA.REPUL>
0

>  <SCORE.INTRA.REPUL.0>
0

>  <SCORE.INTRA.SOLV>
0.179782

>  <SCORE.INTRA.SOLV.lig_0>
-54.1265

>  <SCORE.INTRA.VDW>
-0.178874

>  <SCORE.INTRA.VDW.0>
-2.1303

>  <SCORE.INTRA.norm>
0.0226365

>  <SCORE.RESTR>
0

>  <SCORE.RESTR.CAVITY>
0

>  <SCORE.RESTR.norm>
0

>  <SCORE.SYSTEM>
0

>  <SCORE.SYSTEM.CONST>
0

>  <SCORE.SYSTEM.DIHEDRAL>
0

>  <SCORE.SYSTEM.SOLV>
0

>  <SCORE.SYSTEM.norm>
0

>  <SCORE.heavy>
22

>  <SCORE.norm>
-0.448005

>  <RMSD>
4.569

$$$$
ligand
 OpenBabel11021811443D
libRbt.so/2013.1/901 2013/11/27
 22 23  0  0  0  0  0  0  0  0999 V2000
   22.9062   45.9377   66.8492 C   0  0  0  0  0  0  0  0  0  0  0  0
   25.7013   40.3855   67.2159 C   0  0  0  0  0  0  0  0  0  0  0  0
   28.0732   35.2178   69.3928 P   0  0  1  0  0  0  0  0  0  0  0  0
   24.4603   44.3895   65.8946 N   0  0  0  0  0  0  0  0  0  0  0  0
   27.9253   34.1827   68.3379 O   0  0  0  0  0  0  0  0  0  0  0  0
   23.3105   37.2742   66.3156 S   0  0  0  0  0  0  0  0  0  0  0  0
   23.2760   38.5302   65.2003 C   0  0  0  0  0  0  0  0  0  0  0  0
   23.1661   44.6000   66.3190 C   0  0  0  0  0  0  0  0  0  0  0  0
   28.1205   34.6750   70.7750 O   0  5  0  0  0  0  0  0  0  0  0  0
   24.0721   39.5833   65.4836 N   0  0  0  0  0  0  0  0  0  0  0  0
   22.2310   43.6891   66.2760 N   0  0  0  0  0  0  0  0  0  0  0  0
   29.2170   36.1310   69.0738 O   0  0  0  0  0  0  0  0  0  0  0  0
   24.7517   39.3541   66.6813 C   0  0  2  0  0  0  0  0  0  0  0  0
   22.5123   42.4267   65.7641 C   0  0  0  0  0  0  0  0  0  0  0  0
   21.5525   41.5065   65.7457 N   0  0  0  0  0  0  0  0  0  0  0  0
   24.4638   38.1528   67.2848 C   0  0  1  0  0  0  0  0  0  0  0  0
   23.8467   42.1471   65.2597 C   0  0  0  0  0  0  0  0  0  0  0  0
   25.0004   37.6218   68.5652 C   0  0  0  0  0  0  0  0  0  0  0  0
   24.7667   43.1681   65.3885 C   0  0  0  0  0  0  0  0  0  0  0  0
   26.3133   36.9620   68.3676 C   0  0  0  0  0  0  0  0  0  0  0  0
   24.1744   40.8299   64.5828 C   0  0  0  0  0  0  0  0  0  0  0  0
   26.7641   36.0935   69.4077 O   0  0  0  0  0  0  0  0  0  0  0  0
  1  8  1  0  0  0  0
  3  5  1  6  0  0  0
  3  9  1  0  0  0  0
  3 12  2  0  0  0  0
  3 22  1  0  0  0  0
  4  8  2  0  0  0  0
  4 19  1  0  0  0  0
  6 16  1  0  0  0  0
  6  7  1  0  0  0  0
  7 10  1  0  0  0  0
  8 11  1  0  0  0  0
 10 13  1  0  0  0  0
 10 21  1  0  0  0  0
 11 14  2  0  0  0  0
 13  2  1  1  0  0  0
 13 16  1  0  0  0  0
 14 15  1  0  0  0  0
 14 17  1  0  0  0  0
 16 18  1  1  0  0  0
 17 19  2  0  0  0  0
 17 21  1  0  0  0  0
 18 20  1  0  0  0  0
 20 22  1  0  0  0  0
M  CHG  1   9  -1
M  END
>  <CHROM.1>
122.78322414,96.70900836,-64.67272574,-162.92414747,176.08997403,-66.11565677
25.03844252,39.17946327,67.18908419,-2.17562217,0.62563822,3.13000676

>  <Name>
ligand

>  <RI>
0

>  <Rbt.Current_Directory>
/home/itssahil/PROJECTS/Mol_Feturizer/New_Systems/rnas/2HOM

>  <Rbt.Executable>
rbdock ($Id: //depot/dev/client3/rdock/2013.1/src/exe/rbdock.cxx#4 $)

>  <Rbt.Library>
libRbt.so (2013.1, Build901 2013/11/27)

>  <Rbt.Parameter_File>
/export/apps/rDock/src/rDock_2013.1_src/data/scripts/dock_solv.prm

>  <Rbt.Receptor>
prm/pocket_docking_6.prm

>  <SCORE>
-18.2433

>  <SCORE.INTER>
-19.1948

>  <SCORE.INTER.CONST>
1

>  <SCORE.INTER.POLAR>
-1.63459

>  <SCORE.INTER.ROT>
6

>  <SCORE.INTER.SOLV>
13.8049

>  <SCORE.INTER.VDW>
-19.5496

>  <SCORE.INTER.norm>
-0.872492

>  <SCORE.INTRA>
0.951571

>  <SCORE.INTRA.DIHEDRAL>
0.940058

>  <SCORE.INTRA.DIHEDRAL.0>
5.05013

>  <SCORE.INTRA.POLAR>
0

>  <SCORE.INTRA.POLAR.0>
0

>  <SCORE.INTRA.REPUL>
0

>  <SCORE.INTRA.REPUL.0>
0

>  <SCORE.INTRA.SOLV>
1.43543

>  <SCORE.INTRA.SOLV.lig_0>
-54.1265

>  <SCORE.INTRA.VDW>
-0.236173

>  <SCORE.INTRA.VDW.0>
-2.1303

>  <SCORE.INTRA.norm>
0.0432532

>  <SCORE.RESTR>
0

>  <SCORE.RESTR.CAVITY>
0

>  <SCORE.RESTR.norm>
0

>  <SCORE.SYSTEM>
0

>  <SCORE.SYSTEM.CONST>
0

>  <SCORE.SYSTEM.DIHEDRAL>
0

>  <SCORE.SYSTEM.SOLV>
0

>  <SCORE.SYSTEM.norm>
0

>  <SCORE.heavy>
22

>  <SCORE.norm>
-0.829239

>  <RMSD>
4.597

$$$$
ligand
 OpenBabel11021811443D
libRbt.so/2013.1/901 2013/11/27
 22 23  0  0  0  0  0  0  0  0999 V2000
   18.6580   40.5791   64.6556 C   0  0  0  0  0  0  0  0  0  0  0  0
   25.3883   44.0860   67.1225 C   0  0  0  0  0  0  0  0  0  0  0  0
   27.3340   41.2704   62.7595 P   0  0  1  0  0  0  0  0  0  0  0  0
   19.2259   42.8220   65.2637 N   0  0  0  0  0  0  0  0  0  0  0  0
   28.7975   41.1042   62.5677 O   0  0  0  0  0  0  0  0  0  0  0  0
   24.7045   45.4158   63.3847 S   0  0  0  0  0  0  0  0  0  0  0  0
   23.3222   45.1941   64.3135 C   0  0  0  0  0  0  0  0  0  0  0  0
   19.6485   41.5124   65.1901 C   0  0  0  0  0  0  0  0  0  0  0  0
   26.5406   41.1625   61.5080 O   0  5  0  0  0  0  0  0  0  0  0  0
   23.5301   44.7493   65.5712 N   0  0  0  0  0  0  0  0  0  0  0  0
   20.8295   41.1083   65.5748 N   0  0  0  0  0  0  0  0  0  0  0  0
   26.8436   40.3719   63.8531 O   0  0  0  0  0  0  0  0  0  0  0  0
   24.8979   44.5784   65.7926 C   0  0  2  0  0  0  0  0  0  0  0  0
   21.7486   42.0234   66.0776 C   0  0  0  0  0  0  0  0  0  0  0  0
   22.9392   41.5904   66.4816 N   0  0  0  0  0  0  0  0  0  0  0  0
   25.6971   44.8852   64.7168 C   0  0  1  0  0  0  0  0  0  0  0  0
   21.3850   43.4292   66.1455 C   0  0  0  0  0  0  0  0  0  0  0  0
   27.1777   44.7938   64.6231 C   0  0  0  0  0  0  0  0  0  0  0  0
   20.0999   43.7400   65.7489 C   0  0  0  0  0  0  0  0  0  0  0  0
   27.6168   43.4020   64.3616 C   0  0  0  0  0  0  0  0  0  0  0  0
   22.3881   44.4840   66.5719 C   0  0  0  0  0  0  0  0  0  0  0  0
   27.0646   42.7539   63.2152 O   0  0  0  0  0  0  0  0  0  0  0  0
  1  8  1  0  0  0  0
  3  5  1  6  0  0  0
  3  9  1  0  0  0  0
  3 12  2  0  0  0  0
  3 22  1  0  0  0  0
  4  8  2  0  0  0  0
  4 19  1  0  0  0  0
  6 16  1  0  0  0  0
  6  7  1  0  0  0  0
  7 10  1  0  0  0  0
  8 11  1  0  0  0  0
 10 13  1  0  0  0  0
 10 21  1  0  0  0  0
 11 14  2  0  0  0  0
 13  2  1  6  0  0  0
 13 16  1  0  0  0  0
 14 15  1  0  0  0  0
 14 17  1  0  0  0  0
 16 18  1  6  0  0  0
 17 19  2  0  0  0  0
 17 21  1  0  0  0  0
 18 20  1  0  0  0  0
 20 22  1  0  0  0  0
M  CHG  1   9  -1
M  END
>  <CHROM.1>
60.85921720,-99.07301329,69.42937015,55.39457965,-177.67935215,-57.46132456
24.24697036,42.93478773,64.55204543,2.99671402,0.30359299,0.36624837

>  <Name>
ligand

>  <RI>
0

>  <Rbt.Current_Directory>
/home/itssahil/PROJECTS/Mol_Feturizer/New_Systems/rnas/2HOM

>  <Rbt.Executable>
rbdock ($Id: //depot/dev/client3/rdock/2013.1/src/exe/rbdock.cxx#4 $)

>  <Rbt.Library>
libRbt.so (2013.1, Build901 2013/11/27)

>  <Rbt.Parameter_File>
/export/apps/rDock/src/rDock_2013.1_src/data/scripts/dock_solv.prm

>  <Rbt.Receptor>
prm/pocket_docking_7.prm

>  <SCORE>
-16.7874

>  <SCORE.INTER>
-17.0579

>  <SCORE.INTER.CONST>
1

>  <SCORE.INTER.POLAR>
0

>  <SCORE.INTER.ROT>
6

>  <SCORE.INTER.SOLV>
11.4348

>  <SCORE.INTER.VDW>
-22.7835

>  <SCORE.INTER.norm>
-0.775359

>  <SCORE.INTRA>
0.270521

>  <SCORE.INTRA.DIHEDRAL>
-0.306914

>  <SCORE.INTRA.DIHEDRAL.0>
5.05013

>  <SCORE.INTRA.POLAR>
0

>  <SCORE.INTRA.POLAR.0>
0

>  <SCORE.INTRA.REPUL>
0

>  <SCORE.INTRA.REPUL.0>
0

>  <SCORE.INTRA.SOLV>
2.09594

>  <SCORE.INTRA.SOLV.lig_0>
-54.1265

>  <SCORE.INTRA.VDW>
-0.62399

>  <SCORE.INTRA.VDW.0>
-2.1303

>  <SCORE.INTRA.norm>
0.0122964

>  <SCORE.RESTR>
0

>  <SCORE.RESTR.CAVITY>
0

>  <SCORE.RESTR.norm>
0

>  <SCORE.SYSTEM>
0

>  <SCORE.SYSTEM.CONST>
0

>  <SCORE.SYSTEM.DIHEDRAL>
0

>  <SCORE.SYSTEM.SOLV>
0

>  <SCORE.SYSTEM.norm>
0

>  <SCORE.heavy>
22

>  <SCORE.norm>
-0.763062

>  <RMSD>
4.654

$$$$
ligand
 OpenBabel11021811443D
libRbt.so/2013.1/901 2013/11/27
 22 23  0  0  0  0  0  0  0  0999 V2000
   25.1132   45.0511   61.2693 C   0  0  0  0  0  0  0  0  0  0  0  0
   24.6128   38.5856   66.9595 C   0  0  0  0  0  0  0  0  0  0  0  0
   29.5064   36.8056   65.3634 P   0  0  1  0  0  0  0  0  0  0  0  0
   25.1913   42.8274   62.1479 N   0  0  0  0  0  0  0  0  0  0  0  0
   30.0544   37.6859   64.2998 O   0  0  0  0  0  0  0  0  0  0  0  0
   27.8792   40.8965   67.4038 S   0  0  0  0  0  0  0  0  0  0  0  0
   26.6528   41.5857   66.4853 C   0  0  0  0  0  0  0  0  0  0  0  0
   24.9265   44.1544   62.4090 C   0  0  0  0  0  0  0  0  0  0  0  0
   28.4728   35.8497   64.8888 O   0  5  0  0  0  0  0  0  0  0  0  0
   25.5476   40.8267   66.3252 N   0  0  0  0  0  0  0  0  0  0  0  0
   24.5518   44.6035   63.5769 N   0  0  0  0  0  0  0  0  0  0  0  0
   30.6174   36.1498   66.1245 O   0  0  0  0  0  0  0  0  0  0  0  0
   25.7087   39.6100   66.9906 C   0  0  2  0  0  0  0  0  0  0  0  0
   24.3826   43.7222   64.6398 C   0  0  0  0  0  0  0  0  0  0  0  0
   24.0188   44.2003   65.8261 N   0  0  0  0  0  0  0  0  0  0  0  0
   26.9156   39.4609   67.6320 C   0  0  1  0  0  0  0  0  0  0  0  0
   24.6046   42.3017   64.4255 C   0  0  0  0  0  0  0  0  0  0  0  0
   27.3998   38.2885   68.4067 C   0  0  0  0  0  0  0  0  0  0  0  0
   25.0344   41.9416   63.1641 C   0  0  0  0  0  0  0  0  0  0  0  0
   27.9681   37.2497   67.5144 C   0  0  0  0  0  0  0  0  0  0  0  0
   24.3194   41.2853   65.5147 C   0  0  0  0  0  0  0  0  0  0  0  0
   28.7078   37.7046   66.3808 O   0  0  0  0  0  0  0  0  0  0  0  0
  1  8  1  0  0  0  0
  3  5  1  6  0  0  0
  3  9  1  0  0  0  0
  3 12  2  0  0  0  0
  3 22  1  0  0  0  0
  4  8  2  0  0  0  0
  4 19  1  0  0  0  0
  6 16  1  0  0  0  0
  6  7  1  0  0  0  0
  7 10  1  0  0  0  0
  8 11  1  0  0  0  0
 10 13  1  0  0  0  0
 10 21  1  0  0  0  0
 11 14  2  0  0  0  0
 13  2  1  6  0  0  0
 13 16  1  0  0  0  0
 14 15  1  0  0  0  0
 14 17  1  0  0  0  0
 16 18  1  6  0  0  0
 17 19  2  0  0  0  0
 17 21  1  0  0  0  0
 18 20  1  0  0  0  0
 20 22  1  0  0  0  0
M  CHG  1   9  -1
M  END
>  <CHROM.1>
26.16209189,-96.62804769,-98.39205772,37.22285746,174.38903793,176.70046973
26.79263032,40.19486716,65.46651202,-2.48072682,-0.85009869,2.00072269

>  <Name>
ligand

>  <RI>
0

>  <Rbt.Current_Directory>
/home/itssahil/PROJECTS/Mol_Feturizer/New_Systems/rnas/2HOM

>  <Rbt.Executable>
rbdock ($Id: //depot/dev/client3/rdock/2013.1/src/exe/rbdock.cxx#4 $)

>  <Rbt.Library>
libRbt.so (2013.1, Build901 2013/11/27)

>  <Rbt.Parameter_File>
/export/apps/rDock/src/rDock_2013.1_src/data/scripts/dock_solv.prm

>  <Rbt.Receptor>
prm/pocket_docking_7.prm

>  <SCORE>
-8.55217

>  <SCORE.INTER>
-9.70764

>  <SCORE.INTER.CONST>
1

>  <SCORE.INTER.POLAR>
-1.63459

>  <SCORE.INTER.ROT>
6

>  <SCORE.INTER.SOLV>
11.5318

>  <SCORE.INTER.VDW>
-12.4671

>  <SCORE.INTER.norm>
-0.441256

>  <SCORE.INTRA>
1.15547

>  <SCORE.INTRA.DIHEDRAL>
1.7105

>  <SCORE.INTRA.DIHEDRAL.0>
5.05013

>  <SCORE.INTRA.POLAR>
0

>  <SCORE.INTRA.POLAR.0>
0

>  <SCORE.INTRA.REPUL>
0

>  <SCORE.INTRA.REPUL.0>
0

>  <SCORE.INTRA.SOLV>
0.91105

>  <SCORE.INTRA.SOLV.lig_0>
-54.1265

>  <SCORE.INTRA.VDW>
-0.155305

>  <SCORE.INTRA.VDW.0>
-2.1303

>  <SCORE.INTRA.norm>
0.0525213

>  <SCORE.RESTR>
0

>  <SCORE.RESTR.CAVITY>
0

>  <SCORE.RESTR.norm>
0

>  <SCORE.SYSTEM>
0

>  <SCORE.SYSTEM.CONST>
0

>  <SCORE.SYSTEM.DIHEDRAL>
0

>  <SCORE.SYSTEM.SOLV>
0

>  <SCORE.SYSTEM.norm>
0

>  <SCORE.heavy>
22

>  <SCORE.norm>
-0.388735

>  <RMSD>
4.659

$$$$
ligand
 OpenBabel11021811443D
libRbt.so/2013.1/901 2013/11/27
 22 23  0  0  0  0  0  0  0  0999 V2000
   18.0465   40.2334   64.6237 C   0  0  0  0  0  0  0  0  0  0  0  0
   24.3887   41.3039   64.9453 C   0  0  0  0  0  0  0  0  0  0  0  0
   28.9576   44.1835   62.5403 P   0  0  1  0  0  0  0  0  0  0  0  0
   19.2284   42.3133   64.6481 N   0  0  0  0  0  0  0  0  0  0  0  0
   29.7939   43.2766   61.7131 O   0  0  0  0  0  0  0  0  0  0  0  0
   24.8006   44.8494   63.0835 S   0  0  0  0  0  0  0  0  0  0  0  0
   23.6756   44.8397   64.3313 C   0  0  0  0  0  0  0  0  0  0  0  0
   19.2015   41.0050   65.0804 C   0  0  0  0  0  0  0  0  0  0  0  0
   28.6206   43.6439   63.8829 O   0  5  0  0  0  0  0  0  0  0  0  0
   23.5233   43.6596   64.9695 N   0  0  0  0  0  0  0  0  0  0  0  0
   20.1147   40.4761   65.8500 N   0  0  0  0  0  0  0  0  0  0  0  0
   29.5586   45.5548   62.5849 O   0  0  0  0  0  0  0  0  0  0  0  0
   24.3739   42.7051   64.4088 C   0  0  2  0  0  0  0  0  0  0  0  0
   21.2016   41.2385   66.2654 C   0  0  0  0  0  0  0  0  0  0  0  0
   22.1115   40.6883   67.0639 N   0  0  0  0  0  0  0  0  0  0  0  0
   25.1442   43.1632   63.3663 C   0  0  1  0  0  0  0  0  0  0  0  0
   21.3162   42.6153   65.8134 C   0  0  0  0  0  0  0  0  0  0  0  0
   26.1273   42.4008   62.5529 C   0  0  0  0  0  0  0  0  0  0  0  0
   20.2767   43.0834   65.0351 C   0  0  0  0  0  0  0  0  0  0  0  0
   26.6910   43.2362   61.4654 C   0  0  0  0  0  0  0  0  0  0  0  0
   22.5385   43.4530   66.1372 C   0  0  0  0  0  0  0  0  0  0  0  0
   27.5463   44.3121   61.8530 O   0  0  0  0  0  0  0  0  0  0  0  0
  1  8  1  0  0  0  0
  3  5  1  6  0  0  0
  3  9  1  0  0  0  0
  3 12  2  0  0  0  0
  3 22  1  0  0  0  0
  4  8  2  0  0  0  0
  4 19  1  0  0  0  0
  6 16  1  0  0  0  0
  6  7  1  0  0  0  0
  7 10  1  0  0  0  0
  8 11  1  0  0  0  0
 10 13  1  0  0  0  0
 10 21  1  0  0  0  0
 11 14  2  0  0  0  0
 13  2  1  6  0  0  0
 13 16  1  0  0  0  0
 14 15  1  0  0  0  0
 14 17  1  0  0  0  0
 16 18  1  6  0  0  0
 17 19  2  0  0  0  0
 17 21  1  0  0  0  0
 18 20  1  0  0  0  0
 20 22  1  0  0  0  0
M  CHG  1   9  -1
M  END
>  <CHROM.1>
108.40609257,-2.98839313,104.29577812,68.54621391,65.77190243,53.14104076
24.43238239,43.03058918,63.98475892,-2.72643048,0.18648164,-0.45075492

>  <Name>
ligand

>  <RI>
0

>  <Rbt.Current_Directory>
/home/itssahil/PROJECTS/Mol_Feturizer/New_Systems/rnas/2HOM

>  <Rbt.Executable>
rbdock ($Id: //depot/dev/client3/rdock/2013.1/src/exe/rbdock.cxx#4 $)

>  <Rbt.Library>
libRbt.so (2013.1, Build901 2013/11/27)

>  <Rbt.Parameter_File>
/export/apps/rDock/src/rDock_2013.1_src/data/scripts/dock_solv.prm

>  <Rbt.Receptor>
prm/pocket_docking_7.prm

>  <SCORE>
-12.3934

>  <SCORE.INTER>
-14.5596

>  <SCORE.INTER.CONST>
1

>  <SCORE.INTER.POLAR>
0

>  <SCORE.INTER.ROT>
6

>  <SCORE.INTER.SOLV>
6.41445

>  <SCORE.INTER.VDW>
-19.4445

>  <SCORE.INTER.norm>
-0.661799

>  <SCORE.INTRA>
2.16615

>  <SCORE.INTRA.DIHEDRAL>
-0.0370968

>  <SCORE.INTRA.DIHEDRAL.0>
5.05013

>  <SCORE.INTRA.POLAR>
0

>  <SCORE.INTRA.POLAR.0>
0

>  <SCORE.INTRA.REPUL>
0

>  <SCORE.INTRA.REPUL.0>
0

>  <SCORE.INTRA.SOLV>
2.96707

>  <SCORE.INTRA.SOLV.lig_0>
-54.1265

>  <SCORE.INTRA.VDW>
0.701167

>  <SCORE.INTRA.VDW.0>
-2.1303

>  <SCORE.INTRA.norm>
0.0984615

>  <SCORE.RESTR>
0

>  <SCORE.RESTR.CAVITY>
0

>  <SCORE.RESTR.norm>
0

>  <SCORE.SYSTEM>
0

>  <SCORE.SYSTEM.CONST>
0

>  <SCORE.SYSTEM.DIHEDRAL>
0

>  <SCORE.SYSTEM.SOLV>
0

>  <SCORE.SYSTEM.norm>
0

>  <SCORE.heavy>
22

>  <SCORE.norm>
-0.563337

>  <RMSD>
4.722

$$$$
ligand
 OpenBabel11021811443D
libRbt.so/2013.1/901 2013/11/27
 22 23  0  0  0  0  0  0  0  0999 V2000
   21.1664   42.2613   65.8970 C   0  0  0  0  0  0  0  0  0  0  0  0
   27.3034   40.6694   66.9703 C   0  0  0  0  0  0  0  0  0  0  0  0
   28.0478   36.1373   69.7321 P   0  0  1  0  0  0  0  0  0  0  0  0
   23.0981   42.0336   67.2898 N   0  0  0  0  0  0  0  0  0  0  0  0
   28.4662   34.9047   70.4476 O   0  0  0  0  0  0  0  0  0  0  0  0
   28.2223   42.0591   70.6351 S   0  0  0  0  0  0  0  0  0  0  0  0
   27.5176   43.1909   69.6129 C   0  0  0  0  0  0  0  0  0  0  0  0
   22.5550   42.6280   66.1713 C   0  0  0  0  0  0  0  0  0  0  0  0
   28.9798   36.5614   68.6556 O   0  5  0  0  0  0  0  0  0  0  0  0
   27.2007   42.7442   68.3788 N   0  0  0  0  0  0  0  0  0  0  0  0
   23.2117   43.4456   65.3927 N   0  0  0  0  0  0  0  0  0  0  0  0
   26.6261   36.0206   69.2750 O   0  0  0  0  0  0  0  0  0  0  0  0
   27.5529   41.3987   68.2576 C   0  0  2  0  0  0  0  0  0  0  0  0
   24.5317   43.7741   65.6837 C   0  0  0  0  0  0  0  0  0  0  0  0
   25.1900   44.5935   64.8692 N   0  0  0  0  0  0  0  0  0  0  0  0
   28.1279   40.8517   69.3803 C   0  0  1  0  0  0  0  0  0  0  0  0
   25.1561   43.2160   66.8719 C   0  0  0  0  0  0  0  0  0  0  0  0
   28.6261   39.4639   69.5678 C   0  0  0  0  0  0  0  0  0  0  0  0
   24.3841   42.3346   67.6018 C   0  0  0  0  0  0  0  0  0  0  0  0
   27.7479   38.6944   70.4816 C   0  0  0  0  0  0  0  0  0  0  0  0
   26.5497   43.6334   67.3010 C   0  0  0  0  0  0  0  0  0  0  0  0
   28.1171   37.3405   70.7461 O   0  0  0  0  0  0  0  0  0  0  0  0
  1  8  1  0  0  0  0
  3  5  1  1  0  0  0
  3  9  1  0  0  0  0
  3 12  2  0  0  0  0
  3 22  1  0  0  0  0
  4  8  2  0  0  0  0
  4 19  1  0  0  0  0
  6 16  1  0  0  0  0
  6  7  1  0  0  0  0
  7 10  1  0  0  0  0
  8 11  1  0  0  0  0
 10 13  1  0  0  0  0
 10 21  1  0  0  0  0
 11 14  2  0  0  0  0
 13  2  1  6  0  0  0
 13 16  1  0  0  0  0
 14 15  1  0  0  0  0
 14 17  1  0  0  0  0
 16 18  1  6  0  0  0
 17 19  2  0  0  0  0
 17 21  1  0  0  0  0
 18 20  1  0  0  0  0
 20 22  1  0  0  0  0
M  CHG  1   9  -1
M  END
>  <CHROM.1>
-115.97919628,71.62143894,-166.92225835,179.98811201,-70.18046644,-177.39025877
26.53448089,40.47526043,68.40653181,2.20356670,-0.59990410,-0.12015059

>  <Name>
ligand

>  <RI>
0

>  <Rbt.Current_Directory>
/home/itssahil/PROJECTS/Mol_Feturizer/New_Systems/rnas/2HOM

>  <Rbt.Executable>
rbdock ($Id: //depot/dev/client3/rdock/2013.1/src/exe/rbdock.cxx#4 $)

>  <Rbt.Library>
libRbt.so (2013.1, Build901 2013/11/27)

>  <Rbt.Parameter_File>
/export/apps/rDock/src/rDock_2013.1_src/data/scripts/dock_solv.prm

>  <Rbt.Receptor>
prm/pocket_docking_6.prm

>  <SCORE>
-13.8161

>  <SCORE.INTER>
-14.9379

>  <SCORE.INTER.CONST>
1

>  <SCORE.INTER.POLAR>
-1.63459

>  <SCORE.INTER.ROT>
6

>  <SCORE.INTER.SOLV>
7.58508

>  <SCORE.INTER.VDW>
-14.6383

>  <SCORE.INTER.norm>
-0.678994

>  <SCORE.INTRA>
1.12178

>  <SCORE.INTRA.DIHEDRAL>
0.501334

>  <SCORE.INTRA.DIHEDRAL.0>
5.05013

>  <SCORE.INTRA.POLAR>
0

>  <SCORE.INTRA.POLAR.0>
0

>  <SCORE.INTRA.REPUL>
0

>  <SCORE.INTRA.REPUL.0>
0

>  <SCORE.INTRA.SOLV>
1.73964

>  <SCORE.INTRA.SOLV.lig_0>
-54.1265

>  <SCORE.INTRA.VDW>
0.00129117

>  <SCORE.INTRA.VDW.0>
-2.1303

>  <SCORE.INTRA.norm>
0.05099

>  <SCORE.RESTR>
0

>  <SCORE.RESTR.CAVITY>
0

>  <SCORE.RESTR.norm>
0

>  <SCORE.SYSTEM>
0

>  <SCORE.SYSTEM.CONST>
0

>  <SCORE.SYSTEM.DIHEDRAL>
0

>  <SCORE.SYSTEM.SOLV>
0

>  <SCORE.SYSTEM.norm>
0

>  <SCORE.heavy>
22

>  <SCORE.norm>
-0.628004

>  <RMSD>
4.847

$$$$
ligand
 OpenBabel11021811443D
libRbt.so/2013.1/901 2013/11/27
 22 23  0  0  0  0  0  0  0  0999 V2000
   23.3010   46.3393   66.8402 C   0  0  0  0  0  0  0  0  0  0  0  0
   28.0199   40.3947   67.9157 C   0  0  0  0  0  0  0  0  0  0  0  0
   29.6857   36.3215   64.9968 P   0  0  1  0  0  0  0  0  0  0  0  0
   24.9273   44.6955   67.4536 N   0  0  0  0  0  0  0  0  0  0  0  0
   28.5556   35.3802   64.7894 O   0  0  0  0  0  0  0  0  0  0  0  0
   27.3465   40.1379   63.9550 S   0  0  0  0  0  0  0  0  0  0  0  0
   25.9868   40.4937   64.8754 C   0  0  0  0  0  0  0  0  0  0  0  0
   23.6687   44.9278   66.9425 C   0  0  0  0  0  0  0  0  0  0  0  0
   29.8129   36.8212   66.3901 O   0  5  0  0  0  0  0  0  0  0  0  0
   26.1918   40.5853   66.2068 N   0  0  0  0  0  0  0  0  0  0  0  0
   22.8444   43.9800   66.5847 N   0  0  0  0  0  0  0  0  0  0  0  0
   30.9563   35.7418   64.4553 O   0  0  0  0  0  0  0  0  0  0  0  0
   27.5375   40.3516   66.4956 C   0  0  2  0  0  0  0  0  0  0  0  0
   23.2269   42.6471   66.6942 C   0  0  0  0  0  0  0  0  0  0  0  0
   22.3673   41.6954   66.3425 N   0  0  0  0  0  0  0  0  0  0  0  0
   28.3228   40.0847   65.3991 C   0  0  1  0  0  0  0  0  0  0  0  0
   24.5570   42.3291   67.1869 C   0  0  0  0  0  0  0  0  0  0  0  0
   29.7770   39.7787   65.3695 C   0  0  0  0  0  0  0  0  0  0  0  0
   25.3311   43.4052   67.5719 C   0  0  0  0  0  0  0  0  0  0  0  0
   30.1129   38.8623   64.2534 C   0  0  0  0  0  0  0  0  0  0  0  0
   25.0682   40.9013   67.2136 C   0  0  0  0  0  0  0  0  0  0  0  0
   29.3852   37.6356   64.1821 O   0  0  0  0  0  0  0  0  0  0  0  0
  1  8  1  0  0  0  0
  3  5  1  6  0  0  0
  3  9  1  0  0  0  0
  3 12  2  0  0  0  0
  3 22  1  0  0  0  0
  4  8  2  0  0  0  0
  4 19  1  0  0  0  0
  6 16  1  0  0  0  0
  6  7  1  0  0  0  0
  7 10  1  0  0  0  0
  8 11  1  0  0  0  0
 10 13  1  0  0  0  0
 10 21  1  0  0  0  0
 11 14  2  0  0  0  0
 13  2  1  1  0  0  0
 13 16  1  0  0  0  0
 14 15  1  0  0  0  0
 14 17  1  0  0  0  0
 16 18  1  1  0  0  0
 17 19  2  0  0  0  0
 17 21  1  0  0  0  0
 18 20  1  0  0  0  0
 20 22  1  0  0  0  0
M  CHG  1   9  -1
M  END
>  <CHROM.1>
-71.62735080,-31.00120430,110.32407385,-54.21502154,-82.03436525,170.47702276
26.97908359,40.23300908,65.81082510,-2.25249064,-0.02173509,-2.87651119

>  <Name>
ligand

>  <RI>
0

>  <Rbt.Current_Directory>
/home/itssahil/PROJECTS/Mol_Feturizer/New_Systems/rnas/2HOM

>  <Rbt.Executable>
rbdock ($Id: //depot/dev/client3/rdock/2013.1/src/exe/rbdock.cxx#4 $)

>  <Rbt.Library>
libRbt.so (2013.1, Build901 2013/11/27)

>  <Rbt.Parameter_File>
/export/apps/rDock/src/rDock_2013.1_src/data/scripts/dock_solv.prm

>  <Rbt.Receptor>
prm/pocket_docking_8.prm

>  <SCORE>
-14.0293

>  <SCORE.INTER>
-16.2442

>  <SCORE.INTER.CONST>
1

>  <SCORE.INTER.POLAR>
-1.61595

>  <SCORE.INTER.ROT>
6

>  <SCORE.INTER.SOLV>
11.0555

>  <SCORE.INTER.VDW>
-16.7281

>  <SCORE.INTER.norm>
-0.738371

>  <SCORE.INTRA>
2.21491

>  <SCORE.INTRA.DIHEDRAL>
2.24426

>  <SCORE.INTRA.DIHEDRAL.0>
5.05013

>  <SCORE.INTRA.POLAR>
0

>  <SCORE.INTRA.POLAR.0>
0

>  <SCORE.INTRA.REPUL>
0

>  <SCORE.INTRA.REPUL.0>
0

>  <SCORE.INTRA.SOLV>
1.86087

>  <SCORE.INTRA.SOLV.lig_0>
-54.1265

>  <SCORE.INTRA.VDW>
0.162339

>  <SCORE.INTRA.VDW.0>
-2.1303

>  <SCORE.INTRA.norm>
0.100678

>  <SCORE.RESTR>
0

>  <SCORE.RESTR.CAVITY>
0

>  <SCORE.RESTR.norm>
0

>  <SCORE.SYSTEM>
0

>  <SCORE.SYSTEM.CONST>
0

>  <SCORE.SYSTEM.DIHEDRAL>
0

>  <SCORE.SYSTEM.SOLV>
0

>  <SCORE.SYSTEM.norm>
0

>  <SCORE.heavy>
22

>  <SCORE.norm>
-0.637694

>  <RMSD>
4.901

$$$$
ligand
 OpenBabel11021811443D
libRbt.so/2013.1/901 2013/11/27
 22 23  0  0  0  0  0  0  0  0999 V2000
   26.7033   42.1644   60.6717 C   0  0  0  0  0  0  0  0  0  0  0  0
   26.5287   39.9353   66.0960 C   0  0  0  0  0  0  0  0  0  0  0  0
   28.4115   38.5036   69.6568 P   0  0  1  0  0  0  0  0  0  0  0  0
   25.2771   41.6223   62.5143 N   0  0  0  0  0  0  0  0  0  0  0  0
   28.8279   39.7725   69.0065 O   0  0  0  0  0  0  0  0  0  0  0  0
   23.1655   39.8897   68.3081 S   0  0  0  0  0  0  0  0  0  0  0  0
   23.5317   41.3781   67.6202 C   0  0  0  0  0  0  0  0  0  0  0  0
   26.3921   42.3138   62.0925 C   0  0  0  0  0  0  0  0  0  0  0  0
   29.1030   37.2970   69.1341 O   0  5  0  0  0  0  0  0  0  0  0  0
   24.6559   41.4142   66.8733 N   0  0  0  0  0  0  0  0  0  0  0  0
   27.1374   43.0398   62.8820 N   0  0  0  0  0  0  0  0  0  0  0  0
   28.4838   38.6307   71.1476 O   0  0  0  0  0  0  0  0  0  0  0  0
   25.2559   40.1537   66.8599 C   0  0  2  0  0  0  0  0  0  0  0  0
   26.8117   43.1614   64.2289 C   0  0  0  0  0  0  0  0  0  0  0  0
   27.5930   43.8896   65.0211 N   0  0  0  0  0  0  0  0  0  0  0  0
   24.5939   39.1942   67.5888 C   0  0  1  0  0  0  0  0  0  0  0  0
   25.6246   42.4922   64.7347 C   0  0  0  0  0  0  0  0  0  0  0  0
   24.9780   37.7724   67.7892 C   0  0  0  0  0  0  0  0  0  0  0  0
   24.9318   41.7213   63.8230 C   0  0  0  0  0  0  0  0  0  0  0  0
   26.4271   37.6399   68.0735 C   0  0  0  0  0  0  0  0  0  0  0  0
   25.1572   42.6878   66.1644 C   0  0  0  0  0  0  0  0  0  0  0  0
   26.9061   38.2314   69.2818 O   0  0  0  0  0  0  0  0  0  0  0  0
  1  8  1  0  0  0  0
  3  5  1  6  0  0  0
  3  9  1  0  0  0  0
  3 12  2  0  0  0  0
  3 22  1  0  0  0  0
  4  8  2  0  0  0  0
  4 19  1  0  0  0  0
  6 16  1  0  0  0  0
  6  7  1  0  0  0  0
  7 10  1  0  0  0  0
  8 11  1  0  0  0  0
 10 13  1  0  0  0  0
 10 21  1  0  0  0  0
 11 14  2  0  0  0  0
 13  2  1  1  0  0  0
 13 16  1  0  0  0  0
 14 15  1  0  0  0  0
 14 17  1  0  0  0  0
 16 18  1  1  0  0  0
 17 19  2  0  0  0  0
 17 21  1  0  0  0  0
 18 20  1  0  0  0  0
 20 22  1  0  0  0  0
M  CHG  1   9  -1
M  END
>  <CHROM.1>
-135.60948331,-135.63101703,-139.11601877,64.27954334,-165.76248217,81.93004947
26.24240510,40.36140454,66.71781066,-1.74661681,-0.07321545,2.13413823

>  <Name>
ligand

>  <RI>
0

>  <Rbt.Current_Directory>
/home/itssahil/PROJECTS/Mol_Feturizer/New_Systems/rnas/2HOM

>  <Rbt.Executable>
rbdock ($Id: //depot/dev/client3/rdock/2013.1/src/exe/rbdock.cxx#4 $)

>  <Rbt.Library>
libRbt.so (2013.1, Build901 2013/11/27)

>  <Rbt.Parameter_File>
/export/apps/rDock/src/rDock_2013.1_src/data/scripts/dock_solv.prm

>  <Rbt.Receptor>
prm/pocket_docking_6.prm

>  <SCORE>
-8.52875

>  <SCORE.INTER>
-11.1605

>  <SCORE.INTER.CONST>
1

>  <SCORE.INTER.POLAR>
-1.63459

>  <SCORE.INTER.ROT>
6

>  <SCORE.INTER.SOLV>
8.58539

>  <SCORE.INTER.VDW>
-12.4535

>  <SCORE.INTER.norm>
-0.507294

>  <SCORE.INTRA>
2.63172

>  <SCORE.INTRA.DIHEDRAL>
1.2292

>  <SCORE.INTRA.DIHEDRAL.0>
5.05013

>  <SCORE.INTRA.POLAR>
0

>  <SCORE.INTRA.POLAR.0>
0

>  <SCORE.INTRA.REPUL>
0

>  <SCORE.INTRA.REPUL.0>
0

>  <SCORE.INTRA.SOLV>
0.95401

>  <SCORE.INTRA.SOLV.lig_0>
-54.1265

>  <SCORE.INTRA.VDW>
1.54012

>  <SCORE.INTRA.VDW.0>
-2.1303

>  <SCORE.INTRA.norm>
0.119624

>  <SCORE.RESTR>
0

>  <SCORE.RESTR.CAVITY>
0

>  <SCORE.RESTR.norm>
0

>  <SCORE.SYSTEM>
0

>  <SCORE.SYSTEM.CONST>
0

>  <SCORE.SYSTEM.DIHEDRAL>
0

>  <SCORE.SYSTEM.SOLV>
0

>  <SCORE.SYSTEM.norm>
0

>  <SCORE.heavy>
22

>  <SCORE.norm>
-0.387671

>  <RMSD>
5.020

$$$$
ligand
 OpenBabel11021811443D
libRbt.so/2013.1/901 2013/11/27
 22 23  0  0  0  0  0  0  0  0999 V2000
   23.1867   46.0853   67.2293 C   0  0  0  0  0  0  0  0  0  0  0  0
   28.3194   40.3784   63.5873 C   0  0  0  0  0  0  0  0  0  0  0  0
   27.9268   37.1678   68.6696 P   0  0  1  0  0  0  0  0  0  0  0  0
   23.5770   45.0426   65.1118 N   0  0  0  0  0  0  0  0  0  0  0  0
   28.1817   35.7080   68.7704 O   0  0  0  0  0  0  0  0  0  0  0  0
   24.9832   38.9013   65.2886 S   0  0  0  0  0  0  0  0  0  0  0  0
   24.8953   40.5255   64.8681 C   0  0  0  0  0  0  0  0  0  0  0  0
   24.0045   45.1885   66.4138 C   0  0  0  0  0  0  0  0  0  0  0  0
   26.8171   37.6522   69.5305 O   0  5  0  0  0  0  0  0  0  0  0  0
   26.0042   41.0401   64.2948 N   0  0  0  0  0  0  0  0  0  0  0  0
   25.0615   44.5959   66.9013 N   0  0  0  0  0  0  0  0  0  0  0  0
   29.1997   37.9357   68.8531 O   0  0  0  0  0  0  0  0  0  0  0  0
   26.9853   40.0523   64.1915 C   0  0  2  0  0  0  0  0  0  0  0  0
   25.8165   43.7478   66.0978 C   0  0  0  0  0  0  0  0  0  0  0  0
   26.8999   43.1681   66.6062 N   0  0  0  0  0  0  0  0  0  0  0  0
   26.6171   38.8226   64.6841 C   0  0  1  0  0  0  0  0  0  0  0  0
   25.4002   43.5148   64.7247 C   0  0  0  0  0  0  0  0  0  0  0  0
   27.4302   37.5796   64.7386 C   0  0  0  0  0  0  0  0  0  0  0  0
   24.2917   44.2207   64.3022 C   0  0  0  0  0  0  0  0  0  0  0  0
   28.1735   37.4768   66.0174 C   0  0  0  0  0  0  0  0  0  0  0  0
   26.1160   42.5095   63.8429 C   0  0  0  0  0  0  0  0  0  0  0  0
   27.3994   37.4743   67.2174 O   0  0  0  0  0  0  0  0  0  0  0  0
  1  8  1  0  0  0  0
  3  5  1  1  0  0  0
  3  9  1  0  0  0  0
  3 12  2  0  0  0  0
  3 22  1  0  0  0  0
  4  8  2  0  0  0  0
  4 19  1  0  0  0  0
  6 16  1  0  0  0  0
  6  7  1  0  0  0  0
  7 10  1  0  0  0  0
  8 11  1  0  0  0  0
 10 13  1  0  0  0  0
 10 21  1  0  0  0  0
 11 14  2  0  0  0  0
 13  2  1  1  0  0  0
 13 16  1  0  0  0  0
 14 15  1  0  0  0  0
 14 17  1  0  0  0  0
 16 18  1  1  0  0  0
 17 19  2  0  0  0  0
 17 21  1  0  0  0  0
 18 20  1  0  0  0  0
 20 22  1  0  0  0  0
M  CHG  1   9  -1
M  END
>  <CHROM.1>
35.55660490,-88.41808631,65.06043630,58.88310458,170.49345358,-73.35650324
26.32732886,40.43446468,66.18987661,2.95117390,1.15311694,-1.65432030

>  <Name>
ligand

>  <RI>
0

>  <Rbt.Current_Directory>
/home/itssahil/PROJECTS/Mol_Feturizer/New_Systems/rnas/2HOM

>  <Rbt.Executable>
rbdock ($Id: //depot/dev/client3/rdock/2013.1/src/exe/rbdock.cxx#4 $)

>  <Rbt.Library>
libRbt.so (2013.1, Build901 2013/11/27)

>  <Rbt.Parameter_File>
/export/apps/rDock/src/rDock_2013.1_src/data/scripts/dock_solv.prm

>  <Rbt.Receptor>
prm/pocket_docking_5.prm

>  <SCORE>
-15.3112

>  <SCORE.INTER>
-15.7783

>  <SCORE.INTER.CONST>
1

>  <SCORE.INTER.POLAR>
-1.63459

>  <SCORE.INTER.ROT>
6

>  <SCORE.INTER.SOLV>
8.75264

>  <SCORE.INTER.VDW>
-15.5878

>  <SCORE.INTER.norm>
-0.717195

>  <SCORE.INTRA>
0.467048

>  <SCORE.INTRA.DIHEDRAL>
0.515513

>  <SCORE.INTRA.DIHEDRAL.0>
5.05013

>  <SCORE.INTRA.POLAR>
0

>  <SCORE.INTRA.POLAR.0>
0

>  <SCORE.INTRA.REPUL>
0

>  <SCORE.INTRA.REPUL.0>
0

>  <SCORE.INTRA.SOLV>
1.37214

>  <SCORE.INTRA.SOLV.lig_0>
-54.1265

>  <SCORE.INTRA.VDW>
-0.476777

>  <SCORE.INTRA.VDW.0>
-2.1303

>  <SCORE.INTRA.norm>
0.0212295

>  <SCORE.RESTR>
0

>  <SCORE.RESTR.CAVITY>
0

>  <SCORE.RESTR.norm>
0

>  <SCORE.SYSTEM>
0

>  <SCORE.SYSTEM.CONST>
0

>  <SCORE.SYSTEM.DIHEDRAL>
0

>  <SCORE.SYSTEM.SOLV>
0

>  <SCORE.SYSTEM.norm>
0

>  <SCORE.heavy>
22

>  <SCORE.norm>
-0.695966

>  <RMSD>
5.115

$$$$
ligand
 OpenBabel11021811443D
libRbt.so/2013.1/901 2013/11/27
 22 23  0  0  0  0  0  0  0  0999 V2000
   22.4375   45.1205   66.5895 C   0  0  0  0  0  0  0  0  0  0  0  0
   27.8484   41.1873   67.4631 C   0  0  0  0  0  0  0  0  0  0  0  0
   28.1328   35.1018   69.4341 P   0  0  1  0  0  0  0  0  0  0  0  0
   23.6939   43.0853   66.5379 N   0  0  0  0  0  0  0  0  0  0  0  0
   29.3609   35.7190   68.8710 O   0  0  0  0  0  0  0  0  0  0  0  0
   26.6314   37.9674   65.3757 S   0  0  0  0  0  0  0  0  0  0  0  0
   26.4733   39.4297   64.5637 C   0  0  0  0  0  0  0  0  0  0  0  0
   23.5493   44.3565   66.0256 C   0  0  0  0  0  0  0  0  0  0  0  0
   27.5351   34.0458   68.5769 O   0  5  0  0  0  0  0  0  0  0  0  0
   26.8771   40.5222   65.2466 N   0  0  0  0  0  0  0  0  0  0  0  0
   24.3213   44.8575   65.0987 N   0  0  0  0  0  0  0  0  0  0  0  0
   28.3693   34.6583   70.8452 O   0  0  0  0  0  0  0  0  0  0  0  0
   27.3437   40.1464   66.5076 C   0  0  2  0  0  0  0  0  0  0  0  0
   25.3711   44.1034   64.5848 C   0  0  0  0  0  0  0  0  0  0  0  0
   26.1348   44.6233   63.6284 N   0  0  0  0  0  0  0  0  0  0  0  0
   27.2841   38.7970   66.7639 C   0  0  1  0  0  0  0  0  0  0  0  0
   25.6082   42.7682   65.1085 C   0  0  0  0  0  0  0  0  0  0  0  0
   27.6828   38.0845   68.0059 C   0  0  0  0  0  0  0  0  0  0  0  0
   24.7099   42.3242   66.0580 C   0  0  0  0  0  0  0  0  0  0  0  0
   26.6571   37.0941   68.4126 C   0  0  0  0  0  0  0  0  0  0  0  0
   26.8082   41.9504   64.6707 C   0  0  0  0  0  0  0  0  0  0  0  0
   27.0045   36.2001   69.4707 O   0  0  0  0  0  0  0  0  0  0  0  0
  1  8  1  0  0  0  0
  3  5  1  6  0  0  0
  3  9  1  0  0  0  0
  3 12  2  0  0  0  0
  3 22  1  0  0  0  0
  4  8  2  0  0  0  0
  4 19  1  0  0  0  0
  6 16  1  0  0  0  0
  6  7  1  0  0  0  0
  7 10  1  0  0  0  0
  8 11  1  0  0  0  0
 10 13  1  0  0  0  0
 10 21  1  0  0  0  0
 11 14  2  0  0  0  0
 13  2  1  1  0  0  0
 13 16  1  0  0  0  0
 14 15  1  0  0  0  0
 14 17  1  0  0  0  0
 16 18  1  1  0  0  0
 17 19  2  0  0  0  0
 17 21  1  0  0  0  0
 18 20  1  0  0  0  0
 20 22  1  0  0  0  0
M  CHG  1   9  -1
M  END
>  <CHROM.1>
98.50502614,-45.14976864,-176.39833364,170.76256528,-64.82946125,46.67307343
26.51703875,39.57033879,66.89369529,2.12723470,0.88148342,-0.87178834

>  <Name>
ligand

>  <RI>
0

>  <Rbt.Current_Directory>
/home/itssahil/PROJECTS/Mol_Feturizer/New_Systems/rnas/2HOM

>  <Rbt.Executable>
rbdock ($Id: //depot/dev/client3/rdock/2013.1/src/exe/rbdock.cxx#4 $)

>  <Rbt.Library>
libRbt.so (2013.1, Build901 2013/11/27)

>  <Rbt.Parameter_File>
/export/apps/rDock/src/rDock_2013.1_src/data/scripts/dock_solv.prm

>  <Rbt.Receptor>
prm/pocket_docking_8.prm

>  <SCORE>
-10.9384

>  <SCORE.INTER>
-11.9561

>  <SCORE.INTER.CONST>
1

>  <SCORE.INTER.POLAR>
-1.30767

>  <SCORE.INTER.ROT>
6

>  <SCORE.INTER.SOLV>
9.81351

>  <SCORE.INTER.VDW>
-14.483

>  <SCORE.INTER.norm>
-0.543457

>  <SCORE.INTRA>
1.01766

>  <SCORE.INTRA.DIHEDRAL>
0.750638

>  <SCORE.INTRA.DIHEDRAL.0>
5.05013

>  <SCORE.INTRA.POLAR>
0

>  <SCORE.INTRA.POLAR.0>
0

>  <SCORE.INTRA.REPUL>
0

>  <SCORE.INTRA.REPUL.0>
0

>  <SCORE.INTRA.SOLV>
0.43034

>  <SCORE.INTRA.SOLV.lig_0>
-54.1265

>  <SCORE.INTRA.VDW>
0.427173

>  <SCORE.INTRA.VDW.0>
-2.1303

>  <SCORE.INTRA.norm>
0.0462574

>  <SCORE.RESTR>
0

>  <SCORE.RESTR.CAVITY>
0

>  <SCORE.RESTR.norm>
0

>  <SCORE.SYSTEM>
0

>  <SCORE.SYSTEM.CONST>
0

>  <SCORE.SYSTEM.DIHEDRAL>
0

>  <SCORE.SYSTEM.SOLV>
0

>  <SCORE.SYSTEM.norm>
0

>  <SCORE.heavy>
22

>  <SCORE.norm>
-0.4972

>  <RMSD>
5.163

$$$$
ligand
 OpenBabel11021811443D
libRbt.so/2013.1/901 2013/11/27
 22 23  0  0  0  0  0  0  0  0999 V2000
   23.4983   45.7049   66.7530 C   0  0  0  0  0  0  0  0  0  0  0  0
   26.8115   40.0222   67.8028 C   0  0  0  0  0  0  0  0  0  0  0  0
   28.3547   34.7762   68.8282 P   0  0  1  0  0  0  0  0  0  0  0  0
   23.2729   43.3975   66.1629 N   0  0  0  0  0  0  0  0  0  0  0  0
   28.1336   33.4442   68.2092 O   0  0  0  0  0  0  0  0  0  0  0  0
   23.9690   37.4302   66.6160 S   0  0  0  0  0  0  0  0  0  0  0  0
   24.3116   38.6488   65.5113 C   0  0  0  0  0  0  0  0  0  0  0  0
   24.1242   44.4764   66.2663 C   0  0  0  0  0  0  0  0  0  0  0  0
   28.6166   34.7315   70.2899 O   0  5  0  0  0  0  0  0  0  0  0  0
   25.2634   39.5283   65.8902 N   0  0  0  0  0  0  0  0  0  0  0  0
   25.3900   44.4352   65.9469 N   0  0  0  0  0  0  0  0  0  0  0  0
   29.3880   35.5445   68.0628 O   0  0  0  0  0  0  0  0  0  0  0  0
   25.7432   39.1900   67.1568 C   0  0  2  0  0  0  0  0  0  0  0  0
   25.9537   43.2491   65.4881 C   0  0  0  0  0  0  0  0  0  0  0  0
   27.2396   43.2313   65.1501 N   0  0  0  0  0  0  0  0  0  0  0  0
   25.1558   38.0799   67.7164 C   0  0  1  0  0  0  0  0  0  0  0  0
   25.1236   42.0596   65.3931 C   0  0  0  0  0  0  0  0  0  0  0  0
   25.4271   37.4756   69.0469 C   0  0  0  0  0  0  0  0  0  0  0  0
   23.7926   42.2249   65.7194 C   0  0  0  0  0  0  0  0  0  0  0  0
   26.8103   36.9477   69.1278 C   0  0  0  0  0  0  0  0  0  0  0  0
   25.7130   40.7143   65.0142 C   0  0  0  0  0  0  0  0  0  0  0  0
   27.0073   35.5873   68.7410 O   0  0  0  0  0  0  0  0  0  0  0  0
  1  8  1  0  0  0  0
  3  5  1  6  0  0  0
  3  9  1  0  0  0  0
  3 12  2  0  0  0  0
  3 22  1  0  0  0  0
  4  8  2  0  0  0  0
  4 19  1  0  0  0  0
  6 16  1  0  0  0  0
  6  7  1  0  0  0  0
  7 10  1  0  0  0  0
  8 11  1  0  0  0  0
 10 13  1  0  0  0  0
 10 21  1  0  0  0  0
 11 14  2  0  0  0  0
 13  2  1  1  0  0  0
 13 16  1  0  0  0  0
 14 15  1  0  0  0  0
 14 17  1  0  0  0  0
 16 18  1  1  0  0  0
 17 19  2  0  0  0  0
 17 21  1  0  0  0  0
 18 20  1  0  0  0  0
 20 22  1  0  0  0  0
M  CHG  1   9  -1
M  END
>  <CHROM.1>
100.67573234,115.73440681,134.04083354,-90.35927251,-175.72203445,-174.99320310
25.98443059,39.07521061,67.18640625,-1.93190160,0.27683219,2.91669962

>  <Name>
ligand

>  <RI>
0

>  <Rbt.Current_Directory>
/home/itssahil/PROJECTS/Mol_Feturizer/New_Systems/rnas/2HOM

>  <Rbt.Executable>
rbdock ($Id: //depot/dev/client3/rdock/2013.1/src/exe/rbdock.cxx#4 $)

>  <Rbt.Library>
libRbt.so (2013.1, Build901 2013/11/27)

>  <Rbt.Parameter_File>
/export/apps/rDock/src/rDock_2013.1_src/data/scripts/dock_solv.prm

>  <Rbt.Receptor>
prm/pocket_docking_8.prm

>  <SCORE>
-17.6667

>  <SCORE.INTER>
-19.5316

>  <SCORE.INTER.CONST>
1

>  <SCORE.INTER.POLAR>
-1.63313

>  <SCORE.INTER.ROT>
6

>  <SCORE.INTER.SOLV>
11.1212

>  <SCORE.INTER.VDW>
-18.8844

>  <SCORE.INTER.norm>
-0.887802

>  <SCORE.INTRA>
1.86494

>  <SCORE.INTRA.DIHEDRAL>
2.54032

>  <SCORE.INTRA.DIHEDRAL.0>
5.05013

>  <SCORE.INTRA.POLAR>
0

>  <SCORE.INTRA.POLAR.0>
0

>  <SCORE.INTRA.REPUL>
0

>  <SCORE.INTRA.REPUL.0>
0

>  <SCORE.INTRA.SOLV>
1.19399

>  <SCORE.INTRA.SOLV.lig_0>
-54.1265

>  <SCORE.INTRA.VDW>
-0.00221744

>  <SCORE.INTRA.VDW.0>
-2.1303

>  <SCORE.INTRA.norm>
0.08477

>  <SCORE.RESTR>
0

>  <SCORE.RESTR.CAVITY>
0

>  <SCORE.RESTR.norm>
0

>  <SCORE.SYSTEM>
0

>  <SCORE.SYSTEM.CONST>
0

>  <SCORE.SYSTEM.DIHEDRAL>
0

>  <SCORE.SYSTEM.SOLV>
0

>  <SCORE.SYSTEM.norm>
0

>  <SCORE.heavy>
22

>  <SCORE.norm>
-0.803032

>  <RMSD>
5.166

$$$$
ligand
 OpenBabel11021811443D
libRbt.so/2013.1/901 2013/11/27
 22 23  0  0  0  0  0  0  0  0999 V2000
   22.8444   46.1827   66.7713 C   0  0  0  0  0  0  0  0  0  0  0  0
   25.1828   41.0905   67.1595 C   0  0  0  0  0  0  0  0  0  0  0  0
   27.5690   36.9943   69.2668 P   0  0  1  0  0  0  0  0  0  0  0  0
   24.7599   44.9229   67.4546 N   0  0  0  0  0  0  0  0  0  0  0  0
   27.1071   37.9499   70.3060 O   0  0  0  0  0  0  0  0  0  0  0  0
   27.2350   38.8386   64.5281 S   0  0  0  0  0  0  0  0  0  0  0  0
   27.6842   40.4571   64.5655 C   0  0  0  0  0  0  0  0  0  0  0  0
   23.9291   45.2707   66.4115 C   0  0  0  0  0  0  0  0  0  0  0  0
   29.0236   37.0702   68.9744 O   0  5  0  0  0  0  0  0  0  0  0  0
   27.0081   41.2295   65.4427 N   0  0  0  0  0  0  0  0  0  0  0  0
   24.0688   44.8233   65.1924 N   0  0  0  0  0  0  0  0  0  0  0  0
   27.0983   35.6080   69.5838 O   0  0  0  0  0  0  0  0  0  0  0  0
   26.0672   40.4571   66.1261 C   0  0  2  0  0  0  0  0  0  0  0  0
   25.1130   43.9575   64.8842 C   0  0  0  0  0  0  0  0  0  0  0  0
   25.2281   43.4977   63.6417 N   0  0  0  0  0  0  0  0  0  0  0  0
   26.0374   39.1318   65.7615 C   0  0  1  0  0  0  0  0  0  0  0  0
   26.0529   43.5804   65.9270 C   0  0  0  0  0  0  0  0  0  0  0  0
   25.1474   38.0610   66.2815 C   0  0  0  0  0  0  0  0  0  0  0  0
   25.7894   44.0803   67.1864 C   0  0  0  0  0  0  0  0  0  0  0  0
   25.5310   37.6612   67.6568 C   0  0  0  0  0  0  0  0  0  0  0  0
   27.2757   42.7371   65.6199 C   0  0  0  0  0  0  0  0  0  0  0  0
   26.9163   37.4088   67.8946 O   0  0  0  0  0  0  0  0  0  0  0  0
  1  8  1  0  0  0  0
  3  5  1  1  0  0  0
  3  9  1  0  0  0  0
  3 12  2  0  0  0  0
  3 22  1  0  0  0  0
  4  8  2  0  0  0  0
  4 19  1  0  0  0  0
  6 16  1  0  0  0  0
  6  7  1  0  0  0  0
  7 10  1  0  0  0  0
  8 11  1  0  0  0  0
 10 13  1  0  0  0  0
 10 21  1  0  0  0  0
 11 14  2  0  0  0  0
 13  2  1  6  0  0  0
 13 16  1  0  0  0  0
 14 15  1  0  0  0  0
 14 17  1  0  0  0  0
 16 18  1  6  0  0  0
 17 19  2  0  0  0  0
 17 21  1  0  0  0  0
 18 20  1  0  0  0  0
 20 22  1  0  0  0  0
M  CHG  1   9  -1
M  END
>  <CHROM.1>
144.93924777,107.59545116,-77.79721775,-47.57558369,179.04971572,-50.77615104
26.20364105,40.50733507,66.77686415,2.41198283,1.13395957,-1.14495789

>  <Name>
ligand

>  <RI>
0

>  <Rbt.Current_Directory>
/home/itssahil/PROJECTS/Mol_Feturizer/New_Systems/rnas/2HOM

>  <Rbt.Executable>
rbdock ($Id: //depot/dev/client3/rdock/2013.1/src/exe/rbdock.cxx#4 $)

>  <Rbt.Library>
libRbt.so (2013.1, Build901 2013/11/27)

>  <Rbt.Parameter_File>
/export/apps/rDock/src/rDock_2013.1_src/data/scripts/dock_solv.prm

>  <Rbt.Receptor>
prm/pocket_docking_5.prm

>  <SCORE>
-11.6063

>  <SCORE.INTER>
-13.0992

>  <SCORE.INTER.CONST>
1

>  <SCORE.INTER.POLAR>
-1.63459

>  <SCORE.INTER.ROT>
6

>  <SCORE.INTER.SOLV>
9.02401

>  <SCORE.INTER.VDW>
-13.8922

>  <SCORE.INTER.norm>
-0.595419

>  <SCORE.INTRA>
1.49288

>  <SCORE.INTRA.DIHEDRAL>
0.372449

>  <SCORE.INTRA.DIHEDRAL.0>
5.05013

>  <SCORE.INTRA.POLAR>
0

>  <SCORE.INTRA.POLAR.0>
0

>  <SCORE.INTRA.REPUL>
0

>  <SCORE.INTRA.REPUL.0>
0

>  <SCORE.INTRA.SOLV>
0.884718

>  <SCORE.INTRA.SOLV.lig_0>
-54.1265

>  <SCORE.INTRA.VDW>
0.864293

>  <SCORE.INTRA.VDW.0>
-2.1303

>  <SCORE.INTRA.norm>
0.067858

>  <SCORE.RESTR>
0

>  <SCORE.RESTR.CAVITY>
0

>  <SCORE.RESTR.norm>
0

>  <SCORE.SYSTEM>
0

>  <SCORE.SYSTEM.CONST>
0

>  <SCORE.SYSTEM.DIHEDRAL>
0

>  <SCORE.SYSTEM.SOLV>
0

>  <SCORE.SYSTEM.norm>
0

>  <SCORE.heavy>
22

>  <SCORE.norm>
-0.52756

>  <RMSD>
5.221

$$$$
ligand
 OpenBabel11021811443D
libRbt.so/2013.1/901 2013/11/27
 22 23  0  0  0  0  0  0  0  0999 V2000
   22.9013   45.8585   67.0168 C   0  0  0  0  0  0  0  0  0  0  0  0
   27.3933   40.5741   67.9908 C   0  0  0  0  0  0  0  0  0  0  0  0
   28.6680   34.6671   69.0649 P   0  0  1  0  0  0  0  0  0  0  0  0
   23.7496   44.3144   65.3984 N   0  0  0  0  0  0  0  0  0  0  0  0
   27.9440   33.5338   68.4341 O   0  0  0  0  0  0  0  0  0  0  0  0
   25.2431   38.1779   65.5738 S   0  0  0  0  0  0  0  0  0  0  0  0
   25.5869   39.6927   64.9335 C   0  0  0  0  0  0  0  0  0  0  0  0
   23.9348   44.8981   66.6330 C   0  0  0  0  0  0  0  0  0  0  0  0
   29.0210   34.4449   70.4908 O   0  5  0  0  0  0  0  0  0  0  0  0
   26.3084   40.5114   65.7285 N   0  0  0  0  0  0  0  0  0  0  0  0
   24.9520   44.6424   67.4114 N   0  0  0  0  0  0  0  0  0  0  0  0
   29.8354   35.0775   68.2208 O   0  0  0  0  0  0  0  0  0  0  0  0
   26.5992   39.8668   66.9322 C   0  0  2  0  0  0  0  0  0  0  0  0
   25.9169   43.7218   67.0157 C   0  0  0  0  0  0  0  0  0  0  0  0
   26.9551   43.4884   67.8132 N   0  0  0  0  0  0  0  0  0  0  0  0
   26.0987   38.5905   67.0363 C   0  0  1  0  0  0  0  0  0  0  0  0
   25.7638   43.0367   65.7428 C   0  0  0  0  0  0  0  0  0  0  0  0
   26.2164   37.6539   68.1844 C   0  0  0  0  0  0  0  0  0  0  0  0
   24.6732   43.4106   64.9837 C   0  0  0  0  0  0  0  0  0  0  0  0
   27.4759   36.8745   68.1179 C   0  0  0  0  0  0  0  0  0  0  0  0
   26.7201   41.9389   65.3175 C   0  0  0  0  0  0  0  0  0  0  0  0
   27.6862   35.8966   69.1372 O   0  0  0  0  0  0  0  0  0  0  0  0
  1  8  1  0  0  0  0
  3  5  1  6  0  0  0
  3  9  1  0  0  0  0
  3 12  2  0  0  0  0
  3 22  1  0  0  0  0
  4  8  2  0  0  0  0
  4 19  1  0  0  0  0
  6 16  1  0  0  0  0
  6  7  1  0  0  0  0
  7 10  1  0  0  0  0
  8 11  1  0  0  0  0
 10 13  1  0  0  0  0
 10 21  1  0  0  0  0
 11 14  2  0  0  0  0
 13  2  1  1  0  0  0
 13 16  1  0  0  0  0
 14 15  1  0  0  0  0
 14 17  1  0  0  0  0
 16 18  1  1  0  0  0
 17 19  2  0  0  0  0
 17 21  1  0  0  0  0
 18 20  1  0  0  0  0
 20 22  1  0  0  0  0
M  CHG  1   9  -1
M  END
>  <CHROM.1>
92.52535679,94.32239835,90.65947399,-177.55562424,159.72744202,-87.21213083
26.48541933,39.49023440,67.24397482,-2.27008490,0.97156920,-2.80735376

>  <Name>
ligand

>  <RI>
0

>  <Rbt.Current_Directory>
/home/itssahil/PROJECTS/Mol_Feturizer/New_Systems/rnas/2HOM

>  <Rbt.Executable>
rbdock ($Id: //depot/dev/client3/rdock/2013.1/src/exe/rbdock.cxx#4 $)

>  <Rbt.Library>
libRbt.so (2013.1, Build901 2013/11/27)

>  <Rbt.Parameter_File>
/export/apps/rDock/src/rDock_2013.1_src/data/scripts/dock_solv.prm

>  <Rbt.Receptor>
prm/pocket_docking_6.prm

>  <SCORE>
-13.8203

>  <SCORE.INTER>
-16.7774

>  <SCORE.INTER.CONST>
1

>  <SCORE.INTER.POLAR>
-1.63459

>  <SCORE.INTER.ROT>
6

>  <SCORE.INTER.SOLV>
15.9636

>  <SCORE.INTER.VDW>
-18.6575

>  <SCORE.INTER.norm>
-0.762607

>  <SCORE.INTRA>
2.95028

>  <SCORE.INTRA.DIHEDRAL>
2.58606

>  <SCORE.INTRA.DIHEDRAL.0>
5.05013

>  <SCORE.INTRA.POLAR>
0

>  <SCORE.INTRA.POLAR.0>
0

>  <SCORE.INTRA.REPUL>
0

>  <SCORE.INTRA.REPUL.0>
0

>  <SCORE.INTRA.SOLV>
2.65423

>  <SCORE.INTRA.SOLV.lig_0>
-54.1265

>  <SCORE.INTRA.VDW>
0.330139

>  <SCORE.INTRA.VDW.0>
-2.1303

>  <SCORE.INTRA.norm>
0.134104

>  <SCORE.RESTR>
0.00672478

>  <SCORE.RESTR.CAVITY>
0.00672478

>  <SCORE.RESTR.norm>
0.000305672

>  <SCORE.SYSTEM>
0

>  <SCORE.SYSTEM.CONST>
0

>  <SCORE.SYSTEM.DIHEDRAL>
0

>  <SCORE.SYSTEM.SOLV>
0

>  <SCORE.SYSTEM.norm>
0

>  <SCORE.heavy>
22

>  <SCORE.norm>
-0.628198

>  <RMSD>
5.428

$$$$
ligand
 OpenBabel11021811443D
libRbt.so/2013.1/901 2013/11/27
 22 23  0  0  0  0  0  0  0  0999 V2000
   25.8492   46.9468   63.6885 C   0  0  0  0  0  0  0  0  0  0  0  0
   28.1721   41.2965   67.0254 C   0  0  0  0  0  0  0  0  0  0  0  0
   28.0636   36.0875   68.8578 P   0  0  1  0  0  0  0  0  0  0  0  0
   26.8481   45.2760   65.0790 N   0  0  0  0  0  0  0  0  0  0  0  0
   27.0711   34.9949   69.0234 O   0  0  0  0  0  0  0  0  0  0  0  0
   25.0790   39.0672   65.7334 S   0  0  0  0  0  0  0  0  0  0  0  0
   24.6450   40.5418   66.4114 C   0  0  0  0  0  0  0  0  0  0  0  0
   25.6803   45.8974   64.6926 C   0  0  0  0  0  0  0  0  0  0  0  0
   28.0882   37.0617   69.9792 O   0  5  0  0  0  0  0  0  0  0  0  0
   25.6685   41.3053   66.8502 N   0  0  0  0  0  0  0  0  0  0  0  0
   24.5052   45.6017   65.1801 N   0  0  0  0  0  0  0  0  0  0  0  0
   29.4125   35.5245   68.5302 O   0  0  0  0  0  0  0  0  0  0  0  0
   26.8798   40.6504   66.6207 C   0  0  2  0  0  0  0  0  0  0  0  0
   24.3802   44.5966   66.1335 C   0  0  0  0  0  0  0  0  0  0  0  0
   23.1783   44.3223   66.6320 N   0  0  0  0  0  0  0  0  0  0  0  0
   26.7624   39.4165   66.0256 C   0  0  1  0  0  0  0  0  0  0  0  0
   25.5657   43.8701   66.5578 C   0  0  0  0  0  0  0  0  0  0  0  0
   27.8491   38.4678   65.6676 C   0  0  0  0  0  0  0  0  0  0  0  0
   26.7599   44.2897   66.0071 C   0  0  0  0  0  0  0  0  0  0  0  0
   28.4483   37.8528   66.8764 C   0  0  0  0  0  0  0  0  0  0  0  0
   25.4704   42.6876   67.5030 C   0  0  0  0  0  0  0  0  0  0  0  0
   27.6164   36.9750   67.6359 O   0  0  0  0  0  0  0  0  0  0  0  0
  1  8  1  0  0  0  0
  3  5  1  1  0  0  0
  3  9  1  0  0  0  0
  3 12  2  0  0  0  0
  3 22  1  0  0  0  0
  4  8  2  0  0  0  0
  4 19  1  0  0  0  0
  6 16  1  0  0  0  0
  6  7  1  0  0  0  0
  7 10  1  0  0  0  0
  8 11  1  0  0  0  0
 10 13  1  0  0  0  0
 10 21  1  0  0  0  0
 11 14  2  0  0  0  0
 13  2  1  1  0  0  0
 13 16  1  0  0  0  0
 14 15  1  0  0  0  0
 14 17  1  0  0  0  0
 16 18  1  1  0  0  0
 17 19  2  0  0  0  0
 17 21  1  0  0  0  0
 18 20  1  0  0  0  0
 20 22  1  0  0  0  0
M  CHG  1   9  -1
M  END
>  <CHROM.1>
-93.95310731,-108.40794817,105.55960236,66.84474081,172.93707989,-159.40382418
26.52899511,40.51397185,66.79523490,-1.85082127,0.02056380,2.81465231

>  <Name>
ligand

>  <RI>
0

>  <Rbt.Current_Directory>
/home/itssahil/PROJECTS/Mol_Feturizer/New_Systems/rnas/2HOM

>  <Rbt.Executable>
rbdock ($Id: //depot/dev/client3/rdock/2013.1/src/exe/rbdock.cxx#4 $)

>  <Rbt.Library>
libRbt.so (2013.1, Build901 2013/11/27)

>  <Rbt.Parameter_File>
/export/apps/rDock/src/rDock_2013.1_src/data/scripts/dock_solv.prm

>  <Rbt.Receptor>
prm/pocket_docking_7.prm

>  <SCORE>
-10.227

>  <SCORE.INTER>
-10.5442

>  <SCORE.INTER.CONST>
1

>  <SCORE.INTER.POLAR>
-1.63459

>  <SCORE.INTER.ROT>
6

>  <SCORE.INTER.SOLV>
9.61529

>  <SCORE.INTER.VDW>
-12.386

>  <SCORE.INTER.norm>
-0.479283

>  <SCORE.INTRA>
0.317195

>  <SCORE.INTRA.DIHEDRAL>
0.491715

>  <SCORE.INTRA.DIHEDRAL.0>
5.05013

>  <SCORE.INTRA.POLAR>
0

>  <SCORE.INTRA.POLAR.0>
0

>  <SCORE.INTRA.REPUL>
0

>  <SCORE.INTRA.REPUL.0>
0

>  <SCORE.INTRA.SOLV>
0.552591

>  <SCORE.INTRA.SOLV.lig_0>
-54.1265

>  <SCORE.INTRA.VDW>
-0.204958

>  <SCORE.INTRA.VDW.0>
-2.1303

>  <SCORE.INTRA.norm>
0.014418

>  <SCORE.RESTR>
0

>  <SCORE.RESTR.CAVITY>
0

>  <SCORE.RESTR.norm>
0

>  <SCORE.SYSTEM>
0

>  <SCORE.SYSTEM.CONST>
0

>  <SCORE.SYSTEM.DIHEDRAL>
0

>  <SCORE.SYSTEM.SOLV>
0

>  <SCORE.SYSTEM.norm>
0

>  <SCORE.heavy>
22

>  <SCORE.norm>
-0.464865

>  <RMSD>
5.435

$$$$
ligand
 OpenBabel11021811443D
libRbt.so/2013.1/901 2013/11/27
 22 23  0  0  0  0  0  0  0  0999 V2000
   23.6958   45.3881   66.8644 C   0  0  0  0  0  0  0  0  0  0  0  0
   29.2379   39.7987   63.7477 C   0  0  0  0  0  0  0  0  0  0  0  0
   28.0140   36.4479   68.8707 P   0  0  1  0  0  0  0  0  0  0  0  0
   23.9476   43.7000   65.1880 N   0  0  0  0  0  0  0  0  0  0  0  0
   29.3510   35.8192   69.0242 O   0  0  0  0  0  0  0  0  0  0  0  0
   25.8437   38.2384   65.2483 S   0  0  0  0  0  0  0  0  0  0  0  0
   25.7206   39.8396   64.7547 C   0  0  0  0  0  0  0  0  0  0  0  0
   24.5868   44.5391   66.0750 C   0  0  0  0  0  0  0  0  0  0  0  0
   26.8766   35.5335   69.1493 O   0  5  0  0  0  0  0  0  0  0  0  0
   26.8484   40.3815   64.2472 N   0  0  0  0  0  0  0  0  0  0  0  0
   25.8846   44.6012   66.2084 N   0  0  0  0  0  0  0  0  0  0  0  0
   27.9471   37.7310   69.6407 O   0  0  0  0  0  0  0  0  0  0  0  0
   27.8754   39.4359   64.2609 C   0  0  2  0  0  0  0  0  0  0  0  0
   26.7032   43.7780   65.4422 C   0  0  0  0  0  0  0  0  0  0  0  0
   28.0229   43.8688   65.5785 N   0  0  0  0  0  0  0  0  0  0  0  0
   27.5220   38.2107   64.7748 C   0  0  1  0  0  0  0  0  0  0  0  0
   26.0952   42.8381   64.5149 C   0  0  0  0  0  0  0  0  0  0  0  0
   28.3799   37.0088   64.9435 C   0  0  0  0  0  0  0  0  0  0  0  0
   24.7184   42.8829   64.4263 C   0  0  0  0  0  0  0  0  0  0  0  0
   28.8278   36.8586   66.3489 C   0  0  0  0  0  0  0  0  0  0  0  0
   26.9332   41.8360   63.7441 C   0  0  0  0  0  0  0  0  0  0  0  0
   27.8106   36.8025   67.3497 O   0  0  0  0  0  0  0  0  0  0  0  0
  1  8  1  0  0  0  0
  3  5  1  1  0  0  0
  3  9  1  0  0  0  0
  3 12  2  0  0  0  0
  3 22  1  0  0  0  0
  4  8  2  0  0  0  0
  4 19  1  0  0  0  0
  6 16  1  0  0  0  0
  6  7  1  0  0  0  0
  7 10  1  0  0  0  0
  8 11  1  0  0  0  0
 10 13  1  0  0  0  0
 10 21  1  0  0  0  0
 11 14  2  0  0  0  0
 13  2  1  1  0  0  0
 13 16  1  0  0  0  0
 14 15  1  0  0  0  0
 14 17  1  0  0  0  0
 16 18  1  1  0  0  0
 17 19  2  0  0  0  0
 17 21  1  0  0  0  0
 18 20  1  0  0  0  0
 20 22  1  0  0  0  0
M  CHG  1   9  -1
M  END
>  <CHROM.1>
34.83074182,-78.19550334,105.22483384,55.96310025,170.84008952,-15.50205633
26.91319617,39.82203617,66.14440609,2.36067738,1.09591838,-1.07600827

>  <Name>
ligand

>  <RI>
0

>  <Rbt.Current_Directory>
/home/itssahil/PROJECTS/Mol_Feturizer/New_Systems/rnas/2HOM

>  <Rbt.Executable>
rbdock ($Id: //depot/dev/client3/rdock/2013.1/src/exe/rbdock.cxx#4 $)

>  <Rbt.Library>
libRbt.so (2013.1, Build901 2013/11/27)

>  <Rbt.Parameter_File>
/export/apps/rDock/src/rDock_2013.1_src/data/scripts/dock_solv.prm

>  <Rbt.Receptor>
prm/pocket_docking_5.prm

>  <SCORE>
-11.8719

>  <SCORE.INTER>
-12.908

>  <SCORE.INTER.CONST>
1

>  <SCORE.INTER.POLAR>
-1.30621

>  <SCORE.INTER.ROT>
6

>  <SCORE.INTER.SOLV>
8.80643

>  <SCORE.INTER.VDW>
-14.7868

>  <SCORE.INTER.norm>
-0.586726

>  <SCORE.INTRA>
1.03605

>  <SCORE.INTRA.DIHEDRAL>
2.34852

>  <SCORE.INTRA.DIHEDRAL.0>
5.05013

>  <SCORE.INTRA.POLAR>
0

>  <SCORE.INTRA.POLAR.0>
0

>  <SCORE.INTRA.REPUL>
0

>  <SCORE.INTRA.REPUL.0>
0

>  <SCORE.INTRA.SOLV>
-0.0395477

>  <SCORE.INTRA.SOLV.lig_0>
-54.1265

>  <SCORE.INTRA.VDW>
-0.118439

>  <SCORE.INTRA.VDW.0>
-2.1303

>  <SCORE.INTRA.norm>
0.0470931

>  <SCORE.RESTR>
0

>  <SCORE.RESTR.CAVITY>
0

>  <SCORE.RESTR.norm>
0

>  <SCORE.SYSTEM>
0

>  <SCORE.SYSTEM.CONST>
0

>  <SCORE.SYSTEM.DIHEDRAL>
0

>  <SCORE.SYSTEM.SOLV>
0

>  <SCORE.SYSTEM.norm>
0

>  <SCORE.heavy>
22

>  <SCORE.norm>
-0.539633

>  <RMSD>
5.481

$$$$
ligand
 OpenBabel11021811443D
libRbt.so/2013.1/901 2013/11/27
 22 23  0  0  0  0  0  0  0  0999 V2000
   27.8406   41.4171   61.2306 C   0  0  0  0  0  0  0  0  0  0  0  0
   23.3557   38.3291   66.9181 C   0  0  0  0  0  0  0  0  0  0  0  0
   28.7290   35.7037   70.0961 P   0  0  1  0  0  0  0  0  0  0  0  0
   27.2470   40.2899   63.2555 N   0  0  0  0  0  0  0  0  0  0  0  0
   29.5300   36.4339   71.1116 O   0  0  0  0  0  0  0  0  0  0  0  0
   26.8060   39.0443   68.8651 S   0  0  0  0  0  0  0  0  0  0  0  0
   26.3868   40.2103   67.7305 C   0  0  0  0  0  0  0  0  0  0  0  0
   27.0275   41.3830   62.4454 C   0  0  0  0  0  0  0  0  0  0  0  0
   29.2412   35.8358   68.7077 O   0  5  0  0  0  0  0  0  0  0  0  0
   25.2318   39.9894   67.0670 N   0  0  0  0  0  0  0  0  0  0  0  0
   26.1775   42.3345   62.7249 N   0  0  0  0  0  0  0  0  0  0  0  0
   28.5180   34.2822   70.5186 O   0  0  0  0  0  0  0  0  0  0  0  0
   24.6526   38.7985   67.5088 C   0  0  2  0  0  0  0  0  0  0  0  0
   25.4188   42.2699   63.8890 C   0  0  0  0  0  0  0  0  0  0  0  0
   24.5722   43.2572   64.1661 N   0  0  0  0  0  0  0  0  0  0  0  0
   25.3657   38.1387   68.4817 C   0  0  1  0  0  0  0  0  0  0  0  0
   25.5685   41.1238   64.7706 C   0  0  0  0  0  0  0  0  0  0  0  0
   25.0331   36.8494   69.1422 C   0  0  0  0  0  0  0  0  0  0  0  0
   26.5214   40.1968   64.3986 C   0  0  0  0  0  0  0  0  0  0  0  0
   26.2133   35.9539   69.2023 C   0  0  0  0  0  0  0  0  0  0  0  0
   24.6826   40.9439   65.9884 C   0  0  0  0  0  0  0  0  0  0  0  0
   27.3105   36.3827   70.0095 O   0  0  0  0  0  0  0  0  0  0  0  0
  1  8  1  0  0  0  0
  3  5  1  1  0  0  0
  3  9  1  0  0  0  0
  3 12  2  0  0  0  0
  3 22  1  0  0  0  0
  4  8  2  0  0  0  0
  4 19  1  0  0  0  0
  6 16  1  0  0  0  0
  6  7  1  0  0  0  0
  7 10  1  0  0  0  0
  8 11  1  0  0  0  0
 10 13  1  0  0  0  0
 10 21  1  0  0  0  0
 11 14  2  0  0  0  0
 13  2  1  6  0  0  0
 13 16  1  0  0  0  0
 14 15  1  0  0  0  0
 14 17  1  0  0  0  0
 16 18  1  6  0  0  0
 17 19  2  0  0  0  0
 17 21  1  0  0  0  0
 18 20  1  0  0  0  0
 20 22  1  0  0  0  0
M  CHG  1   9  -1
M  END
>  <CHROM.1>
61.73987785,-45.73249133,-160.31046439,65.36882163,-172.04511909,-176.88784271
26.63458649,38.76042109,67.12829470,-1.81969036,-0.38478792,2.19176279

>  <Name>
ligand

>  <RI>
0

>  <Rbt.Current_Directory>
/home/itssahil/PROJECTS/Mol_Feturizer/New_Systems/rnas/2HOM

>  <Rbt.Executable>
rbdock ($Id: //depot/dev/client3/rdock/2013.1/src/exe/rbdock.cxx#4 $)

>  <Rbt.Library>
libRbt.so (2013.1, Build901 2013/11/27)

>  <Rbt.Parameter_File>
/export/apps/rDock/src/rDock_2013.1_src/data/scripts/dock_solv.prm

>  <Rbt.Receptor>
prm/pocket_docking_8.prm

>  <SCORE>
-10.4676

>  <SCORE.INTER>
-11.1102

>  <SCORE.INTER.CONST>
1

>  <SCORE.INTER.POLAR>
-1.63085

>  <SCORE.INTER.ROT>
6

>  <SCORE.INTER.SOLV>
13.9277

>  <SCORE.INTER.VDW>
-14.2132

>  <SCORE.INTER.norm>
-0.505007

>  <SCORE.INTRA>
0.642505

>  <SCORE.INTRA.DIHEDRAL>
0.373884

>  <SCORE.INTRA.DIHEDRAL.0>
5.05013

>  <SCORE.INTRA.POLAR>
0

>  <SCORE.INTRA.POLAR.0>
0

>  <SCORE.INTRA.REPUL>
0

>  <SCORE.INTRA.REPUL.0>
0

>  <SCORE.INTRA.SOLV>
0.603079

>  <SCORE.INTRA.SOLV.lig_0>
-54.1265

>  <SCORE.INTRA.VDW>
0.154024

>  <SCORE.INTRA.VDW.0>
-2.1303

>  <SCORE.INTRA.norm>
0.0292048

>  <SCORE.RESTR>
0

>  <SCORE.RESTR.CAVITY>
0

>  <SCORE.RESTR.norm>
0

>  <SCORE.SYSTEM>
0

>  <SCORE.SYSTEM.CONST>
0

>  <SCORE.SYSTEM.DIHEDRAL>
0

>  <SCORE.SYSTEM.SOLV>
0

>  <SCORE.SYSTEM.norm>
0

>  <SCORE.heavy>
22

>  <SCORE.norm>
-0.475802

>  <RMSD>
5.489

$$$$
ligand
 OpenBabel11021811443D
libRbt.so/2013.1/901 2013/11/27
 22 23  0  0  0  0  0  0  0  0999 V2000
   26.9404   41.3216   60.9274 C   0  0  0  0  0  0  0  0  0  0  0  0
   27.7775   40.0663   68.2271 C   0  0  0  0  0  0  0  0  0  0  0  0
   28.3997   35.4955   70.2742 P   0  0  1  0  0  0  0  0  0  0  0  0
   27.1736   40.6002   63.1964 N   0  0  0  0  0  0  0  0  0  0  0  0
   28.8550   34.0856   70.3789 O   0  0  0  0  0  0  0  0  0  0  0  0
   23.8896   39.0429   68.0182 S   0  0  0  0  0  0  0  0  0  0  0  0
   24.2896   40.4488   67.1900 C   0  0  0  0  0  0  0  0  0  0  0  0
   26.7413   41.5977   62.3494 C   0  0  0  0  0  0  0  0  0  0  0  0
   27.8374   36.0480   71.5335 O   0  5  0  0  0  0  0  0  0  0  0  0
   25.5897   40.8090   67.2469 N   0  0  0  0  0  0  0  0  0  0  0  0
   26.2068   42.7167   62.7593 N   0  0  0  0  0  0  0  0  0  0  0  0
   29.4758   36.3506   69.6788 O   0  0  0  0  0  0  0  0  0  0  0  0
   26.3039   39.8844   68.0112 C   0  0  2  0  0  0  0  0  0  0  0  0
   26.0308   42.9465   64.1198 C   0  0  0  0  0  0  0  0  0  0  0  0
   25.5020   44.0995   64.5190 N   0  0  0  0  0  0  0  0  0  0  0  0
   25.5489   38.8545   68.5207 C   0  0  1  0  0  0  0  0  0  0  0  0
   26.4262   41.9195   65.0696 C   0  0  0  0  0  0  0  0  0  0  0  0
   26.0005   37.7293   69.3805 C   0  0  0  0  0  0  0  0  0  0  0  0
   27.0149   40.7934   64.5303 C   0  0  0  0  0  0  0  0  0  0  0  0
   26.6909   36.6859   68.5849 C   0  0  0  0  0  0  0  0  0  0  0  0
   26.1477   42.0673   66.5532 C   0  0  0  0  0  0  0  0  0  0  0  0
   27.1679   35.5416   69.2937 O   0  0  0  0  0  0  0  0  0  0  0  0
  1  8  1  0  0  0  0
  3  5  1  1  0  0  0
  3  9  1  0  0  0  0
  3 12  2  0  0  0  0
  3 22  1  0  0  0  0
  4  8  2  0  0  0  0
  4 19  1  0  0  0  0
  6 16  1  0  0  0  0
  6  7  1  0  0  0  0
  7 10  1  0  0  0  0
  8 11  1  0  0  0  0
 10 13  1  0  0  0  0
 10 21  1  0  0  0  0
 11 14  2  0  0  0  0
 13  2  1  1  0  0  0
 13 16  1  0  0  0  0
 14 15  1  0  0  0  0
 14 17  1  0  0  0  0
 16 18  1  1  0  0  0
 17 19  2  0  0  0  0
 17 21  1  0  0  0  0
 18 20  1  0  0  0  0
 20 22  1  0  0  0  0
M  CHG  1   9  -1
M  END
>  <CHROM.1>
-80.55729555,102.42126703,135.42519895,-179.58816768,-72.29036900,-158.83672266
26.64711622,39.13453320,67.18313711,-1.80442412,-0.65085165,2.20027029

>  <Name>
ligand

>  <RI>
0

>  <Rbt.Current_Directory>
/home/itssahil/PROJECTS/Mol_Feturizer/New_Systems/rnas/2HOM

>  <Rbt.Executable>
rbdock ($Id: //depot/dev/client3/rdock/2013.1/src/exe/rbdock.cxx#4 $)

>  <Rbt.Library>
libRbt.so (2013.1, Build901 2013/11/27)

>  <Rbt.Parameter_File>
/export/apps/rDock/src/rDock_2013.1_src/data/scripts/dock_solv.prm

>  <Rbt.Receptor>
prm/pocket_docking_7.prm

>  <SCORE>
-10.1527

>  <SCORE.INTER>
-11.504

>  <SCORE.INTER.CONST>
1

>  <SCORE.INTER.POLAR>
-1.62649

>  <SCORE.INTER.ROT>
6

>  <SCORE.INTER.SOLV>
8.48423

>  <SCORE.INTER.VDW>
-12.6758

>  <SCORE.INTER.norm>
-0.522907

>  <SCORE.INTRA>
1.35124

>  <SCORE.INTRA.DIHEDRAL>
1.0993

>  <SCORE.INTRA.DIHEDRAL.0>
5.05013

>  <SCORE.INTRA.POLAR>
0

>  <SCORE.INTRA.POLAR.0>
0

>  <SCORE.INTRA.REPUL>
0

>  <SCORE.INTRA.REPUL.0>
0

>  <SCORE.INTRA.SOLV>
1.88972

>  <SCORE.INTRA.SOLV.lig_0>
-54.1265

>  <SCORE.INTRA.VDW>
-0.143263

>  <SCORE.INTRA.VDW.0>
-2.1303

>  <SCORE.INTRA.norm>
0.0614202

>  <SCORE.RESTR>
0

>  <SCORE.RESTR.CAVITY>
0

>  <SCORE.RESTR.norm>
0

>  <SCORE.SYSTEM>
0

>  <SCORE.SYSTEM.CONST>
0

>  <SCORE.SYSTEM.DIHEDRAL>
0

>  <SCORE.SYSTEM.SOLV>
0

>  <SCORE.SYSTEM.norm>
0

>  <SCORE.heavy>
22

>  <SCORE.norm>
-0.461487

>  <RMSD>
5.614

$$$$
ligand
 OpenBabel11021811443D
libRbt.so/2013.1/901 2013/11/27
 22 23  0  0  0  0  0  0  0  0999 V2000
   17.7610   40.2784   64.2523 C   0  0  0  0  0  0  0  0  0  0  0  0
   24.8877   43.1530   65.0808 C   0  0  0  0  0  0  0  0  0  0  0  0
   25.7736   44.4249   61.4691 P   0  0  1  0  0  0  0  0  0  0  0  0
   19.1033   42.0178   65.1987 N   0  0  0  0  0  0  0  0  0  0  0  0
   24.6236   43.5004   61.2990 O   0  0  0  0  0  0  0  0  0  0  0  0
   22.6555   46.1586   66.5608 S   0  0  0  0  0  0  0  0  0  0  0  0
   22.1371   44.6208   66.9957 C   0  0  0  0  0  0  0  0  0  0  0  0
   18.9919   40.6692   64.9379 C   0  0  0  0  0  0  0  0  0  0  0  0
   27.1016   43.7620   61.4035 O   0  5  0  0  0  0  0  0  0  0  0  0
   22.8734   43.5984   66.5101 N   0  0  0  0  0  0  0  0  0  0  0  0
   19.8929   39.7872   65.2789 N   0  0  0  0  0  0  0  0  0  0  0  0
   25.6470   45.5944   60.5417 O   0  0  0  0  0  0  0  0  0  0  0  0
   23.9235   44.0969   65.7369 C   0  0  2  0  0  0  0  0  0  0  0  0
   21.0534   40.1937   65.9292 C   0  0  0  0  0  0  0  0  0  0  0  0
   21.9508   39.2792   66.2853 N   0  0  0  0  0  0  0  0  0  0  0  0
   23.9673   45.4679   65.6424 C   0  0  1  0  0  0  0  0  0  0  0  0
   21.2567   41.6074   66.1998 C   0  0  0  0  0  0  0  0  0  0  0  0
   24.9396   46.3009   64.8875 C   0  0  0  0  0  0  0  0  0  0  0  0
   20.2247   42.4469   65.8312 C   0  0  0  0  0  0  0  0  0  0  0  0
   24.8796   46.0160   63.4337 C   0  0  0  0  0  0  0  0  0  0  0  0
   22.5541   42.1180   66.7970 C   0  0  0  0  0  0  0  0  0  0  0  0
   25.7377   44.9868   62.9401 O   0  0  0  0  0  0  0  0  0  0  0  0
  1  8  1  0  0  0  0
  3  5  1  6  0  0  0
  3  9  1  0  0  0  0
  3 12  2  0  0  0  0
  3 22  1  0  0  0  0
  4  8  2  0  0  0  0
  4 19  1  0  0  0  0
  6 16  1  0  0  0  0
  6  7  1  0  0  0  0
  7 10  1  0  0  0  0
  8 11  1  0  0  0  0
 10 13  1  0  0  0  0
 10 21  1  0  0  0  0
 11 14  2  0  0  0  0
 13  2  1  6  0  0  0
 13 16  1  0  0  0  0
 14 15  1  0  0  0  0
 14 17  1  0  0  0  0
 16 18  1  6  0  0  0
 17 19  2  0  0  0  0
 17 21  1  0  0  0  0
 18 20  1  0  0  0  0
 20 22  1  0  0  0  0
M  CHG  1   9  -1
M  END
>  <CHROM.1>
66.33444602,-117.81432541,156.12933305,-89.98540662,174.75944737,-77.77949931
23.06346526,43.44573156,64.50615010,-3.13769496,0.74749265,0.86520735

>  <Name>
ligand

>  <RI>
0

>  <Rbt.Current_Directory>
/home/itssahil/PROJECTS/Mol_Feturizer/New_Systems/rnas/2HOM

>  <Rbt.Executable>
rbdock ($Id: //depot/dev/client3/rdock/2013.1/src/exe/rbdock.cxx#4 $)

>  <Rbt.Library>
libRbt.so (2013.1, Build901 2013/11/27)

>  <Rbt.Parameter_File>
/export/apps/rDock/src/rDock_2013.1_src/data/scripts/dock_solv.prm

>  <Rbt.Receptor>
prm/pocket_docking_7.prm

>  <SCORE>
-19.4817

>  <SCORE.INTER>
-21.6434

>  <SCORE.INTER.CONST>
1

>  <SCORE.INTER.POLAR>
0

>  <SCORE.INTER.ROT>
6

>  <SCORE.INTER.SOLV>
8.68993

>  <SCORE.INTER.VDW>
-24.9256

>  <SCORE.INTER.norm>
-0.983793

>  <SCORE.INTRA>
2.16172

>  <SCORE.INTRA.DIHEDRAL>
3.02374

>  <SCORE.INTRA.DIHEDRAL.0>
5.05013

>  <SCORE.INTRA.POLAR>
0

>  <SCORE.INTRA.POLAR.0>
0

>  <SCORE.INTRA.REPUL>
0

>  <SCORE.INTRA.REPUL.0>
0

>  <SCORE.INTRA.SOLV>
0.650891

>  <SCORE.INTRA.SOLV.lig_0>
-54.1265

>  <SCORE.INTRA.VDW>
0.324406

>  <SCORE.INTRA.VDW.0>
-2.1303

>  <SCORE.INTRA.norm>
0.0982601

>  <SCORE.RESTR>
0

>  <SCORE.RESTR.CAVITY>
0

>  <SCORE.RESTR.norm>
0

>  <SCORE.SYSTEM>
0

>  <SCORE.SYSTEM.CONST>
0

>  <SCORE.SYSTEM.DIHEDRAL>
0

>  <SCORE.SYSTEM.SOLV>
0

>  <SCORE.SYSTEM.norm>
0

>  <SCORE.heavy>
22

>  <SCORE.norm>
-0.885533

>  <RMSD>
5.655

$$$$
ligand
 OpenBabel11021811443D
libRbt.so/2013.1/901 2013/11/27
 22 23  0  0  0  0  0  0  0  0999 V2000
   25.3607   44.6442   63.7280 C   0  0  0  0  0  0  0  0  0  0  0  0
   27.6282   38.7915   67.5526 C   0  0  0  0  0  0  0  0  0  0  0  0
   28.4506   35.1254   69.1587 P   0  0  1  0  0  0  0  0  0  0  0  0
   24.7652   42.4169   64.3668 N   0  0  0  0  0  0  0  0  0  0  0  0
   29.0106   34.3058   68.0538 O   0  0  0  0  0  0  0  0  0  0  0  0
   23.9060   37.3656   66.9880 S   0  0  0  0  0  0  0  0  0  0  0  0
   24.6207   38.0214   65.6163 C   0  0  0  0  0  0  0  0  0  0  0  0
   25.7607   43.2484   63.9011 C   0  0  0  0  0  0  0  0  0  0  0  0
   28.1690   34.3604   70.4008 O   0  5  0  0  0  0  0  0  0  0  0  0
   25.8703   38.5045   65.7844 N   0  0  0  0  0  0  0  0  0  0  0  0
   26.9692   42.8441   63.6150 N   0  0  0  0  0  0  0  0  0  0  0  0
   29.2944   36.3415   69.3884 O   0  0  0  0  0  0  0  0  0  0  0  0
   26.2705   38.3303   67.1105 C   0  0  2  0  0  0  0  0  0  0  0  0
   27.3166   41.5089   63.7926 C   0  0  0  0  0  0  0  0  0  0  0  0
   28.5462   41.1120   63.4783 N   0  0  0  0  0  0  0  0  0  0  0  0
   25.3338   37.7323   67.9199 C   0  0  1  0  0  0  0  0  0  0  0  0
   26.3279   40.5829   64.3200 C   0  0  0  0  0  0  0  0  0  0  0  0
   25.4422   37.4247   69.3700 C   0  0  0  0  0  0  0  0  0  0  0  0
   25.0726   41.1081   64.5520 C   0  0  0  0  0  0  0  0  0  0  0  0
   25.9748   36.0591   69.5934 C   0  0  0  0  0  0  0  0  0  0  0  0
   26.6873   39.1457   64.6454 C   0  0  0  0  0  0  0  0  0  0  0  0
   27.0204   35.6221   68.7244 O   0  0  0  0  0  0  0  0  0  0  0  0
  1  8  1  0  0  0  0
  3  5  1  6  0  0  0
  3  9  1  0  0  0  0
  3 12  2  0  0  0  0
  3 22  1  0  0  0  0
  4  8  2  0  0  0  0
  4 19  1  0  0  0  0
  6 16  1  0  0  0  0
  6  7  1  0  0  0  0
  7 10  1  0  0  0  0
  8 11  1  0  0  0  0
 10 13  1  0  0  0  0
 10 21  1  0  0  0  0
 11 14  2  0  0  0  0
 13  2  1  1  0  0  0
 13 16  1  0  0  0  0
 14 15  1  0  0  0  0
 14 17  1  0  0  0  0
 16 18  1  1  0  0  0
 17 19  2  0  0  0  0
 17 21  1  0  0  0  0
 18 20  1  0  0  0  0
 20 22  1  0  0  0  0
M  CHG  1   9  -1
M  END
>  <CHROM.1>
79.27971552,88.92679976,150.39425271,39.38671423,122.85451975,158.74820107
26.56458548,38.46034579,66.72599426,-1.76366056,-0.06834463,2.48349447

>  <Name>
ligand

>  <RI>
0

>  <Rbt.Current_Directory>
/home/itssahil/PROJECTS/Mol_Feturizer/New_Systems/rnas/2HOM

>  <Rbt.Executable>
rbdock ($Id: //depot/dev/client3/rdock/2013.1/src/exe/rbdock.cxx#4 $)

>  <Rbt.Library>
libRbt.so (2013.1, Build901 2013/11/27)

>  <Rbt.Parameter_File>
/export/apps/rDock/src/rDock_2013.1_src/data/scripts/dock_solv.prm

>  <Rbt.Receptor>
prm/pocket_docking_6.prm

>  <SCORE>
-11.9187

>  <SCORE.INTER>
-17.0502

>  <SCORE.INTER.CONST>
1

>  <SCORE.INTER.POLAR>
-1.63459

>  <SCORE.INTER.ROT>
6

>  <SCORE.INTER.SOLV>
10.5693

>  <SCORE.INTER.VDW>
-17.0413

>  <SCORE.INTER.norm>
-0.775011

>  <SCORE.INTRA>
5.11022

>  <SCORE.INTRA.DIHEDRAL>
9.29578

>  <SCORE.INTRA.DIHEDRAL.0>
5.05013

>  <SCORE.INTRA.POLAR>
0

>  <SCORE.INTRA.POLAR.0>
0

>  <SCORE.INTRA.REPUL>
0

>  <SCORE.INTRA.REPUL.0>
0

>  <SCORE.INTRA.SOLV>
1.89968

>  <SCORE.INTRA.SOLV.lig_0>
-54.1265

>  <SCORE.INTRA.VDW>
-0.487509

>  <SCORE.INTRA.VDW.0>
-2.1303

>  <SCORE.INTRA.norm>
0.232283

>  <SCORE.RESTR>
0.0212786

>  <SCORE.RESTR.CAVITY>
0.0212786

>  <SCORE.RESTR.norm>
0.000967207

>  <SCORE.SYSTEM>
0

>  <SCORE.SYSTEM.CONST>
0

>  <SCORE.SYSTEM.DIHEDRAL>
0

>  <SCORE.SYSTEM.SOLV>
0

>  <SCORE.SYSTEM.norm>
0

>  <SCORE.heavy>
22

>  <SCORE.norm>
-0.541761

>  <RMSD>
5.760

$$$$
ligand
 OpenBabel11021811443D
libRbt.so/2013.1/901 2013/11/27
 22 23  0  0  0  0  0  0  0  0999 V2000
   17.5200   40.0791   63.9773 C   0  0  0  0  0  0  0  0  0  0  0  0
   24.5926   42.7054   65.0373 C   0  0  0  0  0  0  0  0  0  0  0  0
   25.7869   45.9862   60.8828 P   0  0  1  0  0  0  0  0  0  0  0  0
   18.8224   41.7920   65.0228 N   0  0  0  0  0  0  0  0  0  0  0  0
   24.4695   46.2839   60.2647 O   0  0  0  0  0  0  0  0  0  0  0  0
   22.5098   45.8659   66.4083 S   0  0  0  0  0  0  0  0  0  0  0  0
   21.9115   44.3710   66.8879 C   0  0  0  0  0  0  0  0  0  0  0  0
   18.7206   40.4503   64.7246 C   0  0  0  0  0  0  0  0  0  0  0  0
   26.2055   44.5654   60.7675 O   0  5  0  0  0  0  0  0  0  0  0  0
   22.5969   43.2977   66.4392 N   0  0  0  0  0  0  0  0  0  0  0  0
   19.6050   39.5582   65.0826 N   0  0  0  0  0  0  0  0  0  0  0  0
   26.8236   46.9521   60.3971 O   0  0  0  0  0  0  0  0  0  0  0  0
   23.6747   43.7174   65.6573 C   0  0  2  0  0  0  0  0  0  0  0  0
   20.7368   39.9461   65.7921 C   0  0  0  0  0  0  0  0  0  0  0  0
   21.6168   39.0211   66.1642 N   0  0  0  0  0  0  0  0  0  0  0  0
   23.7889   45.0807   65.5202 C   0  0  1  0  0  0  0  0  0  0  0  0
   20.9301   41.3523   66.1055 C   0  0  0  0  0  0  0  0  0  0  0  0
   24.8059   45.8389   64.7457 C   0  0  0  0  0  0  0  0  0  0  0  0
   19.9161   42.2029   65.7133 C   0  0  0  0  0  0  0  0  0  0  0  0
   24.6816   45.5778   63.2915 C   0  0  0  0  0  0  0  0  0  0  0  0
   22.2012   41.8452   66.7704 C   0  0  0  0  0  0  0  0  0  0  0  0
   25.6541   46.1844   62.4397 O   0  0  0  0  0  0  0  0  0  0  0  0
  1  8  1  0  0  0  0
  3  5  1  6  0  0  0
  3  9  1  0  0  0  0
  3 12  2  0  0  0  0
  3 22  1  0  0  0  0
  4  8  2  0  0  0  0
  4 19  1  0  0  0  0
  6 16  1  0  0  0  0
  6  7  1  0  0  0  0
  7 10  1  0  0  0  0
  8 11  1  0  0  0  0
 10 13  1  0  0  0  0
 10 21  1  0  0  0  0
 11 14  2  0  0  0  0
 13  2  1  6  0  0  0
 13 16  1  0  0  0  0
 14 15  1  0  0  0  0
 14 17  1  0  0  0  0
 16 18  1  6  0  0  0
 17 19  2  0  0  0  0
 17 21  1  0  0  0  0
 18 20  1  0  0  0  0
 20 22  1  0  0  0  0
M  CHG  1   9  -1
M  END
>  <CHROM.1>
70.28892125,-114.17289545,151.27275665,-176.32077750,175.92401764,53.44705191
22.88577275,43.66107639,64.24790595,2.87685996,0.82495993,1.27383026

>  <Name>
ligand

>  <RI>
0

>  <Rbt.Current_Directory>
/home/itssahil/PROJECTS/Mol_Feturizer/New_Systems/rnas/2HOM

>  <Rbt.Executable>
rbdock ($Id: //depot/dev/client3/rdock/2013.1/src/exe/rbdock.cxx#4 $)

>  <Rbt.Library>
libRbt.so (2013.1, Build901 2013/11/27)

>  <Rbt.Parameter_File>
/export/apps/rDock/src/rDock_2013.1_src/data/scripts/dock_solv.prm

>  <Rbt.Receptor>
prm/pocket_docking_8.prm

>  <SCORE>
-22.3312

>  <SCORE.INTER>
-22.6065

>  <SCORE.INTER.CONST>
1

>  <SCORE.INTER.POLAR>
0

>  <SCORE.INTER.ROT>
6

>  <SCORE.INTER.SOLV>
9.21063

>  <SCORE.INTER.VDW>
-25.7412

>  <SCORE.INTER.norm>
-1.02757

>  <SCORE.INTRA>
0.272404

>  <SCORE.INTRA.DIHEDRAL>
-0.15475

>  <SCORE.INTRA.DIHEDRAL.0>
5.05013

>  <SCORE.INTRA.POLAR>
0

>  <SCORE.INTRA.POLAR.0>
0

>  <SCORE.INTRA.REPUL>
0

>  <SCORE.INTRA.REPUL.0>
0

>  <SCORE.INTRA.SOLV>
-0.0124066

>  <SCORE.INTRA.SOLV.lig_0>
-54.1265

>  <SCORE.INTRA.VDW>
0.355982

>  <SCORE.INTRA.VDW.0>
-2.1303

>  <SCORE.INTRA.norm>
0.012382

>  <SCORE.RESTR>
0.00290674

>  <SCORE.RESTR.CAVITY>
0.00290674

>  <SCORE.RESTR.norm>
0.000132125

>  <SCORE.SYSTEM>
0

>  <SCORE.SYSTEM.CONST>
0

>  <SCORE.SYSTEM.DIHEDRAL>
0

>  <SCORE.SYSTEM.SOLV>
0

>  <SCORE.SYSTEM.norm>
0

>  <SCORE.heavy>
22

>  <SCORE.norm>
-1.01506

>  <RMSD>
6.003

$$$$
ligand
 OpenBabel11021811443D
libRbt.so/2013.1/901 2013/11/27
 22 23  0  0  0  0  0  0  0  0999 V2000
   26.2330   43.2905   59.4588 C   0  0  0  0  0  0  0  0  0  0  0  0
   27.7235   40.6785   67.6248 C   0  0  0  0  0  0  0  0  0  0  0  0
   28.2869   35.9502   70.4391 P   0  0  1  0  0  0  0  0  0  0  0  0
   25.3091   43.1086   61.6581 N   0  0  0  0  0  0  0  0  0  0  0  0
   29.5269   36.2050   69.6620 O   0  0  0  0  0  0  0  0  0  0  0  0
   26.9250   37.7333   64.9990 S   0  0  0  0  0  0  0  0  0  0  0  0
   26.5947   39.2818   64.4370 C   0  0  0  0  0  0  0  0  0  0  0  0
   26.3861   42.8397   60.8413 C   0  0  0  0  0  0  0  0  0  0  0  0
   28.1527   34.5543   70.9295 O   0  5  0  0  0  0  0  0  0  0  0  0
   26.8567   40.2843   65.3027 N   0  0  0  0  0  0  0  0  0  0  0  0
   27.4635   42.2194   61.2418 N   0  0  0  0  0  0  0  0  0  0  0  0
   28.1246   36.9769   71.5177 O   0  0  0  0  0  0  0  0  0  0  0  0
   27.3568   39.7603   66.4962 C   0  0  2  0  0  0  0  0  0  0  0  0
   27.5768   41.8050   62.5648 C   0  0  0  0  0  0  0  0  0  0  0  0
   28.6733   41.1585   62.9495 N   0  0  0  0  0  0  0  0  0  0  0  0
   27.4613   38.3897   66.5231 C   0  0  1  0  0  0  0  0  0  0  0  0
   26.4956   42.0922   63.4930 C   0  0  0  0  0  0  0  0  0  0  0  0
   27.9354   37.5314   67.6401 C   0  0  0  0  0  0  0  0  0  0  0  0
   25.3890   42.7181   62.9554 C   0  0  0  0  0  0  0  0  0  0  0  0
   26.8234   37.1687   68.5513 C   0  0  0  0  0  0  0  0  0  0  0  0
   26.6174   41.7703   64.9702 C   0  0  0  0  0  0  0  0  0  0  0  0
   27.0585   36.0960   69.4642 O   0  0  0  0  0  0  0  0  0  0  0  0
  1  8  1  0  0  0  0
  3  5  1  6  0  0  0
  3  9  1  0  0  0  0
  3 12  2  0  0  0  0
  3 22  1  0  0  0  0
  4  8  2  0  0  0  0
  4 19  1  0  0  0  0
  6 16  1  0  0  0  0
  6  7  1  0  0  0  0
  7 10  1  0  0  0  0
  8 11  1  0  0  0  0
 10 13  1  0  0  0  0
 10 21  1  0  0  0  0
 11 14  2  0  0  0  0
 13  2  1  1  0  0  0
 13 16  1  0  0  0  0
 14 15  1  0  0  0  0
 14 17  1  0  0  0  0
 16 18  1  1  0  0  0
 17 19  2  0  0  0  0
 17 21  1  0  0  0  0
 18 20  1  0  0  0  0
 20 22  1  0  0  0  0
M  CHG  1   9  -1
M  END
>  <CHROM.1>
-18.83399751,-91.37482557,-59.62714197,164.94000884,51.06554935,-48.10781467
27.30423250,39.20695482,66.00182193,-2.85092282,-1.41477244,0.94154864

>  <Name>
ligand

>  <RI>
0

>  <Rbt.Current_Directory>
/home/itssahil/PROJECTS/Mol_Feturizer/New_Systems/rnas/2HOM

>  <Rbt.Executable>
rbdock ($Id: //depot/dev/client3/rdock/2013.1/src/exe/rbdock.cxx#4 $)

>  <Rbt.Library>
libRbt.so (2013.1, Build901 2013/11/27)

>  <Rbt.Parameter_File>
/export/apps/rDock/src/rDock_2013.1_src/data/scripts/dock_solv.prm

>  <Rbt.Receptor>
prm/pocket_docking_8.prm

>  <SCORE>
-7.41373

>  <SCORE.INTER>
-9.34215

>  <SCORE.INTER.CONST>
1

>  <SCORE.INTER.POLAR>
-1.30767

>  <SCORE.INTER.ROT>
6

>  <SCORE.INTER.SOLV>
7.26068

>  <SCORE.INTER.VDW>
-11.8894

>  <SCORE.INTER.norm>
-0.424643

>  <SCORE.INTRA>
1.92842

>  <SCORE.INTRA.DIHEDRAL>
1.14602

>  <SCORE.INTRA.DIHEDRAL.0>
5.05013

>  <SCORE.INTRA.POLAR>
0

>  <SCORE.INTRA.POLAR.0>
0

>  <SCORE.INTRA.REPUL>
0

>  <SCORE.INTRA.REPUL.0>
0

>  <SCORE.INTRA.SOLV>
2.05113

>  <SCORE.INTRA.SOLV.lig_0>
-54.1265

>  <SCORE.INTRA.VDW>
0.329851

>  <SCORE.INTRA.VDW.0>
-2.1303

>  <SCORE.INTRA.norm>
0.0876557

>  <SCORE.RESTR>
0

>  <SCORE.RESTR.CAVITY>
0

>  <SCORE.RESTR.norm>
0

>  <SCORE.SYSTEM>
0

>  <SCORE.SYSTEM.CONST>
0

>  <SCORE.SYSTEM.DIHEDRAL>
0

>  <SCORE.SYSTEM.SOLV>
0

>  <SCORE.SYSTEM.norm>
0

>  <SCORE.heavy>
22

>  <SCORE.norm>
-0.336988

>  <RMSD>
6.230

$$$$
ligand
 OpenBabel11021811443D
libRbt.so/2013.1/901 2013/11/27
 22 23  0  0  0  0  0  0  0  0999 V2000
   27.0909   37.9010   65.7651 C   0  0  0  0  0  0  0  0  0  0  0  0
   22.4807   41.7712   67.3711 C   0  0  0  0  0  0  0  0  0  0  0  0
   24.6036   44.2655   64.8669 P   0  0  1  0  0  0  0  0  0  0  0  0
   25.3062   38.5693   67.2114 N   0  0  0  0  0  0  0  0  0  0  0  0
   24.4827   44.3783   63.3907 O   0  0  0  0  0  0  0  0  0  0  0  0
   19.3234   41.7025   64.8745 S   0  0  0  0  0  0  0  0  0  0  0  0
   19.8534   40.1891   65.3759 C   0  0  0  0  0  0  0  0  0  0  0  0
   25.6657   38.1767   65.9402 C   0  0  0  0  0  0  0  0  0  0  0  0
   25.4950   43.1674   65.3217 O   0  5  0  0  0  0  0  0  0  0  0  0
   20.9112   40.1905   66.2149 N   0  0  0  0  0  0  0  0  0  0  0  0
   24.8222   38.0663   64.9490 N   0  0  0  0  0  0  0  0  0  0  0  0
   24.9443   45.5947   65.4676 O   0  0  0  0  0  0  0  0  0  0  0  0
   21.3152   41.5032   66.4650 C   0  0  2  0  0  0  0  0  0  0  0  0
   23.4724   38.3352   65.1507 C   0  0  0  0  0  0  0  0  0  0  0  0
   22.6317   38.2356   64.1253 N   0  0  0  0  0  0  0  0  0  0  0  0
   20.5750   42.4653   65.8194 C   0  0  1  0  0  0  0  0  0  0  0  0
   23.0153   38.7148   66.4774 C   0  0  0  0  0  0  0  0  0  0  0  0
   20.7582   43.9397   65.8611 C   0  0  0  0  0  0  0  0  0  0  0  0
   23.9959   38.8379   67.4412 C   0  0  0  0  0  0  0  0  0  0  0  0
   21.9305   44.3607   65.0568 C   0  0  0  0  0  0  0  0  0  0  0  0
   21.5411   38.9023   66.7805 C   0  0  0  0  0  0  0  0  0  0  0  0
   23.2016   43.8363   65.4423 O   0  0  0  0  0  0  0  0  0  0  0  0
  1  8  1  0  0  0  0
  3  5  1  6  0  0  0
  3  9  1  0  0  0  0
  3 12  2  0  0  0  0
  3 22  1  0  0  0  0
  4  8  2  0  0  0  0
  4 19  1  0  0  0  0
  6 16  1  0  0  0  0
  6  7  1  0  0  0  0
  7 10  1  0  0  0  0
  8 11  1  0  0  0  0
 10 13  1  0  0  0  0
 10 21  1  0  0  0  0
 11 14  2  0  0  0  0
 13  2  1  6  0  0  0
 13 16  1  0  0  0  0
 14 15  1  0  0  0  0
 14 17  1  0  0  0  0
 16 18  1  6  0  0  0
 17 19  2  0  0  0  0
 17 21  1  0  0  0  0
 18 20  1  0  0  0  0
 20 22  1  0  0  0  0
M  CHG  1   9  -1
M  END
>  <CHROM.1>
122.22011730,-104.91089514,-74.18498065,-60.26377510,-171.95171482,-43.64735760
23.00782593,41.36729572,65.58345670,-1.33062021,0.02589315,-0.16254824

>  <Name>
ligand

>  <RI>
0

>  <Rbt.Current_Directory>
/home/itssahil/PROJECTS/Mol_Feturizer/New_Systems/rnas/2HOM

>  <Rbt.Executable>
rbdock ($Id: //depot/dev/client3/rdock/2013.1/src/exe/rbdock.cxx#4 $)

>  <Rbt.Library>
libRbt.so (2013.1, Build901 2013/11/27)

>  <Rbt.Parameter_File>
/export/apps/rDock/src/rDock_2013.1_src/data/scripts/dock_solv.prm

>  <Rbt.Receptor>
prm/pocket_docking_5.prm

>  <SCORE>
-17.9201

>  <SCORE.INTER>
-18.7728

>  <SCORE.INTER.CONST>
1

>  <SCORE.INTER.POLAR>
0

>  <SCORE.INTER.ROT>
6

>  <SCORE.INTER.SOLV>
14.7062

>  <SCORE.INTER.VDW>
-25.0173

>  <SCORE.INTER.norm>
-0.853311

>  <SCORE.INTRA>
0.85272

>  <SCORE.INTRA.DIHEDRAL>
0.34905

>  <SCORE.INTRA.DIHEDRAL.0>
5.05013

>  <SCORE.INTRA.POLAR>
0

>  <SCORE.INTRA.POLAR.0>
0

>  <SCORE.INTRA.REPUL>
0

>  <SCORE.INTRA.REPUL.0>
0

>  <SCORE.INTRA.SOLV>
1.51591

>  <SCORE.INTRA.SOLV.lig_0>
-54.1265

>  <SCORE.INTRA.VDW>
-0.0797608

>  <SCORE.INTRA.VDW.0>
-2.1303

>  <SCORE.INTRA.norm>
0.03876

>  <SCORE.RESTR>
0

>  <SCORE.RESTR.CAVITY>
0

>  <SCORE.RESTR.norm>
0

>  <SCORE.SYSTEM>
0

>  <SCORE.SYSTEM.CONST>
0

>  <SCORE.SYSTEM.DIHEDRAL>
0

>  <SCORE.SYSTEM.SOLV>
0

>  <SCORE.SYSTEM.norm>
0

>  <SCORE.heavy>
22

>  <SCORE.norm>
-0.814551

>  <RMSD>
6.320

$$$$
ligand
 OpenBabel11021811443D
libRbt.so/2013.1/901 2013/11/27
 22 23  0  0  0  0  0  0  0  0999 V2000
   27.0765   37.8003   65.2578 C   0  0  0  0  0  0  0  0  0  0  0  0
   22.5173   41.9354   67.3732 C   0  0  0  0  0  0  0  0  0  0  0  0
   24.6255   44.7761   65.5692 P   0  0  1  0  0  0  0  0  0  0  0  0
   25.5030   38.9935   66.6080 N   0  0  0  0  0  0  0  0  0  0  0  0
   25.5256   44.5482   66.7286 O   0  0  0  0  0  0  0  0  0  0  0  0
   19.3920   41.6734   64.8492 S   0  0  0  0  0  0  0  0  0  0  0  0
   19.9802   40.1962   65.3919 C   0  0  0  0  0  0  0  0  0  0  0  0
   25.6807   38.0915   65.5814 C   0  0  0  0  0  0  0  0  0  0  0  0
   24.4740   46.2042   65.1886 O   0  5  0  0  0  0  0  0  0  0  0  0
   21.0282   40.2624   66.2406 N   0  0  0  0  0  0  0  0  0  0  0  0
   24.6975   37.5379   64.9235 N   0  0  0  0  0  0  0  0  0  0  0  0
   25.0143   43.8939   64.4229 O   0  0  0  0  0  0  0  0  0  0  0  0
   21.3737   41.5967   66.4628 C   0  0  2  0  0  0  0  0  0  0  0  0
   23.3808   37.8364   65.2584 C   0  0  0  0  0  0  0  0  0  0  0  0
   22.3933   37.2774   64.5651 N   0  0  0  0  0  0  0  0  0  0  0  0
   20.6003   42.5109   65.7873 C   0  0  1  0  0  0  0  0  0  0  0  0
   23.1184   38.7489   66.3591 C   0  0  0  0  0  0  0  0  0  0  0  0
   20.7205   43.9924   65.7952 C   0  0  0  0  0  0  0  0  0  0  0  0
   24.2298   39.3051   66.9599 C   0  0  0  0  0  0  0  0  0  0  0  0
   21.9948   44.4335   65.1788 C   0  0  0  0  0  0  0  0  0  0  0  0
   21.7060   39.0160   66.8431 C   0  0  0  0  0  0  0  0  0  0  0  0
   23.1641   44.3732   65.9965 O   0  0  0  0  0  0  0  0  0  0  0  0
  1  8  1  0  0  0  0
  3  5  1  1  0  0  0
  3  9  1  0  0  0  0
  3 12  2  0  0  0  0
  3 22  1  0  0  0  0
  4  8  2  0  0  0  0
  4 19  1  0  0  0  0
  6 16  1  0  0  0  0
  6  7  1  0  0  0  0
  7 10  1  0  0  0  0
  8 11  1  0  0  0  0
 10 13  1  0  0  0  0
 10 21  1  0  0  0  0
 11 14  2  0  0  0  0
 13  2  1  6  0  0  0
 13 16  1  0  0  0  0
 14 15  1  0  0  0  0
 14 17  1  0  0  0  0
 16 18  1  6  0  0  0
 17 19  2  0  0  0  0
 17 21  1  0  0  0  0
 18 20  1  0  0  0  0
 20 22  1  0  0  0  0
M  CHG  1   9  -1
M  END
>  <CHROM.1>
111.70274834,-113.97396970,-95.10963279,-80.45582859,179.62461947,-179.74770278
23.04240353,41.48155228,65.71820130,-1.47629023,-0.02944895,-0.00659995

>  <Name>
ligand

>  <RI>
0

>  <Rbt.Current_Directory>
/home/itssahil/PROJECTS/Mol_Feturizer/New_Systems/rnas/2HOM

>  <Rbt.Executable>
rbdock ($Id: //depot/dev/client3/rdock/2013.1/src/exe/rbdock.cxx#4 $)

>  <Rbt.Library>
libRbt.so (2013.1, Build901 2013/11/27)

>  <Rbt.Parameter_File>
/export/apps/rDock/src/rDock_2013.1_src/data/scripts/dock_solv.prm

>  <Rbt.Receptor>
prm/pocket_docking_6.prm

>  <SCORE>
-18.2228

>  <SCORE.INTER>
-19.9805

>  <SCORE.INTER.CONST>
1

>  <SCORE.INTER.POLAR>
0

>  <SCORE.INTER.ROT>
6

>  <SCORE.INTER.SOLV>
18.4139

>  <SCORE.INTER.VDW>
-27.0583

>  <SCORE.INTER.norm>
-0.908205

>  <SCORE.INTRA>
1.7577

>  <SCORE.INTRA.DIHEDRAL>
1.06704

>  <SCORE.INTRA.DIHEDRAL.0>
5.05013

>  <SCORE.INTRA.POLAR>
0

>  <SCORE.INTRA.POLAR.0>
0

>  <SCORE.INTRA.REPUL>
0

>  <SCORE.INTRA.REPUL.0>
0

>  <SCORE.INTRA.SOLV>
1.48221

>  <SCORE.INTRA.SOLV.lig_0>
-54.1265

>  <SCORE.INTRA.VDW>
0.48308

>  <SCORE.INTRA.VDW.0>
-2.1303

>  <SCORE.INTRA.norm>
0.0798956

>  <SCORE.RESTR>
0

>  <SCORE.RESTR.CAVITY>
0

>  <SCORE.RESTR.norm>
0

>  <SCORE.SYSTEM>
0

>  <SCORE.SYSTEM.CONST>
0

>  <SCORE.SYSTEM.DIHEDRAL>
0

>  <SCORE.SYSTEM.SOLV>
0

>  <SCORE.SYSTEM.norm>
0

>  <SCORE.heavy>
22

>  <SCORE.norm>
-0.82831

>  <RMSD>
6.411

$$$$
ligand
 OpenBabel11021811443D
libRbt.so/2013.1/901 2013/11/27
 22 23  0  0  0  0  0  0  0  0999 V2000
   26.1180   43.3537   59.0333 C   0  0  0  0  0  0  0  0  0  0  0  0
   26.2261   37.9702   65.1610 C   0  0  0  0  0  0  0  0  0  0  0  0
   28.5086   35.7998   68.2428 P   0  0  1  0  0  0  0  0  0  0  0  0
   26.8786   41.4981   60.3376 N   0  0  0  0  0  0  0  0  0  0  0  0
   27.2449   36.5800   68.2188 O   0  0  0  0  0  0  0  0  0  0  0  0
   29.9123   38.0237   63.5436 S   0  0  0  0  0  0  0  0  0  0  0  0
   29.1009   39.4938   63.4875 C   0  0  0  0  0  0  0  0  0  0  0  0
   26.3424   42.7675   60.3539 C   0  0  0  0  0  0  0  0  0  0  0  0
   29.3859   36.0989   69.4039 O   0  5  0  0  0  0  0  0  0  0  0  0
   27.8628   39.4972   64.0260 N   0  0  0  0  0  0  0  0  0  0  0  0
   26.0619   43.4229   61.4484 N   0  0  0  0  0  0  0  0  0  0  0  0
   28.2254   34.3387   68.0731 O   0  0  0  0  0  0  0  0  0  0  0  0
   27.5555   38.2258   64.5141 C   0  0  2  0  0  0  0  0  0  0  0  0
   26.2868   42.8346   62.6887 C   0  0  0  0  0  0  0  0  0  0  0  0
   26.0127   43.5244   63.7920 N   0  0  0  0  0  0  0  0  0  0  0  0
   28.5452   37.2879   64.3381 C   0  0  1  0  0  0  0  0  0  0  0  0
   26.8125   41.4806   62.7466 C   0  0  0  0  0  0  0  0  0  0  0  0
   28.5235   35.8531   64.7256 C   0  0  0  0  0  0  0  0  0  0  0  0
   27.1088   40.8959   61.5318 C   0  0  0  0  0  0  0  0  0  0  0  0
   29.5299   35.5623   65.7748 C   0  0  0  0  0  0  0  0  0  0  0  0
   26.9638   40.7487   64.0664 C   0  0  0  0  0  0  0  0  0  0  0  0
   29.3877   36.2525   67.0169 O   0  0  0  0  0  0  0  0  0  0  0  0
  1  8  1  0  0  0  0
  3  5  1  1  0  0  0
  3  9  1  0  0  0  0
  3 12  2  0  0  0  0
  3 22  1  0  0  0  0
  4  8  2  0  0  0  0
  4 19  1  0  0  0  0
  6 16  1  0  0  0  0
  6  7  1  0  0  0  0
  7 10  1  0  0  0  0
  8 11  1  0  0  0  0
 10 13  1  0  0  0  0
 10 21  1  0  0  0  0
 11 14  2  0  0  0  0
 13  2  1  6  0  0  0
 13 16  1  0  0  0  0
 14 15  1  0  0  0  0
 14 17  1  0  0  0  0
 16 18  1  6  0  0  0
 17 19  2  0  0  0  0
 17 21  1  0  0  0  0
 18 20  1  0  0  0  0
 20 22  1  0  0  0  0
M  CHG  1   9  -1
M  END
>  <CHROM.1>
49.83041258,65.75369918,-164.44055797,60.94648081,86.74883962,-100.52720522
27.84859096,38.80919597,64.51053723,-1.94673473,-0.89030089,2.08959832

>  <Name>
ligand

>  <RI>
0

>  <Rbt.Current_Directory>
/home/itssahil/PROJECTS/Mol_Feturizer/New_Systems/rnas/2HOM

>  <Rbt.Executable>
rbdock ($Id: //depot/dev/client3/rdock/2013.1/src/exe/rbdock.cxx#4 $)

>  <Rbt.Library>
libRbt.so (2013.1, Build901 2013/11/27)

>  <Rbt.Parameter_File>
/export/apps/rDock/src/rDock_2013.1_src/data/scripts/dock_solv.prm

>  <Rbt.Receptor>
prm/pocket_docking_8.prm

>  <SCORE>
-15.5867

>  <SCORE.INTER>
-18.0823

>  <SCORE.INTER.CONST>
1

>  <SCORE.INTER.POLAR>
-2.11471

>  <SCORE.INTER.ROT>
6

>  <SCORE.INTER.SOLV>
14.9735

>  <SCORE.INTER.VDW>
-17.597

>  <SCORE.INTER.norm>
-0.821924

>  <SCORE.INTRA>
2.49559

>  <SCORE.INTRA.DIHEDRAL>
4.87152

>  <SCORE.INTRA.DIHEDRAL.0>
5.05013

>  <SCORE.INTRA.POLAR>
0

>  <SCORE.INTRA.POLAR.0>
0

>  <SCORE.INTRA.REPUL>
0

>  <SCORE.INTRA.REPUL.0>
0

>  <SCORE.INTRA.SOLV>
0.82224

>  <SCORE.INTRA.SOLV.lig_0>
-54.1265

>  <SCORE.INTRA.VDW>
-0.351293

>  <SCORE.INTRA.VDW.0>
-2.1303

>  <SCORE.INTRA.norm>
0.113436

>  <SCORE.RESTR>
0

>  <SCORE.RESTR.CAVITY>
0

>  <SCORE.RESTR.norm>
0

>  <SCORE.SYSTEM>
0

>  <SCORE.SYSTEM.CONST>
0

>  <SCORE.SYSTEM.DIHEDRAL>
0

>  <SCORE.SYSTEM.SOLV>
0

>  <SCORE.SYSTEM.norm>
0

>  <SCORE.heavy>
22

>  <SCORE.norm>
-0.708488

>  <RMSD>
6.420

$$$$
ligand
 OpenBabel11021811443D
libRbt.so/2013.1/901 2013/11/27
 22 23  0  0  0  0  0  0  0  0999 V2000
   27.0192   37.8492   65.1796 C   0  0  0  0  0  0  0  0  0  0  0  0
   22.3082   41.9580   67.3556 C   0  0  0  0  0  0  0  0  0  0  0  0
   24.1358   45.2555   65.9814 P   0  0  1  0  0  0  0  0  0  0  0  0
   25.4625   39.0093   66.5775 N   0  0  0  0  0  0  0  0  0  0  0  0
   23.8837   46.7173   65.9057 O   0  0  0  0  0  0  0  0  0  0  0  0
   19.2322   41.4488   64.8089 S   0  0  0  0  0  0  0  0  0  0  0  0
   19.8978   40.0230   65.3977 C   0  0  0  0  0  0  0  0  0  0  0  0
   25.6277   38.1202   65.5375 C   0  0  0  0  0  0  0  0  0  0  0  0
   24.6279   44.6568   64.7139 O   0  5  0  0  0  0  0  0  0  0  0  0
   20.9306   40.1722   66.2546 N   0  0  0  0  0  0  0  0  0  0  0  0
   24.6365   37.5617   64.8959 N   0  0  0  0  0  0  0  0  0  0  0  0
   24.9964   44.9329   67.1642 O   0  0  0  0  0  0  0  0  0  0  0  0
   21.1964   41.5297   66.4436 C   0  0  2  0  0  0  0  0  0  0  0  0
   23.3243   37.8409   65.2633 C   0  0  0  0  0  0  0  0  0  0  0  0
   22.3281   37.2773   64.5864 N   0  0  0  0  0  0  0  0  0  0  0  0
   20.3796   42.3794   65.7356 C   0  0  1  0  0  0  0  0  0  0  0  0
   23.0760   38.7385   66.3794 C   0  0  0  0  0  0  0  0  0  0  0  0
   20.4147   43.8650   65.7040 C   0  0  0  0  0  0  0  0  0  0  0  0
   24.1940   39.3018   66.9611 C   0  0  0  0  0  0  0  0  0  0  0  0
   21.7243   44.3635   65.2198 C   0  0  0  0  0  0  0  0  0  0  0  0
   21.6717   38.9835   66.8978 C   0  0  0  0  0  0  0  0  0  0  0  0
   22.7541   44.5301   66.1951 O   0  0  0  0  0  0  0  0  0  0  0  0
  1  8  1  0  0  0  0
  3  5  1  6  0  0  0
  3  9  1  0  0  0  0
  3 12  2  0  0  0  0
  3 22  1  0  0  0  0
  4  8  2  0  0  0  0
  4 19  1  0  0  0  0
  6 16  1  0  0  0  0
  6  7  1  0  0  0  0
  7 10  1  0  0  0  0
  8 11  1  0  0  0  0
 10 13  1  0  0  0  0
 10 21  1  0  0  0  0
 11 14  2  0  0  0  0
 13  2  1  6  0  0  0
 13 16  1  0  0  0  0
 14 15  1  0  0  0  0
 14 17  1  0  0  0  0
 16 18  1  6  0  0  0
 17 19  2  0  0  0  0
 17 21  1  0  0  0  0
 18 20  1  0  0  0  0
 20 22  1  0  0  0  0
M  CHG  1   9  -1
M  END
>  <CHROM.1>
108.45962367,-119.89699644,-91.17264631,-86.83641304,-169.35853541,72.71842177
22.82063396,41.56890946,65.82153332,-1.47075996,-0.07890031,0.05113857

>  <Name>
ligand

>  <RI>
0

>  <Rbt.Current_Directory>
/home/itssahil/PROJECTS/Mol_Feturizer/New_Systems/rnas/2HOM

>  <Rbt.Executable>
rbdock ($Id: //depot/dev/client3/rdock/2013.1/src/exe/rbdock.cxx#4 $)

>  <Rbt.Library>
libRbt.so (2013.1, Build901 2013/11/27)

>  <Rbt.Parameter_File>
/export/apps/rDock/src/rDock_2013.1_src/data/scripts/dock_solv.prm

>  <Rbt.Receptor>
prm/pocket_docking_8.prm

>  <SCORE>
-19.4302

>  <SCORE.INTER>
-22.3079

>  <SCORE.INTER.CONST>
1

>  <SCORE.INTER.POLAR>
0

>  <SCORE.INTER.ROT>
6

>  <SCORE.INTER.SOLV>
20.2466

>  <SCORE.INTER.VDW>
-29.2208

>  <SCORE.INTER.norm>
-1.014

>  <SCORE.INTRA>
2.87778

>  <SCORE.INTRA.DIHEDRAL>
2.70795

>  <SCORE.INTRA.DIHEDRAL.0>
5.05013

>  <SCORE.INTRA.POLAR>
0

>  <SCORE.INTRA.POLAR.0>
0

>  <SCORE.INTRA.REPUL>
0

>  <SCORE.INTRA.REPUL.0>
0

>  <SCORE.INTRA.SOLV>
1.56891

>  <SCORE.INTRA.SOLV.lig_0>
-54.1265

>  <SCORE.INTRA.VDW>
0.739345

>  <SCORE.INTRA.VDW.0>
-2.1303

>  <SCORE.INTRA.norm>
0.130808

>  <SCORE.RESTR>
0

>  <SCORE.RESTR.CAVITY>
0

>  <SCORE.RESTR.norm>
0

>  <SCORE.SYSTEM>
0

>  <SCORE.SYSTEM.CONST>
0

>  <SCORE.SYSTEM.DIHEDRAL>
0

>  <SCORE.SYSTEM.SOLV>
0

>  <SCORE.SYSTEM.norm>
0

>  <SCORE.heavy>
22

>  <SCORE.norm>
-0.883189

>  <RMSD>
6.563

$$$$
ligand
 OpenBabel11021811443D
libRbt.so/2013.1/901 2013/11/27
 22 23  0  0  0  0  0  0  0  0999 V2000
   22.4449   39.1282   64.9939 C   0  0  0  0  0  0  0  0  0  0  0  0
   27.4805   38.2051   68.4265 C   0  0  0  0  0  0  0  0  0  0  0  0
   26.9152   34.3136   72.6990 P   0  0  1  0  0  0  0  0  0  0  0  0
   24.3129   37.6337   65.0162 N   0  0  0  0  0  0  0  0  0  0  0  0
   26.8654   34.8150   74.0962 O   0  0  0  0  0  0  0  0  0  0  0  0
   29.2507   34.7537   67.3491 S   0  0  0  0  0  0  0  0  0  0  0  0
   28.9861   35.8296   66.0861 C   0  0  0  0  0  0  0  0  0  0  0  0
   23.8939   38.9457   65.0658 C   0  0  0  0  0  0  0  0  0  0  0  0
   28.2476   33.8053   72.2825 O   0  5  0  0  0  0  0  0  0  0  0  0
   28.3940   36.9943   66.4270 N   0  0  0  0  0  0  0  0  0  0  0  0
   24.7067   39.9642   65.1546 N   0  0  0  0  0  0  0  0  0  0  0  0
   25.8042   33.3397   72.4521 O   0  0  0  0  0  0  0  0  0  0  0  0
   28.1401   37.0121   67.7997 C   0  0  2  0  0  0  0  0  0  0  0  0
   26.0802   39.7547   65.2224 C   0  0  0  0  0  0  0  0  0  0  0  0
   26.8930   40.8047   65.2936 N   0  0  0  0  0  0  0  0  0  0  0  0
   28.5311   35.8780   68.4713 C   0  0  1  0  0  0  0  0  0  0  0  0
   26.5911   38.3938   65.2168 C   0  0  0  0  0  0  0  0  0  0  0  0
   28.3867   35.5788   69.9201 C   0  0  0  0  0  0  0  0  0  0  0  0
   25.6474   37.3955   65.0813 C   0  0  0  0  0  0  0  0  0  0  0  0
   26.9616   35.5677   70.3292 C   0  0  0  0  0  0  0  0  0  0  0  0
   28.0676   38.1044   65.4086 C   0  0  0  0  0  0  0  0  0  0  0  0
   26.6911   35.5358   71.7311 O   0  0  0  0  0  0  0  0  0  0  0  0
  1  8  1  0  0  0  0
  3  5  1  1  0  0  0
  3  9  1  0  0  0  0
  3 12  2  0  0  0  0
  3 22  1  0  0  0  0
  4  8  2  0  0  0  0
  4 19  1  0  0  0  0
  6 16  1  0  0  0  0
  6  7  1  0  0  0  0
  7 10  1  0  0  0  0
  8 11  1  0  0  0  0
 10 13  1  0  0  0  0
 10 21  1  0  0  0  0
 11 14  2  0  0  0  0
 13  2  1  6  0  0  0
 13 16  1  0  0  0  0
 14 15  1  0  0  0  0
 14 17  1  0  0  0  0
 16 18  1  6  0  0  0
 17 19  2  0  0  0  0
 17 21  1  0  0  0  0
 18 20  1  0  0  0  0
 20 22  1  0  0  0  0
M  CHG  1   9  -1
M  END
>  <CHROM.1>
115.49373858,-118.41780295,132.72581463,-168.90591129,-71.27446022,164.63559044
26.91329522,36.57692417,68.31749912,1.78689762,0.39811400,-1.08771944

>  <Name>
ligand

>  <RI>
0

>  <Rbt.Current_Directory>
/home/itssahil/PROJECTS/Mol_Feturizer/New_Systems/rnas/2HOM

>  <Rbt.Executable>
rbdock ($Id: //depot/dev/client3/rdock/2013.1/src/exe/rbdock.cxx#4 $)

>  <Rbt.Library>
libRbt.so (2013.1, Build901 2013/11/27)

>  <Rbt.Parameter_File>
/export/apps/rDock/src/rDock_2013.1_src/data/scripts/dock_solv.prm

>  <Rbt.Receptor>
prm/pocket_docking_8.prm

>  <SCORE>
-10.9812

>  <SCORE.INTER>
-13.2183

>  <SCORE.INTER.CONST>
1

>  <SCORE.INTER.POLAR>
0

>  <SCORE.INTER.ROT>
6

>  <SCORE.INTER.SOLV>
8.41699

>  <SCORE.INTER.VDW>
-19.2178

>  <SCORE.INTER.norm>
-0.60083

>  <SCORE.INTRA>
2.23707

>  <SCORE.INTRA.DIHEDRAL>
1.04515

>  <SCORE.INTRA.DIHEDRAL.0>
5.05013

>  <SCORE.INTRA.POLAR>
0

>  <SCORE.INTRA.POLAR.0>
0

>  <SCORE.INTRA.REPUL>
0

>  <SCORE.INTRA.REPUL.0>
0

>  <SCORE.INTRA.SOLV>
2.30244

>  <SCORE.INTRA.SOLV.lig_0>
-54.1265

>  <SCORE.INTRA.VDW>
0.563278

>  <SCORE.INTRA.VDW.0>
-2.1303

>  <SCORE.INTRA.norm>
0.101685

>  <SCORE.RESTR>
0

>  <SCORE.RESTR.CAVITY>
0

>  <SCORE.RESTR.norm>
0

>  <SCORE.SYSTEM>
0

>  <SCORE.SYSTEM.CONST>
0

>  <SCORE.SYSTEM.DIHEDRAL>
0

>  <SCORE.SYSTEM.SOLV>
0

>  <SCORE.SYSTEM.norm>
0

>  <SCORE.heavy>
22

>  <SCORE.norm>
-0.499145

>  <RMSD>
6.679

$$$$
ligand
 OpenBabel11021811443D
libRbt.so/2013.1/901 2013/11/27
 22 23  0  0  0  0  0  0  0  0999 V2000
   26.0327   44.7826   59.4090 C   0  0  0  0  0  0  0  0  0  0  0  0
   25.0420   43.4266   67.0722 C   0  0  0  0  0  0  0  0  0  0  0  0
   23.4181   38.4189   65.6922 P   0  0  1  0  0  0  0  0  0  0  0  0
   25.1518   46.1192   61.1869 N   0  0  0  0  0  0  0  0  0  0  0  0
   23.0512   37.3527   66.6590 O   0  0  0  0  0  0  0  0  0  0  0  0
   21.2184   43.1797   65.8371 S   0  0  0  0  0  0  0  0  0  0  0  0
   22.1322   44.3543   65.0575 C   0  0  0  0  0  0  0  0  0  0  0  0
   25.5990   44.8736   60.8024 C   0  0  0  0  0  0  0  0  0  0  0  0
   24.8141   38.3317   65.1916 O   0  5  0  0  0  0  0  0  0  0  0  0
   23.4182   44.4525   65.4568 N   0  0  0  0  0  0  0  0  0  0  0  0
   25.6290   43.8365   61.5958 N   0  0  0  0  0  0  0  0  0  0  0  0
   22.3990   38.5069   64.5979 O   0  0  0  0  0  0  0  0  0  0  0  0
   23.6758   43.5147   66.4584 C   0  0  2  0  0  0  0  0  0  0  0  0
   25.2100   43.9584   62.9166 C   0  0  0  0  0  0  0  0  0  0  0  0
   25.2302   42.8871   63.7041 N   0  0  0  0  0  0  0  0  0  0  0  0
   22.5989   42.7332   66.8047 C   0  0  1  0  0  0  0  0  0  0  0  0
   24.7643   45.2539   63.4026 C   0  0  0  0  0  0  0  0  0  0  0  0
   22.5393   41.6656   67.8372 C   0  0  0  0  0  0  0  0  0  0  0  0
   24.7371   46.2714   62.4701 C   0  0  0  0  0  0  0  0  0  0  0  0
   22.3295   40.3325   67.2231 C   0  0  0  0  0  0  0  0  0  0  0  0
   24.4110   45.4705   64.8616 C   0  0  0  0  0  0  0  0  0  0  0  0
   23.4075   39.7971   66.4547 O   0  0  0  0  0  0  0  0  0  0  0  0
  1  8  1  0  0  0  0
  3  5  1  1  0  0  0
  3  9  1  0  0  0  0
  3 12  2  0  0  0  0
  3 22  1  0  0  0  0
  4  8  2  0  0  0  0
  4 19  1  0  0  0  0
  6 16  1  0  0  0  0
  6  7  1  0  0  0  0
  7 10  1  0  0  0  0
  8 11  1  0  0  0  0
 10 13  1  0  0  0  0
 10 21  1  0  0  0  0
 11 14  2  0  0  0  0
 13  2  1  1  0  0  0
 13 16  1  0  0  0  0
 14 15  1  0  0  0  0
 14 17  1  0  0  0  0
 16 18  1  1  0  0  0
 17 19  2  0  0  0  0
 17 21  1  0  0  0  0
 18 20  1  0  0  0  0
 20 22  1  0  0  0  0
M  CHG  1   9  -1
M  END
>  <CHROM.1>
-66.08041930,66.97641698,-51.17150793,68.84748130,-179.04850637,-53.73351499
23.76500821,42.35515445,64.74324374,-1.00328234,-1.03145035,3.01811109

>  <Name>
ligand

>  <RI>
0

>  <Rbt.Current_Directory>
/home/itssahil/PROJECTS/Mol_Feturizer/New_Systems/rnas/2HOM

>  <Rbt.Executable>
rbdock ($Id: //depot/dev/client3/rdock/2013.1/src/exe/rbdock.cxx#4 $)

>  <Rbt.Library>
libRbt.so (2013.1, Build901 2013/11/27)

>  <Rbt.Parameter_File>
/export/apps/rDock/src/rDock_2013.1_src/data/scripts/dock_solv.prm

>  <Rbt.Receptor>
prm/pocket_docking_8.prm

>  <SCORE>
-12.3928

>  <SCORE.INTER>
-13.3897

>  <SCORE.INTER.CONST>
1

>  <SCORE.INTER.POLAR>
0

>  <SCORE.INTER.ROT>
6

>  <SCORE.INTER.SOLV>
12.6408

>  <SCORE.INTER.VDW>
-20.7401

>  <SCORE.INTER.norm>
-0.608624

>  <SCORE.INTRA>
0.996892

>  <SCORE.INTRA.DIHEDRAL>
0.390851

>  <SCORE.INTRA.DIHEDRAL.0>
5.05013

>  <SCORE.INTRA.POLAR>
0

>  <SCORE.INTRA.POLAR.0>
0

>  <SCORE.INTRA.REPUL>
0

>  <SCORE.INTRA.REPUL.0>
0

>  <SCORE.INTRA.SOLV>
3.04889

>  <SCORE.INTRA.SOLV.lig_0>
-54.1265

>  <SCORE.INTRA.VDW>
-0.722978

>  <SCORE.INTRA.VDW.0>
-2.1303

>  <SCORE.INTRA.norm>
0.0453133

>  <SCORE.RESTR>
0

>  <SCORE.RESTR.CAVITY>
0

>  <SCORE.RESTR.norm>
0

>  <SCORE.SYSTEM>
0

>  <SCORE.SYSTEM.CONST>
0

>  <SCORE.SYSTEM.DIHEDRAL>
0

>  <SCORE.SYSTEM.SOLV>
0

>  <SCORE.SYSTEM.norm>
0

>  <SCORE.heavy>
22

>  <SCORE.norm>
-0.563311

>  <RMSD>
6.744

$$$$
ligand
 OpenBabel11021811443D
libRbt.so/2013.1/901 2013/11/27
 22 23  0  0  0  0  0  0  0  0999 V2000
   29.0235   38.0673   64.4713 C   0  0  0  0  0  0  0  0  0  0  0  0
   22.1782   38.6700   65.2887 C   0  0  0  0  0  0  0  0  0  0  0  0
   24.1761   43.2620   65.4256 P   0  0  1  0  0  0  0  0  0  0  0  0
   26.6553   37.7422   64.5673 N   0  0  0  0  0  0  0  0  0  0  0  0
   24.2990   43.0823   66.8949 O   0  0  0  0  0  0  0  0  0  0  0  0
   22.5563   41.1635   68.4265 S   0  0  0  0  0  0  0  0  0  0  0  0
   23.4752   39.7609   68.5313 C   0  0  0  0  0  0  0  0  0  0  0  0
   27.8195   37.9090   65.2857 C   0  0  0  0  0  0  0  0  0  0  0  0
   23.9981   44.6738   64.9985 O   0  5  0  0  0  0  0  0  0  0  0  0
   23.3632   38.9114   67.4878 N   0  0  0  0  0  0  0  0  0  0  0  0
   27.8724   37.9139   66.5907 N   0  0  0  0  0  0  0  0  0  0  0  0
   25.2958   42.5637   64.7170 O   0  0  0  0  0  0  0  0  0  0  0  0
   22.4754   39.4338   66.5455 C   0  0  2  0  0  0  0  0  0  0  0  0
   26.7072   37.7619   67.3351 C   0  0  0  0  0  0  0  0  0  0  0  0
   26.7833   37.7507   68.6626 N   0  0  0  0  0  0  0  0  0  0  0  0
   21.9297   40.6500   66.8821 C   0  0  1  0  0  0  0  0  0  0  0  0
   25.4366   37.6225   66.6429 C   0  0  0  0  0  0  0  0  0  0  0  0
   20.9471   41.4554   66.1108 C   0  0  0  0  0  0  0  0  0  0  0  0
   25.5005   37.5925   65.2643 C   0  0  0  0  0  0  0  0  0  0  0  0
   21.5588   42.7037   65.5953 C   0  0  0  0  0  0  0  0  0  0  0  0
   24.1250   37.5741   67.4031 C   0  0  0  0  0  0  0  0  0  0  0  0
   22.8321   42.5858   64.9595 O   0  0  0  0  0  0  0  0  0  0  0  0
  1  8  1  0  0  0  0
  3  5  1  1  0  0  0
  3  9  1  0  0  0  0
  3 12  2  0  0  0  0
  3 22  1  0  0  0  0
  4  8  2  0  0  0  0
  4 19  1  0  0  0  0
  6 16  1  0  0  0  0
  6  7  1  0  0  0  0
  7 10  1  0  0  0  0
  8 11  1  0  0  0  0
 10 13  1  0  0  0  0
 10 21  1  0  0  0  0
 11 14  2  0  0  0  0
 13  2  1  1  0  0  0
 13 16  1  0  0  0  0
 14 15  1  0  0  0  0
 14 17  1  0  0  0  0
 16 18  1  1  0  0  0
 17 19  2  0  0  0  0
 17 21  1  0  0  0  0
 18 20  1  0  0  0  0
 20 22  1  0  0  0  0
M  CHG  1   9  -1
M  END
>  <CHROM.1>
-94.68053517,68.80936581,97.47178554,46.83661332,-118.44851275,44.92952187
24.36687871,40.29813115,66.30426068,-0.77860068,0.44971328,-0.43996503

>  <Name>
ligand

>  <RI>
0

>  <Rbt.Current_Directory>
/home/itssahil/PROJECTS/Mol_Feturizer/New_Systems/rnas/2HOM

>  <Rbt.Executable>
rbdock ($Id: //depot/dev/client3/rdock/2013.1/src/exe/rbdock.cxx#4 $)

>  <Rbt.Library>
libRbt.so (2013.1, Build901 2013/11/27)

>  <Rbt.Parameter_File>
/export/apps/rDock/src/rDock_2013.1_src/data/scripts/dock_solv.prm

>  <Rbt.Receptor>
prm/pocket_docking_4.prm

>  <SCORE>
-9.00788

>  <SCORE.INTER>
-12.0416

>  <SCORE.INTER.CONST>
1

>  <SCORE.INTER.POLAR>
0

>  <SCORE.INTER.ROT>
6

>  <SCORE.INTER.SOLV>
8.65333

>  <SCORE.INTER.VDW>
-18.5122

>  <SCORE.INTER.norm>
-0.547345

>  <SCORE.INTRA>
2.95721

>  <SCORE.INTRA.DIHEDRAL>
8.19253

>  <SCORE.INTRA.DIHEDRAL.0>
5.05013

>  <SCORE.INTRA.POLAR>
0

>  <SCORE.INTRA.POLAR.0>
0

>  <SCORE.INTRA.REPUL>
0

>  <SCORE.INTRA.REPUL.0>
0

>  <SCORE.INTRA.SOLV>
0.324144

>  <SCORE.INTRA.SOLV.lig_0>
-54.1265

>  <SCORE.INTRA.VDW>
-1.30112

>  <SCORE.INTRA.VDW.0>
-2.1303

>  <SCORE.INTRA.norm>
0.134419

>  <SCORE.RESTR>
0.0764958

>  <SCORE.RESTR.CAVITY>
0.0764958

>  <SCORE.RESTR.norm>
0.00347708

>  <SCORE.SYSTEM>
0

>  <SCORE.SYSTEM.CONST>
0

>  <SCORE.SYSTEM.DIHEDRAL>
0

>  <SCORE.SYSTEM.SOLV>
0

>  <SCORE.SYSTEM.norm>
0

>  <SCORE.heavy>
22

>  <SCORE.norm>
-0.409449

>  <RMSD>
6.826

$$$$
ligand
 OpenBabel11021811443D
libRbt.so/2013.1/901 2013/11/27
 22 23  0  0  0  0  0  0  0  0999 V2000
   27.7319   46.3181   64.0506 C   0  0  0  0  0  0  0  0  0  0  0  0
   20.6726   43.9269   65.1314 C   0  0  0  0  0  0  0  0  0  0  0  0
   22.6660   37.7516   64.9949 P   0  0  1  0  0  0  0  0  0  0  0  0
   25.3751   46.4960   64.4209 N   0  0  0  0  0  0  0  0  0  0  0  0
   24.1098   37.9840   64.7345 O   0  0  0  0  0  0  0  0  0  0  0  0
   22.2925   40.9587   67.3158 S   0  0  0  0  0  0  0  0  0  0  0  0
   22.9908   42.4676   67.5569 C   0  0  0  0  0  0  0  0  0  0  0  0
   26.5521   45.8867   64.7988 C   0  0  0  0  0  0  0  0  0  0  0  0
   21.9735   36.9777   63.9326 O   0  5  0  0  0  0  0  0  0  0  0  0
   22.4608   43.4773   66.8340 N   0  0  0  0  0  0  0  0  0  0  0  0
   26.6320   44.9817   65.7372 N   0  0  0  0  0  0  0  0  0  0  0  0
   22.4656   37.1870   66.3678 O   0  0  0  0  0  0  0  0  0  0  0  0
   21.4232   42.9935   66.0351 C   0  0  2  0  0  0  0  0  0  0  0  0
   25.4895   44.5952   66.4304 C   0  0  0  0  0  0  0  0  0  0  0  0
   25.5873   43.6590   67.3696 N   0  0  0  0  0  0  0  0  0  0  0  0
   21.1860   41.6446   66.1554 C   0  0  1  0  0  0  0  0  0  0  0  0
   24.2194   45.2267   66.1125 C   0  0  0  0  0  0  0  0  0  0  0  0
   20.1740   40.8272   65.4365 C   0  0  0  0  0  0  0  0  0  0  0  0
   24.2424   46.1415   65.0789 C   0  0  0  0  0  0  0  0  0  0  0  0
   20.5865   39.4053   65.3572 C   0  0  0  0  0  0  0  0  0  0  0  0
   22.9678   44.9307   66.9164 C   0  0  0  0  0  0  0  0  0  0  0  0
   21.9292   39.1429   64.9480 O   0  0  0  0  0  0  0  0  0  0  0  0
  1  8  1  0  0  0  0
  3  5  1  6  0  0  0
  3  9  1  0  0  0  0
  3 12  2  0  0  0  0
  3 22  1  0  0  0  0
  4  8  2  0  0  0  0
  4 19  1  0  0  0  0
  6 16  1  0  0  0  0
  6  7  1  0  0  0  0
  7 10  1  0  0  0  0
  8 11  1  0  0  0  0
 10 13  1  0  0  0  0
 10 21  1  0  0  0  0
 11 14  2  0  0  0  0
 13  2  1  6  0  0  0
 13 16  1  0  0  0  0
 14 15  1  0  0  0  0
 14 17  1  0  0  0  0
 16 18  1  6  0  0  0
 17 19  2  0  0  0  0
 17 21  1  0  0  0  0
 18 20  1  0  0  0  0
 20 22  1  0  0  0  0
M  CHG  1   9  -1
M  END
>  <CHROM.1>
80.27004690,-24.67644679,-64.47626884,-47.07903145,170.09997370,-168.97867002
23.23271381,41.93561221,65.72716644,-1.10942681,-0.30126341,-2.97347137

>  <Name>
ligand

>  <RI>
0

>  <Rbt.Current_Directory>
/home/itssahil/PROJECTS/Mol_Feturizer/New_Systems/rnas/2HOM

>  <Rbt.Executable>
rbdock ($Id: //depot/dev/client3/rdock/2013.1/src/exe/rbdock.cxx#4 $)

>  <Rbt.Library>
libRbt.so (2013.1, Build901 2013/11/27)

>  <Rbt.Parameter_File>
/export/apps/rDock/src/rDock_2013.1_src/data/scripts/dock_solv.prm

>  <Rbt.Receptor>
prm/pocket_docking_8.prm

>  <SCORE>
-13.144

>  <SCORE.INTER>
-15.2148

>  <SCORE.INTER.CONST>
1

>  <SCORE.INTER.POLAR>
0

>  <SCORE.INTER.ROT>
6

>  <SCORE.INTER.SOLV>
23.2068

>  <SCORE.INTER.VDW>
-25.4788

>  <SCORE.INTER.norm>
-0.691581

>  <SCORE.INTRA>
2.07075

>  <SCORE.INTRA.DIHEDRAL>
1.03015

>  <SCORE.INTRA.DIHEDRAL.0>
5.05013

>  <SCORE.INTRA.POLAR>
0

>  <SCORE.INTRA.POLAR.0>
0

>  <SCORE.INTRA.REPUL>
0

>  <SCORE.INTRA.REPUL.0>
0

>  <SCORE.INTRA.SOLV>
2.31066

>  <SCORE.INTRA.SOLV.lig_0>
-54.1265

>  <SCORE.INTRA.VDW>
0.400349

>  <SCORE.INTRA.VDW.0>
-2.1303

>  <SCORE.INTRA.norm>
0.0941251

>  <SCORE.RESTR>
0

>  <SCORE.RESTR.CAVITY>
0

>  <SCORE.RESTR.norm>
0

>  <SCORE.SYSTEM>
0

>  <SCORE.SYSTEM.CONST>
0

>  <SCORE.SYSTEM.DIHEDRAL>
0

>  <SCORE.SYSTEM.SOLV>
0

>  <SCORE.SYSTEM.norm>
0

>  <SCORE.heavy>
22

>  <SCORE.norm>
-0.597456

>  <RMSD>
7.023

$$$$
ligand
 OpenBabel11021811443D
libRbt.so/2013.1/901 2013/11/27
 22 23  0  0  0  0  0  0  0  0999 V2000
   27.9617   42.9951   70.4800 C   0  0  0  0  0  0  0  0  0  0  0  0
   30.5935   39.1044   66.2520 C   0  0  0  0  0  0  0  0  0  0  0  0
   28.5188   35.2585   69.3718 P   0  0  1  0  0  0  0  0  0  0  0  0
   28.0246   41.1624   68.9436 N   0  0  0  0  0  0  0  0  0  0  0  0
   29.2985   34.0477   69.7358 O   0  0  0  0  0  0  0  0  0  0  0  0
   27.6614   36.9563   64.5214 S   0  0  0  0  0  0  0  0  0  0  0  0
   27.4163   38.6183   64.5038 C   0  0  0  0  0  0  0  0  0  0  0  0
   28.0213   42.5323   69.0943 C   0  0  0  0  0  0  0  0  0  0  0  0
   27.1291   34.9763   68.9286 O   0  5  0  0  0  0  0  0  0  0  0  0
   28.3894   39.3571   65.0787 N   0  0  0  0  0  0  0  0  0  0  0  0
   28.0530   43.3724   68.0947 N   0  0  0  0  0  0  0  0  0  0  0  0
   28.5980   36.2804   70.4640 O   0  0  0  0  0  0  0  0  0  0  0  0
   29.3958   38.5195   65.5632 C   0  0  2  0  0  0  0  0  0  0  0  0
   28.1108   42.8978   66.7884 C   0  0  0  0  0  0  0  0  0  0  0  0
   28.1235   43.7680   65.7830 N   0  0  0  0  0  0  0  0  0  0  0  0
   29.1753   37.1780   65.3583 C   0  0  1  0  0  0  0  0  0  0  0  0
   28.1589   41.4636   66.5563 C   0  0  0  0  0  0  0  0  0  0  0  0
   30.0372   36.0378   65.7660 C   0  0  0  0  0  0  0  0  0  0  0  0
   28.0816   40.6674   67.6813 C   0  0  0  0  0  0  0  0  0  0  0  0
   29.4008   35.2373   66.8396 C   0  0  0  0  0  0  0  0  0  0  0  0
   28.3428   40.8956   65.1620 C   0  0  0  0  0  0  0  0  0  0  0  0
   29.1713   35.8939   68.0868 O   0  0  0  0  0  0  0  0  0  0  0  0
  1  8  1  0  0  0  0
  3  5  1  1  0  0  0
  3  9  1  0  0  0  0
  3 12  2  0  0  0  0
  3 22  1  0  0  0  0
  4  8  2  0  0  0  0
  4 19  1  0  0  0  0
  6 16  1  0  0  0  0
  6  7  1  0  0  0  0
  7 10  1  0  0  0  0
  8 11  1  0  0  0  0
 10 13  1  0  0  0  0
 10 21  1  0  0  0  0
 11 14  2  0  0  0  0
 13  2  1  1  0  0  0
 13 16  1  0  0  0  0
 14 15  1  0  0  0  0
 14 17  1  0  0  0  0
 16 18  1  1  0  0  0
 17 19  2  0  0  0  0
 17 21  1  0  0  0  0
 18 20  1  0  0  0  0
 20 22  1  0  0  0  0
M  CHG  1   9  -1
M  END
>  <CHROM.1>
111.32422979,-68.37718362,179.35017075,-63.45016168,-179.77258111,55.79772589
28.49642924,38.54491934,67.27789251,2.65649297,1.47984186,-1.20264103

>  <Name>
ligand

>  <RI>
0

>  <Rbt.Current_Directory>
/home/itssahil/PROJECTS/Mol_Feturizer/New_Systems/rnas/2HOM

>  <Rbt.Executable>
rbdock ($Id: //depot/dev/client3/rdock/2013.1/src/exe/rbdock.cxx#4 $)

>  <Rbt.Library>
libRbt.so (2013.1, Build901 2013/11/27)

>  <Rbt.Parameter_File>
/export/apps/rDock/src/rDock_2013.1_src/data/scripts/dock_solv.prm

>  <Rbt.Receptor>
prm/pocket_docking_7.prm

>  <SCORE>
-17.1766

>  <SCORE.INTER>
-16.9027

>  <SCORE.INTER.CONST>
1

>  <SCORE.INTER.POLAR>
-1.30767

>  <SCORE.INTER.ROT>
6

>  <SCORE.INTER.SOLV>
12.2899

>  <SCORE.INTER.VDW>
-18.6062

>  <SCORE.INTER.norm>
-0.768303

>  <SCORE.INTRA>
-0.273973

>  <SCORE.INTRA.DIHEDRAL>
0.144558

>  <SCORE.INTRA.DIHEDRAL.0>
5.05013

>  <SCORE.INTRA.POLAR>
0

>  <SCORE.INTRA.POLAR.0>
0

>  <SCORE.INTRA.REPUL>
0

>  <SCORE.INTRA.REPUL.0>
0

>  <SCORE.INTRA.SOLV>
-0.0994833

>  <SCORE.INTRA.SOLV.lig_0>
-54.1265

>  <SCORE.INTRA.VDW>
-0.29651

>  <SCORE.INTRA.VDW.0>
-2.1303

>  <SCORE.INTRA.norm>
-0.0124533

>  <SCORE.RESTR>
0

>  <SCORE.RESTR.CAVITY>
0

>  <SCORE.RESTR.norm>
0

>  <SCORE.SYSTEM>
0

>  <SCORE.SYSTEM.CONST>
0

>  <SCORE.SYSTEM.DIHEDRAL>
0

>  <SCORE.SYSTEM.SOLV>
0

>  <SCORE.SYSTEM.norm>
0

>  <SCORE.heavy>
22

>  <SCORE.norm>
-0.780757

>  <RMSD>
7.166

$$$$
ligand
 OpenBabel11021811443D
libRbt.so/2013.1/901 2013/11/27
 22 23  0  0  0  0  0  0  0  0999 V2000
   26.9581   41.5076   57.5707 C   0  0  0  0  0  0  0  0  0  0  0  0
   30.1395   38.5674   63.7295 C   0  0  0  0  0  0  0  0  0  0  0  0
   28.6917   34.7660   68.2214 P   0  0  1  0  0  0  0  0  0  0  0  0
   26.3486   41.3391   59.8779 N   0  0  0  0  0  0  0  0  0  0  0  0
   28.1224   33.5798   67.5321 O   0  0  0  0  0  0  0  0  0  0  0  0
   26.3847   37.9988   65.0655 S   0  0  0  0  0  0  0  0  0  0  0  0
   26.6395   39.4706   64.2963 C   0  0  0  0  0  0  0  0  0  0  0  0
   27.3764   41.3260   58.9599 C   0  0  0  0  0  0  0  0  0  0  0  0
   27.7296   35.8833   68.4035 O   0  5  0  0  0  0  0  0  0  0  0  0
   27.8928   39.6804   63.8398 N   0  0  0  0  0  0  0  0  0  0  0  0
   28.6313   41.1520   59.2779 N   0  0  0  0  0  0  0  0  0  0  0  0
   29.3741   34.3568   69.4905 O   0  0  0  0  0  0  0  0  0  0  0  0
   28.6946   38.5760   64.1338 C   0  0  2  0  0  0  0  0  0  0  0  0
   28.9947   40.9834   60.6099 C   0  0  0  0  0  0  0  0  0  0  0  0
   30.2749   40.7889   60.9125 N   0  0  0  0  0  0  0  0  0  0  0  0
   28.0524   37.5613   64.8033 C   0  0  1  0  0  0  0  0  0  0  0  0
   27.9666   41.0275   61.6366 C   0  0  0  0  0  0  0  0  0  0  0  0
   28.6235   36.2719   65.2728 C   0  0  0  0  0  0  0  0  0  0  0  0
   26.6704   41.1783   61.1865 C   0  0  0  0  0  0  0  0  0  0  0  0
   29.5982   36.4813   66.3703 C   0  0  0  0  0  0  0  0  0  0  0  0
   28.3202   40.9693   63.1105 C   0  0  0  0  0  0  0  0  0  0  0  0
   29.7869   35.3995   67.2833 O   0  0  0  0  0  0  0  0  0  0  0  0
  1  8  1  0  0  0  0
  3  5  1  6  0  0  0
  3  9  1  0  0  0  0
  3 12  2  0  0  0  0
  3 22  1  0  0  0  0
  4  8  2  0  0  0  0
  4 19  1  0  0  0  0
  6 16  1  0  0  0  0
  6  7  1  0  0  0  0
  7 10  1  0  0  0  0
  8 11  1  0  0  0  0
 10 13  1  0  0  0  0
 10 21  1  0  0  0  0
 11 14  2  0  0  0  0
 13  2  1  1  0  0  0
 13 16  1  0  0  0  0
 14 15  1  0  0  0  0
 14 17  1  0  0  0  0
 16 18  1  1  0  0  0
 17 19  2  0  0  0  0
 17 21  1  0  0  0  0
 18 20  1  0  0  0  0
 20 22  1  0  0  0  0
M  CHG  1   9  -1
M  END
>  <CHROM.1>
-81.21100476,-111.37961803,-111.48030000,153.79580343,-61.52963208,95.46014770
28.19687157,38.22349416,64.15375048,1.66233399,0.13286592,-0.92262062

>  <Name>
ligand

>  <RI>
0

>  <Rbt.Current_Directory>
/home/itssahil/PROJECTS/Mol_Feturizer/New_Systems/rnas/2HOM

>  <Rbt.Executable>
rbdock ($Id: //depot/dev/client3/rdock/2013.1/src/exe/rbdock.cxx#4 $)

>  <Rbt.Library>
libRbt.so (2013.1, Build901 2013/11/27)

>  <Rbt.Parameter_File>
/export/apps/rDock/src/rDock_2013.1_src/data/scripts/dock_solv.prm

>  <Rbt.Receptor>
prm/pocket_docking_8.prm

>  <SCORE>
-14.3366

>  <SCORE.INTER>
-17.4419

>  <SCORE.INTER.CONST>
1

>  <SCORE.INTER.POLAR>
-1.04762

>  <SCORE.INTER.ROT>
6

>  <SCORE.INTER.SOLV>
14.912

>  <SCORE.INTER.VDW>
-20.7065

>  <SCORE.INTER.norm>
-0.792815

>  <SCORE.INTRA>
3.09819

>  <SCORE.INTRA.DIHEDRAL>
3.31447

>  <SCORE.INTRA.DIHEDRAL.0>
5.05013

>  <SCORE.INTRA.POLAR>
0

>  <SCORE.INTRA.POLAR.0>
0

>  <SCORE.INTRA.REPUL>
0

>  <SCORE.INTRA.REPUL.0>
0

>  <SCORE.INTRA.SOLV>
2.40341

>  <SCORE.INTRA.SOLV.lig_0>
-54.1265

>  <SCORE.INTRA.VDW>
0.239252

>  <SCORE.INTRA.VDW.0>
-2.1303

>  <SCORE.INTRA.norm>
0.140827

>  <SCORE.RESTR>
0.00717901

>  <SCORE.RESTR.CAVITY>
0.00717901

>  <SCORE.RESTR.norm>
0.000326319

>  <SCORE.SYSTEM>
0

>  <SCORE.SYSTEM.CONST>
0

>  <SCORE.SYSTEM.DIHEDRAL>
0

>  <SCORE.SYSTEM.SOLV>
0

>  <SCORE.SYSTEM.norm>
0

>  <SCORE.heavy>
22

>  <SCORE.norm>
-0.651662

>  <RMSD>
7.347

$$$$
ligand
 OpenBabel11021811443D
libRbt.so/2013.1/901 2013/11/27
 22 23  0  0  0  0  0  0  0  0999 V2000
   28.5999   39.6856   71.9453 C   0  0  0  0  0  0  0  0  0  0  0  0
   29.9938   39.3184   66.1643 C   0  0  0  0  0  0  0  0  0  0  0  0
   30.7040   38.7844   61.7096 P   0  0  1  0  0  0  0  0  0  0  0  0
   27.6748   38.4881   70.0924 N   0  0  0  0  0  0  0  0  0  0  0  0
   30.3167   39.5812   62.9019 O   0  0  0  0  0  0  0  0  0  0  0  0
   28.2133   36.2869   64.2029 S   0  0  0  0  0  0  0  0  0  0  0  0
   27.1578   37.3162   65.0085 C   0  0  0  0  0  0  0  0  0  0  0  0
   28.1572   39.6945   70.5518 C   0  0  0  0  0  0  0  0  0  0  0  0
   29.8577   39.0296   60.5134 O   0  5  0  0  0  0  0  0  0  0  0  0
   27.7354   38.3406   65.6720 N   0  0  0  0  0  0  0  0  0  0  0  0
   28.2112   40.7786   69.8252 N   0  0  0  0  0  0  0  0  0  0  0  0
   32.1704   38.9258   61.4390 O   0  0  0  0  0  0  0  0  0  0  0  0
   29.1215   38.2844   65.5153 C   0  0  2  0  0  0  0  0  0  0  0  0
   27.7827   40.7515   68.5021 C   0  0  0  0  0  0  0  0  0  0  0  0
   27.8277   41.8695   67.7835 N   0  0  0  0  0  0  0  0  0  0  0  0
   29.5715   37.2329   64.7523 C   0  0  1  0  0  0  0  0  0  0  0  0
   27.2999   39.5017   67.9383 C   0  0  0  0  0  0  0  0  0  0  0  0
   30.9765   36.8848   64.4145 C   0  0  0  0  0  0  0  0  0  0  0  0
   27.2499   38.4283   68.8049 C   0  0  0  0  0  0  0  0  0  0  0  0
   31.1029   36.4666   62.9976 C   0  0  0  0  0  0  0  0  0  0  0  0
   26.9338   39.3872   66.4709 C   0  0  0  0  0  0  0  0  0  0  0  0
   30.4294   37.2658   62.0245 O   0  0  0  0  0  0  0  0  0  0  0  0
  1  8  1  0  0  0  0
  3  5  1  1  0  0  0
  3  9  1  0  0  0  0
  3 12  2  0  0  0  0
  3 22  1  0  0  0  0
  4  8  2  0  0  0  0
  4 19  1  0  0  0  0
  6 16  1  0  0  0  0
  6  7  1  0  0  0  0
  7 10  1  0  0  0  0
  8 11  1  0  0  0  0
 10 13  1  0  0  0  0
 10 21  1  0  0  0  0
 11 14  2  0  0  0  0
 13  2  1  1  0  0  0
 13 16  1  0  0  0  0
 14 15  1  0  0  0  0
 14 17  1  0  0  0  0
 16 18  1  1  0  0  0
 17 19  2  0  0  0  0
 17 21  1  0  0  0  0
 18 20  1  0  0  0  0
 20 22  1  0  0  0  0
M  CHG  1   9  -1
M  END
>  <CHROM.1>
122.10156713,42.05456026,120.32205830,45.02923308,62.15587100,-66.19930103
29.08658489,38.61593668,65.43980183,-2.27922380,-1.04644724,-2.43001333

>  <Name>
ligand

>  <RI>
0

>  <Rbt.Current_Directory>
/home/itssahil/PROJECTS/Mol_Feturizer/New_Systems/rnas/2HOM

>  <Rbt.Executable>
rbdock ($Id: //depot/dev/client3/rdock/2013.1/src/exe/rbdock.cxx#4 $)

>  <Rbt.Library>
libRbt.so (2013.1, Build901 2013/11/27)

>  <Rbt.Parameter_File>
/export/apps/rDock/src/rDock_2013.1_src/data/scripts/dock_solv.prm

>  <Rbt.Receptor>
prm/pocket_docking_8.prm

>  <SCORE>
-9.61561

>  <SCORE.INTER>
-10.0692

>  <SCORE.INTER.CONST>
1

>  <SCORE.INTER.POLAR>
0

>  <SCORE.INTER.ROT>
6

>  <SCORE.INTER.SOLV>
9.90934

>  <SCORE.INTER.VDW>
-17.6159

>  <SCORE.INTER.norm>
-0.457693

>  <SCORE.INTRA>
0.453641

>  <SCORE.INTRA.DIHEDRAL>
0.874619

>  <SCORE.INTRA.DIHEDRAL.0>
5.05013

>  <SCORE.INTRA.POLAR>
0

>  <SCORE.INTRA.POLAR.0>
0

>  <SCORE.INTRA.REPUL>
0

>  <SCORE.INTRA.REPUL.0>
0

>  <SCORE.INTRA.SOLV>
1.93774

>  <SCORE.INTRA.SOLV.lig_0>
-54.1265

>  <SCORE.INTRA.VDW>
-0.952537

>  <SCORE.INTRA.VDW.0>
-2.1303

>  <SCORE.INTRA.norm>
0.02062

>  <SCORE.RESTR>
0

>  <SCORE.RESTR.CAVITY>
0

>  <SCORE.RESTR.norm>
0

>  <SCORE.SYSTEM>
0

>  <SCORE.SYSTEM.CONST>
0

>  <SCORE.SYSTEM.DIHEDRAL>
0

>  <SCORE.SYSTEM.SOLV>
0

>  <SCORE.SYSTEM.norm>
0

>  <SCORE.heavy>
22

>  <SCORE.norm>
-0.437073

>  <RMSD>
7.362

$$$$
ligand
 OpenBabel11021811443D
libRbt.so/2013.1/901 2013/11/27
 22 23  0  0  0  0  0  0  0  0999 V2000
   30.0927   38.0802   62.9944 C   0  0  0  0  0  0  0  0  0  0  0  0
   25.1888   37.7840   67.7434 C   0  0  0  0  0  0  0  0  0  0  0  0
   28.8213   35.0419   70.2093 P   0  0  1  0  0  0  0  0  0  0  0  0
   28.1217   38.9834   64.0055 N   0  0  0  0  0  0  0  0  0  0  0  0
   29.5182   33.7310   70.1657 O   0  0  0  0  0  0  0  0  0  0  0  0
   27.4169   38.1223   71.0792 S   0  0  0  0  0  0  0  0  0  0  0  0
   27.7797   39.2394   69.8778 C   0  0  0  0  0  0  0  0  0  0  0  0
   29.4106   38.5379   64.2040 C   0  0  0  0  0  0  0  0  0  0  0  0
   28.8246   35.6881   71.5472 O   0  5  0  0  0  0  0  0  0  0  0  0
   27.0424   39.1434   68.7508 N   0  0  0  0  0  0  0  0  0  0  0  0
   29.9946   38.5028   65.3718 N   0  0  0  0  0  0  0  0  0  0  0  0
   29.3195   35.9367   69.1162 O   0  0  0  0  0  0  0  0  0  0  0  0
   26.1265   38.0968   68.8722 C   0  0  2  0  0  0  0  0  0  0  0  0
   29.3169   38.9473   66.5023 C   0  0  0  0  0  0  0  0  0  0  0  0
   29.9210   38.8865   67.6854 N   0  0  0  0  0  0  0  0  0  0  0  0
   26.1825   37.4196   70.0674 C   0  0  1  0  0  0  0  0  0  0  0  0
   27.9677   39.4696   66.3609 C   0  0  0  0  0  0  0  0  0  0  0  0
   25.3630   36.2566   70.4978 C   0  0  0  0  0  0  0  0  0  0  0  0
   27.4337   39.4251   65.0888 C   0  0  0  0  0  0  0  0  0  0  0  0
   26.2157   35.0933   70.8411 C   0  0  0  0  0  0  0  0  0  0  0  0
   27.2292   40.0768   67.5384 C   0  0  0  0  0  0  0  0  0  0  0  0
   27.2884   34.7913   69.9481 O   0  0  0  0  0  0  0  0  0  0  0  0
  1  8  1  0  0  0  0
  3  5  1  1  0  0  0
  3  9  1  0  0  0  0
  3 12  2  0  0  0  0
  3 22  1  0  0  0  0
  4  8  2  0  0  0  0
  4 19  1  0  0  0  0
  6 16  1  0  0  0  0
  6  7  1  0  0  0  0
  7 10  1  0  0  0  0
  8 11  1  0  0  0  0
 10 13  1  0  0  0  0
 10 21  1  0  0  0  0
 11 14  2  0  0  0  0
 13  2  1  6  0  0  0
 13 16  1  0  0  0  0
 14 15  1  0  0  0  0
 14 17  1  0  0  0  0
 16 18  1  6  0  0  0
 17 19  2  0  0  0  0
 17 21  1  0  0  0  0
 18 20  1  0  0  0  0
 20 22  1  0  0  0  0
M  CHG  1   9  -1
M  END
>  <CHROM.1>
103.51260126,-57.60095680,-58.46636515,-44.26878967,106.54392538,119.16829083
27.97657969,37.39711233,68.44166421,-1.32921639,-0.73113204,2.24275307

>  <Name>
ligand

>  <RI>
0

>  <Rbt.Current_Directory>
/home/itssahil/PROJECTS/Mol_Feturizer/New_Systems/rnas/2HOM

>  <Rbt.Executable>
rbdock ($Id: //depot/dev/client3/rdock/2013.1/src/exe/rbdock.cxx#4 $)

>  <Rbt.Library>
libRbt.so (2013.1, Build901 2013/11/27)

>  <Rbt.Parameter_File>
/export/apps/rDock/src/rDock_2013.1_src/data/scripts/dock_solv.prm

>  <Rbt.Receptor>
prm/pocket_docking_7.prm

>  <SCORE>
-14.4701

>  <SCORE.INTER>
-21.0626

>  <SCORE.INTER.CONST>
1

>  <SCORE.INTER.POLAR>
-2.93951

>  <SCORE.INTER.ROT>
6

>  <SCORE.INTER.SOLV>
12.586

>  <SCORE.INTER.VDW>
-16.0387

>  <SCORE.INTER.norm>
-0.95739

>  <SCORE.INTRA>
6.5925

>  <SCORE.INTRA.DIHEDRAL>
9.71432

>  <SCORE.INTRA.DIHEDRAL.0>
5.05013

>  <SCORE.INTRA.POLAR>
0

>  <SCORE.INTRA.POLAR.0>
0

>  <SCORE.INTRA.REPUL>
0

>  <SCORE.INTRA.REPUL.0>
0

>  <SCORE.INTRA.SOLV>
5.93879

>  <SCORE.INTRA.SOLV.lig_0>
-54.1265

>  <SCORE.INTRA.VDW>
-1.23406

>  <SCORE.INTRA.VDW.0>
-2.1303

>  <SCORE.INTRA.norm>
0.299659

>  <SCORE.RESTR>
0

>  <SCORE.RESTR.CAVITY>
0

>  <SCORE.RESTR.norm>
0

>  <SCORE.SYSTEM>
0

>  <SCORE.SYSTEM.CONST>
0

>  <SCORE.SYSTEM.DIHEDRAL>
0

>  <SCORE.SYSTEM.SOLV>
0

>  <SCORE.SYSTEM.norm>
0

>  <SCORE.heavy>
22

>  <SCORE.norm>
-0.657731

>  <RMSD>
7.391

$$$$
ligand
 OpenBabel11021811443D
libRbt.so/2013.1/901 2013/11/27
 22 23  0  0  0  0  0  0  0  0999 V2000
   25.8614   34.9758   70.3146 C   0  0  0  0  0  0  0  0  0  0  0  0
   24.5265   40.7908   65.7269 C   0  0  0  0  0  0  0  0  0  0  0  0
   25.6447   45.6729   63.7596 P   0  0  1  0  0  0  0  0  0  0  0  0
   25.2325   36.9453   69.1109 N   0  0  0  0  0  0  0  0  0  0  0  0
   24.8218   45.4797   62.5382 O   0  0  0  0  0  0  0  0  0  0  0  0
   26.9242   42.8877   68.1888 S   0  0  0  0  0  0  0  0  0  0  0  0
   27.4632   41.3350   67.8404 C   0  0  0  0  0  0  0  0  0  0  0  0
   26.2353   36.0404   69.3847 C   0  0  0  0  0  0  0  0  0  0  0  0
   27.0891   45.3804   63.5721 O   0  5  0  0  0  0  0  0  0  0  0  0
   26.6733   40.6153   67.0151 N   0  0  0  0  0  0  0  0  0  0  0  0
   27.4372   36.1141   68.8787 N   0  0  0  0  0  0  0  0  0  0  0  0
   25.3845   47.0209   64.3587 O   0  0  0  0  0  0  0  0  0  0  0  0
   25.5615   41.3736   66.6436 C   0  0  2  0  0  0  0  0  0  0  0  0
   27.7589   37.1397   67.9959 C   0  0  0  0  0  0  0  0  0  0  0  0
   28.9930   37.2091   67.5055 N   0  0  0  0  0  0  0  0  0  0  0  0
   25.5193   42.6360   67.1866 C   0  0  1  0  0  0  0  0  0  0  0  0
   26.7374   38.1069   67.6297 C   0  0  0  0  0  0  0  0  0  0  0  0
   24.4712   43.6741   67.0049 C   0  0  0  0  0  0  0  0  0  0  0  0
   25.5143   37.9575   68.2520 C   0  0  0  0  0  0  0  0  0  0  0  0
   24.9787   44.8204   66.2132 C   0  0  0  0  0  0  0  0  0  0  0  0
   26.9986   39.1721   66.5821 C   0  0  0  0  0  0  0  0  0  0  0  0
   25.2066   44.5953   64.8216 O   0  0  0  0  0  0  0  0  0  0  0  0
  1  8  1  0  0  0  0
  3  5  1  6  0  0  0
  3  9  1  0  0  0  0
  3 12  2  0  0  0  0
  3 22  1  0  0  0  0
  4  8  2  0  0  0  0
  4 19  1  0  0  0  0
  6 16  1  0  0  0  0
  6  7  1  0  0  0  0
  7 10  1  0  0  0  0
  8 11  1  0  0  0  0
 10 13  1  0  0  0  0
 10 21  1  0  0  0  0
 11 14  2  0  0  0  0
 13  2  1  1  0  0  0
 13 16  1  0  0  0  0
 14 15  1  0  0  0  0
 14 17  1  0  0  0  0
 16 18  1  1  0  0  0
 17 19  2  0  0  0  0
 17 21  1  0  0  0  0
 18 20  1  0  0  0  0
 20 22  1  0  0  0  0
M  CHG  1   9  -1
M  END
>  <CHROM.1>
76.17384251,69.42475846,-128.26697028,71.14630428,175.48337705,-135.84056078
26.12643568,41.41213055,66.65425983,1.38687187,-0.86359590,2.52798185

>  <Name>
ligand

>  <RI>
0

>  <Rbt.Current_Directory>
/home/itssahil/PROJECTS/Mol_Feturizer/New_Systems/rnas/2HOM

>  <Rbt.Executable>
rbdock ($Id: //depot/dev/client3/rdock/2013.1/src/exe/rbdock.cxx#4 $)

>  <Rbt.Library>
libRbt.so (2013.1, Build901 2013/11/27)

>  <Rbt.Parameter_File>
/export/apps/rDock/src/rDock_2013.1_src/data/scripts/dock_solv.prm

>  <Rbt.Receptor>
prm/pocket_docking_7.prm

>  <SCORE>
-10.4449

>  <SCORE.INTER>
-11.8061

>  <SCORE.INTER.CONST>
1

>  <SCORE.INTER.POLAR>
-1.30585

>  <SCORE.INTER.ROT>
6

>  <SCORE.INTER.SOLV>
8.57288

>  <SCORE.INTER.VDW>
-13.9755

>  <SCORE.INTER.norm>
-0.53664

>  <SCORE.INTRA>
1.36118

>  <SCORE.INTRA.DIHEDRAL>
2.58296

>  <SCORE.INTRA.DIHEDRAL.0>
5.05013

>  <SCORE.INTRA.POLAR>
0

>  <SCORE.INTRA.POLAR.0>
0

>  <SCORE.INTRA.REPUL>
0

>  <SCORE.INTRA.REPUL.0>
0

>  <SCORE.INTRA.SOLV>
0.375833

>  <SCORE.INTRA.SOLV.lig_0>
-54.1265

>  <SCORE.INTRA.VDW>
-0.118219

>  <SCORE.INTRA.VDW.0>
-2.1303

>  <SCORE.INTRA.norm>
0.0618717

>  <SCORE.RESTR>
0

>  <SCORE.RESTR.CAVITY>
0

>  <SCORE.RESTR.norm>
0

>  <SCORE.SYSTEM>
0

>  <SCORE.SYSTEM.CONST>
0

>  <SCORE.SYSTEM.DIHEDRAL>
0

>  <SCORE.SYSTEM.SOLV>
0

>  <SCORE.SYSTEM.norm>
0

>  <SCORE.heavy>
22

>  <SCORE.norm>
-0.474769

>  <RMSD>
7.415

$$$$
ligand
 OpenBabel11021811443D
libRbt.so/2013.1/901 2013/11/27
 22 23  0  0  0  0  0  0  0  0999 V2000
   25.1242   34.3675   70.5331 C   0  0  0  0  0  0  0  0  0  0  0  0
   29.8534   39.9281   66.1587 C   0  0  0  0  0  0  0  0  0  0  0  0
   33.7193   36.5139   62.1928 P   0  0  1  0  0  0  0  0  0  0  0  0
   24.9648   36.5167   69.4944 N   0  0  0  0  0  0  0  0  0  0  0  0
   35.0720   37.0135   62.5489 O   0  0  0  0  0  0  0  0  0  0  0  0
   28.2300   36.9328   64.0141 S   0  0  0  0  0  0  0  0  0  0  0  0
   27.4500   37.2577   65.4662 C   0  0  0  0  0  0  0  0  0  0  0  0
   25.7832   35.4534   69.8089 C   0  0  0  0  0  0  0  0  0  0  0  0
   33.4796   36.3969   60.7312 O   0  5  0  0  0  0  0  0  0  0  0  0
   27.9786   38.2601   66.2003 N   0  0  0  0  0  0  0  0  0  0  0  0
   27.0534   35.4017   69.5089 N   0  0  0  0  0  0  0  0  0  0  0  0
   33.4093   35.2580   62.9480 O   0  0  0  0  0  0  0  0  0  0  0  0
   29.0861   38.7964   65.5408 C   0  0  2  0  0  0  0  0  0  0  0  0
   27.6485   36.4522   68.8180 C   0  0  0  0  0  0  0  0  0  0  0  0
   28.9470   36.3901   68.5378 N   0  0  0  0  0  0  0  0  0  0  0  0
   29.3824   38.2011   64.3375 C   0  0  1  0  0  0  0  0  0  0  0  0
   26.8354   37.5886   68.4175 C   0  0  0  0  0  0  0  0  0  0  0  0
   30.4974   38.5234   63.4089 C   0  0  0  0  0  0  0  0  0  0  0  0
   25.5151   37.5573   68.8191 C   0  0  0  0  0  0  0  0  0  0  0  0
   31.3739   37.3478   63.1898 C   0  0  0  0  0  0  0  0  0  0  0  0
   27.4046   38.7031   67.5605 C   0  0  0  0  0  0  0  0  0  0  0  0
   32.6647   37.5979   62.6325 O   0  0  0  0  0  0  0  0  0  0  0  0
  1  8  1  0  0  0  0
  3  5  1  1  0  0  0
  3  9  1  0  0  0  0
  3 12  2  0  0  0  0
  3 22  1  0  0  0  0
  4  8  2  0  0  0  0
  4 19  1  0  0  0  0
  6 16  1  0  0  0  0
  6  7  1  0  0  0  0
  7 10  1  0  0  0  0
  8 11  1  0  0  0  0
 10 13  1  0  0  0  0
 10 21  1  0  0  0  0
 11 14  2  0  0  0  0
 13  2  1  1  0  0  0
 13 16  1  0  0  0  0
 14 15  1  0  0  0  0
 14 17  1  0  0  0  0
 16 18  1  1  0  0  0
 17 19  2  0  0  0  0
 17 21  1  0  0  0  0
 18 20  1  0  0  0  0
 20 22  1  0  0  0  0
M  CHG  1   9  -1
M  END
>  <CHROM.1>
35.11553288,-58.62054253,57.74147917,-163.20576566,-174.29355221,-142.13561278
29.50524867,37.05095340,65.52810248,-2.69793098,0.65082262,-0.60367033

>  <Name>
ligand

>  <RI>
0

>  <Rbt.Current_Directory>
/home/itssahil/PROJECTS/Mol_Feturizer/New_Systems/rnas/2HOM

>  <Rbt.Executable>
rbdock ($Id: //depot/dev/client3/rdock/2013.1/src/exe/rbdock.cxx#4 $)

>  <Rbt.Library>
libRbt.so (2013.1, Build901 2013/11/27)

>  <Rbt.Parameter_File>
/export/apps/rDock/src/rDock_2013.1_src/data/scripts/dock_solv.prm

>  <Rbt.Receptor>
prm/pocket_docking_7.prm

>  <SCORE>
-12.3462

>  <SCORE.INTER>
-15.1359

>  <SCORE.INTER.CONST>
1

>  <SCORE.INTER.POLAR>
-1.30767

>  <SCORE.INTER.ROT>
6

>  <SCORE.INTER.SOLV>
11.6929

>  <SCORE.INTER.VDW>
-17.2293

>  <SCORE.INTER.norm>
-0.687996

>  <SCORE.INTRA>
2.77271

>  <SCORE.INTRA.DIHEDRAL>
2.92406

>  <SCORE.INTRA.DIHEDRAL.0>
5.05013

>  <SCORE.INTRA.POLAR>
0

>  <SCORE.INTRA.POLAR.0>
0

>  <SCORE.INTRA.REPUL>
0

>  <SCORE.INTRA.REPUL.0>
0

>  <SCORE.INTRA.SOLV>
2.2275

>  <SCORE.INTRA.SOLV.lig_0>
-54.1265

>  <SCORE.INTRA.VDW>
0.196933

>  <SCORE.INTRA.VDW.0>
-2.1303

>  <SCORE.INTRA.norm>
0.126032

>  <SCORE.RESTR>
0.0170029

>  <SCORE.RESTR.CAVITY>
0.0170029

>  <SCORE.RESTR.norm>
0.000772858

>  <SCORE.SYSTEM>
0

>  <SCORE.SYSTEM.CONST>
0

>  <SCORE.SYSTEM.DIHEDRAL>
0

>  <SCORE.SYSTEM.SOLV>
0

>  <SCORE.SYSTEM.norm>
0

>  <SCORE.heavy>
22

>  <SCORE.norm>
-0.56119

>  <RMSD>
7.513

$$$$
ligand
 OpenBabel11021811443D
libRbt.so/2013.1/901 2013/11/27
 22 23  0  0  0  0  0  0  0  0999 V2000
   30.6383   42.7645   65.3858 C   0  0  0  0  0  0  0  0  0  0  0  0
   26.5148   39.0012   68.1781 C   0  0  0  0  0  0  0  0  0  0  0  0
   24.1211   41.6834   65.8932 P   0  0  1  0  0  0  0  0  0  0  0  0
   29.2341   41.0741   64.4403 N   0  0  0  0  0  0  0  0  0  0  0  0
   23.9136   40.7626   64.7463 O   0  0  0  0  0  0  0  0  0  0  0  0
   23.8347   37.8722   65.3944 S   0  0  0  0  0  0  0  0  0  0  0  0
   25.4371   37.5758   64.9854 C   0  0  0  0  0  0  0  0  0  0  0  0
   29.9932   41.4597   65.5240 C   0  0  0  0  0  0  0  0  0  0  0  0
   25.3850   41.4509   66.6386 O   0  5  0  0  0  0  0  0  0  0  0  0
   26.3519   37.9465   65.9066 N   0  0  0  0  0  0  0  0  0  0  0  0
   30.1522   40.7295   66.5953 N   0  0  0  0  0  0  0  0  0  0  0  0
   23.9388   43.1063   65.4621 O   0  0  0  0  0  0  0  0  0  0  0  0
   25.7098   38.5058   67.0129 C   0  0  2  0  0  0  0  0  0  0  0  0
   29.5228   39.4930   66.6944 C   0  0  0  0  0  0  0  0  0  0  0  0
   29.7115   38.7555   67.7847 N   0  0  0  0  0  0  0  0  0  0  0  0
   24.3392   38.5569   66.9170 C   0  0  1  0  0  0  0  0  0  0  0  0
   28.6728   39.0405   65.6054 C   0  0  0  0  0  0  0  0  0  0  0  0
   23.3739   39.1039   67.9060 C   0  0  0  0  0  0  0  0  0  0  0  0
   28.6058   39.8730   64.5063 C   0  0  0  0  0  0  0  0  0  0  0  0
   22.4655   40.0954   67.2816 C   0  0  0  0  0  0  0  0  0  0  0  0
   27.8694   37.7584   65.7118 C   0  0  0  0  0  0  0  0  0  0  0  0
   23.0180   41.3760   66.9746 O   0  0  0  0  0  0  0  0  0  0  0  0
  1  8  1  0  0  0  0
  3  5  1  6  0  0  0
  3  9  1  0  0  0  0
  3 12  2  0  0  0  0
  3 22  1  0  0  0  0
  4  8  2  0  0  0  0
  4 19  1  0  0  0  0
  6 16  1  0  0  0  0
  6  7  1  0  0  0  0
  7 10  1  0  0  0  0
  8 11  1  0  0  0  0
 10 13  1  0  0  0  0
 10 21  1  0  0  0  0
 11 14  2  0  0  0  0
 13  2  1  6  0  0  0
 13 16  1  0  0  0  0
 14 15  1  0  0  0  0
 14 17  1  0  0  0  0
 16 18  1  6  0  0  0
 17 19  2  0  0  0  0
 17 21  1  0  0  0  0
 18 20  1  0  0  0  0
 20 22  1  0  0  0  0
M  CHG  1   9  -1
M  END
>  <CHROM.1>
114.12467679,-52.52016787,106.61431297,-73.97807235,67.16365503,34.70045875
26.14622745,39.96460656,66.11707204,0.07087679,0.05883202,-0.15262715

>  <Name>
ligand

>  <RI>
0

>  <Rbt.Current_Directory>
/home/itssahil/PROJECTS/Mol_Feturizer/New_Systems/rnas/2HOM

>  <Rbt.Executable>
rbdock ($Id: //depot/dev/client3/rdock/2013.1/src/exe/rbdock.cxx#4 $)

>  <Rbt.Library>
libRbt.so (2013.1, Build901 2013/11/27)

>  <Rbt.Parameter_File>
/export/apps/rDock/src/rDock_2013.1_src/data/scripts/dock_solv.prm

>  <Rbt.Receptor>
prm/pocket_docking_3.prm

>  <SCORE>
-9.91419

>  <SCORE.INTER>
-11.4716

>  <SCORE.INTER.CONST>
1

>  <SCORE.INTER.POLAR>
-1.30142

>  <SCORE.INTER.ROT>
6

>  <SCORE.INTER.SOLV>
6.97172

>  <SCORE.INTER.VDW>
-13.2336

>  <SCORE.INTER.norm>
-0.521438

>  <SCORE.INTRA>
1.5377

>  <SCORE.INTRA.DIHEDRAL>
1.9318

>  <SCORE.INTRA.DIHEDRAL.0>
5.05013

>  <SCORE.INTRA.POLAR>
0

>  <SCORE.INTRA.POLAR.0>
0

>  <SCORE.INTRA.REPUL>
0

>  <SCORE.INTRA.REPUL.0>
0

>  <SCORE.INTRA.SOLV>
4.82043

>  <SCORE.INTRA.SOLV.lig_0>
-54.1265

>  <SCORE.INTRA.VDW>
-1.83842

>  <SCORE.INTRA.VDW.0>
-2.1303

>  <SCORE.INTRA.norm>
0.0698954

>  <SCORE.RESTR>
0.0197369

>  <SCORE.RESTR.CAVITY>
0.0197369

>  <SCORE.RESTR.norm>
0.00089713

>  <SCORE.SYSTEM>
0

>  <SCORE.SYSTEM.CONST>
0

>  <SCORE.SYSTEM.DIHEDRAL>
0

>  <SCORE.SYSTEM.SOLV>
0

>  <SCORE.SYSTEM.norm>
0

>  <SCORE.heavy>
22

>  <SCORE.norm>
-0.450645

>  <RMSD>
7.666

$$$$
ligand
 OpenBabel11021811443D
libRbt.so/2013.1/901 2013/11/27
 22 23  0  0  0  0  0  0  0  0999 V2000
   26.8287   36.8051   71.5967 C   0  0  0  0  0  0  0  0  0  0  0  0
   23.5043   38.3331   66.1767 C   0  0  0  0  0  0  0  0  0  0  0  0
   23.1712   45.0337   65.9412 P   0  0  1  0  0  0  0  0  0  0  0  0
   25.6489   37.6044   69.6751 N   0  0  0  0  0  0  0  0  0  0  0  0
   21.8067   45.5280   66.2580 O   0  0  0  0  0  0  0  0  0  0  0  0
   25.2613   41.6653   64.7567 S   0  0  0  0  0  0  0  0  0  0  0  0
   26.3231   40.4181   65.1306 C   0  0  0  0  0  0  0  0  0  0  0  0
   26.8460   37.1367   70.1728 C   0  0  0  0  0  0  0  0  0  0  0  0
   23.8571   45.7913   64.8628 O   0  5  0  0  0  0  0  0  0  0  0  0
   25.7532   39.2908   65.6076 N   0  0  0  0  0  0  0  0  0  0  0  0
   27.9287   37.0051   69.4542 N   0  0  0  0  0  0  0  0  0  0  0  0
   23.9868   44.9099   67.1914 O   0  0  0  0  0  0  0  0  0  0  0  0
   24.3680   39.4518   65.6729 C   0  0  2  0  0  0  0  0  0  0  0  0
   27.9098   37.3286   68.1015 C   0  0  0  0  0  0  0  0  0  0  0  0
   29.0267   37.2059   67.3903 N   0  0  0  0  0  0  0  0  0  0  0  0
   23.9118   40.6803   65.2568 C   0  0  1  0  0  0  0  0  0  0  0  0
   26.6694   37.7894   67.4997 C   0  0  0  0  0  0  0  0  0  0  0  0
   22.5088   41.1694   65.2206 C   0  0  0  0  0  0  0  0  0  0  0  0
   25.5972   37.9278   68.3581 C   0  0  0  0  0  0  0  0  0  0  0  0
   22.3741   42.4736   65.9130 C   0  0  0  0  0  0  0  0  0  0  0  0
   26.5618   38.0410   66.0079 C   0  0  0  0  0  0  0  0  0  0  0  0
   23.0388   43.5912   65.3228 O   0  0  0  0  0  0  0  0  0  0  0  0
  1  8  1  0  0  0  0
  3  5  1  1  0  0  0
  3  9  1  0  0  0  0
  3 12  2  0  0  0  0
  3 22  1  0  0  0  0
  4  8  2  0  0  0  0
  4 19  1  0  0  0  0
  6 16  1  0  0  0  0
  6  7  1  0  0  0  0
  7 10  1  0  0  0  0
  8 11  1  0  0  0  0
 10 13  1  0  0  0  0
 10 21  1  0  0  0  0
 11 14  2  0  0  0  0
 13  2  1  1  0  0  0
 13 16  1  0  0  0  0
 14 15  1  0  0  0  0
 14 17  1  0  0  0  0
 16 18  1  1  0  0  0
 17 19  2  0  0  0  0
 17 21  1  0  0  0  0
 18 20  1  0  0  0  0
 20 22  1  0  0  0  0
M  CHG  1   9  -1
M  END
>  <CHROM.1>
107.08350746,-51.56611020,-139.81021803,66.08499743,-173.17786708,-54.86689802
24.96032556,40.71052366,66.70582651,0.37266326,-1.07103943,1.57454263

>  <Name>
ligand

>  <RI>
0

>  <Rbt.Current_Directory>
/home/itssahil/PROJECTS/Mol_Feturizer/New_Systems/rnas/2HOM

>  <Rbt.Executable>
rbdock ($Id: //depot/dev/client3/rdock/2013.1/src/exe/rbdock.cxx#4 $)

>  <Rbt.Library>
libRbt.so (2013.1, Build901 2013/11/27)

>  <Rbt.Parameter_File>
/export/apps/rDock/src/rDock_2013.1_src/data/scripts/dock_solv.prm

>  <Rbt.Receptor>
prm/pocket_docking_8.prm

>  <SCORE>
-13.0541

>  <SCORE.INTER>
-13.4605

>  <SCORE.INTER.CONST>
1

>  <SCORE.INTER.POLAR>
-1.2819

>  <SCORE.INTER.ROT>
6

>  <SCORE.INTER.SOLV>
12.9324

>  <SCORE.INTER.VDW>
-16.6115

>  <SCORE.INTER.norm>
-0.611842

>  <SCORE.INTRA>
0.406479

>  <SCORE.INTRA.DIHEDRAL>
0.395686

>  <SCORE.INTRA.DIHEDRAL.0>
5.05013

>  <SCORE.INTRA.POLAR>
0

>  <SCORE.INTRA.POLAR.0>
0

>  <SCORE.INTRA.REPUL>
0

>  <SCORE.INTRA.REPUL.0>
0

>  <SCORE.INTRA.SOLV>
-0.0788566

>  <SCORE.INTRA.SOLV.lig_0>
-54.1265

>  <SCORE.INTRA.VDW>
0.248064

>  <SCORE.INTRA.VDW.0>
-2.1303

>  <SCORE.INTRA.norm>
0.0184763

>  <SCORE.RESTR>
0

>  <SCORE.RESTR.CAVITY>
0

>  <SCORE.RESTR.norm>
0

>  <SCORE.SYSTEM>
0

>  <SCORE.SYSTEM.CONST>
0

>  <SCORE.SYSTEM.DIHEDRAL>
0

>  <SCORE.SYSTEM.SOLV>
0

>  <SCORE.SYSTEM.norm>
0

>  <SCORE.heavy>
22

>  <SCORE.norm>
-0.593366

>  <RMSD>
7.721

$$$$
ligand
 OpenBabel11021811443D
libRbt.so/2013.1/901 2013/11/27
 22 23  0  0  0  0  0  0  0  0999 V2000
   27.5440   37.2339   72.6228 C   0  0  0  0  0  0  0  0  0  0  0  0
   25.4682   40.1539   65.1257 C   0  0  0  0  0  0  0  0  0  0  0  0
   22.8272   43.3091   66.0295 P   0  0  1  0  0  0  0  0  0  0  0  0
   26.1186   37.4085   70.7095 N   0  0  0  0  0  0  0  0  0  0  0  0
   22.3013   43.0903   67.4013 O   0  0  0  0  0  0  0  0  0  0  0  0
   22.7889   37.4116   66.3538 S   0  0  0  0  0  0  0  0  0  0  0  0
   24.3399   37.1981   66.9634 C   0  0  0  0  0  0  0  0  0  0  0  0
   27.4064   37.4998   71.1916 C   0  0  0  0  0  0  0  0  0  0  0  0
   21.8841   44.0116   65.1216 O   0  5  0  0  0  0  0  0  0  0  0  0
   25.2536   38.1084   66.5641 N   0  0  0  0  0  0  0  0  0  0  0  0
   28.4374   37.8121   70.4530 N   0  0  0  0  0  0  0  0  0  0  0  0
   24.1833   43.9429   66.0834 O   0  0  0  0  0  0  0  0  0  0  0  0
   24.6550   39.0364   65.7099 C   0  0  2  0  0  0  0  0  0  0  0  0
   28.2710   38.0577   69.0940 C   0  0  0  0  0  0  0  0  0  0  0  0
   29.3293   38.3925   68.3618 N   0  0  0  0  0  0  0  0  0  0  0  0
   23.3185   38.8194   65.4712 C   0  0  1  0  0  0  0  0  0  0  0  0
   26.9456   37.9389   68.5088 C   0  0  0  0  0  0  0  0  0  0  0  0
   22.4058   39.6080   64.6027 C   0  0  0  0  0  0  0  0  0  0  0  0
   25.9228   37.6413   69.3868 C   0  0  0  0  0  0  0  0  0  0  0  0
   22.0039   40.8776   65.2546 C   0  0  0  0  0  0  0  0  0  0  0  0
   26.7275   38.0779   67.0143 C   0  0  0  0  0  0  0  0  0  0  0  0
   22.9936   41.9036   65.3382 O   0  0  0  0  0  0  0  0  0  0  0  0
  1  8  1  0  0  0  0
  3  5  1  1  0  0  0
  3  9  1  0  0  0  0
  3 12  2  0  0  0  0
  3 22  1  0  0  0  0
  4  8  2  0  0  0  0
  4 19  1  0  0  0  0
  6 16  1  0  0  0  0
  6  7  1  0  0  0  0
  7 10  1  0  0  0  0
  8 11  1  0  0  0  0
 10 13  1  0  0  0  0
 10 21  1  0  0  0  0
 11 14  2  0  0  0  0
 13  2  1  6  0  0  0
 13 16  1  0  0  0  0
 14 15  1  0  0  0  0
 14 17  1  0  0  0  0
 16 18  1  6  0  0  0
 17 19  2  0  0  0  0
 17 21  1  0  0  0  0
 18 20  1  0  0  0  0
 20 22  1  0  0  0  0
M  CHG  1   9  -1
M  END
>  <CHROM.1>
-49.67722174,104.06419418,-172.47794546,72.94749026,-177.45679206,50.93626389
24.74386672,39.66239245,67.24778388,-0.56792112,-0.79640380,0.10349284

>  <Name>
ligand

>  <RI>
0

>  <Rbt.Current_Directory>
/home/itssahil/PROJECTS/Mol_Feturizer/New_Systems/rnas/2HOM

>  <Rbt.Executable>
rbdock ($Id: //depot/dev/client3/rdock/2013.1/src/exe/rbdock.cxx#4 $)

>  <Rbt.Library>
libRbt.so (2013.1, Build901 2013/11/27)

>  <Rbt.Parameter_File>
/export/apps/rDock/src/rDock_2013.1_src/data/scripts/dock_solv.prm

>  <Rbt.Receptor>
prm/pocket_docking_7.prm

>  <SCORE>
-12.7917

>  <SCORE.INTER>
-13.4106

>  <SCORE.INTER.CONST>
1

>  <SCORE.INTER.POLAR>
-1.30767

>  <SCORE.INTER.ROT>
6

>  <SCORE.INTER.SOLV>
11.4006

>  <SCORE.INTER.VDW>
-15.9817

>  <SCORE.INTER.norm>
-0.609572

>  <SCORE.INTRA>
0.618883

>  <SCORE.INTRA.DIHEDRAL>
0.372407

>  <SCORE.INTRA.DIHEDRAL.0>
5.05013

>  <SCORE.INTRA.POLAR>
0

>  <SCORE.INTRA.POLAR.0>
0

>  <SCORE.INTRA.REPUL>
0

>  <SCORE.INTRA.REPUL.0>
0

>  <SCORE.INTRA.SOLV>
0.563465

>  <SCORE.INTRA.SOLV.lig_0>
-54.1265

>  <SCORE.INTRA.VDW>
0.150947

>  <SCORE.INTRA.VDW.0>
-2.1303

>  <SCORE.INTRA.norm>
0.028131

>  <SCORE.RESTR>
0

>  <SCORE.RESTR.CAVITY>
0

>  <SCORE.RESTR.norm>
0

>  <SCORE.SYSTEM>
0

>  <SCORE.SYSTEM.CONST>
0

>  <SCORE.SYSTEM.DIHEDRAL>
0

>  <SCORE.SYSTEM.SOLV>
0

>  <SCORE.SYSTEM.norm>
0

>  <SCORE.heavy>
22

>  <SCORE.norm>
-0.581441

>  <RMSD>
7.787

$$$$
ligand
 OpenBabel11021811443D
libRbt.so/2013.1/901 2013/11/27
 22 23  0  0  0  0  0  0  0  0999 V2000
   24.8447   35.5733   73.3078 C   0  0  0  0  0  0  0  0  0  0  0  0
   26.2587   39.7111   65.9949 C   0  0  0  0  0  0  0  0  0  0  0  0
   21.6736   43.3618   65.8344 P   0  0  1  0  0  0  0  0  0  0  0  0
   24.4470   35.6567   70.9502 N   0  0  0  0  0  0  0  0  0  0  0  0
   22.2070   43.5563   67.2070 O   0  0  0  0  0  0  0  0  0  0  0  0
   22.6399   37.9509   66.1085 S   0  0  0  0  0  0  0  0  0  0  0  0
   23.7692   37.3003   67.1687 C   0  0  0  0  0  0  0  0  0  0  0  0
   25.2114   36.1166   72.0007 C   0  0  0  0  0  0  0  0  0  0  0  0
   20.1902   43.3321   65.7570 O   0  5  0  0  0  0  0  0  0  0  0  0
   24.9895   37.8776   67.1467 N   0  0  0  0  0  0  0  0  0  0  0  0
   26.1820   36.9805   71.8683 N   0  0  0  0  0  0  0  0  0  0  0  0
   22.2985   44.3388   64.8863 O   0  0  0  0  0  0  0  0  0  0  0  0
   25.0067   38.9126   66.2099 C   0  0  2  0  0  0  0  0  0  0  0  0
   26.5054   37.4764   70.6096 C   0  0  0  0  0  0  0  0  0  0  0  0
   27.4843   38.3693   70.4969 N   0  0  0  0  0  0  0  0  0  0  0  0
   23.8210   39.1013   65.5400 C   0  0  1  0  0  0  0  0  0  0  0  0
   25.7674   37.0035   69.4499 C   0  0  0  0  0  0  0  0  0  0  0  0
   23.5195   40.0978   64.4793 C   0  0  0  0  0  0  0  0  0  0  0  0
   24.7382   36.1206   69.7085 C   0  0  0  0  0  0  0  0  0  0  0  0
   23.3941   41.4637   65.0422 C   0  0  0  0  0  0  0  0  0  0  0  0
   26.1561   37.4191   68.0439 C   0  0  0  0  0  0  0  0  0  0  0  0
   22.0760   41.9174   65.3521 O   0  0  0  0  0  0  0  0  0  0  0  0
  1  8  1  0  0  0  0
  3  5  1  1  0  0  0
  3  9  1  0  0  0  0
  3 12  2  0  0  0  0
  3 22  1  0  0  0  0
  4  8  2  0  0  0  0
  4 19  1  0  0  0  0
  6 16  1  0  0  0  0
  6  7  1  0  0  0  0
  7 10  1  0  0  0  0
  8 11  1  0  0  0  0
 10 13  1  0  0  0  0
 10 21  1  0  0  0  0
 11 14  2  0  0  0  0
 13  2  1  6  0  0  0
 13 16  1  0  0  0  0
 14 15  1  0  0  0  0
 14 17  1  0  0  0  0
 16 18  1  6  0  0  0
 17 19  2  0  0  0  0
 17 21  1  0  0  0  0
 18 20  1  0  0  0  0
 20 22  1  0  0  0  0
M  CHG  1   9  -1
M  END
>  <CHROM.1>
-37.83686144,107.10758890,-133.29734838,-95.56141294,-174.18821343,-68.99649564
23.94029196,39.38704823,67.60430987,0.57177465,-1.07684508,1.48624585

>  <Name>
ligand

>  <RI>
0

>  <Rbt.Current_Directory>
/home/itssahil/PROJECTS/Mol_Feturizer/New_Systems/rnas/2HOM

>  <Rbt.Executable>
rbdock ($Id: //depot/dev/client3/rdock/2013.1/src/exe/rbdock.cxx#4 $)

>  <Rbt.Library>
libRbt.so (2013.1, Build901 2013/11/27)

>  <Rbt.Parameter_File>
/export/apps/rDock/src/rDock_2013.1_src/data/scripts/dock_solv.prm

>  <Rbt.Receptor>
prm/pocket_docking_7.prm

>  <SCORE>
-9.36764

>  <SCORE.INTER>
-11.4691

>  <SCORE.INTER.CONST>
1

>  <SCORE.INTER.POLAR>
0

>  <SCORE.INTER.ROT>
6

>  <SCORE.INTER.SOLV>
18.928

>  <SCORE.INTER.VDW>
-21.5554

>  <SCORE.INTER.norm>
-0.521324

>  <SCORE.INTRA>
2.10149

>  <SCORE.INTRA.DIHEDRAL>
3.39163

>  <SCORE.INTRA.DIHEDRAL.0>
5.05013

>  <SCORE.INTRA.POLAR>
0

>  <SCORE.INTRA.POLAR.0>
0

>  <SCORE.INTRA.REPUL>
0

>  <SCORE.INTRA.REPUL.0>
0

>  <SCORE.INTRA.SOLV>
0.0520695

>  <SCORE.INTRA.SOLV.lig_0>
-54.1265

>  <SCORE.INTRA.VDW>
0.379638

>  <SCORE.INTRA.VDW.0>
-2.1303

>  <SCORE.INTRA.norm>
0.0955222

>  <SCORE.RESTR>
0

>  <SCORE.RESTR.CAVITY>
0

>  <SCORE.RESTR.norm>
0

>  <SCORE.SYSTEM>
0

>  <SCORE.SYSTEM.CONST>
0

>  <SCORE.SYSTEM.DIHEDRAL>
0

>  <SCORE.SYSTEM.SOLV>
0

>  <SCORE.SYSTEM.norm>
0

>  <SCORE.heavy>
22

>  <SCORE.norm>
-0.425802

>  <RMSD>
7.813

$$$$
ligand
 OpenBabel11021811443D
libRbt.so/2013.1/901 2013/11/27
 22 23  0  0  0  0  0  0  0  0999 V2000
   22.6145   30.9599   71.2634 C   0  0  0  0  0  0  0  0  0  0  0  0
   26.4208   38.2671   69.1756 C   0  0  0  0  0  0  0  0  0  0  0  0
   30.6939   36.0789   64.9613 P   0  0  1  0  0  0  0  0  0  0  0  0
   23.1813   32.9836   70.1202 N   0  0  0  0  0  0  0  0  0  0  0  0
   31.1426   37.4411   64.5746 O   0  0  0  0  0  0  0  0  0  0  0  0
   28.4939   34.9016   68.4124 S   0  0  0  0  0  0  0  0  0  0  0  0
   27.3090   34.7423   69.5929 C   0  0  0  0  0  0  0  0  0  0  0  0
   23.3430   32.2277   71.2612 C   0  0  0  0  0  0  0  0  0  0  0  0
   30.8359   35.0638   63.8858 O   0  5  0  0  0  0  0  0  0  0  0  0
   26.6014   35.8601   69.8630 N   0  0  0  0  0  0  0  0  0  0  0  0
   24.0712   32.5985   72.2801 N   0  0  0  0  0  0  0  0  0  0  0  0
   31.3266   35.6665   66.2548 O   0  0  0  0  0  0  0  0  0  0  0  0
   27.0508   36.9102   69.0604 C   0  0  2  0  0  0  0  0  0  0  0  0
   24.7522   33.8109   72.2444 C   0  0  0  0  0  0  0  0  0  0  0  0
   25.4735   34.1800   73.2987 N   0  0  0  0  0  0  0  0  0  0  0  0
   28.0801   36.5835   68.2094 C   0  0  1  0  0  0  0  0  0  0  0  0
   24.6603   34.6411   71.0547 C   0  0  0  0  0  0  0  0  0  0  0  0
   28.7874   37.4700   67.2485 C   0  0  0  0  0  0  0  0  0  0  0  0
   23.8338   34.1717   70.0536 C   0  0  0  0  0  0  0  0  0  0  0  0
   28.4068   37.1613   65.8492 C   0  0  0  0  0  0  0  0  0  0  0  0
   25.4757   35.9123   70.9147 C   0  0  0  0  0  0  0  0  0  0  0  0
   29.1367   36.1233   65.1940 O   0  0  0  0  0  0  0  0  0  0  0  0
  1  8  1  0  0  0  0
  3  5  1  6  0  0  0
  3  9  1  0  0  0  0
  3 12  2  0  0  0  0
  3 22  1  0  0  0  0
  4  8  2  0  0  0  0
  4 19  1  0  0  0  0
  6 16  1  0  0  0  0
  6  7  1  0  0  0  0
  7 10  1  0  0  0  0
  8 11  1  0  0  0  0
 10 13  1  0  0  0  0
 10 21  1  0  0  0  0
 11 14  2  0  0  0  0
 13  2  1  1  0  0  0
 13 16  1  0  0  0  0
 14 15  1  0  0  0  0
 14 17  1  0  0  0  0
 16 18  1  1  0  0  0
 17 19  2  0  0  0  0
 17 21  1  0  0  0  0
 18 20  1  0  0  0  0
 20 22  1  0  0  0  0
M  CHG  1   9  -1
M  END
>  <CHROM.1>
-33.99240142,73.30993463,110.51737851,-85.95667074,-58.26507462,-40.96704853
27.29744405,35.23821770,68.49636656,-3.11500651,0.83267146,0.42257217

>  <Name>
ligand

>  <RI>
0

>  <Rbt.Current_Directory>
/home/itssahil/PROJECTS/Mol_Feturizer/New_Systems/rnas/2HOM

>  <Rbt.Executable>
rbdock ($Id: //depot/dev/client3/rdock/2013.1/src/exe/rbdock.cxx#4 $)

>  <Rbt.Library>
libRbt.so (2013.1, Build901 2013/11/27)

>  <Rbt.Parameter_File>
/export/apps/rDock/src/rDock_2013.1_src/data/scripts/dock_solv.prm

>  <Rbt.Receptor>
prm/blind_docking_100.prm

>  <SCORE>
-17.8226

>  <SCORE.INTER>
-19.2614

>  <SCORE.INTER.CONST>
1

>  <SCORE.INTER.POLAR>
-1.63459

>  <SCORE.INTER.ROT>
6

>  <SCORE.INTER.SOLV>
17.2995

>  <SCORE.INTER.VDW>
-20.7588

>  <SCORE.INTER.norm>
-0.875518

>  <SCORE.INTRA>
1.43831

>  <SCORE.INTRA.DIHEDRAL>
2.71953

>  <SCORE.INTRA.DIHEDRAL.0>
5.05013

>  <SCORE.INTRA.POLAR>
0

>  <SCORE.INTRA.POLAR.0>
0

>  <SCORE.INTRA.REPUL>
0

>  <SCORE.INTRA.REPUL.0>
0

>  <SCORE.INTRA.SOLV>
0.994417

>  <SCORE.INTRA.SOLV.lig_0>
-54.1265

>  <SCORE.INTRA.VDW>
-0.418663

>  <SCORE.INTRA.VDW.0>
-2.1303

>  <SCORE.INTRA.norm>
0.0653778

>  <SCORE.RESTR>
0.00052124

>  <SCORE.RESTR.CAVITY>
0.00052124

>  <SCORE.RESTR.norm>
2.36927e-05

>  <SCORE.SYSTEM>
0

>  <SCORE.SYSTEM.CONST>
0

>  <SCORE.SYSTEM.DIHEDRAL>
0

>  <SCORE.SYSTEM.SOLV>
0

>  <SCORE.SYSTEM.norm>
0

>  <SCORE.heavy>
22

>  <SCORE.norm>
-0.810116

>  <RMSD>
7.823

$$$$
ligand
 OpenBabel11021811443D
libRbt.so/2013.1/901 2013/11/27
 22 23  0  0  0  0  0  0  0  0999 V2000
   30.4749   43.1941   65.7945 C   0  0  0  0  0  0  0  0  0  0  0  0
   26.9811   38.3784   65.2629 C   0  0  0  0  0  0  0  0  0  0  0  0
   23.0155   40.4766   67.3640 P   0  0  1  0  0  0  0  0  0  0  0  0
   28.7610   41.9838   66.9439 N   0  0  0  0  0  0  0  0  0  0  0  0
   22.5038   40.0270   68.6840 O   0  0  0  0  0  0  0  0  0  0  0  0
   24.4182   37.4303   68.2191 S   0  0  0  0  0  0  0  0  0  0  0  0
   25.9921   37.7293   68.7252 C   0  0  0  0  0  0  0  0  0  0  0  0
   29.9780   41.9156   66.3007 C   0  0  0  0  0  0  0  0  0  0  0  0
   22.4677   41.7815   66.9119 O   0  5  0  0  0  0  0  0  0  0  0  0
   26.8674   38.0501   67.7485 N   0  0  0  0  0  0  0  0  0  0  0  0
   30.6475   40.8071   66.1302 N   0  0  0  0  0  0  0  0  0  0  0  0
   24.5120   40.4184   67.3350 O   0  0  0  0  0  0  0  0  0  0  0  0
   26.2176   38.0528   66.5128 C   0  0  2  0  0  0  0  0  0  0  0  0
   30.1461   39.6080   66.6259 C   0  0  0  0  0  0  0  0  0  0  0  0
   30.8327   38.4869   66.4263 N   0  0  0  0  0  0  0  0  0  0  0  0
   24.8812   37.7342   66.5654 C   0  0  1  0  0  0  0  0  0  0  0  0
   28.8866   39.6119   67.3517 C   0  0  0  0  0  0  0  0  0  0  0  0
   23.9211   37.6327   65.4354 C   0  0  0  0  0  0  0  0  0  0  0  0
   28.2450   40.8309   67.4402 C   0  0  0  0  0  0  0  0  0  0  0  0
   23.2411   38.9267   65.1875 C   0  0  0  0  0  0  0  0  0  0  0  0
   28.3544   38.3562   68.0154 C   0  0  0  0  0  0  0  0  0  0  0  0
   22.4861   39.4782   66.2669 O   0  0  0  0  0  0  0  0  0  0  0  0
  1  8  1  0  0  0  0
  3  5  1  1  0  0  0
  3  9  1  0  0  0  0
  3 12  2  0  0  0  0
  3 22  1  0  0  0  0
  4  8  2  0  0  0  0
  4 19  1  0  0  0  0
  6 16  1  0  0  0  0
  6  7  1  0  0  0  0
  7 10  1  0  0  0  0
  8 11  1  0  0  0  0
 10 13  1  0  0  0  0
 10 21  1  0  0  0  0
 11 14  2  0  0  0  0
 13  2  1  6  0  0  0
 13 16  1  0  0  0  0
 14 15  1  0  0  0  0
 14 17  1  0  0  0  0
 16 18  1  6  0  0  0
 17 19  2  0  0  0  0
 17 21  1  0  0  0  0
 18 20  1  0  0  0  0
 20 22  1  0  0  0  0
M  CHG  1   9  -1
M  END
>  <CHROM.1>
-132.06063735,89.50826009,-133.00132652,-59.26332559,91.08414493,-136.21900035
26.12810719,39.55293912,66.96436015,0.19876496,0.06443439,-0.14031943

>  <Name>
ligand

>  <RI>
0

>  <Rbt.Current_Directory>
/home/itssahil/PROJECTS/Mol_Feturizer/New_Systems/rnas/2HOM

>  <Rbt.Executable>
rbdock ($Id: //depot/dev/client3/rdock/2013.1/src/exe/rbdock.cxx#4 $)

>  <Rbt.Library>
libRbt.so (2013.1, Build901 2013/11/27)

>  <Rbt.Parameter_File>
/export/apps/rDock/src/rDock_2013.1_src/data/scripts/dock_solv.prm

>  <Rbt.Receptor>
prm/pocket_docking_4.prm

>  <SCORE>
-8.63144

>  <SCORE.INTER>
-11.8813

>  <SCORE.INTER.CONST>
1

>  <SCORE.INTER.POLAR>
-1.30767

>  <SCORE.INTER.ROT>
6

>  <SCORE.INTER.SOLV>
16.7445

>  <SCORE.INTER.VDW>
-16.7435

>  <SCORE.INTER.norm>
-0.540057

>  <SCORE.INTRA>
3.24982

>  <SCORE.INTRA.DIHEDRAL>
5.55044

>  <SCORE.INTRA.DIHEDRAL.0>
5.05013

>  <SCORE.INTRA.POLAR>
0

>  <SCORE.INTRA.POLAR.0>
0

>  <SCORE.INTRA.REPUL>
0

>  <SCORE.INTRA.REPUL.0>
0

>  <SCORE.INTRA.SOLV>
4.5119

>  <SCORE.INTRA.SOLV.lig_0>
-54.1265

>  <SCORE.INTRA.VDW>
-1.78135

>  <SCORE.INTRA.VDW.0>
-2.1303

>  <SCORE.INTRA.norm>
0.147719

>  <SCORE.RESTR>
0

>  <SCORE.RESTR.CAVITY>
0

>  <SCORE.RESTR.norm>
0

>  <SCORE.SYSTEM>
0

>  <SCORE.SYSTEM.CONST>
0

>  <SCORE.SYSTEM.DIHEDRAL>
0

>  <SCORE.SYSTEM.SOLV>
0

>  <SCORE.SYSTEM.norm>
0

>  <SCORE.heavy>
22

>  <SCORE.norm>
-0.392338

>  <RMSD>
7.872

$$$$
ligand
 OpenBabel11021811443D
libRbt.so/2013.1/901 2013/11/27
 22 23  0  0  0  0  0  0  0  0999 V2000
   26.1899   43.6574   60.0853 C   0  0  0  0  0  0  0  0  0  0  0  0
   30.5764   41.0073   63.2425 C   0  0  0  0  0  0  0  0  0  0  0  0
   29.0804   39.5649   68.5942 P   0  0  1  0  0  0  0  0  0  0  0  0
   26.9186   41.3805   60.1731 N   0  0  0  0  0  0  0  0  0  0  0  0
   27.7690   40.1163   68.1668 O   0  0  0  0  0  0  0  0  0  0  0  0
   30.1354   37.0132   63.4848 S   0  0  0  0  0  0  0  0  0  0  0  0
   30.1440   37.6236   61.9196 C   0  0  0  0  0  0  0  0  0  0  0  0
   27.2978   42.7051   60.1434 C   0  0  0  0  0  0  0  0  0  0  0  0
   30.2407   40.4336   68.2682 O   0  5  0  0  0  0  0  0  0  0  0  0
   30.2920   38.9617   61.8166 N   0  0  0  0  0  0  0  0  0  0  0  0
   28.5415   43.1042   60.1504 N   0  0  0  0  0  0  0  0  0  0  0  0
   29.0317   39.1543   70.0339 O   0  0  0  0  0  0  0  0  0  0  0  0
   30.4052   39.5246   63.0891 C   0  0  2  0  0  0  0  0  0  0  0  0
   29.5715   42.1710   60.2074 C   0  0  0  0  0  0  0  0  0  0  0  0
   30.8316   42.5955   60.1947 N   0  0  0  0  0  0  0  0  0  0  0  0
   30.3375   38.6229   64.1247 C   0  0  1  0  0  0  0  0  0  0  0  0
   29.2439   40.7568   60.2826 C   0  0  0  0  0  0  0  0  0  0  0  0
   30.4061   38.9000   65.5834 C   0  0  0  0  0  0  0  0  0  0  0  0
   27.9002   40.4450   60.2302 C   0  0  0  0  0  0  0  0  0  0  0  0
   29.3502   38.1667   66.3221 C   0  0  0  0  0  0  0  0  0  0  0  0
   30.3218   39.7058   60.4670 C   0  0  0  0  0  0  0  0  0  0  0  0
   29.3671   38.2689   67.7464 O   0  0  0  0  0  0  0  0  0  0  0  0
  1  8  1  0  0  0  0
  3  5  1  6  0  0  0
  3  9  1  0  0  0  0
  3 12  2  0  0  0  0
  3 22  1  0  0  0  0
  4  8  2  0  0  0  0
  4 19  1  0  0  0  0
  6 16  1  0  0  0  0
  6  7  1  0  0  0  0
  7 10  1  0  0  0  0
  8 11  1  0  0  0  0
 10 13  1  0  0  0  0
 10 21  1  0  0  0  0
 11 14  2  0  0  0  0
 13  2  1  1  0  0  0
 13 16  1  0  0  0  0
 14 15  1  0  0  0  0
 14 17  1  0  0  0  0
 16 18  1  1  0  0  0
 17 19  2  0  0  0  0
 17 21  1  0  0  0  0
 18 20  1  0  0  0  0
 20 22  1  0  0  0  0
M  CHG  1   9  -1
M  END
>  <CHROM.1>
120.52281071,-45.36741927,112.62887604,175.51934956,67.19479376,53.42963855
29.29783364,39.97062164,63.83662000,1.73396846,1.02287001,-1.39031382

>  <Name>
ligand

>  <RI>
0

>  <Rbt.Current_Directory>
/home/itssahil/PROJECTS/Mol_Feturizer/New_Systems/rnas/2HOM

>  <Rbt.Executable>
rbdock ($Id: //depot/dev/client3/rdock/2013.1/src/exe/rbdock.cxx#4 $)

>  <Rbt.Library>
libRbt.so (2013.1, Build901 2013/11/27)

>  <Rbt.Parameter_File>
/export/apps/rDock/src/rDock_2013.1_src/data/scripts/dock_solv.prm

>  <Rbt.Receptor>
prm/pocket_docking_8.prm

>  <SCORE>
-12.0234

>  <SCORE.INTER>
-13.7681

>  <SCORE.INTER.CONST>
1

>  <SCORE.INTER.POLAR>
-2.47832

>  <SCORE.INTER.ROT>
6

>  <SCORE.INTER.SOLV>
13.3104

>  <SCORE.INTER.VDW>
-12.9545

>  <SCORE.INTER.norm>
-0.625822

>  <SCORE.INTRA>
1.7447

>  <SCORE.INTRA.DIHEDRAL>
0.424858

>  <SCORE.INTRA.DIHEDRAL.0>
5.05013

>  <SCORE.INTRA.POLAR>
0

>  <SCORE.INTRA.POLAR.0>
0

>  <SCORE.INTRA.REPUL>
0

>  <SCORE.INTRA.REPUL.0>
0

>  <SCORE.INTRA.SOLV>
2.3656

>  <SCORE.INTRA.SOLV.lig_0>
-54.1265

>  <SCORE.INTRA.VDW>
0.349473

>  <SCORE.INTRA.VDW.0>
-2.1303

>  <SCORE.INTRA.norm>
0.0793047

>  <SCORE.RESTR>
0

>  <SCORE.RESTR.CAVITY>
0

>  <SCORE.RESTR.norm>
0

>  <SCORE.SYSTEM>
0

>  <SCORE.SYSTEM.CONST>
0

>  <SCORE.SYSTEM.DIHEDRAL>
0

>  <SCORE.SYSTEM.SOLV>
0

>  <SCORE.SYSTEM.norm>
0

>  <SCORE.heavy>
22

>  <SCORE.norm>
-0.546517

>  <RMSD>
7.872

$$$$
ligand
 OpenBabel11021811443D
libRbt.so/2013.1/901 2013/11/27
 22 23  0  0  0  0  0  0  0  0999 V2000
   27.2261   37.1068   72.0513 C   0  0  0  0  0  0  0  0  0  0  0  0
   24.2103   39.8880   67.2672 C   0  0  0  0  0  0  0  0  0  0  0  0
   23.3366   45.7731   66.3741 P   0  0  1  0  0  0  0  0  0  0  0  0
   25.8196   37.4653   70.1496 N   0  0  0  0  0  0  0  0  0  0  0  0
   24.2392   46.5357   65.4741 O   0  0  0  0  0  0  0  0  0  0  0  0
   26.7457   41.6050   64.6537 S   0  0  0  0  0  0  0  0  0  0  0  0
   27.1289   40.0217   65.0648 C   0  0  0  0  0  0  0  0  0  0  0  0
   27.1124   37.3690   70.6173 C   0  0  0  0  0  0  0  0  0  0  0  0
   22.6690   46.6022   67.4105 O   0  5  0  0  0  0  0  0  0  0  0  0
   26.2898   39.4273   65.9398 N   0  0  0  0  0  0  0  0  0  0  0  0
   28.1694   37.5117   69.8635 N   0  0  0  0  0  0  0  0  0  0  0  0
   22.3826   44.9392   65.5751 O   0  0  0  0  0  0  0  0  0  0  0  0
   25.2730   40.3145   66.2976 C   0  0  2  0  0  0  0  0  0  0  0  0
   28.0251   37.7593   68.5023 C   0  0  0  0  0  0  0  0  0  0  0  0
   29.1126   37.9203   67.7542 N   0  0  0  0  0  0  0  0  0  0  0  0
   25.3545   41.5519   65.7041 C   0  0  1  0  0  0  0  0  0  0  0  0
   26.6898   37.8325   67.9324 C   0  0  0  0  0  0  0  0  0  0  0  0
   24.4467   42.7145   65.8870 C   0  0  0  0  0  0  0  0  0  0  0  0
   25.6448   37.7052   68.8253 C   0  0  0  0  0  0  0  0  0  0  0  0
   25.0739   43.7616   66.7287 C   0  0  0  0  0  0  0  0  0  0  0  0
   26.4766   37.9806   66.4380 C   0  0  0  0  0  0  0  0  0  0  0  0
   24.2168   44.7874   67.2310 O   0  0  0  0  0  0  0  0  0  0  0  0
  1  8  1  0  0  0  0
  3  5  1  6  0  0  0
  3  9  1  0  0  0  0
  3 12  2  0  0  0  0
  3 22  1  0  0  0  0
  4  8  2  0  0  0  0
  4 19  1  0  0  0  0
  6 16  1  0  0  0  0
  6  7  1  0  0  0  0
  7 10  1  0  0  0  0
  8 11  1  0  0  0  0
 10 13  1  0  0  0  0
 10 21  1  0  0  0  0
 11 14  2  0  0  0  0
 13  2  1  1  0  0  0
 13 16  1  0  0  0  0
 14 15  1  0  0  0  0
 14 17  1  0  0  0  0
 16 18  1  1  0  0  0
 17 19  2  0  0  0  0
 17 21  1  0  0  0  0
 18 20  1  0  0  0  0
 20 22  1  0  0  0  0
M  CHG  1   9  -1
M  END
>  <CHROM.1>
118.43764022,-74.29298413,-94.68682589,-166.34873422,-58.73521303,-59.00216804
25.56161459,41.22756176,67.14269089,0.77434028,-0.98252358,2.07242791

>  <Name>
ligand

>  <RI>
0

>  <Rbt.Current_Directory>
/home/itssahil/PROJECTS/Mol_Feturizer/New_Systems/rnas/2HOM

>  <Rbt.Executable>
rbdock ($Id: //depot/dev/client3/rdock/2013.1/src/exe/rbdock.cxx#4 $)

>  <Rbt.Library>
libRbt.so (2013.1, Build901 2013/11/27)

>  <Rbt.Parameter_File>
/export/apps/rDock/src/rDock_2013.1_src/data/scripts/dock_solv.prm

>  <Rbt.Receptor>
prm/pocket_docking_7.prm

>  <SCORE>
-9.78702

>  <SCORE.INTER>
-11.4158

>  <SCORE.INTER.CONST>
1

>  <SCORE.INTER.POLAR>
-1.30322

>  <SCORE.INTER.ROT>
6

>  <SCORE.INTER.SOLV>
16.3023

>  <SCORE.INTER.VDW>
-16.3006

>  <SCORE.INTER.norm>
-0.518899

>  <SCORE.INTRA>
1.62653

>  <SCORE.INTRA.DIHEDRAL>
0.805978

>  <SCORE.INTRA.DIHEDRAL.0>
5.05013

>  <SCORE.INTRA.POLAR>
0

>  <SCORE.INTRA.POLAR.0>
0

>  <SCORE.INTRA.REPUL>
0

>  <SCORE.INTRA.REPUL.0>
0

>  <SCORE.INTRA.SOLV>
1.34018

>  <SCORE.INTRA.SOLV.lig_0>
-54.1265

>  <SCORE.INTRA.VDW>
0.553453

>  <SCORE.INTRA.VDW.0>
-2.1303

>  <SCORE.INTRA.norm>
0.0739333

>  <SCORE.RESTR>
0.00221513

>  <SCORE.RESTR.CAVITY>
0.00221513

>  <SCORE.RESTR.norm>
0.000100688

>  <SCORE.SYSTEM>
0

>  <SCORE.SYSTEM.CONST>
0

>  <SCORE.SYSTEM.DIHEDRAL>
0

>  <SCORE.SYSTEM.SOLV>
0

>  <SCORE.SYSTEM.norm>
0

>  <SCORE.heavy>
22

>  <SCORE.norm>
-0.444865

>  <RMSD>
7.905

$$$$
ligand
 OpenBabel11021811443D
libRbt.so/2013.1/901 2013/11/27
 22 23  0  0  0  0  0  0  0  0999 V2000
   30.1354   36.0644   64.5164 C   0  0  0  0  0  0  0  0  0  0  0  0
   23.3620   40.0559   68.1869 C   0  0  0  0  0  0  0  0  0  0  0  0
   21.2147   42.5533   65.7403 P   0  0  1  0  0  0  0  0  0  0  0  0
   28.9598   36.4005   66.5726 N   0  0  0  0  0  0  0  0  0  0  0  0
   19.7834   42.9501   65.7304 O   0  0  0  0  0  0  0  0  0  0  0  0
   22.6664   37.3508   65.2877 S   0  0  0  0  0  0  0  0  0  0  0  0
   24.2322   37.3386   65.8965 C   0  0  0  0  0  0  0  0  0  0  0  0
   29.0453   36.7223   65.2353 C   0  0  0  0  0  0  0  0  0  0  0  0
   22.1068   43.4765   64.9926 O   0  5  0  0  0  0  0  0  0  0  0  0
   24.4858   38.2382   66.8710 N   0  0  0  0  0  0  0  0  0  0  0  0
   28.2387   37.5572   64.6367 N   0  0  0  0  0  0  0  0  0  0  0  0
   21.6747   42.2870   67.1408 O   0  0  0  0  0  0  0  0  0  0  0  0
   23.3356   38.9829   67.1385 C   0  0  2  0  0  0  0  0  0  0  0  0
   27.2110   38.1647   65.3506 C   0  0  0  0  0  0  0  0  0  0  0  0
   26.4113   39.0261   64.7287 N   0  0  0  0  0  0  0  0  0  0  0  0
   22.2435   38.6487   66.3731 C   0  0  1  0  0  0  0  0  0  0  0  0
   27.0357   37.8400   66.7567 C   0  0  0  0  0  0  0  0  0  0  0  0
   20.8881   39.2581   66.4000 C   0  0  0  0  0  0  0  0  0  0  0  0
   27.9667   36.9758   67.2970 C   0  0  0  0  0  0  0  0  0  0  0  0
   20.6090   40.0082   65.1519 C   0  0  0  0  0  0  0  0  0  0  0  0
   25.8618   38.3801   67.5509 C   0  0  0  0  0  0  0  0  0  0  0  0
   21.3557   41.2062   64.9363 O   0  0  0  0  0  0  0  0  0  0  0  0
  1  8  1  0  0  0  0
  3  5  1  6  0  0  0
  3  9  1  0  0  0  0
  3 12  2  0  0  0  0
  3 22  1  0  0  0  0
  4  8  2  0  0  0  0
  4 19  1  0  0  0  0
  6 16  1  0  0  0  0
  6  7  1  0  0  0  0
  7 10  1  0  0  0  0
  8 11  1  0  0  0  0
 10 13  1  0  0  0  0
 10 21  1  0  0  0  0
 11 14  2  0  0  0  0
 13  2  1  6  0  0  0
 13 16  1  0  0  0  0
 14 15  1  0  0  0  0
 14 17  1  0  0  0  0
 16 18  1  6  0  0  0
 17 19  2  0  0  0  0
 17 21  1  0  0  0  0
 18 20  1  0  0  0  0
 20 22  1  0  0  0  0
M  CHG  1   9  -1
M  END
>  <CHROM.1>
21.59759746,-67.75638386,47.59507072,-68.78756054,-69.67854079,-52.69119704
24.11099715,39.27636696,65.95248569,-0.58434865,0.10311980,-0.12894561

>  <Name>
ligand

>  <RI>
0

>  <Rbt.Current_Directory>
/home/itssahil/PROJECTS/Mol_Feturizer/New_Systems/rnas/2HOM

>  <Rbt.Executable>
rbdock ($Id: //depot/dev/client3/rdock/2013.1/src/exe/rbdock.cxx#4 $)

>  <Rbt.Library>
libRbt.so (2013.1, Build901 2013/11/27)

>  <Rbt.Parameter_File>
/export/apps/rDock/src/rDock_2013.1_src/data/scripts/dock_solv.prm

>  <Rbt.Receptor>
prm/pocket_docking_4.prm

>  <SCORE>
-14.3163

>  <SCORE.INTER>
-16.3706

>  <SCORE.INTER.CONST>
1

>  <SCORE.INTER.POLAR>
0

>  <SCORE.INTER.ROT>
6

>  <SCORE.INTER.SOLV>
16.7015

>  <SCORE.INTER.VDW>
-24.0809

>  <SCORE.INTER.norm>
-0.744117

>  <SCORE.INTRA>
2.05424

>  <SCORE.INTRA.DIHEDRAL>
0.952201

>  <SCORE.INTRA.DIHEDRAL.0>
5.05013

>  <SCORE.INTRA.POLAR>
0

>  <SCORE.INTRA.POLAR.0>
0

>  <SCORE.INTRA.REPUL>
0

>  <SCORE.INTRA.REPUL.0>
0

>  <SCORE.INTRA.SOLV>
4.16258

>  <SCORE.INTRA.SOLV.lig_0>
-54.1265

>  <SCORE.INTRA.VDW>
-0.503147

>  <SCORE.INTRA.VDW.0>
-2.1303

>  <SCORE.INTRA.norm>
0.0933748

>  <SCORE.RESTR>
0

>  <SCORE.RESTR.CAVITY>
0

>  <SCORE.RESTR.norm>
0

>  <SCORE.SYSTEM>
0

>  <SCORE.SYSTEM.CONST>
0

>  <SCORE.SYSTEM.DIHEDRAL>
0

>  <SCORE.SYSTEM.SOLV>
0

>  <SCORE.SYSTEM.norm>
0

>  <SCORE.heavy>
22

>  <SCORE.norm>
-0.650743

>  <RMSD>
7.910

$$$$
ligand
 OpenBabel11021811443D
libRbt.so/2013.1/901 2013/11/27
 22 23  0  0  0  0  0  0  0  0999 V2000
   30.4423   42.2067   65.0362 C   0  0  0  0  0  0  0  0  0  0  0  0
   26.1463   39.2662   67.9047 C   0  0  0  0  0  0  0  0  0  0  0  0
   22.1437   43.0024   65.9649 P   0  0  1  0  0  0  0  0  0  0  0  0
   28.4570   41.0190   64.4269 N   0  0  0  0  0  0  0  0  0  0  0  0
   20.9020   43.0985   65.1555 O   0  0  0  0  0  0  0  0  0  0  0  0
   22.9798   38.2328   65.6438 S   0  0  0  0  0  0  0  0  0  0  0  0
   24.4630   37.7086   65.0539 C   0  0  0  0  0  0  0  0  0  0  0  0
   29.6290   40.9970   65.1516 C   0  0  0  0  0  0  0  0  0  0  0  0
   23.3955   43.0526   65.1664 O   0  5  0  0  0  0  0  0  0  0  0  0
   25.5380   38.0443   65.7986 N   0  0  0  0  0  0  0  0  0  0  0  0
   30.0134   39.9828   65.8793 N   0  0  0  0  0  0  0  0  0  0  0  0
   22.1151   43.9938   67.0875 O   0  0  0  0  0  0  0  0  0  0  0  0
   25.1299   38.7725   66.9176 C   0  0  2  0  0  0  0  0  0  0  0  0
   29.2145   38.8475   65.9680 C   0  0  0  0  0  0  0  0  0  0  0  0
   29.6312   37.8176   66.6987 N   0  0  0  0  0  0  0  0  0  0  0  0
   23.7738   38.9816   67.0041 C   0  0  1  0  0  0  0  0  0  0  0  0
   27.9440   38.8174   65.2624 C   0  0  0  0  0  0  0  0  0  0  0  0
   23.0293   39.7268   68.0527 C   0  0  0  0  0  0  0  0  0  0  0  0
   27.6545   39.9265   64.4932 C   0  0  0  0  0  0  0  0  0  0  0  0
   22.9706   41.1762   67.7458 C   0  0  0  0  0  0  0  0  0  0  0  0
   26.9810   37.6562   65.4201 C   0  0  0  0  0  0  0  0  0  0  0  0
   22.1994   41.5661   66.6090 O   0  0  0  0  0  0  0  0  0  0  0  0
  1  8  1  0  0  0  0
  3  5  1  6  0  0  0
  3  9  1  0  0  0  0
  3 12  2  0  0  0  0
  3 22  1  0  0  0  0
  4  8  2  0  0  0  0
  4 19  1  0  0  0  0
  6 16  1  0  0  0  0
  6  7  1  0  0  0  0
  7 10  1  0  0  0  0
  8 11  1  0  0  0  0
 10 13  1  0  0  0  0
 10 21  1  0  0  0  0
 11 14  2  0  0  0  0
 13  2  1  6  0  0  0
 13 16  1  0  0  0  0
 14 15  1  0  0  0  0
 14 17  1  0  0  0  0
 16 18  1  6  0  0  0
 17 19  2  0  0  0  0
 17 21  1  0  0  0  0
 18 20  1  0  0  0  0
 20 22  1  0  0  0  0
M  CHG  1   9  -1
M  END
>  <CHROM.1>
122.32770774,-93.25945533,127.63996414,67.39975634,-170.95906481,-159.89939732
25.23633105,40.32500497,66.01329379,-0.34559732,0.14755145,-0.13182568

>  <Name>
ligand

>  <RI>
0

>  <Rbt.Current_Directory>
/home/itssahil/PROJECTS/Mol_Feturizer/New_Systems/rnas/2HOM

>  <Rbt.Executable>
rbdock ($Id: //depot/dev/client3/rdock/2013.1/src/exe/rbdock.cxx#4 $)

>  <Rbt.Library>
libRbt.so (2013.1, Build901 2013/11/27)

>  <Rbt.Parameter_File>
/export/apps/rDock/src/rDock_2013.1_src/data/scripts/dock_solv.prm

>  <Rbt.Receptor>
prm/pocket_docking_4.prm

>  <SCORE>
-13.3259

>  <SCORE.INTER>
-14.007

>  <SCORE.INTER.CONST>
1

>  <SCORE.INTER.POLAR>
-1.30692

>  <SCORE.INTER.ROT>
6

>  <SCORE.INTER.SOLV>
11.8354

>  <SCORE.INTER.VDW>
-16.5268

>  <SCORE.INTER.norm>
-0.636682

>  <SCORE.INTRA>
0.681119

>  <SCORE.INTRA.DIHEDRAL>
0.952359

>  <SCORE.INTRA.DIHEDRAL.0>
5.05013

>  <SCORE.INTRA.POLAR>
0

>  <SCORE.INTRA.POLAR.0>
0

>  <SCORE.INTRA.REPUL>
0

>  <SCORE.INTRA.REPUL.0>
0

>  <SCORE.INTRA.SOLV>
1.41034

>  <SCORE.INTRA.SOLV.lig_0>
-54.1265

>  <SCORE.INTRA.VDW>
-0.50023

>  <SCORE.INTRA.VDW.0>
-2.1303

>  <SCORE.INTRA.norm>
0.0309599

>  <SCORE.RESTR>
0

>  <SCORE.RESTR.CAVITY>
0

>  <SCORE.RESTR.norm>
0

>  <SCORE.SYSTEM>
0

>  <SCORE.SYSTEM.CONST>
0

>  <SCORE.SYSTEM.DIHEDRAL>
0

>  <SCORE.SYSTEM.SOLV>
0

>  <SCORE.SYSTEM.norm>
0

>  <SCORE.heavy>
22

>  <SCORE.norm>
-0.605723

>  <RMSD>
7.914

$$$$
ligand
 OpenBabel11021811443D
libRbt.so/2013.1/901 2013/11/27
 22 23  0  0  0  0  0  0  0  0999 V2000
   22.9722   37.5863   65.3870 C   0  0  0  0  0  0  0  0  0  0  0  0
   27.2675   37.4007   71.4901 C   0  0  0  0  0  0  0  0  0  0  0  0
   24.2575   34.2773   72.6060 P   0  0  1  0  0  0  0  0  0  0  0  0
   24.1565   37.3267   67.4493 N   0  0  0  0  0  0  0  0  0  0  0  0
   23.3952   35.3097   71.9759 O   0  0  0  0  0  0  0  0  0  0  0  0
   29.0526   34.1771   69.8687 S   0  0  0  0  0  0  0  0  0  0  0  0
   28.7495   35.4278   68.7885 C   0  0  0  0  0  0  0  0  0  0  0  0
   24.2461   37.6126   66.1042 C   0  0  0  0  0  0  0  0  0  0  0  0
   24.1091   34.1787   74.0810 O   0  5  0  0  0  0  0  0  0  0  0  0
   28.1520   36.5191   69.3131 N   0  0  0  0  0  0  0  0  0  0  0  0
   25.3694   37.8748   65.4913 N   0  0  0  0  0  0  0  0  0  0  0  0
   24.0998   32.9635   71.9040 O   0  0  0  0  0  0  0  0  0  0  0  0
   27.9269   36.3256   70.6773 C   0  0  2  0  0  0  0  0  0  0  0  0
   26.5635   37.8927   66.2045 C   0  0  0  0  0  0  0  0  0  0  0  0
   27.6993   38.1432   65.5599 N   0  0  0  0  0  0  0  0  0  0  0  0
   28.3444   35.1086   71.1619 C   0  0  1  0  0  0  0  0  0  0  0  0
   26.5386   37.6406   67.6359 C   0  0  0  0  0  0  0  0  0  0  0  0
   28.2340   34.5918   72.5511 C   0  0  0  0  0  0  0  0  0  0  0  0
   25.3040   37.3373   68.1738 C   0  0  0  0  0  0  0  0  0  0  0  0
   26.9139   33.9597   72.7882 C   0  0  0  0  0  0  0  0  0  0  0  0
   27.7918   37.7657   68.4811 C   0  0  0  0  0  0  0  0  0  0  0  0
   25.7588   34.7223   72.4366 O   0  0  0  0  0  0  0  0  0  0  0  0
  1  8  1  0  0  0  0
  3  5  1  6  0  0  0
  3  9  1  0  0  0  0
  3 12  2  0  0  0  0
  3 22  1  0  0  0  0
  4  8  2  0  0  0  0
  4 19  1  0  0  0  0
  6 16  1  0  0  0  0
  6  7  1  0  0  0  0
  7 10  1  0  0  0  0
  8 11  1  0  0  0  0
 10 13  1  0  0  0  0
 10 21  1  0  0  0  0
 11 14  2  0  0  0  0
 13  2  1  6  0  0  0
 13 16  1  0  0  0  0
 14 15  1  0  0  0  0
 14 17  1  0  0  0  0
 16 18  1  6  0  0  0
 17 19  2  0  0  0  0
 17 21  1  0  0  0  0
 18 20  1  0  0  0  0
 20 22  1  0  0  0  0
M  CHG  1   9  -1
M  END
>  <CHROM.1>
78.47086880,-94.14989506,-125.24038375,-51.17551563,-179.32832750,-173.82733791
26.20028047,35.84269681,69.83387337,1.54582281,0.03116179,-1.06528848

>  <Name>
ligand

>  <RI>
0

>  <Rbt.Current_Directory>
/home/itssahil/PROJECTS/Mol_Feturizer/New_Systems/rnas/2HOM

>  <Rbt.Executable>
rbdock ($Id: //depot/dev/client3/rdock/2013.1/src/exe/rbdock.cxx#4 $)

>  <Rbt.Library>
libRbt.so (2013.1, Build901 2013/11/27)

>  <Rbt.Parameter_File>
/export/apps/rDock/src/rDock_2013.1_src/data/scripts/dock_solv.prm

>  <Rbt.Receptor>
prm/pocket_docking_8.prm

>  <SCORE>
-15.8029

>  <SCORE.INTER>
-15.6585

>  <SCORE.INTER.CONST>
1

>  <SCORE.INTER.POLAR>
0

>  <SCORE.INTER.ROT>
6

>  <SCORE.INTER.SOLV>
7.04226

>  <SCORE.INTER.VDW>
-20.3864

>  <SCORE.INTER.norm>
-0.71175

>  <SCORE.INTRA>
-0.144435

>  <SCORE.INTRA.DIHEDRAL>
0.0280994

>  <SCORE.INTRA.DIHEDRAL.0>
5.05013

>  <SCORE.INTRA.POLAR>
0

>  <SCORE.INTRA.POLAR.0>
0

>  <SCORE.INTRA.REPUL>
0

>  <SCORE.INTRA.REPUL.0>
0

>  <SCORE.INTRA.SOLV>
0.649226

>  <SCORE.INTRA.SOLV.lig_0>
-54.1265

>  <SCORE.INTRA.VDW>
-0.483097

>  <SCORE.INTRA.VDW.0>
-2.1303

>  <SCORE.INTRA.norm>
-0.00656521

>  <SCORE.RESTR>
0

>  <SCORE.RESTR.CAVITY>
0

>  <SCORE.RESTR.norm>
0

>  <SCORE.SYSTEM>
0

>  <SCORE.SYSTEM.CONST>
0

>  <SCORE.SYSTEM.DIHEDRAL>
0

>  <SCORE.SYSTEM.SOLV>
0

>  <SCORE.SYSTEM.norm>
0

>  <SCORE.heavy>
22

>  <SCORE.norm>
-0.718315

>  <RMSD>
7.919

$$$$
ligand
 OpenBabel11021811443D
libRbt.so/2013.1/901 2013/11/27
 22 23  0  0  0  0  0  0  0  0999 V2000
   30.1203   38.3159   64.1194 C   0  0  0  0  0  0  0  0  0  0  0  0
   23.3123   39.9286   67.8647 C   0  0  0  0  0  0  0  0  0  0  0  0
   20.6771   43.8713   65.6437 P   0  0  1  0  0  0  0  0  0  0  0  0
   27.7966   37.7927   64.3435 N   0  0  0  0  0  0  0  0  0  0  0  0
   21.8698   44.2509   66.4436 O   0  0  0  0  0  0  0  0  0  0  0  0
   22.2538   37.6771   64.6997 S   0  0  0  0  0  0  0  0  0  0  0  0
   23.7046   37.2335   65.4215 C   0  0  0  0  0  0  0  0  0  0  0  0
   28.9602   38.1445   64.9928 C   0  0  0  0  0  0  0  0  0  0  0  0
   19.4068   44.4752   66.1222 O   0  5  0  0  0  0  0  0  0  0  0  0
   24.0771   37.9760   66.4859 N   0  0  0  0  0  0  0  0  0  0  0  0
   29.0500   38.3037   66.2861 N   0  0  0  0  0  0  0  0  0  0  0  0
   20.9307   44.0988   64.1851 O   0  0  0  0  0  0  0  0  0  0  0  0
   23.1237   38.9664   66.7290 C   0  0  2  0  0  0  0  0  0  0  0  0
   27.9259   38.1340   67.0878 C   0  0  0  0  0  0  0  0  0  0  0  0
   28.0408   38.2819   68.4043 N   0  0  0  0  0  0  0  0  0  0  0  0
   22.0602   38.9667   65.8576 C   0  0  1  0  0  0  0  0  0  0  0  0
   26.6546   37.8027   66.4657 C   0  0  0  0  0  0  0  0  0  0  0  0
   20.8984   39.8935   65.8345 C   0  0  0  0  0  0  0  0  0  0  0  0
   26.6815   37.6208   65.0976 C   0  0  0  0  0  0  0  0  0  0  0  0
   21.3147   41.2718   65.4806 C   0  0  0  0  0  0  0  0  0  0  0  0
   25.3757   37.7241   67.2773 C   0  0  0  0  0  0  0  0  0  0  0  0
   20.4250   42.3291   65.8410 O   0  0  0  0  0  0  0  0  0  0  0  0
  1  8  1  0  0  0  0
  3  5  1  1  0  0  0
  3  9  1  0  0  0  0
  3 12  2  0  0  0  0
  3 22  1  0  0  0  0
  4  8  2  0  0  0  0
  4 19  1  0  0  0  0
  6 16  1  0  0  0  0
  6  7  1  0  0  0  0
  7 10  1  0  0  0  0
  8 11  1  0  0  0  0
 10 13  1  0  0  0  0
 10 21  1  0  0  0  0
 11 14  2  0  0  0  0
 13  2  1  6  0  0  0
 13 16  1  0  0  0  0
 14 15  1  0  0  0  0
 14 17  1  0  0  0  0
 16 18  1  6  0  0  0
 17 19  2  0  0  0  0
 17 21  1  0  0  0  0
 18 20  1  0  0  0  0
 20 22  1  0  0  0  0
M  CHG  1   9  -1
M  END
>  <CHROM.1>
58.57575849,-112.63294581,154.51667169,-159.91282413,176.52559478,-61.92150424
23.88816976,39.94434547,65.85241317,-0.62968393,-0.03375915,0.01262635

>  <Name>
ligand

>  <RI>
0

>  <Rbt.Current_Directory>
/home/itssahil/PROJECTS/Mol_Feturizer/New_Systems/rnas/2HOM

>  <Rbt.Executable>
rbdock ($Id: //depot/dev/client3/rdock/2013.1/src/exe/rbdock.cxx#4 $)

>  <Rbt.Library>
libRbt.so (2013.1, Build901 2013/11/27)

>  <Rbt.Parameter_File>
/export/apps/rDock/src/rDock_2013.1_src/data/scripts/dock_solv.prm

>  <Rbt.Receptor>
prm/pocket_docking_6.prm

>  <SCORE>
-15.1525

>  <SCORE.INTER>
-16.0585

>  <SCORE.INTER.CONST>
1

>  <SCORE.INTER.POLAR>
0

>  <SCORE.INTER.ROT>
6

>  <SCORE.INTER.SOLV>
23.5504

>  <SCORE.INTER.VDW>
-26.1558

>  <SCORE.INTER.norm>
-0.72993

>  <SCORE.INTRA>
0.905976

>  <SCORE.INTRA.DIHEDRAL>
1.09331

>  <SCORE.INTRA.DIHEDRAL.0>
5.05013

>  <SCORE.INTRA.POLAR>
0

>  <SCORE.INTRA.POLAR.0>
0

>  <SCORE.INTRA.REPUL>
0

>  <SCORE.INTRA.REPUL.0>
0

>  <SCORE.INTRA.SOLV>
-0.0392595

>  <SCORE.INTRA.SOLV.lig_0>
-54.1265

>  <SCORE.INTRA.VDW>
0.378951

>  <SCORE.INTRA.VDW.0>
-2.1303

>  <SCORE.INTRA.norm>
0.0411807

>  <SCORE.RESTR>
0

>  <SCORE.RESTR.CAVITY>
0

>  <SCORE.RESTR.norm>
0

>  <SCORE.SYSTEM>
0

>  <SCORE.SYSTEM.CONST>
0

>  <SCORE.SYSTEM.DIHEDRAL>
0

>  <SCORE.SYSTEM.SOLV>
0

>  <SCORE.SYSTEM.norm>
0

>  <SCORE.heavy>
22

>  <SCORE.norm>
-0.68875

>  <RMSD>
8.195

$$$$
ligand
 OpenBabel11021811443D
libRbt.so/2013.1/901 2013/11/27
 22 23  0  0  0  0  0  0  0  0999 V2000
   30.1393   37.7956   62.7860 C   0  0  0  0  0  0  0  0  0  0  0  0
   24.0862   40.0822   67.7595 C   0  0  0  0  0  0  0  0  0  0  0  0
   20.2763   43.2298   65.2497 P   0  0  1  0  0  0  0  0  0  0  0  0
   28.1265   37.0385   63.8342 N   0  0  0  0  0  0  0  0  0  0  0  0
   19.5851   44.1553   66.1835 O   0  0  0  0  0  0  0  0  0  0  0  0
   22.7243   37.3551   65.1298 S   0  0  0  0  0  0  0  0  0  0  0  0
   24.3305   37.1539   65.5794 C   0  0  0  0  0  0  0  0  0  0  0  0
   29.2110   37.8852   63.9122 C   0  0  0  0  0  0  0  0  0  0  0  0
   19.4233   42.7407   64.1359 O   0  5  0  0  0  0  0  0  0  0  0  0
   24.8064   38.0582   66.4619 N   0  0  0  0  0  0  0  0  0  0  0  0
   29.4240   38.7017   64.9092 N   0  0  0  0  0  0  0  0  0  0  0  0
   21.5728   43.8220   64.7891 O   0  0  0  0  0  0  0  0  0  0  0  0
   23.8027   38.9705   66.7924 C   0  0  2  0  0  0  0  0  0  0  0  0
   28.5195   38.7625   65.9642 C   0  0  0  0  0  0  0  0  0  0  0  0
   28.7627   39.5862   66.9794 N   0  0  0  0  0  0  0  0  0  0  0  0
   22.5995   38.7543   66.1633 C   0  0  1  0  0  0  0  0  0  0  0  0
   27.3307   37.9267   65.9283 C   0  0  0  0  0  0  0  0  0  0  0  0
   21.3495   39.5493   66.2842 C   0  0  0  0  0  0  0  0  0  0  0  0
   27.2246   37.0745   64.8476 C   0  0  0  0  0  0  0  0  0  0  0  0
   21.4685   40.8514   65.5851 C   0  0  0  0  0  0  0  0  0  0  0  0
   26.2542   38.0398   66.9908 C   0  0  0  0  0  0  0  0  0  0  0  0
   20.6172   41.9067   66.0333 O   0  0  0  0  0  0  0  0  0  0  0  0
  1  8  1  0  0  0  0
  3  5  1  1  0  0  0
  3  9  1  0  0  0  0
  3 12  2  0  0  0  0
  3 22  1  0  0  0  0
  4  8  2  0  0  0  0
  4 19  1  0  0  0  0
  6 16  1  0  0  0  0
  6  7  1  0  0  0  0
  7 10  1  0  0  0  0
  8 11  1  0  0  0  0
 10 13  1  0  0  0  0
 10 21  1  0  0  0  0
 11 14  2  0  0  0  0
 13  2  1  6  0  0  0
 13 16  1  0  0  0  0
 14 15  1  0  0  0  0
 14 17  1  0  0  0  0
 16 18  1  6  0  0  0
 17 19  2  0  0  0  0
 17 21  1  0  0  0  0
 18 20  1  0  0  0  0
 20 22  1  0  0  0  0
M  CHG  1   9  -1
M  END
>  <CHROM.1>
49.50369406,-106.55699969,135.15607920,-155.78433524,-162.96762615,-168.87036460
24.15218981,39.73174030,65.51109496,-0.51730957,0.15629484,-0.15837661

>  <Name>
ligand

>  <RI>
0

>  <Rbt.Current_Directory>
/home/itssahil/PROJECTS/Mol_Feturizer/New_Systems/rnas/2HOM

>  <Rbt.Executable>
rbdock ($Id: //depot/dev/client3/rdock/2013.1/src/exe/rbdock.cxx#4 $)

>  <Rbt.Library>
libRbt.so (2013.1, Build901 2013/11/27)

>  <Rbt.Parameter_File>
/export/apps/rDock/src/rDock_2013.1_src/data/scripts/dock_solv.prm

>  <Rbt.Receptor>
prm/pocket_docking_6.prm

>  <SCORE>
-14.2576

>  <SCORE.INTER>
-16.5172

>  <SCORE.INTER.CONST>
1

>  <SCORE.INTER.POLAR>
0

>  <SCORE.INTER.ROT>
6

>  <SCORE.INTER.SOLV>
19.3393

>  <SCORE.INTER.VDW>
-25.0579

>  <SCORE.INTER.norm>
-0.750783

>  <SCORE.INTRA>
2.25966

>  <SCORE.INTRA.DIHEDRAL>
3.10458

>  <SCORE.INTRA.DIHEDRAL.0>
5.05013

>  <SCORE.INTRA.POLAR>
0

>  <SCORE.INTRA.POLAR.0>
0

>  <SCORE.INTRA.REPUL>
0

>  <SCORE.INTRA.REPUL.0>
0

>  <SCORE.INTRA.SOLV>
0.616399

>  <SCORE.INTRA.SOLV.lig_0>
-54.1265

>  <SCORE.INTRA.VDW>
0.399167

>  <SCORE.INTRA.VDW.0>
-2.1303

>  <SCORE.INTRA.norm>
0.102712

>  <SCORE.RESTR>
0

>  <SCORE.RESTR.CAVITY>
0

>  <SCORE.RESTR.norm>
0

>  <SCORE.SYSTEM>
0

>  <SCORE.SYSTEM.CONST>
0

>  <SCORE.SYSTEM.DIHEDRAL>
0

>  <SCORE.SYSTEM.SOLV>
0

>  <SCORE.SYSTEM.norm>
0

>  <SCORE.heavy>
22

>  <SCORE.norm>
-0.648071

>  <RMSD>
8.297

$$$$
ligand
 OpenBabel11021811443D
libRbt.so/2013.1/901 2013/11/27
 22 23  0  0  0  0  0  0  0  0999 V2000
   27.5191   37.5030   64.8012 C   0  0  0  0  0  0  0  0  0  0  0  0
   22.5288   41.4127   67.5163 C   0  0  0  0  0  0  0  0  0  0  0  0
   18.1237   40.1519   64.5558 P   0  0  1  0  0  0  0  0  0  0  0  0
   25.8017   39.1466   65.0703 N   0  0  0  0  0  0  0  0  0  0  0  0
   17.4301   40.4283   63.2718 O   0  0  0  0  0  0  0  0  0  0  0  0
   22.9215   44.4097   64.8573 S   0  0  0  0  0  0  0  0  0  0  0  0
   24.3622   43.8965   65.5526 C   0  0  0  0  0  0  0  0  0  0  0  0
   27.0411   38.7058   65.4814 C   0  0  0  0  0  0  0  0  0  0  0  0
   17.2135   39.7916   65.6734 O   0  5  0  0  0  0  0  0  0  0  0  0
   24.2522   42.8909   66.4468 N   0  0  0  0  0  0  0  0  0  0  0  0
   27.7464   39.2891   66.4131 N   0  0  0  0  0  0  0  0  0  0  0  0
   19.2319   39.1652   64.3506 O   0  0  0  0  0  0  0  0  0  0  0  0
   22.9137   42.5150   66.5740 C   0  0  2  0  0  0  0  0  0  0  0  0
   27.2621   40.4329   67.0392 C   0  0  0  0  0  0  0  0  0  0  0  0
   27.9859   41.0022   67.9985 N   0  0  0  0  0  0  0  0  0  0  0  0
   22.0387   43.2315   65.7921 C   0  0  1  0  0  0  0  0  0  0  0  0
   25.9792   40.9780   66.6266 C   0  0  0  0  0  0  0  0  0  0  0  0
   20.5613   43.0908   65.7101 C   0  0  0  0  0  0  0  0  0  0  0  0
   25.3014   40.2612   65.6611 C   0  0  0  0  0  0  0  0  0  0  0  0
   20.1751   41.7736   65.1495 C   0  0  0  0  0  0  0  0  0  0  0  0
   25.4600   42.2870   67.1902 C   0  0  0  0  0  0  0  0  0  0  0  0
   18.7777   41.4936   65.0587 O   0  0  0  0  0  0  0  0  0  0  0  0
  1  8  1  0  0  0  0
  3  5  1  6  0  0  0
  3  9  1  0  0  0  0
  3 12  2  0  0  0  0
  3 22  1  0  0  0  0
  4  8  2  0  0  0  0
  4 19  1  0  0  0  0
  6 16  1  0  0  0  0
  6  7  1  0  0  0  0
  7 10  1  0  0  0  0
  8 11  1  0  0  0  0
 10 13  1  0  0  0  0
 10 21  1  0  0  0  0
 11 14  2  0  0  0  0
 13  2  1  1  0  0  0
 13 16  1  0  0  0  0
 14 15  1  0  0  0  0
 14 17  1  0  0  0  0
 16 18  1  1  0  0  0
 17 19  2  0  0  0  0
 17 21  1  0  0  0  0
 18 20  1  0  0  0  0
 20 22  1  0  0  0  0
M  CHG  1   9  -1
M  END
>  <CHROM.1>
-100.27460525,115.15091409,167.21975508,177.98412580,-177.40410210,-112.33751316
22.75969151,41.17046627,65.61545280,0.02612245,0.20059074,-2.97331714

>  <Name>
ligand

>  <RI>
0

>  <Rbt.Current_Directory>
/home/itssahil/PROJECTS/Mol_Feturizer/New_Systems/rnas/2HOM

>  <Rbt.Executable>
rbdock ($Id: //depot/dev/client3/rdock/2013.1/src/exe/rbdock.cxx#4 $)

>  <Rbt.Library>
libRbt.so (2013.1, Build901 2013/11/27)

>  <Rbt.Parameter_File>
/export/apps/rDock/src/rDock_2013.1_src/data/scripts/dock_solv.prm

>  <Rbt.Receptor>
prm/pocket_docking_4.prm

>  <SCORE>
-14.1708

>  <SCORE.INTER>
-16.0956

>  <SCORE.INTER.CONST>
1

>  <SCORE.INTER.POLAR>
0

>  <SCORE.INTER.ROT>
6

>  <SCORE.INTER.SOLV>
20.6891

>  <SCORE.INTER.VDW>
-25.2268

>  <SCORE.INTER.norm>
-0.731619

>  <SCORE.INTRA>
1.61508

>  <SCORE.INTRA.DIHEDRAL>
1.96541

>  <SCORE.INTRA.DIHEDRAL.0>
5.05013

>  <SCORE.INTRA.POLAR>
0

>  <SCORE.INTRA.POLAR.0>
0

>  <SCORE.INTRA.REPUL>
0

>  <SCORE.INTRA.REPUL.0>
0

>  <SCORE.INTRA.SOLV>
0.326033

>  <SCORE.INTRA.SOLV.lig_0>
-54.1265

>  <SCORE.INTRA.VDW>
0.469362

>  <SCORE.INTRA.VDW.0>
-2.1303

>  <SCORE.INTRA.norm>
0.0734128

>  <SCORE.RESTR>
0.309705

>  <SCORE.RESTR.CAVITY>
0.309705

>  <SCORE.RESTR.norm>
0.0140775

>  <SCORE.SYSTEM>
0

>  <SCORE.SYSTEM.CONST>
0

>  <SCORE.SYSTEM.DIHEDRAL>
0

>  <SCORE.SYSTEM.SOLV>
0

>  <SCORE.SYSTEM.norm>
0

>  <SCORE.heavy>
22

>  <SCORE.norm>
-0.644129

>  <RMSD>
8.305

$$$$
ligand
 OpenBabel11021811443D
libRbt.so/2013.1/901 2013/11/27
 22 23  0  0  0  0  0  0  0  0999 V2000
   31.5072   35.7263   63.9265 C   0  0  0  0  0  0  0  0  0  0  0  0
   26.7488   39.1039   65.1547 C   0  0  0  0  0  0  0  0  0  0  0  0
   22.7053   42.1167   66.2950 P   0  0  1  0  0  0  0  0  0  0  0  0
   29.8218   35.6361   65.6220 N   0  0  0  0  0  0  0  0  0  0  0  0
   22.1140   41.7822   67.6159 O   0  0  0  0  0  0  0  0  0  0  0  0
   24.1413   37.4319   67.7261 S   0  0  0  0  0  0  0  0  0  0  0  0
   25.7208   37.5253   68.2913 C   0  0  0  0  0  0  0  0  0  0  0  0
   30.6998   36.4331   64.9197 C   0  0  0  0  0  0  0  0  0  0  0  0
   21.7044   42.4304   65.2428 O   0  5  0  0  0  0  0  0  0  0  0  0
   26.6110   38.0842   67.4437 N   0  0  0  0  0  0  0  0  0  0  0  0
   30.8305   37.7176   65.1170 N   0  0  0  0  0  0  0  0  0  0  0  0
   23.7598   43.1699   66.4447 O   0  0  0  0  0  0  0  0  0  0  0  0
   25.9686   38.4592   66.2623 C   0  0  2  0  0  0  0  0  0  0  0  0
   30.0453   38.3589   66.0695 C   0  0  0  0  0  0  0  0  0  0  0  0
   30.2057   39.6637   66.2693 N   0  0  0  0  0  0  0  0  0  0  0  0
   24.6228   38.1802   66.2263 C   0  0  1  0  0  0  0  0  0  0  0  0
   29.0679   37.5871   66.8191 C   0  0  0  0  0  0  0  0  0  0  0  0
   23.6664   38.4350   65.1174 C   0  0  0  0  0  0  0  0  0  0  0  0
   29.0403   36.2319   66.5579 C   0  0  0  0  0  0  0  0  0  0  0  0
   22.7779   39.5816   65.4241 C   0  0  0  0  0  0  0  0  0  0  0  0
   28.1051   38.2553   67.7819 C   0  0  0  0  0  0  0  0  0  0  0  0
   23.4090   40.8252   65.7315 O   0  0  0  0  0  0  0  0  0  0  0  0
  1  8  1  0  0  0  0
  3  5  1  1  0  0  0
  3  9  1  0  0  0  0
  3 12  2  0  0  0  0
  3 22  1  0  0  0  0
  4  8  2  0  0  0  0
  4 19  1  0  0  0  0
  6 16  1  0  0  0  0
  6  7  1  0  0  0  0
  7 10  1  0  0  0  0
  8 11  1  0  0  0  0
 10 13  1  0  0  0  0
 10 21  1  0  0  0  0
 11 14  2  0  0  0  0
 13  2  1  6  0  0  0
 13 16  1  0  0  0  0
 14 15  1  0  0  0  0
 14 17  1  0  0  0  0
 16 18  1  6  0  0  0
 17 19  2  0  0  0  0
 17 21  1  0  0  0  0
 18 20  1  0  0  0  0
 20 22  1  0  0  0  0
M  CHG  1   9  -1
M  END
>  <CHROM.1>
121.98589731,74.71232860,119.08254482,56.30787709,-170.20015502,61.46262985
26.06662411,38.97730657,66.25290370,-0.48003514,0.27481994,-0.33157410

>  <Name>
ligand

>  <RI>
0

>  <Rbt.Current_Directory>
/home/itssahil/PROJECTS/Mol_Feturizer/New_Systems/rnas/2HOM

>  <Rbt.Executable>
rbdock ($Id: //depot/dev/client3/rdock/2013.1/src/exe/rbdock.cxx#4 $)

>  <Rbt.Library>
libRbt.so (2013.1, Build901 2013/11/27)

>  <Rbt.Parameter_File>
/export/apps/rDock/src/rDock_2013.1_src/data/scripts/dock_solv.prm

>  <Rbt.Receptor>
prm/pocket_docking_8.prm

>  <SCORE>
-10.9472

>  <SCORE.INTER>
-11.1565

>  <SCORE.INTER.CONST>
1

>  <SCORE.INTER.POLAR>
0

>  <SCORE.INTER.ROT>
6

>  <SCORE.INTER.SOLV>
11.1278

>  <SCORE.INTER.VDW>
-18.7469

>  <SCORE.INTER.norm>
-0.507113

>  <SCORE.INTRA>
0.209241

>  <SCORE.INTRA.DIHEDRAL>
0.567545

>  <SCORE.INTRA.DIHEDRAL.0>
5.05013

>  <SCORE.INTRA.POLAR>
0

>  <SCORE.INTRA.POLAR.0>
0

>  <SCORE.INTRA.REPUL>
0

>  <SCORE.INTRA.REPUL.0>
0

>  <SCORE.INTRA.SOLV>
1.11646

>  <SCORE.INTRA.SOLV.lig_0>
-54.1265

>  <SCORE.INTRA.VDW>
-0.63276

>  <SCORE.INTRA.VDW.0>
-2.1303

>  <SCORE.INTRA.norm>
0.00951094

>  <SCORE.RESTR>
0

>  <SCORE.RESTR.CAVITY>
0

>  <SCORE.RESTR.norm>
0

>  <SCORE.SYSTEM>
0

>  <SCORE.SYSTEM.CONST>
0

>  <SCORE.SYSTEM.DIHEDRAL>
0

>  <SCORE.SYSTEM.SOLV>
0

>  <SCORE.SYSTEM.norm>
0

>  <SCORE.heavy>
22

>  <SCORE.norm>
-0.497602

>  <RMSD>
8.306

$$$$
ligand
 OpenBabel11021811443D
libRbt.so/2013.1/901 2013/11/27
 22 23  0  0  0  0  0  0  0  0999 V2000
   28.4274   38.6722   73.7691 C   0  0  0  0  0  0  0  0  0  0  0  0
   28.9023   35.0906   68.3118 C   0  0  0  0  0  0  0  0  0  0  0  0
   33.3065   35.6856   62.7368 P   0  0  1  0  0  0  0  0  0  0  0  0
   28.2090   39.1105   71.4274 N   0  0  0  0  0  0  0  0  0  0  0  0
   32.3694   36.2412   61.7271 O   0  0  0  0  0  0  0  0  0  0  0  0
   29.0313   37.7157   65.2623 S   0  0  0  0  0  0  0  0  0  0  0  0
   27.7972   37.9877   66.3694 C   0  0  0  0  0  0  0  0  0  0  0  0
   27.9905   38.2140   72.4511 C   0  0  0  0  0  0  0  0  0  0  0  0
   33.9138   34.3854   62.3523 O   0  5  0  0  0  0  0  0  0  0  0  0
   27.7373   37.1184   67.4008 N   0  0  0  0  0  0  0  0  0  0  0  0
   27.4517   37.0363   72.2817 N   0  0  0  0  0  0  0  0  0  0  0  0
   34.3157   36.7171   63.1382 O   0  0  0  0  0  0  0  0  0  0  0  0
   28.7580   36.1732   67.2830 C   0  0  2  0  0  0  0  0  0  0  0  0
   27.0461   36.6325   71.0139 C   0  0  0  0  0  0  0  0  0  0  0  0
   26.5167   35.4226   70.8579 N   0  0  0  0  0  0  0  0  0  0  0  0
   29.5629   36.3309   66.1795 C   0  0  1  0  0  0  0  0  0  0  0  0
   27.2083   37.5441   69.8934 C   0  0  0  0  0  0  0  0  0  0  0  0
   30.7145   35.4896   65.7610 C   0  0  0  0  0  0  0  0  0  0  0  0
   27.8232   38.7468   70.1781 C   0  0  0  0  0  0  0  0  0  0  0  0
   31.4317   36.0904   64.6109 C   0  0  0  0  0  0  0  0  0  0  0  0
   26.6754   37.2030   68.5149 C   0  0  0  0  0  0  0  0  0  0  0  0
   32.4774   35.3150   64.0237 O   0  0  0  0  0  0  0  0  0  0  0  0
  1  8  1  0  0  0  0
  3  5  1  6  0  0  0
  3  9  1  0  0  0  0
  3 12  2  0  0  0  0
  3 22  1  0  0  0  0
  4  8  2  0  0  0  0
  4 19  1  0  0  0  0
  6 16  1  0  0  0  0
  6  7  1  0  0  0  0
  7 10  1  0  0  0  0
  8 11  1  0  0  0  0
 10 13  1  0  0  0  0
 10 21  1  0  0  0  0
 11 14  2  0  0  0  0
 13  2  1  6  0  0  0
 13 16  1  0  0  0  0
 14 15  1  0  0  0  0
 14 17  1  0  0  0  0
 16 18  1  6  0  0  0
 17 19  2  0  0  0  0
 17 21  1  0  0  0  0
 18 20  1  0  0  0  0
 20 22  1  0  0  0  0
M  CHG  1   9  -1
M  END
>  <CHROM.1>
-113.36037884,7.95750572,-119.25745611,-173.85051926,175.13658131,-41.77400062
29.75455122,36.71506270,67.01233861,-2.14426894,0.17591793,-1.67741202

>  <Name>
ligand

>  <RI>
0

>  <Rbt.Current_Directory>
/home/itssahil/PROJECTS/Mol_Feturizer/New_Systems/rnas/2HOM

>  <Rbt.Executable>
rbdock ($Id: //depot/dev/client3/rdock/2013.1/src/exe/rbdock.cxx#4 $)

>  <Rbt.Library>
libRbt.so (2013.1, Build901 2013/11/27)

>  <Rbt.Parameter_File>
/export/apps/rDock/src/rDock_2013.1_src/data/scripts/dock_solv.prm

>  <Rbt.Receptor>
prm/pocket_docking_7.prm

>  <SCORE>
-8.49284

>  <SCORE.INTER>
-10.4318

>  <SCORE.INTER.CONST>
1

>  <SCORE.INTER.POLAR>
0

>  <SCORE.INTER.ROT>
6

>  <SCORE.INTER.SOLV>
14.0623

>  <SCORE.INTER.VDW>
-19.2419

>  <SCORE.INTER.norm>
-0.474171

>  <SCORE.INTRA>
1.93892

>  <SCORE.INTRA.DIHEDRAL>
0.269418

>  <SCORE.INTRA.DIHEDRAL.0>
5.05013

>  <SCORE.INTRA.POLAR>
0

>  <SCORE.INTRA.POLAR.0>
0

>  <SCORE.INTRA.REPUL>
0

>  <SCORE.INTRA.REPUL.0>
0

>  <SCORE.INTRA.SOLV>
1.2589

>  <SCORE.INTRA.SOLV.lig_0>
-54.1265

>  <SCORE.INTRA.VDW>
1.17476

>  <SCORE.INTRA.VDW.0>
-2.1303

>  <SCORE.INTRA.norm>
0.0881327

>  <SCORE.RESTR>
0

>  <SCORE.RESTR.CAVITY>
0

>  <SCORE.RESTR.norm>
0

>  <SCORE.SYSTEM>
0

>  <SCORE.SYSTEM.CONST>
0

>  <SCORE.SYSTEM.DIHEDRAL>
0

>  <SCORE.SYSTEM.SOLV>
0

>  <SCORE.SYSTEM.norm>
0

>  <SCORE.heavy>
22

>  <SCORE.norm>
-0.386038

>  <RMSD>
8.446

$$$$
ligand
 OpenBabel11021811443D
libRbt.so/2013.1/901 2013/11/27
 22 23  0  0  0  0  0  0  0  0999 V2000
   22.1382   32.6600   69.5587 C   0  0  0  0  0  0  0  0  0  0  0  0
   26.8815   37.9642   74.6374 C   0  0  0  0  0  0  0  0  0  0  0  0
   29.0399   43.2712   71.7835 P   0  0  1  0  0  0  0  0  0  0  0  0
   23.4827   34.5669   70.0872 N   0  0  0  0  0  0  0  0  0  0  0  0
   27.7003   43.7247   72.2375 O   0  0  0  0  0  0  0  0  0  0  0  0
   27.7739   37.6420   70.7250 S   0  0  0  0  0  0  0  0  0  0  0  0
   26.5866   36.5818   71.2626 C   0  0  0  0  0  0  0  0  0  0  0  0
   22.8711   33.4278   70.5644 C   0  0  0  0  0  0  0  0  0  0  0  0
   29.1554   43.0930   70.3130 O   0  5  0  0  0  0  0  0  0  0  0  0
   26.2719   36.6747   72.5723 N   0  0  0  0  0  0  0  0  0  0  0  0
   22.9147   33.0498   71.8138 N   0  0  0  0  0  0  0  0  0  0  0  0
   30.1118   44.1428   72.3622 O   0  0  0  0  0  0  0  0  0  0  0  0
   27.0441   37.6693   73.1753 C   0  0  2  0  0  0  0  0  0  0  0  0
   23.6224   33.8033   72.7446 C   0  0  0  0  0  0  0  0  0  0  0  0
   23.6399   33.4129   74.0156 N   0  0  0  0  0  0  0  0  0  0  0  0
   27.9242   38.3044   72.3313 C   0  0  1  0  0  0  0  0  0  0  0  0
   24.3269   34.9959   72.3034 C   0  0  0  0  0  0  0  0  0  0  0  0
   28.8900   39.3845   72.6630 C   0  0  0  0  0  0  0  0  0  0  0  0
   24.1824   35.3236   70.9703 C   0  0  0  0  0  0  0  0  0  0  0  0
   28.5729   40.6349   71.9320 C   0  0  0  0  0  0  0  0  0  0  0  0
   25.2100   35.7862   73.2499 C   0  0  0  0  0  0  0  0  0  0  0  0
   29.2751   41.8129   72.3300 O   0  0  0  0  0  0  0  0  0  0  0  0
  1  8  1  0  0  0  0
  3  5  1  1  0  0  0
  3  9  1  0  0  0  0
  3 12  2  0  0  0  0
  3 22  1  0  0  0  0
  4  8  2  0  0  0  0
  4 19  1  0  0  0  0
  6 16  1  0  0  0  0
  6  7  1  0  0  0  0
  7 10  1  0  0  0  0
  8 11  1  0  0  0  0
 10 13  1  0  0  0  0
 10 21  1  0  0  0  0
 11 14  2  0  0  0  0
 13  2  1  1  0  0  0
 13 16  1  0  0  0  0
 14 15  1  0  0  0  0
 14 17  1  0  0  0  0
 16 18  1  1  0  0  0
 17 19  2  0  0  0  0
 17 21  1  0  0  0  0
 18 20  1  0  0  0  0
 20 22  1  0  0  0  0
M  CHG  1   9  -1
M  END
>  <CHROM.1>
-12.33915184,63.72340251,158.38689075,169.43996063,-175.20402708,67.61241785
26.57342790,38.11061526,71.90625543,2.84557535,0.98346674,1.95861720

>  <Name>
ligand

>  <RI>
0

>  <Rbt.Current_Directory>
/home/itssahil/PROJECTS/Mol_Feturizer/New_Systems/rnas/2HOM

>  <Rbt.Executable>
rbdock ($Id: //depot/dev/client3/rdock/2013.1/src/exe/rbdock.cxx#4 $)

>  <Rbt.Library>
libRbt.so (2013.1, Build901 2013/11/27)

>  <Rbt.Parameter_File>
/export/apps/rDock/src/rDock_2013.1_src/data/scripts/dock_solv.prm

>  <Rbt.Receptor>
prm/blind_docking_100.prm

>  <SCORE>
-14.5327

>  <SCORE.INTER>
-16.3443

>  <SCORE.INTER.CONST>
1

>  <SCORE.INTER.POLAR>
-1.18585

>  <SCORE.INTER.ROT>
6

>  <SCORE.INTER.SOLV>
16.0115

>  <SCORE.INTER.VDW>
-19.8805

>  <SCORE.INTER.norm>
-0.742923

>  <SCORE.INTRA>
1.79592

>  <SCORE.INTRA.DIHEDRAL>
0.814434

>  <SCORE.INTRA.DIHEDRAL.0>
5.05013

>  <SCORE.INTRA.POLAR>
0

>  <SCORE.INTRA.POLAR.0>
0

>  <SCORE.INTRA.REPUL>
0

>  <SCORE.INTRA.REPUL.0>
0

>  <SCORE.INTRA.SOLV>
0.0780999

>  <SCORE.INTRA.SOLV.lig_0>
-54.1265

>  <SCORE.INTRA.VDW>
1.34965

>  <SCORE.INTRA.VDW.0>
-2.1303

>  <SCORE.INTRA.norm>
0.0816328

>  <SCORE.RESTR>
0.0156999

>  <SCORE.RESTR.CAVITY>
0.0156999

>  <SCORE.RESTR.norm>
0.000713632

>  <SCORE.SYSTEM>
0

>  <SCORE.SYSTEM.CONST>
0

>  <SCORE.SYSTEM.DIHEDRAL>
0

>  <SCORE.SYSTEM.SOLV>
0

>  <SCORE.SYSTEM.norm>
0

>  <SCORE.heavy>
22

>  <SCORE.norm>
-0.660576

>  <RMSD>
8.455

$$$$
ligand
 OpenBabel11021811443D
libRbt.so/2013.1/901 2013/11/27
 22 23  0  0  0  0  0  0  0  0999 V2000
   29.5673   38.9566   64.5104 C   0  0  0  0  0  0  0  0  0  0  0  0
   23.1932   40.8266   67.9933 C   0  0  0  0  0  0  0  0  0  0  0  0
   18.2551   39.5822   65.0769 P   0  0  1  0  0  0  0  0  0  0  0  0
   27.1780   38.8389   64.5372 N   0  0  0  0  0  0  0  0  0  0  0  0
   18.8980   39.1015   66.3267 O   0  0  0  0  0  0  0  0  0  0  0  0
   21.4891   39.0538   64.8058 S   0  0  0  0  0  0  0  0  0  0  0  0
   22.7973   38.2224   65.4538 C   0  0  0  0  0  0  0  0  0  0  0  0
   28.3403   38.7087   65.2661 C   0  0  0  0  0  0  0  0  0  0  0  0
   18.7690   38.9365   63.8415 O   0  5  0  0  0  0  0  0  0  0  0  0
   23.3826   38.8001   66.5247 N   0  0  0  0  0  0  0  0  0  0  0  0
   28.3716   38.3766   66.5289 N   0  0  0  0  0  0  0  0  0  0  0  0
   16.7634   39.5261   65.2002 O   0  0  0  0  0  0  0  0  0  0  0  0
   22.7263   39.9922   66.8369 C   0  0  2  0  0  0  0  0  0  0  0  0
   27.1850   38.1490   67.2182 C   0  0  0  0  0  0  0  0  0  0  0  0
   27.2375   37.7935   68.4985 N   0  0  0  0  0  0  0  0  0  0  0  0
   21.6726   40.3019   66.0099 C   0  0  1  0  0  0  0  0  0  0  0  0
   25.9188   38.3087   66.5224 C   0  0  0  0  0  0  0  0  0  0  0  0
   20.7904   41.4969   66.0628 C   0  0  0  0  0  0  0  0  0  0  0  0
   26.0029   38.6245   65.1813 C   0  0  0  0  0  0  0  0  0  0  0  0
   19.9775   41.6224   64.8292 C   0  0  0  0  0  0  0  0  0  0  0  0
   24.5957   38.1904   67.2545 C   0  0  0  0  0  0  0  0  0  0  0  0
   18.6521   41.0925   64.8708 O   0  0  0  0  0  0  0  0  0  0  0  0
  1  8  1  0  0  0  0
  3  5  1  1  0  0  0
  3  9  1  0  0  0  0
  3 12  2  0  0  0  0
  3 22  1  0  0  0  0
  4  8  2  0  0  0  0
  4 19  1  0  0  0  0
  6 16  1  0  0  0  0
  6  7  1  0  0  0  0
  7 10  1  0  0  0  0
  8 11  1  0  0  0  0
 10 13  1  0  0  0  0
 10 21  1  0  0  0  0
 11 14  2  0  0  0  0
 13  2  1  6  0  0  0
 13 16  1  0  0  0  0
 14 15  1  0  0  0  0
 14 17  1  0  0  0  0
 16 18  1  6  0  0  0
 17 19  2  0  0  0  0
 17 21  1  0  0  0  0
 18 20  1  0  0  0  0
 20 22  1  0  0  0  0
M  CHG  1   9  -1
M  END
>  <CHROM.1>
74.27347278,-12.38006031,161.76556281,96.12920018,-63.43682991,54.70971990
22.74916241,39.32573510,65.75747208,-0.10572306,0.16030060,-1.60507448

>  <Name>
ligand

>  <RI>
0

>  <Rbt.Current_Directory>
/home/itssahil/PROJECTS/Mol_Feturizer/New_Systems/rnas/2HOM

>  <Rbt.Executable>
rbdock ($Id: //depot/dev/client3/rdock/2013.1/src/exe/rbdock.cxx#4 $)

>  <Rbt.Library>
libRbt.so (2013.1, Build901 2013/11/27)

>  <Rbt.Parameter_File>
/export/apps/rDock/src/rDock_2013.1_src/data/scripts/dock_solv.prm

>  <Rbt.Receptor>
prm/pocket_docking_3.prm

>  <SCORE>
-10.9658

>  <SCORE.INTER>
-14.0404

>  <SCORE.INTER.CONST>
1

>  <SCORE.INTER.POLAR>
0

>  <SCORE.INTER.ROT>
6

>  <SCORE.INTER.SOLV>
21.1592

>  <SCORE.INTER.VDW>
-24.0134

>  <SCORE.INTER.norm>
-0.638201

>  <SCORE.INTRA>
3.06656

>  <SCORE.INTRA.DIHEDRAL>
3.42562

>  <SCORE.INTRA.DIHEDRAL.0>
5.05013

>  <SCORE.INTRA.POLAR>
0

>  <SCORE.INTRA.POLAR.0>
0

>  <SCORE.INTRA.REPUL>
0

>  <SCORE.INTRA.REPUL.0>
0

>  <SCORE.INTRA.SOLV>
1.40484

>  <SCORE.INTRA.SOLV.lig_0>
-54.1265

>  <SCORE.INTRA.VDW>
0.65133

>  <SCORE.INTRA.VDW.0>
-2.1303

>  <SCORE.INTRA.norm>
0.139389

>  <SCORE.RESTR>
0.00808252

>  <SCORE.RESTR.CAVITY>
0.00808252

>  <SCORE.RESTR.norm>
0.000367387

>  <SCORE.SYSTEM>
0

>  <SCORE.SYSTEM.CONST>
0

>  <SCORE.SYSTEM.DIHEDRAL>
0

>  <SCORE.SYSTEM.SOLV>
0

>  <SCORE.SYSTEM.norm>
0

>  <SCORE.heavy>
22

>  <SCORE.norm>
-0.498444

>  <RMSD>
8.465

$$$$
ligand
 OpenBabel11021811443D
libRbt.so/2013.1/901 2013/11/27
 22 23  0  0  0  0  0  0  0  0999 V2000
   26.6324   36.5980   71.8166 C   0  0  0  0  0  0  0  0  0  0  0  0
   25.5268   40.9378   66.3140 C   0  0  0  0  0  0  0  0  0  0  0  0
   18.8202   40.1389   65.0175 P   0  0  1  0  0  0  0  0  0  0  0  0
   25.4558   37.3224   69.8636 N   0  0  0  0  0  0  0  0  0  0  0  0
   18.1646   41.4358   65.3253 O   0  0  0  0  0  0  0  0  0  0  0  0
   22.7670   38.4754   64.7245 S   0  0  0  0  0  0  0  0  0  0  0  0
   24.1815   37.7161   65.2197 C   0  0  0  0  0  0  0  0  0  0  0  0
   26.6765   36.9858   70.4075 C   0  0  0  0  0  0  0  0  0  0  0  0
   18.8673   39.1945   66.1634 O   0  5  0  0  0  0  0  0  0  0  0  0
   25.1199   38.5248   65.7568 N   0  0  0  0  0  0  0  0  0  0  0  0
   27.8005   37.0171   69.7429 N   0  0  0  0  0  0  0  0  0  0  0  0
   18.2357   39.5381   63.7761 O   0  0  0  0  0  0  0  0  0  0  0  0
   24.6597   39.8428   65.7659 C   0  0  2  0  0  0  0  0  0  0  0  0
   27.8064   37.3897   68.4027 C   0  0  0  0  0  0  0  0  0  0  0  0
   28.9627   37.4337   67.7476 N   0  0  0  0  0  0  0  0  0  0  0  0
   23.4014   40.0160   65.2396 C   0  0  1  0  0  0  0  0  0  0  0  0
   26.5485   37.7182   67.7524 C   0  0  0  0  0  0  0  0  0  0  0  0
   22.6409   41.2841   65.0887 C   0  0  0  0  0  0  0  0  0  0  0  0
   25.4275   37.6894   68.5574 C   0  0  0  0  0  0  0  0  0  0  0  0
   21.2465   41.1375   65.5709 C   0  0  0  0  0  0  0  0  0  0  0  0
   26.4822   38.0142   66.2663 C   0  0  0  0  0  0  0  0  0  0  0  0
   20.3442   40.4155   64.7319 O   0  0  0  0  0  0  0  0  0  0  0  0
  1  8  1  0  0  0  0
  3  5  1  1  0  0  0
  3  9  1  0  0  0  0
  3 12  2  0  0  0  0
  3 22  1  0  0  0  0
  4  8  2  0  0  0  0
  4 19  1  0  0  0  0
  6 16  1  0  0  0  0
  6  7  1  0  0  0  0
  7 10  1  0  0  0  0
  8 11  1  0  0  0  0
 10 13  1  0  0  0  0
 10 21  1  0  0  0  0
 11 14  2  0  0  0  0
 13  2  1  6  0  0  0
 13 16  1  0  0  0  0
 14 15  1  0  0  0  0
 14 17  1  0  0  0  0
 16 18  1  6  0  0  0
 17 19  2  0  0  0  0
 17 21  1  0  0  0  0
 18 20  1  0  0  0  0
 20 22  1  0  0  0  0
M  CHG  1   9  -1
M  END
>  <CHROM.1>
-95.26725467,47.66001974,-172.31576713,-75.11858650,-179.41824646,52.16936819
23.41301214,38.95691331,66.53522063,0.56779015,-0.12215994,1.98847634

>  <Name>
ligand

>  <RI>
0

>  <Rbt.Current_Directory>
/home/itssahil/PROJECTS/Mol_Feturizer/New_Systems/rnas/2HOM

>  <Rbt.Executable>
rbdock ($Id: //depot/dev/client3/rdock/2013.1/src/exe/rbdock.cxx#4 $)

>  <Rbt.Library>
libRbt.so (2013.1, Build901 2013/11/27)

>  <Rbt.Parameter_File>
/export/apps/rDock/src/rDock_2013.1_src/data/scripts/dock_solv.prm

>  <Rbt.Receptor>
prm/pocket_docking_8.prm

>  <SCORE>
-19.2895

>  <SCORE.INTER>
-19.5862

>  <SCORE.INTER.CONST>
1

>  <SCORE.INTER.POLAR>
-1.30767

>  <SCORE.INTER.ROT>
6

>  <SCORE.INTER.SOLV>
20.4197

>  <SCORE.INTER.VDW>
-23.1051

>  <SCORE.INTER.norm>
-0.890281

>  <SCORE.INTRA>
0.296711

>  <SCORE.INTRA.DIHEDRAL>
0.91724

>  <SCORE.INTRA.DIHEDRAL.0>
5.05013

>  <SCORE.INTRA.POLAR>
0

>  <SCORE.INTRA.POLAR.0>
0

>  <SCORE.INTRA.REPUL>
0

>  <SCORE.INTRA.REPUL.0>
0

>  <SCORE.INTRA.SOLV>
-0.0888037

>  <SCORE.INTRA.SOLV.lig_0>
-54.1265

>  <SCORE.INTRA.VDW>
-0.117507

>  <SCORE.INTRA.VDW.0>
-2.1303

>  <SCORE.INTRA.norm>
0.0134869

>  <SCORE.RESTR>
0

>  <SCORE.RESTR.CAVITY>
0

>  <SCORE.RESTR.norm>
0

>  <SCORE.SYSTEM>
0

>  <SCORE.SYSTEM.CONST>
0

>  <SCORE.SYSTEM.DIHEDRAL>
0

>  <SCORE.SYSTEM.SOLV>
0

>  <SCORE.SYSTEM.norm>
0

>  <SCORE.heavy>
22

>  <SCORE.norm>
-0.876794

>  <RMSD>
8.469

$$$$
ligand
 OpenBabel11021811443D
libRbt.so/2013.1/901 2013/11/27
 22 23  0  0  0  0  0  0  0  0999 V2000
   28.3209   39.0723   74.9496 C   0  0  0  0  0  0  0  0  0  0  0  0
   27.2413   38.1054   68.0547 C   0  0  0  0  0  0  0  0  0  0  0  0
   30.7584   36.7950   63.2744 P   0  0  1  0  0  0  0  0  0  0  0  0
   28.1615   38.7584   72.5833 N   0  0  0  0  0  0  0  0  0  0  0  0
   31.4875   35.5163   63.4740 O   0  0  0  0  0  0  0  0  0  0  0  0
   28.8947   34.4362   67.9550 S   0  0  0  0  0  0  0  0  0  0  0  0
   27.8220   34.6872   69.2235 C   0  0  0  0  0  0  0  0  0  0  0  0
   27.7864   38.3012   73.8282 C   0  0  0  0  0  0  0  0  0  0  0  0
   31.2112   37.8979   64.1608 O   0  5  0  0  0  0  0  0  0  0  0  0
   27.2556   35.9118   69.2741 N   0  0  0  0  0  0  0  0  0  0  0  0
   27.0271   37.2558   74.0188 N   0  0  0  0  0  0  0  0  0  0  0  0
   30.7420   37.1675   61.8236 O   0  0  0  0  0  0  0  0  0  0  0  0
   27.7230   36.6936   68.2161 C   0  0  2  0  0  0  0  0  0  0  0  0
   26.5344   36.5454   72.9290 C   0  0  0  0  0  0  0  0  0  0  0  0
   25.7783   35.4728   73.1431 N   0  0  0  0  0  0  0  0  0  0  0  0
   28.6271   36.0652   67.3927 C   0  0  1  0  0  0  0  0  0  0  0  0
   26.8561   36.9958   71.5848 C   0  0  0  0  0  0  0  0  0  0  0  0
   29.3186   36.6227   66.2010 C   0  0  0  0  0  0  0  0  0  0  0  0
   27.6963   38.0876   71.4991 C   0  0  0  0  0  0  0  0  0  0  0  0
   28.8192   36.0046   64.9492 C   0  0  0  0  0  0  0  0  0  0  0  0
   26.2493   36.3315   70.3637 C   0  0  0  0  0  0  0  0  0  0  0  0
   29.2630   36.5817   63.7207 O   0  0  0  0  0  0  0  0  0  0  0  0
  1  8  1  0  0  0  0
  3  5  1  1  0  0  0
  3  9  1  0  0  0  0
  3 12  2  0  0  0  0
  3 22  1  0  0  0  0
  4  8  2  0  0  0  0
  4 19  1  0  0  0  0
  6 16  1  0  0  0  0
  6  7  1  0  0  0  0
  7 10  1  0  0  0  0
  8 11  1  0  0  0  0
 10 13  1  0  0  0  0
 10 21  1  0  0  0  0
 11 14  2  0  0  0  0
 13  2  1  1  0  0  0
 13 16  1  0  0  0  0
 14 15  1  0  0  0  0
 14 17  1  0  0  0  0
 16 18  1  1  0  0  0
 17 19  2  0  0  0  0
 17 21  1  0  0  0  0
 18 20  1  0  0  0  0
 20 22  1  0  0  0  0
M  CHG  1   9  -1
M  END
>  <CHROM.1>
91.95305105,70.57925477,-129.53530976,171.43472944,55.53764190,49.59105840
28.57717192,36.67368672,68.24806759,-2.23244742,-1.01045090,-2.23871515

>  <Name>
ligand

>  <RI>
0

>  <Rbt.Current_Directory>
/home/itssahil/PROJECTS/Mol_Feturizer/New_Systems/rnas/2HOM

>  <Rbt.Executable>
rbdock ($Id: //depot/dev/client3/rdock/2013.1/src/exe/rbdock.cxx#4 $)

>  <Rbt.Library>
libRbt.so (2013.1, Build901 2013/11/27)

>  <Rbt.Parameter_File>
/export/apps/rDock/src/rDock_2013.1_src/data/scripts/dock_solv.prm

>  <Rbt.Receptor>
prm/pocket_docking_8.prm

>  <SCORE>
-15.0096

>  <SCORE.INTER>
-15.9156

>  <SCORE.INTER.CONST>
1

>  <SCORE.INTER.POLAR>
0

>  <SCORE.INTER.ROT>
6

>  <SCORE.INTER.SOLV>
10.3458

>  <SCORE.INTER.VDW>
-21.659

>  <SCORE.INTER.norm>
-0.723437

>  <SCORE.INTRA>
0.905993

>  <SCORE.INTRA.DIHEDRAL>
0.595159

>  <SCORE.INTRA.DIHEDRAL.0>
5.05013

>  <SCORE.INTRA.POLAR>
0

>  <SCORE.INTRA.POLAR.0>
0

>  <SCORE.INTRA.REPUL>
0

>  <SCORE.INTRA.REPUL.0>
0

>  <SCORE.INTRA.SOLV>
0.929027

>  <SCORE.INTRA.SOLV.lig_0>
-54.1265

>  <SCORE.INTRA.VDW>
0.1439

>  <SCORE.INTRA.VDW.0>
-2.1303

>  <SCORE.INTRA.norm>
0.0411815

>  <SCORE.RESTR>
0

>  <SCORE.RESTR.CAVITY>
0

>  <SCORE.RESTR.norm>
0

>  <SCORE.SYSTEM>
0

>  <SCORE.SYSTEM.CONST>
0

>  <SCORE.SYSTEM.DIHEDRAL>
0

>  <SCORE.SYSTEM.SOLV>
0

>  <SCORE.SYSTEM.norm>
0

>  <SCORE.heavy>
22

>  <SCORE.norm>
-0.682256

>  <RMSD>
8.499

$$$$
ligand
 OpenBabel11021811443D
libRbt.so/2013.1/901 2013/11/27
 22 23  0  0  0  0  0  0  0  0999 V2000
   28.6270   38.3774   65.3750 C   0  0  0  0  0  0  0  0  0  0  0  0
   22.7399   42.6424   67.1152 C   0  0  0  0  0  0  0  0  0  0  0  0
   17.3735   39.6870   64.1086 P   0  0  1  0  0  0  0  0  0  0  0  0
   26.8084   39.8912   65.7283 N   0  0  0  0  0  0  0  0  0  0  0  0
   16.8775   40.3432   62.8717 O   0  0  0  0  0  0  0  0  0  0  0  0
   20.4379   39.4992   66.1014 S   0  0  0  0  0  0  0  0  0  0  0  0
   21.8054   39.1070   66.9951 C   0  0  0  0  0  0  0  0  0  0  0  0
   27.4012   38.7045   66.1020 C   0  0  0  0  0  0  0  0  0  0  0  0
   16.2994   39.2444   65.0347 O   0  5  0  0  0  0  0  0  0  0  0  0
   22.5906   40.1478   67.3461 N   0  0  0  0  0  0  0  0  0  0  0  0
   26.9186   37.9095   67.0191 N   0  0  0  0  0  0  0  0  0  0  0  0
   18.3506   38.6032   63.7707 O   0  0  0  0  0  0  0  0  0  0  0  0
   22.0462   41.3371   66.8581 C   0  0  2  0  0  0  0  0  0  0  0  0
   25.7506   38.2519   67.6924 C   0  0  0  0  0  0  0  0  0  0  0  0
   25.2644   37.4210   68.6097 N   0  0  0  0  0  0  0  0  0  0  0  0
   20.8773   41.1862   66.1501 C   0  0  1  0  0  0  0  0  0  0  0  0
   25.0938   39.5101   67.3784 C   0  0  0  0  0  0  0  0  0  0  0  0
   20.0654   42.2426   65.4912 C   0  0  0  0  0  0  0  0  0  0  0  0
   25.6677   40.2545   66.3674 C   0  0  0  0  0  0  0  0  0  0  0  0
   19.1448   41.6652   64.4826 C   0  0  0  0  0  0  0  0  0  0  0  0
   23.8875   39.9881   68.1638 C   0  0  0  0  0  0  0  0  0  0  0  0
   18.1444   40.7648   64.9600 O   0  0  0  0  0  0  0  0  0  0  0  0
  1  8  1  0  0  0  0
  3  5  1  6  0  0  0
  3  9  1  0  0  0  0
  3 12  2  0  0  0  0
  3 22  1  0  0  0  0
  4  8  2  0  0  0  0
  4 19  1  0  0  0  0
  6 16  1  0  0  0  0
  6  7  1  0  0  0  0
  7 10  1  0  0  0  0
  8 11  1  0  0  0  0
 10 13  1  0  0  0  0
 10 21  1  0  0  0  0
 11 14  2  0  0  0  0
 13  2  1  6  0  0  0
 13 16  1  0  0  0  0
 14 15  1  0  0  0  0
 14 17  1  0  0  0  0
 16 18  1  6  0  0  0
 17 19  2  0  0  0  0
 17 21  1  0  0  0  0
 18 20  1  0  0  0  0
 20 22  1  0  0  0  0
M  CHG  1   9  -1
M  END
>  <CHROM.1>
78.65768642,-17.81514909,-117.97361203,62.88146439,-158.87436258,-48.40228008
21.85125061,39.83158546,65.90751019,0.02226760,0.30257432,-2.77065249

>  <Name>
ligand

>  <RI>
0

>  <Rbt.Current_Directory>
/home/itssahil/PROJECTS/Mol_Feturizer/New_Systems/rnas/2HOM

>  <Rbt.Executable>
rbdock ($Id: //depot/dev/client3/rdock/2013.1/src/exe/rbdock.cxx#4 $)

>  <Rbt.Library>
libRbt.so (2013.1, Build901 2013/11/27)

>  <Rbt.Parameter_File>
/export/apps/rDock/src/rDock_2013.1_src/data/scripts/dock_solv.prm

>  <Rbt.Receptor>
prm/pocket_docking_2.prm

>  <SCORE>
-10.1653

>  <SCORE.INTER>
-12.1935

>  <SCORE.INTER.CONST>
1

>  <SCORE.INTER.POLAR>
0

>  <SCORE.INTER.ROT>
6

>  <SCORE.INTER.SOLV>
27.9473

>  <SCORE.INTER.VDW>
-25.0447

>  <SCORE.INTER.norm>
-0.554249

>  <SCORE.INTRA>
1.85014

>  <SCORE.INTRA.DIHEDRAL>
1.88692

>  <SCORE.INTRA.DIHEDRAL.0>
5.05013

>  <SCORE.INTRA.POLAR>
0

>  <SCORE.INTRA.POLAR.0>
0

>  <SCORE.INTRA.REPUL>
0

>  <SCORE.INTRA.REPUL.0>
0

>  <SCORE.INTRA.SOLV>
0.445419

>  <SCORE.INTRA.SOLV.lig_0>
-54.1265

>  <SCORE.INTRA.VDW>
0.683974

>  <SCORE.INTRA.VDW.0>
-2.1303

>  <SCORE.INTRA.norm>
0.0840974

>  <SCORE.RESTR>
0.178001

>  <SCORE.RESTR.CAVITY>
0.178001

>  <SCORE.RESTR.norm>
0.00809095

>  <SCORE.SYSTEM>
0

>  <SCORE.SYSTEM.CONST>
0

>  <SCORE.SYSTEM.DIHEDRAL>
0

>  <SCORE.SYSTEM.SOLV>
0

>  <SCORE.SYSTEM.norm>
0

>  <SCORE.heavy>
22

>  <SCORE.norm>
-0.46206

>  <RMSD>
8.570

$$$$
ligand
 OpenBabel11021811443D
libRbt.so/2013.1/901 2013/11/27
 22 23  0  0  0  0  0  0  0  0999 V2000
   24.5436   36.0049   76.6340 C   0  0  0  0  0  0  0  0  0  0  0  0
   28.2103   36.4516   70.6329 C   0  0  0  0  0  0  0  0  0  0  0  0
   29.3165   36.6320   65.4979 P   0  0  1  0  0  0  0  0  0  0  0  0
   24.8427   36.5588   74.3260 N   0  0  0  0  0  0  0  0  0  0  0  0
   29.8291   37.7608   64.6798 O   0  0  0  0  0  0  0  0  0  0  0  0
   24.9509   37.3672   68.4547 S   0  0  0  0  0  0  0  0  0  0  0  0
   24.7551   36.0620   69.4942 C   0  0  0  0  0  0  0  0  0  0  0  0
   24.9299   35.5779   75.2900 C   0  0  0  0  0  0  0  0  0  0  0  0
   28.4815   35.6632   64.7419 O   0  5  0  0  0  0  0  0  0  0  0  0
   25.8369   35.7393   70.2349 N   0  0  0  0  0  0  0  0  0  0  0  0
   25.3368   34.3599   75.0512 N   0  0  0  0  0  0  0  0  0  0  0  0
   30.4339   35.9865   66.2584 O   0  0  0  0  0  0  0  0  0  0  0  0
   26.8895   36.6071   69.9383 C   0  0  2  0  0  0  0  0  0  0  0  0
   25.6958   33.9866   73.7602 C   0  0  0  0  0  0  0  0  0  0  0  0
   26.1254   32.7476   73.5399 N   0  0  0  0  0  0  0  0  0  0  0  0
   26.6002   37.5582   68.9885 C   0  0  1  0  0  0  0  0  0  0  0  0
   25.5890   34.9592   72.6852 C   0  0  0  0  0  0  0  0  0  0  0  0
   27.5000   38.6080   68.4432 C   0  0  0  0  0  0  0  0  0  0  0  0
   25.1848   36.2261   73.0555 C   0  0  0  0  0  0  0  0  0  0  0  0
   28.6313   38.0122   67.6925 C   0  0  0  0  0  0  0  0  0  0  0  0
   25.8522   34.5727   71.2423 C   0  0  0  0  0  0  0  0  0  0  0  0
   28.3039   37.2130   66.5552 O   0  0  0  0  0  0  0  0  0  0  0  0
  1  8  1  0  0  0  0
  3  5  1  6  0  0  0
  3  9  1  0  0  0  0
  3 12  2  0  0  0  0
  3 22  1  0  0  0  0
  4  8  2  0  0  0  0
  4 19  1  0  0  0  0
  6 16  1  0  0  0  0
  6  7  1  0  0  0  0
  7 10  1  0  0  0  0
  8 11  1  0  0  0  0
 10 13  1  0  0  0  0
 10 21  1  0  0  0  0
 11 14  2  0  0  0  0
 13  2  1  6  0  0  0
 13 16  1  0  0  0  0
 14 15  1  0  0  0  0
 14 17  1  0  0  0  0
 16 18  1  6  0  0  0
 17 19  2  0  0  0  0
 17 21  1  0  0  0  0
 18 20  1  0  0  0  0
 20 22  1  0  0  0  0
M  CHG  1   9  -1
M  END
>  <CHROM.1>
-96.68281340,-114.60664423,-174.18777636,60.66681737,171.57186213,-70.87099778
26.85695876,36.23696618,69.82953600,2.12529857,-0.71271368,2.16536403

>  <Name>
ligand

>  <RI>
0

>  <Rbt.Current_Directory>
/home/itssahil/PROJECTS/Mol_Feturizer/New_Systems/rnas/2HOM

>  <Rbt.Executable>
rbdock ($Id: //depot/dev/client3/rdock/2013.1/src/exe/rbdock.cxx#4 $)

>  <Rbt.Library>
libRbt.so (2013.1, Build901 2013/11/27)

>  <Rbt.Parameter_File>
/export/apps/rDock/src/rDock_2013.1_src/data/scripts/dock_solv.prm

>  <Rbt.Receptor>
prm/blind_docking_100.prm

>  <SCORE>
-14.8455

>  <SCORE.INTER>
-14.6995

>  <SCORE.INTER.CONST>
1

>  <SCORE.INTER.POLAR>
-1.63314

>  <SCORE.INTER.ROT>
6

>  <SCORE.INTER.SOLV>
15.8246

>  <SCORE.INTER.VDW>
-17.2308

>  <SCORE.INTER.norm>
-0.668161

>  <SCORE.INTRA>
-0.153915

>  <SCORE.INTRA.DIHEDRAL>
0.0311387

>  <SCORE.INTRA.DIHEDRAL.0>
5.05013

>  <SCORE.INTRA.POLAR>
0

>  <SCORE.INTRA.POLAR.0>
0

>  <SCORE.INTRA.REPUL>
0

>  <SCORE.INTRA.REPUL.0>
0

>  <SCORE.INTRA.SOLV>
-0.0454539

>  <SCORE.INTRA.SOLV.lig_0>
-54.1265

>  <SCORE.INTRA.VDW>
-0.146757

>  <SCORE.INTRA.VDW.0>
-2.1303

>  <SCORE.INTRA.norm>
-0.00699613

>  <SCORE.RESTR>
0.00798572

>  <SCORE.RESTR.CAVITY>
0.00798572

>  <SCORE.RESTR.norm>
0.000362987

>  <SCORE.SYSTEM>
0

>  <SCORE.SYSTEM.CONST>
0

>  <SCORE.SYSTEM.DIHEDRAL>
0

>  <SCORE.SYSTEM.SOLV>
0

>  <SCORE.SYSTEM.norm>
0

>  <SCORE.heavy>
22

>  <SCORE.norm>
-0.674794

>  <RMSD>
8.622

$$$$
ligand
 OpenBabel11021811443D
libRbt.so/2013.1/901 2013/11/27
 22 23  0  0  0  0  0  0  0  0999 V2000
   32.7445   44.3545   66.2505 C   0  0  0  0  0  0  0  0  0  0  0  0
   27.4700   38.3435   64.9657 C   0  0  0  0  0  0  0  0  0  0  0  0
   28.1728   35.8154   68.9307 P   0  0  1  0  0  0  0  0  0  0  0  0
   31.7533   42.1818   66.1091 N   0  0  0  0  0  0  0  0  0  0  0  0
   28.0385   34.3521   69.1481 O   0  0  0  0  0  0  0  0  0  0  0  0
   31.1244   37.0251   63.9105 S   0  0  0  0  0  0  0  0  0  0  0  0
   30.8577   38.6582   63.6197 C   0  0  0  0  0  0  0  0  0  0  0  0
   31.7912   43.4601   65.5955 C   0  0  0  0  0  0  0  0  0  0  0  0
   26.9574   36.5958   69.2786 O   0  5  0  0  0  0  0  0  0  0  0  0
   29.6378   39.1205   63.9678 N   0  0  0  0  0  0  0  0  0  0  0  0
   31.0353   43.8698   64.6122 N   0  0  0  0  0  0  0  0  0  0  0  0
   29.4173   36.3302   69.5863 O   0  0  0  0  0  0  0  0  0  0  0  0
   28.8735   38.0825   64.5038 C   0  0  2  0  0  0  0  0  0  0  0  0
   30.1396   42.9919   64.0105 C   0  0  0  0  0  0  0  0  0  0  0  0
   29.3651   43.4323   63.0233 N   0  0  0  0  0  0  0  0  0  0  0  0
   29.5100   36.8647   64.5501 C   0  0  1  0  0  0  0  0  0  0  0  0
   30.0756   41.6157   64.4741 C   0  0  0  0  0  0  0  0  0  0  0  0
   28.9705   35.5700   65.0419 C   0  0  0  0  0  0  0  0  0  0  0  0
   30.8904   41.3005   65.5429 C   0  0  0  0  0  0  0  0  0  0  0  0
   29.2141   35.4009   66.4946 C   0  0  0  0  0  0  0  0  0  0  0  0
   29.2054   40.5877   63.7766 C   0  0  0  0  0  0  0  0  0  0  0  0
   28.3184   36.0698   67.3831 O   0  0  0  0  0  0  0  0  0  0  0  0
  1  8  1  0  0  0  0
  3  5  1  1  0  0  0
  3  9  1  0  0  0  0
  3 12  2  0  0  0  0
  3 22  1  0  0  0  0
  4  8  2  0  0  0  0
  4 19  1  0  0  0  0
  6 16  1  0  0  0  0
  6  7  1  0  0  0  0
  7 10  1  0  0  0  0
  8 11  1  0  0  0  0
 10 13  1  0  0  0  0
 10 21  1  0  0  0  0
 11 14  2  0  0  0  0
 13  2  1  6  0  0  0
 13 16  1  0  0  0  0
 14 15  1  0  0  0  0
 14 17  1  0  0  0  0
 16 18  1  6  0  0  0
 17 19  2  0  0  0  0
 17 21  1  0  0  0  0
 18 20  1  0  0  0  0
 20 22  1  0  0  0  0
M  CHG  1   9  -1
M  END
>  <CHROM.1>
-57.95648179,91.61517871,156.13062264,80.34085392,166.27938419,-49.32647262
29.64792960,38.78267451,65.85862216,0.04669333,1.25449530,1.07655768

>  <Name>
ligand

>  <RI>
0

>  <Rbt.Current_Directory>
/home/itssahil/PROJECTS/Mol_Feturizer/New_Systems/rnas/2HOM

>  <Rbt.Executable>
rbdock ($Id: //depot/dev/client3/rdock/2013.1/src/exe/rbdock.cxx#4 $)

>  <Rbt.Library>
libRbt.so (2013.1, Build901 2013/11/27)

>  <Rbt.Parameter_File>
/export/apps/rDock/src/rDock_2013.1_src/data/scripts/dock_solv.prm

>  <Rbt.Receptor>
prm/pocket_docking_6.prm

>  <SCORE>
-13.1978

>  <SCORE.INTER>
-14.1381

>  <SCORE.INTER.CONST>
1

>  <SCORE.INTER.POLAR>
-1.63459

>  <SCORE.INTER.ROT>
6

>  <SCORE.INTER.SOLV>
9.32575

>  <SCORE.INTER.VDW>
-14.6853

>  <SCORE.INTER.norm>
-0.64264

>  <SCORE.INTRA>
0.940317

>  <SCORE.INTRA.DIHEDRAL>
2.40126

>  <SCORE.INTRA.DIHEDRAL.0>
5.05013

>  <SCORE.INTRA.POLAR>
0

>  <SCORE.INTRA.POLAR.0>
0

>  <SCORE.INTRA.REPUL>
0

>  <SCORE.INTRA.REPUL.0>
0

>  <SCORE.INTRA.SOLV>
-0.0164466

>  <SCORE.INTRA.SOLV.lig_0>
-54.1265

>  <SCORE.INTRA.VDW>
-0.252091

>  <SCORE.INTRA.VDW.0>
-2.1303

>  <SCORE.INTRA.norm>
0.0427417

>  <SCORE.RESTR>
0

>  <SCORE.RESTR.CAVITY>
0

>  <SCORE.RESTR.norm>
0

>  <SCORE.SYSTEM>
0

>  <SCORE.SYSTEM.CONST>
0

>  <SCORE.SYSTEM.DIHEDRAL>
0

>  <SCORE.SYSTEM.SOLV>
0

>  <SCORE.SYSTEM.norm>
0

>  <SCORE.heavy>
22

>  <SCORE.norm>
-0.599898

>  <RMSD>
8.635

$$$$
ligand
 OpenBabel11021811443D
libRbt.so/2013.1/901 2013/11/27
 22 23  0  0  0  0  0  0  0  0999 V2000
   28.5760   37.5008   75.5973 C   0  0  0  0  0  0  0  0  0  0  0  0
   28.9313   35.8854   67.3267 C   0  0  0  0  0  0  0  0  0  0  0  0
   30.1386   40.0090   66.4097 P   0  0  1  0  0  0  0  0  0  0  0  0
   28.8244   37.7434   73.2303 N   0  0  0  0  0  0  0  0  0  0  0  0
   30.8572   40.9061   67.3506 O   0  0  0  0  0  0  0  0  0  0  0  0
   26.0663   38.5049   68.3930 S   0  0  0  0  0  0  0  0  0  0  0  0
   26.5349   37.4452   69.6096 C   0  0  0  0  0  0  0  0  0  0  0  0
   28.4533   36.9117   74.2647 C   0  0  0  0  0  0  0  0  0  0  0  0
   30.3494   40.3370   64.9761 O   0  5  0  0  0  0  0  0  0  0  0  0
   27.4960   36.5588   69.2723 N   0  0  0  0  0  0  0  0  0  0  0  0
   28.0362   35.6855   74.0961 N   0  0  0  0  0  0  0  0  0  0  0  0
   30.4170   38.5743   66.7380 O   0  0  0  0  0  0  0  0  0  0  0  0
   27.8741   36.7539   67.9426 C   0  0  2  0  0  0  0  0  0  0  0  0
   27.9301   35.1567   72.8139 C   0  0  0  0  0  0  0  0  0  0  0  0
   27.5214   33.9003   72.6631 N   0  0  0  0  0  0  0  0  0  0  0  0
   27.2030   37.7651   67.2966 C   0  0  1  0  0  0  0  0  0  0  0  0
   28.2655   35.9917   71.6723 C   0  0  0  0  0  0  0  0  0  0  0  0
   27.3575   38.2089   65.8865 C   0  0  0  0  0  0  0  0  0  0  0  0
   28.7313   37.2574   71.9666 C   0  0  0  0  0  0  0  0  0  0  0  0
   27.5483   39.6767   65.8007 C   0  0  0  0  0  0  0  0  0  0  0  0
   28.0544   35.5068   70.2508 C   0  0  0  0  0  0  0  0  0  0  0  0
   28.5918   40.2411   66.5957 O   0  0  0  0  0  0  0  0  0  0  0  0
  1  8  1  0  0  0  0
  3  5  1  1  0  0  0
  3  9  1  0  0  0  0
  3 12  2  0  0  0  0
  3 22  1  0  0  0  0
  4  8  2  0  0  0  0
  4 19  1  0  0  0  0
  6 16  1  0  0  0  0
  6  7  1  0  0  0  0
  7 10  1  0  0  0  0
  8 11  1  0  0  0  0
 10 13  1  0  0  0  0
 10 21  1  0  0  0  0
 11 14  2  0  0  0  0
 13  2  1  6  0  0  0
 13 16  1  0  0  0  0
 14 15  1  0  0  0  0
 14 17  1  0  0  0  0
 16 18  1  6  0  0  0
 17 19  2  0  0  0  0
 17 21  1  0  0  0  0
 18 20  1  0  0  0  0
 20 22  1  0  0  0  0
M  CHG  1   9  -1
M  END
>  <CHROM.1>
-40.11445078,50.91221703,139.22453261,53.05685617,66.89415475,173.59235104
28.38301818,37.82666409,69.21986662,-1.76106942,-0.76412842,-1.24917390

>  <Name>
ligand

>  <RI>
0

>  <Rbt.Current_Directory>
/home/itssahil/PROJECTS/Mol_Feturizer/New_Systems/rnas/2HOM

>  <Rbt.Executable>
rbdock ($Id: //depot/dev/client3/rdock/2013.1/src/exe/rbdock.cxx#4 $)

>  <Rbt.Library>
libRbt.so (2013.1, Build901 2013/11/27)

>  <Rbt.Parameter_File>
/export/apps/rDock/src/rDock_2013.1_src/data/scripts/dock_solv.prm

>  <Rbt.Receptor>
prm/pocket_docking_8.prm

>  <SCORE>
-13.1064

>  <SCORE.INTER>
-14.7205

>  <SCORE.INTER.CONST>
1

>  <SCORE.INTER.POLAR>
-2.56801

>  <SCORE.INTER.ROT>
6

>  <SCORE.INTER.SOLV>
15.0187

>  <SCORE.INTER.VDW>
-13.8599

>  <SCORE.INTER.norm>
-0.669113

>  <SCORE.INTRA>
1.6141

>  <SCORE.INTRA.DIHEDRAL>
0.65399

>  <SCORE.INTRA.DIHEDRAL.0>
5.05013

>  <SCORE.INTRA.POLAR>
0

>  <SCORE.INTRA.POLAR.0>
0

>  <SCORE.INTRA.REPUL>
0

>  <SCORE.INTRA.REPUL.0>
0

>  <SCORE.INTRA.SOLV>
3.31132

>  <SCORE.INTRA.SOLV.lig_0>
-54.1265

>  <SCORE.INTRA.VDW>
-0.368558

>  <SCORE.INTRA.VDW.0>
-2.1303

>  <SCORE.INTRA.norm>
0.073368

>  <SCORE.RESTR>
0

>  <SCORE.RESTR.CAVITY>
0

>  <SCORE.RESTR.norm>
0

>  <SCORE.SYSTEM>
0

>  <SCORE.SYSTEM.CONST>
0

>  <SCORE.SYSTEM.DIHEDRAL>
0

>  <SCORE.SYSTEM.SOLV>
0

>  <SCORE.SYSTEM.norm>
0

>  <SCORE.heavy>
22

>  <SCORE.norm>
-0.595745

>  <RMSD>
8.693

$$$$
ligand
 OpenBabel11021811443D
libRbt.so/2013.1/901 2013/11/27
 22 23  0  0  0  0  0  0  0  0999 V2000
   32.7348   35.6420   62.9512 C   0  0  0  0  0  0  0  0  0  0  0  0
   26.6887   38.6264   68.3242 C   0  0  0  0  0  0  0  0  0  0  0  0
   29.5126   40.1811   71.7880 P   0  0  1  0  0  0  0  0  0  0  0  0
   30.4668   35.3270   63.6440 N   0  0  0  0  0  0  0  0  0  0  0  0
   30.6655   39.3932   72.2943 O   0  0  0  0  0  0  0  0  0  0  0  0
   28.5483   35.3184   69.6680 S   0  0  0  0  0  0  0  0  0  0  0  0
   28.7335   35.6072   68.0233 C   0  0  0  0  0  0  0  0  0  0  0  0
   31.6247   36.0561   63.8080 C   0  0  0  0  0  0  0  0  0  0  0  0
   28.7531   40.8959   72.8461 O   0  5  0  0  0  0  0  0  0  0  0  0
   28.1179   36.7131   67.5528 N   0  0  0  0  0  0  0  0  0  0  0  0
   31.7513   37.0341   64.6644 N   0  0  0  0  0  0  0  0  0  0  0  0
   29.9403   41.0698   70.6606 O   0  0  0  0  0  0  0  0  0  0  0  0
   27.4552   37.3651   68.5942 C   0  0  2  0  0  0  0  0  0  0  0  0
   30.6742   37.4030   65.4636 C   0  0  0  0  0  0  0  0  0  0  0  0
   30.8276   38.3888   66.3428 N   0  0  0  0  0  0  0  0  0  0  0  0
   27.5694   36.7537   69.8203 C   0  0  1  0  0  0  0  0  0  0  0  0
   29.4084   36.7040   65.3148 C   0  0  0  0  0  0  0  0  0  0  0  0
   26.9732   37.1805   71.1132 C   0  0  0  0  0  0  0  0  0  0  0  0
   29.3969   35.6630   64.4083 C   0  0  0  0  0  0  0  0  0  0  0  0
   27.9096   38.0336   71.8836 C   0  0  0  0  0  0  0  0  0  0  0  0
   28.1705   37.1430   66.0734 C   0  0  0  0  0  0  0  0  0  0  0  0
   28.4456   39.1751   71.2134 O   0  0  0  0  0  0  0  0  0  0  0  0
  1  8  1  0  0  0  0
  3  5  1  1  0  0  0
  3  9  1  0  0  0  0
  3 12  2  0  0  0  0
  3 22  1  0  0  0  0
  4  8  2  0  0  0  0
  4 19  1  0  0  0  0
  6 16  1  0  0  0  0
  6  7  1  0  0  0  0
  7 10  1  0  0  0  0
  8 11  1  0  0  0  0
 10 13  1  0  0  0  0
 10 21  1  0  0  0  0
 11 14  2  0  0  0  0
 13  2  1  6  0  0  0
 13 16  1  0  0  0  0
 14 15  1  0  0  0  0
 14 17  1  0  0  0  0
 16 18  1  6  0  0  0
 17 19  2  0  0  0  0
 17 21  1  0  0  0  0
 18 20  1  0  0  0  0
 20 22  1  0  0  0  0
M  CHG  1   9  -1
M  END
>  <CHROM.1>
-27.93233261,87.72344218,-78.29676937,53.48574393,-176.40308572,51.36819765
29.26822604,37.64635230,68.43320974,-1.25724044,0.70386454,0.94109487

>  <Name>
ligand

>  <RI>
0

>  <Rbt.Current_Directory>
/home/itssahil/PROJECTS/Mol_Feturizer/New_Systems/rnas/2HOM

>  <Rbt.Executable>
rbdock ($Id: //depot/dev/client3/rdock/2013.1/src/exe/rbdock.cxx#4 $)

>  <Rbt.Library>
libRbt.so (2013.1, Build901 2013/11/27)

>  <Rbt.Parameter_File>
/export/apps/rDock/src/rDock_2013.1_src/data/scripts/dock_solv.prm

>  <Rbt.Receptor>
prm/pocket_docking_8.prm

>  <SCORE>
-13.4164

>  <SCORE.INTER>
-13.6274

>  <SCORE.INTER.CONST>
1

>  <SCORE.INTER.POLAR>
-1.70681

>  <SCORE.INTER.ROT>
6

>  <SCORE.INTER.SOLV>
19.5287

>  <SCORE.INTER.VDW>
-17.5051

>  <SCORE.INTER.norm>
-0.619428

>  <SCORE.INTRA>
0.210989

>  <SCORE.INTRA.DIHEDRAL>
0.326982

>  <SCORE.INTRA.DIHEDRAL.0>
5.05013

>  <SCORE.INTRA.POLAR>
0

>  <SCORE.INTRA.POLAR.0>
0

>  <SCORE.INTRA.REPUL>
0

>  <SCORE.INTRA.REPUL.0>
0

>  <SCORE.INTRA.SOLV>
0.901801

>  <SCORE.INTRA.SOLV.lig_0>
-54.1265

>  <SCORE.INTRA.VDW>
-0.403403

>  <SCORE.INTRA.VDW.0>
-2.1303

>  <SCORE.INTRA.norm>
0.00959039

>  <SCORE.RESTR>
0

>  <SCORE.RESTR.CAVITY>
0

>  <SCORE.RESTR.norm>
0

>  <SCORE.SYSTEM>
0

>  <SCORE.SYSTEM.CONST>
0

>  <SCORE.SYSTEM.DIHEDRAL>
0

>  <SCORE.SYSTEM.SOLV>
0

>  <SCORE.SYSTEM.norm>
0

>  <SCORE.heavy>
22

>  <SCORE.norm>
-0.609837

>  <RMSD>
8.711

$$$$
ligand
 OpenBabel11021811443D
libRbt.so/2013.1/901 2013/11/27
 22 23  0  0  0  0  0  0  0  0999 V2000
   30.8021   37.3384   62.1758 C   0  0  0  0  0  0  0  0  0  0  0  0
   25.2653   38.7233   68.6881 C   0  0  0  0  0  0  0  0  0  0  0  0
   19.9230   40.4592   65.3305 P   0  0  1  0  0  0  0  0  0  0  0  0
   28.7272   36.8491   63.2615 N   0  0  0  0  0  0  0  0  0  0  0  0
   18.9659   41.5346   65.6964 O   0  0  0  0  0  0  0  0  0  0  0  0
   23.8263   38.5080   64.9345 S   0  0  0  0  0  0  0  0  0  0  0  0
   25.4020   37.9531   65.1139 C   0  0  0  0  0  0  0  0  0  0  0  0
   29.9865   37.3945   63.3881 C   0  0  0  0  0  0  0  0  0  0  0  0
   19.3952   39.4871   64.3387 O   0  5  0  0  0  0  0  0  0  0  0  0
   25.9030   38.0159   66.3661 N   0  0  0  0  0  0  0  0  0  0  0  0
   30.4449   37.9129   64.4959 N   0  0  0  0  0  0  0  0  0  0  0  0
   21.2458   41.0451   64.9422 O   0  0  0  0  0  0  0  0  0  0  0  0
   24.9464   38.5481   67.2325 C   0  0  2  0  0  0  0  0  0  0  0  0
   29.6415   37.9513   65.6308 C   0  0  0  0  0  0  0  0  0  0  0  0
   30.1319   38.4660   66.7545 N   0  0  0  0  0  0  0  0  0  0  0  0
   23.7533   38.8820   66.6363 C   0  0  1  0  0  0  0  0  0  0  0  0
   28.2861   37.4309   65.5582 C   0  0  0  0  0  0  0  0  0  0  0  0
   22.5507   39.4812   67.2718 C   0  0  0  0  0  0  0  0  0  0  0  0
   27.9181   36.8722   64.3508 C   0  0  0  0  0  0  0  0  0  0  0  0
   21.3158   38.7642   66.8725 C   0  0  0  0  0  0  0  0  0  0  0  0
   27.3290   37.5562   66.7282 C   0  0  0  0  0  0  0  0  0  0  0  0
   20.1627   39.5624   66.6029 O   0  0  0  0  0  0  0  0  0  0  0  0
  1  8  1  0  0  0  0
  3  5  1  1  0  0  0
  3  9  1  0  0  0  0
  3 12  2  0  0  0  0
  3 22  1  0  0  0  0
  4  8  2  0  0  0  0
  4 19  1  0  0  0  0
  6 16  1  0  0  0  0
  6  7  1  0  0  0  0
  7 10  1  0  0  0  0
  8 11  1  0  0  0  0
 10 13  1  0  0  0  0
 10 21  1  0  0  0  0
 11 14  2  0  0  0  0
 13  2  1  6  0  0  0
 13 16  1  0  0  0  0
 14 15  1  0  0  0  0
 14 17  1  0  0  0  0
 16 18  1  6  0  0  0
 17 19  2  0  0  0  0
 17 21  1  0  0  0  0
 18 20  1  0  0  0  0
 20 22  1  0  0  0  0
M  CHG  1   9  -1
M  END
>  <CHROM.1>
18.20144315,47.84071770,134.92666071,-139.67922324,73.81132974,-155.08979228
24.73964829,38.73833506,65.51883758,0.12295466,0.27464274,-1.59180780

>  <Name>
ligand

>  <RI>
0

>  <Rbt.Current_Directory>
/home/itssahil/PROJECTS/Mol_Feturizer/New_Systems/rnas/2HOM

>  <Rbt.Executable>
rbdock ($Id: //depot/dev/client3/rdock/2013.1/src/exe/rbdock.cxx#4 $)

>  <Rbt.Library>
libRbt.so (2013.1, Build901 2013/11/27)

>  <Rbt.Parameter_File>
/export/apps/rDock/src/rDock_2013.1_src/data/scripts/dock_solv.prm

>  <Rbt.Receptor>
prm/pocket_docking_7.prm

>  <SCORE>
-11.4796

>  <SCORE.INTER>
-16.0355

>  <SCORE.INTER.CONST>
1

>  <SCORE.INTER.POLAR>
-1.22726

>  <SCORE.INTER.ROT>
6

>  <SCORE.INTER.SOLV>
19.5653

>  <SCORE.INTER.VDW>
-20.7212

>  <SCORE.INTER.norm>
-0.728884

>  <SCORE.INTRA>
4.55586

>  <SCORE.INTRA.DIHEDRAL>
6.04987

>  <SCORE.INTRA.DIHEDRAL.0>
5.05013

>  <SCORE.INTRA.POLAR>
0

>  <SCORE.INTRA.POLAR.0>
0

>  <SCORE.INTRA.REPUL>
0

>  <SCORE.INTRA.REPUL.0>
0

>  <SCORE.INTRA.SOLV>
1.76352

>  <SCORE.INTRA.SOLV.lig_0>
-54.1265

>  <SCORE.INTRA.VDW>
0.649164

>  <SCORE.INTRA.VDW.0>
-2.1303

>  <SCORE.INTRA.norm>
0.207085

>  <SCORE.RESTR>
0

>  <SCORE.RESTR.CAVITY>
0

>  <SCORE.RESTR.norm>
0

>  <SCORE.SYSTEM>
0

>  <SCORE.SYSTEM.CONST>
0

>  <SCORE.SYSTEM.DIHEDRAL>
0

>  <SCORE.SYSTEM.SOLV>
0

>  <SCORE.SYSTEM.norm>
0

>  <SCORE.heavy>
22

>  <SCORE.norm>
-0.521799

>  <RMSD>
8.722

$$$$
ligand
 OpenBabel11021811443D
libRbt.so/2013.1/901 2013/11/27
 22 23  0  0  0  0  0  0  0  0999 V2000
   24.5840   36.0905   76.9895 C   0  0  0  0  0  0  0  0  0  0  0  0
   28.1018   34.7660   70.5559 C   0  0  0  0  0  0  0  0  0  0  0  0
   29.1528   39.8889   70.8497 P   0  0  1  0  0  0  0  0  0  0  0  0
   24.6013   36.3943   74.6166 N   0  0  0  0  0  0  0  0  0  0  0  0
   27.9292   40.7309   70.8657 O   0  0  0  0  0  0  0  0  0  0  0  0
   25.2252   36.9969   68.8369 S   0  0  0  0  0  0  0  0  0  0  0  0
   24.6726   35.9112   69.9938 C   0  0  0  0  0  0  0  0  0  0  0  0
   24.8269   35.5260   75.6628 C   0  0  0  0  0  0  0  0  0  0  0  0
   30.2543   40.4328   70.0142 O   0  5  0  0  0  0  0  0  0  0  0  0
   25.6224   35.1538   70.5832 N   0  0  0  0  0  0  0  0  0  0  0  0
   25.2397   34.2964   75.5091 N   0  0  0  0  0  0  0  0  0  0  0  0
   29.5765   39.5542   72.2469 O   0  0  0  0  0  0  0  0  0  0  0  0
   26.8764   35.4768   70.0615 C   0  0  2  0  0  0  0  0  0  0  0  0
   25.4600   33.7907   74.2321 C   0  0  0  0  0  0  0  0  0  0  0  0
   25.8981   32.5425   74.0963 N   0  0  0  0  0  0  0  0  0  0  0  0
   26.8625   36.4547   69.0952 C   0  0  1  0  0  0  0  0  0  0  0  0
   25.2026   34.6382   73.0795 C   0  0  0  0  0  0  0  0  0  0  0  0
   28.0159   37.0068   68.3375 C   0  0  0  0  0  0  0  0  0  0  0  0
   24.8060   35.9308   73.3576 C   0  0  0  0  0  0  0  0  0  0  0  0
   28.3462   38.3816   68.7838 C   0  0  0  0  0  0  0  0  0  0  0  0
   25.3108   34.1011   71.6652 C   0  0  0  0  0  0  0  0  0  0  0  0
   28.8055   38.5329   70.1275 O   0  0  0  0  0  0  0  0  0  0  0  0
  1  8  1  0  0  0  0
  3  5  1  1  0  0  0
  3  9  1  0  0  0  0
  3 12  2  0  0  0  0
  3 22  1  0  0  0  0
  4  8  2  0  0  0  0
  4 19  1  0  0  0  0
  6 16  1  0  0  0  0
  6  7  1  0  0  0  0
  7 10  1  0  0  0  0
  8 11  1  0  0  0  0
 10 13  1  0  0  0  0
 10 21  1  0  0  0  0
 11 14  2  0  0  0  0
 13  2  1  6  0  0  0
 13 16  1  0  0  0  0
 14 15  1  0  0  0  0
 14 17  1  0  0  0  0
 16 18  1  6  0  0  0
 17 19  2  0  0  0  0
 17 21  1  0  0  0  0
 18 20  1  0  0  0  0
 20 22  1  0  0  0  0
M  CHG  1   9  -1
M  END
>  <CHROM.1>
-84.27085622,72.96276883,-154.46553691,64.64341013,-176.98823425,60.24723150
26.76389670,36.79637508,71.56461894,-2.60103250,-0.95361655,-1.71686577

>  <Name>
ligand

>  <RI>
0

>  <Rbt.Current_Directory>
/home/itssahil/PROJECTS/Mol_Feturizer/New_Systems/rnas/2HOM

>  <Rbt.Executable>
rbdock ($Id: //depot/dev/client3/rdock/2013.1/src/exe/rbdock.cxx#4 $)

>  <Rbt.Library>
libRbt.so (2013.1, Build901 2013/11/27)

>  <Rbt.Parameter_File>
/export/apps/rDock/src/rDock_2013.1_src/data/scripts/dock_solv.prm

>  <Rbt.Receptor>
prm/blind_docking_100.prm

>  <SCORE>
-12.3432

>  <SCORE.INTER>
-12.0616

>  <SCORE.INTER.CONST>
1

>  <SCORE.INTER.POLAR>
-1.18271

>  <SCORE.INTER.ROT>
6

>  <SCORE.INTER.SOLV>
15.4214

>  <SCORE.INTER.VDW>
-16.8392

>  <SCORE.INTER.norm>
-0.548253

>  <SCORE.INTRA>
-0.281623

>  <SCORE.INTRA.DIHEDRAL>
0.0780933

>  <SCORE.INTRA.DIHEDRAL.0>
5.05013

>  <SCORE.INTRA.POLAR>
0

>  <SCORE.INTRA.POLAR.0>
0

>  <SCORE.INTRA.REPUL>
0

>  <SCORE.INTRA.REPUL.0>
0

>  <SCORE.INTRA.SOLV>
0.00634154

>  <SCORE.INTRA.SOLV.lig_0>
-54.1265

>  <SCORE.INTRA.VDW>
-0.32384

>  <SCORE.INTRA.VDW.0>
-2.1303

>  <SCORE.INTRA.norm>
-0.012801

>  <SCORE.RESTR>
0

>  <SCORE.RESTR.CAVITY>
0

>  <SCORE.RESTR.norm>
0

>  <SCORE.SYSTEM>
0

>  <SCORE.SYSTEM.CONST>
0

>  <SCORE.SYSTEM.DIHEDRAL>
0

>  <SCORE.SYSTEM.SOLV>
0

>  <SCORE.SYSTEM.norm>
0

>  <SCORE.heavy>
22

>  <SCORE.norm>
-0.561054

>  <RMSD>
8.988

$$$$
ligand
 OpenBabel11021811443D
libRbt.so/2013.1/901 2013/11/27
 22 23  0  0  0  0  0  0  0  0999 V2000
   30.7963   35.5785   63.8538 C   0  0  0  0  0  0  0  0  0  0  0  0
   24.3309   40.3605   67.3867 C   0  0  0  0  0  0  0  0  0  0  0  0
   18.4015   39.8923   64.6489 P   0  0  1  0  0  0  0  0  0  0  0  0
   28.6762   36.6844   63.7800 N   0  0  0  0  0  0  0  0  0  0  0  0
   18.5006   38.8318   63.6137 O   0  0  0  0  0  0  0  0  0  0  0  0
   23.2979   37.0032   65.4200 S   0  0  0  0  0  0  0  0  0  0  0  0
   24.9458   37.3304   65.4304 C   0  0  0  0  0  0  0  0  0  0  0  0
   29.7968   36.4031   64.5312 C   0  0  0  0  0  0  0  0  0  0  0  0
   18.8119   41.2407   64.1793 O   0  5  0  0  0  0  0  0  0  0  0  0
   25.3132   38.4521   66.0861 N   0  0  0  0  0  0  0  0  0  0  0  0
   29.9700   36.8155   65.7584 N   0  0  0  0  0  0  0  0  0  0  0  0
   17.0480   39.8732   65.2904 O   0  0  0  0  0  0  0  0  0  0  0  0
   24.1848   39.0838   66.6121 C   0  0  2  0  0  0  0  0  0  0  0  0
   28.9991   37.5998   66.3726 C   0  0  0  0  0  0  0  0  0  0  0  0
   29.1846   37.9946   67.6288 N   0  0  0  0  0  0  0  0  0  0  0  0
   22.9948   38.4476   66.3491 C   0  0  1  0  0  0  0  0  0  0  0  0
   27.8089   37.9700   65.6247 C   0  0  0  0  0  0  0  0  0  0  0  0
   21.6263   38.8679   66.7488 C   0  0  0  0  0  0  0  0  0  0  0  0
   27.7106   37.4487   64.3503 C   0  0  0  0  0  0  0  0  0  0  0  0
   20.8612   39.3869   65.5897 C   0  0  0  0  0  0  0  0  0  0  0  0
   26.7773   38.9198   66.2028 C   0  0  0  0  0  0  0  0  0  0  0  0
   19.4583   39.5794   65.7742 O   0  0  0  0  0  0  0  0  0  0  0  0
  1  8  1  0  0  0  0
  3  5  1  6  0  0  0
  3  9  1  0  0  0  0
  3 12  2  0  0  0  0
  3 22  1  0  0  0  0
  4  8  2  0  0  0  0
  4 19  1  0  0  0  0
  6 16  1  0  0  0  0
  6  7  1  0  0  0  0
  7 10  1  0  0  0  0
  8 11  1  0  0  0  0
 10 13  1  0  0  0  0
 10 21  1  0  0  0  0
 11 14  2  0  0  0  0
 13  2  1  6  0  0  0
 13 16  1  0  0  0  0
 14 15  1  0  0  0  0
 14 17  1  0  0  0  0
 16 18  1  6  0  0  0
 17 19  2  0  0  0  0
 17 21  1  0  0  0  0
 18 20  1  0  0  0  0
 20 22  1  0  0  0  0
M  CHG  1   9  -1
M  END
>  <CHROM.1>
-4.85482660,-72.78560050,-132.04950023,168.10330248,-169.46067497,55.18363846
23.93988112,38.41642372,65.44062873,0.11563066,0.23426351,-2.17172887

>  <Name>
ligand

>  <RI>
0

>  <Rbt.Current_Directory>
/home/itssahil/PROJECTS/Mol_Feturizer/New_Systems/rnas/2HOM

>  <Rbt.Executable>
rbdock ($Id: //depot/dev/client3/rdock/2013.1/src/exe/rbdock.cxx#4 $)

>  <Rbt.Library>
libRbt.so (2013.1, Build901 2013/11/27)

>  <Rbt.Parameter_File>
/export/apps/rDock/src/rDock_2013.1_src/data/scripts/dock_solv.prm

>  <Rbt.Receptor>
prm/pocket_docking_7.prm

>  <SCORE>
-20.0012

>  <SCORE.INTER>
-21.0627

>  <SCORE.INTER.CONST>
1

>  <SCORE.INTER.POLAR>
-0.781334

>  <SCORE.INTER.ROT>
6

>  <SCORE.INTER.SOLV>
23.2477

>  <SCORE.INTER.VDW>
-26.7866

>  <SCORE.INTER.norm>
-0.957394

>  <SCORE.INTRA>
1.06151

>  <SCORE.INTRA.DIHEDRAL>
1.06201

>  <SCORE.INTRA.DIHEDRAL.0>
5.05013

>  <SCORE.INTRA.POLAR>
0

>  <SCORE.INTRA.POLAR.0>
0

>  <SCORE.INTRA.REPUL>
0

>  <SCORE.INTRA.REPUL.0>
0

>  <SCORE.INTRA.SOLV>
-0.0254257

>  <SCORE.INTRA.SOLV.lig_0>
-54.1265

>  <SCORE.INTRA.VDW>
0.543215

>  <SCORE.INTRA.VDW.0>
-2.1303

>  <SCORE.INTRA.norm>
0.0482503

>  <SCORE.RESTR>
0

>  <SCORE.RESTR.CAVITY>
0

>  <SCORE.RESTR.norm>
0

>  <SCORE.SYSTEM>
0

>  <SCORE.SYSTEM.CONST>
0

>  <SCORE.SYSTEM.DIHEDRAL>
0

>  <SCORE.SYSTEM.SOLV>
0

>  <SCORE.SYSTEM.norm>
0

>  <SCORE.heavy>
22

>  <SCORE.norm>
-0.909143

>  <RMSD>
9.039

$$$$
ligand
 OpenBabel11021811443D
libRbt.so/2013.1/901 2013/11/27
 22 23  0  0  0  0  0  0  0  0999 V2000
   22.8463   33.9353   70.2764 C   0  0  0  0  0  0  0  0  0  0  0  0
   27.4706   35.7068   73.4396 C   0  0  0  0  0  0  0  0  0  0  0  0
   29.2860   42.0014   72.1095 P   0  0  1  0  0  0  0  0  0  0  0  0
   24.1781   35.5194   71.4766 N   0  0  0  0  0  0  0  0  0  0  0  0
   30.6053   42.0356   71.4279 O   0  0  0  0  0  0  0  0  0  0  0  0
   27.3610   39.3203   75.2108 S   0  0  0  0  0  0  0  0  0  0  0  0
   26.0463   38.3318   75.5533 C   0  0  0  0  0  0  0  0  0  0  0  0
   23.3106   34.4520   71.5630 C   0  0  0  0  0  0  0  0  0  0  0  0
   29.1004   43.0663   73.1286 O   0  5  0  0  0  0  0  0  0  0  0  0
   26.0646   37.1145   74.9694 N   0  0  0  0  0  0  0  0  0  0  0  0
   22.9077   33.9340   72.6923 N   0  0  0  0  0  0  0  0  0  0  0  0
   28.1780   41.9425   71.1032 O   0  0  0  0  0  0  0  0  0  0  0  0
   27.2189   36.9778   74.1961 C   0  0  2  0  0  0  0  0  0  0  0  0
   23.3704   34.4493   73.8987 C   0  0  0  0  0  0  0  0  0  0  0  0
   22.9346   33.9210   75.0385 N   0  0  0  0  0  0  0  0  0  0  0  0
   28.0456   38.0764   74.1982 C   0  0  1  0  0  0  0  0  0  0  0  0
   24.3204   35.5495   73.8822 C   0  0  0  0  0  0  0  0  0  0  0  0
   29.3288   38.2555   73.4698 C   0  0  0  0  0  0  0  0  0  0  0  0
   24.6487   36.0445   72.6361 C   0  0  0  0  0  0  0  0  0  0  0  0
   29.2331   39.3445   72.4682 C   0  0  0  0  0  0  0  0  0  0  0  0
   24.9475   36.0699   75.1614 C   0  0  0  0  0  0  0  0  0  0  0  0
   29.2112   40.6824   72.9671 O   0  0  0  0  0  0  0  0  0  0  0  0
  1  8  1  0  0  0  0
  3  5  1  6  0  0  0
  3  9  1  0  0  0  0
  3 12  2  0  0  0  0
  3 22  1  0  0  0  0
  4  8  2  0  0  0  0
  4 19  1  0  0  0  0
  6 16  1  0  0  0  0
  6  7  1  0  0  0  0
  7 10  1  0  0  0  0
  8 11  1  0  0  0  0
 10 13  1  0  0  0  0
 10 21  1  0  0  0  0
 11 14  2  0  0  0  0
 13  2  1  6  0  0  0
 13 16  1  0  0  0  0
 14 15  1  0  0  0  0
 14 17  1  0  0  0  0
 16 18  1  6  0  0  0
 17 19  2  0  0  0  0
 17 21  1  0  0  0  0
 18 20  1  0  0  0  0
 20 22  1  0  0  0  0
M  CHG  1   9  -1
M  END
>  <CHROM.1>
125.05540550,-63.32864374,172.57762629,73.45523522,172.26166222,-63.83913450
26.69414416,38.03206976,73.21842001,2.94028215,0.87201697,1.75906996

>  <Name>
ligand

>  <RI>
0

>  <Rbt.Current_Directory>
/home/itssahil/PROJECTS/Mol_Feturizer/New_Systems/rnas/2HOM

>  <Rbt.Executable>
rbdock ($Id: //depot/dev/client3/rdock/2013.1/src/exe/rbdock.cxx#4 $)

>  <Rbt.Library>
libRbt.so (2013.1, Build901 2013/11/27)

>  <Rbt.Parameter_File>
/export/apps/rDock/src/rDock_2013.1_src/data/scripts/dock_solv.prm

>  <Rbt.Receptor>
prm/blind_docking_100.prm

>  <SCORE>
-14.5133

>  <SCORE.INTER>
-15.6427

>  <SCORE.INTER.CONST>
1

>  <SCORE.INTER.POLAR>
-0.947092

>  <SCORE.INTER.ROT>
6

>  <SCORE.INTER.SOLV>
15.8961

>  <SCORE.INTER.VDW>
-20.1701

>  <SCORE.INTER.norm>
-0.71103

>  <SCORE.INTRA>
1.12936

>  <SCORE.INTRA.DIHEDRAL>
1.11831

>  <SCORE.INTRA.DIHEDRAL.0>
5.05013

>  <SCORE.INTRA.POLAR>
0

>  <SCORE.INTRA.POLAR.0>
0

>  <SCORE.INTRA.REPUL>
0

>  <SCORE.INTRA.REPUL.0>
0

>  <SCORE.INTRA.SOLV>
-0.086347

>  <SCORE.INTRA.SOLV.lig_0>
-54.1265

>  <SCORE.INTRA.VDW>
0.613384

>  <SCORE.INTRA.VDW.0>
-2.1303

>  <SCORE.INTRA.norm>
0.0513348

>  <SCORE.RESTR>
0

>  <SCORE.RESTR.CAVITY>
0

>  <SCORE.RESTR.norm>
0

>  <SCORE.SYSTEM>
0

>  <SCORE.SYSTEM.CONST>
0

>  <SCORE.SYSTEM.DIHEDRAL>
0

>  <SCORE.SYSTEM.SOLV>
0

>  <SCORE.SYSTEM.norm>
0

>  <SCORE.heavy>
22

>  <SCORE.norm>
-0.659695

>  <RMSD>
9.051

$$$$
ligand
 OpenBabel11021811443D
libRbt.so/2013.1/901 2013/11/27
 22 23  0  0  0  0  0  0  0  0999 V2000
   33.4797   36.2614   63.0694 C   0  0  0  0  0  0  0  0  0  0  0  0
   26.5802   38.2590   67.0488 C   0  0  0  0  0  0  0  0  0  0  0  0
   22.4481   40.3742   66.2886 P   0  0  1  0  0  0  0  0  0  0  0  0
   31.2170   36.8437   62.5553 N   0  0  0  0  0  0  0  0  0  0  0  0
   21.8814   40.9794   67.5211 O   0  0  0  0  0  0  0  0  0  0  0  0
   27.5747   41.0901   64.3650 S   0  0  0  0  0  0  0  0  0  0  0  0
   28.0187   39.5283   63.9332 C   0  0  0  0  0  0  0  0  0  0  0  0
   32.0973   36.4083   63.5222 C   0  0  0  0  0  0  0  0  0  0  0  0
   22.5650   38.8939   66.3365 O   0  5  0  0  0  0  0  0  0  0  0  0
   27.6930   38.5636   64.8200 N   0  0  0  0  0  0  0  0  0  0  0  0
   31.7472   36.1278   64.7489 N   0  0  0  0  0  0  0  0  0  0  0  0
   21.7214   40.8739   65.0779 O   0  0  0  0  0  0  0  0  0  0  0  0
   27.0426   39.1298   65.9178 C   0  0  2  0  0  0  0  0  0  0  0  0
   30.4230   36.2799   65.1468 C   0  0  0  0  0  0  0  0  0  0  0  0
   30.0820   35.9715   66.3945 N   0  0  0  0  0  0  0  0  0  0  0  0
   26.8900   40.4947   65.8544 C   0  0  1  0  0  0  0  0  0  0  0  0
   29.4473   36.7749   64.1897 C   0  0  0  0  0  0  0  0  0  0  0  0
   26.2629   41.3916   66.8601 C   0  0  0  0  0  0  0  0  0  0  0  0
   29.9174   37.0035   62.9122 C   0  0  0  0  0  0  0  0  0  0  0  0
   24.9006   40.9300   67.2197 C   0  0  0  0  0  0  0  0  0  0  0  0
   28.0183   37.0727   64.6020 C   0  0  0  0  0  0  0  0  0  0  0  0
   23.9480   40.8375   66.1598 O   0  0  0  0  0  0  0  0  0  0  0  0
  1  8  1  0  0  0  0
  3  5  1  1  0  0  0
  3  9  1  0  0  0  0
  3 12  2  0  0  0  0
  3 22  1  0  0  0  0
  4  8  2  0  0  0  0
  4 19  1  0  0  0  0
  6 16  1  0  0  0  0
  6  7  1  0  0  0  0
  7 10  1  0  0  0  0
  8 11  1  0  0  0  0
 10 13  1  0  0  0  0
 10 21  1  0  0  0  0
 11 14  2  0  0  0  0
 13  2  1  1  0  0  0
 13 16  1  0  0  0  0
 14 15  1  0  0  0  0
 14 17  1  0  0  0  0
 16 18  1  1  0  0  0
 17 19  2  0  0  0  0
 17 21  1  0  0  0  0
 18 20  1  0  0  0  0
 20 22  1  0  0  0  0
M  CHG  1   9  -1
M  END
>  <CHROM.1>
48.72077896,127.53929170,101.63287099,-59.23885928,179.91736963,41.53655576
27.03987633,38.91920219,65.26948339,-0.28979702,0.43694394,-0.40306302

>  <Name>
ligand

>  <RI>
0

>  <Rbt.Current_Directory>
/home/itssahil/PROJECTS/Mol_Feturizer/New_Systems/rnas/2HOM

>  <Rbt.Executable>
rbdock ($Id: //depot/dev/client3/rdock/2013.1/src/exe/rbdock.cxx#4 $)

>  <Rbt.Library>
libRbt.so (2013.1, Build901 2013/11/27)

>  <Rbt.Parameter_File>
/export/apps/rDock/src/rDock_2013.1_src/data/scripts/dock_solv.prm

>  <Rbt.Receptor>
prm/pocket_docking_6.prm

>  <SCORE>
-10.5099

>  <SCORE.INTER>
-11.4388

>  <SCORE.INTER.CONST>
1

>  <SCORE.INTER.POLAR>
-1.29694

>  <SCORE.INTER.ROT>
6

>  <SCORE.INTER.SOLV>
12.7009

>  <SCORE.INTER.VDW>
-15.1364

>  <SCORE.INTER.norm>
-0.519945

>  <SCORE.INTRA>
0.92888

>  <SCORE.INTRA.DIHEDRAL>
-0.0154352

>  <SCORE.INTRA.DIHEDRAL.0>
5.05013

>  <SCORE.INTRA.POLAR>
0

>  <SCORE.INTRA.POLAR.0>
0

>  <SCORE.INTRA.REPUL>
0

>  <SCORE.INTRA.REPUL.0>
0

>  <SCORE.INTRA.SOLV>
1.01215

>  <SCORE.INTRA.SOLV.lig_0>
-54.1265

>  <SCORE.INTRA.VDW>
0.430521

>  <SCORE.INTRA.VDW.0>
-2.1303

>  <SCORE.INTRA.norm>
0.0422218

>  <SCORE.RESTR>
0

>  <SCORE.RESTR.CAVITY>
0

>  <SCORE.RESTR.norm>
0

>  <SCORE.SYSTEM>
0

>  <SCORE.SYSTEM.CONST>
0

>  <SCORE.SYSTEM.DIHEDRAL>
0

>  <SCORE.SYSTEM.SOLV>
0

>  <SCORE.SYSTEM.norm>
0

>  <SCORE.heavy>
22

>  <SCORE.norm>
-0.477724

>  <RMSD>
9.148

$$$$
ligand
 OpenBabel11021811443D
libRbt.so/2013.1/901 2013/11/27
 22 23  0  0  0  0  0  0  0  0999 V2000
   28.7487   40.4846   75.5613 C   0  0  0  0  0  0  0  0  0  0  0  0
   25.7976   35.6910   69.5976 C   0  0  0  0  0  0  0  0  0  0  0  0
   29.1983   36.8828   66.2181 P   0  0  1  0  0  0  0  0  0  0  0  0
   28.4010   39.2762   73.5261 N   0  0  0  0  0  0  0  0  0  0  0  0
   30.4369   37.7001   66.1530 O   0  0  0  0  0  0  0  0  0  0  0  0
   29.2151   33.9919   70.8784 S   0  0  0  0  0  0  0  0  0  0  0  0
   28.3710   34.8423   72.0561 C   0  0  0  0  0  0  0  0  0  0  0  0
   28.1244   39.3552   74.8739 C   0  0  0  0  0  0  0  0  0  0  0  0
   27.9563   37.6753   66.4099 O   0  5  0  0  0  0  0  0  0  0  0  0
   27.2209   35.4192   71.6468 N   0  0  0  0  0  0  0  0  0  0  0  0
   27.3791   38.4941   75.5134 N   0  0  0  0  0  0  0  0  0  0  0  0
   29.1293   35.9427   65.0540 O   0  0  0  0  0  0  0  0  0  0  0  0
   27.0139   35.1529   70.2921 C   0  0  2  0  0  0  0  0  0  0  0  0
   26.7992   37.4315   74.8281 C   0  0  0  0  0  0  0  0  0  0  0  0
   26.0589   36.5544   75.4996 N   0  0  0  0  0  0  0  0  0  0  0  0
   27.9955   34.3947   69.6987 C   0  0  1  0  0  0  0  0  0  0  0  0
   27.0147   37.3092   73.3958 C   0  0  0  0  0  0  0  0  0  0  0  0
   28.0800   33.9572   68.2808 C   0  0  0  0  0  0  0  0  0  0  0  0
   27.8491   38.2513   72.8285 C   0  0  0  0  0  0  0  0  0  0  0  0
   29.2357   34.5803   67.5919 C   0  0  0  0  0  0  0  0  0  0  0  0
   26.3107   36.2416   72.5802 C   0  0  0  0  0  0  0  0  0  0  0  0
   29.2572   36.0067   67.5256 O   0  0  0  0  0  0  0  0  0  0  0  0
  1  8  1  0  0  0  0
  3  5  1  6  0  0  0
  3  9  1  0  0  0  0
  3 12  2  0  0  0  0
  3 22  1  0  0  0  0
  4  8  2  0  0  0  0
  4 19  1  0  0  0  0
  6 16  1  0  0  0  0
  6  7  1  0  0  0  0
  7 10  1  0  0  0  0
  8 11  1  0  0  0  0
 10 13  1  0  0  0  0
 10 21  1  0  0  0  0
 11 14  2  0  0  0  0
 13  2  1  6  0  0  0
 13 16  1  0  0  0  0
 14 15  1  0  0  0  0
 14 17  1  0  0  0  0
 16 18  1  6  0  0  0
 17 19  2  0  0  0  0
 17 21  1  0  0  0  0
 18 20  1  0  0  0  0
 20 22  1  0  0  0  0
M  CHG  1   9  -1
M  END
>  <CHROM.1>
49.50238442,-65.21104065,-131.02472046,-60.11298253,-116.61653646,-119.73932248
28.14810949,36.50434225,70.50621539,-2.18113877,-1.23564585,-2.40485815

>  <Name>
ligand

>  <RI>
0

>  <Rbt.Current_Directory>
/home/itssahil/PROJECTS/Mol_Feturizer/New_Systems/rnas/2HOM

>  <Rbt.Executable>
rbdock ($Id: //depot/dev/client3/rdock/2013.1/src/exe/rbdock.cxx#4 $)

>  <Rbt.Library>
libRbt.so (2013.1, Build901 2013/11/27)

>  <Rbt.Parameter_File>
/export/apps/rDock/src/rDock_2013.1_src/data/scripts/dock_solv.prm

>  <Rbt.Receptor>
prm/pocket_docking_8.prm

>  <SCORE>
-18.2129

>  <SCORE.INTER>
-23.5306

>  <SCORE.INTER.CONST>
1

>  <SCORE.INTER.POLAR>
-1.79695

>  <SCORE.INTER.ROT>
6

>  <SCORE.INTER.SOLV>
10.3961

>  <SCORE.INTER.VDW>
-20.7626

>  <SCORE.INTER.norm>
-1.06957

>  <SCORE.INTRA>
5.2799

>  <SCORE.INTRA.DIHEDRAL>
9.57739

>  <SCORE.INTRA.DIHEDRAL.0>
5.05013

>  <SCORE.INTRA.POLAR>
0

>  <SCORE.INTRA.POLAR.0>
0

>  <SCORE.INTRA.REPUL>
0

>  <SCORE.INTRA.REPUL.0>
0

>  <SCORE.INTRA.SOLV>
1.10381

>  <SCORE.INTRA.SOLV.lig_0>
-54.1265

>  <SCORE.INTRA.VDW>
-0.0607043

>  <SCORE.INTRA.VDW.0>
-2.1303

>  <SCORE.INTRA.norm>
0.239995

>  <SCORE.RESTR>
0.0378061

>  <SCORE.RESTR.CAVITY>
0.0378061

>  <SCORE.RESTR.norm>
0.00171846

>  <SCORE.SYSTEM>
0

>  <SCORE.SYSTEM.CONST>
0

>  <SCORE.SYSTEM.DIHEDRAL>
0

>  <SCORE.SYSTEM.SOLV>
0

>  <SCORE.SYSTEM.norm>
0

>  <SCORE.heavy>
22

>  <SCORE.norm>
-0.827857

>  <RMSD>
9.291

$$$$
ligand
 OpenBabel11021811443D
libRbt.so/2013.1/901 2013/11/27
 22 23  0  0  0  0  0  0  0  0999 V2000
   28.6082   40.5441   76.1301 C   0  0  0  0  0  0  0  0  0  0  0  0
   25.7965   36.3601   69.9135 C   0  0  0  0  0  0  0  0  0  0  0  0
   29.6649   35.8744   65.5601 P   0  0  1  0  0  0  0  0  0  0  0  0
   28.4408   39.2708   74.1117 N   0  0  0  0  0  0  0  0  0  0  0  0
   28.2897   35.9218   65.0008 O   0  0  0  0  0  0  0  0  0  0  0  0
   29.0684   34.3092   71.0516 S   0  0  0  0  0  0  0  0  0  0  0  0
   28.2098   35.0143   72.3118 C   0  0  0  0  0  0  0  0  0  0  0  0
   27.9735   39.4506   75.3957 C   0  0  0  0  0  0  0  0  0  0  0  0
   30.7096   35.4955   64.5740 O   0  5  0  0  0  0  0  0  0  0  0  0
   27.1079   35.7061   71.9510 N   0  0  0  0  0  0  0  0  0  0  0  0
   27.0488   38.7074   75.9421 N   0  0  0  0  0  0  0  0  0  0  0  0
   29.9747   37.1413   66.2966 O   0  0  0  0  0  0  0  0  0  0  0  0
   26.9528   35.6597   70.5644 C   0  0  2  0  0  0  0  0  0  0  0  0
   26.4649   37.6758   75.2143 C   0  0  0  0  0  0  0  0  0  0  0  0
   25.5384   36.9180   75.7936 N   0  0  0  0  0  0  0  0  0  0  0  0
   27.9254   34.9498   69.9007 C   0  0  1  0  0  0  0  0  0  0  0  0
   26.8800   37.4549   73.8388 C   0  0  0  0  0  0  0  0  0  0  0  0
   28.0564   34.7286   68.4367 C   0  0  0  0  0  0  0  0  0  0  0  0
   27.8904   38.2730   73.3747 C   0  0  0  0  0  0  0  0  0  0  0  0
   29.4738   34.7925   68.0062 C   0  0  0  0  0  0  0  0  0  0  0  0
   26.1935   36.4241   72.9632 C   0  0  0  0  0  0  0  0  0  0  0  0
   29.7292   34.6971   66.6044 O   0  0  0  0  0  0  0  0  0  0  0  0
  1  8  1  0  0  0  0
  3  5  1  6  0  0  0
  3  9  1  0  0  0  0
  3 12  2  0  0  0  0
  3 22  1  0  0  0  0
  4  8  2  0  0  0  0
  4 19  1  0  0  0  0
  6 16  1  0  0  0  0
  6  7  1  0  0  0  0
  7 10  1  0  0  0  0
  8 11  1  0  0  0  0
 10 13  1  0  0  0  0
 10 21  1  0  0  0  0
 11 14  2  0  0  0  0
 13  2  1  6  0  0  0
 13 16  1  0  0  0  0
 14 15  1  0  0  0  0
 14 17  1  0  0  0  0
 16 18  1  6  0  0  0
 17 19  2  0  0  0  0
 17 21  1  0  0  0  0
 18 20  1  0  0  0  0
 20 22  1  0  0  0  0
M  CHG  1   9  -1
M  END
>  <CHROM.1>
57.26314568,-38.50435008,-145.88506597,-175.38227906,83.33789532,-91.28172849
28.19631090,36.42792251,70.57494831,-2.04612351,-1.02953363,-2.28451520

>  <Name>
ligand

>  <RI>
0

>  <Rbt.Current_Directory>
/home/itssahil/PROJECTS/Mol_Feturizer/New_Systems/rnas/2HOM

>  <Rbt.Executable>
rbdock ($Id: //depot/dev/client3/rdock/2013.1/src/exe/rbdock.cxx#4 $)

>  <Rbt.Library>
libRbt.so (2013.1, Build901 2013/11/27)

>  <Rbt.Parameter_File>
/export/apps/rDock/src/rDock_2013.1_src/data/scripts/dock_solv.prm

>  <Rbt.Receptor>
prm/blind_docking_100.prm

>  <SCORE>
-20.3911

>  <SCORE.INTER>
-23.2427

>  <SCORE.INTER.CONST>
1

>  <SCORE.INTER.POLAR>
-1.52433

>  <SCORE.INTER.ROT>
6

>  <SCORE.INTER.SOLV>
13.9603

>  <SCORE.INTER.VDW>
-22.6675

>  <SCORE.INTER.norm>
-1.05649

>  <SCORE.INTRA>
2.85162

>  <SCORE.INTRA.DIHEDRAL>
3.62595

>  <SCORE.INTRA.DIHEDRAL.0>
5.05013

>  <SCORE.INTRA.POLAR>
0

>  <SCORE.INTRA.POLAR.0>
0

>  <SCORE.INTRA.REPUL>
0

>  <SCORE.INTRA.REPUL.0>
0

>  <SCORE.INTRA.SOLV>
0.662749

>  <SCORE.INTRA.SOLV.lig_0>
-54.1265

>  <SCORE.INTRA.VDW>
0.707269

>  <SCORE.INTRA.VDW.0>
-2.1303

>  <SCORE.INTRA.norm>
0.129619

>  <SCORE.RESTR>
0

>  <SCORE.RESTR.CAVITY>
0

>  <SCORE.RESTR.norm>
0

>  <SCORE.SYSTEM>
0

>  <SCORE.SYSTEM.CONST>
0

>  <SCORE.SYSTEM.DIHEDRAL>
0

>  <SCORE.SYSTEM.SOLV>
0

>  <SCORE.SYSTEM.norm>
0

>  <SCORE.heavy>
22

>  <SCORE.norm>
-0.926869

>  <RMSD>
9.409

$$$$
ligand
 OpenBabel11021811443D
libRbt.so/2013.1/901 2013/11/27
 22 23  0  0  0  0  0  0  0  0999 V2000
   28.6929   40.6588   76.1844 C   0  0  0  0  0  0  0  0  0  0  0  0
   26.0816   36.9347   70.2545 C   0  0  0  0  0  0  0  0  0  0  0  0
   29.3082   36.5575   65.4873 P   0  0  1  0  0  0  0  0  0  0  0  0
   28.5479   39.3025   74.2190 N   0  0  0  0  0  0  0  0  0  0  0  0
   30.5946   36.1716   66.1217 O   0  0  0  0  0  0  0  0  0  0  0  0
   29.1434   34.3983   70.8858 S   0  0  0  0  0  0  0  0  0  0  0  0
   28.3354   34.8815   72.2773 C   0  0  0  0  0  0  0  0  0  0  0  0
   28.1053   39.5029   75.5087 C   0  0  0  0  0  0  0  0  0  0  0  0
   29.4179   37.6869   64.5283 O   0  5  0  0  0  0  0  0  0  0  0  0
   27.3040   35.7319   72.0869 N   0  0  0  0  0  0  0  0  0  0  0  0
   27.2416   38.7279   76.1081 N   0  0  0  0  0  0  0  0  0  0  0  0
   28.6258   35.3543   64.9126 O   0  0  0  0  0  0  0  0  0  0  0  0
   27.1627   36.0071   70.7255 C   0  0  2  0  0  0  0  0  0  0  0  0
   26.7010   37.6370   75.4353 C   0  0  0  0  0  0  0  0  0  0  0  0
   25.8374   36.8485   76.0682 N   0  0  0  0  0  0  0  0  0  0  0  0
   28.0764   35.3772   69.9139 C   0  0  1  0  0  0  0  0  0  0  0  0
   27.0917   37.3891   74.0573 C   0  0  0  0  0  0  0  0  0  0  0  0
   28.2054   35.4741   68.4363 C   0  0  0  0  0  0  0  0  0  0  0  0
   28.0385   38.2470   73.5348 C   0  0  0  0  0  0  0  0  0  0  0  0
   28.4443   36.8727   68.0062 C   0  0  0  0  0  0  0  0  0  0  0  0
   26.4447   36.2874   73.2397 C   0  0  0  0  0  0  0  0  0  0  0  0
   28.3655   37.1415   66.6059 O   0  0  0  0  0  0  0  0  0  0  0  0
  1  8  1  0  0  0  0
  3  5  1  1  0  0  0
  3  9  1  0  0  0  0
  3 12  2  0  0  0  0
  3 22  1  0  0  0  0
  4  8  2  0  0  0  0
  4 19  1  0  0  0  0
  6 16  1  0  0  0  0
  6  7  1  0  0  0  0
  7 10  1  0  0  0  0
  8 11  1  0  0  0  0
 10 13  1  0  0  0  0
 10 21  1  0  0  0  0
 11 14  2  0  0  0  0
 13  2  1  1  0  0  0
 13 16  1  0  0  0  0
 14 15  1  0  0  0  0
 14 17  1  0  0  0  0
 16 18  1  1  0  0  0
 17 19  2  0  0  0  0
 17 21  1  0  0  0  0
 18 20  1  0  0  0  0
 20 22  1  0  0  0  0
M  CHG  1   9  -1
M  END
>  <CHROM.1>
76.38113828,-120.35958113,-154.68750878,-169.86931746,-63.83754172,-23.69852158
28.15687020,36.80685279,70.62547599,-2.17533594,-1.24865765,-2.35316398

>  <Name>
ligand

>  <RI>
0

>  <Rbt.Current_Directory>
/home/itssahil/PROJECTS/Mol_Feturizer/New_Systems/rnas/2HOM

>  <Rbt.Executable>
rbdock ($Id: //depot/dev/client3/rdock/2013.1/src/exe/rbdock.cxx#4 $)

>  <Rbt.Library>
libRbt.so (2013.1, Build901 2013/11/27)

>  <Rbt.Parameter_File>
/export/apps/rDock/src/rDock_2013.1_src/data/scripts/dock_solv.prm

>  <Rbt.Receptor>
prm/blind_docking_100.prm

>  <SCORE>
-18.0734

>  <SCORE.INTER>
-19.6486

>  <SCORE.INTER.CONST>
1

>  <SCORE.INTER.POLAR>
-1.30767

>  <SCORE.INTER.ROT>
6

>  <SCORE.INTER.SOLV>
11.0747

>  <SCORE.INTER.VDW>
-20.0317

>  <SCORE.INTER.norm>
-0.89312

>  <SCORE.INTRA>
1.57522

>  <SCORE.INTRA.DIHEDRAL>
1.39587

>  <SCORE.INTRA.DIHEDRAL.0>
5.05013

>  <SCORE.INTRA.POLAR>
0

>  <SCORE.INTRA.POLAR.0>
0

>  <SCORE.INTRA.REPUL>
0

>  <SCORE.INTRA.REPUL.0>
0

>  <SCORE.INTRA.SOLV>
0.545105

>  <SCORE.INTRA.SOLV.lig_0>
-54.1265

>  <SCORE.INTRA.VDW>
0.604736

>  <SCORE.INTRA.VDW.0>
-2.1303

>  <SCORE.INTRA.norm>
0.0716011

>  <SCORE.RESTR>
0

>  <SCORE.RESTR.CAVITY>
0

>  <SCORE.RESTR.norm>
0

>  <SCORE.SYSTEM>
0

>  <SCORE.SYSTEM.CONST>
0

>  <SCORE.SYSTEM.DIHEDRAL>
0

>  <SCORE.SYSTEM.SOLV>
0

>  <SCORE.SYSTEM.norm>
0

>  <SCORE.heavy>
22

>  <SCORE.norm>
-0.821519

>  <RMSD>
9.435

$$$$
ligand
 OpenBabel11021811443D
libRbt.so/2013.1/901 2013/11/27
 22 23  0  0  0  0  0  0  0  0999 V2000
   32.9868   43.2337   59.7812 C   0  0  0  0  0  0  0  0  0  0  0  0
   29.3288   39.3332   63.2783 C   0  0  0  0  0  0  0  0  0  0  0  0
   28.9662   39.4458   68.5460 P   0  0  1  0  0  0  0  0  0  0  0  0
   33.1594   40.9188   60.3596 N   0  0  0  0  0  0  0  0  0  0  0  0
   29.2653   39.8097   69.9547 O   0  0  0  0  0  0  0  0  0  0  0  0
   31.3484   35.9575   64.1343 S   0  0  0  0  0  0  0  0  0  0  0  0
   31.3861   36.4052   62.5154 C   0  0  0  0  0  0  0  0  0  0  0  0
   32.3144   41.9661   60.0622 C   0  0  0  0  0  0  0  0  0  0  0  0
   28.1924   38.1867   68.3944 O   0  5  0  0  0  0  0  0  0  0  0  0
   30.7152   37.5358   62.2076 N   0  0  0  0  0  0  0  0  0  0  0  0
   31.0124   41.8646   60.0411 N   0  0  0  0  0  0  0  0  0  0  0  0
   28.3576   40.6078   67.8228 O   0  0  0  0  0  0  0  0  0  0  0  0
   30.1351   38.0704   63.3595 C   0  0  2  0  0  0  0  0  0  0  0  0
   30.4052   40.6428   60.3122 C   0  0  0  0  0  0  0  0  0  0  0  0
   29.0778   40.5633   60.3044 N   0  0  0  0  0  0  0  0  0  0  0  0
   30.3643   37.3483   64.5067 C   0  0  1  0  0  0  0  0  0  0  0  0
   31.2370   39.4844   60.5937 C   0  0  0  0  0  0  0  0  0  0  0  0
   29.8756   37.6365   65.8806 C   0  0  0  0  0  0  0  0  0  0  0  0
   32.5979   39.7127   60.6277 C   0  0  0  0  0  0  0  0  0  0  0  0
   30.5097   38.8573   66.4337 C   0  0  0  0  0  0  0  0  0  0  0  0
   30.6331   38.1053   60.7776 C   0  0  0  0  0  0  0  0  0  0  0  0
   30.3264   39.1067   67.8278 O   0  0  0  0  0  0  0  0  0  0  0  0
  1  8  1  0  0  0  0
  3  5  1  1  0  0  0
  3  9  1  0  0  0  0
  3 12  2  0  0  0  0
  3 22  1  0  0  0  0
  4  8  2  0  0  0  0
  4 19  1  0  0  0  0
  6 16  1  0  0  0  0
  6  7  1  0  0  0  0
  7 10  1  0  0  0  0
  8 11  1  0  0  0  0
 10 13  1  0  0  0  0
 10 21  1  0  0  0  0
 11 14  2  0  0  0  0
 13  2  1  6  0  0  0
 13 16  1  0  0  0  0
 14 15  1  0  0  0  0
 14 17  1  0  0  0  0
 16 18  1  6  0  0  0
 17 19  2  0  0  0  0
 17 21  1  0  0  0  0
 18 20  1  0  0  0  0
 20 22  1  0  0  0  0
M  CHG  1   9  -1
M  END
>  <CHROM.1>
-118.18565865,112.41053542,-111.44628161,-168.44308478,-66.08283800,-172.36174065
30.45827373,39.16086190,63.99522910,0.39488128,1.25126662,-0.20670652

>  <Name>
ligand

>  <RI>
0

>  <Rbt.Current_Directory>
/home/itssahil/PROJECTS/Mol_Feturizer/New_Systems/rnas/2HOM

>  <Rbt.Executable>
rbdock ($Id: //depot/dev/client3/rdock/2013.1/src/exe/rbdock.cxx#4 $)

>  <Rbt.Library>
libRbt.so (2013.1, Build901 2013/11/27)

>  <Rbt.Parameter_File>
/export/apps/rDock/src/rDock_2013.1_src/data/scripts/dock_solv.prm

>  <Rbt.Receptor>
prm/pocket_docking_8.prm

>  <SCORE>
-10.8557

>  <SCORE.INTER>
-13.005

>  <SCORE.INTER.CONST>
1

>  <SCORE.INTER.POLAR>
-1.29545

>  <SCORE.INTER.ROT>
6

>  <SCORE.INTER.SOLV>
12.3744

>  <SCORE.INTER.VDW>
-16.0766

>  <SCORE.INTER.norm>
-0.591135

>  <SCORE.INTRA>
2.14923

>  <SCORE.INTRA.DIHEDRAL>
0.356634

>  <SCORE.INTRA.DIHEDRAL.0>
5.05013

>  <SCORE.INTRA.POLAR>
0

>  <SCORE.INTRA.POLAR.0>
0

>  <SCORE.INTRA.REPUL>
0

>  <SCORE.INTRA.REPUL.0>
0

>  <SCORE.INTRA.SOLV>
3.56006

>  <SCORE.INTRA.SOLV.lig_0>
-54.1265

>  <SCORE.INTRA.VDW>
0.190884

>  <SCORE.INTRA.VDW.0>
-2.1303

>  <SCORE.INTRA.norm>
0.0976924

>  <SCORE.RESTR>
0

>  <SCORE.RESTR.CAVITY>
0

>  <SCORE.RESTR.norm>
0

>  <SCORE.SYSTEM>
0

>  <SCORE.SYSTEM.CONST>
0

>  <SCORE.SYSTEM.DIHEDRAL>
0

>  <SCORE.SYSTEM.SOLV>
0

>  <SCORE.SYSTEM.norm>
0

>  <SCORE.heavy>
22

>  <SCORE.norm>
-0.493443

>  <RMSD>
9.506

$$$$
ligand
 OpenBabel11021811443D
libRbt.so/2013.1/901 2013/11/27
 22 23  0  0  0  0  0  0  0  0999 V2000
   28.4754   40.2347   75.7724 C   0  0  0  0  0  0  0  0  0  0  0  0
   27.6180   34.8055   72.5968 C   0  0  0  0  0  0  0  0  0  0  0  0
   28.0523   38.0548   68.7968 P   0  0  1  0  0  0  0  0  0  0  0  0
   27.6144   38.6952   74.1562 N   0  0  0  0  0  0  0  0  0  0  0  0
   28.0364   38.0749   67.3117 O   0  0  0  0  0  0  0  0  0  0  0  0
   24.2219   35.1620   70.4647 S   0  0  0  0  0  0  0  0  0  0  0  0
   24.0677   35.5343   72.0957 C   0  0  0  0  0  0  0  0  0  0  0  0
   27.6667   39.0505   75.4867 C   0  0  0  0  0  0  0  0  0  0  0  0
   29.4027   37.8701   69.3880 O   0  5  0  0  0  0  0  0  0  0  0  0
   25.1962   35.4219   72.8284 N   0  0  0  0  0  0  0  0  0  0  0  0
   27.0633   38.3900   76.4384 N   0  0  0  0  0  0  0  0  0  0  0  0
   27.3213   39.2420   69.3445 O   0  0  0  0  0  0  0  0  0  0  0  0
   26.2507   35.0075   72.0128 C   0  0  2  0  0  0  0  0  0  0  0  0
   26.3007   37.2680   76.1313 C   0  0  0  0  0  0  0  0  0  0  0  0
   25.7091   36.5975   77.1155 N   0  0  0  0  0  0  0  0  0  0  0  0
   25.9141   34.8087   70.6947 C   0  0  1  0  0  0  0  0  0  0  0  0
   26.1675   36.8593   74.7426 C   0  0  0  0  0  0  0  0  0  0  0  0
   26.7934   34.3545   69.5858 C   0  0  0  0  0  0  0  0  0  0  0  0
   26.8774   37.6054   73.8234 C   0  0  0  0  0  0  0  0  0  0  0  0
   27.7421   35.4189   69.1791 C   0  0  0  0  0  0  0  0  0  0  0  0
   25.2535   35.7178   74.3401 C   0  0  0  0  0  0  0  0  0  0  0  0
   27.2829   36.7674   69.2780 O   0  0  0  0  0  0  0  0  0  0  0  0
  1  8  1  0  0  0  0
  3  5  1  6  0  0  0
  3  9  1  0  0  0  0
  3 12  2  0  0  0  0
  3 22  1  0  0  0  0
  4  8  2  0  0  0  0
  4 19  1  0  0  0  0
  6 16  1  0  0  0  0
  6  7  1  0  0  0  0
  7 10  1  0  0  0  0
  8 11  1  0  0  0  0
 10 13  1  0  0  0  0
 10 21  1  0  0  0  0
 11 14  2  0  0  0  0
 13  2  1  1  0  0  0
 13 16  1  0  0  0  0
 14 15  1  0  0  0  0
 14 17  1  0  0  0  0
 16 18  1  1  0  0  0
 17 19  2  0  0  0  0
 17 21  1  0  0  0  0
 18 20  1  0  0  0  0
 20 22  1  0  0  0  0
M  CHG  1   9  -1
M  END
>  <CHROM.1>
-117.65622910,108.07603960,178.76637538,-33.12962866,-174.52393048,71.87723232
26.76340024,36.87158211,71.94516819,-1.72901348,-0.88311351,-1.81475127

>  <Name>
ligand

>  <RI>
0

>  <Rbt.Current_Directory>
/home/itssahil/PROJECTS/Mol_Feturizer/New_Systems/rnas/2HOM

>  <Rbt.Executable>
rbdock ($Id: //depot/dev/client3/rdock/2013.1/src/exe/rbdock.cxx#4 $)

>  <Rbt.Library>
libRbt.so (2013.1, Build901 2013/11/27)

>  <Rbt.Parameter_File>
/export/apps/rDock/src/rDock_2013.1_src/data/scripts/dock_solv.prm

>  <Rbt.Receptor>
prm/blind_docking_100.prm

>  <SCORE>
-14.6441

>  <SCORE.INTER>
-15.9465

>  <SCORE.INTER.CONST>
1

>  <SCORE.INTER.POLAR>
-1.63459

>  <SCORE.INTER.ROT>
6

>  <SCORE.INTER.SOLV>
9.72714

>  <SCORE.INTER.VDW>
-16.0247

>  <SCORE.INTER.norm>
-0.724839

>  <SCORE.INTRA>
1.15601

>  <SCORE.INTRA.DIHEDRAL>
2.24566

>  <SCORE.INTRA.DIHEDRAL.0>
5.05013

>  <SCORE.INTRA.POLAR>
0

>  <SCORE.INTRA.POLAR.0>
0

>  <SCORE.INTRA.REPUL>
0

>  <SCORE.INTRA.REPUL.0>
0

>  <SCORE.INTRA.SOLV>
0.00936197

>  <SCORE.INTRA.SOLV.lig_0>
-54.1265

>  <SCORE.INTRA.VDW>
0.0285031

>  <SCORE.INTRA.VDW.0>
-2.1303

>  <SCORE.INTRA.norm>
0.0525461

>  <SCORE.RESTR>
0.146353

>  <SCORE.RESTR.CAVITY>
0.146353

>  <SCORE.RESTR.norm>
0.00665239

>  <SCORE.SYSTEM>
0

>  <SCORE.SYSTEM.CONST>
0

>  <SCORE.SYSTEM.DIHEDRAL>
0

>  <SCORE.SYSTEM.SOLV>
0

>  <SCORE.SYSTEM.norm>
0

>  <SCORE.heavy>
22

>  <SCORE.norm>
-0.665641

>  <RMSD>
9.564

$$$$
ligand
 OpenBabel11021811443D
libRbt.so/2013.1/901 2013/11/27
 22 23  0  0  0  0  0  0  0  0999 V2000
   28.6416   39.9652   78.1362 C   0  0  0  0  0  0  0  0  0  0  0  0
   25.5903   36.0719   70.9120 C   0  0  0  0  0  0  0  0  0  0  0  0
   29.3050   36.6489   65.4671 P   0  0  1  0  0  0  0  0  0  0  0  0
   28.7793   39.1997   75.8738 N   0  0  0  0  0  0  0  0  0  0  0  0
   30.3848   36.0168   66.2675 O   0  0  0  0  0  0  0  0  0  0  0  0
   28.2939   39.0384   70.6003 S   0  0  0  0  0  0  0  0  0  0  0  0
   27.9143   38.5990   72.1769 C   0  0  0  0  0  0  0  0  0  0  0  0
   28.0648   39.1718   77.0519 C   0  0  0  0  0  0  0  0  0  0  0  0
   29.6626   37.9770   64.9053 O   0  5  0  0  0  0  0  0  0  0  0  0
   27.0097   37.6046   72.3030 N   0  0  0  0  0  0  0  0  0  0  0  0
   26.9650   38.4869   77.2176 N   0  0  0  0  0  0  0  0  0  0  0  0
   28.7843   35.6904   64.4406 O   0  0  0  0  0  0  0  0  0  0  0  0
   26.6005   37.1739   71.0397 C   0  0  2  0  0  0  0  0  0  0  0  0
   26.4429   37.7434   76.1643 C   0  0  0  0  0  0  0  0  0  0  0  0
   25.3325   37.0376   76.3573 N   0  0  0  0  0  0  0  0  0  0  0  0
   27.1855   37.8391   69.9882 C   0  0  1  0  0  0  0  0  0  0  0  0
   27.1223   37.7597   74.8793 C   0  0  0  0  0  0  0  0  0  0  0  0
   26.9532   37.6340   68.5346 C   0  0  0  0  0  0  0  0  0  0  0  0
   28.2954   38.4854   74.8262 C   0  0  0  0  0  0  0  0  0  0  0  0
   28.2096   37.2780   67.8324 C   0  0  0  0  0  0  0  0  0  0  0  0
   26.5333   37.0654   73.6663 C   0  0  0  0  0  0  0  0  0  0  0  0
   28.1121   36.9913   66.4368 O   0  0  0  0  0  0  0  0  0  0  0  0
  1  8  1  0  0  0  0
  3  5  1  1  0  0  0
  3  9  1  0  0  0  0
  3 12  2  0  0  0  0
  3 22  1  0  0  0  0
  4  8  2  0  0  0  0
  4 19  1  0  0  0  0
  6 16  1  0  0  0  0
  6  7  1  0  0  0  0
  7 10  1  0  0  0  0
  8 11  1  0  0  0  0
 10 13  1  0  0  0  0
 10 21  1  0  0  0  0
 11 14  2  0  0  0  0
 13  2  1  1  0  0  0
 13 16  1  0  0  0  0
 14 15  1  0  0  0  0
 14 17  1  0  0  0  0
 16 18  1  1  0  0  0
 17 19  2  0  0  0  0
 17 21  1  0  0  0  0
 18 20  1  0  0  0  0
 20 22  1  0  0  0  0
M  CHG  1   9  -1
M  END
>  <CHROM.1>
1.75001853,59.14675087,156.46186859,177.11640478,177.32548251,27.93117859
27.89003148,37.68263056,71.02164655,-1.75576205,-0.58999957,-1.83724148

>  <Name>
ligand

>  <RI>
0

>  <Rbt.Current_Directory>
/home/itssahil/PROJECTS/Mol_Feturizer/New_Systems/rnas/2HOM

>  <Rbt.Executable>
rbdock ($Id: //depot/dev/client3/rdock/2013.1/src/exe/rbdock.cxx#4 $)

>  <Rbt.Library>
libRbt.so (2013.1, Build901 2013/11/27)

>  <Rbt.Parameter_File>
/export/apps/rDock/src/rDock_2013.1_src/data/scripts/dock_solv.prm

>  <Rbt.Receptor>
prm/blind_docking_100.prm

>  <SCORE>
-14.764

>  <SCORE.INTER>
-17.2659

>  <SCORE.INTER.CONST>
1

>  <SCORE.INTER.POLAR>
-1.30767

>  <SCORE.INTER.ROT>
6

>  <SCORE.INTER.SOLV>
11.2193

>  <SCORE.INTER.VDW>
-18.4915

>  <SCORE.INTER.norm>
-0.784813

>  <SCORE.INTRA>
2.50189

>  <SCORE.INTRA.DIHEDRAL>
1.65074

>  <SCORE.INTRA.DIHEDRAL.0>
5.05013

>  <SCORE.INTRA.POLAR>
0

>  <SCORE.INTRA.POLAR.0>
0

>  <SCORE.INTRA.REPUL>
0

>  <SCORE.INTRA.REPUL.0>
0

>  <SCORE.INTRA.SOLV>
-0.149959

>  <SCORE.INTRA.SOLV.lig_0>
-54.1265

>  <SCORE.INTRA.VDW>
1.7515

>  <SCORE.INTRA.VDW.0>
-2.1303

>  <SCORE.INTRA.norm>
0.113722

>  <SCORE.RESTR>
0

>  <SCORE.RESTR.CAVITY>
0

>  <SCORE.RESTR.norm>
0

>  <SCORE.SYSTEM>
0

>  <SCORE.SYSTEM.CONST>
0

>  <SCORE.SYSTEM.DIHEDRAL>
0

>  <SCORE.SYSTEM.SOLV>
0

>  <SCORE.SYSTEM.norm>
0

>  <SCORE.heavy>
22

>  <SCORE.norm>
-0.67109

>  <RMSD>
9.644

$$$$
ligand
 OpenBabel11021811443D
libRbt.so/2013.1/901 2013/11/27
 22 23  0  0  0  0  0  0  0  0999 V2000
   22.8020   39.1783   78.2226 C   0  0  0  0  0  0  0  0  0  0  0  0
   27.0001   36.5901   72.7436 C   0  0  0  0  0  0  0  0  0  0  0  0
   27.9875   37.6415   68.3802 P   0  0  1  0  0  0  0  0  0  0  0  0
   24.5200   38.5356   76.6869 N   0  0  0  0  0  0  0  0  0  0  0  0
   26.8774   38.5002   67.8937 O   0  0  0  0  0  0  0  0  0  0  0  0
   23.6166   34.7672   71.5454 S   0  0  0  0  0  0  0  0  0  0  0  0
   23.9366   34.6400   73.1898 C   0  0  0  0  0  0  0  0  0  0  0  0
   23.4757   38.1135   77.4809 C   0  0  0  0  0  0  0  0  0  0  0  0
   29.1306   37.5334   67.4375 O   0  5  0  0  0  0  0  0  0  0  0  0
   25.0669   35.2459   73.6122 N   0  0  0  0  0  0  0  0  0  0  0  0
   23.1065   36.8655   77.5915 N   0  0  0  0  0  0  0  0  0  0  0  0
   28.3947   38.0458   69.7638 O   0  0  0  0  0  0  0  0  0  0  0  0
   25.7119   35.8505   72.5318 C   0  0  2  0  0  0  0  0  0  0  0  0
   23.7687   35.8774   76.8703 C   0  0  0  0  0  0  0  0  0  0  0  0
   23.3908   34.6101   77.0100 N   0  0  0  0  0  0  0  0  0  0  0  0
   25.0769   35.6941   71.3224 C   0  0  1  0  0  0  0  0  0  0  0  0
   24.8541   36.2558   75.9805 C   0  0  0  0  0  0  0  0  0  0  0  0
   25.5096   36.1955   69.9918 C   0  0  0  0  0  0  0  0  0  0  0  0
   25.1859   37.5957   75.9693 C   0  0  0  0  0  0  0  0  0  0  0  0
   26.7787   35.5602   69.5625 C   0  0  0  0  0  0  0  0  0  0  0  0
   25.5298   35.2372   75.0825 C   0  0  0  0  0  0  0  0  0  0  0  0
   27.4616   36.1590   68.4605 O   0  0  0  0  0  0  0  0  0  0  0  0
  1  8  1  0  0  0  0
  3  5  1  6  0  0  0
  3  9  1  0  0  0  0
  3 12  2  0  0  0  0
  3 22  1  0  0  0  0
  4  8  2  0  0  0  0
  4 19  1  0  0  0  0
  6 16  1  0  0  0  0
  6  7  1  0  0  0  0
  7 10  1  0  0  0  0
  8 11  1  0  0  0  0
 10 13  1  0  0  0  0
 10 21  1  0  0  0  0
 11 14  2  0  0  0  0
 13  2  1  6  0  0  0
 13 16  1  0  0  0  0
 14 15  1  0  0  0  0
 14 17  1  0  0  0  0
 16 18  1  6  0  0  0
 17 19  2  0  0  0  0
 17 21  1  0  0  0  0
 18 20  1  0  0  0  0
 20 22  1  0  0  0  0
M  CHG  1   9  -1
M  END
>  <CHROM.1>
-80.86225089,-114.87815293,100.35744633,-166.27735868,58.79166353,-86.47214793
25.54172411,36.57655813,72.58027976,-2.36055132,-0.93044808,-2.21508201

>  <Name>
ligand

>  <RI>
0

>  <Rbt.Current_Directory>
/home/itssahil/PROJECTS/Mol_Feturizer/New_Systems/rnas/2HOM

>  <Rbt.Executable>
rbdock ($Id: //depot/dev/client3/rdock/2013.1/src/exe/rbdock.cxx#4 $)

>  <Rbt.Library>
libRbt.so (2013.1, Build901 2013/11/27)

>  <Rbt.Parameter_File>
/export/apps/rDock/src/rDock_2013.1_src/data/scripts/dock_solv.prm

>  <Rbt.Receptor>
prm/blind_docking_100.prm

>  <SCORE>
-14.7465

>  <SCORE.INTER>
-16.2514

>  <SCORE.INTER.CONST>
1

>  <SCORE.INTER.POLAR>
-1.62843

>  <SCORE.INTER.ROT>
6

>  <SCORE.INTER.SOLV>
7.58054

>  <SCORE.INTER.VDW>
-15.533

>  <SCORE.INTER.norm>
-0.738698

>  <SCORE.INTRA>
1.49559

>  <SCORE.INTRA.DIHEDRAL>
1.12709

>  <SCORE.INTRA.DIHEDRAL.0>
5.05013

>  <SCORE.INTRA.POLAR>
0

>  <SCORE.INTRA.POLAR.0>
0

>  <SCORE.INTRA.REPUL>
0

>  <SCORE.INTRA.REPUL.0>
0

>  <SCORE.INTRA.SOLV>
1.86786

>  <SCORE.INTRA.SOLV.lig_0>
-54.1265

>  <SCORE.INTRA.VDW>
-0.00188229

>  <SCORE.INTRA.VDW.0>
-2.1303

>  <SCORE.INTRA.norm>
0.0679815

>  <SCORE.RESTR>
0.00920922

>  <SCORE.RESTR.CAVITY>
0.00920922

>  <SCORE.RESTR.norm>
0.000418601

>  <SCORE.SYSTEM>
0

>  <SCORE.SYSTEM.CONST>
0

>  <SCORE.SYSTEM.DIHEDRAL>
0

>  <SCORE.SYSTEM.SOLV>
0

>  <SCORE.SYSTEM.norm>
0

>  <SCORE.heavy>
22

>  <SCORE.norm>
-0.670298

>  <RMSD>
9.648

$$$$
ligand
 OpenBabel11021811443D
libRbt.so/2013.1/901 2013/11/27
 22 23  0  0  0  0  0  0  0  0999 V2000
   34.6738   40.6974   60.3342 C   0  0  0  0  0  0  0  0  0  0  0  0
   28.1441   37.3423   64.3068 C   0  0  0  0  0  0  0  0  0  0  0  0
   29.0516   39.7066   68.2831 P   0  0  1  0  0  0  0  0  0  0  0  0
   33.8285   38.6193   61.1648 N   0  0  0  0  0  0  0  0  0  0  0  0
   27.9973   40.3007   67.4219 O   0  0  0  0  0  0  0  0  0  0  0  0
   31.5272   35.6175   65.6435 S   0  0  0  0  0  0  0  0  0  0  0  0
   31.6153   36.2096   64.0737 C   0  0  0  0  0  0  0  0  0  0  0  0
   33.5381   39.9261   60.8374 C   0  0  0  0  0  0  0  0  0  0  0  0
   30.3571   40.4131   68.2211 O   0  5  0  0  0  0  0  0  0  0  0  0
   30.4908   36.7930   63.6067 N   0  0  0  0  0  0  0  0  0  0  0  0
   32.3544   40.4617   60.9708 N   0  0  0  0  0  0  0  0  0  0  0  0
   28.5432   39.5193   69.6796 O   0  0  0  0  0  0  0  0  0  0  0  0
   29.4967   36.7560   64.5862 C   0  0  2  0  0  0  0  0  0  0  0  0
   31.2954   39.6986   61.4515 C   0  0  0  0  0  0  0  0  0  0  0  0
   30.1019   40.2663   61.5982 N   0  0  0  0  0  0  0  0  0  0  0  0
   29.8709   36.1505   65.7624 C   0  0  1  0  0  0  0  0  0  0  0  0
   31.5198   38.3000   61.7781 C   0  0  0  0  0  0  0  0  0  0  0  0
   29.0481   35.9358   66.9816 C   0  0  0  0  0  0  0  0  0  0  0  0
   32.8163   37.8477   61.6358 C   0  0  0  0  0  0  0  0  0  0  0  0
   28.4824   37.2116   67.4821 C   0  0  0  0  0  0  0  0  0  0  0  0
   30.3767   37.3928   62.1914 C   0  0  0  0  0  0  0  0  0  0  0  0
   29.4013   38.2793   67.7161 O   0  0  0  0  0  0  0  0  0  0  0  0
  1  8  1  0  0  0  0
  3  5  1  6  0  0  0
  3  9  1  0  0  0  0
  3 12  2  0  0  0  0
  3 22  1  0  0  0  0
  4  8  2  0  0  0  0
  4 19  1  0  0  0  0
  6 16  1  0  0  0  0
  6  7  1  0  0  0  0
  7 10  1  0  0  0  0
  8 11  1  0  0  0  0
 10 13  1  0  0  0  0
 10 21  1  0  0  0  0
 11 14  2  0  0  0  0
 13  2  1  6  0  0  0
 13 16  1  0  0  0  0
 14 15  1  0  0  0  0
 14 17  1  0  0  0  0
 16 18  1  6  0  0  0
 17 19  2  0  0  0  0
 17 21  1  0  0  0  0
 18 20  1  0  0  0  0
 20 22  1  0  0  0  0
M  CHG  1   9  -1
M  END
>  <CHROM.1>
-47.74981057,125.20528064,-118.61722011,-53.43557376,-178.09775784,-55.10586341
30.56065398,38.31671161,64.75713517,0.02291676,1.06874356,0.06306432

>  <Name>
ligand

>  <RI>
0

>  <Rbt.Current_Directory>
/home/itssahil/PROJECTS/Mol_Feturizer/New_Systems/rnas/2HOM

>  <Rbt.Executable>
rbdock ($Id: //depot/dev/client3/rdock/2013.1/src/exe/rbdock.cxx#4 $)

>  <Rbt.Library>
libRbt.so (2013.1, Build901 2013/11/27)

>  <Rbt.Parameter_File>
/export/apps/rDock/src/rDock_2013.1_src/data/scripts/dock_solv.prm

>  <Rbt.Receptor>
prm/pocket_docking_8.prm

>  <SCORE>
-18.8901

>  <SCORE.INTER>
-19.2916

>  <SCORE.INTER.CONST>
1

>  <SCORE.INTER.POLAR>
-2.49352

>  <SCORE.INTER.ROT>
6

>  <SCORE.INTER.SOLV>
12.9105

>  <SCORE.INTER.VDW>
-16.4529

>  <SCORE.INTER.norm>
-0.876893

>  <SCORE.INTRA>
0.401509

>  <SCORE.INTRA.DIHEDRAL>
-0.263654

>  <SCORE.INTRA.DIHEDRAL.0>
5.05013

>  <SCORE.INTRA.POLAR>
0

>  <SCORE.INTRA.POLAR.0>
0

>  <SCORE.INTRA.REPUL>
0

>  <SCORE.INTRA.REPUL.0>
0

>  <SCORE.INTRA.SOLV>
0.335919

>  <SCORE.INTRA.SOLV.lig_0>
-54.1265

>  <SCORE.INTRA.VDW>
0.365376

>  <SCORE.INTRA.VDW.0>
-2.1303

>  <SCORE.INTRA.norm>
0.0182504

>  <SCORE.RESTR>
0

>  <SCORE.RESTR.CAVITY>
0

>  <SCORE.RESTR.norm>
0

>  <SCORE.SYSTEM>
0

>  <SCORE.SYSTEM.CONST>
0

>  <SCORE.SYSTEM.DIHEDRAL>
0

>  <SCORE.SYSTEM.SOLV>
0

>  <SCORE.SYSTEM.norm>
0

>  <SCORE.heavy>
22

>  <SCORE.norm>
-0.858642

>  <RMSD>
9.654

$$$$
ligand
 OpenBabel11021811443D
libRbt.so/2013.1/901 2013/11/27
 22 23  0  0  0  0  0  0  0  0999 V2000
   24.4228   37.9741   67.5990 C   0  0  0  0  0  0  0  0  0  0  0  0
   27.5716   35.6178   74.0063 C   0  0  0  0  0  0  0  0  0  0  0  0
   28.9321   40.8818   78.2545 P   0  0  1  0  0  0  0  0  0  0  0  0
   25.1757   37.1306   69.7073 N   0  0  0  0  0  0  0  0  0  0  0  0
   30.3595   40.4805   78.3426 O   0  0  0  0  0  0  0  0  0  0  0  0
   28.3498   39.5482   74.3972 S   0  0  0  0  0  0  0  0  0  0  0  0
   28.6355   38.9265   72.8627 C   0  0  0  0  0  0  0  0  0  0  0  0
   25.5388   37.6802   68.4968 C   0  0  0  0  0  0  0  0  0  0  0  0
   28.1743   40.7147   79.5214 O   0  5  0  0  0  0  0  0  0  0  0  0
   28.3795   37.6095   72.7105 N   0  0  0  0  0  0  0  0  0  0  0  0
   26.7754   37.9158   68.1485 N   0  0  0  0  0  0  0  0  0  0  0  0
   28.8090   42.2533   77.6651 O   0  0  0  0  0  0  0  0  0  0  0  0
   27.9231   37.0737   73.9161 C   0  0  2  0  0  0  0  0  0  0  0  0
   27.8134   37.6252   69.0278 C   0  0  0  0  0  0  0  0  0  0  0  0
   29.0671   37.8545   68.6484 N   0  0  0  0  0  0  0  0  0  0  0  0
   27.8447   37.9740   74.9522 C   0  0  1  0  0  0  0  0  0  0  0  0
   27.5008   37.0817   70.3392 C   0  0  0  0  0  0  0  0  0  0  0  0
   27.4182   37.7197   76.3532 C   0  0  0  0  0  0  0  0  0  0  0  0
   26.1653   36.8367   70.5882 C   0  0  0  0  0  0  0  0  0  0  0  0
   28.2674   38.4586   77.3182 C   0  0  0  0  0  0  0  0  0  0  0  0
   28.5820   36.8591   71.3794 C   0  0  0  0  0  0  0  0  0  0  0  0
   28.2018   39.8845   77.2783 O   0  0  0  0  0  0  0  0  0  0  0  0
  1  8  1  0  0  0  0
  3  5  1  1  0  0  0
  3  9  1  0  0  0  0
  3 12  2  0  0  0  0
  3 22  1  0  0  0  0
  4  8  2  0  0  0  0
  4 19  1  0  0  0  0
  6 16  1  0  0  0  0
  6  7  1  0  0  0  0
  7 10  1  0  0  0  0
  8 11  1  0  0  0  0
 10 13  1  0  0  0  0
 10 21  1  0  0  0  0
 11 14  2  0  0  0  0
 13  2  1  1  0  0  0
 13 16  1  0  0  0  0
 14 15  1  0  0  0  0
 14 17  1  0  0  0  0
 16 18  1  1  0  0  0
 17 19  2  0  0  0  0
 17 21  1  0  0  0  0
 18 20  1  0  0  0  0
 20 22  1  0  0  0  0
M  CHG  1   9  -1
M  END
>  <CHROM.1>
-77.44802455,-39.72257340,121.46389914,65.15639760,175.83673308,49.13991225
27.84935430,38.63661626,73.73760065,-2.67646685,1.31067646,2.33803761

>  <Name>
ligand

>  <RI>
0

>  <Rbt.Current_Directory>
/home/itssahil/PROJECTS/Mol_Feturizer/New_Systems/rnas/2HOM

>  <Rbt.Executable>
rbdock ($Id: //depot/dev/client3/rdock/2013.1/src/exe/rbdock.cxx#4 $)

>  <Rbt.Library>
libRbt.so (2013.1, Build901 2013/11/27)

>  <Rbt.Parameter_File>
/export/apps/rDock/src/rDock_2013.1_src/data/scripts/dock_solv.prm

>  <Rbt.Receptor>
prm/blind_docking_100.prm

>  <SCORE>
-17.2583

>  <SCORE.INTER>
-17.7275

>  <SCORE.INTER.CONST>
1

>  <SCORE.INTER.POLAR>
-1.30767

>  <SCORE.INTER.ROT>
6

>  <SCORE.INTER.SOLV>
12.5895

>  <SCORE.INTER.VDW>
-19.256

>  <SCORE.INTER.norm>
-0.805796

>  <SCORE.INTRA>
0.469246

>  <SCORE.INTRA.DIHEDRAL>
0.400902

>  <SCORE.INTRA.DIHEDRAL.0>
5.05013

>  <SCORE.INTRA.POLAR>
0

>  <SCORE.INTRA.POLAR.0>
0

>  <SCORE.INTRA.REPUL>
0

>  <SCORE.INTRA.REPUL.0>
0

>  <SCORE.INTRA.SOLV>
-0.0671935

>  <SCORE.INTRA.SOLV.lig_0>
-54.1265

>  <SCORE.INTRA.VDW>
0.302392

>  <SCORE.INTRA.VDW.0>
-2.1303

>  <SCORE.INTRA.norm>
0.0213294

>  <SCORE.RESTR>
0

>  <SCORE.RESTR.CAVITY>
0

>  <SCORE.RESTR.norm>
0

>  <SCORE.SYSTEM>
0

>  <SCORE.SYSTEM.CONST>
0

>  <SCORE.SYSTEM.DIHEDRAL>
0

>  <SCORE.SYSTEM.SOLV>
0

>  <SCORE.SYSTEM.norm>
0

>  <SCORE.heavy>
22

>  <SCORE.norm>
-0.784466

>  <RMSD>
9.712

$$$$
ligand
 OpenBabel11021811443D
libRbt.so/2013.1/901 2013/11/27
 22 23  0  0  0  0  0  0  0  0999 V2000
   33.0199   35.8668   63.5449 C   0  0  0  0  0  0  0  0  0  0  0  0
   26.5683   37.7015   69.1216 C   0  0  0  0  0  0  0  0  0  0  0  0
   23.5497   33.4275   70.4093 P   0  0  1  0  0  0  0  0  0  0  0  0
   31.3659   35.2254   65.1499 N   0  0  0  0  0  0  0  0  0  0  0  0
   24.1369   32.2388   69.7396 O   0  0  0  0  0  0  0  0  0  0  0  0
   28.6482   34.3179   69.7791 S   0  0  0  0  0  0  0  0  0  0  0  0
   28.9590   35.0557   68.3020 C   0  0  0  0  0  0  0  0  0  0  0  0
   31.8713   36.2417   64.3684 C   0  0  0  0  0  0  0  0  0  0  0  0
   22.5312   34.1417   69.5971 O   0  5  0  0  0  0  0  0  0  0  0  0
   28.2718   36.1930   68.0626 N   0  0  0  0  0  0  0  0  0  0  0  0
   31.3906   37.4561   64.3571 N   0  0  0  0  0  0  0  0  0  0  0  0
   23.0708   33.0714   71.7832 O   0  0  0  0  0  0  0  0  0  0  0  0
   27.4417   36.4817   69.1473 C   0  0  2  0  0  0  0  0  0  0  0  0
   30.2957   37.7786   65.1523 C   0  0  0  0  0  0  0  0  0  0  0  0
   29.8319   39.0247   65.1416 N   0  0  0  0  0  0  0  0  0  0  0  0
   27.5040   35.5725   70.1767 C   0  0  1  0  0  0  0  0  0  0  0  0
   29.6852   36.7446   65.9716 C   0  0  0  0  0  0  0  0  0  0  0  0
   26.7405   35.5826   71.4520 C   0  0  0  0  0  0  0  0  0  0  0  0
   30.2965   35.5075   65.9365 C   0  0  0  0  0  0  0  0  0  0  0  0
   25.7650   34.4674   71.5055 C   0  0  0  0  0  0  0  0  0  0  0  0
   28.4196   37.0105   66.7641 C   0  0  0  0  0  0  0  0  0  0  0  0
   24.6838   34.5081   70.5734 O   0  0  0  0  0  0  0  0  0  0  0  0
  1  8  1  0  0  0  0
  3  5  1  6  0  0  0
  3  9  1  0  0  0  0
  3 12  2  0  0  0  0
  3 22  1  0  0  0  0
  4  8  2  0  0  0  0
  4 19  1  0  0  0  0
  6 16  1  0  0  0  0
  6  7  1  0  0  0  0
  7 10  1  0  0  0  0
  8 11  1  0  0  0  0
 10 13  1  0  0  0  0
 10 21  1  0  0  0  0
 11 14  2  0  0  0  0
 13  2  1  6  0  0  0
 13 16  1  0  0  0  0
 14 15  1  0  0  0  0
 14 17  1  0  0  0  0
 16 18  1  6  0  0  0
 17 19  2  0  0  0  0
 17 21  1  0  0  0  0
 18 20  1  0  0  0  0
 20 22  1  0  0  0  0
M  CHG  1   9  -1
M  END
>  <CHROM.1>
-19.47523289,-67.79621328,-150.19281769,-66.14914493,178.25076044,-73.85660181
27.57963472,35.37331437,68.30465542,-0.47235979,-0.60239345,2.88459563

>  <Name>
ligand

>  <RI>
0

>  <Rbt.Current_Directory>
/home/itssahil/PROJECTS/Mol_Feturizer/New_Systems/rnas/2HOM

>  <Rbt.Executable>
rbdock ($Id: //depot/dev/client3/rdock/2013.1/src/exe/rbdock.cxx#4 $)

>  <Rbt.Library>
libRbt.so (2013.1, Build901 2013/11/27)

>  <Rbt.Parameter_File>
/export/apps/rDock/src/rDock_2013.1_src/data/scripts/dock_solv.prm

>  <Rbt.Receptor>
prm/pocket_docking_8.prm

>  <SCORE>
-15.808

>  <SCORE.INTER>
-16.6495

>  <SCORE.INTER.CONST>
1

>  <SCORE.INTER.POLAR>
0

>  <SCORE.INTER.ROT>
6

>  <SCORE.INTER.SOLV>
14.2198

>  <SCORE.INTER.VDW>
-23.4396

>  <SCORE.INTER.norm>
-0.756797

>  <SCORE.INTRA>
0.84155

>  <SCORE.INTRA.DIHEDRAL>
0.43685

>  <SCORE.INTRA.DIHEDRAL.0>
5.05013

>  <SCORE.INTRA.POLAR>
0

>  <SCORE.INTRA.POLAR.0>
0

>  <SCORE.INTRA.REPUL>
0

>  <SCORE.INTRA.REPUL.0>
0

>  <SCORE.INTRA.SOLV>
-0.00446544

>  <SCORE.INTRA.SOLV.lig_0>
-54.1265

>  <SCORE.INTRA.VDW>
0.625357

>  <SCORE.INTRA.VDW.0>
-2.1303

>  <SCORE.INTRA.norm>
0.0382523

>  <SCORE.RESTR>
0

>  <SCORE.RESTR.CAVITY>
0

>  <SCORE.RESTR.norm>
0

>  <SCORE.SYSTEM>
0

>  <SCORE.SYSTEM.CONST>
0

>  <SCORE.SYSTEM.DIHEDRAL>
0

>  <SCORE.SYSTEM.SOLV>
0

>  <SCORE.SYSTEM.norm>
0

>  <SCORE.heavy>
22

>  <SCORE.norm>
-0.718545

>  <RMSD>
9.777

$$$$
ligand
 OpenBabel11021811443D
libRbt.so/2013.1/901 2013/11/27
 22 23  0  0  0  0  0  0  0  0999 V2000
   28.8275   41.0093   76.0257 C   0  0  0  0  0  0  0  0  0  0  0  0
   26.0791   36.8420   70.9907 C   0  0  0  0  0  0  0  0  0  0  0  0
   29.2842   35.8601   65.8067 P   0  0  1  0  0  0  0  0  0  0  0  0
   28.4125   39.5416   74.1827 N   0  0  0  0  0  0  0  0  0  0  0  0
   30.7062   36.1809   66.0918 O   0  0  0  0  0  0  0  0  0  0  0  0
   29.2031   34.3037   71.0574 S   0  0  0  0  0  0  0  0  0  0  0  0
   28.6087   34.7233   72.5717 C   0  0  0  0  0  0  0  0  0  0  0  0
   28.3500   39.7122   75.5488 C   0  0  0  0  0  0  0  0  0  0  0  0
   28.3257   36.9095   66.2392 O   0  5  0  0  0  0  0  0  0  0  0  0
   27.5597   35.5734   72.5710 N   0  0  0  0  0  0  0  0  0  0  0  0
   27.9172   38.7981   76.3752 N   0  0  0  0  0  0  0  0  0  0  0  0
   29.1156   35.4554   64.3744 O   0  0  0  0  0  0  0  0  0  0  0  0
   27.2188   35.9035   71.2581 C   0  0  2  0  0  0  0  0  0  0  0  0
   27.4688   37.5750   75.8874 C   0  0  0  0  0  0  0  0  0  0  0  0
   27.0493   36.6498   76.7454 N   0  0  0  0  0  0  0  0  0  0  0  0
   28.0034   35.3141   70.2950 C   0  0  1  0  0  0  0  0  0  0  0  0
   27.4675   37.3411   74.4527 C   0  0  0  0  0  0  0  0  0  0  0  0
   27.9129   35.4728   68.8200 C   0  0  0  0  0  0  0  0  0  0  0  0
   27.9812   38.3593   73.6749 C   0  0  0  0  0  0  0  0  0  0  0  0
   28.8626   34.5737   68.1214 C   0  0  0  0  0  0  0  0  0  0  0  0
   26.8793   36.0749   73.8601 C   0  0  0  0  0  0  0  0  0  0  0  0
   28.8725   34.6259   66.6943 O   0  0  0  0  0  0  0  0  0  0  0  0
  1  8  1  0  0  0  0
  3  5  1  1  0  0  0
  3  9  1  0  0  0  0
  3 12  2  0  0  0  0
  3 22  1  0  0  0  0
  4  8  2  0  0  0  0
  4 19  1  0  0  0  0
  6 16  1  0  0  0  0
  6  7  1  0  0  0  0
  7 10  1  0  0  0  0
  8 11  1  0  0  0  0
 10 13  1  0  0  0  0
 10 21  1  0  0  0  0
 11 14  2  0  0  0  0
 13  2  1  1  0  0  0
 13 16  1  0  0  0  0
 14 15  1  0  0  0  0
 14 17  1  0  0  0  0
 16 18  1  1  0  0  0
 17 19  2  0  0  0  0
 17 21  1  0  0  0  0
 18 20  1  0  0  0  0
 20 22  1  0  0  0  0
M  CHG  1   9  -1
M  END
>  <CHROM.1>
89.27191996,5.65510327,-148.03368819,179.81607761,64.29435094,61.73938699
28.32919382,36.48572485,70.93739354,-2.14160734,-1.31440280,-2.42366382

>  <Name>
ligand

>  <RI>
0

>  <Rbt.Current_Directory>
/home/itssahil/PROJECTS/Mol_Feturizer/New_Systems/rnas/2HOM

>  <Rbt.Executable>
rbdock ($Id: //depot/dev/client3/rdock/2013.1/src/exe/rbdock.cxx#4 $)

>  <Rbt.Library>
libRbt.so (2013.1, Build901 2013/11/27)

>  <Rbt.Parameter_File>
/export/apps/rDock/src/rDock_2013.1_src/data/scripts/dock_solv.prm

>  <Rbt.Receptor>
prm/blind_docking_100.prm

>  <SCORE>
-20.4528

>  <SCORE.INTER>
-22.2369

>  <SCORE.INTER.CONST>
1

>  <SCORE.INTER.POLAR>
-1.2754

>  <SCORE.INTER.ROT>
6

>  <SCORE.INTER.SOLV>
12.3501

>  <SCORE.INTER.VDW>
-22.2899

>  <SCORE.INTER.norm>
-1.01077

>  <SCORE.INTRA>
1.78401

>  <SCORE.INTRA.DIHEDRAL>
-0.512627

>  <SCORE.INTRA.DIHEDRAL.0>
5.05013

>  <SCORE.INTRA.POLAR>
0

>  <SCORE.INTRA.POLAR.0>
0

>  <SCORE.INTRA.REPUL>
0

>  <SCORE.INTRA.REPUL.0>
0

>  <SCORE.INTRA.SOLV>
1.02733

>  <SCORE.INTRA.SOLV.lig_0>
-54.1265

>  <SCORE.INTRA.VDW>
1.52666

>  <SCORE.INTRA.VDW.0>
-2.1303

>  <SCORE.INTRA.norm>
0.0810912

>  <SCORE.RESTR>
0

>  <SCORE.RESTR.CAVITY>
0

>  <SCORE.RESTR.norm>
0

>  <SCORE.SYSTEM>
0

>  <SCORE.SYSTEM.CONST>
0

>  <SCORE.SYSTEM.DIHEDRAL>
0

>  <SCORE.SYSTEM.SOLV>
0

>  <SCORE.SYSTEM.norm>
0

>  <SCORE.heavy>
22

>  <SCORE.norm>
-0.929675

>  <RMSD>
9.869

$$$$
ligand
 OpenBabel11021811443D
libRbt.so/2013.1/901 2013/11/27
 22 23  0  0  0  0  0  0  0  0999 V2000
   34.5391   40.9846   60.7154 C   0  0  0  0  0  0  0  0  0  0  0  0
   28.1246   37.3291   64.2686 C   0  0  0  0  0  0  0  0  0  0  0  0
   29.0108   39.7258   68.2049 P   0  0  1  0  0  0  0  0  0  0  0  0
   32.2769   40.5556   61.3647 N   0  0  0  0  0  0  0  0  0  0  0  0
   27.9624   40.2707   67.3049 O   0  0  0  0  0  0  0  0  0  0  0  0
   31.5673   35.6520   65.5105 S   0  0  0  0  0  0  0  0  0  0  0  0
   31.6001   36.2352   63.9352 C   0  0  0  0  0  0  0  0  0  0  0  0
   33.4921   40.0085   61.0134 C   0  0  0  0  0  0  0  0  0  0  0  0
   30.2986   40.4651   68.1558 O   0  5  0  0  0  0  0  0  0  0  0  0
   30.4550   36.8026   63.4997 N   0  0  0  0  0  0  0  0  0  0  0  0
   33.7129   38.7238   60.9311 N   0  0  0  0  0  0  0  0  0  0  0  0
   28.4742   39.5590   69.5934 O   0  0  0  0  0  0  0  0  0  0  0  0
   29.4920   36.7603   64.5096 C   0  0  2  0  0  0  0  0  0  0  0  0
   32.6943   37.8225   61.2228 C   0  0  0  0  0  0  0  0  0  0  0  0
   32.9325   36.5187   61.1153 N   0  0  0  0  0  0  0  0  0  0  0  0
   29.9093   36.1665   65.6773 C   0  0  1  0  0  0  0  0  0  0  0  0
   31.3973   38.3289   61.6406 C   0  0  0  0  0  0  0  0  0  0  0  0
   29.1271   35.9501   66.9225 C   0  0  0  0  0  0  0  0  0  0  0  0
   31.2625   39.7026   61.6567 C   0  0  0  0  0  0  0  0  0  0  0  0
   28.5202   37.2139   67.4049 C   0  0  0  0  0  0  0  0  0  0  0  0
   30.2903   37.3921   62.0850 C   0  0  0  0  0  0  0  0  0  0  0  0
   29.4111   38.2951   67.6818 O   0  0  0  0  0  0  0  0  0  0  0  0
  1  8  1  0  0  0  0
  3  5  1  6  0  0  0
  3  9  1  0  0  0  0
  3 12  2  0  0  0  0
  3 22  1  0  0  0  0
  4  8  2  0  0  0  0
  4 19  1  0  0  0  0
  6 16  1  0  0  0  0
  6  7  1  0  0  0  0
  7 10  1  0  0  0  0
  8 11  1  0  0  0  0
 10 13  1  0  0  0  0
 10 21  1  0  0  0  0
 11 14  2  0  0  0  0
 13  2  1  6  0  0  0
 13 16  1  0  0  0  0
 14 15  1  0  0  0  0
 14 17  1  0  0  0  0
 16 18  1  6  0  0  0
 17 19  2  0  0  0  0
 17 21  1  0  0  0  0
 18 20  1  0  0  0  0
 20 22  1  0  0  0  0
M  CHG  1   9  -1
M  END
>  <CHROM.1>
-48.77089056,127.31576672,75.98649975,-57.91919140,-179.80273260,-52.55890815
30.64456803,38.19687234,64.69395636,-0.19083691,1.03100087,0.22920439

>  <Name>
ligand

>  <RI>
0

>  <Rbt.Current_Directory>
/home/itssahil/PROJECTS/Mol_Feturizer/New_Systems/rnas/2HOM

>  <Rbt.Executable>
rbdock ($Id: //depot/dev/client3/rdock/2013.1/src/exe/rbdock.cxx#4 $)

>  <Rbt.Library>
libRbt.so (2013.1, Build901 2013/11/27)

>  <Rbt.Parameter_File>
/export/apps/rDock/src/rDock_2013.1_src/data/scripts/dock_solv.prm

>  <Rbt.Receptor>
prm/pocket_docking_7.prm

>  <SCORE>
-17.9832

>  <SCORE.INTER>
-18.6138

>  <SCORE.INTER.CONST>
1

>  <SCORE.INTER.POLAR>
-2.49276

>  <SCORE.INTER.ROT>
6

>  <SCORE.INTER.SOLV>
13.6237

>  <SCORE.INTER.VDW>
-16.2412

>  <SCORE.INTER.norm>
-0.846082

>  <SCORE.INTRA>
0.630603

>  <SCORE.INTRA.DIHEDRAL>
-0.482402

>  <SCORE.INTRA.DIHEDRAL.0>
5.05013

>  <SCORE.INTRA.POLAR>
0

>  <SCORE.INTRA.POLAR.0>
0

>  <SCORE.INTRA.REPUL>
0

>  <SCORE.INTRA.REPUL.0>
0

>  <SCORE.INTRA.SOLV>
1.15026

>  <SCORE.INTRA.SOLV.lig_0>
-54.1265

>  <SCORE.INTRA.VDW>
0.296673

>  <SCORE.INTRA.VDW.0>
-2.1303

>  <SCORE.INTRA.norm>
0.0286638

>  <SCORE.RESTR>
0

>  <SCORE.RESTR.CAVITY>
0

>  <SCORE.RESTR.norm>
0

>  <SCORE.SYSTEM>
0

>  <SCORE.SYSTEM.CONST>
0

>  <SCORE.SYSTEM.DIHEDRAL>
0

>  <SCORE.SYSTEM.SOLV>
0

>  <SCORE.SYSTEM.norm>
0

>  <SCORE.heavy>
22

>  <SCORE.norm>
-0.817418

>  <RMSD>
9.908

$$$$
ligand
 OpenBabel11021811443D
libRbt.so/2013.1/901 2013/11/27
 22 23  0  0  0  0  0  0  0  0999 V2000
   28.9249   41.2356   75.9774 C   0  0  0  0  0  0  0  0  0  0  0  0
   28.6257   34.4874   72.2617 C   0  0  0  0  0  0  0  0  0  0  0  0
   28.3267   38.0530   69.4854 P   0  0  1  0  0  0  0  0  0  0  0  0
   28.3241   39.6182   74.3203 N   0  0  0  0  0  0  0  0  0  0  0  0
   28.5051   37.5484   70.8710 O   0  0  0  0  0  0  0  0  0  0  0  0
   25.2715   36.2205   70.8644 S   0  0  0  0  0  0  0  0  0  0  0  0
   25.5606   36.4711   72.5004 C   0  0  0  0  0  0  0  0  0  0  0  0
   28.5000   39.8723   75.6634 C   0  0  0  0  0  0  0  0  0  0  0  0
   27.2226   39.0354   69.3336 O   0  5  0  0  0  0  0  0  0  0  0  0
   26.6818   35.8986   72.9886 N   0  0  0  0  0  0  0  0  0  0  0  0
   28.3227   38.9795   76.6001 N   0  0  0  0  0  0  0  0  0  0  0  0
   29.6320   38.5360   68.9317 O   0  0  0  0  0  0  0  0  0  0  0  0
   27.3461   35.2142   71.9691 C   0  0  2  0  0  0  0  0  0  0  0  0
   27.9169   37.6916   76.2662 C   0  0  0  0  0  0  0  0  0  0  0  0
   27.7596   36.7911   77.2319 N   0  0  0  0  0  0  0  0  0  0  0  0
   26.7288   35.2703   70.7419 C   0  0  1  0  0  0  0  0  0  0  0  0
   27.6722   37.3644   74.8712 C   0  0  0  0  0  0  0  0  0  0  0  0
   27.1658   34.6382   69.4697 C   0  0  0  0  0  0  0  0  0  0  0  0
   27.9270   38.3710   73.9616 C   0  0  0  0  0  0  0  0  0  0  0  0
   28.1712   35.4734   68.7698 C   0  0  0  0  0  0  0  0  0  0  0  0
   27.1145   36.0141   74.4635 C   0  0  0  0  0  0  0  0  0  0  0  0
   27.8504   36.8525   68.5839 O   0  0  0  0  0  0  0  0  0  0  0  0
  1  8  1  0  0  0  0
  3  5  1  1  0  0  0
  3  9  1  0  0  0  0
  3 12  2  0  0  0  0
  3 22  1  0  0  0  0
  4  8  2  0  0  0  0
  4 19  1  0  0  0  0
  6 16  1  0  0  0  0
  6  7  1  0  0  0  0
  7 10  1  0  0  0  0
  8 11  1  0  0  0  0
 10 13  1  0  0  0  0
 10 21  1  0  0  0  0
 11 14  2  0  0  0  0
 13  2  1  1  0  0  0
 13 16  1  0  0  0  0
 14 15  1  0  0  0  0
 14 17  1  0  0  0  0
 16 18  1  1  0  0  0
 17 19  2  0  0  0  0
 17 21  1  0  0  0  0
 18 20  1  0  0  0  0
 20 22  1  0  0  0  0
M  CHG  1   9  -1
M  END
>  <CHROM.1>
-73.98570376,97.11248462,169.88350923,-50.31901750,97.63335142,-30.15209124
27.64218682,37.26476625,72.19629077,-1.37952327,-1.11605929,-1.71156390

>  <Name>
ligand

>  <RI>
0

>  <Rbt.Current_Directory>
/home/itssahil/PROJECTS/Mol_Feturizer/New_Systems/rnas/2HOM

>  <Rbt.Executable>
rbdock ($Id: //depot/dev/client3/rdock/2013.1/src/exe/rbdock.cxx#4 $)

>  <Rbt.Library>
libRbt.so (2013.1, Build901 2013/11/27)

>  <Rbt.Parameter_File>
/export/apps/rDock/src/rDock_2013.1_src/data/scripts/dock_solv.prm

>  <Rbt.Receptor>
prm/blind_docking_100.prm

>  <SCORE>
-16.926

>  <SCORE.INTER>
-18.3164

>  <SCORE.INTER.CONST>
1

>  <SCORE.INTER.POLAR>
-1.63459

>  <SCORE.INTER.ROT>
6

>  <SCORE.INTER.SOLV>
12.0748

>  <SCORE.INTER.VDW>
-18.3872

>  <SCORE.INTER.norm>
-0.832564

>  <SCORE.INTRA>
1.39045

>  <SCORE.INTRA.DIHEDRAL>
6.28594

>  <SCORE.INTRA.DIHEDRAL.0>
5.05013

>  <SCORE.INTRA.POLAR>
0

>  <SCORE.INTRA.POLAR.0>
0

>  <SCORE.INTRA.REPUL>
0

>  <SCORE.INTRA.REPUL.0>
0

>  <SCORE.INTRA.SOLV>
0.499784

>  <SCORE.INTRA.SOLV.lig_0>
-54.1265

>  <SCORE.INTRA.VDW>
-2.00241

>  <SCORE.INTRA.VDW.0>
-2.1303

>  <SCORE.INTRA.norm>
0.0632024

>  <SCORE.RESTR>
0

>  <SCORE.RESTR.CAVITY>
0

>  <SCORE.RESTR.norm>
0

>  <SCORE.SYSTEM>
0

>  <SCORE.SYSTEM.CONST>
0

>  <SCORE.SYSTEM.DIHEDRAL>
0

>  <SCORE.SYSTEM.SOLV>
0

>  <SCORE.SYSTEM.norm>
0

>  <SCORE.heavy>
22

>  <SCORE.norm>
-0.769362

>  <RMSD>
9.983

$$$$
ligand
 OpenBabel11021811443D
libRbt.so/2013.1/901 2013/11/27
 22 23  0  0  0  0  0  0  0  0999 V2000
   28.6619   40.5615   76.1855 C   0  0  0  0  0  0  0  0  0  0  0  0
   27.6834   34.5728   72.7335 C   0  0  0  0  0  0  0  0  0  0  0  0
   27.8519   37.5777   68.9076 P   0  0  1  0  0  0  0  0  0  0  0  0
   27.1573   39.1752   74.9454 N   0  0  0  0  0  0  0  0  0  0  0  0
   27.2154   38.5975   68.0352 O   0  0  0  0  0  0  0  0  0  0  0  0
   23.8122   35.2689   71.8754 S   0  0  0  0  0  0  0  0  0  0  0  0
   24.2372   35.5522   73.4759 C   0  0  0  0  0  0  0  0  0  0  0  0
   28.0814   39.2376   75.9659 C   0  0  0  0  0  0  0  0  0  0  0  0
   28.9253   36.7941   68.2436 O   0  5  0  0  0  0  0  0  0  0  0  0
   25.5321   35.3255   73.7841 N   0  0  0  0  0  0  0  0  0  0  0  0
   28.4390   38.2075   76.6850 N   0  0  0  0  0  0  0  0  0  0  0  0
   28.2805   38.1920   70.2048 O   0  0  0  0  0  0  0  0  0  0  0  0
   26.2205   34.8950   72.6484 C   0  0  2  0  0  0  0  0  0  0  0  0
   27.8656   36.9621   76.4502 C   0  0  0  0  0  0  0  0  0  0  0  0
   28.2559   35.9213   77.1800 N   0  0  0  0  0  0  0  0  0  0  0  0
   25.4515   34.7967   71.5130 C   0  0  1  0  0  0  0  0  0  0  0  0
   26.8527   36.8313   75.4158 C   0  0  0  0  0  0  0  0  0  0  0  0
   25.8748   34.3550   70.1584 C   0  0  0  0  0  0  0  0  0  0  0  0
   26.5785   37.9742   74.6918 C   0  0  0  0  0  0  0  0  0  0  0  0
   27.0342   35.1411   69.6724 C   0  0  0  0  0  0  0  0  0  0  0  0
   26.1103   35.5266   75.1988 C   0  0  0  0  0  0  0  0  0  0  0  0
   26.7751   36.4780   69.2426 O   0  0  0  0  0  0  0  0  0  0  0  0
  1  8  1  0  0  0  0
  3  5  1  6  0  0  0
  3  9  1  0  0  0  0
  3 12  2  0  0  0  0
  3 22  1  0  0  0  0
  4  8  2  0  0  0  0
  4 19  1  0  0  0  0
  6 16  1  0  0  0  0
  6  7  1  0  0  0  0
  7 10  1  0  0  0  0
  8 11  1  0  0  0  0
 10 13  1  0  0  0  0
 10 21  1  0  0  0  0
 11 14  2  0  0  0  0
 13  2  1  1  0  0  0
 13 16  1  0  0  0  0
 14 15  1  0  0  0  0
 14 17  1  0  0  0  0
 16 18  1  1  0  0  0
 17 19  2  0  0  0  0
 17 21  1  0  0  0  0
 18 20  1  0  0  0  0
 20 22  1  0  0  0  0
M  CHG  1   9  -1
M  END
>  <CHROM.1>
-99.41969044,126.20999793,-155.73536215,-74.60436314,169.53354139,158.69568609
26.87502777,36.71813780,72.47958829,-1.45678461,-0.87337533,-1.64970275

>  <Name>
ligand

>  <RI>
0

>  <Rbt.Current_Directory>
/home/itssahil/PROJECTS/Mol_Feturizer/New_Systems/rnas/2HOM

>  <Rbt.Executable>
rbdock ($Id: //depot/dev/client3/rdock/2013.1/src/exe/rbdock.cxx#4 $)

>  <Rbt.Library>
libRbt.so (2013.1, Build901 2013/11/27)

>  <Rbt.Parameter_File>
/export/apps/rDock/src/rDock_2013.1_src/data/scripts/dock_solv.prm

>  <Rbt.Receptor>
prm/blind_docking_100.prm

>  <SCORE>
-14.2386

>  <SCORE.INTER>
-15.9075

>  <SCORE.INTER.CONST>
1

>  <SCORE.INTER.POLAR>
-1.63459

>  <SCORE.INTER.ROT>
6

>  <SCORE.INTER.SOLV>
15.7143

>  <SCORE.INTER.VDW>
-17.9945

>  <SCORE.INTER.norm>
-0.723069

>  <SCORE.INTRA>
1.66886

>  <SCORE.INTRA.DIHEDRAL>
1.40774

>  <SCORE.INTRA.DIHEDRAL.0>
5.05013

>  <SCORE.INTRA.POLAR>
0

>  <SCORE.INTRA.POLAR.0>
0

>  <SCORE.INTRA.REPUL>
0

>  <SCORE.INTRA.REPUL.0>
0

>  <SCORE.INTRA.SOLV>
0.878643

>  <SCORE.INTRA.SOLV.lig_0>
-54.1265

>  <SCORE.INTRA.VDW>
0.525675

>  <SCORE.INTRA.VDW.0>
-2.1303

>  <SCORE.INTRA.norm>
0.0758575

>  <SCORE.RESTR>
0

>  <SCORE.RESTR.CAVITY>
0

>  <SCORE.RESTR.norm>
0

>  <SCORE.SYSTEM>
0

>  <SCORE.SYSTEM.CONST>
0

>  <SCORE.SYSTEM.DIHEDRAL>
0

>  <SCORE.SYSTEM.SOLV>
0

>  <SCORE.SYSTEM.norm>
0

>  <SCORE.heavy>
22

>  <SCORE.norm>
-0.647211

>  <RMSD>
10.199

$$$$
ligand
 OpenBabel11021811443D
libRbt.so/2013.1/901 2013/11/27
 22 23  0  0  0  0  0  0  0  0999 V2000
   28.5137   40.0789   79.1587 C   0  0  0  0  0  0  0  0  0  0  0  0
   28.6010   40.6576   70.4498 C   0  0  0  0  0  0  0  0  0  0  0  0
   28.5220   34.9087   69.0043 P   0  0  1  0  0  0  0  0  0  0  0  0
   28.4671   39.1495   76.9548 N   0  0  0  0  0  0  0  0  0  0  0  0
   28.9053   34.2744   67.7170 O   0  0  0  0  0  0  0  0  0  0  0  0
   27.3955   37.1748   72.0696 S   0  0  0  0  0  0  0  0  0  0  0  0
   28.0660   38.2609   73.1621 C   0  0  0  0  0  0  0  0  0  0  0  0
   28.6439   40.2841   77.7169 C   0  0  0  0  0  0  0  0  0  0  0  0
   27.0628   35.1435   69.1557 O   0  5  0  0  0  0  0  0  0  0  0  0
   28.4758   39.4361   72.6387 N   0  0  0  0  0  0  0  0  0  0  0  0
   28.8937   41.4638   77.2150 N   0  0  0  0  0  0  0  0  0  0  0  0
   29.1266   34.1648   70.1553 O   0  0  0  0  0  0  0  0  0  0  0  0
   28.2293   39.4538   71.2646 C   0  0  2  0  0  0  0  0  0  0  0  0
   29.0125   41.6234   75.8383 C   0  0  0  0  0  0  0  0  0  0  0  0
   29.2486   42.8354   75.3446 N   0  0  0  0  0  0  0  0  0  0  0  0
   27.6501   38.3093   70.7697 C   0  0  1  0  0  0  0  0  0  0  0  0
   28.8789   40.4612   74.9754 C   0  0  0  0  0  0  0  0  0  0  0  0
   27.2808   38.0074   69.3620 C   0  0  0  0  0  0  0  0  0  0  0  0
   28.5779   39.2716   75.6077 C   0  0  0  0  0  0  0  0  0  0  0  0
   28.4572   37.5557   68.5807 C   0  0  0  0  0  0  0  0  0  0  0  0
   29.1173   40.5567   73.4806 C   0  0  0  0  0  0  0  0  0  0  0  0
   29.1132   36.3684   69.0269 O   0  0  0  0  0  0  0  0  0  0  0  0
  1  8  1  0  0  0  0
  3  5  1  6  0  0  0
  3  9  1  0  0  0  0
  3 12  2  0  0  0  0
  3 22  1  0  0  0  0
  4  8  2  0  0  0  0
  4 19  1  0  0  0  0
  6 16  1  0  0  0  0
  6  7  1  0  0  0  0
  7 10  1  0  0  0  0
  8 11  1  0  0  0  0
 10 13  1  0  0  0  0
 10 21  1  0  0  0  0
 11 14  2  0  0  0  0
 13  2  1  6  0  0  0
 13 16  1  0  0  0  0
 14 15  1  0  0  0  0
 14 17  1  0  0  0  0
 16 18  1  6  0  0  0
 17 19  2  0  0  0  0
 17 21  1  0  0  0  0
 18 20  1  0  0  0  0
 20 22  1  0  0  0  0
M  CHG  1   9  -1
M  END
>  <CHROM.1>
-18.32662789,-98.41030117,-159.12074581,60.72032121,67.29371881,91.35083486
28.41504626,38.23143210,72.35625835,0.73530169,1.50976819,1.80576613

>  <Name>
ligand

>  <RI>
0

>  <Rbt.Current_Directory>
/home/itssahil/PROJECTS/Mol_Feturizer/New_Systems/rnas/2HOM

>  <Rbt.Executable>
rbdock ($Id: //depot/dev/client3/rdock/2013.1/src/exe/rbdock.cxx#4 $)

>  <Rbt.Library>
libRbt.so (2013.1, Build901 2013/11/27)

>  <Rbt.Parameter_File>
/export/apps/rDock/src/rDock_2013.1_src/data/scripts/dock_solv.prm

>  <Rbt.Receptor>
prm/blind_docking_100.prm

>  <SCORE>
-16.2249

>  <SCORE.INTER>
-18.7678

>  <SCORE.INTER.CONST>
1

>  <SCORE.INTER.POLAR>
-1.29439

>  <SCORE.INTER.ROT>
6

>  <SCORE.INTER.SOLV>
21.2733

>  <SCORE.INTER.VDW>
-22.8884

>  <SCORE.INTER.norm>
-0.853084

>  <SCORE.INTRA>
2.52932

>  <SCORE.INTRA.DIHEDRAL>
1.04833

>  <SCORE.INTRA.DIHEDRAL.0>
5.05013

>  <SCORE.INTRA.POLAR>
0

>  <SCORE.INTRA.POLAR.0>
0

>  <SCORE.INTRA.REPUL>
0

>  <SCORE.INTRA.REPUL.0>
0

>  <SCORE.INTRA.SOLV>
1.89305

>  <SCORE.INTRA.SOLV.lig_0>
-54.1265

>  <SCORE.INTRA.VDW>
1.05862

>  <SCORE.INTRA.VDW.0>
-2.1303

>  <SCORE.INTRA.norm>
0.114969

>  <SCORE.RESTR>
0.0136033

>  <SCORE.RESTR.CAVITY>
0.0136033

>  <SCORE.RESTR.norm>
0.000618331

>  <SCORE.SYSTEM>
0

>  <SCORE.SYSTEM.CONST>
0

>  <SCORE.SYSTEM.DIHEDRAL>
0

>  <SCORE.SYSTEM.SOLV>
0

>  <SCORE.SYSTEM.norm>
0

>  <SCORE.heavy>
22

>  <SCORE.norm>
-0.737497

>  <RMSD>
10.237

$$$$
ligand
 OpenBabel11021811443D
libRbt.so/2013.1/901 2013/11/27
 22 23  0  0  0  0  0  0  0  0999 V2000
   26.2093   30.2533   75.5119 C   0  0  0  0  0  0  0  0  0  0  0  0
   27.1446   37.3404   71.2877 C   0  0  0  0  0  0  0  0  0  0  0  0
   29.2537   42.8390   71.9322 P   0  0  1  0  0  0  0  0  0  0  0  0
   26.5592   31.8279   73.7451 N   0  0  0  0  0  0  0  0  0  0  0  0
   27.9538   42.9044   71.2165 O   0  0  0  0  0  0  0  0  0  0  0  0
   28.7342   37.5159   74.9822 S   0  0  0  0  0  0  0  0  0  0  0  0
   27.4274   36.4709   74.8305 C   0  0  0  0  0  0  0  0  0  0  0  0
   25.9998   31.6006   74.9839 C   0  0  0  0  0  0  0  0  0  0  0  0
   30.3894   43.4399   71.1863 O   0  5  0  0  0  0  0  0  0  0  0  0
   26.8804   36.3968   73.5983 N   0  0  0  0  0  0  0  0  0  0  0  0
   25.3188   32.4958   75.6480 N   0  0  0  0  0  0  0  0  0  0  0  0
   29.1115   43.3690   73.3260 O   0  0  0  0  0  0  0  0  0  0  0  0
   27.5664   37.2421   72.7243 C   0  0  2  0  0  0  0  0  0  0  0  0
   25.1395   33.7688   75.1168 C   0  0  0  0  0  0  0  0  0  0  0  0
   24.4275   34.6610   75.7989 N   0  0  0  0  0  0  0  0  0  0  0  0
   28.6046   37.9394   73.2955 C   0  0  1  0  0  0  0  0  0  0  0  0
   25.7374   34.0918   73.8318 C   0  0  0  0  0  0  0  0  0  0  0  0
   29.5101   38.9237   72.6470 C   0  0  0  0  0  0  0  0  0  0  0  0
   26.4030   33.0608   73.1997 C   0  0  0  0  0  0  0  0  0  0  0  0
   28.9743   40.3020   72.7545 C   0  0  0  0  0  0  0  0  0  0  0  0
   25.6749   35.4965   73.2631 C   0  0  0  0  0  0  0  0  0  0  0  0
   29.6748   41.3256   72.0467 O   0  0  0  0  0  0  0  0  0  0  0  0
  1  8  1  0  0  0  0
  3  5  1  6  0  0  0
  3  9  1  0  0  0  0
  3 12  2  0  0  0  0
  3 22  1  0  0  0  0
  4  8  2  0  0  0  0
  4 19  1  0  0  0  0
  6 16  1  0  0  0  0
  6  7  1  0  0  0  0
  7 10  1  0  0  0  0
  8 11  1  0  0  0  0
 10 13  1  0  0  0  0
 10 21  1  0  0  0  0
 11 14  2  0  0  0  0
 13  2  1  1  0  0  0
 13 16  1  0  0  0  0
 14 15  1  0  0  0  0
 14 17  1  0  0  0  0
 16 18  1  1  0  0  0
 17 19  2  0  0  0  0
 17 21  1  0  0  0  0
 18 20  1  0  0  0  0
 20 22  1  0  0  0  0
M  CHG  1   9  -1
M  END
>  <CHROM.1>
-44.27012601,-89.04673816,92.74932313,-173.40101803,175.91670670,-63.29316293
27.62825219,37.49247441,73.43968655,-2.37764743,-1.10820087,-1.02494264

>  <Name>
ligand

>  <RI>
0

>  <Rbt.Current_Directory>
/home/itssahil/PROJECTS/Mol_Feturizer/New_Systems/rnas/2HOM

>  <Rbt.Executable>
rbdock ($Id: //depot/dev/client3/rdock/2013.1/src/exe/rbdock.cxx#4 $)

>  <Rbt.Library>
libRbt.so (2013.1, Build901 2013/11/27)

>  <Rbt.Parameter_File>
/export/apps/rDock/src/rDock_2013.1_src/data/scripts/dock_solv.prm

>  <Rbt.Receptor>
prm/blind_docking_100.prm

>  <SCORE>
-15.9959

>  <SCORE.INTER>
-16.2888

>  <SCORE.INTER.CONST>
1

>  <SCORE.INTER.POLAR>
-1.18585

>  <SCORE.INTER.ROT>
6

>  <SCORE.INTER.SOLV>
17.4167

>  <SCORE.INTER.VDW>
-20.3119

>  <SCORE.INTER.norm>
-0.740399

>  <SCORE.INTRA>
0.292911

>  <SCORE.INTRA.DIHEDRAL>
-0.05548

>  <SCORE.INTRA.DIHEDRAL.0>
5.05013

>  <SCORE.INTRA.POLAR>
0

>  <SCORE.INTRA.POLAR.0>
0

>  <SCORE.INTRA.REPUL>
0

>  <SCORE.INTRA.REPUL.0>
0

>  <SCORE.INTRA.SOLV>
0.561082

>  <SCORE.INTRA.SOLV.lig_0>
-54.1265

>  <SCORE.INTRA.VDW>
0.0401105

>  <SCORE.INTRA.VDW.0>
-2.1303

>  <SCORE.INTRA.norm>
0.0133142

>  <SCORE.RESTR>
0

>  <SCORE.RESTR.CAVITY>
0

>  <SCORE.RESTR.norm>
0

>  <SCORE.SYSTEM>
0

>  <SCORE.SYSTEM.CONST>
0

>  <SCORE.SYSTEM.DIHEDRAL>
0

>  <SCORE.SYSTEM.SOLV>
0

>  <SCORE.SYSTEM.norm>
0

>  <SCORE.heavy>
22

>  <SCORE.norm>
-0.727085

>  <RMSD>
10.442

$$$$
ligand
 OpenBabel11021811443D
libRbt.so/2013.1/901 2013/11/27
 22 23  0  0  0  0  0  0  0  0999 V2000
   22.6294   33.4763   69.9851 C   0  0  0  0  0  0  0  0  0  0  0  0
   27.4232   37.5235   72.9607 C   0  0  0  0  0  0  0  0  0  0  0  0
   28.8331   40.9669   77.8345 P   0  0  1  0  0  0  0  0  0  0  0  0
   24.8643   34.3010   70.2054 N   0  0  0  0  0  0  0  0  0  0  0  0
   27.8340   40.1139   78.5277 O   0  0  0  0  0  0  0  0  0  0  0  0
   27.0203   36.1680   76.7299 S   0  0  0  0  0  0  0  0  0  0  0  0
   27.1153   34.9664   75.5594 C   0  0  0  0  0  0  0  0  0  0  0  0
   23.7842   33.7318   70.8447 C   0  0  0  0  0  0  0  0  0  0  0  0
   28.5731   42.4250   77.9511 O   0  5  0  0  0  0  0  0  0  0  0  0
   27.2518   35.4006   74.2882 N   0  0  0  0  0  0  0  0  0  0  0  0
   23.7627   33.4474   72.1194 N   0  0  0  0  0  0  0  0  0  0  0  0
   30.2227   40.5773   78.2356 O   0  0  0  0  0  0  0  0  0  0  0  0
   27.2808   36.7961   74.2652 C   0  0  2  0  0  0  0  0  0  0  0  0
   24.8796   33.7025   72.9083 C   0  0  0  0  0  0  0  0  0  0  0  0
   24.8324   33.4235   74.2076 N   0  0  0  0  0  0  0  0  0  0  0  0
   27.1626   37.3939   75.4977 C   0  0  1  0  0  0  0  0  0  0  0  0
   26.0701   34.2642   72.2916 C   0  0  0  0  0  0  0  0  0  0  0  0
   27.1395   38.8469   75.8099 C   0  0  0  0  0  0  0  0  0  0  0  0
   25.9705   34.5613   70.9473 C   0  0  0  0  0  0  0  0  0  0  0  0
   28.4821   39.4549   75.6479 C   0  0  0  0  0  0  0  0  0  0  0  0
   27.3533   34.4505   73.0786 C   0  0  0  0  0  0  0  0  0  0  0  0
   28.7037   40.7134   76.2853 O   0  0  0  0  0  0  0  0  0  0  0  0
  1  8  1  0  0  0  0
  3  5  1  1  0  0  0
  3  9  1  0  0  0  0
  3 12  2  0  0  0  0
  3 22  1  0  0  0  0
  4  8  2  0  0  0  0
  4 19  1  0  0  0  0
  6 16  1  0  0  0  0
  6  7  1  0  0  0  0
  7 10  1  0  0  0  0
  8 11  1  0  0  0  0
 10 13  1  0  0  0  0
 10 21  1  0  0  0  0
 11 14  2  0  0  0  0
 13  2  1  6  0  0  0
 13 16  1  0  0  0  0
 14 15  1  0  0  0  0
 14 17  1  0  0  0  0
 16 18  1  6  0  0  0
 17 19  2  0  0  0  0
 17 21  1  0  0  0  0
 18 20  1  0  0  0  0
 20 22  1  0  0  0  0
M  CHG  1   9  -1
M  END
>  <CHROM.1>
99.86604838,108.07711246,-61.29603035,-161.62300518,70.79137553,-39.86945031
26.88243045,37.01685743,74.78112306,-3.13142196,1.14598436,2.28111122

>  <Name>
ligand

>  <RI>
0

>  <Rbt.Current_Directory>
/home/itssahil/PROJECTS/Mol_Feturizer/New_Systems/rnas/2HOM

>  <Rbt.Executable>
rbdock ($Id: //depot/dev/client3/rdock/2013.1/src/exe/rbdock.cxx#4 $)

>  <Rbt.Library>
libRbt.so (2013.1, Build901 2013/11/27)

>  <Rbt.Parameter_File>
/export/apps/rDock/src/rDock_2013.1_src/data/scripts/dock_solv.prm

>  <Rbt.Receptor>
prm/blind_docking_100.prm

>  <SCORE>
-9.8342

>  <SCORE.INTER>
-11.4111

>  <SCORE.INTER.CONST>
1

>  <SCORE.INTER.POLAR>
0

>  <SCORE.INTER.ROT>
6

>  <SCORE.INTER.SOLV>
13.3263

>  <SCORE.INTER.VDW>
-19.6495

>  <SCORE.INTER.norm>
-0.518685

>  <SCORE.INTRA>
1.57688

>  <SCORE.INTRA.DIHEDRAL>
1.89818

>  <SCORE.INTRA.DIHEDRAL.0>
5.05013

>  <SCORE.INTRA.POLAR>
0

>  <SCORE.INTRA.POLAR.0>
0

>  <SCORE.INTRA.REPUL>
0

>  <SCORE.INTRA.REPUL.0>
0

>  <SCORE.INTRA.SOLV>
1.85941

>  <SCORE.INTRA.SOLV.lig_0>
-54.1265

>  <SCORE.INTRA.VDW>
-0.301917

>  <SCORE.INTRA.VDW.0>
-2.1303

>  <SCORE.INTRA.norm>
0.0716763

>  <SCORE.RESTR>
0

>  <SCORE.RESTR.CAVITY>
0

>  <SCORE.RESTR.norm>
0

>  <SCORE.SYSTEM>
0

>  <SCORE.SYSTEM.CONST>
0

>  <SCORE.SYSTEM.DIHEDRAL>
0

>  <SCORE.SYSTEM.SOLV>
0

>  <SCORE.SYSTEM.norm>
0

>  <SCORE.heavy>
22

>  <SCORE.norm>
-0.447009

>  <RMSD>
10.523

$$$$
ligand
 OpenBabel11021811443D
libRbt.so/2013.1/901 2013/11/27
 22 23  0  0  0  0  0  0  0  0999 V2000
   26.5715   38.2598   79.7020 C   0  0  0  0  0  0  0  0  0  0  0  0
   26.4768   36.3291   71.8802 C   0  0  0  0  0  0  0  0  0  0  0  0
   28.3971   36.4795   68.0204 P   0  0  1  0  0  0  0  0  0  0  0  0
   28.0892   37.9932   77.8720 N   0  0  0  0  0  0  0  0  0  0  0  0
   27.2074   36.0146   68.7785 O   0  0  0  0  0  0  0  0  0  0  0  0
   29.1372   39.3048   72.4036 S   0  0  0  0  0  0  0  0  0  0  0  0
   29.0524   38.2090   73.6743 C   0  0  0  0  0  0  0  0  0  0  0  0
   26.8709   37.6411   78.4115 C   0  0  0  0  0  0  0  0  0  0  0  0
   29.4804   35.4689   67.9094 O   0  5  0  0  0  0  0  0  0  0  0  0
   28.1664   37.2023   73.5177 N   0  0  0  0  0  0  0  0  0  0  0  0
   26.0380   36.8111   77.8427 N   0  0  0  0  0  0  0  0  0  0  0  0
   27.9849   37.0559   66.7008 O   0  0  0  0  0  0  0  0  0  0  0  0
   27.5168   37.3305   72.2887 C   0  0  2  0  0  0  0  0  0  0  0  0
   26.3539   36.2412   76.6137 C   0  0  0  0  0  0  0  0  0  0  0  0
   25.5019   35.3841   76.0589 N   0  0  0  0  0  0  0  0  0  0  0  0
   27.9073   38.4174   71.5427 C   0  0  1  0  0  0  0  0  0  0  0  0
   27.6051   36.5996   75.9663 C   0  0  0  0  0  0  0  0  0  0  0  0
   27.4004   38.8415   70.2114 C   0  0  0  0  0  0  0  0  0  0  0  0
   28.4266   37.4550   76.6727 C   0  0  0  0  0  0  0  0  0  0  0  0
   28.4903   38.8824   69.2071 C   0  0  0  0  0  0  0  0  0  0  0  0
   27.9441   36.1021   74.5742 C   0  0  0  0  0  0  0  0  0  0  0  0
   29.0822   37.6347   68.8433 O   0  0  0  0  0  0  0  0  0  0  0  0
  1  8  1  0  0  0  0
  3  5  1  1  0  0  0
  3  9  1  0  0  0  0
  3 12  2  0  0  0  0
  3 22  1  0  0  0  0
  4  8  2  0  0  0  0
  4 19  1  0  0  0  0
  6 16  1  0  0  0  0
  6  7  1  0  0  0  0
  7 10  1  0  0  0  0
  8 11  1  0  0  0  0
 10 13  1  0  0  0  0
 10 21  1  0  0  0  0
 11 14  2  0  0  0  0
 13  2  1  1  0  0  0
 13 16  1  0  0  0  0
 14 15  1  0  0  0  0
 14 17  1  0  0  0  0
 16 18  1  1  0  0  0
 17 19  2  0  0  0  0
 17 21  1  0  0  0  0
 18 20  1  0  0  0  0
 20 22  1  0  0  0  0
M  CHG  1   9  -1
M  END
>  <CHROM.1>
54.62183463,59.91551033,119.74399349,66.78658530,69.17096302,-60.78248957
27.83500427,37.30439500,72.64754023,-1.85208405,-1.00014973,-1.83570615

>  <Name>
ligand

>  <RI>
0

>  <Rbt.Current_Directory>
/home/itssahil/PROJECTS/Mol_Feturizer/New_Systems/rnas/2HOM

>  <Rbt.Executable>
rbdock ($Id: //depot/dev/client3/rdock/2013.1/src/exe/rbdock.cxx#4 $)

>  <Rbt.Library>
libRbt.so (2013.1, Build901 2013/11/27)

>  <Rbt.Parameter_File>
/export/apps/rDock/src/rDock_2013.1_src/data/scripts/dock_solv.prm

>  <Rbt.Receptor>
prm/blind_docking_100.prm

>  <SCORE>
-16.6738

>  <SCORE.INTER>
-17.0618

>  <SCORE.INTER.CONST>
1

>  <SCORE.INTER.POLAR>
-1.99554

>  <SCORE.INTER.ROT>
6

>  <SCORE.INTER.SOLV>
11.9638

>  <SCORE.INTER.VDW>
-16.3107

>  <SCORE.INTER.norm>
-0.775536

>  <SCORE.INTRA>
0.387957

>  <SCORE.INTRA.DIHEDRAL>
0.700033

>  <SCORE.INTRA.DIHEDRAL.0>
5.05013

>  <SCORE.INTRA.POLAR>
0

>  <SCORE.INTRA.POLAR.0>
0

>  <SCORE.INTRA.REPUL>
0

>  <SCORE.INTRA.REPUL.0>
0

>  <SCORE.INTRA.SOLV>
1.0902

>  <SCORE.INTRA.SOLV.lig_0>
-54.1265

>  <SCORE.INTRA.VDW>
-0.507159

>  <SCORE.INTRA.VDW.0>
-2.1303

>  <SCORE.INTRA.norm>
0.0176344

>  <SCORE.RESTR>
0

>  <SCORE.RESTR.CAVITY>
0

>  <SCORE.RESTR.norm>
0

>  <SCORE.SYSTEM>
0

>  <SCORE.SYSTEM.CONST>
0

>  <SCORE.SYSTEM.DIHEDRAL>
0

>  <SCORE.SYSTEM.SOLV>
0

>  <SCORE.SYSTEM.norm>
0

>  <SCORE.heavy>
22

>  <SCORE.norm>
-0.757901

>  <RMSD>
10.523

$$$$
ligand
 OpenBabel11021811443D
libRbt.so/2013.1/901 2013/11/27
 22 23  0  0  0  0  0  0  0  0999 V2000
   28.6423   42.6519   78.1760 C   0  0  0  0  0  0  0  0  0  0  0  0
   26.3882   36.8009   72.6094 C   0  0  0  0  0  0  0  0  0  0  0  0
   28.6814   34.5312   69.1306 P   0  0  1  0  0  0  0  0  0  0  0  0
   28.8940   41.5972   76.0435 N   0  0  0  0  0  0  0  0  0  0  0  0
   29.1255   33.6858   70.2683 O   0  0  0  0  0  0  0  0  0  0  0  0
   28.7863   39.6209   71.0272 S   0  0  0  0  0  0  0  0  0  0  0  0
   28.9725   39.3899   72.6809 C   0  0  0  0  0  0  0  0  0  0  0  0
   28.5423   41.4384   77.3665 C   0  0  0  0  0  0  0  0  0  0  0  0
   29.7932   35.1117   68.3341 O   0  5  0  0  0  0  0  0  0  0  0  0
   28.1776   38.4472   73.2309 N   0  0  0  0  0  0  0  0  0  0  0  0
   28.1611   40.3016   77.8847 N   0  0  0  0  0  0  0  0  0  0  0  0
   27.6724   33.8013   68.2982 O   0  0  0  0  0  0  0  0  0  0  0  0
   27.3676   37.8781   72.2466 C   0  0  2  0  0  0  0  0  0  0  0  0
   28.0758   39.1663   77.0854 C   0  0  0  0  0  0  0  0  0  0  0  0
   27.7039   38.0139   77.6347 N   0  0  0  0  0  0  0  0  0  0  0  0
   27.5507   38.3910   70.9841 C   0  0  1  0  0  0  0  0  0  0  0  0
   28.3923   39.2697   75.6704 C   0  0  0  0  0  0  0  0  0  0  0  0
   26.8392   38.0167   69.7340 C   0  0  0  0  0  0  0  0  0  0  0  0
   28.8204   40.5083   75.2368 C   0  0  0  0  0  0  0  0  0  0  0  0
   27.5767   36.9703   68.9861 C   0  0  0  0  0  0  0  0  0  0  0  0
   28.2014   38.0942   74.7312 C   0  0  0  0  0  0  0  0  0  0  0  0
   27.9701   35.8083   69.7170 O   0  0  0  0  0  0  0  0  0  0  0  0
  1  8  1  0  0  0  0
  3  5  1  1  0  0  0
  3  9  1  0  0  0  0
  3 12  2  0  0  0  0
  3 22  1  0  0  0  0
  4  8  2  0  0  0  0
  4 19  1  0  0  0  0
  6 16  1  0  0  0  0
  6  7  1  0  0  0  0
  7 10  1  0  0  0  0
  8 11  1  0  0  0  0
 10 13  1  0  0  0  0
 10 21  1  0  0  0  0
 11 14  2  0  0  0  0
 13  2  1  1  0  0  0
 13 16  1  0  0  0  0
 14 15  1  0  0  0  0
 14 17  1  0  0  0  0
 16 18  1  1  0  0  0
 17 19  2  0  0  0  0
 17 21  1  0  0  0  0
 18 20  1  0  0  0  0
 20 22  1  0  0  0  0
M  CHG  1   9  -1
M  END
>  <CHROM.1>
37.94361089,87.23977404,162.92290941,51.01841911,176.09237985,169.82092124
28.25677347,37.92855401,72.60937348,-1.52411962,-1.49097159,-2.13552986

>  <Name>
ligand

>  <RI>
0

>  <Rbt.Current_Directory>
/home/itssahil/PROJECTS/Mol_Feturizer/New_Systems/rnas/2HOM

>  <Rbt.Executable>
rbdock ($Id: //depot/dev/client3/rdock/2013.1/src/exe/rbdock.cxx#4 $)

>  <Rbt.Library>
libRbt.so (2013.1, Build901 2013/11/27)

>  <Rbt.Parameter_File>
/export/apps/rDock/src/rDock_2013.1_src/data/scripts/dock_solv.prm

>  <Rbt.Receptor>
prm/blind_docking_100.prm

>  <SCORE>
-20.5265

>  <SCORE.INTER>
-21.5367

>  <SCORE.INTER.CONST>
1

>  <SCORE.INTER.POLAR>
-1.63459

>  <SCORE.INTER.ROT>
6

>  <SCORE.INTER.SOLV>
18.9061

>  <SCORE.INTER.VDW>
-22.8112

>  <SCORE.INTER.norm>
-0.97894

>  <SCORE.INTRA>
0.984656

>  <SCORE.INTRA.DIHEDRAL>
0.53741

>  <SCORE.INTRA.DIHEDRAL.0>
5.05013

>  <SCORE.INTRA.POLAR>
0

>  <SCORE.INTRA.POLAR.0>
0

>  <SCORE.INTRA.REPUL>
0

>  <SCORE.INTRA.REPUL.0>
0

>  <SCORE.INTRA.SOLV>
0.570929

>  <SCORE.INTRA.SOLV.lig_0>
-54.1265

>  <SCORE.INTRA.VDW>
0.430487

>  <SCORE.INTRA.VDW.0>
-2.1303

>  <SCORE.INTRA.norm>
0.0447571

>  <SCORE.RESTR>
0.0255176

>  <SCORE.RESTR.CAVITY>
0.0255176

>  <SCORE.RESTR.norm>
0.00115989

>  <SCORE.SYSTEM>
0

>  <SCORE.SYSTEM.CONST>
0

>  <SCORE.SYSTEM.DIHEDRAL>
0

>  <SCORE.SYSTEM.SOLV>
0

>  <SCORE.SYSTEM.norm>
0

>  <SCORE.heavy>
22

>  <SCORE.norm>
-0.933023

>  <RMSD>
10.575

$$$$
ligand
 OpenBabel11021811443D
libRbt.so/2013.1/901 2013/11/27
 22 23  0  0  0  0  0  0  0  0999 V2000
   23.2505   34.4097   70.9105 C   0  0  0  0  0  0  0  0  0  0  0  0
   29.1123   40.3697   73.2220 C   0  0  0  0  0  0  0  0  0  0  0  0
   28.8665   41.2311   80.2861 P   0  0  1  0  0  0  0  0  0  0  0  0
   24.6955   35.4925   72.4798 N   0  0  0  0  0  0  0  0  0  0  0  0
   27.8647   40.1801   80.5996 O   0  0  0  0  0  0  0  0  0  0  0  0
   27.1845   38.3850   76.1462 S   0  0  0  0  0  0  0  0  0  0  0  0
   27.0174   37.7133   74.6154 C   0  0  0  0  0  0  0  0  0  0  0  0
   24.4011   35.2794   71.1505 C   0  0  0  0  0  0  0  0  0  0  0  0
   28.4795   42.5933   80.7354 O   0  5  0  0  0  0  0  0  0  0  0  0
   27.6576   38.3638   73.6203 N   0  0  0  0  0  0  0  0  0  0  0  0
   25.0886   35.7897   70.1641 N   0  0  0  0  0  0  0  0  0  0  0  0
   30.2267   40.8148   80.7556 O   0  0  0  0  0  0  0  0  0  0  0  0
   28.3248   39.4768   74.1351 C   0  0  2  0  0  0  0  0  0  0  0  0
   26.1773   36.6143   70.4281 C   0  0  0  0  0  0  0  0  0  0  0  0
   26.8765   37.1095   69.4111 N   0  0  0  0  0  0  0  0  0  0  0  0
   28.1808   39.6573   75.4905 C   0  0  1  0  0  0  0  0  0  0  0  0
   26.5205   36.9159   71.8080 C   0  0  0  0  0  0  0  0  0  0  0  0
   28.7439   40.7452   76.3322 C   0  0  0  0  0  0  0  0  0  0  0  0
   25.7515   36.2937   72.7709 C   0  0  0  0  0  0  0  0  0  0  0  0
   28.8182   40.3416   77.7569 C   0  0  0  0  0  0  0  0  0  0  0  0
   27.6207   37.9023   72.1501 C   0  0  0  0  0  0  0  0  0  0  0  0
   28.9386   41.3885   78.7206 O   0  0  0  0  0  0  0  0  0  0  0  0
  1  8  1  0  0  0  0
  3  5  1  1  0  0  0
  3  9  1  0  0  0  0
  3 12  2  0  0  0  0
  3 22  1  0  0  0  0
  4  8  2  0  0  0  0
  4 19  1  0  0  0  0
  6 16  1  0  0  0  0
  6  7  1  0  0  0  0
  7 10  1  0  0  0  0
  8 11  1  0  0  0  0
 10 13  1  0  0  0  0
 10 21  1  0  0  0  0
 11 14  2  0  0  0  0
 13  2  1  6  0  0  0
 13 16  1  0  0  0  0
 14 15  1  0  0  0  0
 14 17  1  0  0  0  0
 16 18  1  6  0  0  0
 17 19  2  0  0  0  0
 17 21  1  0  0  0  0
 18 20  1  0  0  0  0
 20 22  1  0  0  0  0
M  CHG  1   9  -1
M  END
>  <CHROM.1>
16.68752697,22.25982195,166.55853084,-161.15976242,172.37376120,-36.09142341
27.39734823,38.73560043,75.25523237,2.03444850,-0.76545039,-1.76307157

>  <Name>
ligand

>  <RI>
0

>  <Rbt.Current_Directory>
/home/itssahil/PROJECTS/Mol_Feturizer/New_Systems/rnas/2HOM

>  <Rbt.Executable>
rbdock ($Id: //depot/dev/client3/rdock/2013.1/src/exe/rbdock.cxx#4 $)

>  <Rbt.Library>
libRbt.so (2013.1, Build901 2013/11/27)

>  <Rbt.Parameter_File>
/export/apps/rDock/src/rDock_2013.1_src/data/scripts/dock_solv.prm

>  <Rbt.Receptor>
prm/blind_docking_100.prm

>  <SCORE>
-17.0491

>  <SCORE.INTER>
-20.6359

>  <SCORE.INTER.CONST>
1

>  <SCORE.INTER.POLAR>
-1.29904

>  <SCORE.INTER.ROT>
6

>  <SCORE.INTER.SOLV>
11.291

>  <SCORE.INTER.VDW>
-20.7908

>  <SCORE.INTER.norm>
-0.937997

>  <SCORE.INTRA>
3.58682

>  <SCORE.INTRA.DIHEDRAL>
2.04128

>  <SCORE.INTRA.DIHEDRAL.0>
5.05013

>  <SCORE.INTRA.POLAR>
0

>  <SCORE.INTRA.POLAR.0>
0

>  <SCORE.INTRA.REPUL>
0

>  <SCORE.INTRA.REPUL.0>
0

>  <SCORE.INTRA.SOLV>
-0.173593

>  <SCORE.INTRA.SOLV.lig_0>
-54.1265

>  <SCORE.INTRA.VDW>
2.65297

>  <SCORE.INTRA.VDW.0>
-2.1303

>  <SCORE.INTRA.norm>
0.163037

>  <SCORE.RESTR>
0

>  <SCORE.RESTR.CAVITY>
0

>  <SCORE.RESTR.norm>
0

>  <SCORE.SYSTEM>
0

>  <SCORE.SYSTEM.CONST>
0

>  <SCORE.SYSTEM.DIHEDRAL>
0

>  <SCORE.SYSTEM.SOLV>
0

>  <SCORE.SYSTEM.norm>
0

>  <SCORE.heavy>
22

>  <SCORE.norm>
-0.77496

>  <RMSD>
10.584

$$$$
ligand
 OpenBabel11021811443D
libRbt.so/2013.1/901 2013/11/27
 22 23  0  0  0  0  0  0  0  0999 V2000
   23.5494   33.8601   70.6765 C   0  0  0  0  0  0  0  0  0  0  0  0
   29.1267   40.1551   73.0281 C   0  0  0  0  0  0  0  0  0  0  0  0
   29.0978   41.0808   80.0898 P   0  0  1  0  0  0  0  0  0  0  0  0
   24.3863   35.6649   72.0052 N   0  0  0  0  0  0  0  0  0  0  0  0
   28.2405   39.9365   80.4923 O   0  0  0  0  0  0  0  0  0  0  0  0
   27.3440   38.0853   75.9852 S   0  0  0  0  0  0  0  0  0  0  0  0
   27.1069   37.4540   74.4464 C   0  0  0  0  0  0  0  0  0  0  0  0
   24.6405   34.7870   70.9737 C   0  0  0  0  0  0  0  0  0  0  0  0
   28.4403   42.4071   80.2160 O   0  5  0  0  0  0  0  0  0  0  0  0
   27.6979   38.1334   73.4403 N   0  0  0  0  0  0  0  0  0  0  0  0
   25.7640   34.7548   70.3084 N   0  0  0  0  0  0  0  0  0  0  0  0
   30.4258   41.0082   80.7787 O   0  0  0  0  0  0  0  0  0  0  0  0
   28.3855   39.2350   73.9529 C   0  0  2  0  0  0  0  0  0  0  0  0
   26.7812   35.6523   70.6164 C   0  0  0  0  0  0  0  0  0  0  0  0
   27.9249   35.5920   69.9407 N   0  0  0  0  0  0  0  0  0  0  0  0
   28.3049   39.3787   75.3179 C   0  0  1  0  0  0  0  0  0  0  0  0
   26.5665   36.6344   71.6663 C   0  0  0  0  0  0  0  0  0  0  0  0
   28.9039   40.4460   76.1611 C   0  0  0  0  0  0  0  0  0  0  0  0
   25.3586   36.5545   72.3296 C   0  0  0  0  0  0  0  0  0  0  0  0
   28.5815   40.2460   77.5944 C   0  0  0  0  0  0  0  0  0  0  0  0
   27.5932   37.7111   71.9615 C   0  0  0  0  0  0  0  0  0  0  0  0
   29.3661   40.9716   78.5416 O   0  0  0  0  0  0  0  0  0  0  0  0
  1  8  1  0  0  0  0
  3  5  1  1  0  0  0
  3  9  1  0  0  0  0
  3 12  2  0  0  0  0
  3 22  1  0  0  0  0
  4  8  2  0  0  0  0
  4 19  1  0  0  0  0
  6 16  1  0  0  0  0
  6  7  1  0  0  0  0
  7 10  1  0  0  0  0
  8 11  1  0  0  0  0
 10 13  1  0  0  0  0
 10 21  1  0  0  0  0
 11 14  2  0  0  0  0
 13  2  1  6  0  0  0
 13 16  1  0  0  0  0
 14 15  1  0  0  0  0
 14 17  1  0  0  0  0
 16 18  1  6  0  0  0
 17 19  2  0  0  0  0
 17 21  1  0  0  0  0
 18 20  1  0  0  0  0
 20 22  1  0  0  0  0
M  CHG  1   9  -1
M  END
>  <CHROM.1>
11.25404986,0.38202040,-146.74972243,163.89818264,171.18232617,21.08393671
27.57587627,38.41708759,75.10666415,1.99404891,-0.70242681,-1.85722521

>  <Name>
ligand

>  <RI>
0

>  <Rbt.Current_Directory>
/home/itssahil/PROJECTS/Mol_Feturizer/New_Systems/rnas/2HOM

>  <Rbt.Executable>
rbdock ($Id: //depot/dev/client3/rdock/2013.1/src/exe/rbdock.cxx#4 $)

>  <Rbt.Library>
libRbt.so (2013.1, Build901 2013/11/27)

>  <Rbt.Parameter_File>
/export/apps/rDock/src/rDock_2013.1_src/data/scripts/dock_solv.prm

>  <Rbt.Receptor>
prm/blind_docking_100.prm

>  <SCORE>
-17.7049

>  <SCORE.INTER>
-21.0031

>  <SCORE.INTER.CONST>
1

>  <SCORE.INTER.POLAR>
-1.29904

>  <SCORE.INTER.ROT>
6

>  <SCORE.INTER.SOLV>
11.3882

>  <SCORE.INTER.VDW>
-21.068

>  <SCORE.INTER.norm>
-0.954686

>  <SCORE.INTRA>
3.29821

>  <SCORE.INTRA.DIHEDRAL>
2.47335

>  <SCORE.INTRA.DIHEDRAL.0>
5.05013

>  <SCORE.INTRA.POLAR>
0

>  <SCORE.INTRA.POLAR.0>
0

>  <SCORE.INTRA.REPUL>
0

>  <SCORE.INTRA.REPUL.0>
0

>  <SCORE.INTRA.SOLV>
-0.15777

>  <SCORE.INTRA.SOLV.lig_0>
-54.1265

>  <SCORE.INTRA.VDW>
2.14042

>  <SCORE.INTRA.VDW.0>
-2.1303

>  <SCORE.INTRA.norm>
0.149919

>  <SCORE.RESTR>
0

>  <SCORE.RESTR.CAVITY>
0

>  <SCORE.RESTR.norm>
0

>  <SCORE.SYSTEM>
0

>  <SCORE.SYSTEM.CONST>
0

>  <SCORE.SYSTEM.DIHEDRAL>
0

>  <SCORE.SYSTEM.SOLV>
0

>  <SCORE.SYSTEM.norm>
0

>  <SCORE.heavy>
22

>  <SCORE.norm>
-0.804767

>  <RMSD>
10.642

$$$$
ligand
 OpenBabel11021811443D
libRbt.so/2013.1/901 2013/11/27
 22 23  0  0  0  0  0  0  0  0999 V2000
   23.4191   34.3581   71.1477 C   0  0  0  0  0  0  0  0  0  0  0  0
   29.0459   40.5452   73.1318 C   0  0  0  0  0  0  0  0  0  0  0  0
   29.2967   41.6262   80.1735 P   0  0  1  0  0  0  0  0  0  0  0  0
   24.5945   35.8858   72.5647 N   0  0  0  0  0  0  0  0  0  0  0  0
   27.9546   41.1323   80.5748 O   0  0  0  0  0  0  0  0  0  0  0  0
   27.8043   38.2918   76.2281 S   0  0  0  0  0  0  0  0  0  0  0  0
   27.5489   37.6063   74.7157 C   0  0  0  0  0  0  0  0  0  0  0  0
   24.5881   35.2092   71.3641 C   0  0  0  0  0  0  0  0  0  0  0  0
   29.5500   43.0484   80.5205 O   0  5  0  0  0  0  0  0  0  0  0  0
   27.9595   38.3461   73.6635 N   0  0  0  0  0  0  0  0  0  0  0  0
   25.5452   35.2924   70.4792 N   0  0  0  0  0  0  0  0  0  0  0  0
   30.3646   40.6963   80.6619 O   0  0  0  0  0  0  0  0  0  0  0  0
   28.5159   39.5441   74.1157 C   0  0  2  0  0  0  0  0  0  0  0  0
   26.6431   36.1129   70.7166 C   0  0  0  0  0  0  0  0  0  0  0  0
   27.6165   36.1704   69.8125 N   0  0  0  0  0  0  0  0  0  0  0  0
   28.5158   39.6984   75.4819 C   0  0  1  0  0  0  0  0  0  0  0  0
   26.6965   36.8885   71.9449 C   0  0  0  0  0  0  0  0  0  0  0  0
   29.0140   40.8554   76.2706 C   0  0  0  0  0  0  0  0  0  0  0  0
   25.6515   36.6959   72.8261 C   0  0  0  0  0  0  0  0  0  0  0  0
   28.9371   40.5888   77.7271 C   0  0  0  0  0  0  0  0  0  0  0  0
   27.8089   37.8875   72.1996 C   0  0  0  0  0  0  0  0  0  0  0  0
   29.3658   41.6345   78.6000 O   0  0  0  0  0  0  0  0  0  0  0  0
  1  8  1  0  0  0  0
  3  5  1  1  0  0  0
  3  9  1  0  0  0  0
  3 12  2  0  0  0  0
  3 22  1  0  0  0  0
  4  8  2  0  0  0  0
  4 19  1  0  0  0  0
  6 16  1  0  0  0  0
  6  7  1  0  0  0  0
  7 10  1  0  0  0  0
  8 11  1  0  0  0  0
 10 13  1  0  0  0  0
 10 21  1  0  0  0  0
 11 14  2  0  0  0  0
 13  2  1  6  0  0  0
 13 16  1  0  0  0  0
 14 15  1  0  0  0  0
 14 17  1  0  0  0  0
 16 18  1  6  0  0  0
 17 19  2  0  0  0  0
 17 21  1  0  0  0  0
 18 20  1  0  0  0  0
 20 22  1  0  0  0  0
M  CHG  1   9  -1
M  END
>  <CHROM.1>
24.81231814,5.23281520,-164.08515767,-178.94777643,175.95556090,-45.67280369
27.72588604,38.80420266,75.29806779,2.03220492,-0.72558179,-1.84085468

>  <Name>
ligand

>  <RI>
0

>  <Rbt.Current_Directory>
/home/itssahil/PROJECTS/Mol_Feturizer/New_Systems/rnas/2HOM

>  <Rbt.Executable>
rbdock ($Id: //depot/dev/client3/rdock/2013.1/src/exe/rbdock.cxx#4 $)

>  <Rbt.Library>
libRbt.so (2013.1, Build901 2013/11/27)

>  <Rbt.Parameter_File>
/export/apps/rDock/src/rDock_2013.1_src/data/scripts/dock_solv.prm

>  <Rbt.Receptor>
prm/blind_docking_100.prm

>  <SCORE>
-18.6361

>  <SCORE.INTER>
-20.6084

>  <SCORE.INTER.CONST>
1

>  <SCORE.INTER.POLAR>
-1.29904

>  <SCORE.INTER.ROT>
6

>  <SCORE.INTER.SOLV>
9.29186

>  <SCORE.INTER.VDW>
-20.1061

>  <SCORE.INTER.norm>
-0.936746

>  <SCORE.INTRA>
1.97233

>  <SCORE.INTRA.DIHEDRAL>
-0.195217

>  <SCORE.INTRA.DIHEDRAL.0>
5.05013

>  <SCORE.INTRA.POLAR>
0

>  <SCORE.INTRA.POLAR.0>
0

>  <SCORE.INTRA.REPUL>
0

>  <SCORE.INTRA.REPUL.0>
0

>  <SCORE.INTRA.SOLV>
-0.113492

>  <SCORE.INTRA.SOLV.lig_0>
-54.1265

>  <SCORE.INTRA.VDW>
2.12668

>  <SCORE.INTRA.VDW.0>
-2.1303

>  <SCORE.INTRA.norm>
0.0896513

>  <SCORE.RESTR>
0

>  <SCORE.RESTR.CAVITY>
0

>  <SCORE.RESTR.norm>
0

>  <SCORE.SYSTEM>
0

>  <SCORE.SYSTEM.CONST>
0

>  <SCORE.SYSTEM.DIHEDRAL>
0

>  <SCORE.SYSTEM.SOLV>
0

>  <SCORE.SYSTEM.norm>
0

>  <SCORE.heavy>
22

>  <SCORE.norm>
-0.847094

>  <RMSD>
10.741

$$$$
ligand
 OpenBabel11021811443D
libRbt.so/2013.1/901 2013/11/27
 22 23  0  0  0  0  0  0  0  0999 V2000
   28.4034   36.7167   67.5492 C   0  0  0  0  0  0  0  0  0  0  0  0
   25.3842   36.5127   75.7285 C   0  0  0  0  0  0  0  0  0  0  0  0
   29.6786   40.6046   79.6823 P   0  0  1  0  0  0  0  0  0  0  0  0
   26.8293   37.5476   69.1477 N   0  0  0  0  0  0  0  0  0  0  0  0
   30.9700   39.8782   79.5786 O   0  0  0  0  0  0  0  0  0  0  0  0
   28.3422   39.0484   74.7149 S   0  0  0  0  0  0  0  0  0  0  0  0
   27.6423   38.2354   73.4219 C   0  0  0  0  0  0  0  0  0  0  0  0
   27.7756   36.5868   68.8633 C   0  0  0  0  0  0  0  0  0  0  0  0
   29.1941   40.7877   81.0748 O   0  5  0  0  0  0  0  0  0  0  0  0
   26.6470   37.3805   73.7408 N   0  0  0  0  0  0  0  0  0  0  0  0
   28.0938   35.6178   69.6792 N   0  0  0  0  0  0  0  0  0  0  0  0
   29.7308   41.8803   78.8990 O   0  0  0  0  0  0  0  0  0  0  0  0
   26.4414   37.3875   75.1216 C   0  0  2  0  0  0  0  0  0  0  0  0
   27.4776   35.5245   70.9228 C   0  0  0  0  0  0  0  0  0  0  0  0
   27.8010   34.5204   71.7324 N   0  0  0  0  0  0  0  0  0  0  0  0
   27.2726   38.2292   75.8223 C   0  0  1  0  0  0  0  0  0  0  0  0
   26.4988   36.5285   71.3064 C   0  0  0  0  0  0  0  0  0  0  0  0
   27.3205   38.4515   77.2911 C   0  0  0  0  0  0  0  0  0  0  0  0
   26.2105   37.4851   70.3539 C   0  0  0  0  0  0  0  0  0  0  0  0
   28.4674   39.3116   77.6695 C   0  0  0  0  0  0  0  0  0  0  0  0
   25.8860   36.5435   72.6938 C   0  0  0  0  0  0  0  0  0  0  0  0
   28.5569   39.7051   79.0393 O   0  0  0  0  0  0  0  0  0  0  0  0
  1  8  1  0  0  0  0
  3  5  1  6  0  0  0
  3  9  1  0  0  0  0
  3 12  2  0  0  0  0
  3 22  1  0  0  0  0
  4  8  2  0  0  0  0
  4 19  1  0  0  0  0
  6 16  1  0  0  0  0
  6  7  1  0  0  0  0
  7 10  1  0  0  0  0
  8 11  1  0  0  0  0
 10 13  1  0  0  0  0
 10 21  1  0  0  0  0
 11 14  2  0  0  0  0
 13  2  1  1  0  0  0
 13 16  1  0  0  0  0
 14 15  1  0  0  0  0
 14 17  1  0  0  0  0
 16 18  1  1  0  0  0
 17 19  2  0  0  0  0
 17 21  1  0  0  0  0
 18 20  1  0  0  0  0
 20 22  1  0  0  0  0
M  CHG  1   9  -1
M  END
>  <CHROM.1>
11.54759872,-6.47804096,89.97181586,174.34473702,179.70208077,-64.26291727
27.95057011,38.21070610,74.76170317,-1.82977635,0.67613203,1.33524638

>  <Name>
ligand

>  <RI>
0

>  <Rbt.Current_Directory>
/home/itssahil/PROJECTS/Mol_Feturizer/New_Systems/rnas/2HOM

>  <Rbt.Executable>
rbdock ($Id: //depot/dev/client3/rdock/2013.1/src/exe/rbdock.cxx#4 $)

>  <Rbt.Library>
libRbt.so (2013.1, Build901 2013/11/27)

>  <Rbt.Parameter_File>
/export/apps/rDock/src/rDock_2013.1_src/data/scripts/dock_solv.prm

>  <Rbt.Receptor>
prm/blind_docking_100.prm

>  <SCORE>
-15.2183

>  <SCORE.INTER>
-16.6338

>  <SCORE.INTER.CONST>
1

>  <SCORE.INTER.POLAR>
-1.29233

>  <SCORE.INTER.ROT>
6

>  <SCORE.INTER.SOLV>
14.1083

>  <SCORE.INTER.VDW>
-19.0842

>  <SCORE.INTER.norm>
-0.75608

>  <SCORE.INTRA>
1.41543

>  <SCORE.INTRA.DIHEDRAL>
-0.416577

>  <SCORE.INTRA.DIHEDRAL.0>
5.05013

>  <SCORE.INTRA.POLAR>
0

>  <SCORE.INTRA.POLAR.0>
0

>  <SCORE.INTRA.REPUL>
0

>  <SCORE.INTRA.REPUL.0>
0

>  <SCORE.INTRA.SOLV>
0.302894

>  <SCORE.INTRA.SOLV.lig_0>
-54.1265

>  <SCORE.INTRA.VDW>
1.47227

>  <SCORE.INTRA.VDW.0>
-2.1303

>  <SCORE.INTRA.norm>
0.0643377

>  <SCORE.RESTR>
0

>  <SCORE.RESTR.CAVITY>
0

>  <SCORE.RESTR.norm>
0

>  <SCORE.SYSTEM>
0

>  <SCORE.SYSTEM.CONST>
0

>  <SCORE.SYSTEM.DIHEDRAL>
0

>  <SCORE.SYSTEM.SOLV>
0

>  <SCORE.SYSTEM.norm>
0

>  <SCORE.heavy>
22

>  <SCORE.norm>
-0.691742

>  <RMSD>
10.824

$$$$
ligand
 OpenBabel11021811443D
libRbt.so/2013.1/901 2013/11/27
 22 23  0  0  0  0  0  0  0  0999 V2000
   34.4968   42.5065   61.4071 C   0  0  0  0  0  0  0  0  0  0  0  0
   33.2283   35.8561   63.6272 C   0  0  0  0  0  0  0  0  0  0  0  0
   28.4981   34.8982   68.8659 P   0  0  1  0  0  0  0  0  0  0  0  0
   32.6325   41.0451   61.0730 N   0  0  0  0  0  0  0  0  0  0  0  0
   27.5337   36.0204   68.7369 O   0  0  0  0  0  0  0  0  0  0  0  0
   29.3156   36.7672   63.8870 S   0  0  0  0  0  0  0  0  0  0  0  0
   30.0469   37.2229   62.4447 C   0  0  0  0  0  0  0  0  0  0  0  0
   33.9886   41.1397   61.2996 C   0  0  0  0  0  0  0  0  0  0  0  0
   29.1272   34.7882   70.2073 O   0  5  0  0  0  0  0  0  0  0  0  0
   31.3595   36.9252   62.3373 N   0  0  0  0  0  0  0  0  0  0  0  0
   34.7815   40.1066   61.3992 N   0  0  0  0  0  0  0  0  0  0  0  0
   27.8790   33.6186   68.3934 O   0  0  0  0  0  0  0  0  0  0  0  0
   31.7968   36.2873   63.4996 C   0  0  2  0  0  0  0  0  0  0  0  0
   34.2644   38.8197   61.2932 C   0  0  0  0  0  0  0  0  0  0  0  0
   35.0899   37.7807   61.3786 N   0  0  0  0  0  0  0  0  0  0  0  0
   30.8285   36.1166   64.4607 C   0  0  1  0  0  0  0  0  0  0  0  0
   32.8351   38.6437   61.0951 C   0  0  0  0  0  0  0  0  0  0  0  0
   30.9736   35.4964   65.8036 C   0  0  0  0  0  0  0  0  0  0  0  0
   32.0966   39.8028   60.9659 C   0  0  0  0  0  0  0  0  0  0  0  0
   29.6797   35.4672   66.5270 C   0  0  0  0  0  0  0  0  0  0  0  0
   32.2026   37.2651   61.0924 C   0  0  0  0  0  0  0  0  0  0  0  0
   29.7279   35.1983   67.9286 O   0  0  0  0  0  0  0  0  0  0  0  0
  1  8  1  0  0  0  0
  3  5  1  6  0  0  0
  3  9  1  0  0  0  0
  3 12  2  0  0  0  0
  3 22  1  0  0  0  0
  4  8  2  0  0  0  0
  4 19  1  0  0  0  0
  6 16  1  0  0  0  0
  6  7  1  0  0  0  0
  7 10  1  0  0  0  0
  8 11  1  0  0  0  0
 10 13  1  0  0  0  0
 10 21  1  0  0  0  0
 11 14  2  0  0  0  0
 13  2  1  1  0  0  0
 13 16  1  0  0  0  0
 14 15  1  0  0  0  0
 14 17  1  0  0  0  0
 16 18  1  1  0  0  0
 17 19  2  0  0  0  0
 17 21  1  0  0  0  0
 18 20  1  0  0  0  0
 20 22  1  0  0  0  0
M  CHG  1   9  -1
M  END
>  <CHROM.1>
87.80780391,2.21232223,107.49891989,-165.48201345,-169.98024479,-55.40536115
31.12196086,37.11411402,64.40629942,0.16579363,1.04100038,0.40163303

>  <Name>
ligand

>  <RI>
0

>  <Rbt.Current_Directory>
/home/itssahil/PROJECTS/Mol_Feturizer/New_Systems/rnas/2HOM

>  <Rbt.Executable>
rbdock ($Id: //depot/dev/client3/rdock/2013.1/src/exe/rbdock.cxx#4 $)

>  <Rbt.Library>
libRbt.so (2013.1, Build901 2013/11/27)

>  <Rbt.Parameter_File>
/export/apps/rDock/src/rDock_2013.1_src/data/scripts/dock_solv.prm

>  <Rbt.Receptor>
prm/pocket_docking_7.prm

>  <SCORE>
-16.7298

>  <SCORE.INTER>
-19.0077

>  <SCORE.INTER.CONST>
1

>  <SCORE.INTER.POLAR>
-1.30767

>  <SCORE.INTER.ROT>
6

>  <SCORE.INTER.SOLV>
18.6353

>  <SCORE.INTER.VDW>
-22.1247

>  <SCORE.INTER.norm>
-0.863985

>  <SCORE.INTRA>
2.27789

>  <SCORE.INTRA.DIHEDRAL>
0.710107

>  <SCORE.INTRA.DIHEDRAL.0>
5.05013

>  <SCORE.INTRA.POLAR>
0

>  <SCORE.INTRA.POLAR.0>
0

>  <SCORE.INTRA.REPUL>
0

>  <SCORE.INTRA.REPUL.0>
0

>  <SCORE.INTRA.SOLV>
1.46113

>  <SCORE.INTRA.SOLV.lig_0>
-54.1265

>  <SCORE.INTRA.VDW>
1.19227

>  <SCORE.INTRA.VDW.0>
-2.1303

>  <SCORE.INTRA.norm>
0.10354

>  <SCORE.RESTR>
0

>  <SCORE.RESTR.CAVITY>
0

>  <SCORE.RESTR.norm>
0

>  <SCORE.SYSTEM>
0

>  <SCORE.SYSTEM.CONST>
0

>  <SCORE.SYSTEM.DIHEDRAL>
0

>  <SCORE.SYSTEM.SOLV>
0

>  <SCORE.SYSTEM.norm>
0

>  <SCORE.heavy>
22

>  <SCORE.norm>
-0.760445

>  <RMSD>
11.016

$$$$
ligand
 OpenBabel11021811443D
libRbt.so/2013.1/901 2013/11/27
 22 23  0  0  0  0  0  0  0  0999 V2000
   28.8547   41.7644   76.1579 C   0  0  0  0  0  0  0  0  0  0  0  0
   27.8822   36.1822   71.8835 C   0  0  0  0  0  0  0  0  0  0  0  0
   22.9530   33.0469   70.5802 P   0  0  1  0  0  0  0  0  0  0  0  0
   28.7688   39.9320   74.6223 N   0  0  0  0  0  0  0  0  0  0  0  0
   22.6450   32.9339   69.1315 O   0  0  0  0  0  0  0  0  0  0  0  0
   24.2015   35.6690   73.4315 S   0  0  0  0  0  0  0  0  0  0  0  0
   25.4194   35.8695   74.5713 C   0  0  0  0  0  0  0  0  0  0  0  0
   28.6370   40.3361   75.9332 C   0  0  0  0  0  0  0  0  0  0  0  0
   22.3737   34.2493   71.2330 O   0  5  0  0  0  0  0  0  0  0  0  0
   26.6618   36.0442   74.0722 N   0  0  0  0  0  0  0  0  0  0  0  0
   28.3555   39.5253   76.9178 N   0  0  0  0  0  0  0  0  0  0  0  0
   22.6211   31.7690   71.2875 O   0  0  0  0  0  0  0  0  0  0  0  0
   26.6201   36.0130   72.6771 C   0  0  2  0  0  0  0  0  0  0  0  0
   28.1531   38.1718   76.6684 C   0  0  0  0  0  0  0  0  0  0  0  0
   27.8859   37.3586   77.6860 N   0  0  0  0  0  0  0  0  0  0  0  0
   25.3688   35.8130   72.1438 C   0  0  1  0  0  0  0  0  0  0  0  0
   28.2359   37.6822   75.3023 C   0  0  0  0  0  0  0  0  0  0  0  0
   24.9925   35.7122   70.7094 C   0  0  0  0  0  0  0  0  0  0  0  0
   28.5763   38.6174   74.3457 C   0  0  0  0  0  0  0  0  0  0  0  0
   25.2588   34.3547   70.1759 C   0  0  0  0  0  0  0  0  0  0  0  0
   27.9071   36.2419   74.9589 C   0  0  0  0  0  0  0  0  0  0  0  0
   24.5030   33.2799   70.7353 O   0  0  0  0  0  0  0  0  0  0  0  0
  1  8  1  0  0  0  0
  3  5  1  6  0  0  0
  3  9  1  0  0  0  0
  3 12  2  0  0  0  0
  3 22  1  0  0  0  0
  4  8  2  0  0  0  0
  4 19  1  0  0  0  0
  6 16  1  0  0  0  0
  6  7  1  0  0  0  0
  7 10  1  0  0  0  0
  8 11  1  0  0  0  0
 10 13  1  0  0  0  0
 10 21  1  0  0  0  0
 11 14  2  0  0  0  0
 13  2  1  1  0  0  0
 13 16  1  0  0  0  0
 14 15  1  0  0  0  0
 14 17  1  0  0  0  0
 16 18  1  1  0  0  0
 17 19  2  0  0  0  0
 17 21  1  0  0  0  0
 18 20  1  0  0  0  0
 20 22  1  0  0  0  0
M  CHG  1   9  -1
M  END
>  <CHROM.1>
-90.37145453,-98.39720271,114.12667488,64.47573826,67.46612551,58.48562530
25.84489278,36.07536585,73.16970403,-0.65394106,-0.81384985,-1.64878497

>  <Name>
ligand

>  <RI>
0

>  <Rbt.Current_Directory>
/home/itssahil/PROJECTS/Mol_Feturizer/New_Systems/rnas/2HOM

>  <Rbt.Executable>
rbdock ($Id: //depot/dev/client3/rdock/2013.1/src/exe/rbdock.cxx#4 $)

>  <Rbt.Library>
libRbt.so (2013.1, Build901 2013/11/27)

>  <Rbt.Parameter_File>
/export/apps/rDock/src/rDock_2013.1_src/data/scripts/dock_solv.prm

>  <Rbt.Receptor>
prm/blind_docking_100.prm

>  <SCORE>
-14.1971

>  <SCORE.INTER>
-14.1497

>  <SCORE.INTER.CONST>
1

>  <SCORE.INTER.POLAR>
0

>  <SCORE.INTER.ROT>
6

>  <SCORE.INTER.SOLV>
15.4785

>  <SCORE.INTER.VDW>
-22.1926

>  <SCORE.INTER.norm>
-0.643167

>  <SCORE.INTRA>
-0.0474131

>  <SCORE.INTRA.DIHEDRAL>
-0.0167963

>  <SCORE.INTRA.DIHEDRAL.0>
5.05013

>  <SCORE.INTRA.POLAR>
0

>  <SCORE.INTRA.POLAR.0>
0

>  <SCORE.INTRA.REPUL>
0

>  <SCORE.INTRA.REPUL.0>
0

>  <SCORE.INTRA.SOLV>
1.51992

>  <SCORE.INTRA.SOLV.lig_0>
-54.1265

>  <SCORE.INTRA.VDW>
-0.798976

>  <SCORE.INTRA.VDW.0>
-2.1303

>  <SCORE.INTRA.norm>
-0.00215514

>  <SCORE.RESTR>
0

>  <SCORE.RESTR.CAVITY>
0

>  <SCORE.RESTR.norm>
0

>  <SCORE.SYSTEM>
0

>  <SCORE.SYSTEM.CONST>
0

>  <SCORE.SYSTEM.DIHEDRAL>
0

>  <SCORE.SYSTEM.SOLV>
0

>  <SCORE.SYSTEM.norm>
0

>  <SCORE.heavy>
22

>  <SCORE.norm>
-0.645322

>  <RMSD>
11.329

$$$$
ligand
 OpenBabel11021811443D
libRbt.so/2013.1/901 2013/11/27
 22 23  0  0  0  0  0  0  0  0999 V2000
   23.6438   34.4949   70.7626 C   0  0  0  0  0  0  0  0  0  0  0  0
   27.8479   39.3162   75.0155 C   0  0  0  0  0  0  0  0  0  0  0  0
   24.6972   37.7983   77.9311 P   0  0  1  0  0  0  0  0  0  0  0  0
   24.6431   35.8746   72.4422 N   0  0  0  0  0  0  0  0  0  0  0  0
   25.2016   38.2587   76.6120 O   0  0  0  0  0  0  0  0  0  0  0  0
   28.3054   36.0460   77.3184 S   0  0  0  0  0  0  0  0  0  0  0  0
   28.3616   35.7523   75.6651 C   0  0  0  0  0  0  0  0  0  0  0  0
   24.8594   35.0044   71.3957 C   0  0  0  0  0  0  0  0  0  0  0  0
   24.0756   38.8693   78.7519 O   0  5  0  0  0  0  0  0  0  0  0  0
   28.2111   36.8369   74.8750 N   0  0  0  0  0  0  0  0  0  0  0  0
   26.0455   34.6359   70.9915 N   0  0  0  0  0  0  0  0  0  0  0  0
   23.8229   36.5933   77.7659 O   0  0  0  0  0  0  0  0  0  0  0  0
   28.0396   37.9764   75.6631 C   0  0  2  0  0  0  0  0  0  0  0  0
   27.1814   35.1411   71.6156 C   0  0  0  0  0  0  0  0  0  0  0  0
   28.3801   34.7401   71.2025 N   0  0  0  0  0  0  0  0  0  0  0  0
   28.0563   37.7459   77.0184 C   0  0  1  0  0  0  0  0  0  0  0  0
   27.0289   36.0963   72.7006 C   0  0  0  0  0  0  0  0  0  0  0  0
   27.8846   38.7340   78.1154 C   0  0  0  0  0  0  0  0  0  0  0  0
   25.7313   36.3863   73.0714 C   0  0  0  0  0  0  0  0  0  0  0  0
   27.0271   38.1946   79.1980 C   0  0  0  0  0  0  0  0  0  0  0  0
   28.2316   36.7683   73.3352 C   0  0  0  0  0  0  0  0  0  0  0  0
   25.9339   37.3643   78.8046 O   0  0  0  0  0  0  0  0  0  0  0  0
  1  8  1  0  0  0  0
  3  5  1  6  0  0  0
  3  9  1  0  0  0  0
  3 12  2  0  0  0  0
  3 22  1  0  0  0  0
  4  8  2  0  0  0  0
  4 19  1  0  0  0  0
  6 16  1  0  0  0  0
  6  7  1  0  0  0  0
  7 10  1  0  0  0  0
  8 11  1  0  0  0  0
 10 13  1  0  0  0  0
 10 21  1  0  0  0  0
 11 14  2  0  0  0  0
 13  2  1  6  0  0  0
 13 16  1  0  0  0  0
 14 15  1  0  0  0  0
 14 17  1  0  0  0  0
 16 18  1  6  0  0  0
 17 19  2  0  0  0  0
 17 21  1  0  0  0  0
 18 20  1  0  0  0  0
 20 22  1  0  0  0  0
M  CHG  1   9  -1
M  END
>  <CHROM.1>
70.18944179,-40.96026540,-135.84840206,-36.63170626,-63.50692548,60.17930331
26.44718830,36.81391440,75.38425166,1.56408569,-0.02820219,-1.96137859

>  <Name>
ligand

>  <RI>
0

>  <Rbt.Current_Directory>
/home/itssahil/PROJECTS/Mol_Feturizer/New_Systems/rnas/2HOM

>  <Rbt.Executable>
rbdock ($Id: //depot/dev/client3/rdock/2013.1/src/exe/rbdock.cxx#4 $)

>  <Rbt.Library>
libRbt.so (2013.1, Build901 2013/11/27)

>  <Rbt.Parameter_File>
/export/apps/rDock/src/rDock_2013.1_src/data/scripts/dock_solv.prm

>  <Rbt.Receptor>
prm/blind_docking_100.prm

>  <SCORE>
-13.5753

>  <SCORE.INTER>
-14.1476

>  <SCORE.INTER.CONST>
1

>  <SCORE.INTER.POLAR>
0

>  <SCORE.INTER.ROT>
6

>  <SCORE.INTER.SOLV>
10.4778

>  <SCORE.INTER.VDW>
-20.5243

>  <SCORE.INTER.norm>
-0.643071

>  <SCORE.INTRA>
0.572231

>  <SCORE.INTRA.DIHEDRAL>
1.79962

>  <SCORE.INTRA.DIHEDRAL.0>
5.05013

>  <SCORE.INTRA.POLAR>
0

>  <SCORE.INTRA.POLAR.0>
0

>  <SCORE.INTRA.REPUL>
0

>  <SCORE.INTRA.REPUL.0>
0

>  <SCORE.INTRA.SOLV>
0.804187

>  <SCORE.INTRA.SOLV.lig_0>
-54.1265

>  <SCORE.INTRA.VDW>
-0.729671

>  <SCORE.INTRA.VDW.0>
-2.1303

>  <SCORE.INTRA.norm>
0.0260105

>  <SCORE.RESTR>
0

>  <SCORE.RESTR.CAVITY>
0

>  <SCORE.RESTR.norm>
0

>  <SCORE.SYSTEM>
0

>  <SCORE.SYSTEM.CONST>
0

>  <SCORE.SYSTEM.DIHEDRAL>
0

>  <SCORE.SYSTEM.SOLV>
0

>  <SCORE.SYSTEM.norm>
0

>  <SCORE.heavy>
22

>  <SCORE.norm>
-0.617061

>  <RMSD>
11.336

$$$$
ligand
 OpenBabel11021811443D
libRbt.so/2013.1/901 2013/11/27
 22 23  0  0  0  0  0  0  0  0999 V2000
   25.7403   36.8795   69.6870 C   0  0  0  0  0  0  0  0  0  0  0  0
   24.2671   36.4730   77.5804 C   0  0  0  0  0  0  0  0  0  0  0  0
   28.9772   40.7566   78.4352 P   0  0  1  0  0  0  0  0  0  0  0  0
   26.1592   37.0435   72.0367 N   0  0  0  0  0  0  0  0  0  0  0  0
   28.3043   41.3337   77.2434 O   0  0  0  0  0  0  0  0  0  0  0  0
   28.2724   36.4011   77.1815 S   0  0  0  0  0  0  0  0  0  0  0  0
   27.4321   35.6135   75.9583 C   0  0  0  0  0  0  0  0  0  0  0  0
   25.5116   36.3560   71.0330 C   0  0  0  0  0  0  0  0  0  0  0  0
   30.4260   40.4881   78.2449 O   0  5  0  0  0  0  0  0  0  0  0  0
   26.0868   35.6272   76.0731 N   0  0  0  0  0  0  0  0  0  0  0  0
   24.7375   35.3251   71.2422 N   0  0  0  0  0  0  0  0  0  0  0  0
   28.6799   41.5765   79.6529 O   0  0  0  0  0  0  0  0  0  0  0  0
   25.7173   36.3208   77.2269 C   0  0  2  0  0  0  0  0  0  0  0  0
   24.5426   34.8522   72.5358 C   0  0  0  0  0  0  0  0  0  0  0  0
   23.7362   33.8131   72.7311 N   0  0  0  0  0  0  0  0  0  0  0  0
   26.7689   36.8120   77.9639 C   0  0  1  0  0  0  0  0  0  0  0  0
   25.2278   35.5039   73.6398 C   0  0  0  0  0  0  0  0  0  0  0  0
   26.7140   37.5717   79.2403 C   0  0  0  0  0  0  0  0  0  0  0  0
   25.9905   36.6063   73.3103 C   0  0  0  0  0  0  0  0  0  0  0  0
   27.0376   39.0033   79.0304 C   0  0  0  0  0  0  0  0  0  0  0  0
   25.1461   34.9571   75.0522 C   0  0  0  0  0  0  0  0  0  0  0  0
   28.3866   39.3176   78.6829 O   0  0  0  0  0  0  0  0  0  0  0  0
  1  8  1  0  0  0  0
  3  5  1  6  0  0  0
  3  9  1  0  0  0  0
  3 12  2  0  0  0  0
  3 22  1  0  0  0  0
  4  8  2  0  0  0  0
  4 19  1  0  0  0  0
  6 16  1  0  0  0  0
  6  7  1  0  0  0  0
  7 10  1  0  0  0  0
  8 11  1  0  0  0  0
 10 13  1  0  0  0  0
 10 21  1  0  0  0  0
 11 14  2  0  0  0  0
 13  2  1  1  0  0  0
 13 16  1  0  0  0  0
 14 15  1  0  0  0  0
 14 17  1  0  0  0  0
 16 18  1  1  0  0  0
 17 19  2  0  0  0  0
 17 21  1  0  0  0  0
 18 20  1  0  0  0  0
 20 22  1  0  0  0  0
M  CHG  1   9  -1
M  END
>  <CHROM.1>
-61.33563892,73.75576819,171.30646904,-69.10124563,-178.86970814,-64.26894855
26.82756984,37.47251816,75.94984333,-2.42865636,0.99744946,1.72451179

>  <Name>
ligand

>  <RI>
0

>  <Rbt.Current_Directory>
/home/itssahil/PROJECTS/Mol_Feturizer/New_Systems/rnas/2HOM

>  <Rbt.Executable>
rbdock ($Id: //depot/dev/client3/rdock/2013.1/src/exe/rbdock.cxx#4 $)

>  <Rbt.Library>
libRbt.so (2013.1, Build901 2013/11/27)

>  <Rbt.Parameter_File>
/export/apps/rDock/src/rDock_2013.1_src/data/scripts/dock_solv.prm

>  <Rbt.Receptor>
prm/blind_docking_100.prm

>  <SCORE>
-14.548

>  <SCORE.INTER>
-14.4714

>  <SCORE.INTER.CONST>
1

>  <SCORE.INTER.POLAR>
0

>  <SCORE.INTER.ROT>
6

>  <SCORE.INTER.SOLV>
11.3003

>  <SCORE.INTER.VDW>
-21.0144

>  <SCORE.INTER.norm>
-0.65779

>  <SCORE.INTRA>
-0.0766272

>  <SCORE.INTRA.DIHEDRAL>
0.454599

>  <SCORE.INTRA.DIHEDRAL.0>
5.05013

>  <SCORE.INTRA.POLAR>
0

>  <SCORE.INTRA.POLAR.0>
0

>  <SCORE.INTRA.REPUL>
0

>  <SCORE.INTRA.REPUL.0>
0

>  <SCORE.INTRA.SOLV>
-0.0351158

>  <SCORE.INTRA.SOLV.lig_0>
-54.1265

>  <SCORE.INTRA.VDW>
-0.286369

>  <SCORE.INTRA.VDW.0>
-2.1303

>  <SCORE.INTRA.norm>
-0.00348306

>  <SCORE.RESTR>
0

>  <SCORE.RESTR.CAVITY>
0

>  <SCORE.RESTR.norm>
0

>  <SCORE.SYSTEM>
0

>  <SCORE.SYSTEM.CONST>
0

>  <SCORE.SYSTEM.DIHEDRAL>
0

>  <SCORE.SYSTEM.SOLV>
0

>  <SCORE.SYSTEM.norm>
0

>  <SCORE.heavy>
22

>  <SCORE.norm>
-0.661273

>  <RMSD>
11.341

$$$$
ligand
 OpenBabel11021811443D
libRbt.so/2013.1/901 2013/11/27
 22 23  0  0  0  0  0  0  0  0999 V2000
   23.0201   34.2035   70.8517 C   0  0  0  0  0  0  0  0  0  0  0  0
   28.1516   38.4979   73.8214 C   0  0  0  0  0  0  0  0  0  0  0  0
   30.1236   40.9081   79.7985 P   0  0  1  0  0  0  0  0  0  0  0  0
   24.6483   35.7770   71.6240 N   0  0  0  0  0  0  0  0  0  0  0  0
   31.1816   39.8690   79.7152 O   0  0  0  0  0  0  0  0  0  0  0  0
   27.8175   36.5008   77.3009 S   0  0  0  0  0  0  0  0  0  0  0  0
   27.8466   35.5256   75.9331 C   0  0  0  0  0  0  0  0  0  0  0  0
   24.2821   34.4506   71.5476 C   0  0  0  0  0  0  0  0  0  0  0  0
   29.3125   40.8517   81.0420 O   0  5  0  0  0  0  0  0  0  0  0  0
   27.9592   36.1764   74.7555 N   0  0  0  0  0  0  0  0  0  0  0  0
   24.9812   33.4740   72.0609 N   0  0  0  0  0  0  0  0  0  0  0  0
   30.6985   42.2641   79.5253 O   0  0  0  0  0  0  0  0  0  0  0  0
   28.0260   37.5527   74.9799 C   0  0  2  0  0  0  0  0  0  0  0  0
   26.1784   33.7444   72.7156 C   0  0  0  0  0  0  0  0  0  0  0  0
   26.8670   32.7392   73.2481 N   0  0  0  0  0  0  0  0  0  0  0  0
   27.9588   37.9235   76.3021 C   0  0  1  0  0  0  0  0  0  0  0  0
   26.6472   35.1180   72.7979 C   0  0  0  0  0  0  0  0  0  0  0  0
   27.9845   39.2976   76.8681 C   0  0  0  0  0  0  0  0  0  0  0  0
   25.8122   36.0741   72.2555 C   0  0  0  0  0  0  0  0  0  0  0  0
   28.6891   39.3308   78.1723 C   0  0  0  0  0  0  0  0  0  0  0  0
   28.0006   35.4555   73.3936 C   0  0  0  0  0  0  0  0  0  0  0  0
   29.0589   40.6151   78.6754 O   0  0  0  0  0  0  0  0  0  0  0  0
  1  8  1  0  0  0  0
  3  5  1  1  0  0  0
  3  9  1  0  0  0  0
  3 12  2  0  0  0  0
  3 22  1  0  0  0  0
  4  8  2  0  0  0  0
  4 19  1  0  0  0  0
  6 16  1  0  0  0  0
  6  7  1  0  0  0  0
  7 10  1  0  0  0  0
  8 11  1  0  0  0  0
 10 13  1  0  0  0  0
 10 21  1  0  0  0  0
 11 14  2  0  0  0  0
 13  2  1  6  0  0  0
 13 16  1  0  0  0  0
 14 15  1  0  0  0  0
 14 17  1  0  0  0  0
 16 18  1  6  0  0  0
 17 19  2  0  0  0  0
 17 21  1  0  0  0  0
 18 20  1  0  0  0  0
 20 22  1  0  0  0  0
M  CHG  1   9  -1
M  END
>  <CHROM.1>
84.46750116,35.11152702,-109.76249059,165.86002258,-162.35027941,31.90322030
27.74080328,37.40441144,75.81248685,2.46204200,0.98942834,-3.07282082

>  <Name>
ligand

>  <RI>
0

>  <Rbt.Current_Directory>
/home/itssahil/PROJECTS/Mol_Feturizer/New_Systems/rnas/2HOM

>  <Rbt.Executable>
rbdock ($Id: //depot/dev/client3/rdock/2013.1/src/exe/rbdock.cxx#4 $)

>  <Rbt.Library>
libRbt.so (2013.1, Build901 2013/11/27)

>  <Rbt.Parameter_File>
/export/apps/rDock/src/rDock_2013.1_src/data/scripts/dock_solv.prm

>  <Rbt.Receptor>
prm/blind_docking_100.prm

>  <SCORE>
-17.2334

>  <SCORE.INTER>
-19.6353

>  <SCORE.INTER.CONST>
1

>  <SCORE.INTER.POLAR>
-1.19353

>  <SCORE.INTER.ROT>
6

>  <SCORE.INTER.SOLV>
18.9548

>  <SCORE.INTER.VDW>
-23.03

>  <SCORE.INTER.norm>
-0.892511

>  <SCORE.INTRA>
2.32026

>  <SCORE.INTRA.DIHEDRAL>
3.19311

>  <SCORE.INTRA.DIHEDRAL.0>
5.05013

>  <SCORE.INTRA.POLAR>
0

>  <SCORE.INTRA.POLAR.0>
0

>  <SCORE.INTRA.REPUL>
0

>  <SCORE.INTRA.REPUL.0>
0

>  <SCORE.INTRA.SOLV>
-0.104243

>  <SCORE.INTRA.SOLV.lig_0>
-54.1265

>  <SCORE.INTRA.VDW>
0.775827

>  <SCORE.INTRA.VDW.0>
-2.1303

>  <SCORE.INTRA.norm>
0.105466

>  <SCORE.RESTR>
0.0816117

>  <SCORE.RESTR.CAVITY>
0.0816117

>  <SCORE.RESTR.norm>
0.00370962

>  <SCORE.SYSTEM>
0

>  <SCORE.SYSTEM.CONST>
0

>  <SCORE.SYSTEM.DIHEDRAL>
0

>  <SCORE.SYSTEM.SOLV>
0

>  <SCORE.SYSTEM.norm>
0

>  <SCORE.heavy>
22

>  <SCORE.norm>
-0.783335

>  <RMSD>
11.407

$$$$
ligand
 OpenBabel11021811443D
libRbt.so/2013.1/901 2013/11/27
 22 23  0  0  0  0  0  0  0  0999 V2000
   23.2633   34.1965   71.0953 C   0  0  0  0  0  0  0  0  0  0  0  0
   28.4395   39.2479   74.0934 C   0  0  0  0  0  0  0  0  0  0  0  0
   29.2717   41.0055   79.9839 P   0  0  1  0  0  0  0  0  0  0  0  0
   24.6123   36.0395   71.8072 N   0  0  0  0  0  0  0  0  0  0  0  0
   30.4498   40.1548   79.6764 O   0  0  0  0  0  0  0  0  0  0  0  0
   28.3527   36.5486   77.0789 S   0  0  0  0  0  0  0  0  0  0  0  0
   28.2520   35.8908   75.5363 C   0  0  0  0  0  0  0  0  0  0  0  0
   24.5373   34.6749   71.6301 C   0  0  0  0  0  0  0  0  0  0  0  0
   29.0173   41.1901   81.4359 O   0  5  0  0  0  0  0  0  0  0  0  0
   28.2805   36.7799   74.5205 N   0  0  0  0  0  0  0  0  0  0  0  0
   25.5073   33.8507   71.9230 N   0  0  0  0  0  0  0  0  0  0  0  0
   29.3443   42.2949   79.2249 O   0  0  0  0  0  0  0  0  0  0  0  0
   28.3910   38.0755   75.0286 C   0  0  2  0  0  0  0  0  0  0  0  0
   26.7071   34.3398   72.4292 C   0  0  0  0  0  0  0  0  0  0  0  0
   27.6764   33.4839   72.7391 N   0  0  0  0  0  0  0  0  0  0  0  0
   28.4388   38.1529   76.4004 C   0  0  1  0  0  0  0  0  0  0  0  0
   26.8715   35.7736   72.6032 C   0  0  0  0  0  0  0  0  0  0  0  0
   28.5361   39.3729   77.2438 C   0  0  0  0  0  0  0  0  0  0  0  0
   25.7705   36.5486   72.2984 C   0  0  0  0  0  0  0  0  0  0  0  0
   27.9324   39.1544   78.5803 C   0  0  0  0  0  0  0  0  0  0  0  0
   28.1973   36.3690   73.0371 C   0  0  0  0  0  0  0  0  0  0  0  0
   27.9793   40.2475   79.4980 O   0  0  0  0  0  0  0  0  0  0  0  0
  1  8  1  0  0  0  0
  3  5  1  6  0  0  0
  3  9  1  0  0  0  0
  3 12  2  0  0  0  0
  3 22  1  0  0  0  0
  4  8  2  0  0  0  0
  4 19  1  0  0  0  0
  6 16  1  0  0  0  0
  6  7  1  0  0  0  0
  7 10  1  0  0  0  0
  8 11  1  0  0  0  0
 10 13  1  0  0  0  0
 10 21  1  0  0  0  0
 11 14  2  0  0  0  0
 13  2  1  1  0  0  0
 13 16  1  0  0  0  0
 14 15  1  0  0  0  0
 14 17  1  0  0  0  0
 16 18  1  1  0  0  0
 17 19  2  0  0  0  0
 17 21  1  0  0  0  0
 18 20  1  0  0  0  0
 20 22  1  0  0  0  0
M  CHG  1   9  -1
M  END
>  <CHROM.1>
67.01652591,-26.66814982,-102.10568125,179.06167267,-56.50365628,-17.30616995
27.71898001,37.68850765,75.84004618,2.04755206,0.74027806,-2.56101134

>  <Name>
ligand

>  <RI>
0

>  <Rbt.Current_Directory>
/home/itssahil/PROJECTS/Mol_Feturizer/New_Systems/rnas/2HOM

>  <Rbt.Executable>
rbdock ($Id: //depot/dev/client3/rdock/2013.1/src/exe/rbdock.cxx#4 $)

>  <Rbt.Library>
libRbt.so (2013.1, Build901 2013/11/27)

>  <Rbt.Parameter_File>
/export/apps/rDock/src/rDock_2013.1_src/data/scripts/dock_solv.prm

>  <Rbt.Receptor>
prm/blind_docking_100.prm

>  <SCORE>
-18.7643

>  <SCORE.INTER>
-21.3023

>  <SCORE.INTER.CONST>
1

>  <SCORE.INTER.POLAR>
-1.29904

>  <SCORE.INTER.ROT>
6

>  <SCORE.INTER.SOLV>
14.3206

>  <SCORE.INTER.VDW>
-22.245

>  <SCORE.INTER.norm>
-0.968287

>  <SCORE.INTRA>
2.53806

>  <SCORE.INTRA.DIHEDRAL>
1.86094

>  <SCORE.INTRA.DIHEDRAL.0>
5.05013

>  <SCORE.INTRA.POLAR>
0

>  <SCORE.INTRA.POLAR.0>
0

>  <SCORE.INTRA.REPUL>
0

>  <SCORE.INTRA.REPUL.0>
0

>  <SCORE.INTRA.SOLV>
0.981703

>  <SCORE.INTRA.SOLV.lig_0>
-54.1265

>  <SCORE.INTRA.VDW>
1.11673

>  <SCORE.INTRA.VDW.0>
-2.1303

>  <SCORE.INTRA.norm>
0.115366

>  <SCORE.RESTR>
0

>  <SCORE.RESTR.CAVITY>
0

>  <SCORE.RESTR.norm>
0

>  <SCORE.SYSTEM>
0

>  <SCORE.SYSTEM.CONST>
0

>  <SCORE.SYSTEM.DIHEDRAL>
0

>  <SCORE.SYSTEM.SOLV>
0

>  <SCORE.SYSTEM.norm>
0

>  <SCORE.heavy>
22

>  <SCORE.norm>
-0.852921

>  <RMSD>
11.436

$$$$
ligand
 OpenBabel11021811443D
libRbt.so/2013.1/901 2013/11/27
 22 23  0  0  0  0  0  0  0  0999 V2000
   25.4970   37.7450   68.9796 C   0  0  0  0  0  0  0  0  0  0  0  0
   28.1973   36.5526   77.0480 C   0  0  0  0  0  0  0  0  0  0  0  0
   28.6305   42.1244   80.2865 P   0  0  1  0  0  0  0  0  0  0  0  0
   27.1917   38.2465   70.5920 N   0  0  0  0  0  0  0  0  0  0  0  0
   27.2331   41.6415   80.1427 O   0  0  0  0  0  0  0  0  0  0  0  0
   28.3957   40.3855   75.8327 S   0  0  0  0  0  0  0  0  0  0  0  0
   28.2913   39.2605   74.5892 C   0  0  0  0  0  0  0  0  0  0  0  0
   26.0916   37.4743   70.2877 C   0  0  0  0  0  0  0  0  0  0  0  0
   28.7928   43.5866   80.0793 O   0  5  0  0  0  0  0  0  0  0  0  0
   28.2227   37.9687   74.9761 N   0  0  0  0  0  0  0  0  0  0  0  0
   25.5907   36.5757   71.0926 N   0  0  0  0  0  0  0  0  0  0  0  0
   29.2232   41.6372   81.5730 O   0  0  0  0  0  0  0  0  0  0  0  0
   28.2573   37.8895   76.3695 C   0  0  2  0  0  0  0  0  0  0  0  0
   26.1822   36.3426   72.3298 C   0  0  0  0  0  0  0  0  0  0  0  0
   25.6470   35.4371   73.1434 N   0  0  0  0  0  0  0  0  0  0  0  0
   28.3555   39.1012   77.0119 C   0  0  1  0  0  0  0  0  0  0  0  0
   27.3713   37.0923   72.6999 C   0  0  0  0  0  0  0  0  0  0  0  0
   28.4319   39.3564   78.4741 C   0  0  0  0  0  0  0  0  0  0  0  0
   27.7927   38.0425   71.7916 C   0  0  0  0  0  0  0  0  0  0  0  0
   29.6523   40.1218   78.8251 C   0  0  0  0  0  0  0  0  0  0  0  0
   28.1246   36.7945   73.9823 C   0  0  0  0  0  0  0  0  0  0  0  0
   29.4846   41.5101   79.1143 O   0  0  0  0  0  0  0  0  0  0  0  0
  1  8  1  0  0  0  0
  3  5  1  6  0  0  0
  3  9  1  0  0  0  0
  3 12  2  0  0  0  0
  3 22  1  0  0  0  0
  4  8  2  0  0  0  0
  4 19  1  0  0  0  0
  6 16  1  0  0  0  0
  6  7  1  0  0  0  0
  7 10  1  0  0  0  0
  8 11  1  0  0  0  0
 10 13  1  0  0  0  0
 10 21  1  0  0  0  0
 11 14  2  0  0  0  0
 13  2  1  6  0  0  0
 13 16  1  0  0  0  0
 14 15  1  0  0  0  0
 14 17  1  0  0  0  0
 16 18  1  6  0  0  0
 17 19  2  0  0  0  0
 17 21  1  0  0  0  0
 18 20  1  0  0  0  0
 20 22  1  0  0  0  0
M  CHG  1   9  -1
M  END
>  <CHROM.1>
-32.43938757,-56.39721606,-120.06716366,103.60284550,61.90783561,-57.58729893
27.86272941,39.20873374,75.85887972,2.88091609,1.33107444,2.91835789

>  <Name>
ligand

>  <RI>
0

>  <Rbt.Current_Directory>
/home/itssahil/PROJECTS/Mol_Feturizer/New_Systems/rnas/2HOM

>  <Rbt.Executable>
rbdock ($Id: //depot/dev/client3/rdock/2013.1/src/exe/rbdock.cxx#4 $)

>  <Rbt.Library>
libRbt.so (2013.1, Build901 2013/11/27)

>  <Rbt.Parameter_File>
/export/apps/rDock/src/rDock_2013.1_src/data/scripts/dock_solv.prm

>  <Rbt.Receptor>
prm/blind_docking_100.prm

>  <SCORE>
-17.809

>  <SCORE.INTER>
-20.6168

>  <SCORE.INTER.CONST>
1

>  <SCORE.INTER.POLAR>
-1.29904

>  <SCORE.INTER.ROT>
6

>  <SCORE.INTER.SOLV>
8.45267

>  <SCORE.INTER.VDW>
-19.8319

>  <SCORE.INTER.norm>
-0.937125

>  <SCORE.INTRA>
2.8078

>  <SCORE.INTRA.DIHEDRAL>
4.70169

>  <SCORE.INTRA.DIHEDRAL.0>
5.05013

>  <SCORE.INTRA.POLAR>
0

>  <SCORE.INTRA.POLAR.0>
0

>  <SCORE.INTRA.REPUL>
0

>  <SCORE.INTRA.REPUL.0>
0

>  <SCORE.INTRA.SOLV>
0.527748

>  <SCORE.INTRA.SOLV.lig_0>
-54.1265

>  <SCORE.INTRA.VDW>
0.193084

>  <SCORE.INTRA.VDW.0>
-2.1303

>  <SCORE.INTRA.norm>
0.127627

>  <SCORE.RESTR>
0

>  <SCORE.RESTR.CAVITY>
0

>  <SCORE.RESTR.norm>
0

>  <SCORE.SYSTEM>
0

>  <SCORE.SYSTEM.CONST>
0

>  <SCORE.SYSTEM.DIHEDRAL>
0

>  <SCORE.SYSTEM.SOLV>
0

>  <SCORE.SYSTEM.norm>
0

>  <SCORE.heavy>
22

>  <SCORE.norm>
-0.809498

>  <RMSD>
11.458

$$$$
ligand
 OpenBabel11021811443D
libRbt.so/2013.1/901 2013/11/27
 22 23  0  0  0  0  0  0  0  0999 V2000
   23.5726   34.8092   72.1330 C   0  0  0  0  0  0  0  0  0  0  0  0
   28.0445   36.6277   76.1415 C   0  0  0  0  0  0  0  0  0  0  0  0
   29.3358   42.3081   80.0214 P   0  0  1  0  0  0  0  0  0  0  0  0
   24.8200   36.3960   73.4172 N   0  0  0  0  0  0  0  0  0  0  0  0
   29.7522   41.7227   81.3214 O   0  0  0  0  0  0  0  0  0  0  0  0
   28.4326   40.6335   76.0450 S   0  0  0  0  0  0  0  0  0  0  0  0
   28.4940   39.8871   74.5411 C   0  0  0  0  0  0  0  0  0  0  0  0
   24.8484   35.4746   72.3928 C   0  0  0  0  0  0  0  0  0  0  0  0
   28.3081   43.3748   80.1363 O   0  5  0  0  0  0  0  0  0  0  0  0
   28.3646   38.5431   74.5517 N   0  0  0  0  0  0  0  0  0  0  0  0
   25.9202   35.1889   71.7032 N   0  0  0  0  0  0  0  0  0  0  0  0
   30.5351   42.7219   79.2251 O   0  0  0  0  0  0  0  0  0  0  0  0
   28.2059   38.0933   75.8638 C   0  0  2  0  0  0  0  0  0  0  0  0
   27.1177   35.8420   71.9759 C   0  0  0  0  0  0  0  0  0  0  0  0
   28.2028   35.5244   71.2759 N   0  0  0  0  0  0  0  0  0  0  0  0
   28.2220   39.0840   76.8170 C   0  0  1  0  0  0  0  0  0  0  0  0
   27.1513   36.8566   73.0164 C   0  0  0  0  0  0  0  0  0  0  0  0
   28.0973   38.9360   78.2907 C   0  0  0  0  0  0  0  0  0  0  0  0
   25.9723   37.0515   73.7073 C   0  0  0  0  0  0  0  0  0  0  0  0
   29.0245   39.8464   79.0047 C   0  0  0  0  0  0  0  0  0  0  0  0
   28.3974   37.6823   73.2735 C   0  0  0  0  0  0  0  0  0  0  0  0
   28.5884   41.1924   79.1982 O   0  0  0  0  0  0  0  0  0  0  0  0
  1  8  1  0  0  0  0
  3  5  1  1  0  0  0
  3  9  1  0  0  0  0
  3 12  2  0  0  0  0
  3 22  1  0  0  0  0
  4  8  2  0  0  0  0
  4 19  1  0  0  0  0
  6 16  1  0  0  0  0
  6  7  1  0  0  0  0
  7 10  1  0  0  0  0
  8 11  1  0  0  0  0
 10 13  1  0  0  0  0
 10 21  1  0  0  0  0
 11 14  2  0  0  0  0
 13  2  1  1  0  0  0
 13 16  1  0  0  0  0
 14 15  1  0  0  0  0
 14 17  1  0  0  0  0
 16 18  1  1  0  0  0
 17 19  2  0  0  0  0
 17 21  1  0  0  0  0
 18 20  1  0  0  0  0
 20 22  1  0  0  0  0
M  CHG  1   9  -1
M  END
>  <CHROM.1>
-120.62087520,-39.78818485,-170.07575036,83.16894909,174.72334139,-46.82707158
27.87015687,38.95064312,76.03807273,1.95084434,-0.53799133,-2.06753497

>  <Name>
ligand

>  <RI>
0

>  <Rbt.Current_Directory>
/home/itssahil/PROJECTS/Mol_Feturizer/New_Systems/rnas/2HOM

>  <Rbt.Executable>
rbdock ($Id: //depot/dev/client3/rdock/2013.1/src/exe/rbdock.cxx#4 $)

>  <Rbt.Library>
libRbt.so (2013.1, Build901 2013/11/27)

>  <Rbt.Parameter_File>
/export/apps/rDock/src/rDock_2013.1_src/data/scripts/dock_solv.prm

>  <Rbt.Receptor>
prm/blind_docking_100.prm

>  <SCORE>
-16.7271

>  <SCORE.INTER>
-17.9911

>  <SCORE.INTER.CONST>
1

>  <SCORE.INTER.POLAR>
-1.03923

>  <SCORE.INTER.ROT>
6

>  <SCORE.INTER.SOLV>
9.17866

>  <SCORE.INTER.VDW>
-19.1895

>  <SCORE.INTER.norm>
-0.817775

>  <SCORE.INTRA>
1.26391

>  <SCORE.INTRA.DIHEDRAL>
2.10091

>  <SCORE.INTRA.DIHEDRAL.0>
5.05013

>  <SCORE.INTRA.POLAR>
0

>  <SCORE.INTRA.POLAR.0>
0

>  <SCORE.INTRA.REPUL>
0

>  <SCORE.INTRA.REPUL.0>
0

>  <SCORE.INTRA.SOLV>
-0.185225

>  <SCORE.INTRA.SOLV.lig_0>
-54.1265

>  <SCORE.INTRA.VDW>
0.30607

>  <SCORE.INTRA.VDW.0>
-2.1303

>  <SCORE.INTRA.norm>
0.0574507

>  <SCORE.RESTR>
0

>  <SCORE.RESTR.CAVITY>
0

>  <SCORE.RESTR.norm>
0

>  <SCORE.SYSTEM>
0

>  <SCORE.SYSTEM.CONST>
0

>  <SCORE.SYSTEM.DIHEDRAL>
0

>  <SCORE.SYSTEM.SOLV>
0

>  <SCORE.SYSTEM.norm>
0

>  <SCORE.heavy>
22

>  <SCORE.norm>
-0.760324

>  <RMSD>
11.538

$$$$
ligand
 OpenBabel11021811443D
libRbt.so/2013.1/901 2013/11/27
 22 23  0  0  0  0  0  0  0  0999 V2000
   25.4159   36.4961   69.7264 C   0  0  0  0  0  0  0  0  0  0  0  0
   24.8348   37.9234   77.0681 C   0  0  0  0  0  0  0  0  0  0  0  0
   28.9430   41.0760   79.9581 P   0  0  1  0  0  0  0  0  0  0  0  0
   25.8891   36.9804   72.0209 N   0  0  0  0  0  0  0  0  0  0  0  0
   27.7460   40.5362   80.6524 O   0  0  0  0  0  0  0  0  0  0  0  0
   28.3790   36.0209   77.2291 S   0  0  0  0  0  0  0  0  0  0  0  0
   27.2346   35.2882   76.2411 C   0  0  0  0  0  0  0  0  0  0  0  0
   25.1963   36.1813   71.1372 C   0  0  0  0  0  0  0  0  0  0  0  0
   28.6715   42.2711   79.1183 O   0  5  0  0  0  0  0  0  0  0  0  0
   26.0389   35.9117   76.1726 N   0  0  0  0  0  0  0  0  0  0  0  0
   24.3896   35.2223   71.5052 N   0  0  0  0  0  0  0  0  0  0  0  0
   30.0664   41.2747   80.9288 O   0  0  0  0  0  0  0  0  0  0  0  0
   26.0550   37.0554   76.9731 C   0  0  2  0  0  0  0  0  0  0  0  0
   24.2046   34.9486   72.8565 C   0  0  0  0  0  0  0  0  0  0  0  0
   23.3651   33.9807   73.2124 N   0  0  0  0  0  0  0  0  0  0  0  0
   27.2406   37.2791   77.6322 C   0  0  1  0  0  0  0  0  0  0  0  0
   24.9358   35.7253   73.8440 C   0  0  0  0  0  0  0  0  0  0  0  0
   27.5721   38.3875   78.5653 C   0  0  0  0  0  0  0  0  0  0  0  0
   25.7311   36.7381   73.3468 C   0  0  0  0  0  0  0  0  0  0  0  0
   28.5897   39.2958   77.9841 C   0  0  0  0  0  0  0  0  0  0  0  0
   24.8636   35.3913   75.3217 C   0  0  0  0  0  0  0  0  0  0  0  0
   29.4195   40.0095   78.9014 O   0  0  0  0  0  0  0  0  0  0  0  0
  1  8  1  0  0  0  0
  3  5  1  1  0  0  0
  3  9  1  0  0  0  0
  3 12  2  0  0  0  0
  3 22  1  0  0  0  0
  4  8  2  0  0  0  0
  4 19  1  0  0  0  0
  6 16  1  0  0  0  0
  6  7  1  0  0  0  0
  7 10  1  0  0  0  0
  8 11  1  0  0  0  0
 10 13  1  0  0  0  0
 10 21  1  0  0  0  0
 11 14  2  0  0  0  0
 13  2  1  1  0  0  0
 13 16  1  0  0  0  0
 14 15  1  0  0  0  0
 14 17  1  0  0  0  0
 16 18  1  1  0  0  0
 17 19  2  0  0  0  0
 17 21  1  0  0  0  0
 18 20  1  0  0  0  0
 20 22  1  0  0  0  0
M  CHG  1   9  -1
M  END
>  <CHROM.1>
-80.50506218,68.15729918,158.14184915,-153.12890529,-63.08522918,45.67990692
26.87450860,37.69423642,76.33184367,-2.85191750,1.12809024,2.22236588

>  <Name>
ligand

>  <RI>
0

>  <Rbt.Current_Directory>
/home/itssahil/PROJECTS/Mol_Feturizer/New_Systems/rnas/2HOM

>  <Rbt.Executable>
rbdock ($Id: //depot/dev/client3/rdock/2013.1/src/exe/rbdock.cxx#4 $)

>  <Rbt.Library>
libRbt.so (2013.1, Build901 2013/11/27)

>  <Rbt.Parameter_File>
/export/apps/rDock/src/rDock_2013.1_src/data/scripts/dock_solv.prm

>  <Rbt.Receptor>
prm/blind_docking_100.prm

>  <SCORE>
-19.5139

>  <SCORE.INTER>
-21.46

>  <SCORE.INTER.CONST>
1

>  <SCORE.INTER.POLAR>
-1.29904

>  <SCORE.INTER.ROT>
6

>  <SCORE.INTER.SOLV>
11.3707

>  <SCORE.INTER.VDW>
-21.3667

>  <SCORE.INTER.norm>
-0.975452

>  <SCORE.INTRA>
1.94603

>  <SCORE.INTRA.DIHEDRAL>
2.90865

>  <SCORE.INTRA.DIHEDRAL.0>
5.05013

>  <SCORE.INTRA.POLAR>
0

>  <SCORE.INTRA.POLAR.0>
0

>  <SCORE.INTRA.REPUL>
0

>  <SCORE.INTRA.REPUL.0>
0

>  <SCORE.INTRA.SOLV>
0.442846

>  <SCORE.INTRA.SOLV.lig_0>
-54.1265

>  <SCORE.INTRA.VDW>
0.270284

>  <SCORE.INTRA.VDW.0>
-2.1303

>  <SCORE.INTRA.norm>
0.0884559

>  <SCORE.RESTR>
0

>  <SCORE.RESTR.CAVITY>
0

>  <SCORE.RESTR.norm>
0

>  <SCORE.SYSTEM>
0

>  <SCORE.SYSTEM.CONST>
0

>  <SCORE.SYSTEM.DIHEDRAL>
0

>  <SCORE.SYSTEM.SOLV>
0

>  <SCORE.SYSTEM.norm>
0

>  <SCORE.heavy>
22

>  <SCORE.norm>
-0.886996

>  <RMSD>
11.546

$$$$
ligand
 OpenBabel11021811443D
libRbt.so/2013.1/901 2013/11/27
 22 23  0  0  0  0  0  0  0  0999 V2000
   23.6051   34.5268   70.9964 C   0  0  0  0  0  0  0  0  0  0  0  0
   26.8275   37.7005   78.4150 C   0  0  0  0  0  0  0  0  0  0  0  0
   30.4801   41.3041   80.0963 P   0  0  1  0  0  0  0  0  0  0  0  0
   24.9738   35.9677   72.3282 N   0  0  0  0  0  0  0  0  0  0  0  0
   31.0914   40.0301   79.6383 O   0  0  0  0  0  0  0  0  0  0  0  0
   27.9441   39.4903   74.9862 S   0  0  0  0  0  0  0  0  0  0  0  0
   26.6487   38.4312   74.8343 C   0  0  0  0  0  0  0  0  0  0  0  0
   23.9016   35.1021   72.3075 C   0  0  0  0  0  0  0  0  0  0  0  0
   29.6681   41.1783   81.3341 O   0  5  0  0  0  0  0  0  0  0  0  0
   26.2579   37.8212   75.9737 N   0  0  0  0  0  0  0  0  0  0  0  0
   23.1817   34.8134   73.3584 N   0  0  0  0  0  0  0  0  0  0  0  0
   31.5152   42.3841   80.1721 O   0  0  0  0  0  0  0  0  0  0  0  0
   27.0617   38.2412   77.0351 C   0  0  2  0  0  0  0  0  0  0  0  0
   23.4924   35.3777   74.5913 C   0  0  0  0  0  0  0  0  0  0  0  0
   22.7368   35.0865   75.6460 N   0  0  0  0  0  0  0  0  0  0  0  0
   28.0394   39.1452   76.6930 C   0  0  1  0  0  0  0  0  0  0  0  0
   24.6365   36.2684   74.6954 C   0  0  0  0  0  0  0  0  0  0  0  0
   29.0596   39.7660   77.5779 C   0  0  0  0  0  0  0  0  0  0  0  0
   25.3035   36.5343   73.5165 C   0  0  0  0  0  0  0  0  0  0  0  0
   28.4905   40.9003   78.3446 C   0  0  0  0  0  0  0  0  0  0  0  0
   25.0911   36.8157   76.0350 C   0  0  0  0  0  0  0  0  0  0  0  0
   29.4148   41.7498   79.0253 O   0  0  0  0  0  0  0  0  0  0  0  0
  1  8  1  0  0  0  0
  3  5  1  6  0  0  0
  3  9  1  0  0  0  0
  3 12  2  0  0  0  0
  3 22  1  0  0  0  0
  4  8  2  0  0  0  0
  4 19  1  0  0  0  0
  6 16  1  0  0  0  0
  6  7  1  0  0  0  0
  7 10  1  0  0  0  0
  8 11  1  0  0  0  0
 10 13  1  0  0  0  0
 10 21  1  0  0  0  0
 11 14  2  0  0  0  0
 13  2  1  6  0  0  0
 13 16  1  0  0  0  0
 14 15  1  0  0  0  0
 14 17  1  0  0  0  0
 16 18  1  6  0  0  0
 17 19  2  0  0  0  0
 17 21  1  0  0  0  0
 18 20  1  0  0  0  0
 20 22  1  0  0  0  0
M  CHG  1   9  -1
M  END
>  <CHROM.1>
15.48552261,100.13244350,-176.03706248,-167.81020994,-56.73951937,41.17620051
27.16328283,38.46103346,76.51847770,-2.45894297,0.71661381,1.52257667

>  <Name>
ligand

>  <RI>
0

>  <Rbt.Current_Directory>
/home/itssahil/PROJECTS/Mol_Feturizer/New_Systems/rnas/2HOM

>  <Rbt.Executable>
rbdock ($Id: //depot/dev/client3/rdock/2013.1/src/exe/rbdock.cxx#4 $)

>  <Rbt.Library>
libRbt.so (2013.1, Build901 2013/11/27)

>  <Rbt.Parameter_File>
/export/apps/rDock/src/rDock_2013.1_src/data/scripts/dock_solv.prm

>  <Rbt.Receptor>
prm/blind_docking_100.prm

>  <SCORE>
-18.9725

>  <SCORE.INTER>
-21.4532

>  <SCORE.INTER.CONST>
1

>  <SCORE.INTER.POLAR>
-1.29904

>  <SCORE.INTER.ROT>
6

>  <SCORE.INTER.SOLV>
15.2283

>  <SCORE.INTER.VDW>
-22.6481

>  <SCORE.INTER.norm>
-0.975144

>  <SCORE.INTRA>
2.48065

>  <SCORE.INTRA.DIHEDRAL>
0.823539

>  <SCORE.INTRA.DIHEDRAL.0>
5.05013

>  <SCORE.INTRA.POLAR>
0

>  <SCORE.INTRA.POLAR.0>
0

>  <SCORE.INTRA.REPUL>
0

>  <SCORE.INTRA.REPUL.0>
0

>  <SCORE.INTRA.SOLV>
0.481838

>  <SCORE.INTRA.SOLV.lig_0>
-54.1265

>  <SCORE.INTRA.VDW>
1.82797

>  <SCORE.INTRA.VDW.0>
-2.1303

>  <SCORE.INTRA.norm>
0.112757

>  <SCORE.RESTR>
0

>  <SCORE.RESTR.CAVITY>
0

>  <SCORE.RESTR.norm>
0

>  <SCORE.SYSTEM>
0

>  <SCORE.SYSTEM.CONST>
0

>  <SCORE.SYSTEM.DIHEDRAL>
0

>  <SCORE.SYSTEM.SOLV>
0

>  <SCORE.SYSTEM.norm>
0

>  <SCORE.heavy>
22

>  <SCORE.norm>
-0.862387

>  <RMSD>
11.546

$$$$
ligand
 OpenBabel11021811443D
libRbt.so/2013.1/901 2013/11/27
 22 23  0  0  0  0  0  0  0  0999 V2000
   25.4368   36.3929   69.7115 C   0  0  0  0  0  0  0  0  0  0  0  0
   24.7804   37.9853   77.0388 C   0  0  0  0  0  0  0  0  0  0  0  0
   28.9974   41.1837   80.1325 P   0  0  1  0  0  0  0  0  0  0  0  0
   25.9674   36.9280   71.9821 N   0  0  0  0  0  0  0  0  0  0  0  0
   30.2331   40.5482   80.6574 O   0  0  0  0  0  0  0  0  0  0  0  0
   28.4705   36.3845   77.2057 S   0  0  0  0  0  0  0  0  0  0  0  0
   27.3831   35.5399   76.2429 C   0  0  0  0  0  0  0  0  0  0  0  0
   25.2472   36.1143   71.1343 C   0  0  0  0  0  0  0  0  0  0  0  0
   27.7435   40.6700   80.7418 O   0  5  0  0  0  0  0  0  0  0  0  0
   26.1396   36.0613   76.1729 N   0  0  0  0  0  0  0  0  0  0  0  0
   24.4410   35.1719   71.5440 N   0  0  0  0  0  0  0  0  0  0  0  0
   29.1142   42.6762   80.1825 O   0  0  0  0  0  0  0  0  0  0  0  0
   26.0672   37.2188   76.9501 C   0  0  2  0  0  0  0  0  0  0  0  0
   24.2850   34.9327   72.9054 C   0  0  0  0  0  0  0  0  0  0  0  0
   23.4456   33.9815   73.3040 N   0  0  0  0  0  0  0  0  0  0  0  0
   27.2352   37.5529   77.5938 C   0  0  1  0  0  0  0  0  0  0  0  0
   25.0457   35.7261   73.8566 C   0  0  0  0  0  0  0  0  0  0  0  0
   27.4811   38.7039   78.5014 C   0  0  0  0  0  0  0  0  0  0  0  0
   25.8380   36.7192   73.3168 C   0  0  0  0  0  0  0  0  0  0  0  0
   28.7010   39.4496   78.1088 C   0  0  0  0  0  0  0  0  0  0  0  0
   25.0049   35.4285   75.3433 C   0  0  0  0  0  0  0  0  0  0  0  0
   28.8411   40.7759   78.6192 O   0  0  0  0  0  0  0  0  0  0  0  0
  1  8  1  0  0  0  0
  3  5  1  1  0  0  0
  3  9  1  0  0  0  0
  3 12  2  0  0  0  0
  3 22  1  0  0  0  0
  4  8  2  0  0  0  0
  4 19  1  0  0  0  0
  6 16  1  0  0  0  0
  6  7  1  0  0  0  0
  7 10  1  0  0  0  0
  8 11  1  0  0  0  0
 10 13  1  0  0  0  0
 10 21  1  0  0  0  0
 11 14  2  0  0  0  0
 13  2  1  1  0  0  0
 13 16  1  0  0  0  0
 14 15  1  0  0  0  0
 14 17  1  0  0  0  0
 16 18  1  1  0  0  0
 17 19  2  0  0  0  0
 17 21  1  0  0  0  0
 18 20  1  0  0  0  0
 20 22  1  0  0  0  0
M  CHG  1   9  -1
M  END
>  <CHROM.1>
-79.96293992,50.42709718,163.20315577,161.81814217,64.26006796,60.69910148
26.92528904,37.80765204,76.37799643,-2.70226613,1.11355041,2.05112104

>  <Name>
ligand

>  <RI>
0

>  <Rbt.Current_Directory>
/home/itssahil/PROJECTS/Mol_Feturizer/New_Systems/rnas/2HOM

>  <Rbt.Executable>
rbdock ($Id: //depot/dev/client3/rdock/2013.1/src/exe/rbdock.cxx#4 $)

>  <Rbt.Library>
libRbt.so (2013.1, Build901 2013/11/27)

>  <Rbt.Parameter_File>
/export/apps/rDock/src/rDock_2013.1_src/data/scripts/dock_solv.prm

>  <Rbt.Receptor>
prm/blind_docking_100.prm

>  <SCORE>
-18.4868

>  <SCORE.INTER>
-20.2066

>  <SCORE.INTER.CONST>
1

>  <SCORE.INTER.POLAR>
-1.03923

>  <SCORE.INTER.ROT>
6

>  <SCORE.INTER.SOLV>
8.81255

>  <SCORE.INTER.VDW>
-20.5445

>  <SCORE.INTER.norm>
-0.918484

>  <SCORE.INTRA>
1.71985

>  <SCORE.INTRA.DIHEDRAL>
1.39335

>  <SCORE.INTRA.DIHEDRAL.0>
5.05013

>  <SCORE.INTRA.POLAR>
0

>  <SCORE.INTRA.POLAR.0>
0

>  <SCORE.INTRA.REPUL>
0

>  <SCORE.INTRA.REPUL.0>
0

>  <SCORE.INTRA.SOLV>
1.01661

>  <SCORE.INTRA.SOLV.lig_0>
-54.1265

>  <SCORE.INTRA.VDW>
0.514869

>  <SCORE.INTRA.VDW.0>
-2.1303

>  <SCORE.INTRA.norm>
0.0781749

>  <SCORE.RESTR>
0

>  <SCORE.RESTR.CAVITY>
0

>  <SCORE.RESTR.norm>
0

>  <SCORE.SYSTEM>
0

>  <SCORE.SYSTEM.CONST>
0

>  <SCORE.SYSTEM.DIHEDRAL>
0

>  <SCORE.SYSTEM.SOLV>
0

>  <SCORE.SYSTEM.norm>
0

>  <SCORE.heavy>
22

>  <SCORE.norm>
-0.840309

>  <RMSD>
11.602

$$$$
ligand
 OpenBabel11021811443D
libRbt.so/2013.1/901 2013/11/27
 22 23  0  0  0  0  0  0  0  0999 V2000
   37.0425   41.6358   63.0816 C   0  0  0  0  0  0  0  0  0  0  0  0
   30.3518   37.7164   62.1347 C   0  0  0  0  0  0  0  0  0  0  0  0
   29.7661   39.2064   67.2792 P   0  0  1  0  0  0  0  0  0  0  0  0
   34.8916   40.9303   62.3077 N   0  0  0  0  0  0  0  0  0  0  0  0
   30.8546   39.3135   68.2841 O   0  0  0  0  0  0  0  0  0  0  0  0
   32.3527   35.5385   64.8660 S   0  0  0  0  0  0  0  0  0  0  0  0
   33.3062   36.1603   63.6304 C   0  0  0  0  0  0  0  0  0  0  0  0
   36.1697   40.5450   62.6501 C   0  0  0  0  0  0  0  0  0  0  0  0
   28.4098   39.0530   67.8660 O   0  5  0  0  0  0  0  0  0  0  0  0
   32.6540   36.8950   62.7042 N   0  0  0  0  0  0  0  0  0  0  0  0
   36.5971   39.3123   62.5883 N   0  0  0  0  0  0  0  0  0  0  0  0
   29.8602   40.3221   66.2842 O   0  0  0  0  0  0  0  0  0  0  0  0
   31.2952   36.9556   63.0193 C   0  0  2  0  0  0  0  0  0  0  0  0
   35.7395   38.2983   62.1744 C   0  0  0  0  0  0  0  0  0  0  0  0
   36.1979   37.0523   62.1000 N   0  0  0  0  0  0  0  0  0  0  0  0
   30.9383   36.2732   64.1582 C   0  0  1  0  0  0  0  0  0  0  0  0
   34.3641   38.6263   61.8372 C   0  0  0  0  0  0  0  0  0  0  0  0
   29.5823   36.1289   64.7496 C   0  0  0  0  0  0  0  0  0  0  0  0
   34.0298   39.9641   61.9008 C   0  0  0  0  0  0  0  0  0  0  0  0
   29.1479   37.3807   65.4150 C   0  0  0  0  0  0  0  0  0  0  0  0
   33.3560   37.5456   61.4960 C   0  0  0  0  0  0  0  0  0  0  0  0
   29.9583   37.8568   66.4901 O   0  0  0  0  0  0  0  0  0  0  0  0
  1  8  1  0  0  0  0
  3  5  1  1  0  0  0
  3  9  1  0  0  0  0
  3 12  2  0  0  0  0
  3 22  1  0  0  0  0
  4  8  2  0  0  0  0
  4 19  1  0  0  0  0
  6 16  1  0  0  0  0
  6  7  1  0  0  0  0
  7 10  1  0  0  0  0
  8 11  1  0  0  0  0
 10 13  1  0  0  0  0
 10 21  1  0  0  0  0
 11 14  2  0  0  0  0
 13  2  1  6  0  0  0
 13 16  1  0  0  0  0
 14 15  1  0  0  0  0
 14 17  1  0  0  0  0
 16 18  1  6  0  0  0
 17 19  2  0  0  0  0
 17 21  1  0  0  0  0
 18 20  1  0  0  0  0
 20 22  1  0  0  0  0
M  CHG  1   9  -1
M  END
>  <CHROM.1>
-64.86263914,105.93085856,84.91882792,-59.98044188,175.28888159,-178.42931038
32.32618485,38.23822332,64.28772639,-0.21025333,0.61834689,0.55214927

>  <Name>
ligand

>  <RI>
0

>  <Rbt.Current_Directory>
/home/itssahil/PROJECTS/Mol_Feturizer/New_Systems/rnas/2HOM

>  <Rbt.Executable>
rbdock ($Id: //depot/dev/client3/rdock/2013.1/src/exe/rbdock.cxx#4 $)

>  <Rbt.Library>
libRbt.so (2013.1, Build901 2013/11/27)

>  <Rbt.Parameter_File>
/export/apps/rDock/src/rDock_2013.1_src/data/scripts/dock_solv.prm

>  <Rbt.Receptor>
prm/pocket_docking_8.prm

>  <SCORE>
-19.9565

>  <SCORE.INTER>
-20.0837

>  <SCORE.INTER.CONST>
1

>  <SCORE.INTER.POLAR>
-1.7273

>  <SCORE.INTER.ROT>
6

>  <SCORE.INTER.SOLV>
11.2786

>  <SCORE.INTER.VDW>
-18.991

>  <SCORE.INTER.norm>
-0.912894

>  <SCORE.INTRA>
0.127147

>  <SCORE.INTRA.DIHEDRAL>
-0.39302

>  <SCORE.INTRA.DIHEDRAL.0>
5.05013

>  <SCORE.INTRA.POLAR>
0

>  <SCORE.INTRA.POLAR.0>
0

>  <SCORE.INTRA.REPUL>
0

>  <SCORE.INTRA.REPUL.0>
0

>  <SCORE.INTRA.SOLV>
1.38245

>  <SCORE.INTRA.SOLV.lig_0>
-54.1265

>  <SCORE.INTRA.VDW>
-0.367567

>  <SCORE.INTRA.VDW.0>
-2.1303

>  <SCORE.INTRA.norm>
0.00577942

>  <SCORE.RESTR>
0

>  <SCORE.RESTR.CAVITY>
0

>  <SCORE.RESTR.norm>
0

>  <SCORE.SYSTEM>
0

>  <SCORE.SYSTEM.CONST>
0

>  <SCORE.SYSTEM.DIHEDRAL>
0

>  <SCORE.SYSTEM.SOLV>
0

>  <SCORE.SYSTEM.norm>
0

>  <SCORE.heavy>
22

>  <SCORE.norm>
-0.907114

>  <RMSD>
11.651

$$$$
ligand
 OpenBabel11021811443D
libRbt.so/2013.1/901 2013/11/27
 22 23  0  0  0  0  0  0  0  0999 V2000
   25.3229   36.1729   69.9211 C   0  0  0  0  0  0  0  0  0  0  0  0
   26.9570   37.6422   78.4178 C   0  0  0  0  0  0  0  0  0  0  0  0
   30.1674   42.3647   80.5735 P   0  0  1  0  0  0  0  0  0  0  0  0
   26.5432   37.0846   71.7659 N   0  0  0  0  0  0  0  0  0  0  0  0
   31.0465   41.3055   80.0153 O   0  0  0  0  0  0  0  0  0  0  0  0
   28.4718   40.2081   75.7107 S   0  0  0  0  0  0  0  0  0  0  0  0
   27.5432   38.9690   75.0588 C   0  0  0  0  0  0  0  0  0  0  0  0
   25.4480   36.3491   71.3672 C   0  0  0  0  0  0  0  0  0  0  0  0
   29.7057   42.1029   81.9611 O   0  5  0  0  0  0  0  0  0  0  0  0
   27.0249   38.0978   75.9507 N   0  0  0  0  0  0  0  0  0  0  0  0
   24.5685   35.8507   72.1943 N   0  0  0  0  0  0  0  0  0  0  0  0
   30.7975   43.7127   80.4014 O   0  0  0  0  0  0  0  0  0  0  0  0
   27.4068   38.4608   77.2436 C   0  0  2  0  0  0  0  0  0  0  0  0
   24.7187   36.0361   73.5647 C   0  0  0  0  0  0  0  0  0  0  0  0
   23.8032   35.5373   74.3901 N   0  0  0  0  0  0  0  0  0  0  0  0
   28.2011   39.5807   77.3153 C   0  0  1  0  0  0  0  0  0  0  0  0
   25.8736   36.7673   74.0591 C   0  0  0  0  0  0  0  0  0  0  0  0
   28.7847   40.2107   78.5284 C   0  0  0  0  0  0  0  0  0  0  0  0
   26.7188   37.2825   73.0970 C   0  0  0  0  0  0  0  0  0  0  0  0
   28.5750   41.6785   78.5281 C   0  0  0  0  0  0  0  0  0  0  0  0
   26.1494   36.8958   75.5451 C   0  0  0  0  0  0  0  0  0  0  0  0
   28.8223   42.3677   79.7541 O   0  0  0  0  0  0  0  0  0  0  0  0
  1  8  1  0  0  0  0
  3  5  1  6  0  0  0
  3  9  1  0  0  0  0
  3 12  2  0  0  0  0
  3 22  1  0  0  0  0
  4  8  2  0  0  0  0
  4 19  1  0  0  0  0
  6 16  1  0  0  0  0
  6  7  1  0  0  0  0
  7 10  1  0  0  0  0
  8 11  1  0  0  0  0
 10 13  1  0  0  0  0
 10 21  1  0  0  0  0
 11 14  2  0  0  0  0
 13  2  1  6  0  0  0
 13 16  1  0  0  0  0
 14 15  1  0  0  0  0
 14 17  1  0  0  0  0
 16 18  1  6  0  0  0
 17 19  2  0  0  0  0
 17 21  1  0  0  0  0
 18 20  1  0  0  0  0
 20 22  1  0  0  0  0
M  CHG  1   9  -1
M  END
>  <CHROM.1>
-1.39977529,47.56544728,-157.00699489,166.80460138,56.90143515,-11.61729952
27.67959858,39.21826045,76.50841840,-2.29086647,0.86968751,1.51933857

>  <Name>
ligand

>  <RI>
0

>  <Rbt.Current_Directory>
/home/itssahil/PROJECTS/Mol_Feturizer/New_Systems/rnas/2HOM

>  <Rbt.Executable>
rbdock ($Id: //depot/dev/client3/rdock/2013.1/src/exe/rbdock.cxx#4 $)

>  <Rbt.Library>
libRbt.so (2013.1, Build901 2013/11/27)

>  <Rbt.Parameter_File>
/export/apps/rDock/src/rDock_2013.1_src/data/scripts/dock_solv.prm

>  <Rbt.Receptor>
prm/blind_docking_100.prm

>  <SCORE>
-15.9183

>  <SCORE.INTER>
-19.6327

>  <SCORE.INTER.CONST>
1

>  <SCORE.INTER.POLAR>
-1.29904

>  <SCORE.INTER.ROT>
6

>  <SCORE.INTER.SOLV>
12.4599

>  <SCORE.INTER.VDW>
-20.5117

>  <SCORE.INTER.norm>
-0.892397

>  <SCORE.INTRA>
3.71441

>  <SCORE.INTRA.DIHEDRAL>
2.75729

>  <SCORE.INTRA.DIHEDRAL.0>
5.05013

>  <SCORE.INTRA.POLAR>
0

>  <SCORE.INTRA.POLAR.0>
0

>  <SCORE.INTRA.REPUL>
0

>  <SCORE.INTRA.REPUL.0>
0

>  <SCORE.INTRA.SOLV>
0.41821

>  <SCORE.INTRA.SOLV.lig_0>
-54.1265

>  <SCORE.INTRA.VDW>
2.12666

>  <SCORE.INTRA.VDW.0>
-2.1303

>  <SCORE.INTRA.norm>
0.168837

>  <SCORE.RESTR>
0

>  <SCORE.RESTR.CAVITY>
0

>  <SCORE.RESTR.norm>
0

>  <SCORE.SYSTEM>
0

>  <SCORE.SYSTEM.CONST>
0

>  <SCORE.SYSTEM.DIHEDRAL>
0

>  <SCORE.SYSTEM.SOLV>
0

>  <SCORE.SYSTEM.norm>
0

>  <SCORE.heavy>
22

>  <SCORE.norm>
-0.72356

>  <RMSD>
11.743

$$$$
ligand
 OpenBabel11021811443D
libRbt.so/2013.1/901 2013/11/27
 22 23  0  0  0  0  0  0  0  0999 V2000
   24.9425   35.7265   70.9344 C   0  0  0  0  0  0  0  0  0  0  0  0
   29.2424   41.4378   75.7452 C   0  0  0  0  0  0  0  0  0  0  0  0
   30.7680   42.3403   80.8502 P   0  0  1  0  0  0  0  0  0  0  0  0
   25.7624   36.7048   72.9578 N   0  0  0  0  0  0  0  0  0  0  0  0
   31.9384   42.7252   80.0205 O   0  0  0  0  0  0  0  0  0  0  0  0
   28.1269   38.0527   77.6168 S   0  0  0  0  0  0  0  0  0  0  0  0
   28.1026   37.9665   75.9391 C   0  0  0  0  0  0  0  0  0  0  0  0
   25.9126   36.6009   71.5918 C   0  0  0  0  0  0  0  0  0  0  0  0
   31.0041   42.4317   82.3142 O   0  5  0  0  0  0  0  0  0  0  0  0
   28.4746   39.0917   75.2922 N   0  0  0  0  0  0  0  0  0  0  0  0
   26.8482   37.2126   70.9161 N   0  0  0  0  0  0  0  0  0  0  0  0
   29.5423   43.0738   80.3992 O   0  0  0  0  0  0  0  0  0  0  0  0
   28.7991   40.0847   76.2184 C   0  0  2  0  0  0  0  0  0  0  0  0
   27.7544   38.0384   71.5731 C   0  0  0  0  0  0  0  0  0  0  0  0
   28.7114   38.6380   70.8711 N   0  0  0  0  0  0  0  0  0  0  0  0
   28.6665   39.7090   77.5342 C   0  0  1  0  0  0  0  0  0  0  0  0
   27.6299   38.2272   73.0091 C   0  0  0  0  0  0  0  0  0  0  0  0
   28.9135   40.5303   78.7482 C   0  0  0  0  0  0  0  0  0  0  0  0
   26.6303   37.5041   73.6283 C   0  0  0  0  0  0  0  0  0  0  0  0
   30.1933   40.1600   79.3988 C   0  0  0  0  0  0  0  0  0  0  0  0
   28.5141   39.2076   73.7557 C   0  0  0  0  0  0  0  0  0  0  0  0
   30.4997   40.8030   80.6365 O   0  0  0  0  0  0  0  0  0  0  0  0
  1  8  1  0  0  0  0
  3  5  1  6  0  0  0
  3  9  1  0  0  0  0
  3 12  2  0  0  0  0
  3 22  1  0  0  0  0
  4  8  2  0  0  0  0
  4 19  1  0  0  0  0
  6 16  1  0  0  0  0
  6  7  1  0  0  0  0
  7 10  1  0  0  0  0
  8 11  1  0  0  0  0
 10 13  1  0  0  0  0
 10 21  1  0  0  0  0
 11 14  2  0  0  0  0
 13  2  1  6  0  0  0
 13 16  1  0  0  0  0
 14 15  1  0  0  0  0
 14 17  1  0  0  0  0
 16 18  1  6  0  0  0
 17 19  2  0  0  0  0
 17 21  1  0  0  0  0
 18 20  1  0  0  0  0
 20 22  1  0  0  0  0
M  CHG  1   9  -1
M  END
>  <CHROM.1>
22.87023100,76.26664233,-167.85991380,-175.23695710,-64.73493397,-59.93235588
28.67231334,39.56076305,76.41544603,2.22144171,-0.92414881,-1.52639957

>  <Name>
ligand

>  <RI>
0

>  <Rbt.Current_Directory>
/home/itssahil/PROJECTS/Mol_Feturizer/New_Systems/rnas/2HOM

>  <Rbt.Executable>
rbdock ($Id: //depot/dev/client3/rdock/2013.1/src/exe/rbdock.cxx#4 $)

>  <Rbt.Library>
libRbt.so (2013.1, Build901 2013/11/27)

>  <Rbt.Parameter_File>
/export/apps/rDock/src/rDock_2013.1_src/data/scripts/dock_solv.prm

>  <Rbt.Receptor>
prm/blind_docking_100.prm

>  <SCORE>
-21.9302

>  <SCORE.INTER>
-23.5709

>  <SCORE.INTER.CONST>
1

>  <SCORE.INTER.POLAR>
-1.79567

>  <SCORE.INTER.ROT>
6

>  <SCORE.INTER.SOLV>
11.9023

>  <SCORE.INTER.VDW>
-21.2958

>  <SCORE.INTER.norm>
-1.07141

>  <SCORE.INTRA>
1.42652

>  <SCORE.INTRA.DIHEDRAL>
0.155908

>  <SCORE.INTRA.DIHEDRAL.0>
5.05013

>  <SCORE.INTRA.POLAR>
0

>  <SCORE.INTRA.POLAR.0>
0

>  <SCORE.INTRA.REPUL>
0

>  <SCORE.INTRA.REPUL.0>
0

>  <SCORE.INTRA.SOLV>
0.996121

>  <SCORE.INTRA.SOLV.lig_0>
-54.1265

>  <SCORE.INTRA.VDW>
0.850501

>  <SCORE.INTRA.VDW.0>
-2.1303

>  <SCORE.INTRA.norm>
0.0648416

>  <SCORE.RESTR>
0.214152

>  <SCORE.RESTR.CAVITY>
0.214152

>  <SCORE.RESTR.norm>
0.00973418

>  <SCORE.SYSTEM>
0

>  <SCORE.SYSTEM.CONST>
0

>  <SCORE.SYSTEM.DIHEDRAL>
0

>  <SCORE.SYSTEM.SOLV>
0

>  <SCORE.SYSTEM.norm>
0

>  <SCORE.heavy>
22

>  <SCORE.norm>
-0.99683

>  <RMSD>
11.775

$$$$
ligand
 OpenBabel11021811443D
libRbt.so/2013.1/901 2013/11/27
 22 23  0  0  0  0  0  0  0  0999 V2000
   36.8917   41.6752   63.0378 C   0  0  0  0  0  0  0  0  0  0  0  0
   30.5636   37.9824   62.1188 C   0  0  0  0  0  0  0  0  0  0  0  0
   27.9332   36.6235   68.4202 P   0  0  1  0  0  0  0  0  0  0  0  0
   34.7887   40.7871   62.3223 N   0  0  0  0  0  0  0  0  0  0  0  0
   26.5986   37.2106   68.7039 O   0  0  0  0  0  0  0  0  0  0  0  0
   32.0540   35.5468   64.9566 S   0  0  0  0  0  0  0  0  0  0  0  0
   33.1450   35.9668   63.7499 C   0  0  0  0  0  0  0  0  0  0  0  0
   36.1002   40.5109   62.6431 C   0  0  0  0  0  0  0  0  0  0  0  0
   29.0687   37.3859   69.0005 O   0  5  0  0  0  0  0  0  0  0  0  0
   32.6647   36.7843   62.7887 N   0  0  0  0  0  0  0  0  0  0  0  0
   36.6234   39.3151   62.5921 N   0  0  0  0  0  0  0  0  0  0  0  0
   27.9515   35.1684   68.7752 O   0  0  0  0  0  0  0  0  0  0  0  0
   31.3272   37.0875   63.0501 C   0  0  2  0  0  0  0  0  0  0  0  0
   35.8413   38.2289   62.2135 C   0  0  0  0  0  0  0  0  0  0  0  0
   36.3961   37.0222   62.1494 N   0  0  0  0  0  0  0  0  0  0  0  0
   30.8161   36.5020   64.1842 C   0  0  1  0  0  0  0  0  0  0  0  0
   34.4375   38.4404   61.9008 C   0  0  0  0  0  0  0  0  0  0  0  0
   29.4357   36.6088   64.7247 C   0  0  0  0  0  0  0  0  0  0  0  0
   33.9988   39.7483   61.9499 C   0  0  0  0  0  0  0  0  0  0  0  0
   29.4161   36.4208   66.1953 C   0  0  0  0  0  0  0  0  0  0  0  0
   33.5123   37.2770   61.5992 C   0  0  0  0  0  0  0  0  0  0  0  0
   28.1972   36.7316   66.8712 O   0  0  0  0  0  0  0  0  0  0  0  0
  1  8  1  0  0  0  0
  3  5  1  1  0  0  0
  3  9  1  0  0  0  0
  3 12  2  0  0  0  0
  3 22  1  0  0  0  0
  4  8  2  0  0  0  0
  4 19  1  0  0  0  0
  6 16  1  0  0  0  0
  6  7  1  0  0  0  0
  7 10  1  0  0  0  0
  8 11  1  0  0  0  0
 10 13  1  0  0  0  0
 10 21  1  0  0  0  0
 11 14  2  0  0  0  0
 13  2  1  6  0  0  0
 13 16  1  0  0  0  0
 14 15  1  0  0  0  0
 14 17  1  0  0  0  0
 16 18  1  6  0  0  0
 17 19  2  0  0  0  0
 17 21  1  0  0  0  0
 18 20  1  0  0  0  0
 20 22  1  0  0  0  0
M  CHG  1   9  -1
M  END
>  <CHROM.1>
-80.26911449,27.77030857,97.16197352,169.21084616,-179.57201124,172.70521744
31.80135853,37.48834509,64.65967959,-0.13594037,0.69836001,0.65737058

>  <Name>
ligand

>  <RI>
0

>  <Rbt.Current_Directory>
/home/itssahil/PROJECTS/Mol_Feturizer/New_Systems/rnas/2HOM

>  <Rbt.Executable>
rbdock ($Id: //depot/dev/client3/rdock/2013.1/src/exe/rbdock.cxx#4 $)

>  <Rbt.Library>
libRbt.so (2013.1, Build901 2013/11/27)

>  <Rbt.Parameter_File>
/export/apps/rDock/src/rDock_2013.1_src/data/scripts/dock_solv.prm

>  <Rbt.Receptor>
prm/pocket_docking_8.prm

>  <SCORE>
-17.901

>  <SCORE.INTER>
-19.4714

>  <SCORE.INTER.CONST>
1

>  <SCORE.INTER.POLAR>
-1.63459

>  <SCORE.INTER.ROT>
6

>  <SCORE.INTER.SOLV>
13.5282

>  <SCORE.INTER.VDW>
-19.6418

>  <SCORE.INTER.norm>
-0.885066

>  <SCORE.INTRA>
1.54702

>  <SCORE.INTRA.DIHEDRAL>
0.170785

>  <SCORE.INTRA.DIHEDRAL.0>
5.05013

>  <SCORE.INTRA.POLAR>
0

>  <SCORE.INTRA.POLAR.0>
0

>  <SCORE.INTRA.REPUL>
0

>  <SCORE.INTRA.REPUL.0>
0

>  <SCORE.INTRA.SOLV>
0.949479

>  <SCORE.INTRA.SOLV.lig_0>
-54.1265

>  <SCORE.INTRA.VDW>
0.986884

>  <SCORE.INTRA.VDW.0>
-2.1303

>  <SCORE.INTRA.norm>
0.0703189

>  <SCORE.RESTR>
0.0233889

>  <SCORE.RESTR.CAVITY>
0.0233889

>  <SCORE.RESTR.norm>
0.00106313

>  <SCORE.SYSTEM>
0

>  <SCORE.SYSTEM.CONST>
0

>  <SCORE.SYSTEM.DIHEDRAL>
0

>  <SCORE.SYSTEM.SOLV>
0

>  <SCORE.SYSTEM.norm>
0

>  <SCORE.heavy>
22

>  <SCORE.norm>
-0.813684

>  <RMSD>
11.781

$$$$
ligand
 OpenBabel11021811443D
libRbt.so/2013.1/901 2013/11/27
 22 23  0  0  0  0  0  0  0  0999 V2000
   28.6080   41.7409   78.5320 C   0  0  0  0  0  0  0  0  0  0  0  0
   26.2961   36.8937   73.2457 C   0  0  0  0  0  0  0  0  0  0  0  0
   24.9294   34.4063   70.7546 P   0  0  1  0  0  0  0  0  0  0  0  0
   28.4653   39.3680   78.2631 N   0  0  0  0  0  0  0  0  0  0  0  0
   24.4702   35.7723   71.1146 O   0  0  0  0  0  0  0  0  0  0  0  0
   25.8282   34.2789   76.2707 S   0  0  0  0  0  0  0  0  0  0  0  0
   27.2229   35.2114   76.3598 C   0  0  0  0  0  0  0  0  0  0  0  0
   28.5773   40.5884   77.6327 C   0  0  0  0  0  0  0  0  0  0  0  0
   23.8936   33.5713   70.0933 O   0  5  0  0  0  0  0  0  0  0  0  0
   27.3980   36.0958   75.3547 N   0  0  0  0  0  0  0  0  0  0  0  0
   28.6377   40.7325   76.3359 N   0  0  0  0  0  0  0  0  0  0  0  0
   26.2168   34.4705   69.9917 O   0  0  0  0  0  0  0  0  0  0  0  0
   26.3321   36.0093   74.4572 C   0  0  2  0  0  0  0  0  0  0  0  0
   28.6071   39.6141   75.5093 C   0  0  0  0  0  0  0  0  0  0  0  0
   28.6508   39.7817   74.1908 N   0  0  0  0  0  0  0  0  0  0  0  0
   25.3802   35.0726   74.7838 C   0  0  1  0  0  0  0  0  0  0  0  0
   28.5315   38.2916   76.1078 C   0  0  0  0  0  0  0  0  0  0  0  0
   24.1448   34.7256   74.0337 C   0  0  0  0  0  0  0  0  0  0  0  0
   28.4340   38.2569   77.4843 C   0  0  0  0  0  0  0  0  0  0  0  0
   24.3377   33.5074   73.2107 C   0  0  0  0  0  0  0  0  0  0  0  0
   28.6158   37.0362   75.2609 C   0  0  0  0  0  0  0  0  0  0  0  0
   25.2131   33.6171   72.0878 O   0  0  0  0  0  0  0  0  0  0  0  0
  1  8  1  0  0  0  0
  3  5  1  1  0  0  0
  3  9  1  0  0  0  0
  3 12  2  0  0  0  0
  3 22  1  0  0  0  0
  4  8  2  0  0  0  0
  4 19  1  0  0  0  0
  6 16  1  0  0  0  0
  6  7  1  0  0  0  0
  7 10  1  0  0  0  0
  8 11  1  0  0  0  0
 10 13  1  0  0  0  0
 10 21  1  0  0  0  0
 11 14  2  0  0  0  0
 13  2  1  6  0  0  0
 13 16  1  0  0  0  0
 14 15  1  0  0  0  0
 14 17  1  0  0  0  0
 16 18  1  6  0  0  0
 17 19  2  0  0  0  0
 17 21  1  0  0  0  0
 18 20  1  0  0  0  0
 20 22  1  0  0  0  0
M  CHG  1   9  -1
M  END
>  <CHROM.1>
-81.29736368,-80.50072505,-121.10881078,-69.15332918,-70.94584688,49.73810638
26.54931816,36.44867553,74.35079019,-0.43373152,-1.08113318,-1.26687565

>  <Name>
ligand

>  <RI>
0

>  <Rbt.Current_Directory>
/home/itssahil/PROJECTS/Mol_Feturizer/New_Systems/rnas/2HOM

>  <Rbt.Executable>
rbdock ($Id: //depot/dev/client3/rdock/2013.1/src/exe/rbdock.cxx#4 $)

>  <Rbt.Library>
libRbt.so (2013.1, Build901 2013/11/27)

>  <Rbt.Parameter_File>
/export/apps/rDock/src/rDock_2013.1_src/data/scripts/dock_solv.prm

>  <Rbt.Receptor>
prm/blind_docking_100.prm

>  <SCORE>
-12.222

>  <SCORE.INTER>
-13.0933

>  <SCORE.INTER.CONST>
1

>  <SCORE.INTER.POLAR>
0

>  <SCORE.INTER.ROT>
6

>  <SCORE.INTER.SOLV>
16.1942

>  <SCORE.INTER.VDW>
-21.7269

>  <SCORE.INTER.norm>
-0.59515

>  <SCORE.INTRA>
0.871302

>  <SCORE.INTRA.DIHEDRAL>
1.00432

>  <SCORE.INTRA.DIHEDRAL.0>
5.05013

>  <SCORE.INTRA.POLAR>
0

>  <SCORE.INTRA.POLAR.0>
0

>  <SCORE.INTRA.REPUL>
0

>  <SCORE.INTRA.REPUL.0>
0

>  <SCORE.INTRA.SOLV>
2.15237

>  <SCORE.INTRA.SOLV.lig_0>
-54.1265

>  <SCORE.INTRA.VDW>
-0.707042

>  <SCORE.INTRA.VDW.0>
-2.1303

>  <SCORE.INTRA.norm>
0.0396046

>  <SCORE.RESTR>
0

>  <SCORE.RESTR.CAVITY>
0

>  <SCORE.RESTR.norm>
0

>  <SCORE.SYSTEM>
0

>  <SCORE.SYSTEM.CONST>
0

>  <SCORE.SYSTEM.DIHEDRAL>
0

>  <SCORE.SYSTEM.SOLV>
0

>  <SCORE.SYSTEM.norm>
0

>  <SCORE.heavy>
22

>  <SCORE.norm>
-0.555545

>  <RMSD>
11.793

$$$$
ligand
 OpenBabel11021811443D
libRbt.so/2013.1/901 2013/11/27
 22 23  0  0  0  0  0  0  0  0999 V2000
   29.2918   42.6912   78.1449 C   0  0  0  0  0  0  0  0  0  0  0  0
   28.7697   36.4530   76.0805 C   0  0  0  0  0  0  0  0  0  0  0  0
   28.1923   36.9751   69.7764 P   0  0  1  0  0  0  0  0  0  0  0  0
   28.8850   40.5478   77.1632 N   0  0  0  0  0  0  0  0  0  0  0  0
   26.8390   37.0661   69.1709 O   0  0  0  0  0  0  0  0  0  0  0  0
   24.9800   36.4222   74.7227 S   0  0  0  0  0  0  0  0  0  0  0  0
   25.1598   37.0130   76.2852 C   0  0  0  0  0  0  0  0  0  0  0  0
   28.6537   41.3789   78.2379 C   0  0  0  0  0  0  0  0  0  0  0  0
   29.1620   36.1787   68.9810 O   0  5  0  0  0  0  0  0  0  0  0  0
   26.4240   37.0326   76.7590 N   0  0  0  0  0  0  0  0  0  0  0  0
   27.9377   41.0400   79.2765 N   0  0  0  0  0  0  0  0  0  0  0  0
   28.6975   38.3383   70.1370 O   0  0  0  0  0  0  0  0  0  0  0  0
   27.2998   36.5366   75.7915 C   0  0  2  0  0  0  0  0  0  0  0  0
   27.3435   39.7835   79.3321 C   0  0  0  0  0  0  0  0  0  0  0  0
   26.6337   39.4495   80.4058 N   0  0  0  0  0  0  0  0  0  0  0  0
   26.6990   36.1482   74.6174 C   0  0  1  0  0  0  0  0  0  0  0  0
   27.5111   38.8696   78.2141 C   0  0  0  0  0  0  0  0  0  0  0  0
   27.3431   35.5675   73.4102 C   0  0  0  0  0  0  0  0  0  0  0  0
   28.3180   39.3150   77.1864 C   0  0  0  0  0  0  0  0  0  0  0  0
   27.3929   36.5494   72.3003 C   0  0  0  0  0  0  0  0  0  0  0  0
   26.7886   37.5368   78.1693 C   0  0  0  0  0  0  0  0  0  0  0  0
   28.0771   36.1490   71.1125 O   0  0  0  0  0  0  0  0  0  0  0  0
  1  8  1  0  0  0  0
  3  5  1  6  0  0  0
  3  9  1  0  0  0  0
  3 12  2  0  0  0  0
  3 22  1  0  0  0  0
  4  8  2  0  0  0  0
  4 19  1  0  0  0  0
  6 16  1  0  0  0  0
  6  7  1  0  0  0  0
  7 10  1  0  0  0  0
  8 11  1  0  0  0  0
 10 13  1  0  0  0  0
 10 21  1  0  0  0  0
 11 14  2  0  0  0  0
 13  2  1  1  0  0  0
 13 16  1  0  0  0  0
 14 15  1  0  0  0  0
 14 17  1  0  0  0  0
 16 18  1  1  0  0  0
 17 19  2  0  0  0  0
 17 21  1  0  0  0  0
 18 20  1  0  0  0  0
 20 22  1  0  0  0  0
M  CHG  1   9  -1
M  END
>  <CHROM.1>
-108.12113623,73.63568148,148.69231402,175.51243445,176.15714984,-66.94846762
27.49273450,37.87409913,74.74726274,-1.60678323,-0.89281929,-1.96869419

>  <Name>
ligand

>  <RI>
0

>  <Rbt.Current_Directory>
/home/itssahil/PROJECTS/Mol_Feturizer/New_Systems/rnas/2HOM

>  <Rbt.Executable>
rbdock ($Id: //depot/dev/client3/rdock/2013.1/src/exe/rbdock.cxx#4 $)

>  <Rbt.Library>
libRbt.so (2013.1, Build901 2013/11/27)

>  <Rbt.Parameter_File>
/export/apps/rDock/src/rDock_2013.1_src/data/scripts/dock_solv.prm

>  <Rbt.Receptor>
prm/blind_docking_100.prm

>  <SCORE>
-14.7897

>  <SCORE.INTER>
-15.3666

>  <SCORE.INTER.CONST>
1

>  <SCORE.INTER.POLAR>
-1.63459

>  <SCORE.INTER.ROT>
6

>  <SCORE.INTER.SOLV>
10.1983

>  <SCORE.INTER.VDW>
-15.7952

>  <SCORE.INTER.norm>
-0.698481

>  <SCORE.INTRA>
0.576854

>  <SCORE.INTRA.DIHEDRAL>
0.419477

>  <SCORE.INTRA.DIHEDRAL.0>
5.05013

>  <SCORE.INTRA.POLAR>
0

>  <SCORE.INTRA.POLAR.0>
0

>  <SCORE.INTRA.REPUL>
0

>  <SCORE.INTRA.REPUL.0>
0

>  <SCORE.INTRA.SOLV>
0.00948296

>  <SCORE.INTRA.SOLV.lig_0>
-54.1265

>  <SCORE.INTRA.VDW>
0.362374

>  <SCORE.INTRA.VDW.0>
-2.1303

>  <SCORE.INTRA.norm>
0.0262206

>  <SCORE.RESTR>
0

>  <SCORE.RESTR.CAVITY>
0

>  <SCORE.RESTR.norm>
0

>  <SCORE.SYSTEM>
0

>  <SCORE.SYSTEM.CONST>
0

>  <SCORE.SYSTEM.DIHEDRAL>
0

>  <SCORE.SYSTEM.SOLV>
0

>  <SCORE.SYSTEM.norm>
0

>  <SCORE.heavy>
22

>  <SCORE.norm>
-0.67226

>  <RMSD>
11.844

$$$$
ligand
 OpenBabel11021811443D
libRbt.so/2013.1/901 2013/11/27
 22 23  0  0  0  0  0  0  0  0999 V2000
   29.4519   42.9542   75.4831 C   0  0  0  0  0  0  0  0  0  0  0  0
   27.4886   36.0846   75.7333 C   0  0  0  0  0  0  0  0  0  0  0  0
   25.3254   35.0213   70.9407 P   0  0  1  0  0  0  0  0  0  0  0  0
   28.6702   40.6955   75.3814 N   0  0  0  0  0  0  0  0  0  0  0  0
   24.6181   34.0338   70.0859 O   0  0  0  0  0  0  0  0  0  0  0  0
   23.7870   37.2504   76.8039 S   0  0  0  0  0  0  0  0  0  0  0  0
   25.0294   37.9854   77.6637 C   0  0  0  0  0  0  0  0  0  0  0  0
   29.0121   41.7547   76.1942 C   0  0  0  0  0  0  0  0  0  0  0  0
   26.7683   34.7291   71.1409 O   0  5  0  0  0  0  0  0  0  0  0  0
   26.2792   37.6085   77.3188 N   0  0  0  0  0  0  0  0  0  0  0  0
   28.9700   41.7114   77.4989 N   0  0  0  0  0  0  0  0  0  0  0  0
   25.0629   36.4149   70.4581 O   0  0  0  0  0  0  0  0  0  0  0  0
   26.2225   36.6640   76.2923 C   0  0  2  0  0  0  0  0  0  0  0  0
   28.5453   40.5541   78.1434 C   0  0  0  0  0  0  0  0  0  0  0  0
   28.5268   40.5225   79.4727 N   0  0  0  0  0  0  0  0  0  0  0  0
   24.9518   36.3373   75.8814 C   0  0  1  0  0  0  0  0  0  0  0  0
   28.1298   39.4109   77.3476 C   0  0  0  0  0  0  0  0  0  0  0  0
   24.5531   35.3622   74.8328 C   0  0  0  0  0  0  0  0  0  0  0  0
   28.2505   39.5519   75.9797 C   0  0  0  0  0  0  0  0  0  0  0  0
   25.0285   35.7856   73.4938 C   0  0  0  0  0  0  0  0  0  0  0  0
   27.5461   38.1693   77.9945 C   0  0  0  0  0  0  0  0  0  0  0  0
   24.7429   34.9129   72.4000 O   0  0  0  0  0  0  0  0  0  0  0  0
  1  8  1  0  0  0  0
  3  5  1  6  0  0  0
  3  9  1  0  0  0  0
  3 12  2  0  0  0  0
  3 22  1  0  0  0  0
  4  8  2  0  0  0  0
  4 19  1  0  0  0  0
  6 16  1  0  0  0  0
  6  7  1  0  0  0  0
  7 10  1  0  0  0  0
  8 11  1  0  0  0  0
 10 13  1  0  0  0  0
 10 21  1  0  0  0  0
 11 14  2  0  0  0  0
 13  2  1  1  0  0  0
 13 16  1  0  0  0  0
 14 15  1  0  0  0  0
 14 17  1  0  0  0  0
 16 18  1  1  0  0  0
 17 19  2  0  0  0  0
 17 21  1  0  0  0  0
 18 20  1  0  0  0  0
 20 22  1  0  0  0  0
M  CHG  1   9  -1
M  END
>  <CHROM.1>
-90.22033465,116.19845644,134.25014593,178.27040386,-169.79918564,-172.08195860
26.41665795,37.61071708,74.99976088,-0.98560082,-0.82521274,-1.88533696

>  <Name>
ligand

>  <RI>
0

>  <Rbt.Current_Directory>
/home/itssahil/PROJECTS/Mol_Feturizer/New_Systems/rnas/2HOM

>  <Rbt.Executable>
rbdock ($Id: //depot/dev/client3/rdock/2013.1/src/exe/rbdock.cxx#4 $)

>  <Rbt.Library>
libRbt.so (2013.1, Build901 2013/11/27)

>  <Rbt.Parameter_File>
/export/apps/rDock/src/rDock_2013.1_src/data/scripts/dock_solv.prm

>  <Rbt.Receptor>
prm/blind_docking_100.prm

>  <SCORE>
-12.1368

>  <SCORE.INTER>
-12.7928

>  <SCORE.INTER.CONST>
1

>  <SCORE.INTER.POLAR>
0

>  <SCORE.INTER.ROT>
6

>  <SCORE.INTER.SOLV>
12.8455

>  <SCORE.INTER.VDW>
-20.4104

>  <SCORE.INTER.norm>
-0.581491

>  <SCORE.INTRA>
0.656041

>  <SCORE.INTRA.DIHEDRAL>
0.211727

>  <SCORE.INTRA.DIHEDRAL.0>
5.05013

>  <SCORE.INTRA.POLAR>
0

>  <SCORE.INTRA.POLAR.0>
0

>  <SCORE.INTRA.REPUL>
0

>  <SCORE.INTRA.REPUL.0>
0

>  <SCORE.INTRA.SOLV>
0.584564

>  <SCORE.INTRA.SOLV.lig_0>
-54.1265

>  <SCORE.INTRA.VDW>
0.257895

>  <SCORE.INTRA.VDW.0>
-2.1303

>  <SCORE.INTRA.norm>
0.02982

>  <SCORE.RESTR>
0

>  <SCORE.RESTR.CAVITY>
0

>  <SCORE.RESTR.norm>
0

>  <SCORE.SYSTEM>
0

>  <SCORE.SYSTEM.CONST>
0

>  <SCORE.SYSTEM.DIHEDRAL>
0

>  <SCORE.SYSTEM.SOLV>
0

>  <SCORE.SYSTEM.norm>
0

>  <SCORE.heavy>
22

>  <SCORE.norm>
-0.551671

>  <RMSD>
12.017

$$$$
ligand
 OpenBabel11021811443D
libRbt.so/2013.1/901 2013/11/27
 22 23  0  0  0  0  0  0  0  0999 V2000
   23.3688   31.9478   75.2381 C   0  0  0  0  0  0  0  0  0  0  0  0
   28.5369   38.7146   74.2076 C   0  0  0  0  0  0  0  0  0  0  0  0
   30.4160   41.9017   80.1042 P   0  0  1  0  0  0  0  0  0  0  0  0
   25.2991   33.1604   75.9640 N   0  0  0  0  0  0  0  0  0  0  0  0
   31.1045   40.7340   80.7113 O   0  0  0  0  0  0  0  0  0  0  0  0
   27.6311   37.6474   77.9822 S   0  0  0  0  0  0  0  0  0  0  0  0
   27.3727   36.4486   76.8338 C   0  0  0  0  0  0  0  0  0  0  0  0
   24.4187   32.9183   74.9317 C   0  0  0  0  0  0  0  0  0  0  0  0
   29.1808   42.3176   80.8173 O   0  5  0  0  0  0  0  0  0  0  0  0
   27.6715   36.7864   75.5612 N   0  0  0  0  0  0  0  0  0  0  0  0
   24.5024   33.4860   73.7584 N   0  0  0  0  0  0  0  0  0  0  0  0
   31.3829   43.0247   79.8862 O   0  0  0  0  0  0  0  0  0  0  0  0
   28.1393   38.1011   75.5179 C   0  0  2  0  0  0  0  0  0  0  0  0
   25.5134   34.4061   73.5010 C   0  0  0  0  0  0  0  0  0  0  0  0
   25.5938   34.9597   72.2947 N   0  0  0  0  0  0  0  0  0  0  0  0
   28.1839   38.7357   76.7367 C   0  0  1  0  0  0  0  0  0  0  0  0
   26.4536   34.7409   74.5579 C   0  0  0  0  0  0  0  0  0  0  0  0
   28.6118   40.1295   77.0258 C   0  0  0  0  0  0  0  0  0  0  0  0
   26.2965   34.0543   75.7451 C   0  0  0  0  0  0  0  0  0  0  0  0
   29.2258   40.2372   78.3710 C   0  0  0  0  0  0  0  0  0  0  0  0
   27.4994   35.8233   74.3700 C   0  0  0  0  0  0  0  0  0  0  0  0
   29.8724   41.4698   78.6903 O   0  0  0  0  0  0  0  0  0  0  0  0
  1  8  1  0  0  0  0
  3  5  1  1  0  0  0
  3  9  1  0  0  0  0
  3 12  2  0  0  0  0
  3 22  1  0  0  0  0
  4  8  2  0  0  0  0
  4 19  1  0  0  0  0
  6 16  1  0  0  0  0
  6  7  1  0  0  0  0
  7 10  1  0  0  0  0
  8 11  1  0  0  0  0
 10 13  1  0  0  0  0
 10 21  1  0  0  0  0
 11 14  2  0  0  0  0
 13  2  1  6  0  0  0
 13 16  1  0  0  0  0
 14 15  1  0  0  0  0
 14 17  1  0  0  0  0
 16 18  1  6  0  0  0
 17 19  2  0  0  0  0
 17 21  1  0  0  0  0
 18 20  1  0  0  0  0
 20 22  1  0  0  0  0
M  CHG  1   9  -1
M  END
>  <CHROM.1>
25.73814875,31.88286779,136.02673497,170.24130966,170.85930688,42.69452361
27.80004621,37.76076570,76.86837467,2.59264595,-0.99215794,-1.61120129

>  <Name>
ligand

>  <RI>
0

>  <Rbt.Current_Directory>
/home/itssahil/PROJECTS/Mol_Feturizer/New_Systems/rnas/2HOM

>  <Rbt.Executable>
rbdock ($Id: //depot/dev/client3/rdock/2013.1/src/exe/rbdock.cxx#4 $)

>  <Rbt.Library>
libRbt.so (2013.1, Build901 2013/11/27)

>  <Rbt.Parameter_File>
/export/apps/rDock/src/rDock_2013.1_src/data/scripts/dock_solv.prm

>  <Rbt.Receptor>
prm/blind_docking_100.prm

>  <SCORE>
-13.635

>  <SCORE.INTER>
-15.691

>  <SCORE.INTER.CONST>
1

>  <SCORE.INTER.POLAR>
-1.03923

>  <SCORE.INTER.ROT>
6

>  <SCORE.INTER.SOLV>
8.57052

>  <SCORE.INTER.VDW>
-17.4534

>  <SCORE.INTER.norm>
-0.713227

>  <SCORE.INTRA>
2.05597

>  <SCORE.INTRA.DIHEDRAL>
1.15061

>  <SCORE.INTRA.DIHEDRAL.0>
5.05013

>  <SCORE.INTRA.POLAR>
0

>  <SCORE.INTRA.POLAR.0>
0

>  <SCORE.INTRA.REPUL>
0

>  <SCORE.INTRA.REPUL.0>
0

>  <SCORE.INTRA.SOLV>
-0.0386784

>  <SCORE.INTRA.SOLV.lig_0>
-54.1265

>  <SCORE.INTRA.VDW>
1.5

>  <SCORE.INTRA.VDW.0>
-2.1303

>  <SCORE.INTRA.norm>
0.093453

>  <SCORE.RESTR>
0

>  <SCORE.RESTR.CAVITY>
0

>  <SCORE.RESTR.norm>
0

>  <SCORE.SYSTEM>
0

>  <SCORE.SYSTEM.CONST>
0

>  <SCORE.SYSTEM.DIHEDRAL>
0

>  <SCORE.SYSTEM.SOLV>
0

>  <SCORE.SYSTEM.norm>
0

>  <SCORE.heavy>
22

>  <SCORE.norm>
-0.619774

>  <RMSD>
12.307

$$$$
ligand
 OpenBabel11021811443D
libRbt.so/2013.1/901 2013/11/27
 22 23  0  0  0  0  0  0  0  0999 V2000
   29.4545   44.2380   79.4233 C   0  0  0  0  0  0  0  0  0  0  0  0
   28.0090   36.1069   76.5702 C   0  0  0  0  0  0  0  0  0  0  0  0
   25.3458   35.2648   70.7636 P   0  0  1  0  0  0  0  0  0  0  0  0
   29.9197   42.2261   78.2153 N   0  0  0  0  0  0  0  0  0  0  0  0
   25.5627   34.1010   69.8666 O   0  0  0  0  0  0  0  0  0  0  0  0
   28.3665   39.1410   73.9485 S   0  0  0  0  0  0  0  0  0  0  0  0
   28.3620   39.6066   75.5627 C   0  0  0  0  0  0  0  0  0  0  0  0
   29.1024   42.8487   79.1339 C   0  0  0  0  0  0  0  0  0  0  0  0
   25.2807   36.5714   70.0595 O   0  5  0  0  0  0  0  0  0  0  0  0
   28.2439   38.6032   76.4584 N   0  0  0  0  0  0  0  0  0  0  0  0
   28.0961   42.2621   79.7249 N   0  0  0  0  0  0  0  0  0  0  0  0
   24.1774   35.0185   71.6680 O   0  0  0  0  0  0  0  0  0  0  0  0
   28.1515   37.3808   75.7903 C   0  0  2  0  0  0  0  0  0  0  0  0
   27.7880   40.9391   79.4252 C   0  0  0  0  0  0  0  0  0  0  0  0
   26.7714   40.3530   80.0507 N   0  0  0  0  0  0  0  0  0  0  0  0
   28.1944   37.4706   74.4190 C   0  0  1  0  0  0  0  0  0  0  0  0
   28.5829   40.2328   78.4341 C   0  0  0  0  0  0  0  0  0  0  0  0
   28.1029   36.3667   73.4280 C   0  0  0  0  0  0  0  0  0  0  0  0
   29.6448   40.9350   77.9003 C   0  0  0  0  0  0  0  0  0  0  0  0
   26.8083   36.3959   72.7059 C   0  0  0  0  0  0  0  0  0  0  0  0
   28.2180   38.8315   77.9826 C   0  0  0  0  0  0  0  0  0  0  0  0
   26.6196   35.4246   71.6761 O   0  0  0  0  0  0  0  0  0  0  0  0
  1  8  1  0  0  0  0
  3  5  1  6  0  0  0
  3  9  1  0  0  0  0
  3 12  2  0  0  0  0
  3 22  1  0  0  0  0
  4  8  2  0  0  0  0
  4 19  1  0  0  0  0
  6 16  1  0  0  0  0
  6  7  1  0  0  0  0
  7 10  1  0  0  0  0
  8 11  1  0  0  0  0
 10 13  1  0  0  0  0
 10 21  1  0  0  0  0
 11 14  2  0  0  0  0
 13  2  1  6  0  0  0
 13 16  1  0  0  0  0
 14 15  1  0  0  0  0
 14 17  1  0  0  0  0
 16 18  1  6  0  0  0
 17 19  2  0  0  0  0
 17 21  1  0  0  0  0
 18 20  1  0  0  0  0
 20 22  1  0  0  0  0
M  CHG  1   9  -1
M  END
>  <CHROM.1>
-10.54170686,-70.69316740,133.66437642,177.00488526,-179.29406174,-178.04916828
27.51066434,38.38522842,75.10510427,-0.81822228,-1.13741916,-1.54659941

>  <Name>
ligand

>  <RI>
0

>  <Rbt.Current_Directory>
/home/itssahil/PROJECTS/Mol_Feturizer/New_Systems/rnas/2HOM

>  <Rbt.Executable>
rbdock ($Id: //depot/dev/client3/rdock/2013.1/src/exe/rbdock.cxx#4 $)

>  <Rbt.Library>
libRbt.so (2013.1, Build901 2013/11/27)

>  <Rbt.Parameter_File>
/export/apps/rDock/src/rDock_2013.1_src/data/scripts/dock_solv.prm

>  <Rbt.Receptor>
prm/blind_docking_100.prm

>  <SCORE>
-12.6779

>  <SCORE.INTER>
-13.6183

>  <SCORE.INTER.CONST>
1

>  <SCORE.INTER.POLAR>
0

>  <SCORE.INTER.ROT>
6

>  <SCORE.INTER.SOLV>
12.9024

>  <SCORE.INTER.VDW>
-20.9797

>  <SCORE.INTER.norm>
-0.619015

>  <SCORE.INTRA>
0.940451

>  <SCORE.INTRA.DIHEDRAL>
0.166572

>  <SCORE.INTRA.DIHEDRAL.0>
5.05013

>  <SCORE.INTRA.POLAR>
0

>  <SCORE.INTRA.POLAR.0>
0

>  <SCORE.INTRA.REPUL>
0

>  <SCORE.INTRA.REPUL.0>
0

>  <SCORE.INTRA.SOLV>
0.577603

>  <SCORE.INTRA.SOLV.lig_0>
-54.1265

>  <SCORE.INTRA.VDW>
0.568363

>  <SCORE.INTRA.VDW.0>
-2.1303

>  <SCORE.INTRA.norm>
0.0427478

>  <SCORE.RESTR>
0

>  <SCORE.RESTR.CAVITY>
0

>  <SCORE.RESTR.norm>
0

>  <SCORE.SYSTEM>
0

>  <SCORE.SYSTEM.CONST>
0

>  <SCORE.SYSTEM.DIHEDRAL>
0

>  <SCORE.SYSTEM.SOLV>
0

>  <SCORE.SYSTEM.norm>
0

>  <SCORE.heavy>
22

>  <SCORE.norm>
-0.576268

>  <RMSD>
12.604

$$$$
ligand
 OpenBabel11021811443D
libRbt.so/2013.1/901 2013/11/27
 22 23  0  0  0  0  0  0  0  0999 V2000
   37.3256   31.5306   61.8846 C   0  0  0  0  0  0  0  0  0  0  0  0
   31.0571   37.5095   62.0497 C   0  0  0  0  0  0  0  0  0  0  0  0
   28.5978   35.7972   68.3992 P   0  0  1  0  0  0  0  0  0  0  0  0
   35.1863   32.4907   62.3585 N   0  0  0  0  0  0  0  0  0  0  0  0
   28.4681   34.3309   68.2006 O   0  0  0  0  0  0  0  0  0  0  0  0
   31.7058   35.5690   65.5167 S   0  0  0  0  0  0  0  0  0  0  0  0
   32.9261   35.3920   64.3755 C   0  0  0  0  0  0  0  0  0  0  0  0
   36.4776   32.7207   61.9356 C   0  0  0  0  0  0  0  0  0  0  0  0
   27.3011   36.5197   68.4590 O   0  5  0  0  0  0  0  0  0  0  0  0
   32.7281   36.0362   63.2056 N   0  0  0  0  0  0  0  0  0  0  0  0
   36.9368   33.9005   61.6145 N   0  0  0  0  0  0  0  0  0  0  0  0
   29.4957   36.0909   69.5616 O   0  0  0  0  0  0  0  0  0  0  0  0
   31.5088   36.7154   63.2399 C   0  0  2  0  0  0  0  0  0  0  0  0
   36.1022   35.0117   61.6731 C   0  0  0  0  0  0  0  0  0  0  0  0
   36.5926   36.2075   61.3605 N   0  0  0  0  0  0  0  0  0  0  0  0
   30.8060   36.5761   64.4133 C   0  0  1  0  0  0  0  0  0  0  0  0
   34.7152   34.8367   62.0714 C   0  0  0  0  0  0  0  0  0  0  0  0
   29.4796   37.1517   64.7576 C   0  0  0  0  0  0  0  0  0  0  0  0
   34.3462   33.5545   62.4254 C   0  0  0  0  0  0  0  0  0  0  0  0
   28.7839   36.3312   65.7780 C   0  0  0  0  0  0  0  0  0  0  0  0
   33.7326   35.9917   62.0373 C   0  0  0  0  0  0  0  0  0  0  0  0
   29.2772   36.4077   67.1160 O   0  0  0  0  0  0  0  0  0  0  0  0
  1  8  1  0  0  0  0
  3  5  1  6  0  0  0
  3  9  1  0  0  0  0
  3 12  2  0  0  0  0
  3 22  1  0  0  0  0
  4  8  2  0  0  0  0
  4 19  1  0  0  0  0
  6 16  1  0  0  0  0
  6  7  1  0  0  0  0
  7 10  1  0  0  0  0
  8 11  1  0  0  0  0
 10 13  1  0  0  0  0
 10 21  1  0  0  0  0
 11 14  2  0  0  0  0
 13  2  1  6  0  0  0
 13 16  1  0  0  0  0
 14 15  1  0  0  0  0
 14 17  1  0  0  0  0
 16 18  1  6  0  0  0
 17 19  2  0  0  0  0
 17 21  1  0  0  0  0
 18 20  1  0  0  0  0
 20 22  1  0  0  0  0
M  CHG  1   9  -1
M  END
>  <CHROM.1>
19.87581939,-25.57466352,-141.43918430,73.53317682,170.99723677,59.06982973
32.06669490,35.36375293,64.61955410,-0.32233309,-0.65559385,2.30547761

>  <Name>
ligand

>  <RI>
0

>  <Rbt.Current_Directory>
/home/itssahil/PROJECTS/Mol_Feturizer/New_Systems/rnas/2HOM

>  <Rbt.Executable>
rbdock ($Id: //depot/dev/client3/rdock/2013.1/src/exe/rbdock.cxx#4 $)

>  <Rbt.Library>
libRbt.so (2013.1, Build901 2013/11/27)

>  <Rbt.Parameter_File>
/export/apps/rDock/src/rDock_2013.1_src/data/scripts/dock_solv.prm

>  <Rbt.Receptor>
prm/blind_docking_100.prm

>  <SCORE>
-25.5564

>  <SCORE.INTER>
-26.9233

>  <SCORE.INTER.CONST>
1

>  <SCORE.INTER.POLAR>
-1.95182

>  <SCORE.INTER.ROT>
6

>  <SCORE.INTER.SOLV>
13.3065

>  <SCORE.INTER.VDW>
-23.4783

>  <SCORE.INTER.norm>
-1.22379

>  <SCORE.INTRA>
1.36687

>  <SCORE.INTRA.DIHEDRAL>
0.736093

>  <SCORE.INTRA.DIHEDRAL.0>
5.05013

>  <SCORE.INTRA.POLAR>
0

>  <SCORE.INTRA.POLAR.0>
0

>  <SCORE.INTRA.REPUL>
0

>  <SCORE.INTRA.REPUL.0>
0

>  <SCORE.INTRA.SOLV>
0.00300454

>  <SCORE.INTRA.SOLV.lig_0>
-54.1265

>  <SCORE.INTRA.VDW>
0.997316

>  <SCORE.INTRA.VDW.0>
-2.1303

>  <SCORE.INTRA.norm>
0.0621302

>  <SCORE.RESTR>
0

>  <SCORE.RESTR.CAVITY>
0

>  <SCORE.RESTR.norm>
0

>  <SCORE.SYSTEM>
0

>  <SCORE.SYSTEM.CONST>
0

>  <SCORE.SYSTEM.DIHEDRAL>
0

>  <SCORE.SYSTEM.SOLV>
0

>  <SCORE.SYSTEM.norm>
0

>  <SCORE.heavy>
22

>  <SCORE.norm>
-1.16166

>  <RMSD>
12.641

$$$$
ligand
 OpenBabel11021811443D
libRbt.so/2013.1/901 2013/11/27
 22 23  0  0  0  0  0  0  0  0999 V2000
   29.0308   40.2391   60.2465 C   0  0  0  0  0  0  0  0  0  0  0  0
   35.1342   34.3989   62.2837 C   0  0  0  0  0  0  0  0  0  0  0  0
   37.4071   30.3923   60.9901 P   0  0  1  0  0  0  0  0  0  0  0  0
   31.3319   39.5927   60.1452 N   0  0  0  0  0  0  0  0  0  0  0  0
   37.7457   31.3761   62.0502 O   0  0  0  0  0  0  0  0  0  0  0  0
   33.9464   34.7967   58.4577 S   0  0  0  0  0  0  0  0  0  0  0  0
   33.4066   36.0085   59.4887 C   0  0  0  0  0  0  0  0  0  0  0  0
   30.1062   39.3789   60.7379 C   0  0  0  0  0  0  0  0  0  0  0  0
   38.0459   30.6686   59.6776 O   0  5  0  0  0  0  0  0  0  0  0  0
   33.7951   35.8939   60.7767 N   0  0  0  0  0  0  0  0  0  0  0  0
   29.8984   38.4951   61.6769 N   0  0  0  0  0  0  0  0  0  0  0  0
   37.6358   28.9953   61.4797 O   0  0  0  0  0  0  0  0  0  0  0  0
   34.5800   34.7501   60.9343 C   0  0  2  0  0  0  0  0  0  0  0  0
   30.9441   37.6920   62.1203 C   0  0  0  0  0  0  0  0  0  0  0  0
   30.7178   36.8107   63.0901 N   0  0  0  0  0  0  0  0  0  0  0  0
   34.7698   34.0203   59.7847 C   0  0  1  0  0  0  0  0  0  0  0  0
   32.2558   37.8345   61.5102 C   0  0  0  0  0  0  0  0  0  0  0  0
   35.5323   32.7550   59.6212 C   0  0  0  0  0  0  0  0  0  0  0  0
   32.3727   38.8242   60.5550 C   0  0  0  0  0  0  0  0  0  0  0  0
   35.1200   31.7433   60.6236 C   0  0  0  0  0  0  0  0  0  0  0  0
   33.3989   36.9050   61.8706 C   0  0  0  0  0  0  0  0  0  0  0  0
   35.8720   30.5300   60.6656 O   0  0  0  0  0  0  0  0  0  0  0  0
  1  8  1  0  0  0  0
  3  5  1  1  0  0  0
  3  9  1  0  0  0  0
  3 12  2  0  0  0  0
  3 22  1  0  0  0  0
  4  8  2  0  0  0  0
  4 19  1  0  0  0  0
  6 16  1  0  0  0  0
  6  7  1  0  0  0  0
  7 10  1  0  0  0  0
  8 11  1  0  0  0  0
 10 13  1  0  0  0  0
 10 21  1  0  0  0  0
 11 14  2  0  0  0  0
 13  2  1  1  0  0  0
 13 16  1  0  0  0  0
 14 15  1  0  0  0  0
 14 17  1  0  0  0  0
 16 18  1  1  0  0  0
 17 19  2  0  0  0  0
 17 21  1  0  0  0  0
 18 20  1  0  0  0  0
 20 22  1  0  0  0  0
M  CHG  1   9  -1
M  END
>  <CHROM.1>
15.47339279,-128.71599696,108.36404239,-173.69896443,61.61531565,37.52607634
34.08595313,34.67161904,60.74337838,-2.99087675,-0.89800581,1.78509764

>  <Name>
ligand

>  <RI>
0

>  <Rbt.Current_Directory>
/home/itssahil/PROJECTS/Mol_Feturizer/New_Systems/rnas/2HOM

>  <Rbt.Executable>
rbdock ($Id: //depot/dev/client3/rdock/2013.1/src/exe/rbdock.cxx#4 $)

>  <Rbt.Library>
libRbt.so (2013.1, Build901 2013/11/27)

>  <Rbt.Parameter_File>
/export/apps/rDock/src/rDock_2013.1_src/data/scripts/dock_solv.prm

>  <Rbt.Receptor>
prm/blind_docking_80.prm

>  <SCORE>
-13.2156

>  <SCORE.INTER>
-15.0445

>  <SCORE.INTER.CONST>
1

>  <SCORE.INTER.POLAR>
0

>  <SCORE.INTER.ROT>
6

>  <SCORE.INTER.SOLV>
17.1422

>  <SCORE.INTER.VDW>
-23.3437

>  <SCORE.INTER.norm>
-0.683843

>  <SCORE.INTRA>
1.6482

>  <SCORE.INTRA.DIHEDRAL>
0.435495

>  <SCORE.INTRA.DIHEDRAL.0>
5.05013

>  <SCORE.INTRA.POLAR>
0

>  <SCORE.INTRA.POLAR.0>
0

>  <SCORE.INTRA.REPUL>
0

>  <SCORE.INTRA.REPUL.0>
0

>  <SCORE.INTRA.SOLV>
0.787543

>  <SCORE.INTRA.SOLV.lig_0>
-54.1265

>  <SCORE.INTRA.VDW>
1.03668

>  <SCORE.INTRA.VDW.0>
-2.1303

>  <SCORE.INTRA.norm>
0.0749182

>  <SCORE.RESTR>
0.180707

>  <SCORE.RESTR.CAVITY>
0.180707

>  <SCORE.RESTR.norm>
0.00821394

>  <SCORE.SYSTEM>
0

>  <SCORE.SYSTEM.CONST>
0

>  <SCORE.SYSTEM.DIHEDRAL>
0

>  <SCORE.SYSTEM.SOLV>
0

>  <SCORE.SYSTEM.norm>
0

>  <SCORE.heavy>
22

>  <SCORE.norm>
-0.600711

>  <RMSD>
12.871

$$$$
ligand
 OpenBabel11021811443D
libRbt.so/2013.1/901 2013/11/27
 22 23  0  0  0  0  0  0  0  0999 V2000
   29.5166   39.9630   60.2142 C   0  0  0  0  0  0  0  0  0  0  0  0
   36.4654   36.7869   59.9183 C   0  0  0  0  0  0  0  0  0  0  0  0
   37.0027   31.7464   61.3899 P   0  0  1  0  0  0  0  0  0  0  0  0
   31.8896   39.7280   60.4070 N   0  0  0  0  0  0  0  0  0  0  0  0
   37.1555   33.0807   62.0243 O   0  0  0  0  0  0  0  0  0  0  0  0
   34.1586   33.4921   60.0910 S   0  0  0  0  0  0  0  0  0  0  0  0
   33.6828   34.7352   61.1162 C   0  0  0  0  0  0  0  0  0  0  0  0
   30.6561   39.1991   60.7201 C   0  0  0  0  0  0  0  0  0  0  0  0
   38.1528   30.8324   61.6118 O   0  5  0  0  0  0  0  0  0  0  0  0
   34.4433   35.8500   61.0726 N   0  0  0  0  0  0  0  0  0  0  0  0
   30.4903   38.1115   61.4241 N   0  0  0  0  0  0  0  0  0  0  0  0
   35.6829   31.1403   61.7562 O   0  0  0  0  0  0  0  0  0  0  0  0
   35.4762   35.6824   60.1484 C   0  0  2  0  0  0  0  0  0  0  0  0
   31.5967   37.4081   61.8890 C   0  0  0  0  0  0  0  0  0  0  0  0
   31.4081   36.3134   62.6200 N   0  0  0  0  0  0  0  0  0  0  0  0
   35.4899   34.4613   59.5168 C   0  0  1  0  0  0  0  0  0  0  0  0
   32.9299   37.8859   61.5612 C   0  0  0  0  0  0  0  0  0  0  0  0
   36.4589   33.9676   58.5037 C   0  0  0  0  0  0  0  0  0  0  0  0
   32.9894   39.0644   60.8450 C   0  0  0  0  0  0  0  0  0  0  0  0
   37.4830   33.0898   59.1193 C   0  0  0  0  0  0  0  0  0  0  0  0
   34.1671   37.0942   61.9396 C   0  0  0  0  0  0  0  0  0  0  0  0
   37.0111   31.9427   59.8271 O   0  0  0  0  0  0  0  0  0  0  0  0
  1  8  1  0  0  0  0
  3  5  1  1  0  0  0
  3  9  1  0  0  0  0
  3 12  2  0  0  0  0
  3 22  1  0  0  0  0
  4  8  2  0  0  0  0
  4 19  1  0  0  0  0
  6 16  1  0  0  0  0
  6  7  1  0  0  0  0
  7 10  1  0  0  0  0
  8 11  1  0  0  0  0
 10 13  1  0  0  0  0
 10 21  1  0  0  0  0
 11 14  2  0  0  0  0
 13  2  1  1  0  0  0
 13 16  1  0  0  0  0
 14 15  1  0  0  0  0
 14 17  1  0  0  0  0
 16 18  1  1  0  0  0
 17 19  2  0  0  0  0
 17 21  1  0  0  0  0
 18 20  1  0  0  0  0
 20 22  1  0  0  0  0
M  CHG  1   9  -1
M  END
>  <CHROM.1>
-70.37427032,-80.17400578,75.27240342,57.07136961,-107.28678044,17.68950085
34.51418290,35.09990799,60.80264760,2.41624014,0.52536099,-0.47791143

>  <Name>
ligand

>  <RI>
0

>  <Rbt.Current_Directory>
/home/itssahil/PROJECTS/Mol_Feturizer/New_Systems/rnas/2HOM

>  <Rbt.Executable>
rbdock ($Id: //depot/dev/client3/rdock/2013.1/src/exe/rbdock.cxx#4 $)

>  <Rbt.Library>
libRbt.so (2013.1, Build901 2013/11/27)

>  <Rbt.Parameter_File>
/export/apps/rDock/src/rDock_2013.1_src/data/scripts/dock_solv.prm

>  <Rbt.Receptor>
prm/blind_docking_80.prm

>  <SCORE>
-6.57912

>  <SCORE.INTER>
-9.98447

>  <SCORE.INTER.CONST>
1

>  <SCORE.INTER.POLAR>
0

>  <SCORE.INTER.ROT>
6

>  <SCORE.INTER.SOLV>
20.7889

>  <SCORE.INTER.VDW>
-21.186

>  <SCORE.INTER.norm>
-0.45384

>  <SCORE.INTRA>
3.25712

>  <SCORE.INTRA.DIHEDRAL>
8.25588

>  <SCORE.INTRA.DIHEDRAL.0>
5.05013

>  <SCORE.INTRA.POLAR>
0

>  <SCORE.INTRA.POLAR.0>
0

>  <SCORE.INTRA.REPUL>
0

>  <SCORE.INTRA.REPUL.0>
0

>  <SCORE.INTRA.SOLV>
1.837

>  <SCORE.INTRA.SOLV.lig_0>
-54.1265

>  <SCORE.INTRA.VDW>
-1.78932

>  <SCORE.INTRA.VDW.0>
-2.1303

>  <SCORE.INTRA.norm>
0.148051

>  <SCORE.RESTR>
0.148238

>  <SCORE.RESTR.CAVITY>
0.148238

>  <SCORE.RESTR.norm>
0.00673811

>  <SCORE.SYSTEM>
0

>  <SCORE.SYSTEM.CONST>
0

>  <SCORE.SYSTEM.DIHEDRAL>
0

>  <SCORE.SYSTEM.SOLV>
0

>  <SCORE.SYSTEM.norm>
0

>  <SCORE.heavy>
22

>  <SCORE.norm>
-0.299051

>  <RMSD>
13.026

$$$$
ligand
 OpenBabel11021811443D
libRbt.so/2013.1/901 2013/11/27
 22 23  0  0  0  0  0  0  0  0999 V2000
   29.0041   40.1719   60.3800 C   0  0  0  0  0  0  0  0  0  0  0  0
   32.8316   35.7193   59.4413 C   0  0  0  0  0  0  0  0  0  0  0  0
   32.4528   35.4201   54.4112 P   0  0  1  0  0  0  0  0  0  0  0  0
   31.3654   39.8030   60.2740 N   0  0  0  0  0  0  0  0  0  0  0  0
   31.4081   34.5460   55.0035 O   0  0  0  0  0  0  0  0  0  0  0  0
   36.7051   36.7942   59.2238 S   0  0  0  0  0  0  0  0  0  0  0  0
   35.9163   37.2947   60.6202 C   0  0  0  0  0  0  0  0  0  0  0  0
   30.1709   39.4254   60.8483 C   0  0  0  0  0  0  0  0  0  0  0  0
   32.9327   34.9758   53.0772 O   0  5  0  0  0  0  0  0  0  0  0  0
   34.6160   36.9432   60.7130 N   0  0  0  0  0  0  0  0  0  0  0  0
   30.0643   38.4887   61.7522 N   0  0  0  0  0  0  0  0  0  0  0  0
   32.0145   36.8522   54.4381 O   0  0  0  0  0  0  0  0  0  0  0  0
   34.2385   36.2225   59.5784 C   0  0  2  0  0  0  0  0  0  0  0  0
   31.1950   37.7971   62.1744 C   0  0  0  0  0  0  0  0  0  0  0  0
   31.0696   36.8597   63.1091 N   0  0  0  0  0  0  0  0  0  0  0  0
   35.2385   36.0438   58.6519 C   0  0  1  0  0  0  0  0  0  0  0  0
   32.4834   38.1147   61.5809 C   0  0  0  0  0  0  0  0  0  0  0  0
   35.1568   35.3441   57.3431 C   0  0  0  0  0  0  0  0  0  0  0  0
   32.4874   39.1465   60.6638 C   0  0  0  0  0  0  0  0  0  0  0  0
   33.8317   35.5412   56.7078 C   0  0  0  0  0  0  0  0  0  0  0  0
   33.7260   37.3123   61.9162 C   0  0  0  0  0  0  0  0  0  0  0  0
   33.7475   35.3091   55.3013 O   0  0  0  0  0  0  0  0  0  0  0  0
  1  8  1  0  0  0  0
  3  5  1  1  0  0  0
  3  9  1  0  0  0  0
  3 12  2  0  0  0  0
  3 22  1  0  0  0  0
  4  8  2  0  0  0  0
  4 19  1  0  0  0  0
  6 16  1  0  0  0  0
  6  7  1  0  0  0  0
  7 10  1  0  0  0  0
  8 11  1  0  0  0  0
 10 13  1  0  0  0  0
 10 21  1  0  0  0  0
 11 14  2  0  0  0  0
 13  2  1  6  0  0  0
 13 16  1  0  0  0  0
 14 15  1  0  0  0  0
 14 17  1  0  0  0  0
 16 18  1  6  0  0  0
 17 19  2  0  0  0  0
 17 21  1  0  0  0  0
 18 20  1  0  0  0  0
 20 22  1  0  0  0  0
M  CHG  1   9  -1
M  END
>  <CHROM.1>
122.11254406,-144.48728981,136.04703244,160.39435348,178.55660135,-54.83750445
33.00390234,36.85401528,58.58307641,1.76287021,-0.31192242,1.21045997

>  <Name>
ligand

>  <RI>
0

>  <Rbt.Current_Directory>
/home/itssahil/PROJECTS/Mol_Feturizer/New_Systems/rnas/2HOM

>  <Rbt.Executable>
rbdock ($Id: //depot/dev/client3/rdock/2013.1/src/exe/rbdock.cxx#4 $)

>  <Rbt.Library>
libRbt.so (2013.1, Build901 2013/11/27)

>  <Rbt.Parameter_File>
/export/apps/rDock/src/rDock_2013.1_src/data/scripts/dock_solv.prm

>  <Rbt.Receptor>
prm/blind_docking_80.prm

>  <SCORE>
-3.68951

>  <SCORE.INTER>
-7.69012

>  <SCORE.INTER.CONST>
1

>  <SCORE.INTER.POLAR>
0

>  <SCORE.INTER.ROT>
6

>  <SCORE.INTER.SOLV>
20.0018

>  <SCORE.INTER.VDW>
-19.394

>  <SCORE.INTER.norm>
-0.349551

>  <SCORE.INTRA>
3.42857

>  <SCORE.INTRA.DIHEDRAL>
1.22503

>  <SCORE.INTRA.DIHEDRAL.0>
5.05013

>  <SCORE.INTRA.POLAR>
0

>  <SCORE.INTRA.POLAR.0>
0

>  <SCORE.INTRA.REPUL>
0

>  <SCORE.INTRA.REPUL.0>
0

>  <SCORE.INTRA.SOLV>
0.516173

>  <SCORE.INTRA.SOLV.lig_0>
-54.1265

>  <SCORE.INTRA.VDW>
2.55797

>  <SCORE.INTRA.VDW.0>
-2.1303

>  <SCORE.INTRA.norm>
0.155844

>  <SCORE.RESTR>
0.572036

>  <SCORE.RESTR.CAVITY>
0.572036

>  <SCORE.RESTR.norm>
0.0260016

>  <SCORE.SYSTEM>
0

>  <SCORE.SYSTEM.CONST>
0

>  <SCORE.SYSTEM.DIHEDRAL>
0

>  <SCORE.SYSTEM.SOLV>
0

>  <SCORE.SYSTEM.norm>
0

>  <SCORE.heavy>
22

>  <SCORE.norm>
-0.167705

>  <RMSD>
13.083

$$$$
ligand
 OpenBabel11021811443D
libRbt.so/2013.1/901 2013/11/27
 22 23  0  0  0  0  0  0  0  0999 V2000
   37.3937   30.8486   61.4132 C   0  0  0  0  0  0  0  0  0  0  0  0
   31.6663   37.3497   60.9309 C   0  0  0  0  0  0  0  0  0  0  0  0
   29.0996   36.1868   66.5919 P   0  0  1  0  0  0  0  0  0  0  0  0
   35.3653   32.0470   61.8289 N   0  0  0  0  0  0  0  0  0  0  0  0
   29.6536   35.3481   67.6855 O   0  0  0  0  0  0  0  0  0  0  0  0
   32.1838   35.7224   64.5766 S   0  0  0  0  0  0  0  0  0  0  0  0
   33.3591   35.3066   63.4503 C   0  0  0  0  0  0  0  0  0  0  0  0
   36.6462   32.1020   61.3234 C   0  0  0  0  0  0  0  0  0  0  0  0
   28.8128   35.4411   65.3394 O   0  5  0  0  0  0  0  0  0  0  0  0
   33.2041   35.8432   62.2210 N   0  0  0  0  0  0  0  0  0  0  0  0
   37.1792   33.1797   60.8130 N   0  0  0  0  0  0  0  0  0  0  0  0
   27.9349   36.9889   67.0856 O   0  0  0  0  0  0  0  0  0  0  0  0
   32.0590   36.6414   62.1939 C   0  0  2  0  0  0  0  0  0  0  0  0
   36.4392   34.3554   60.7417 C   0  0  0  0  0  0  0  0  0  0  0  0
   37.0050   35.4473   60.2360 N   0  0  0  0  0  0  0  0  0  0  0  0
   31.3679   36.6956   63.3812 C   0  0  1  0  0  0  0  0  0  0  0  0
   35.0661   34.3592   61.2188 C   0  0  0  0  0  0  0  0  0  0  0  0
   30.1117   37.4340   63.6742 C   0  0  0  0  0  0  0  0  0  0  0  0
   34.6166   33.1775   61.7731 C   0  0  0  0  0  0  0  0  0  0  0  0
   30.1614   38.0743   65.0106 C   0  0  0  0  0  0  0  0  0  0  0  0
   34.1774   35.5774   61.0556 C   0  0  0  0  0  0  0  0  0  0  0  0
   30.2138   37.2055   66.1428 O   0  0  0  0  0  0  0  0  0  0  0  0
  1  8  1  0  0  0  0
  3  5  1  1  0  0  0
  3  9  1  0  0  0  0
  3 12  2  0  0  0  0
  3 22  1  0  0  0  0
  4  8  2  0  0  0  0
  4 19  1  0  0  0  0
  6 16  1  0  0  0  0
  6  7  1  0  0  0  0
  7 10  1  0  0  0  0
  8 11  1  0  0  0  0
 10 13  1  0  0  0  0
 10 21  1  0  0  0  0
 11 14  2  0  0  0  0
 13  2  1  6  0  0  0
 13 16  1  0  0  0  0
 14 15  1  0  0  0  0
 14 17  1  0  0  0  0
 16 18  1  6  0  0  0
 17 19  2  0  0  0  0
 17 21  1  0  0  0  0
 18 20  1  0  0  0  0
 20 22  1  0  0  0  0
M  CHG  1   9  -1
M  END
>  <CHROM.1>
18.37005780,41.51690801,-143.75710710,-65.68932708,-63.95798706,171.36645754
32.53556392,35.35597612,63.48784868,-0.09528651,-0.71092443,2.41760278

>  <Name>
ligand

>  <RI>
0

>  <Rbt.Current_Directory>
/home/itssahil/PROJECTS/Mol_Feturizer/New_Systems/rnas/2HOM

>  <Rbt.Executable>
rbdock ($Id: //depot/dev/client3/rdock/2013.1/src/exe/rbdock.cxx#4 $)

>  <Rbt.Library>
libRbt.so (2013.1, Build901 2013/11/27)

>  <Rbt.Parameter_File>
/export/apps/rDock/src/rDock_2013.1_src/data/scripts/dock_solv.prm

>  <Rbt.Receptor>
prm/blind_docking_100.prm

>  <SCORE>
-20.629

>  <SCORE.INTER>
-22.5705

>  <SCORE.INTER.CONST>
1

>  <SCORE.INTER.POLAR>
-1.72455

>  <SCORE.INTER.ROT>
6

>  <SCORE.INTER.SOLV>
14.3153

>  <SCORE.INTER.VDW>
-21.6703

>  <SCORE.INTER.norm>
-1.02593

>  <SCORE.INTRA>
1.94143

>  <SCORE.INTRA.DIHEDRAL>
0.184098

>  <SCORE.INTRA.DIHEDRAL.0>
5.05013

>  <SCORE.INTRA.POLAR>
0

>  <SCORE.INTRA.POLAR.0>
0

>  <SCORE.INTRA.REPUL>
0

>  <SCORE.INTRA.REPUL.0>
0

>  <SCORE.INTRA.SOLV>
2.37971

>  <SCORE.INTRA.SOLV.lig_0>
-54.1265

>  <SCORE.INTRA.VDW>
0.659532

>  <SCORE.INTRA.VDW.0>
-2.1303

>  <SCORE.INTRA.norm>
0.088247

>  <SCORE.RESTR>
0

>  <SCORE.RESTR.CAVITY>
0

>  <SCORE.RESTR.norm>
0

>  <SCORE.SYSTEM>
0

>  <SCORE.SYSTEM.CONST>
0

>  <SCORE.SYSTEM.DIHEDRAL>
0

>  <SCORE.SYSTEM.SOLV>
0

>  <SCORE.SYSTEM.norm>
0

>  <SCORE.heavy>
22

>  <SCORE.norm>
-0.937683

>  <RMSD>
13.143

$$$$
ligand
 OpenBabel11021811443D
libRbt.so/2013.1/901 2013/11/27
 22 23  0  0  0  0  0  0  0  0999 V2000
   29.4190   40.0184   60.3883 C   0  0  0  0  0  0  0  0  0  0  0  0
   34.1790   33.9481   61.6393 C   0  0  0  0  0  0  0  0  0  0  0  0
   37.1688   31.2555   61.2355 P   0  0  1  0  0  0  0  0  0  0  0  0
   31.7891   39.6926   60.3824 N   0  0  0  0  0  0  0  0  0  0  0  0
   38.0249   31.5074   62.4229 O   0  0  0  0  0  0  0  0  0  0  0  0
   35.6716   35.6796   58.3256 S   0  0  0  0  0  0  0  0  0  0  0  0
   35.1366   36.7567   59.4988 C   0  0  0  0  0  0  0  0  0  0  0  0
   30.5688   39.2251   60.8202 C   0  0  0  0  0  0  0  0  0  0  0  0
   37.5054   30.0116   60.4961 O   0  5  0  0  0  0  0  0  0  0  0  0
   34.6331   36.1956   60.6190 N   0  0  0  0  0  0  0  0  0  0  0  0
   30.4246   38.1685   61.5744 N   0  0  0  0  0  0  0  0  0  0  0  0
   35.7203   31.3542   61.6037 O   0  0  0  0  0  0  0  0  0  0  0  0
   34.6859   34.8043   60.5163 C   0  0  2  0  0  0  0  0  0  0  0  0
   31.5402   37.4357   61.9662 C   0  0  0  0  0  0  0  0  0  0  0  0
   31.3753   36.3738   62.7495 N   0  0  0  0  0  0  0  0  0  0  0  0
   35.2148   34.3346   59.3374 C   0  0  1  0  0  0  0  0  0  0  0  0
   32.8564   37.8476   61.5070 C   0  0  0  0  0  0  0  0  0  0  0  0
   35.3912   32.9207   58.9145 C   0  0  0  0  0  0  0  0  0  0  0  0
   32.8972   38.9990   60.7467 C   0  0  0  0  0  0  0  0  0  0  0  0
   36.8228   32.5352   58.9045 C   0  0  0  0  0  0  0  0  0  0  0  0
   34.0912   37.0184   61.8045 C   0  0  0  0  0  0  0  0  0  0  0  0
   37.4603   32.3812   60.1731 O   0  0  0  0  0  0  0  0  0  0  0  0
  1  8  1  0  0  0  0
  3  5  1  1  0  0  0
  3  9  1  0  0  0  0
  3 12  2  0  0  0  0
  3 22  1  0  0  0  0
  4  8  2  0  0  0  0
  4 19  1  0  0  0  0
  6 16  1  0  0  0  0
  6  7  1  0  0  0  0
  7 10  1  0  0  0  0
  8 11  1  0  0  0  0
 10 13  1  0  0  0  0
 10 21  1  0  0  0  0
 11 14  2  0  0  0  0
 13  2  1  6  0  0  0
 13 16  1  0  0  0  0
 14 15  1  0  0  0  0
 14 17  1  0  0  0  0
 16 18  1  6  0  0  0
 17 19  2  0  0  0  0
 17 21  1  0  0  0  0
 18 20  1  0  0  0  0
 20 22  1  0  0  0  0
M  CHG  1   9  -1
M  END
>  <CHROM.1>
64.97695599,71.29506239,104.07950783,71.60214602,68.20405909,-178.05664254
34.52793374,35.03883979,60.62564876,2.60572981,0.75321621,-0.81035352

>  <Name>
ligand

>  <RI>
0

>  <Rbt.Current_Directory>
/home/itssahil/PROJECTS/Mol_Feturizer/New_Systems/rnas/2HOM

>  <Rbt.Executable>
rbdock ($Id: //depot/dev/client3/rdock/2013.1/src/exe/rbdock.cxx#4 $)

>  <Rbt.Library>
libRbt.so (2013.1, Build901 2013/11/27)

>  <Rbt.Parameter_File>
/export/apps/rDock/src/rDock_2013.1_src/data/scripts/dock_solv.prm

>  <Rbt.Receptor>
prm/blind_docking_80.prm

>  <SCORE>
-10.8104

>  <SCORE.INTER>
-13.1598

>  <SCORE.INTER.CONST>
1

>  <SCORE.INTER.POLAR>
0

>  <SCORE.INTER.ROT>
6

>  <SCORE.INTER.SOLV>
16.9309

>  <SCORE.INTER.VDW>
-22.0168

>  <SCORE.INTER.norm>
-0.598175

>  <SCORE.INTRA>
2.00536

>  <SCORE.INTRA.DIHEDRAL>
0.819003

>  <SCORE.INTRA.DIHEDRAL.0>
5.05013

>  <SCORE.INTRA.POLAR>
0

>  <SCORE.INTRA.POLAR.0>
0

>  <SCORE.INTRA.REPUL>
0

>  <SCORE.INTRA.REPUL.0>
0

>  <SCORE.INTRA.SOLV>
4.18937

>  <SCORE.INTRA.SOLV.lig_0>
-54.1265

>  <SCORE.INTRA.VDW>
-0.498828

>  <SCORE.INTRA.VDW.0>
-2.1303

>  <SCORE.INTRA.norm>
0.0911526

>  <SCORE.RESTR>
0.344067

>  <SCORE.RESTR.CAVITY>
0.344067

>  <SCORE.RESTR.norm>
0.0156394

>  <SCORE.SYSTEM>
0

>  <SCORE.SYSTEM.CONST>
0

>  <SCORE.SYSTEM.DIHEDRAL>
0

>  <SCORE.SYSTEM.SOLV>
0

>  <SCORE.SYSTEM.norm>
0

>  <SCORE.heavy>
22

>  <SCORE.norm>
-0.491383

>  <RMSD>
13.154

$$$$
ligand
 OpenBabel11021811443D
libRbt.so/2013.1/901 2013/11/27
 22 23  0  0  0  0  0  0  0  0999 V2000
   29.0998   36.6381   65.1505 C   0  0  0  0  0  0  0  0  0  0  0  0
   35.3049   35.1744   63.3063 C   0  0  0  0  0  0  0  0  0  0  0  0
   37.2226   29.2205   60.1592 P   0  0  1  0  0  0  0  0  0  0  0  0
   31.0019   35.5370   64.2056 N   0  0  0  0  0  0  0  0  0  0  0  0
   36.1577   28.4169   59.5062 O   0  0  0  0  0  0  0  0  0  0  0  0
   34.6941   32.6188   60.2563 S   0  0  0  0  0  0  0  0  0  0  0  0
   33.8169   34.0483   60.1591 C   0  0  0  0  0  0  0  0  0  0  0  0
   30.1178   36.5891   64.1021 C   0  0  0  0  0  0  0  0  0  0  0  0
   37.9800   28.4891   61.2074 O   0  5  0  0  0  0  0  0  0  0  0  0
   34.0085   34.9198   61.1724 N   0  0  0  0  0  0  0  0  0  0  0  0
   30.1553   37.4770   63.1449 N   0  0  0  0  0  0  0  0  0  0  0  0
   38.1014   29.8610   59.1291 O   0  0  0  0  0  0  0  0  0  0  0  0
   34.9251   34.3920   62.0836 C   0  0  2  0  0  0  0  0  0  0  0  0
   31.1384   37.4015   62.1637 C   0  0  0  0  0  0  0  0  0  0  0  0
   31.1493   38.3034   61.1867 N   0  0  0  0  0  0  0  0  0  0  0  0
   35.4056   33.1454   61.7589 C   0  0  1  0  0  0  0  0  0  0  0  0
   32.1301   36.3409   62.2335 C   0  0  0  0  0  0  0  0  0  0  0  0
   36.3702   32.3109   62.5220 C   0  0  0  0  0  0  0  0  0  0  0  0
   31.9741   35.4359   63.2641 C   0  0  0  0  0  0  0  0  0  0  0  0
   37.1910   31.4711   61.6168 C   0  0  0  0  0  0  0  0  0  0  0  0
   33.2922   36.2819   61.2606 C   0  0  0  0  0  0  0  0  0  0  0  0
   36.5329   30.3793   60.9732 O   0  0  0  0  0  0  0  0  0  0  0  0
  1  8  1  0  0  0  0
  3  5  1  6  0  0  0
  3  9  1  0  0  0  0
  3 12  2  0  0  0  0
  3 22  1  0  0  0  0
  4  8  2  0  0  0  0
  4 19  1  0  0  0  0
  6 16  1  0  0  0  0
  6  7  1  0  0  0  0
  7 10  1  0  0  0  0
  8 11  1  0  0  0  0
 10 13  1  0  0  0  0
 10 21  1  0  0  0  0
 11 14  2  0  0  0  0
 13  2  1  1  0  0  0
 13 16  1  0  0  0  0
 14 15  1  0  0  0  0
 14 17  1  0  0  0  0
 16 18  1  1  0  0  0
 17 19  2  0  0  0  0
 17 21  1  0  0  0  0
 18 20  1  0  0  0  0
 20 22  1  0  0  0  0
M  CHG  1   9  -1
M  END
>  <CHROM.1>
102.51555377,31.89672114,-162.57432466,-71.31554380,-169.60083110,-172.02058067
34.30295759,33.38670184,61.63412789,2.90172406,0.86781967,-0.88805826

>  <Name>
ligand

>  <RI>
0

>  <Rbt.Current_Directory>
/home/itssahil/PROJECTS/Mol_Feturizer/New_Systems/rnas/2HOM

>  <Rbt.Executable>
rbdock ($Id: //depot/dev/client3/rdock/2013.1/src/exe/rbdock.cxx#4 $)

>  <Rbt.Library>
libRbt.so (2013.1, Build901 2013/11/27)

>  <Rbt.Parameter_File>
/export/apps/rDock/src/rDock_2013.1_src/data/scripts/dock_solv.prm

>  <Rbt.Receptor>
prm/blind_docking_100.prm

>  <SCORE>
-16.5611

>  <SCORE.INTER>
-17.6968

>  <SCORE.INTER.CONST>
1

>  <SCORE.INTER.POLAR>
0

>  <SCORE.INTER.ROT>
6

>  <SCORE.INTER.SOLV>
14.8375

>  <SCORE.INTER.VDW>
-24.3437

>  <SCORE.INTER.norm>
-0.804401

>  <SCORE.INTRA>
1.13568

>  <SCORE.INTRA.DIHEDRAL>
0.785055

>  <SCORE.INTRA.DIHEDRAL.0>
5.05013

>  <SCORE.INTRA.POLAR>
0

>  <SCORE.INTRA.POLAR.0>
0

>  <SCORE.INTRA.REPUL>
0

>  <SCORE.INTRA.REPUL.0>
0

>  <SCORE.INTRA.SOLV>
0.508145

>  <SCORE.INTRA.SOLV.lig_0>
-54.1265

>  <SCORE.INTRA.VDW>
0.489081

>  <SCORE.INTRA.VDW.0>
-2.1303

>  <SCORE.INTRA.norm>
0.0516219

>  <SCORE.RESTR>
0

>  <SCORE.RESTR.CAVITY>
0

>  <SCORE.RESTR.norm>
0

>  <SCORE.SYSTEM>
0

>  <SCORE.SYSTEM.CONST>
0

>  <SCORE.SYSTEM.DIHEDRAL>
0

>  <SCORE.SYSTEM.SOLV>
0

>  <SCORE.SYSTEM.norm>
0

>  <SCORE.heavy>
22

>  <SCORE.norm>
-0.752779

>  <RMSD>
13.222

$$$$
ligand
 OpenBabel11021811443D
libRbt.so/2013.1/901 2013/11/27
 22 23  0  0  0  0  0  0  0  0999 V2000
   29.2080   40.1547   60.5140 C   0  0  0  0  0  0  0  0  0  0  0  0
   36.3538   35.6045   60.9498 C   0  0  0  0  0  0  0  0  0  0  0  0
   37.4118   30.6691   60.1962 P   0  0  1  0  0  0  0  0  0  0  0  0
   31.4454   39.3776   60.1775 N   0  0  0  0  0  0  0  0  0  0  0  0
   38.6456   30.3196   59.4468 O   0  0  0  0  0  0  0  0  0  0  0  0
   33.7363   34.4842   58.1036 S   0  0  0  0  0  0  0  0  0  0  0  0
   33.0573   35.3314   59.3858 C   0  0  0  0  0  0  0  0  0  0  0  0
   30.2668   39.2121   60.8723 C   0  0  0  0  0  0  0  0  0  0  0  0
   36.3725   29.6075   60.1853 O   0  5  0  0  0  0  0  0  0  0  0  0
   33.9191   35.7172   60.3509 N   0  0  0  0  0  0  0  0  0  0  0  0
   30.0887   38.3032   61.7933 N   0  0  0  0  0  0  0  0  0  0  0  0
   37.7538   31.1515   61.5724 O   0  0  0  0  0  0  0  0  0  0  0  0
   35.2108   35.2979   60.0273 C   0  0  2  0  0  0  0  0  0  0  0  0
   31.1172   37.4214   62.1087 C   0  0  0  0  0  0  0  0  0  0  0  0
   30.9237   36.5148   63.0622 N   0  0  0  0  0  0  0  0  0  0  0  0
   35.3108   34.6060   58.8434 C   0  0  1  0  0  0  0  0  0  0  0  0
   32.3753   37.5114   61.3861 C   0  0  0  0  0  0  0  0  0  0  0  0
   36.5293   34.0148   58.2309 C   0  0  0  0  0  0  0  0  0  0  0  0
   32.4682   38.5319   60.4612 C   0  0  0  0  0  0  0  0  0  0  0  0
   37.2531   33.1516   59.1949 C   0  0  0  0  0  0  0  0  0  0  0  0
   33.4852   36.5011   61.6052 C   0  0  0  0  0  0  0  0  0  0  0  0
   36.7022   31.8581   59.4453 O   0  0  0  0  0  0  0  0  0  0  0  0
  1  8  1  0  0  0  0
  3  5  1  6  0  0  0
  3  9  1  0  0  0  0
  3 12  2  0  0  0  0
  3 22  1  0  0  0  0
  4  8  2  0  0  0  0
  4 19  1  0  0  0  0
  6 16  1  0  0  0  0
  6  7  1  0  0  0  0
  7 10  1  0  0  0  0
  8 11  1  0  0  0  0
 10 13  1  0  0  0  0
 10 21  1  0  0  0  0
 11 14  2  0  0  0  0
 13  2  1  1  0  0  0
 13 16  1  0  0  0  0
 14 15  1  0  0  0  0
 14 17  1  0  0  0  0
 16 18  1  1  0  0  0
 17 19  2  0  0  0  0
 17 21  1  0  0  0  0
 18 20  1  0  0  0  0
 20 22  1  0  0  0  0
M  CHG  1   9  -1
M  END
>  <CHROM.1>
-35.79671871,-127.69906359,120.71714883,76.55392215,167.49447285,-60.15707754
34.34434872,34.81767356,60.22563889,-2.94787030,-0.83793785,1.99261709

>  <Name>
ligand

>  <RI>
0

>  <Rbt.Current_Directory>
/home/itssahil/PROJECTS/Mol_Feturizer/New_Systems/rnas/2HOM

>  <Rbt.Executable>
rbdock ($Id: //depot/dev/client3/rdock/2013.1/src/exe/rbdock.cxx#4 $)

>  <Rbt.Library>
libRbt.so (2013.1, Build901 2013/11/27)

>  <Rbt.Parameter_File>
/export/apps/rDock/src/rDock_2013.1_src/data/scripts/dock_solv.prm

>  <Rbt.Receptor>
prm/blind_docking_80.prm

>  <SCORE>
-10.8578

>  <SCORE.INTER>
-12.2932

>  <SCORE.INTER.CONST>
1

>  <SCORE.INTER.POLAR>
0

>  <SCORE.INTER.ROT>
6

>  <SCORE.INTER.SOLV>
18.24

>  <SCORE.INTER.VDW>
-21.8755

>  <SCORE.INTER.norm>
-0.558784

>  <SCORE.INTRA>
1.37929

>  <SCORE.INTRA.DIHEDRAL>
1.27579

>  <SCORE.INTRA.DIHEDRAL.0>
5.05013

>  <SCORE.INTRA.POLAR>
0

>  <SCORE.INTRA.POLAR.0>
0

>  <SCORE.INTRA.REPUL>
0

>  <SCORE.INTRA.REPUL.0>
0

>  <SCORE.INTRA.SOLV>
-0.0350878

>  <SCORE.INTRA.SOLV.lig_0>
-54.1265

>  <SCORE.INTRA.VDW>
0.758943

>  <SCORE.INTRA.VDW.0>
-2.1303

>  <SCORE.INTRA.norm>
0.0626952

>  <SCORE.RESTR>
0.0561115

>  <SCORE.RESTR.CAVITY>
0.0561115

>  <SCORE.RESTR.norm>
0.00255052

>  <SCORE.SYSTEM>
0

>  <SCORE.SYSTEM.CONST>
0

>  <SCORE.SYSTEM.DIHEDRAL>
0

>  <SCORE.SYSTEM.SOLV>
0

>  <SCORE.SYSTEM.norm>
0

>  <SCORE.heavy>
22

>  <SCORE.norm>
-0.493538

>  <RMSD>
13.238

$$$$
ligand
 OpenBabel11021811443D
libRbt.so/2013.1/901 2013/11/27
 22 23  0  0  0  0  0  0  0  0999 V2000
   31.4166   35.6504   65.2747 C   0  0  0  0  0  0  0  0  0  0  0  0
   33.7431   35.4611   59.3310 C   0  0  0  0  0  0  0  0  0  0  0  0
   36.1734   31.6153   61.1801 P   0  0  1  0  0  0  0  0  0  0  0  0
   33.3664   35.9128   63.9136 N   0  0  0  0  0  0  0  0  0  0  0  0
   36.2092   30.3334   60.4307 O   0  0  0  0  0  0  0  0  0  0  0  0
   37.6376   36.4742   59.4458 S   0  0  0  0  0  0  0  0  0  0  0  0
   36.6128   37.5384   60.2458 C   0  0  0  0  0  0  0  0  0  0  0  0
   32.0529   36.2768   64.1169 C   0  0  0  0  0  0  0  0  0  0  0  0
   34.9984   31.7624   62.0773 O   0  5  0  0  0  0  0  0  0  0  0  0
   35.3019   37.2157   60.2199 N   0  0  0  0  0  0  0  0  0  0  0  0
   31.4004   37.1021   63.3427 N   0  0  0  0  0  0  0  0  0  0  0  0
   37.4812   31.8555   61.8698 O   0  0  0  0  0  0  0  0  0  0  0  0
   35.1204   36.0302   59.5053 C   0  0  2  0  0  0  0  0  0  0  0  0
   32.0368   37.6814   62.2498 C   0  0  0  0  0  0  0  0  0  0  0  0
   31.3510   38.5046   61.4623 N   0  0  0  0  0  0  0  0  0  0  0  0
   36.2753   35.4799   59.0018 C   0  0  1  0  0  0  0  0  0  0  0  0
   33.4353   37.3745   61.9987 C   0  0  0  0  0  0  0  0  0  0  0  0
   36.4196   34.2437   58.1893 C   0  0  0  0  0  0  0  0  0  0  0  0
   34.0161   36.4616   62.8560 C   0  0  0  0  0  0  0  0  0  0  0  0
   36.8100   33.0873   59.0311 C   0  0  0  0  0  0  0  0  0  0  0  0
   34.2096   38.0687   60.8947 C   0  0  0  0  0  0  0  0  0  0  0  0
   35.9681   32.7836   60.1439 O   0  0  0  0  0  0  0  0  0  0  0  0
  1  8  1  0  0  0  0
  3  5  1  6  0  0  0
  3  9  1  0  0  0  0
  3 12  2  0  0  0  0
  3 22  1  0  0  0  0
  4  8  2  0  0  0  0
  4 19  1  0  0  0  0
  6 16  1  0  0  0  0
  6  7  1  0  0  0  0
  7 10  1  0  0  0  0
  8 11  1  0  0  0  0
 10 13  1  0  0  0  0
 10 21  1  0  0  0  0
 11 14  2  0  0  0  0
 13  2  1  6  0  0  0
 13 16  1  0  0  0  0
 14 15  1  0  0  0  0
 14 17  1  0  0  0  0
 16 18  1  6  0  0  0
 17 19  2  0  0  0  0
 17 21  1  0  0  0  0
 18 20  1  0  0  0  0
 20 22  1  0  0  0  0
M  CHG  1   9  -1
M  END
>  <CHROM.1>
-118.17009418,82.60099950,-147.59885021,55.42835909,-179.81205811,-57.70080946
34.91513653,35.05040773,61.11687784,2.61785106,0.76659520,-0.36865375

>  <Name>
ligand

>  <RI>
0

>  <Rbt.Current_Directory>
/home/itssahil/PROJECTS/Mol_Feturizer/New_Systems/rnas/2HOM

>  <Rbt.Executable>
rbdock ($Id: //depot/dev/client3/rdock/2013.1/src/exe/rbdock.cxx#4 $)

>  <Rbt.Library>
libRbt.so (2013.1, Build901 2013/11/27)

>  <Rbt.Parameter_File>
/export/apps/rDock/src/rDock_2013.1_src/data/scripts/dock_solv.prm

>  <Rbt.Receptor>
prm/blind_docking_100.prm

>  <SCORE>
-17.3205

>  <SCORE.INTER>
-16.8374

>  <SCORE.INTER.CONST>
1

>  <SCORE.INTER.POLAR>
0

>  <SCORE.INTER.ROT>
6

>  <SCORE.INTER.SOLV>
18.363

>  <SCORE.INTER.VDW>
-24.9459

>  <SCORE.INTER.norm>
-0.765337

>  <SCORE.INTRA>
-0.483111

>  <SCORE.INTRA.DIHEDRAL>
-0.077074

>  <SCORE.INTRA.DIHEDRAL.0>
5.05013

>  <SCORE.INTRA.POLAR>
0

>  <SCORE.INTRA.POLAR.0>
0

>  <SCORE.INTRA.REPUL>
0

>  <SCORE.INTRA.REPUL.0>
0

>  <SCORE.INTRA.SOLV>
0.339929

>  <SCORE.INTRA.SOLV.lig_0>
-54.1265

>  <SCORE.INTRA.VDW>
-0.614539

>  <SCORE.INTRA.VDW.0>
-2.1303

>  <SCORE.INTRA.norm>
-0.0219596

>  <SCORE.RESTR>
0

>  <SCORE.RESTR.CAVITY>
0

>  <SCORE.RESTR.norm>
0

>  <SCORE.SYSTEM>
0

>  <SCORE.SYSTEM.CONST>
0

>  <SCORE.SYSTEM.DIHEDRAL>
0

>  <SCORE.SYSTEM.SOLV>
0

>  <SCORE.SYSTEM.norm>
0

>  <SCORE.heavy>
22

>  <SCORE.norm>
-0.787297

>  <RMSD>
13.438

$$$$
ligand
 OpenBabel11021811443D
libRbt.so/2013.1/901 2013/11/27
 22 23  0  0  0  0  0  0  0  0999 V2000
   29.6849   40.0015   60.1696 C   0  0  0  0  0  0  0  0  0  0  0  0
   34.6223   33.8504   62.9092 C   0  0  0  0  0  0  0  0  0  0  0  0
   37.6325   30.0174   59.4119 P   0  0  1  0  0  0  0  0  0  0  0  0
   32.0108   39.4502   60.2674 N   0  0  0  0  0  0  0  0  0  0  0  0
   39.1084   30.1453   59.5191 O   0  0  0  0  0  0  0  0  0  0  0  0
   34.5921   34.2248   58.9010 S   0  0  0  0  0  0  0  0  0  0  0  0
   34.2744   35.6453   59.7400 C   0  0  0  0  0  0  0  0  0  0  0  0
   30.7421   39.1513   60.7150 C   0  0  0  0  0  0  0  0  0  0  0  0
   37.0041   30.9889   58.4799 O   0  5  0  0  0  0  0  0  0  0  0  0
   34.2810   35.5411   61.0861 N   0  0  0  0  0  0  0  0  0  0  0  0
   30.4797   38.1994   61.5700 N   0  0  0  0  0  0  0  0  0  0  0  0
   37.2486   28.5960   59.1360 O   0  0  0  0  0  0  0  0  0  0  0  0
   34.5616   34.2249   61.4576 C   0  0  2  0  0  0  0  0  0  0  0  0
   31.5096   37.4082   62.0682 C   0  0  0  0  0  0  0  0  0  0  0  0
   31.2256   36.4560   62.9520 N   0  0  0  0  0  0  0  0  0  0  0  0
   34.7559   33.3601   60.4066 C   0  0  1  0  0  0  0  0  0  0  0  0
   32.8687   37.6404   61.6079 C   0  0  0  0  0  0  0  0  0  0  0  0
   35.0508   31.9044   60.4640 C   0  0  0  0  0  0  0  0  0  0  0  0
   33.0378   38.6956   60.7340 C   0  0  0  0  0  0  0  0  0  0  0  0
   36.3551   31.6435   61.1190 C   0  0  0  0  0  0  0  0  0  0  0  0
   34.0095   36.7324   62.0259 C   0  0  0  0  0  0  0  0  0  0  0  0
   37.0039   30.4117   60.8012 O   0  0  0  0  0  0  0  0  0  0  0  0
  1  8  1  0  0  0  0
  3  5  1  1  0  0  0
  3  9  1  0  0  0  0
  3 12  2  0  0  0  0
  3 22  1  0  0  0  0
  4  8  2  0  0  0  0
  4 19  1  0  0  0  0
  6 16  1  0  0  0  0
  6  7  1  0  0  0  0
  7 10  1  0  0  0  0
  8 11  1  0  0  0  0
 10 13  1  0  0  0  0
 10 21  1  0  0  0  0
 11 14  2  0  0  0  0
 13  2  1  6  0  0  0
 13 16  1  0  0  0  0
 14 15  1  0  0  0  0
 14 17  1  0  0  0  0
 16 18  1  6  0  0  0
 17 19  2  0  0  0  0
 17 21  1  0  0  0  0
 18 20  1  0  0  0  0
 20 22  1  0  0  0  0
M  CHG  1   9  -1
M  END
>  <CHROM.1>
42.44637466,116.93013085,90.89543308,-156.49539813,68.44658571,103.32820042
34.49089337,34.30310478,60.51154798,-2.99687728,-0.94500517,1.93232491

>  <Name>
ligand

>  <RI>
0

>  <Rbt.Current_Directory>
/home/itssahil/PROJECTS/Mol_Feturizer/New_Systems/rnas/2HOM

>  <Rbt.Executable>
rbdock ($Id: //depot/dev/client3/rdock/2013.1/src/exe/rbdock.cxx#4 $)

>  <Rbt.Library>
libRbt.so (2013.1, Build901 2013/11/27)

>  <Rbt.Parameter_File>
/export/apps/rDock/src/rDock_2013.1_src/data/scripts/dock_solv.prm

>  <Rbt.Receptor>
prm/blind_docking_80.prm

>  <SCORE>
-6.37242

>  <SCORE.INTER>
-10.2132

>  <SCORE.INTER.CONST>
1

>  <SCORE.INTER.POLAR>
0

>  <SCORE.INTER.ROT>
6

>  <SCORE.INTER.SOLV>
15.1985

>  <SCORE.INTER.VDW>
-19.475

>  <SCORE.INTER.norm>
-0.464237

>  <SCORE.INTRA>
3.83237

>  <SCORE.INTRA.DIHEDRAL>
3.53223

>  <SCORE.INTRA.DIHEDRAL.0>
5.05013

>  <SCORE.INTRA.POLAR>
0

>  <SCORE.INTRA.POLAR.0>
0

>  <SCORE.INTRA.REPUL>
0

>  <SCORE.INTRA.REPUL.0>
0

>  <SCORE.INTRA.SOLV>
2.40262

>  <SCORE.INTRA.SOLV.lig_0>
-54.1265

>  <SCORE.INTRA.VDW>
0.864948

>  <SCORE.INTRA.VDW.0>
-2.1303

>  <SCORE.INTRA.norm>
0.174199

>  <SCORE.RESTR>
0.00842613

>  <SCORE.RESTR.CAVITY>
0.00842613

>  <SCORE.RESTR.norm>
0.000383006

>  <SCORE.SYSTEM>
0

>  <SCORE.SYSTEM.CONST>
0

>  <SCORE.SYSTEM.DIHEDRAL>
0

>  <SCORE.SYSTEM.SOLV>
0

>  <SCORE.SYSTEM.norm>
0

>  <SCORE.heavy>
22

>  <SCORE.norm>
-0.289656

>  <RMSD>
13.451

$$$$
ligand
 OpenBabel11021811443D
libRbt.so/2013.1/901 2013/11/27
 22 23  0  0  0  0  0  0  0  0999 V2000
   29.5748   39.6581   60.6924 C   0  0  0  0  0  0  0  0  0  0  0  0
   35.1954   34.9397   62.8690 C   0  0  0  0  0  0  0  0  0  0  0  0
   37.3788   29.4438   60.2917 P   0  0  1  0  0  0  0  0  0  0  0  0
   31.8809   39.5382   60.0677 N   0  0  0  0  0  0  0  0  0  0  0  0
   37.7793   28.7781   61.5577 O   0  0  0  0  0  0  0  0  0  0  0  0
   34.1142   33.1595   59.4239 S   0  0  0  0  0  0  0  0  0  0  0  0
   34.1729   34.8372   59.3574 C   0  0  0  0  0  0  0  0  0  0  0  0
   30.8470   38.9402   60.7551 C   0  0  0  0  0  0  0  0  0  0  0  0
   38.3993   30.3750   59.7452 O   0  5  0  0  0  0  0  0  0  0  0  0
   34.5346   35.4536   60.5030 N   0  0  0  0  0  0  0  0  0  0  0  0
   30.9711   37.8285   61.4294 N   0  0  0  0  0  0  0  0  0  0  0  0
   36.9039   28.4314   59.2951 O   0  0  0  0  0  0  0  0  0  0  0  0
   34.7789   34.5026   61.4954 C   0  0  2  0  0  0  0  0  0  0  0  0
   32.1960   37.1704   61.4671 C   0  0  0  0  0  0  0  0  0  0  0  0
   32.3079   36.0498   62.1741 N   0  0  0  0  0  0  0  0  0  0  0  0
   34.5975   33.1986   61.0991 C   0  0  1  0  0  0  0  0  0  0  0  0
   33.3208   37.7227   60.7302 C   0  0  0  0  0  0  0  0  0  0  0  0
   34.7569   31.9656   61.9137 C   0  0  0  0  0  0  0  0  0  0  0  0
   33.0891   38.9202   60.0838 C   0  0  0  0  0  0  0  0  0  0  0  0
   36.0771   31.3322   61.6809 C   0  0  0  0  0  0  0  0  0  0  0  0
   34.6430   36.9852   60.6390 C   0  0  0  0  0  0  0  0  0  0  0  0
   36.1665   30.4001   60.6028 O   0  0  0  0  0  0  0  0  0  0  0  0
  1  8  1  0  0  0  0
  3  5  1  1  0  0  0
  3  9  1  0  0  0  0
  3 12  2  0  0  0  0
  3 22  1  0  0  0  0
  4  8  2  0  0  0  0
  4 19  1  0  0  0  0
  6 16  1  0  0  0  0
  6  7  1  0  0  0  0
  7 10  1  0  0  0  0
  8 11  1  0  0  0  0
 10 13  1  0  0  0  0
 10 21  1  0  0  0  0
 11 14  2  0  0  0  0
 13  2  1  1  0  0  0
 13 16  1  0  0  0  0
 14 15  1  0  0  0  0
 14 17  1  0  0  0  0
 16 18  1  1  0  0  0
 17 19  2  0  0  0  0
 17 21  1  0  0  0  0
 18 20  1  0  0  0  0
 20 22  1  0  0  0  0
M  CHG  1   9  -1
M  END
>  <CHROM.1>
75.11981012,82.00748578,37.88566843,-87.90025396,-170.10322194,47.28034880
34.50741759,34.01991802,60.71056384,3.05201495,-1.01565662,1.50783432

>  <Name>
ligand

>  <RI>
0

>  <Rbt.Current_Directory>
/home/itssahil/PROJECTS/Mol_Feturizer/New_Systems/rnas/2HOM

>  <Rbt.Executable>
rbdock ($Id: //depot/dev/client3/rdock/2013.1/src/exe/rbdock.cxx#4 $)

>  <Rbt.Library>
libRbt.so (2013.1, Build901 2013/11/27)

>  <Rbt.Parameter_File>
/export/apps/rDock/src/rDock_2013.1_src/data/scripts/dock_solv.prm

>  <Rbt.Receptor>
prm/blind_docking_80.prm

>  <SCORE>
-10.1735

>  <SCORE.INTER>
-13.5587

>  <SCORE.INTER.CONST>
1

>  <SCORE.INTER.POLAR>
0

>  <SCORE.INTER.ROT>
6

>  <SCORE.INTER.SOLV>
14.6512

>  <SCORE.INTER.VDW>
-21.5229

>  <SCORE.INTER.norm>
-0.616306

>  <SCORE.INTRA>
2.96242

>  <SCORE.INTRA.DIHEDRAL>
3.27443

>  <SCORE.INTRA.DIHEDRAL.0>
5.05013

>  <SCORE.INTRA.POLAR>
0

>  <SCORE.INTRA.POLAR.0>
0

>  <SCORE.INTRA.REPUL>
0

>  <SCORE.INTRA.REPUL.0>
0

>  <SCORE.INTRA.SOLV>
3.78323

>  <SCORE.INTRA.SOLV.lig_0>
-54.1265

>  <SCORE.INTRA.VDW>
-0.566414

>  <SCORE.INTRA.VDW.0>
-2.1303

>  <SCORE.INTRA.norm>
0.134655

>  <SCORE.RESTR>
0.422786

>  <SCORE.RESTR.CAVITY>
0.422786

>  <SCORE.RESTR.norm>
0.0192175

>  <SCORE.SYSTEM>
0

>  <SCORE.SYSTEM.CONST>
0

>  <SCORE.SYSTEM.DIHEDRAL>
0

>  <SCORE.SYSTEM.SOLV>
0

>  <SCORE.SYSTEM.norm>
0

>  <SCORE.heavy>
22

>  <SCORE.norm>
-0.462433

>  <RMSD>
13.587

$$$$
ligand
 OpenBabel11021811443D
libRbt.so/2013.1/901 2013/11/27
 22 23  0  0  0  0  0  0  0  0999 V2000
   29.5648   39.5525   60.5675 C   0  0  0  0  0  0  0  0  0  0  0  0
   34.9722   34.3618   62.6257 C   0  0  0  0  0  0  0  0  0  0  0  0
   37.4595   28.8776   60.5432 P   0  0  1  0  0  0  0  0  0  0  0  0
   31.9172   39.4553   60.1436 N   0  0  0  0  0  0  0  0  0  0  0  0
   36.6111   27.9860   59.7116 O   0  0  0  0  0  0  0  0  0  0  0  0
   34.5593   33.6779   58.6800 S   0  0  0  0  0  0  0  0  0  0  0  0
   34.5282   35.2998   59.1172 C   0  0  0  0  0  0  0  0  0  0  0  0
   30.8382   38.8605   60.7610 C   0  0  0  0  0  0  0  0  0  0  0  0
   38.0181   28.2272   61.7566 O   0  5  0  0  0  0  0  0  0  0  0  0
   34.6662   35.5506   60.4367 N   0  0  0  0  0  0  0  0  0  0  0  0
   30.9221   37.7733   61.4800 N   0  0  0  0  0  0  0  0  0  0  0  0
   38.4975   29.5504   59.6985 O   0  0  0  0  0  0  0  0  0  0  0  0
   34.8058   34.3496   61.1346 C   0  0  2  0  0  0  0  0  0  0  0  0
   32.1496   37.1394   61.6426 C   0  0  0  0  0  0  0  0  0  0  0  0
   32.2187   36.0441   62.3934 N   0  0  0  0  0  0  0  0  0  0  0  0
   34.7672   33.2211   60.3502 C   0  0  1  0  0  0  0  0  0  0  0  0
   33.3240   37.6887   60.9852 C   0  0  0  0  0  0  0  0  0  0  0  0
   34.8681   31.8030   60.7840 C   0  0  0  0  0  0  0  0  0  0  0  0
   33.1292   38.8606   60.2821 C   0  0  0  0  0  0  0  0  0  0  0  0
   36.2238   31.2574   60.5337 C   0  0  0  0  0  0  0  0  0  0  0  0
   34.6606   36.9732   61.0302 C   0  0  0  0  0  0  0  0  0  0  0  0
   36.5410   30.0066   61.1454 O   0  0  0  0  0  0  0  0  0  0  0  0
  1  8  1  0  0  0  0
  3  5  1  6  0  0  0
  3  9  1  0  0  0  0
  3 12  2  0  0  0  0
  3 22  1  0  0  0  0
  4  8  2  0  0  0  0
  4 19  1  0  0  0  0
  6 16  1  0  0  0  0
  6  7  1  0  0  0  0
  7 10  1  0  0  0  0
  8 11  1  0  0  0  0
 10 13  1  0  0  0  0
 10 21  1  0  0  0  0
 11 14  2  0  0  0  0
 13  2  1  1  0  0  0
 13 16  1  0  0  0  0
 14 15  1  0  0  0  0
 14 17  1  0  0  0  0
 16 18  1  1  0  0  0
 17 19  2  0  0  0  0
 17 21  1  0  0  0  0
 18 20  1  0  0  0  0
 20 22  1  0  0  0  0
M  CHG  1   9  -1
M  END
>  <CHROM.1>
69.47746674,78.85020416,59.33228294,167.56324269,145.68458157,-88.07106146
34.59798353,33.87479421,60.60759259,2.83430691,1.00066560,-1.17480263

>  <Name>
ligand

>  <RI>
0

>  <Rbt.Current_Directory>
/home/itssahil/PROJECTS/Mol_Feturizer/New_Systems/rnas/2HOM

>  <Rbt.Executable>
rbdock ($Id: //depot/dev/client3/rdock/2013.1/src/exe/rbdock.cxx#4 $)

>  <Rbt.Library>
libRbt.so (2013.1, Build901 2013/11/27)

>  <Rbt.Parameter_File>
/export/apps/rDock/src/rDock_2013.1_src/data/scripts/dock_solv.prm

>  <Rbt.Receptor>
prm/blind_docking_80.prm

>  <SCORE>
-7.76112

>  <SCORE.INTER>
-12.1928

>  <SCORE.INTER.CONST>
1

>  <SCORE.INTER.POLAR>
0

>  <SCORE.INTER.ROT>
6

>  <SCORE.INTER.SOLV>
18.3438

>  <SCORE.INTER.VDW>
-21.8431

>  <SCORE.INTER.norm>
-0.554219

>  <SCORE.INTRA>
4.40056

>  <SCORE.INTRA.DIHEDRAL>
6.08608

>  <SCORE.INTRA.DIHEDRAL.0>
5.05013

>  <SCORE.INTRA.POLAR>
0

>  <SCORE.INTRA.POLAR.0>
0

>  <SCORE.INTRA.REPUL>
0

>  <SCORE.INTRA.REPUL.0>
0

>  <SCORE.INTRA.SOLV>
3.08146

>  <SCORE.INTRA.SOLV.lig_0>
-54.1265

>  <SCORE.INTRA.VDW>
-0.183208

>  <SCORE.INTRA.VDW.0>
-2.1303

>  <SCORE.INTRA.norm>
0.200026

>  <SCORE.RESTR>
0.0311392

>  <SCORE.RESTR.CAVITY>
0.0311392

>  <SCORE.RESTR.norm>
0.00141542

>  <SCORE.SYSTEM>
0

>  <SCORE.SYSTEM.CONST>
0

>  <SCORE.SYSTEM.DIHEDRAL>
0

>  <SCORE.SYSTEM.SOLV>
0

>  <SCORE.SYSTEM.norm>
0

>  <SCORE.heavy>
22

>  <SCORE.norm>
-0.352778

>  <RMSD>
13.788

$$$$
ligand
 OpenBabel11021811443D
libRbt.so/2013.1/901 2013/11/27
 22 23  0  0  0  0  0  0  0  0999 V2000
   29.8339   39.5941   60.8355 C   0  0  0  0  0  0  0  0  0  0  0  0
   36.6864   34.7112   59.5048 C   0  0  0  0  0  0  0  0  0  0  0  0
   37.7492   29.4758   60.2553 P   0  0  1  0  0  0  0  0  0  0  0  0
   32.1741   39.5069   61.3243 N   0  0  0  0  0  0  0  0  0  0  0  0
   38.7518   30.3518   59.5966 O   0  0  0  0  0  0  0  0  0  0  0  0
   34.6737   33.6077   62.8121 S   0  0  0  0  0  0  0  0  0  0  0  0
   34.3927   35.1879   62.3153 C   0  0  0  0  0  0  0  0  0  0  0  0
   31.0928   38.8530   60.7741 C   0  0  0  0  0  0  0  0  0  0  0  0
   37.7141   28.0877   59.7269 O   0  5  0  0  0  0  0  0  0  0  0  0
   35.0579   35.5774   61.2067 N   0  0  0  0  0  0  0  0  0  0  0  0
   31.1577   37.6597   60.2471 N   0  0  0  0  0  0  0  0  0  0  0  0
   37.8947   29.5411   61.7446 O   0  0  0  0  0  0  0  0  0  0  0  0
   35.8442   34.5258   60.7326 C   0  0  2  0  0  0  0  0  0  0  0  0
   32.3723   36.9831   60.2040 C   0  0  0  0  0  0  0  0  0  0  0  0
   32.4150   35.7614   59.6805 N   0  0  0  0  0  0  0  0  0  0  0  0
   35.7716   33.3725   61.4776 C   0  0  1  0  0  0  0  0  0  0  0  0
   33.5635   37.6298   60.7291 C   0  0  0  0  0  0  0  0  0  0  0  0
   36.4924   32.0923   61.2521 C   0  0  0  0  0  0  0  0  0  0  0  0
   33.3742   38.8737   61.2968 C   0  0  0  0  0  0  0  0  0  0  0  0
   35.6465   31.1186   60.5208 C   0  0  0  0  0  0  0  0  0  0  0  0
   34.9318   36.9885   60.5993 C   0  0  0  0  0  0  0  0  0  0  0  0
   36.3143   30.0196   59.8999 O   0  0  0  0  0  0  0  0  0  0  0  0
  1  8  1  0  0  0  0
  3  5  1  6  0  0  0
  3  9  1  0  0  0  0
  3 12  2  0  0  0  0
  3 22  1  0  0  0  0
  4  8  2  0  0  0  0
  4 19  1  0  0  0  0
  6 16  1  0  0  0  0
  6  7  1  0  0  0  0
  7 10  1  0  0  0  0
  8 11  1  0  0  0  0
 10 13  1  0  0  0  0
 10 21  1  0  0  0  0
 11 14  2  0  0  0  0
 13  2  1  1  0  0  0
 13 16  1  0  0  0  0
 14 15  1  0  0  0  0
 14 17  1  0  0  0  0
 16 18  1  1  0  0  0
 17 19  2  0  0  0  0
 17 21  1  0  0  0  0
 18 20  1  0  0  0  0
 20 22  1  0  0  0  0
M  CHG  1   9  -1
M  END
>  <CHROM.1>
-34.11958785,83.51502903,-57.03256728,162.22582207,20.21319767,-80.19621233
34.97130818,34.03920640,60.81587577,2.64066629,0.90255771,-0.91049139

>  <Name>
ligand

>  <RI>
0

>  <Rbt.Current_Directory>
/home/itssahil/PROJECTS/Mol_Feturizer/New_Systems/rnas/2HOM

>  <Rbt.Executable>
rbdock ($Id: //depot/dev/client3/rdock/2013.1/src/exe/rbdock.cxx#4 $)

>  <Rbt.Library>
libRbt.so (2013.1, Build901 2013/11/27)

>  <Rbt.Parameter_File>
/export/apps/rDock/src/rDock_2013.1_src/data/scripts/dock_solv.prm

>  <Rbt.Receptor>
prm/blind_docking_80.prm

>  <SCORE>
-4.07477

>  <SCORE.INTER>
-10.0842

>  <SCORE.INTER.CONST>
1

>  <SCORE.INTER.POLAR>
0

>  <SCORE.INTER.ROT>
6

>  <SCORE.INTER.SOLV>
19.4389

>  <SCORE.INTER.VDW>
-20.8024

>  <SCORE.INTER.norm>
-0.458371

>  <SCORE.INTRA>
5.70538

>  <SCORE.INTRA.DIHEDRAL>
7.0328

>  <SCORE.INTRA.DIHEDRAL.0>
5.05013

>  <SCORE.INTRA.POLAR>
0

>  <SCORE.INTRA.POLAR.0>
0

>  <SCORE.INTRA.REPUL>
0

>  <SCORE.INTRA.REPUL.0>
0

>  <SCORE.INTRA.SOLV>
3.1989

>  <SCORE.INTRA.SOLV.lig_0>
-54.1265

>  <SCORE.INTRA.VDW>
0.589523

>  <SCORE.INTRA.VDW.0>
-2.1303

>  <SCORE.INTRA.norm>
0.259335

>  <SCORE.RESTR>
0.304004

>  <SCORE.RESTR.CAVITY>
0.304004

>  <SCORE.RESTR.norm>
0.0138184

>  <SCORE.SYSTEM>
0

>  <SCORE.SYSTEM.CONST>
0

>  <SCORE.SYSTEM.DIHEDRAL>
0

>  <SCORE.SYSTEM.SOLV>
0

>  <SCORE.SYSTEM.norm>
0

>  <SCORE.heavy>
22

>  <SCORE.norm>
-0.185217

>  <RMSD>
13.868

$$$$
ligand
 OpenBabel11021811443D
libRbt.so/2013.1/901 2013/11/27
 22 23  0  0  0  0  0  0  0  0999 V2000
   29.9695   39.8041   60.4237 C   0  0  0  0  0  0  0  0  0  0  0  0
   35.0616   33.1867   63.0650 C   0  0  0  0  0  0  0  0  0  0  0  0
   37.6002   28.9390   59.5772 P   0  0  1  0  0  0  0  0  0  0  0  0
   30.4834   37.9030   61.7820 N   0  0  0  0  0  0  0  0  0  0  0  0
   36.1965   28.4535   59.5647 O   0  0  0  0  0  0  0  0  0  0  0  0
   34.1582   33.2747   59.1429 S   0  0  0  0  0  0  0  0  0  0  0  0
   33.6707   34.6319   60.0050 C   0  0  0  0  0  0  0  0  0  0  0  0
   30.9350   38.7799   60.8196 C   0  0  0  0  0  0  0  0  0  0  0  0
   38.5756   27.9649   60.1311 O   0  5  0  0  0  0  0  0  0  0  0  0
   33.9654   34.6224   61.3226 N   0  0  0  0  0  0  0  0  0  0  0  0
   32.1213   38.7139   60.2771 N   0  0  0  0  0  0  0  0  0  0  0  0
   37.9851   29.4631   58.2278 O   0  0  0  0  0  0  0  0  0  0  0  0
   34.6283   33.4384   61.6507 C   0  0  2  0  0  0  0  0  0  0  0  0
   33.0160   37.7272   60.6781 C   0  0  0  0  0  0  0  0  0  0  0  0
   34.2124   37.6643   60.1011 N   0  0  0  0  0  0  0  0  0  0  0  0
   34.8206   32.5762   60.5972 C   0  0  1  0  0  0  0  0  0  0  0  0
   32.6214   36.7927   61.7193 C   0  0  0  0  0  0  0  0  0  0  0  0
   35.4700   31.2395   60.6174 C   0  0  0  0  0  0  0  0  0  0  0  0
   31.3331   36.9291   62.1958 C   0  0  0  0  0  0  0  0  0  0  0  0
   36.9460   31.3555   60.5379 C   0  0  0  0  0  0  0  0  0  0  0  0
   33.5977   35.7751   62.2777 C   0  0  0  0  0  0  0  0  0  0  0  0
   37.6945   30.1405   60.5913 O   0  0  0  0  0  0  0  0  0  0  0  0
  1  8  1  0  0  0  0
  3  5  1  6  0  0  0
  3  9  1  0  0  0  0
  3 12  2  0  0  0  0
  3 22  1  0  0  0  0
  4  8  2  0  0  0  0
  4 19  1  0  0  0  0
  6 16  1  0  0  0  0
  6  7  1  0  0  0  0
  7 10  1  0  0  0  0
  8 11  1  0  0  0  0
 10 13  1  0  0  0  0
 10 21  1  0  0  0  0
 11 14  2  0  0  0  0
 13  2  1  1  0  0  0
 13 16  1  0  0  0  0
 14 15  1  0  0  0  0
 14 17  1  0  0  0  0
 16 18  1  1  0  0  0
 17 19  2  0  0  0  0
 17 21  1  0  0  0  0
 18 20  1  0  0  0  0
 20 22  1  0  0  0  0
M  CHG  1   9  -1
M  END
>  <CHROM.1>
12.68825469,97.78853798,-71.10686360,178.06844818,60.45476692,-58.26694666
34.59718471,33.58693403,60.52205347,3.07983094,-0.99428824,1.64118323

>  <Name>
ligand

>  <RI>
0

>  <Rbt.Current_Directory>
/home/itssahil/PROJECTS/Mol_Feturizer/New_Systems/rnas/2HOM

>  <Rbt.Executable>
rbdock ($Id: //depot/dev/client3/rdock/2013.1/src/exe/rbdock.cxx#4 $)

>  <Rbt.Library>
libRbt.so (2013.1, Build901 2013/11/27)

>  <Rbt.Parameter_File>
/export/apps/rDock/src/rDock_2013.1_src/data/scripts/dock_solv.prm

>  <Rbt.Receptor>
prm/blind_docking_80.prm

>  <SCORE>
-12.5085

>  <SCORE.INTER>
-13.5778

>  <SCORE.INTER.CONST>
1

>  <SCORE.INTER.POLAR>
0

>  <SCORE.INTER.ROT>
6

>  <SCORE.INTER.SOLV>
13.7258

>  <SCORE.INTER.VDW>
-21.2272

>  <SCORE.INTER.norm>
-0.617175

>  <SCORE.INTRA>
1.06077

>  <SCORE.INTRA.DIHEDRAL>
-0.201

>  <SCORE.INTRA.DIHEDRAL.0>
5.05013

>  <SCORE.INTRA.POLAR>
0

>  <SCORE.INTRA.POLAR.0>
0

>  <SCORE.INTRA.REPUL>
0

>  <SCORE.INTRA.REPUL.0>
0

>  <SCORE.INTRA.SOLV>
1.95732

>  <SCORE.INTRA.SOLV.lig_0>
-54.1265

>  <SCORE.INTRA.VDW>
0.182615

>  <SCORE.INTRA.VDW.0>
-2.1303

>  <SCORE.INTRA.norm>
0.048217

>  <SCORE.RESTR>
0.00858355

>  <SCORE.RESTR.CAVITY>
0.00858355

>  <SCORE.RESTR.norm>
0.000390161

>  <SCORE.SYSTEM>
0

>  <SCORE.SYSTEM.CONST>
0

>  <SCORE.SYSTEM.DIHEDRAL>
0

>  <SCORE.SYSTEM.SOLV>
0

>  <SCORE.SYSTEM.norm>
0

>  <SCORE.heavy>
22

>  <SCORE.norm>
-0.568567

>  <RMSD>
13.889

$$$$
ligand
 OpenBabel11021811443D
libRbt.so/2013.1/901 2013/11/27
 22 23  0  0  0  0  0  0  0  0999 V2000
   29.5729   37.4805   63.4227 C   0  0  0  0  0  0  0  0  0  0  0  0
   35.0569   34.1769   62.8704 C   0  0  0  0  0  0  0  0  0  0  0  0
   37.6929   29.2517   59.9124 P   0  0  1  0  0  0  0  0  0  0  0  0
   31.4896   36.1035   63.0310 N   0  0  0  0  0  0  0  0  0  0  0  0
   38.2458   28.2679   60.8782 O   0  0  0  0  0  0  0  0  0  0  0  0
   35.3385   32.8883   59.0668 S   0  0  0  0  0  0  0  0  0  0  0  0
   34.9948   34.5248   59.2287 C   0  0  0  0  0  0  0  0  0  0  0  0
   30.8241   37.2636   62.6980 C   0  0  0  0  0  0  0  0  0  0  0  0
   38.4834   29.3859   58.6616 O   0  5  0  0  0  0  0  0  0  0  0  0
   34.8971   34.9773   60.4971 N   0  0  0  0  0  0  0  0  0  0  0  0
   31.2483   38.1111   61.7992 N   0  0  0  0  0  0  0  0  0  0  0  0
   36.2385   28.9877   59.6705 O   0  0  0  0  0  0  0  0  0  0  0  0
   35.1154   33.9281   61.3919 C   0  0  2  0  0  0  0  0  0  0  0  0
   32.4441   37.8744   61.1292 C   0  0  0  0  0  0  0  0  0  0  0  0
   32.8505   38.7390   60.2041 N   0  0  0  0  0  0  0  0  0  0  0  0
   35.3663   32.7120   60.8017 C   0  0  1  0  0  0  0  0  0  0  0  0
   33.2200   36.6903   61.4595 C   0  0  0  0  0  0  0  0  0  0  0  0
   35.6188   31.4078   61.4683 C   0  0  0  0  0  0  0  0  0  0  0  0
   32.6604   35.8441   62.3957 C   0  0  0  0  0  0  0  0  0  0  0  0
   37.0694   31.1775   61.6711 C   0  0  0  0  0  0  0  0  0  0  0  0
   34.5860   36.4458   60.8473 C   0  0  0  0  0  0  0  0  0  0  0  0
   37.8091   30.6860   60.5528 O   0  0  0  0  0  0  0  0  0  0  0  0
  1  8  1  0  0  0  0
  3  5  1  1  0  0  0
  3  9  1  0  0  0  0
  3 12  2  0  0  0  0
  3 22  1  0  0  0  0
  4  8  2  0  0  0  0
  4 19  1  0  0  0  0
  6 16  1  0  0  0  0
  6  7  1  0  0  0  0
  7 10  1  0  0  0  0
  8 11  1  0  0  0  0
 10 13  1  0  0  0  0
 10 21  1  0  0  0  0
 11 14  2  0  0  0  0
 13  2  1  1  0  0  0
 13 16  1  0  0  0  0
 14 15  1  0  0  0  0
 14 17  1  0  0  0  0
 16 18  1  6  0  0  0
 17 19  2  0  0  0  0
 17 21  1  0  0  0  0
 18 20  1  0  0  0  0
 20 22  1  0  0  0  0
M  CHG  1   9  -1
M  END
>  <CHROM.1>
110.45960926,87.93903019,-142.16903133,-81.26616585,-69.15651214,-69.06371859
34.88200112,33.49644544,60.88700220,2.64773408,0.84730942,-0.69796748

>  <Name>
ligand

>  <RI>
0

>  <Rbt.Current_Directory>
/home/itssahil/PROJECTS/Mol_Feturizer/New_Systems/rnas/2HOM

>  <Rbt.Executable>
rbdock ($Id: //depot/dev/client3/rdock/2013.1/src/exe/rbdock.cxx#4 $)

>  <Rbt.Library>
libRbt.so (2013.1, Build901 2013/11/27)

>  <Rbt.Parameter_File>
/export/apps/rDock/src/rDock_2013.1_src/data/scripts/dock_solv.prm

>  <Rbt.Receptor>
prm/blind_docking_80.prm

>  <SCORE>
-8.38832

>  <SCORE.INTER>
-11.1163

>  <SCORE.INTER.CONST>
1

>  <SCORE.INTER.POLAR>
0

>  <SCORE.INTER.ROT>
6

>  <SCORE.INTER.SOLV>
15.5877

>  <SCORE.INTER.VDW>
-20.2068

>  <SCORE.INTER.norm>
-0.505288

>  <SCORE.INTRA>
1.7197

>  <SCORE.INTRA.DIHEDRAL>
1.86788

>  <SCORE.INTRA.DIHEDRAL.0>
5.05013

>  <SCORE.INTRA.POLAR>
0

>  <SCORE.INTRA.POLAR.0>
0

>  <SCORE.INTRA.REPUL>
0

>  <SCORE.INTRA.REPUL.0>
0

>  <SCORE.INTRA.SOLV>
1.06549

>  <SCORE.INTRA.SOLV.lig_0>
-54.1265

>  <SCORE.INTRA.VDW>
0.253017

>  <SCORE.INTRA.VDW.0>
-2.1303

>  <SCORE.INTRA.norm>
0.0781682

>  <SCORE.RESTR>
1.00831

>  <SCORE.RESTR.CAVITY>
1.00831

>  <SCORE.RESTR.norm>
0.0458321

>  <SCORE.SYSTEM>
0

>  <SCORE.SYSTEM.CONST>
0

>  <SCORE.SYSTEM.DIHEDRAL>
0

>  <SCORE.SYSTEM.SOLV>
0

>  <SCORE.SYSTEM.norm>
0

>  <SCORE.heavy>
22

>  <SCORE.norm>
-0.381287

>  <RMSD>
13.907

$$$$
ligand
 OpenBabel11021811443D
libRbt.so/2013.1/901 2013/11/27
 22 23  0  0  0  0  0  0  0  0999 V2000
   30.0090   38.9892   62.0618 C   0  0  0  0  0  0  0  0  0  0  0  0
   37.0608   34.9777   60.6920 C   0  0  0  0  0  0  0  0  0  0  0  0
   37.5037   29.2501   60.5475 P   0  0  1  0  0  0  0  0  0  0  0  0
   31.8974   39.2276   60.6125 N   0  0  0  0  0  0  0  0  0  0  0  0
   38.5901   29.7966   59.6947 O   0  0  0  0  0  0  0  0  0  0  0  0
   34.1110   33.4528   58.4161 S   0  0  0  0  0  0  0  0  0  0  0  0
   33.9632   35.0931   58.7482 C   0  0  0  0  0  0  0  0  0  0  0  0
   31.2922   38.4696   61.5915 C   0  0  0  0  0  0  0  0  0  0  0  0
   36.3753   28.6538   59.7868 O   0  5  0  0  0  0  0  0  0  0  0  0
   34.9436   35.6243   59.5097 N   0  0  0  0  0  0  0  0  0  0  0  0
   31.8099   37.3779   62.0879 N   0  0  0  0  0  0  0  0  0  0  0  0
   38.0668   28.3342   61.5904 O   0  0  0  0  0  0  0  0  0  0  0  0
   35.8717   34.6361   59.8432 C   0  0  2  0  0  0  0  0  0  0  0  0
   33.0324   36.9107   61.6165 C   0  0  0  0  0  0  0  0  0  0  0  0
   33.5526   35.8079   62.1470 N   0  0  0  0  0  0  0  0  0  0  0  0
   35.5863   33.3873   59.3439 C   0  0  1  0  0  0  0  0  0  0  0  0
   33.7079   37.6380   60.5545 C   0  0  0  0  0  0  0  0  0  0  0  0
   36.3572   32.1304   59.5311 C   0  0  0  0  0  0  0  0  0  0  0  0
   33.0911   38.7979   60.1305 C   0  0  0  0  0  0  0  0  0  0  0  0
   35.9056   31.3951   60.7367 C   0  0  0  0  0  0  0  0  0  0  0  0
   34.9809   37.1091   59.9219 C   0  0  0  0  0  0  0  0  0  0  0  0
   36.8189   30.4526   61.2997 O   0  0  0  0  0  0  0  0  0  0  0  0
  1  8  1  0  0  0  0
  3  5  1  6  0  0  0
  3  9  1  0  0  0  0
  3 12  2  0  0  0  0
  3 22  1  0  0  0  0
  4  8  2  0  0  0  0
  4 19  1  0  0  0  0
  6 16  1  0  0  0  0
  6  7  1  0  0  0  0
  7 10  1  0  0  0  0
  8 11  1  0  0  0  0
 10 13  1  0  0  0  0
 10 21  1  0  0  0  0
 11 14  2  0  0  0  0
 13  2  1  1  0  0  0
 13 16  1  0  0  0  0
 14 15  1  0  0  0  0
 14 17  1  0  0  0  0
 16 18  1  1  0  0  0
 17 19  2  0  0  0  0
 17 21  1  0  0  0  0
 18 20  1  0  0  0  0
 20 22  1  0  0  0  0
M  CHG  1   9  -1
M  END
>  <CHROM.1>
51.53043901,-89.85389384,47.66325107,-158.88552049,-55.03689233,75.91350043
34.95084764,33.93422122,60.38662290,2.54914761,0.90126260,-0.78529987

>  <Name>
ligand

>  <RI>
0

>  <Rbt.Current_Directory>
/home/itssahil/PROJECTS/Mol_Feturizer/New_Systems/rnas/2HOM

>  <Rbt.Executable>
rbdock ($Id: //depot/dev/client3/rdock/2013.1/src/exe/rbdock.cxx#4 $)

>  <Rbt.Library>
libRbt.so (2013.1, Build901 2013/11/27)

>  <Rbt.Parameter_File>
/export/apps/rDock/src/rDock_2013.1_src/data/scripts/dock_solv.prm

>  <Rbt.Receptor>
prm/blind_docking_80.prm

>  <SCORE>
-6.02847

>  <SCORE.INTER>
-8.56299

>  <SCORE.INTER.CONST>
1

>  <SCORE.INTER.POLAR>
0

>  <SCORE.INTER.ROT>
6

>  <SCORE.INTER.SOLV>
16.7113

>  <SCORE.INTER.VDW>
-18.8791

>  <SCORE.INTER.norm>
-0.389227

>  <SCORE.INTRA>
2.4965

>  <SCORE.INTRA.DIHEDRAL>
1.85182

>  <SCORE.INTRA.DIHEDRAL.0>
5.05013

>  <SCORE.INTRA.POLAR>
0

>  <SCORE.INTRA.POLAR.0>
0

>  <SCORE.INTRA.REPUL>
0

>  <SCORE.INTRA.REPUL.0>
0

>  <SCORE.INTRA.SOLV>
3.45295

>  <SCORE.INTRA.SOLV.lig_0>
-54.1265

>  <SCORE.INTRA.VDW>
-0.155887

>  <SCORE.INTRA.VDW.0>
-2.1303

>  <SCORE.INTRA.norm>
0.113477

>  <SCORE.RESTR>
0.0380172

>  <SCORE.RESTR.CAVITY>
0.0380172

>  <SCORE.RESTR.norm>
0.00172806

>  <SCORE.SYSTEM>
0

>  <SCORE.SYSTEM.CONST>
0

>  <SCORE.SYSTEM.DIHEDRAL>
0

>  <SCORE.SYSTEM.SOLV>
0

>  <SCORE.SYSTEM.norm>
0

>  <SCORE.heavy>
22

>  <SCORE.norm>
-0.274022

>  <RMSD>
14.173

$$$$
ligand
 OpenBabel11021811443D
libRbt.so/2013.1/901 2013/11/27
 22 23  0  0  0  0  0  0  0  0999 V2000
   29.8855   38.8935   60.7518 C   0  0  0  0  0  0  0  0  0  0  0  0
   35.7298   33.6610   58.9713 C   0  0  0  0  0  0  0  0  0  0  0  0
   37.5117   28.5696   60.7180 P   0  0  1  0  0  0  0  0  0  0  0  0
   31.2574   36.9963   60.2599 N   0  0  0  0  0  0  0  0  0  0  0  0
   37.3244   27.8759   62.0180 O   0  0  0  0  0  0  0  0  0  0  0  0
   35.1099   33.4855   62.9452 S   0  0  0  0  0  0  0  0  0  0  0  0
   34.9295   35.0153   62.2747 C   0  0  0  0  0  0  0  0  0  0  0  0
   31.2263   38.3376   60.5748 C   0  0  0  0  0  0  0  0  0  0  0  0
   38.6654   28.0730   59.9245 O   0  5  0  0  0  0  0  0  0  0  0  0
   35.1323   35.0954   60.9422 N   0  0  0  0  0  0  0  0  0  0  0  0
   32.2944   39.0795   60.6963 N   0  0  0  0  0  0  0  0  0  0  0  0
   36.2274   28.5940   59.9476 O   0  0  0  0  0  0  0  0  0  0  0  0
   35.4541   33.8347   60.4359 C   0  0  2  0  0  0  0  0  0  0  0  0
   33.5552   38.5180   60.5224 C   0  0  0  0  0  0  0  0  0  0  0  0
   34.6302   39.2930   60.6317 N   0  0  0  0  0  0  0  0  0  0  0  0
   35.4963   32.8317   61.3752 C   0  0  1  0  0  0  0  0  0  0  0  0
   33.6650   37.0985   60.2291 C   0  0  0  0  0  0  0  0  0  0  0  0
   35.8225   31.3968   61.1655 C   0  0  0  0  0  0  0  0  0  0  0  0
   32.4727   36.4180   60.0850 C   0  0  0  0  0  0  0  0  0  0  0  0
   37.1877   31.2293   60.6119 C   0  0  0  0  0  0  0  0  0  0  0  0
   35.0149   36.4115   60.1484 C   0  0  0  0  0  0  0  0  0  0  0  0
   37.9102   30.0646   61.0128 O   0  0  0  0  0  0  0  0  0  0  0  0
  1  8  1  0  0  0  0
  3  5  1  1  0  0  0
  3  9  1  0  0  0  0
  3 12  2  0  0  0  0
  3 22  1  0  0  0  0
  4  8  2  0  0  0  0
  4 19  1  0  0  0  0
  6 16  1  0  0  0  0
  6  7  1  0  0  0  0
  7 10  1  0  0  0  0
  8 11  1  0  0  0  0
 10 13  1  0  0  0  0
 10 21  1  0  0  0  0
 11 14  2  0  0  0  0
 13  2  1  1  0  0  0
 13 16  1  0  0  0  0
 14 15  1  0  0  0  0
 14 17  1  0  0  0  0
 16 18  1  1  0  0  0
 17 19  2  0  0  0  0
 17 21  1  0  0  0  0
 18 20  1  0  0  0  0
 20 22  1  0  0  0  0
M  CHG  1   9  -1
M  END
>  <CHROM.1>
-58.70745060,-119.51164430,131.67285132,146.68775797,63.08389467,-119.62547976
35.08171117,33.62081108,60.84712561,2.09592074,0.28257215,-0.18300113

>  <Name>
ligand

>  <RI>
0

>  <Rbt.Current_Directory>
/home/itssahil/PROJECTS/Mol_Feturizer/New_Systems/rnas/2HOM

>  <Rbt.Executable>
rbdock ($Id: //depot/dev/client3/rdock/2013.1/src/exe/rbdock.cxx#4 $)

>  <Rbt.Library>
libRbt.so (2013.1, Build901 2013/11/27)

>  <Rbt.Parameter_File>
/export/apps/rDock/src/rDock_2013.1_src/data/scripts/dock_solv.prm

>  <Rbt.Receptor>
prm/blind_docking_80.prm

>  <SCORE>
-9.76818

>  <SCORE.INTER>
-15.2218

>  <SCORE.INTER.CONST>
1

>  <SCORE.INTER.POLAR>
0

>  <SCORE.INTER.ROT>
6

>  <SCORE.INTER.SOLV>
16.326

>  <SCORE.INTER.VDW>
-23.1899

>  <SCORE.INTER.norm>
-0.6919

>  <SCORE.INTRA>
4.0427

>  <SCORE.INTRA.DIHEDRAL>
5.26594

>  <SCORE.INTRA.DIHEDRAL.0>
5.05013

>  <SCORE.INTRA.POLAR>
0

>  <SCORE.INTRA.POLAR.0>
0

>  <SCORE.INTRA.REPUL>
0

>  <SCORE.INTRA.REPUL.0>
0

>  <SCORE.INTRA.SOLV>
1.27354

>  <SCORE.INTRA.SOLV.lig_0>
-54.1265

>  <SCORE.INTRA.VDW>
0.772956

>  <SCORE.INTRA.VDW.0>
-2.1303

>  <SCORE.INTRA.norm>
0.183759

>  <SCORE.RESTR>
1.41093

>  <SCORE.RESTR.CAVITY>
1.41093

>  <SCORE.RESTR.norm>
0.0641331

>  <SCORE.SYSTEM>
0

>  <SCORE.SYSTEM.CONST>
0

>  <SCORE.SYSTEM.DIHEDRAL>
0

>  <SCORE.SYSTEM.SOLV>
0

>  <SCORE.SYSTEM.norm>
0

>  <SCORE.heavy>
22

>  <SCORE.norm>
-0.444008

>  <RMSD>
14.179

$$$$
ligand
 OpenBabel11021811443D
libRbt.so/2013.1/901 2013/11/27
 22 23  0  0  0  0  0  0  0  0999 V2000
   29.9786   39.1317   60.6982 C   0  0  0  0  0  0  0  0  0  0  0  0
   36.0167   34.1765   59.1703 C   0  0  0  0  0  0  0  0  0  0  0  0
   37.6171   28.6614   60.4336 P   0  0  1  0  0  0  0  0  0  0  0  0
   32.2364   39.0015   61.4785 N   0  0  0  0  0  0  0  0  0  0  0  0
   37.4282   28.3205   61.8669 O   0  0  0  0  0  0  0  0  0  0  0  0
   35.0883   33.1842   62.9598 S   0  0  0  0  0  0  0  0  0  0  0  0
   34.9152   34.8162   62.6003 C   0  0  0  0  0  0  0  0  0  0  0  0
   31.2528   38.4147   60.7120 C   0  0  0  0  0  0  0  0  0  0  0  0
   38.7636   27.9697   59.7900 O   0  5  0  0  0  0  0  0  0  0  0  0
   35.2208   35.1696   61.3335 N   0  0  0  0  0  0  0  0  0  0  0  0
   31.4155   37.2989   60.0527 N   0  0  0  0  0  0  0  0  0  0  0  0
   36.3303   28.5025   59.6835 O   0  0  0  0  0  0  0  0  0  0  0  0
   35.6202   34.0435   60.6113 C   0  0  2  0  0  0  0  0  0  0  0  0
   32.6417   36.6431   60.0866 C   0  0  0  0  0  0  0  0  0  0  0  0
   32.7828   35.4986   59.4243 N   0  0  0  0  0  0  0  0  0  0  0  0
   35.6181   32.8703   61.3281 C   0  0  1  0  0  0  0  0  0  0  0  0
   33.7378   37.2270   60.8422 C   0  0  0  0  0  0  0  0  0  0  0  0
   36.0036   31.5132   60.8604 C   0  0  0  0  0  0  0  0  0  0  0  0
   33.4451   38.3867   61.5313 C   0  0  0  0  0  0  0  0  0  0  0  0
   37.4496   31.2611   61.0695 C   0  0  0  0  0  0  0  0  0  0  0  0
   35.1268   36.6184   60.8157 C   0  0  0  0  0  0  0  0  0  0  0  0
   38.0297   30.1786   60.3407 O   0  0  0  0  0  0  0  0  0  0  0  0
  1  8  1  0  0  0  0
  3  5  1  1  0  0  0
  3  9  1  0  0  0  0
  3 12  2  0  0  0  0
  3 22  1  0  0  0  0
  4  8  2  0  0  0  0
  4 19  1  0  0  0  0
  6 16  1  0  0  0  0
  6  7  1  0  0  0  0
  7 10  1  0  0  0  0
  8 11  1  0  0  0  0
 10 13  1  0  0  0  0
 10 21  1  0  0  0  0
 11 14  2  0  0  0  0
 13  2  1  1  0  0  0
 13 16  1  0  0  0  0
 14 15  1  0  0  0  0
 14 17  1  0  0  0  0
 16 18  1  1  0  0  0
 17 19  2  0  0  0  0
 17 21  1  0  0  0  0
 18 20  1  0  0  0  0
 20 22  1  0  0  0  0
M  CHG  1   9  -1
M  END
>  <CHROM.1>
-62.24855924,-89.94864817,-60.58287620,-162.79211820,-60.58313160,-43.48103857
35.09588337,33.53396356,60.87370585,2.60434645,-0.92234894,0.95540316

>  <Name>
ligand

>  <RI>
0

>  <Rbt.Current_Directory>
/home/itssahil/PROJECTS/Mol_Feturizer/New_Systems/rnas/2HOM

>  <Rbt.Executable>
rbdock ($Id: //depot/dev/client3/rdock/2013.1/src/exe/rbdock.cxx#4 $)

>  <Rbt.Library>
libRbt.so (2013.1, Build901 2013/11/27)

>  <Rbt.Parameter_File>
/export/apps/rDock/src/rDock_2013.1_src/data/scripts/dock_solv.prm

>  <Rbt.Receptor>
prm/blind_docking_80.prm

>  <SCORE>
-12.4326

>  <SCORE.INTER>
-15.1645

>  <SCORE.INTER.CONST>
1

>  <SCORE.INTER.POLAR>
0

>  <SCORE.INTER.ROT>
6

>  <SCORE.INTER.SOLV>
18.3402

>  <SCORE.INTER.VDW>
-23.823

>  <SCORE.INTER.norm>
-0.689294

>  <SCORE.INTRA>
2.05111

>  <SCORE.INTRA.DIHEDRAL>
1.21387

>  <SCORE.INTRA.DIHEDRAL.0>
5.05013

>  <SCORE.INTRA.POLAR>
0

>  <SCORE.INTRA.POLAR.0>
0

>  <SCORE.INTRA.REPUL>
0

>  <SCORE.INTRA.REPUL.0>
0

>  <SCORE.INTRA.SOLV>
3.503

>  <SCORE.INTRA.SOLV.lig_0>
-54.1265

>  <SCORE.INTRA.VDW>
-0.307317

>  <SCORE.INTRA.VDW.0>
-2.1303

>  <SCORE.INTRA.norm>
0.0932325

>  <SCORE.RESTR>
0.680791

>  <SCORE.RESTR.CAVITY>
0.680791

>  <SCORE.RESTR.norm>
0.0309451

>  <SCORE.SYSTEM>
0

>  <SCORE.SYSTEM.CONST>
0

>  <SCORE.SYSTEM.DIHEDRAL>
0

>  <SCORE.SYSTEM.SOLV>
0

>  <SCORE.SYSTEM.norm>
0

>  <SCORE.heavy>
22

>  <SCORE.norm>
-0.565116

>  <RMSD>
14.197

$$$$
ligand
 OpenBabel11021811443D
libRbt.so/2013.1/901 2013/11/27
 22 23  0  0  0  0  0  0  0  0999 V2000
   37.1707   30.0535   61.2066 C   0  0  0  0  0  0  0  0  0  0  0  0
   34.7729   35.8358   63.3139 C   0  0  0  0  0  0  0  0  0  0  0  0
   29.6931   36.2447   65.3385 P   0  0  1  0  0  0  0  0  0  0  0  0
   36.9832   32.2371   62.1657 N   0  0  0  0  0  0  0  0  0  0  0  0
   29.1103   35.3313   66.3546 O   0  0  0  0  0  0  0  0  0  0  0  0
   32.6072   36.8748   60.0833 S   0  0  0  0  0  0  0  0  0  0  0  0
   34.2045   36.4698   59.7556 C   0  0  0  0  0  0  0  0  0  0  0  0
   37.0195   31.4939   61.0057 C   0  0  0  0  0  0  0  0  0  0  0  0
   28.6953   37.1023   64.6484 O   0  5  0  0  0  0  0  0  0  0  0  0
   34.9478   36.1172   60.8262 N   0  0  0  0  0  0  0  0  0  0  0  0
   36.9421   32.0119   59.8092 N   0  0  0  0  0  0  0  0  0  0  0  0
   30.8369   37.0159   65.9221 O   0  0  0  0  0  0  0  0  0  0  0  0
   34.1701   36.1805   61.9839 C   0  0  2  0  0  0  0  0  0  0  0  0
   36.7974   33.3866   59.6541 C   0  0  0  0  0  0  0  0  0  0  0  0
   36.7391   33.8977   58.4278 N   0  0  0  0  0  0  0  0  0  0  0  0
   32.8698   36.5787   61.7818 C   0  0  1  0  0  0  0  0  0  0  0  0
   36.7103   34.2284   60.8360 C   0  0  0  0  0  0  0  0  0  0  0  0
   31.8020   36.7625   62.7993 C   0  0  0  0  0  0  0  0  0  0  0  0
   36.8415   33.5817   62.0484 C   0  0  0  0  0  0  0  0  0  0  0  0
   31.5514   35.5091   63.5507 C   0  0  0  0  0  0  0  0  0  0  0  0
   36.4327   35.7156   60.7269 C   0  0  0  0  0  0  0  0  0  0  0  0
   30.2695   35.3677   64.1639 O   0  0  0  0  0  0  0  0  0  0  0  0
  1  8  1  0  0  0  0
  3  5  1  1  0  0  0
  3  9  1  0  0  0  0
  3 12  2  0  0  0  0
  3 22  1  0  0  0  0
  4  8  2  0  0  0  0
  4 19  1  0  0  0  0
  6 16  1  0  0  0  0
  6  7  1  0  0  0  0
  7 10  1  0  0  0  0
  8 11  1  0  0  0  0
 10 13  1  0  0  0  0
 10 21  1  0  0  0  0
 11 14  2  0  0  0  0
 13  2  1  1  0  0  0
 13 16  1  0  0  0  0
 14 15  1  0  0  0  0
 14 17  1  0  0  0  0
 16 18  1  1  0  0  0
 17 19  2  0  0  0  0
 17 21  1  0  0  0  0
 18 20  1  0  0  0  0
 20 22  1  0  0  0  0
M  CHG  1   9  -1
M  END
>  <CHROM.1>
-103.76542232,121.98367390,92.87592351,-156.54274925,-65.29411235,-133.04833375
33.52514757,35.11342432,62.28346774,-0.08403724,-0.68157439,2.36275771

>  <Name>
ligand

>  <RI>
0

>  <Rbt.Current_Directory>
/home/itssahil/PROJECTS/Mol_Feturizer/New_Systems/rnas/2HOM

>  <Rbt.Executable>
rbdock ($Id: //depot/dev/client3/rdock/2013.1/src/exe/rbdock.cxx#4 $)

>  <Rbt.Library>
libRbt.so (2013.1, Build901 2013/11/27)

>  <Rbt.Parameter_File>
/export/apps/rDock/src/rDock_2013.1_src/data/scripts/dock_solv.prm

>  <Rbt.Receptor>
prm/blind_docking_100.prm

>  <SCORE>
-19.1644

>  <SCORE.INTER>
-22.5248

>  <SCORE.INTER.CONST>
1

>  <SCORE.INTER.POLAR>
-1.63459

>  <SCORE.INTER.ROT>
6

>  <SCORE.INTER.SOLV>
18.0722

>  <SCORE.INTER.VDW>
-23.192

>  <SCORE.INTER.norm>
-1.02385

>  <SCORE.INTRA>
3.36038

>  <SCORE.INTRA.DIHEDRAL>
3.47239

>  <SCORE.INTRA.DIHEDRAL.0>
5.05013

>  <SCORE.INTRA.POLAR>
0

>  <SCORE.INTRA.POLAR.0>
0

>  <SCORE.INTRA.REPUL>
0

>  <SCORE.INTRA.REPUL.0>
0

>  <SCORE.INTRA.SOLV>
2.06249

>  <SCORE.INTRA.SOLV.lig_0>
-54.1265

>  <SCORE.INTRA.VDW>
0.592935

>  <SCORE.INTRA.VDW.0>
-2.1303

>  <SCORE.INTRA.norm>
0.152744

>  <SCORE.RESTR>
0

>  <SCORE.RESTR.CAVITY>
0

>  <SCORE.RESTR.norm>
0

>  <SCORE.SYSTEM>
0

>  <SCORE.SYSTEM.CONST>
0

>  <SCORE.SYSTEM.DIHEDRAL>
0

>  <SCORE.SYSTEM.SOLV>
0

>  <SCORE.SYSTEM.norm>
0

>  <SCORE.heavy>
22

>  <SCORE.norm>
-0.871108

>  <RMSD>
14.308

$$$$
ligand
 OpenBabel11021811443D
libRbt.so/2013.1/901 2013/11/27
 22 23  0  0  0  0  0  0  0  0999 V2000
   30.0628   38.8944   62.0547 C   0  0  0  0  0  0  0  0  0  0  0  0
   37.5929   35.2735   59.6392 C   0  0  0  0  0  0  0  0  0  0  0  0
   37.2639   28.6549   60.2293 P   0  0  1  0  0  0  0  0  0  0  0  0
   31.8791   39.0065   60.5018 N   0  0  0  0  0  0  0  0  0  0  0  0
   37.6370   28.3140   61.6261 O   0  0  0  0  0  0  0  0  0  0  0  0
   34.2306   33.0631   59.5150 S   0  0  0  0  0  0  0  0  0  0  0  0
   33.9803   34.7065   59.7586 C   0  0  0  0  0  0  0  0  0  0  0  0
   31.3603   38.3827   61.6158 C   0  0  0  0  0  0  0  0  0  0  0  0
   38.4167   29.0060   59.3605 O   0  5  0  0  0  0  0  0  0  0  0  0
   35.0959   35.4658   59.8024 N   0  0  0  0  0  0  0  0  0  0  0  0
   31.9662   37.4189   62.2561 N   0  0  0  0  0  0  0  0  0  0  0  0
   36.3840   27.5912   59.6478 O   0  0  0  0  0  0  0  0  0  0  0  0
   36.2232   34.6612   59.6270 C   0  0  2  0  0  0  0  0  0  0  0  0
   33.1996   36.9552   61.8105 C   0  0  0  0  0  0  0  0  0  0  0  0
   33.8099   35.9861   62.4862 N   0  0  0  0  0  0  0  0  0  0  0  0
   35.9542   33.3232   59.4605 C   0  0  1  0  0  0  0  0  0  0  0  0
   33.7877   37.5394   60.6164 C   0  0  0  0  0  0  0  0  0  0  0  0
   36.9241   32.2130   59.2708 C   0  0  0  0  0  0  0  0  0  0  0  0
   33.0809   38.5762   60.0410 C   0  0  0  0  0  0  0  0  0  0  0  0
   36.9454   31.3086   60.4455 C   0  0  0  0  0  0  0  0  0  0  0  0
   35.0699   36.9917   60.0193 C   0  0  0  0  0  0  0  0  0  0  0  0
   36.4295   29.9905   60.2567 O   0  0  0  0  0  0  0  0  0  0  0  0
  1  8  1  0  0  0  0
  3  5  1  1  0  0  0
  3  9  1  0  0  0  0
  3 12  2  0  0  0  0
  3 22  1  0  0  0  0
  4  8  2  0  0  0  0
  4 19  1  0  0  0  0
  6 16  1  0  0  0  0
  6  7  1  0  0  0  0
  7 10  1  0  0  0  0
  8 11  1  0  0  0  0
 10 13  1  0  0  0  0
 10 21  1  0  0  0  0
 11 14  2  0  0  0  0
 13  2  1  1  0  0  0
 13 16  1  0  0  0  0
 14 15  1  0  0  0  0
 14 17  1  0  0  0  0
 16 18  1  1  0  0  0
 17 19  2  0  0  0  0
 17 21  1  0  0  0  0
 18 20  1  0  0  0  0
 20 22  1  0  0  0  0
M  CHG  1   9  -1
M  END
>  <CHROM.1>
18.79155354,-67.77543988,49.87316777,111.60011918,109.72907448,75.76191563
35.04937695,33.70228234,60.39331625,2.14411070,0.49428778,-0.17663611

>  <Name>
ligand

>  <RI>
0

>  <Rbt.Current_Directory>
/home/itssahil/PROJECTS/Mol_Feturizer/New_Systems/rnas/2HOM

>  <Rbt.Executable>
rbdock ($Id: //depot/dev/client3/rdock/2013.1/src/exe/rbdock.cxx#4 $)

>  <Rbt.Library>
libRbt.so (2013.1, Build901 2013/11/27)

>  <Rbt.Parameter_File>
/export/apps/rDock/src/rDock_2013.1_src/data/scripts/dock_solv.prm

>  <Rbt.Receptor>
prm/blind_docking_80.prm

>  <SCORE>
-6.10076

>  <SCORE.INTER>
-13.4952

>  <SCORE.INTER.CONST>
1

>  <SCORE.INTER.POLAR>
0

>  <SCORE.INTER.ROT>
6

>  <SCORE.INTER.SOLV>
13.4837

>  <SCORE.INTER.VDW>
-21.0914

>  <SCORE.INTER.norm>
-0.613419

>  <SCORE.INTRA>
7.37854

>  <SCORE.INTRA.DIHEDRAL>
12.4342

>  <SCORE.INTRA.DIHEDRAL.0>
5.05013

>  <SCORE.INTRA.POLAR>
0

>  <SCORE.INTRA.POLAR.0>
0

>  <SCORE.INTRA.REPUL>
0

>  <SCORE.INTRA.REPUL.0>
0

>  <SCORE.INTRA.SOLV>
2.37267

>  <SCORE.INTRA.SOLV.lig_0>
-54.1265

>  <SCORE.INTRA.VDW>
-0.024888

>  <SCORE.INTRA.VDW.0>
-2.1303

>  <SCORE.INTRA.norm>
0.335388

>  <SCORE.RESTR>
0.0159275

>  <SCORE.RESTR.CAVITY>
0.0159275

>  <SCORE.RESTR.norm>
0.000723977

>  <SCORE.SYSTEM>
0

>  <SCORE.SYSTEM.CONST>
0

>  <SCORE.SYSTEM.DIHEDRAL>
0

>  <SCORE.SYSTEM.SOLV>
0

>  <SCORE.SYSTEM.norm>
0

>  <SCORE.heavy>
22

>  <SCORE.norm>
-0.277307

>  <RMSD>
14.393

$$$$
ligand
 OpenBabel11021811443D
libRbt.so/2013.1/901 2013/11/27
 22 23  0  0  0  0  0  0  0  0999 V2000
   33.4137   44.0413   81.1042 C   0  0  0  0  0  0  0  0  0  0  0  0
   29.1467   40.7459   76.4778 C   0  0  0  0  0  0  0  0  0  0  0  0
   26.9626   36.9470   73.1367 P   0  0  1  0  0  0  0  0  0  0  0  0
   31.7653   44.1218   79.3723 N   0  0  0  0  0  0  0  0  0  0  0  0
   25.4957   37.0418   73.3495 O   0  0  0  0  0  0  0  0  0  0  0  0
   27.2033   38.6341   79.3010 S   0  0  0  0  0  0  0  0  0  0  0  0
   27.4192   40.2598   79.6663 C   0  0  0  0  0  0  0  0  0  0  0  0
   32.1323   43.5703   80.5808 C   0  0  0  0  0  0  0  0  0  0  0  0
   27.4107   35.6543   72.5577 O   0  5  0  0  0  0  0  0  0  0  0  0
   28.0682   40.9861   78.7313 N   0  0  0  0  0  0  0  0  0  0  0  0
   31.4175   42.6841   81.2209 N   0  0  0  0  0  0  0  0  0  0  0  0
   27.4605   38.1407   72.3811 O   0  0  0  0  0  0  0  0  0  0  0  0
   28.4108   40.1699   77.6517 C   0  0  2  0  0  0  0  0  0  0  0  0
   30.2021   42.2587   80.6949 C   0  0  0  0  0  0  0  0  0  0  0  0
   29.4973   41.3421   81.3515 N   0  0  0  0  0  0  0  0  0  0  0  0
   28.0289   38.8555   77.7809 C   0  0  1  0  0  0  0  0  0  0  0  0
   29.7325   42.8293   79.4431 C   0  0  0  0  0  0  0  0  0  0  0  0
   28.2573   37.7397   76.8259 C   0  0  0  0  0  0  0  0  0  0  0  0
   30.5838   43.7283   78.8328 C   0  0  0  0  0  0  0  0  0  0  0  0
   27.4934   37.9388   75.5708 C   0  0  0  0  0  0  0  0  0  0  0  0
   28.3627   42.4912   78.8865 C   0  0  0  0  0  0  0  0  0  0  0  0
   27.6644   36.9584   74.5467 O   0  0  0  0  0  0  0  0  0  0  0  0
  1  8  1  0  0  0  0
  3  5  1  1  0  0  0
  3  9  1  0  0  0  0
  3 12  2  0  0  0  0
  3 22  1  0  0  0  0
  4  8  2  0  0  0  0
  4 19  1  0  0  0  0
  6 16  1  0  0  0  0
  6  7  1  0  0  0  0
  7 10  1  0  0  0  0
  8 11  1  0  0  0  0
 10 13  1  0  0  0  0
 10 21  1  0  0  0  0
 11 14  2  0  0  0  0
 13  2  1  1  0  0  0
 13 16  1  0  0  0  0
 14 15  1  0  0  0  0
 14 17  1  0  0  0  0
 16 18  1  1  0  0  0
 17 19  2  0  0  0  0
 17 21  1  0  0  0  0
 18 20  1  0  0  0  0
 20 22  1  0  0  0  0
M  CHG  1   9  -1
M  END
>  <CHROM.1>
95.01417227,113.67560959,-53.70842950,177.76405742,179.76456535,-53.99245188
28.67146478,39.94342581,77.39737102,-0.96057966,-0.79005732,-1.83620171

>  <Name>
ligand

>  <RI>
0

>  <Rbt.Current_Directory>
/home/itssahil/PROJECTS/Mol_Feturizer/New_Systems/rnas/2HOM

>  <Rbt.Executable>
rbdock ($Id: //depot/dev/client3/rdock/2013.1/src/exe/rbdock.cxx#4 $)

>  <Rbt.Library>
libRbt.so (2013.1, Build901 2013/11/27)

>  <Rbt.Parameter_File>
/export/apps/rDock/src/rDock_2013.1_src/data/scripts/dock_solv.prm

>  <Rbt.Receptor>
prm/blind_docking_100.prm

>  <SCORE>
-17.003

>  <SCORE.INTER>
-17.5659

>  <SCORE.INTER.CONST>
1

>  <SCORE.INTER.POLAR>
-1.02837

>  <SCORE.INTER.ROT>
6

>  <SCORE.INTER.SOLV>
11.9354

>  <SCORE.INTER.VDW>
-19.8611

>  <SCORE.INTER.norm>
-0.798449

>  <SCORE.INTRA>
0.562899

>  <SCORE.INTRA.DIHEDRAL>
-0.444916

>  <SCORE.INTRA.DIHEDRAL.0>
5.05013

>  <SCORE.INTRA.POLAR>
0

>  <SCORE.INTRA.POLAR.0>
0

>  <SCORE.INTRA.REPUL>
0

>  <SCORE.INTRA.REPUL.0>
0

>  <SCORE.INTRA.SOLV>
1.69019

>  <SCORE.INTRA.SOLV.lig_0>
-54.1265

>  <SCORE.INTRA.VDW>
-0.059738

>  <SCORE.INTRA.VDW.0>
-2.1303

>  <SCORE.INTRA.norm>
0.0255863

>  <SCORE.RESTR>
0

>  <SCORE.RESTR.CAVITY>
0

>  <SCORE.RESTR.norm>
0

>  <SCORE.SYSTEM>
0

>  <SCORE.SYSTEM.CONST>
0

>  <SCORE.SYSTEM.DIHEDRAL>
0

>  <SCORE.SYSTEM.SOLV>
0

>  <SCORE.SYSTEM.norm>
0

>  <SCORE.heavy>
22

>  <SCORE.norm>
-0.772862

>  <RMSD>
14.507

$$$$
ligand
 OpenBabel11021811443D
libRbt.so/2013.1/901 2013/11/27
 22 23  0  0  0  0  0  0  0  0999 V2000
   37.3356   28.8785   60.4917 C   0  0  0  0  0  0  0  0  0  0  0  0
   33.5392   36.1619   59.9022 C   0  0  0  0  0  0  0  0  0  0  0  0
   29.4536   36.5083   65.1430 P   0  0  1  0  0  0  0  0  0  0  0  0
   37.6790   31.0246   59.4918 N   0  0  0  0  0  0  0  0  0  0  0  0
   28.5065   37.6136   65.4390 O   0  0  0  0  0  0  0  0  0  0  0  0
   34.9068   35.6544   63.6544 S   0  0  0  0  0  0  0  0  0  0  0  0
   35.8266   34.9036   62.4657 C   0  0  0  0  0  0  0  0  0  0  0  0
   36.9371   30.2812   60.3841 C   0  0  0  0  0  0  0  0  0  0  0  0
   30.2526   36.0623   66.3134 O   0  5  0  0  0  0  0  0  0  0  0  0
   35.3850   35.0627   61.1997 N   0  0  0  0  0  0  0  0  0  0  0  0
   35.9422   30.7635   61.0795 N   0  0  0  0  0  0  0  0  0  0  0  0
   28.7480   35.3873   64.4435 O   0  0  0  0  0  0  0  0  0  0  0  0
   34.2275   35.8432   61.1968 C   0  0  2  0  0  0  0  0  0  0  0  0
   35.5902   32.1034   60.9537 C   0  0  0  0  0  0  0  0  0  0  0  0
   34.5627   32.5720   61.6557 N   0  0  0  0  0  0  0  0  0  0  0  0
   33.8089   36.2553   62.4399 C   0  0  1  0  0  0  0  0  0  0  0  0
   36.3564   32.9572   60.0609 C   0  0  0  0  0  0  0  0  0  0  0  0
   32.6151   37.0742   62.7768 C   0  0  0  0  0  0  0  0  0  0  0  0
   37.3614   32.3361   59.3469 C   0  0  0  0  0  0  0  0  0  0  0  0
   31.7048   36.3484   63.6949 C   0  0  0  0  0  0  0  0  0  0  0  0
   36.0928   34.4484   59.9759 C   0  0  0  0  0  0  0  0  0  0  0  0
   30.5545   37.0561   64.1588 O   0  0  0  0  0  0  0  0  0  0  0  0
  1  8  1  0  0  0  0
  3  5  1  1  0  0  0
  3  9  1  0  0  0  0
  3 12  2  0  0  0  0
  3 22  1  0  0  0  0
  4  8  2  0  0  0  0
  4 19  1  0  0  0  0
  6 16  1  0  0  0  0
  6  7  1  0  0  0  0
  7 10  1  0  0  0  0
  8 11  1  0  0  0  0
 10 13  1  0  0  0  0
 10 21  1  0  0  0  0
 11 14  2  0  0  0  0
 13  2  1  1  0  0  0
 13 16  1  0  0  0  0
 14 15  1  0  0  0  0
 14 17  1  0  0  0  0
 16 18  1  1  0  0  0
 17 19  2  0  0  0  0
 17 21  1  0  0  0  0
 18 20  1  0  0  0  0
 20 22  1  0  0  0  0
M  CHG  1   9  -1
M  END
>  <CHROM.1>
52.65806022,-58.62539403,21.63110742,176.48369808,-179.45514517,175.42672289
33.62758100,34.58502481,62.44260349,0.49023093,-0.64047896,3.03398901

>  <Name>
ligand

>  <RI>
0

>  <Rbt.Current_Directory>
/home/itssahil/PROJECTS/Mol_Feturizer/New_Systems/rnas/2HOM

>  <Rbt.Executable>
rbdock ($Id: //depot/dev/client3/rdock/2013.1/src/exe/rbdock.cxx#4 $)

>  <Rbt.Library>
libRbt.so (2013.1, Build901 2013/11/27)

>  <Rbt.Parameter_File>
/export/apps/rDock/src/rDock_2013.1_src/data/scripts/dock_solv.prm

>  <Rbt.Receptor>
prm/blind_docking_100.prm

>  <SCORE>
-20.0203

>  <SCORE.INTER>
-22.6191

>  <SCORE.INTER.CONST>
1

>  <SCORE.INTER.POLAR>
-1.63459

>  <SCORE.INTER.ROT>
6

>  <SCORE.INTER.SOLV>
17.5694

>  <SCORE.INTER.VDW>
-23.0873

>  <SCORE.INTER.norm>
-1.02814

>  <SCORE.INTRA>
2.5988

>  <SCORE.INTRA.DIHEDRAL>
0.314484

>  <SCORE.INTRA.DIHEDRAL.0>
5.05013

>  <SCORE.INTRA.POLAR>
0

>  <SCORE.INTRA.POLAR.0>
0

>  <SCORE.INTRA.REPUL>
0

>  <SCORE.INTRA.REPUL.0>
0

>  <SCORE.INTRA.SOLV>
4.21539

>  <SCORE.INTRA.SOLV.lig_0>
-54.1265

>  <SCORE.INTRA.VDW>
0.333864

>  <SCORE.INTRA.VDW.0>
-2.1303

>  <SCORE.INTRA.norm>
0.118127

>  <SCORE.RESTR>
0

>  <SCORE.RESTR.CAVITY>
0

>  <SCORE.RESTR.norm>
0

>  <SCORE.SYSTEM>
0

>  <SCORE.SYSTEM.CONST>
0

>  <SCORE.SYSTEM.DIHEDRAL>
0

>  <SCORE.SYSTEM.SOLV>
0

>  <SCORE.SYSTEM.norm>
0

>  <SCORE.heavy>
22

>  <SCORE.norm>
-0.910013

>  <RMSD>
14.545

$$$$
ligand
 OpenBabel11021811443D
libRbt.so/2013.1/901 2013/11/27
 22 23  0  0  0  0  0  0  0  0999 V2000
   30.4893   38.5329   62.0759 C   0  0  0  0  0  0  0  0  0  0  0  0
   37.2692   34.2032   59.9009 C   0  0  0  0  0  0  0  0  0  0  0  0
   37.2239   28.5728   59.5208 P   0  0  1  0  0  0  0  0  0  0  0  0
   31.4524   37.5206   60.1340 N   0  0  0  0  0  0  0  0  0  0  0  0
   36.0552   27.6608   59.6131 O   0  0  0  0  0  0  0  0  0  0  0  0
   34.7240   31.9821   62.0908 S   0  0  0  0  0  0  0  0  0  0  0  0
   33.9963   33.2030   61.1949 C   0  0  0  0  0  0  0  0  0  0  0  0
   31.5303   37.6827   61.5003 C   0  0  0  0  0  0  0  0  0  0  0  0
   38.5064   27.9639   59.9585 O   0  5  0  0  0  0  0  0  0  0  0  0
   34.8330   33.9590   60.4524 N   0  0  0  0  0  0  0  0  0  0  0  0
   32.4592   37.1430   62.2433 N   0  0  0  0  0  0  0  0  0  0  0  0
   37.2959   29.1959   58.1605 O   0  0  0  0  0  0  0  0  0  0  0  0
   36.1466   33.5179   60.6229 C   0  0  2  0  0  0  0  0  0  0  0  0
   33.4342   36.3381   61.6631 C   0  0  0  0  0  0  0  0  0  0  0  0
   34.3826   35.8125   62.4329 N   0  0  0  0  0  0  0  0  0  0  0  0
   36.2888   32.4542   61.4823 C   0  0  1  0  0  0  0  0  0  0  0  0
   33.3893   36.0899   60.2315 C   0  0  0  0  0  0  0  0  0  0  0  0
   37.5437   31.7684   61.8874 C   0  0  0  0  0  0  0  0  0  0  0  0
   32.3886   36.7398   59.5375 C   0  0  0  0  0  0  0  0  0  0  0  0
   37.9600   30.7651   60.8783 C   0  0  0  0  0  0  0  0  0  0  0  0
   34.3540   35.1264   59.5671 C   0  0  0  0  0  0  0  0  0  0  0  0
   37.0197   29.7384   60.5602 O   0  0  0  0  0  0  0  0  0  0  0  0
  1  8  1  0  0  0  0
  3  5  1  1  0  0  0
  3  9  1  0  0  0  0
  3 12  2  0  0  0  0
  3 22  1  0  0  0  0
  4  8  2  0  0  0  0
  4 19  1  0  0  0  0
  6 16  1  0  0  0  0
  6  7  1  0  0  0  0
  7 10  1  0  0  0  0
  8 11  1  0  0  0  0
 10 13  1  0  0  0  0
 10 21  1  0  0  0  0
 11 14  2  0  0  0  0
 13  2  1  1  0  0  0
 13 16  1  0  0  0  0
 14 15  1  0  0  0  0
 14 17  1  0  0  0  0
 16 18  1  1  0  0  0
 17 19  2  0  0  0  0
 17 21  1  0  0  0  0
 18 20  1  0  0  0  0
 20 22  1  0  0  0  0
M  CHG  1   9  -1
M  END
>  <CHROM.1>
47.30322085,98.10265365,30.08640033,-57.20096591,179.56363632,174.22153108
35.13629448,32.96555505,60.69522216,2.43422796,-0.80534973,0.86529557

>  <Name>
ligand

>  <RI>
0

>  <Rbt.Current_Directory>
/home/itssahil/PROJECTS/Mol_Feturizer/New_Systems/rnas/2HOM

>  <Rbt.Executable>
rbdock ($Id: //depot/dev/client3/rdock/2013.1/src/exe/rbdock.cxx#4 $)

>  <Rbt.Library>
libRbt.so (2013.1, Build901 2013/11/27)

>  <Rbt.Parameter_File>
/export/apps/rDock/src/rDock_2013.1_src/data/scripts/dock_solv.prm

>  <Rbt.Receptor>
prm/blind_docking_80.prm

>  <SCORE>
-12.9255

>  <SCORE.INTER>
-14.2959

>  <SCORE.INTER.CONST>
1

>  <SCORE.INTER.POLAR>
0

>  <SCORE.INTER.ROT>
6

>  <SCORE.INTER.SOLV>
13.5726

>  <SCORE.INTER.VDW>
-21.6548

>  <SCORE.INTER.norm>
-0.649812

>  <SCORE.INTRA>
1.34295

>  <SCORE.INTRA.DIHEDRAL>
-0.0660579

>  <SCORE.INTRA.DIHEDRAL.0>
5.05013

>  <SCORE.INTRA.POLAR>
0

>  <SCORE.INTRA.POLAR.0>
0

>  <SCORE.INTRA.REPUL>
0

>  <SCORE.INTRA.REPUL.0>
0

>  <SCORE.INTRA.SOLV>
3.65277

>  <SCORE.INTRA.SOLV.lig_0>
-54.1265

>  <SCORE.INTRA.VDW>
-0.450406

>  <SCORE.INTRA.VDW.0>
-2.1303

>  <SCORE.INTRA.norm>
0.0610431

>  <SCORE.RESTR>
0.0273895

>  <SCORE.RESTR.CAVITY>
0.0273895

>  <SCORE.RESTR.norm>
0.00124498

>  <SCORE.SYSTEM>
0

>  <SCORE.SYSTEM.CONST>
0

>  <SCORE.SYSTEM.DIHEDRAL>
0

>  <SCORE.SYSTEM.SOLV>
0

>  <SCORE.SYSTEM.norm>
0

>  <SCORE.heavy>
22

>  <SCORE.norm>
-0.587524

>  <RMSD>
14.606

$$$$
ligand
 OpenBabel11021811443D
libRbt.so/2013.1/901 2013/11/27
 22 23  0  0  0  0  0  0  0  0999 V2000
   30.2864   38.2003   61.0643 C   0  0  0  0  0  0  0  0  0  0  0  0
   34.7838   32.4819   61.3893 C   0  0  0  0  0  0  0  0  0  0  0  0
   37.4889   28.7316   60.5103 P   0  0  1  0  0  0  0  0  0  0  0  0
   31.4697   36.5260   62.2970 N   0  0  0  0  0  0  0  0  0  0  0  0
   38.5401   27.9410   59.8202 O   0  0  0  0  0  0  0  0  0  0  0  0
   37.5880   34.4931   59.3161 S   0  0  0  0  0  0  0  0  0  0  0  0
   36.8374   35.3845   60.5264 C   0  0  0  0  0  0  0  0  0  0  0  0
   31.5414   37.4949   61.3196 C   0  0  0  0  0  0  0  0  0  0  0  0
   36.1811   28.7499   59.8057 O   0  5  0  0  0  0  0  0  0  0  0  0
   35.8940   34.7274   61.2344 N   0  0  0  0  0  0  0  0  0  0  0  0
   32.6280   37.7702   60.6491 N   0  0  0  0  0  0  0  0  0  0  0  0
   37.3839   28.3219   61.9472 O   0  0  0  0  0  0  0  0  0  0  0  0
   35.7746   33.4186   60.7633 C   0  0  2  0  0  0  0  0  0  0  0  0
   33.8055   37.0804   60.9184 C   0  0  0  0  0  0  0  0  0  0  0  0
   34.8969   37.3616   60.2126 N   0  0  0  0  0  0  0  0  0  0  0  0
   36.6108   33.1056   59.7178 C   0  0  1  0  0  0  0  0  0  0  0  0
   33.8134   36.0728   61.9660 C   0  0  0  0  0  0  0  0  0  0  0  0
   36.7155   31.8159   58.9863 C   0  0  0  0  0  0  0  0  0  0  0  0
   32.6023   35.8356   62.5844 C   0  0  0  0  0  0  0  0  0  0  0  0
   37.9632   31.0961   59.3378 C   0  0  0  0  0  0  0  0  0  0  0  0
   35.0953   35.3768   62.3818 C   0  0  0  0  0  0  0  0  0  0  0  0
   37.9189   30.2466   60.4848 O   0  0  0  0  0  0  0  0  0  0  0  0
  1  8  1  0  0  0  0
  3  5  1  6  0  0  0
  3  9  1  0  0  0  0
  3 12  2  0  0  0  0
  3 22  1  0  0  0  0
  4  8  2  0  0  0  0
  4 19  1  0  0  0  0
  6 16  1  0  0  0  0
  6  7  1  0  0  0  0
  7 10  1  0  0  0  0
  8 11  1  0  0  0  0
 10 13  1  0  0  0  0
 10 21  1  0  0  0  0
 11 14  2  0  0  0  0
 13  2  1  6  0  0  0
 13 16  1  0  0  0  0
 14 15  1  0  0  0  0
 14 17  1  0  0  0  0
 16 18  1  6  0  0  0
 17 19  2  0  0  0  0
 17 21  1  0  0  0  0
 18 20  1  0  0  0  0
 20 22  1  0  0  0  0
M  CHG  1   9  -1
M  END
>  <CHROM.1>
89.21800901,73.26144574,-53.07869614,86.80823566,87.77429612,69.86492060
35.57023229,33.34962651,60.67426024,2.20722296,0.47132043,-0.18847031

>  <Name>
ligand

>  <RI>
0

>  <Rbt.Current_Directory>
/home/itssahil/PROJECTS/Mol_Feturizer/New_Systems/rnas/2HOM

>  <Rbt.Executable>
rbdock ($Id: //depot/dev/client3/rdock/2013.1/src/exe/rbdock.cxx#4 $)

>  <Rbt.Library>
libRbt.so (2013.1, Build901 2013/11/27)

>  <Rbt.Parameter_File>
/export/apps/rDock/src/rDock_2013.1_src/data/scripts/dock_solv.prm

>  <Rbt.Receptor>
prm/blind_docking_80.prm

>  <SCORE>
-7.26824

>  <SCORE.INTER>
-11.2229

>  <SCORE.INTER.CONST>
1

>  <SCORE.INTER.POLAR>
0

>  <SCORE.INTER.ROT>
6

>  <SCORE.INTER.SOLV>
19.6749

>  <SCORE.INTER.VDW>
-21.6403

>  <SCORE.INTER.norm>
-0.510134

>  <SCORE.INTRA>
3.79558

>  <SCORE.INTRA.DIHEDRAL>
5.62885

>  <SCORE.INTRA.DIHEDRAL.0>
5.05013

>  <SCORE.INTRA.POLAR>
0

>  <SCORE.INTRA.POLAR.0>
0

>  <SCORE.INTRA.REPUL>
0

>  <SCORE.INTRA.REPUL.0>
0

>  <SCORE.INTRA.SOLV>
3.05372

>  <SCORE.INTRA.SOLV.lig_0>
-54.1265

>  <SCORE.INTRA.VDW>
-0.545702

>  <SCORE.INTRA.VDW.0>
-2.1303

>  <SCORE.INTRA.norm>
0.172527

>  <SCORE.RESTR>
0.159119

>  <SCORE.RESTR.CAVITY>
0.159119

>  <SCORE.RESTR.norm>
0.00723269

>  <SCORE.SYSTEM>
0

>  <SCORE.SYSTEM.CONST>
0

>  <SCORE.SYSTEM.DIHEDRAL>
0

>  <SCORE.SYSTEM.SOLV>
0

>  <SCORE.SYSTEM.norm>
0

>  <SCORE.heavy>
22

>  <SCORE.norm>
-0.330374

>  <RMSD>
14.679

$$$$
ligand
 OpenBabel11021811443D
libRbt.so/2013.1/901 2013/11/27
 22 23  0  0  0  0  0  0  0  0999 V2000
   37.3053   29.1521   59.9192 C   0  0  0  0  0  0  0  0  0  0  0  0
   34.4729   36.0658   63.3763 C   0  0  0  0  0  0  0  0  0  0  0  0
   29.5974   36.6547   64.9095 P   0  0  1  0  0  0  0  0  0  0  0  0
   36.9696   30.7824   61.6375 N   0  0  0  0  0  0  0  0  0  0  0  0
   28.9737   35.3403   64.6103 O   0  0  0  0  0  0  0  0  0  0  0  0
   33.2794   35.7766   59.5424 S   0  0  0  0  0  0  0  0  0  0  0  0
   34.7656   35.0646   59.8693 C   0  0  0  0  0  0  0  0  0  0  0  0
   37.1506   30.5580   60.2899 C   0  0  0  0  0  0  0  0  0  0  0  0
   28.6228   37.7555   65.1236 O   0  5  0  0  0  0  0  0  0  0  0  0
   35.1836   35.1499   61.1503 N   0  0  0  0  0  0  0  0  0  0  0  0
   37.1992   31.5090   59.3959 N   0  0  0  0  0  0  0  0  0  0  0  0
   30.5952   36.5207   66.0186 O   0  0  0  0  0  0  0  0  0  0  0  0
   34.2366   35.8365   61.9124 C   0  0  2  0  0  0  0  0  0  0  0  0
   37.0471   32.8364   59.7830 C   0  0  0  0  0  0  0  0  0  0  0  0
   37.1181   33.7922   58.8613 N   0  0  0  0  0  0  0  0  0  0  0  0
   33.1329   36.2614   61.2112 C   0  0  1  0  0  0  0  0  0  0  0  0
   36.8112   33.1440   61.1840 C   0  0  0  0  0  0  0  0  0  0  0  0
   31.9655   37.0270   61.7213 C   0  0  0  0  0  0  0  0  0  0  0  0
   36.8168   32.0671   62.0475 C   0  0  0  0  0  0  0  0  0  0  0  0
   31.4049   36.4045   62.9446 C   0  0  0  0  0  0  0  0  0  0  0  0
   36.5198   34.5601   61.6428 C   0  0  0  0  0  0  0  0  0  0  0  0
   30.3812   37.1286   63.6281 O   0  0  0  0  0  0  0  0  0  0  0  0
  1  8  1  0  0  0  0
  3  5  1  6  0  0  0
  3  9  1  0  0  0  0
  3 12  2  0  0  0  0
  3 22  1  0  0  0  0
  4  8  2  0  0  0  0
  4 19  1  0  0  0  0
  6 16  1  0  0  0  0
  6  7  1  0  0  0  0
  7 10  1  0  0  0  0
  8 11  1  0  0  0  0
 10 13  1  0  0  0  0
 10 21  1  0  0  0  0
 11 14  2  0  0  0  0
 13  2  1  6  0  0  0
 13 16  1  0  0  0  0
 14 15  1  0  0  0  0
 14 17  1  0  0  0  0
 16 18  1  6  0  0  0
 17 19  2  0  0  0  0
 17 21  1  0  0  0  0
 18 20  1  0  0  0  0
 20 22  1  0  0  0  0
M  CHG  1   9  -1
M  END
>  <CHROM.1>
-46.56928329,130.39475074,66.44896910,172.67293607,177.53242091,-55.88575288
33.64405020,34.76556461,61.99179998,0.05950554,-0.74133655,2.37699021

>  <Name>
ligand

>  <RI>
0

>  <Rbt.Current_Directory>
/home/itssahil/PROJECTS/Mol_Feturizer/New_Systems/rnas/2HOM

>  <Rbt.Executable>
rbdock ($Id: //depot/dev/client3/rdock/2013.1/src/exe/rbdock.cxx#4 $)

>  <Rbt.Library>
libRbt.so (2013.1, Build901 2013/11/27)

>  <Rbt.Parameter_File>
/export/apps/rDock/src/rDock_2013.1_src/data/scripts/dock_solv.prm

>  <Rbt.Receptor>
prm/blind_docking_100.prm

>  <SCORE>
-19.8685

>  <SCORE.INTER>
-21.5818

>  <SCORE.INTER.CONST>
1

>  <SCORE.INTER.POLAR>
-1.62817

>  <SCORE.INTER.ROT>
6

>  <SCORE.INTER.SOLV>
14.9118

>  <SCORE.INTER.VDW>
-21.5312

>  <SCORE.INTER.norm>
-0.98099

>  <SCORE.INTRA>
1.71326

>  <SCORE.INTRA.DIHEDRAL>
-0.261634

>  <SCORE.INTRA.DIHEDRAL.0>
5.05013

>  <SCORE.INTRA.POLAR>
0

>  <SCORE.INTRA.POLAR.0>
0

>  <SCORE.INTRA.REPUL>
0

>  <SCORE.INTRA.REPUL.0>
0

>  <SCORE.INTRA.SOLV>
1.55915

>  <SCORE.INTRA.SOLV.lig_0>
-54.1265

>  <SCORE.INTRA.VDW>
1.0645

>  <SCORE.INTRA.VDW.0>
-2.1303

>  <SCORE.INTRA.norm>
0.0778753

>  <SCORE.RESTR>
0

>  <SCORE.RESTR.CAVITY>
0

>  <SCORE.RESTR.norm>
0

>  <SCORE.SYSTEM>
0

>  <SCORE.SYSTEM.CONST>
0

>  <SCORE.SYSTEM.DIHEDRAL>
0

>  <SCORE.SYSTEM.SOLV>
0

>  <SCORE.SYSTEM.norm>
0

>  <SCORE.heavy>
22

>  <SCORE.norm>
-0.903114

>  <RMSD>
14.693

$$$$
ligand
 OpenBabel11021811443D
libRbt.so/2013.1/901 2013/11/27
 22 23  0  0  0  0  0  0  0  0999 V2000
   30.0927   37.8735   61.0044 C   0  0  0  0  0  0  0  0  0  0  0  0
   35.0988   33.6954   62.5490 C   0  0  0  0  0  0  0  0  0  0  0  0
   37.9038   28.7228   59.7621 P   0  0  1  0  0  0  0  0  0  0  0  0
   32.2046   37.6086   62.0967 N   0  0  0  0  0  0  0  0  0  0  0  0
   38.8928   27.6185   59.8542 O   0  0  0  0  0  0  0  0  0  0  0  0
   36.8204   33.0100   58.9751 S   0  0  0  0  0  0  0  0  0  0  0  0
   36.5274   34.6295   59.3127 C   0  0  0  0  0  0  0  0  0  0  0  0
   31.4791   37.4130   60.9414 C   0  0  0  0  0  0  0  0  0  0  0  0
   38.3768   29.8997   58.9885 O   0  5  0  0  0  0  0  0  0  0  0  0
   35.9510   34.8808   60.5076 N   0  0  0  0  0  0  0  0  0  0  0  0
   31.9632   36.8497   59.8670 N   0  0  0  0  0  0  0  0  0  0  0  0
   36.5781   28.2014   59.2991 O   0  0  0  0  0  0  0  0  0  0  0  0
   35.7347   33.6822   61.1900 C   0  0  2  0  0  0  0  0  0  0  0  0
   33.2873   36.4242   59.8408 C   0  0  0  0  0  0  0  0  0  0  0  0
   33.7571   35.8360   58.7446 N   0  0  0  0  0  0  0  0  0  0  0  0
   36.1377   32.5549   60.5140 C   0  0  1  0  0  0  0  0  0  0  0  0
   34.1237   36.6362   61.0106 C   0  0  0  0  0  0  0  0  0  0  0  0
   36.0312   31.1391   60.9535 C   0  0  0  0  0  0  0  0  0  0  0  0
   33.5004   37.2053   62.1029 C   0  0  0  0  0  0  0  0  0  0  0  0
   37.3103   30.6540   61.5253 C   0  0  0  0  0  0  0  0  0  0  0  0
   35.6029   36.3013   60.9943 C   0  0  0  0  0  0  0  0  0  0  0  0
   37.6959   29.3166   61.2061 O   0  0  0  0  0  0  0  0  0  0  0  0
  1  8  1  0  0  0  0
  3  5  1  1  0  0  0
  3  9  1  0  0  0  0
  3 12  2  0  0  0  0
  3 22  1  0  0  0  0
  4  8  2  0  0  0  0
  4 19  1  0  0  0  0
  6 16  1  0  0  0  0
  6  7  1  0  0  0  0
  7 10  1  0  0  0  0
  8 11  1  0  0  0  0
 10 13  1  0  0  0  0
 10 21  1  0  0  0  0
 11 14  2  0  0  0  0
 13  2  1  6  0  0  0
 13 16  1  0  0  0  0
 14 15  1  0  0  0  0
 14 17  1  0  0  0  0
 16 18  1  6  0  0  0
 17 19  2  0  0  0  0
 17 21  1  0  0  0  0
 18 20  1  0  0  0  0
 20 22  1  0  0  0  0
M  CHG  1   9  -1
M  END
>  <CHROM.1>
107.94393167,82.12188122,-51.48948143,-140.62361469,57.51358185,152.35306858
35.52961498,33.18486748,60.37582796,2.57085920,0.86016341,-0.74894617

>  <Name>
ligand

>  <RI>
0

>  <Rbt.Current_Directory>
/home/itssahil/PROJECTS/Mol_Feturizer/New_Systems/rnas/2HOM

>  <Rbt.Executable>
rbdock ($Id: //depot/dev/client3/rdock/2013.1/src/exe/rbdock.cxx#4 $)

>  <Rbt.Library>
libRbt.so (2013.1, Build901 2013/11/27)

>  <Rbt.Parameter_File>
/export/apps/rDock/src/rDock_2013.1_src/data/scripts/dock_solv.prm

>  <Rbt.Receptor>
prm/blind_docking_80.prm

>  <SCORE>
-9.86735

>  <SCORE.INTER>
-14.4501

>  <SCORE.INTER.CONST>
1

>  <SCORE.INTER.POLAR>
0

>  <SCORE.INTER.ROT>
6

>  <SCORE.INTER.SOLV>
15.9121

>  <SCORE.INTER.VDW>
-22.5374

>  <SCORE.INTER.norm>
-0.656821

>  <SCORE.INTRA>
4.02336

>  <SCORE.INTRA.DIHEDRAL>
5.08341

>  <SCORE.INTRA.DIHEDRAL.0>
5.05013

>  <SCORE.INTRA.POLAR>
0

>  <SCORE.INTRA.POLAR.0>
0

>  <SCORE.INTRA.REPUL>
0

>  <SCORE.INTRA.REPUL.0>
0

>  <SCORE.INTRA.SOLV>
4.18019

>  <SCORE.INTRA.SOLV.lig_0>
-54.1265

>  <SCORE.INTRA.VDW>
-0.608442

>  <SCORE.INTRA.VDW.0>
-2.1303

>  <SCORE.INTRA.norm>
0.18288

>  <SCORE.RESTR>
0.559359

>  <SCORE.RESTR.CAVITY>
0.559359

>  <SCORE.RESTR.norm>
0.0254254

>  <SCORE.SYSTEM>
0

>  <SCORE.SYSTEM.CONST>
0

>  <SCORE.SYSTEM.DIHEDRAL>
0

>  <SCORE.SYSTEM.SOLV>
0

>  <SCORE.SYSTEM.norm>
0

>  <SCORE.heavy>
22

>  <SCORE.norm>
-0.448516

>  <RMSD>
14.784

$$$$
ligand
 OpenBabel11021811443D
libRbt.so/2013.1/901 2013/11/27
 22 23  0  0  0  0  0  0  0  0999 V2000
   32.0512   39.5046   61.6151 C   0  0  0  0  0  0  0  0  0  0  0  0
   34.2385   33.3374   61.2964 C   0  0  0  0  0  0  0  0  0  0  0  0
   37.4394   29.3894   60.0443 P   0  0  1  0  0  0  0  0  0  0  0  0
   31.5674   37.4890   60.4207 N   0  0  0  0  0  0  0  0  0  0  0  0
   36.7819   28.5008   59.0523 O   0  0  0  0  0  0  0  0  0  0  0  0
   37.5718   33.7175   59.0711 S   0  0  0  0  0  0  0  0  0  0  0  0
   36.1980   34.4140   58.4001 C   0  0  0  0  0  0  0  0  0  0  0  0
   32.5435   38.3671   60.8394 C   0  0  0  0  0  0  0  0  0  0  0  0
   38.0219   28.6744   61.2091 O   0  5  0  0  0  0  0  0  0  0  0  0
   35.0691   34.2983   59.1318 N   0  0  0  0  0  0  0  0  0  0  0  0
   33.8128   38.2256   60.5657 N   0  0  0  0  0  0  0  0  0  0  0  0
   38.4094   30.3062   59.3644 O   0  0  0  0  0  0  0  0  0  0  0  0
   35.3385   33.6002   60.3104 C   0  0  2  0  0  0  0  0  0  0  0  0
   34.2473   37.1305   59.8262 C   0  0  0  0  0  0  0  0  0  0  0  0
   35.5410   37.0132   59.5415 N   0  0  0  0  0  0  0  0  0  0  0  0
   36.6450   33.1969   60.4537 C   0  0  1  0  0  0  0  0  0  0  0  0
   33.2770   36.1415   59.3865 C   0  0  0  0  0  0  0  0  0  0  0  0
   37.2457   32.4265   61.5740 C   0  0  0  0  0  0  0  0  0  0  0  0
   31.9591   36.4092   59.6978 C   0  0  0  0  0  0  0  0  0  0  0  0
   36.5039   31.1667   61.8211 C   0  0  0  0  0  0  0  0  0  0  0  0
   33.7100   34.8700   58.6821 C   0  0  0  0  0  0  0  0  0  0  0  0
   36.3300   30.2892   60.7079 O   0  0  0  0  0  0  0  0  0  0  0  0
  1  8  1  0  0  0  0
  3  5  1  6  0  0  0
  3  9  1  0  0  0  0
  3 12  2  0  0  0  0
  3 22  1  0  0  0  0
  4  8  2  0  0  0  0
  4 19  1  0  0  0  0
  6 16  1  0  0  0  0
  6  7  1  0  0  0  0
  7 10  1  0  0  0  0
  8 11  1  0  0  0  0
 10 13  1  0  0  0  0
 10 21  1  0  0  0  0
 11 14  2  0  0  0  0
 13  2  1  6  0  0  0
 13 16  1  0  0  0  0
 14 15  1  0  0  0  0
 14 17  1  0  0  0  0
 16 18  1  6  0  0  0
 17 19  2  0  0  0  0
 17 21  1  0  0  0  0
 18 20  1  0  0  0  0
 20 22  1  0  0  0  0
M  CHG  1   9  -1
M  END
>  <CHROM.1>
-104.13194172,-125.49293243,33.12330066,54.42128124,73.29695144,172.02021645
35.51784956,33.61488192,60.09441069,2.18532353,0.52815663,-0.32467131

>  <Name>
ligand

>  <RI>
0

>  <Rbt.Current_Directory>
/home/itssahil/PROJECTS/Mol_Feturizer/New_Systems/rnas/2HOM

>  <Rbt.Executable>
rbdock ($Id: //depot/dev/client3/rdock/2013.1/src/exe/rbdock.cxx#4 $)

>  <Rbt.Library>
libRbt.so (2013.1, Build901 2013/11/27)

>  <Rbt.Parameter_File>
/export/apps/rDock/src/rDock_2013.1_src/data/scripts/dock_solv.prm

>  <Rbt.Receptor>
prm/blind_docking_80.prm

>  <SCORE>
-11.9187

>  <SCORE.INTER>
-14.6

>  <SCORE.INTER.CONST>
1

>  <SCORE.INTER.POLAR>
0

>  <SCORE.INTER.ROT>
6

>  <SCORE.INTER.SOLV>
16.8094

>  <SCORE.INTER.VDW>
-22.9365

>  <SCORE.INTER.norm>
-0.663637

>  <SCORE.INTRA>
2.32794

>  <SCORE.INTRA.DIHEDRAL>
0.723814

>  <SCORE.INTRA.DIHEDRAL.0>
5.05013

>  <SCORE.INTRA.POLAR>
0

>  <SCORE.INTRA.POLAR.0>
0

>  <SCORE.INTRA.REPUL>
0

>  <SCORE.INTRA.REPUL.0>
0

>  <SCORE.INTRA.SOLV>
4.9006

>  <SCORE.INTRA.SOLV.lig_0>
-54.1265

>  <SCORE.INTRA.VDW>
-0.484265

>  <SCORE.INTRA.VDW.0>
-2.1303

>  <SCORE.INTRA.norm>
0.105815

>  <SCORE.RESTR>
0.353402

>  <SCORE.RESTR.CAVITY>
0.353402

>  <SCORE.RESTR.norm>
0.0160637

>  <SCORE.SYSTEM>
0

>  <SCORE.SYSTEM.CONST>
0

>  <SCORE.SYSTEM.DIHEDRAL>
0

>  <SCORE.SYSTEM.SOLV>
0

>  <SCORE.SYSTEM.norm>
0

>  <SCORE.heavy>
22

>  <SCORE.norm>
-0.541758

>  <RMSD>
14.821

$$$$
ligand
 OpenBabel11021811443D
libRbt.so/2013.1/901 2013/11/27
 22 23  0  0  0  0  0  0  0  0999 V2000
   30.5642   33.8540   54.0571 C   0  0  0  0  0  0  0  0  0  0  0  0
   36.4950   33.3109   58.5772 C   0  0  0  0  0  0  0  0  0  0  0  0
   37.4864   29.9447   61.1857 P   0  0  1  0  0  0  0  0  0  0  0  0
   32.3820   35.3329   54.5381 N   0  0  0  0  0  0  0  0  0  0  0  0
   37.8131   28.5938   61.7096 O   0  0  0  0  0  0  0  0  0  0  0  0
   34.1791   35.0570   61.3690 S   0  0  0  0  0  0  0  0  0  0  0  0
   34.0554   35.7303   59.8347 C   0  0  0  0  0  0  0  0  0  0  0  0
   31.6124   34.2799   54.9832 C   0  0  0  0  0  0  0  0  0  0  0  0
   38.4463   31.0032   61.5924 O   0  5  0  0  0  0  0  0  0  0  0  0
   34.8237   35.1580   58.8834 N   0  0  0  0  0  0  0  0  0  0  0  0
   31.7760   33.7006   56.1424 N   0  0  0  0  0  0  0  0  0  0  0  0
   37.2530   29.8907   59.7071 O   0  0  0  0  0  0  0  0  0  0  0  0
   35.5580   34.1074   59.4367 C   0  0  2  0  0  0  0  0  0  0  0  0
   32.7842   34.1303   56.9990 C   0  0  0  0  0  0  0  0  0  0  0  0
   32.9235   33.5407   58.1828 N   0  0  0  0  0  0  0  0  0  0  0  0
   35.3455   33.9023   60.7795 C   0  0  1  0  0  0  0  0  0  0  0  0
   33.6613   35.2099   56.5769 C   0  0  0  0  0  0  0  0  0  0  0  0
   35.9797   32.8867   61.6601 C   0  0  0  0  0  0  0  0  0  0  0  0
   33.3753   35.7750   55.3503 C   0  0  0  0  0  0  0  0  0  0  0  0
   35.3600   31.5521   61.4778 C   0  0  0  0  0  0  0  0  0  0  0  0
   34.8488   35.6367   57.4183 C   0  0  0  0  0  0  0  0  0  0  0  0
   36.1419   30.4185   61.8557 O   0  0  0  0  0  0  0  0  0  0  0  0
  1  8  1  0  0  0  0
  3  5  1  1  0  0  0
  3  9  1  0  0  0  0
  3 12  2  0  0  0  0
  3 22  1  0  0  0  0
  4  8  2  0  0  0  0
  4 19  1  0  0  0  0
  6 16  1  0  0  0  0
  6  7  1  0  0  0  0
  7 10  1  0  0  0  0
  8 11  1  0  0  0  0
 10 13  1  0  0  0  0
 10 21  1  0  0  0  0
 11 14  2  0  0  0  0
 13  2  1  1  0  0  0
 13 16  1  0  0  0  0
 14 15  1  0  0  0  0
 14 17  1  0  0  0  0
 16 18  1  1  0  0  0
 17 19  2  0  0  0  0
 17 21  1  0  0  0  0
 18 20  1  0  0  0  0
 20 22  1  0  0  0  0
M  CHG  1   9  -1
M  END
>  <CHROM.1>
-77.08292776,101.92877975,-16.92853799,157.65192994,-65.04252707,-169.10314179
34.88460613,33.10745645,59.08994506,-3.12297631,-0.97493116,0.68241642

>  <Name>
ligand

>  <RI>
0

>  <Rbt.Current_Directory>
/home/itssahil/PROJECTS/Mol_Feturizer/New_Systems/rnas/2HOM

>  <Rbt.Executable>
rbdock ($Id: //depot/dev/client3/rdock/2013.1/src/exe/rbdock.cxx#4 $)

>  <Rbt.Library>
libRbt.so (2013.1, Build901 2013/11/27)

>  <Rbt.Parameter_File>
/export/apps/rDock/src/rDock_2013.1_src/data/scripts/dock_solv.prm

>  <Rbt.Receptor>
prm/blind_docking_80.prm

>  <SCORE>
-6.98056

>  <SCORE.INTER>
-11.0395

>  <SCORE.INTER.CONST>
1

>  <SCORE.INTER.POLAR>
0

>  <SCORE.INTER.ROT>
6

>  <SCORE.INTER.SOLV>
24.8029

>  <SCORE.INTER.VDW>
-23.2273

>  <SCORE.INTER.norm>
-0.501796

>  <SCORE.INTRA>
3.99774

>  <SCORE.INTRA.DIHEDRAL>
1.55728

>  <SCORE.INTRA.DIHEDRAL.0>
5.05013

>  <SCORE.INTRA.POLAR>
0

>  <SCORE.INTRA.POLAR.0>
0

>  <SCORE.INTRA.REPUL>
0

>  <SCORE.INTRA.REPUL.0>
0

>  <SCORE.INTRA.SOLV>
7.41443

>  <SCORE.INTRA.SOLV.lig_0>
-54.1265

>  <SCORE.INTRA.VDW>
-0.488112

>  <SCORE.INTRA.VDW.0>
-2.1303

>  <SCORE.INTRA.norm>
0.181716

>  <SCORE.RESTR>
0.0611984

>  <SCORE.RESTR.CAVITY>
0.0611984

>  <SCORE.RESTR.norm>
0.00278175

>  <SCORE.SYSTEM>
0

>  <SCORE.SYSTEM.CONST>
0

>  <SCORE.SYSTEM.DIHEDRAL>
0

>  <SCORE.SYSTEM.SOLV>
0

>  <SCORE.SYSTEM.norm>
0

>  <SCORE.heavy>
22

>  <SCORE.norm>
-0.317298

>  <RMSD>
15.174

$$$$
ligand
 OpenBabel11021811443D
libRbt.so/2013.1/901 2013/11/27
 22 23  0  0  0  0  0  0  0  0999 V2000
   33.2240   33.9310   51.4802 C   0  0  0  0  0  0  0  0  0  0  0  0
   33.1630   35.7434   60.0144 C   0  0  0  0  0  0  0  0  0  0  0  0
   36.7286   31.7056   61.2341 P   0  0  1  0  0  0  0  0  0  0  0  0
   33.8287   35.3217   53.3305 N   0  0  0  0  0  0  0  0  0  0  0  0
   37.9272   31.5188   62.0912 O   0  0  0  0  0  0  0  0  0  0  0  0
   36.6580   35.3803   58.0497 S   0  0  0  0  0  0  0  0  0  0  0  0
   35.2959   35.3590   57.0665 C   0  0  0  0  0  0  0  0  0  0  0  0
   33.0221   34.2987   52.8809 C   0  0  0  0  0  0  0  0  0  0  0  0
   36.7772   30.9602   59.9499 O   0  5  0  0  0  0  0  0  0  0  0  0
   34.1131   35.4806   57.7064 N   0  0  0  0  0  0  0  0  0  0  0  0
   32.1297   33.6988   53.6223 N   0  0  0  0  0  0  0  0  0  0  0  0
   35.4784   31.4542   62.0200 O   0  0  0  0  0  0  0  0  0  0  0  0
   34.3285   35.5983   59.0807 C   0  0  2  0  0  0  0  0  0  0  0  0
   31.9644   34.0728   54.9519 C   0  0  0  0  0  0  0  0  0  0  0  0
   31.0380   33.4635   55.6859 N   0  0  0  0  0  0  0  0  0  0  0  0
   35.6492   35.5597   59.4610 C   0  0  1  0  0  0  0  0  0  0  0  0
   32.8105   35.1174   55.5052 C   0  0  0  0  0  0  0  0  0  0  0  0
   36.2066   35.6402   60.8365 C   0  0  0  0  0  0  0  0  0  0  0  0
   33.6928   35.7093   54.6240 C   0  0  0  0  0  0  0  0  0  0  0  0
   36.1849   34.3173   61.5057 C   0  0  0  0  0  0  0  0  0  0  0  0
   32.7553   35.4807   56.9768 C   0  0  0  0  0  0  0  0  0  0  0  0
   36.6921   33.2081   60.7629 O   0  0  0  0  0  0  0  0  0  0  0  0
  1  8  1  0  0  0  0
  3  5  1  1  0  0  0
  3  9  1  0  0  0  0
  3 12  2  0  0  0  0
  3 22  1  0  0  0  0
  4  8  2  0  0  0  0
  4 19  1  0  0  0  0
  6 16  1  0  0  0  0
  6  7  1  0  0  0  0
  7 10  1  0  0  0  0
  8 11  1  0  0  0  0
 10 13  1  0  0  0  0
 10 21  1  0  0  0  0
 11 14  2  0  0  0  0
 13  2  1  1  0  0  0
 13 16  1  0  0  0  0
 14 15  1  0  0  0  0
 14 17  1  0  0  0  0
 16 18  1  1  0  0  0
 17 19  2  0  0  0  0
 17 21  1  0  0  0  0
 18 20  1  0  0  0  0
 20 22  1  0  0  0  0
M  CHG  1   9  -1
M  END
>  <CHROM.1>
9.18655419,-96.30827479,127.55139589,48.04902710,-177.71743943,-82.44301817
34.82601762,34.07378259,58.00376226,-3.12317809,-1.10399445,0.28169991

>  <Name>
ligand

>  <RI>
0

>  <Rbt.Current_Directory>
/home/itssahil/PROJECTS/Mol_Feturizer/New_Systems/rnas/2HOM

>  <Rbt.Executable>
rbdock ($Id: //depot/dev/client3/rdock/2013.1/src/exe/rbdock.cxx#4 $)

>  <Rbt.Library>
libRbt.so (2013.1, Build901 2013/11/27)

>  <Rbt.Parameter_File>
/export/apps/rDock/src/rDock_2013.1_src/data/scripts/dock_solv.prm

>  <Rbt.Receptor>
prm/blind_docking_80.prm

>  <SCORE>
7.84231

>  <SCORE.INTER>
7.01673

>  <SCORE.INTER.CONST>
1

>  <SCORE.INTER.POLAR>
0

>  <SCORE.INTER.ROT>
6

>  <SCORE.INTER.SOLV>
23.2445

>  <SCORE.INTER.VDW>
-10.6703

>  <SCORE.INTER.norm>
0.318942

>  <SCORE.INTRA>
0.650227

>  <SCORE.INTRA.DIHEDRAL>
1.05808

>  <SCORE.INTRA.DIHEDRAL.0>
5.05013

>  <SCORE.INTRA.POLAR>
0

>  <SCORE.INTRA.POLAR.0>
0

>  <SCORE.INTRA.REPUL>
0

>  <SCORE.INTRA.REPUL.0>
0

>  <SCORE.INTRA.SOLV>
0.0683981

>  <SCORE.INTRA.SOLV.lig_0>
-54.1265

>  <SCORE.INTRA.VDW>
0.0869882

>  <SCORE.INTRA.VDW.0>
-2.1303

>  <SCORE.INTRA.norm>
0.0295558

>  <SCORE.RESTR>
0.175347

>  <SCORE.RESTR.CAVITY>
0.175347

>  <SCORE.RESTR.norm>
0.00797031

>  <SCORE.SYSTEM>
0

>  <SCORE.SYSTEM.CONST>
0

>  <SCORE.SYSTEM.DIHEDRAL>
0

>  <SCORE.SYSTEM.SOLV>
0

>  <SCORE.SYSTEM.norm>
0

>  <SCORE.heavy>
22

>  <SCORE.norm>
0.356468

>  <RMSD>
15.406

$$$$
ligand
 OpenBabel11021811443D
libRbt.so/2013.1/901 2013/11/27
 22 23  0  0  0  0  0  0  0  0999 V2000
   31.5409   33.6390   54.9433 C   0  0  0  0  0  0  0  0  0  0  0  0
   37.3309   33.5083   59.2881 C   0  0  0  0  0  0  0  0  0  0  0  0
   37.4691   29.0271   59.4354 P   0  0  1  0  0  0  0  0  0  0  0  0
   33.1337   35.2384   55.7357 N   0  0  0  0  0  0  0  0  0  0  0  0
   38.4277   28.2171   60.2300 O   0  0  0  0  0  0  0  0  0  0  0  0
   34.8924   33.6434   62.4884 S   0  0  0  0  0  0  0  0  0  0  0  0
   34.5043   34.7280   61.2654 C   0  0  0  0  0  0  0  0  0  0  0  0
   32.4012   34.1084   56.0284 C   0  0  0  0  0  0  0  0  0  0  0  0
   37.9531   29.3816   58.0762 O   0  5  0  0  0  0  0  0  0  0  0  0
   35.3099   34.6977   60.1823 N   0  0  0  0  0  0  0  0  0  0  0  0
   32.4425   33.4951   57.1808 N   0  0  0  0  0  0  0  0  0  0  0  0
   36.1155   28.3857   59.4355 O   0  0  0  0  0  0  0  0  0  0  0  0
   36.3036   33.7331   60.3583 C   0  0  2  0  0  0  0  0  0  0  0  0
   33.2733   33.9680   58.1914 C   0  0  0  0  0  0  0  0  0  0  0  0
   33.2880   33.3415   59.3642 N   0  0  0  0  0  0  0  0  0  0  0  0
   36.2443   33.0584   61.5548 C   0  0  1  0  0  0  0  0  0  0  0  0
   34.1059   35.1323   57.9383 C   0  0  0  0  0  0  0  0  0  0  0  0
   37.1573   31.9954   62.0504 C   0  0  0  0  0  0  0  0  0  0  0  0
   33.9551   35.7244   56.7005 C   0  0  0  0  0  0  0  0  0  0  0  0
   36.8315   30.6804   61.4481 C   0  0  0  0  0  0  0  0  0  0  0  0
   35.1158   35.6175   58.9606 C   0  0  0  0  0  0  0  0  0  0  0  0
   37.3218   30.4332   60.1298 O   0  0  0  0  0  0  0  0  0  0  0  0
  1  8  1  0  0  0  0
  3  5  1  1  0  0  0
  3  9  1  0  0  0  0
  3 12  2  0  0  0  0
  3 22  1  0  0  0  0
  4  8  2  0  0  0  0
  4 19  1  0  0  0  0
  6 16  1  0  0  0  0
  6  7  1  0  0  0  0
  7 10  1  0  0  0  0
  8 11  1  0  0  0  0
 10 13  1  0  0  0  0
 10 21  1  0  0  0  0
 11 14  2  0  0  0  0
 13  2  1  1  0  0  0
 13 16  1  0  0  0  0
 14 15  1  0  0  0  0
 14 17  1  0  0  0  0
 16 18  1  1  0  0  0
 17 19  2  0  0  0  0
 17 21  1  0  0  0  0
 18 20  1  0  0  0  0
 20 22  1  0  0  0  0
M  CHG  1   9  -1
M  END
>  <CHROM.1>
-83.69166795,100.94280512,7.22124547,80.43386769,161.75966357,-61.69604944
35.40830086,32.51657051,59.33621654,3.02218109,-0.93273095,0.87924323

>  <Name>
ligand

>  <RI>
0

>  <Rbt.Current_Directory>
/home/itssahil/PROJECTS/Mol_Feturizer/New_Systems/rnas/2HOM

>  <Rbt.Executable>
rbdock ($Id: //depot/dev/client3/rdock/2013.1/src/exe/rbdock.cxx#4 $)

>  <Rbt.Library>
libRbt.so (2013.1, Build901 2013/11/27)

>  <Rbt.Parameter_File>
/export/apps/rDock/src/rDock_2013.1_src/data/scripts/dock_solv.prm

>  <Rbt.Receptor>
prm/blind_docking_80.prm

>  <SCORE>
-8.97245

>  <SCORE.INTER>
-12.6151

>  <SCORE.INTER.CONST>
1

>  <SCORE.INTER.POLAR>
0

>  <SCORE.INTER.ROT>
6

>  <SCORE.INTER.SOLV>
21.3881

>  <SCORE.INTER.VDW>
-23.1395

>  <SCORE.INTER.norm>
-0.573415

>  <SCORE.INTRA>
3.64237

>  <SCORE.INTRA.DIHEDRAL>
2.69453

>  <SCORE.INTRA.DIHEDRAL.0>
5.05013

>  <SCORE.INTRA.POLAR>
0

>  <SCORE.INTRA.POLAR.0>
0

>  <SCORE.INTRA.REPUL>
0

>  <SCORE.INTRA.REPUL.0>
0

>  <SCORE.INTRA.SOLV>
4.50024

>  <SCORE.INTRA.SOLV.lig_0>
-54.1265

>  <SCORE.INTRA.VDW>
0.0449834

>  <SCORE.INTRA.VDW.0>
-2.1303

>  <SCORE.INTRA.norm>
0.165562

>  <SCORE.RESTR>
0.000317793

>  <SCORE.RESTR.CAVITY>
0.000317793

>  <SCORE.RESTR.norm>
1.44451e-05

>  <SCORE.SYSTEM>
0

>  <SCORE.SYSTEM.CONST>
0

>  <SCORE.SYSTEM.DIHEDRAL>
0

>  <SCORE.SYSTEM.SOLV>
0

>  <SCORE.SYSTEM.norm>
0

>  <SCORE.heavy>
22

>  <SCORE.norm>
-0.407839

>  <RMSD>
15.615

$$$$
ligand
 OpenBabel11021811443D
libRbt.so/2013.1/901 2013/11/27
 22 23  0  0  0  0  0  0  0  0999 V2000
   37.4146   28.3357   60.4509 C   0  0  0  0  0  0  0  0  0  0  0  0
   34.8522   35.3548   61.5695 C   0  0  0  0  0  0  0  0  0  0  0  0
   30.5157   38.2751   61.4055 P   0  0  1  0  0  0  0  0  0  0  0  0
   37.5268   30.3530   59.1698 N   0  0  0  0  0  0  0  0  0  0  0  0
   29.7335   39.5186   61.6253 O   0  0  0  0  0  0  0  0  0  0  0  0
   34.2409   35.4499   57.5915 S   0  0  0  0  0  0  0  0  0  0  0  0
   35.6771   34.7164   58.0625 C   0  0  0  0  0  0  0  0  0  0  0  0
   37.2946   29.7923   60.4071 C   0  0  0  0  0  0  0  0  0  0  0  0
   31.1116   37.7052   62.6413 O   0  5  0  0  0  0  0  0  0  0  0  0
   35.9006   34.6734   59.3934 N   0  0  0  0  0  0  0  0  0  0  0  0
   36.9763   30.4833   61.4688 N   0  0  0  0  0  0  0  0  0  0  0  0
   29.7129   37.2833   60.6210 O   0  0  0  0  0  0  0  0  0  0  0  0
   34.8382   35.2740   60.0713 C   0  0  2  0  0  0  0  0  0  0  0  0
   36.8719   31.8682   61.3923 C   0  0  0  0  0  0  0  0  0  0  0  0
   36.5286   32.5531   62.4791 N   0  0  0  0  0  0  0  0  0  0  0  0
   33.8411   35.7620   59.2601 C   0  0  1  0  0  0  0  0  0  0  0  0
   37.1439   32.5311   60.1275 C   0  0  0  0  0  0  0  0  0  0  0  0
   32.5962   36.4657   59.6653 C   0  0  0  0  0  0  0  0  0  0  0  0
   37.4339   31.7027   59.0621 C   0  0  0  0  0  0  0  0  0  0  0  0
   32.8952   37.7859   60.2701 C   0  0  0  0  0  0  0  0  0  0  0  0
   37.1617   34.0438   60.0172 C   0  0  0  0  0  0  0  0  0  0  0  0
   31.7831   38.6389   60.5441 O   0  0  0  0  0  0  0  0  0  0  0  0
  1  8  1  0  0  0  0
  3  5  1  1  0  0  0
  3  9  1  0  0  0  0
  3 12  2  0  0  0  0
  3 22  1  0  0  0  0
  4  8  2  0  0  0  0
  4 19  1  0  0  0  0
  6 16  1  0  0  0  0
  6  7  1  0  0  0  0
  7 10  1  0  0  0  0
  8 11  1  0  0  0  0
 10 13  1  0  0  0  0
 10 21  1  0  0  0  0
 11 14  2  0  0  0  0
 13  2  1  6  0  0  0
 13 16  1  0  0  0  0
 14 15  1  0  0  0  0
 14 17  1  0  0  0  0
 16 18  1  6  0  0  0
 17 19  2  0  0  0  0
 17 21  1  0  0  0  0
 18 20  1  0  0  0  0
 20 22  1  0  0  0  0
M  CHG  1   9  -1
M  END
>  <CHROM.1>
-79.93325035,-113.07140923,-102.19401191,172.09907541,54.77179969,170.23530585
34.26252604,34.85255615,60.29086267,0.28362579,-0.81986453,2.05787625

>  <Name>
ligand

>  <RI>
0

>  <Rbt.Current_Directory>
/home/itssahil/PROJECTS/Mol_Feturizer/New_Systems/rnas/2HOM

>  <Rbt.Executable>
rbdock ($Id: //depot/dev/client3/rdock/2013.1/src/exe/rbdock.cxx#4 $)

>  <Rbt.Library>
libRbt.so (2013.1, Build901 2013/11/27)

>  <Rbt.Parameter_File>
/export/apps/rDock/src/rDock_2013.1_src/data/scripts/dock_solv.prm

>  <Rbt.Receptor>
prm/blind_docking_80.prm

>  <SCORE>
-10.0486

>  <SCORE.INTER>
-12.3608

>  <SCORE.INTER.CONST>
1

>  <SCORE.INTER.POLAR>
0

>  <SCORE.INTER.ROT>
6

>  <SCORE.INTER.SOLV>
20.7494

>  <SCORE.INTER.VDW>
-22.757

>  <SCORE.INTER.norm>
-0.561855

>  <SCORE.INTRA>
2.18171

>  <SCORE.INTRA.DIHEDRAL>
0.160458

>  <SCORE.INTRA.DIHEDRAL.0>
5.05013

>  <SCORE.INTRA.POLAR>
0

>  <SCORE.INTRA.POLAR.0>
0

>  <SCORE.INTRA.REPUL>
0

>  <SCORE.INTRA.REPUL.0>
0

>  <SCORE.INTRA.SOLV>
3.75442

>  <SCORE.INTRA.SOLV.lig_0>
-54.1265

>  <SCORE.INTRA.VDW>
0.224268

>  <SCORE.INTRA.VDW.0>
-2.1303

>  <SCORE.INTRA.norm>
0.0991686

>  <SCORE.RESTR>
0.130525

>  <SCORE.RESTR.CAVITY>
0.130525

>  <SCORE.RESTR.norm>
0.00593294

>  <SCORE.SYSTEM>
0

>  <SCORE.SYSTEM.CONST>
0

>  <SCORE.SYSTEM.DIHEDRAL>
0

>  <SCORE.SYSTEM.SOLV>
0

>  <SCORE.SYSTEM.norm>
0

>  <SCORE.heavy>
22

>  <SCORE.norm>
-0.456754

>  <RMSD>
15.627

$$$$
ligand
 OpenBabel11021811443D
libRbt.so/2013.1/901 2013/11/27
 22 23  0  0  0  0  0  0  0  0999 V2000
   32.7407   35.4137   51.9579 C   0  0  0  0  0  0  0  0  0  0  0  0
   33.7420   33.4963   60.4302 C   0  0  0  0  0  0  0  0  0  0  0  0
   37.3901   31.1497   59.4144 P   0  0  1  0  0  0  0  0  0  0  0  0
   33.6917   35.7121   54.1327 N   0  0  0  0  0  0  0  0  0  0  0  0
   36.7423   32.0836   58.4582 O   0  0  0  0  0  0  0  0  0  0  0  0
   36.7647   35.2291   58.4133 S   0  0  0  0  0  0  0  0  0  0  0  0
   35.3347   35.0830   57.5436 C   0  0  0  0  0  0  0  0  0  0  0  0
   32.7006   35.1105   53.3877 C   0  0  0  0  0  0  0  0  0  0  0  0
   36.5262   30.0181   59.8390 O   0  5  0  0  0  0  0  0  0  0  0  0
   34.3079   34.5051   58.2029 N   0  0  0  0  0  0  0  0  0  0  0  0
   31.7778   34.3386   53.8962 N   0  0  0  0  0  0  0  0  0  0  0  0
   38.7271   30.7149   58.8975 O   0  0  0  0  0  0  0  0  0  0  0  0
   34.7093   34.1600   59.4947 C   0  0  2  0  0  0  0  0  0  0  0  0
   31.7698   34.0698   55.2610 C   0  0  0  0  0  0  0  0  0  0  0  0
   30.8115   33.2968   55.7634 N   0  0  0  0  0  0  0  0  0  0  0  0
   36.0151   34.4702   59.7930 C   0  0  1  0  0  0  0  0  0  0  0  0
   32.8105   34.6380   56.1019 C   0  0  0  0  0  0  0  0  0  0  0  0
   36.7465   34.2196   61.0624 C   0  0  0  0  0  0  0  0  0  0  0  0
   33.7122   35.4688   55.4677 C   0  0  0  0  0  0  0  0  0  0  0  0
   36.7130   32.7836   61.4299 C   0  0  0  0  0  0  0  0  0  0  0  0
   32.9192   34.2818   57.5722 C   0  0  0  0  0  0  0  0  0  0  0  0
   37.6380   31.9234   60.7638 O   0  0  0  0  0  0  0  0  0  0  0  0
  1  8  1  0  0  0  0
  3  5  1  6  0  0  0
  3  9  1  0  0  0  0
  3 12  2  0  0  0  0
  3 22  1  0  0  0  0
  4  8  2  0  0  0  0
  4 19  1  0  0  0  0
  6 16  1  0  0  0  0
  6  7  1  0  0  0  0
  7 10  1  0  0  0  0
  8 11  1  0  0  0  0
 10 13  1  0  0  0  0
 10 21  1  0  0  0  0
 11 14  2  0  0  0  0
 13  2  1  6  0  0  0
 13 16  1  0  0  0  0
 14 15  1  0  0  0  0
 14 17  1  0  0  0  0
 16 18  1  6  0  0  0
 17 19  2  0  0  0  0
 17 21  1  0  0  0  0
 18 20  1  0  0  0  0
 20 22  1  0  0  0  0
M  CHG  1   9  -1
M  END
>  <CHROM.1>
5.54237064,-123.34264410,158.02312927,80.08481132,-89.84018309,44.47385307
35.07049220,33.58920538,57.80995325,-2.93070125,-0.91962792,0.72064516

>  <Name>
ligand

>  <RI>
0

>  <Rbt.Current_Directory>
/home/itssahil/PROJECTS/Mol_Feturizer/New_Systems/rnas/2HOM

>  <Rbt.Executable>
rbdock ($Id: //depot/dev/client3/rdock/2013.1/src/exe/rbdock.cxx#4 $)

>  <Rbt.Library>
libRbt.so (2013.1, Build901 2013/11/27)

>  <Rbt.Parameter_File>
/export/apps/rDock/src/rDock_2013.1_src/data/scripts/dock_solv.prm

>  <Rbt.Receptor>
prm/blind_docking_80.prm

>  <SCORE>
-0.790561

>  <SCORE.INTER>
-4.32603

>  <SCORE.INTER.CONST>
1

>  <SCORE.INTER.POLAR>
0

>  <SCORE.INTER.ROT>
6

>  <SCORE.INTER.SOLV>
23.7918

>  <SCORE.INTER.VDW>
-18.4146

>  <SCORE.INTER.norm>
-0.196638

>  <SCORE.INTRA>
3.41959

>  <SCORE.INTRA.DIHEDRAL>
4.99007

>  <SCORE.INTRA.DIHEDRAL.0>
5.05013

>  <SCORE.INTRA.POLAR>
0

>  <SCORE.INTRA.POLAR.0>
0

>  <SCORE.INTRA.REPUL>
0

>  <SCORE.INTRA.REPUL.0>
0

>  <SCORE.INTRA.SOLV>
0.536637

>  <SCORE.INTRA.SOLV.lig_0>
-54.1265

>  <SCORE.INTRA.VDW>
0.656239

>  <SCORE.INTRA.VDW.0>
-2.1303

>  <SCORE.INTRA.norm>
0.155436

>  <SCORE.RESTR>
0.115873

>  <SCORE.RESTR.CAVITY>
0.115873

>  <SCORE.RESTR.norm>
0.00526695

>  <SCORE.SYSTEM>
0

>  <SCORE.SYSTEM.CONST>
0

>  <SCORE.SYSTEM.DIHEDRAL>
0

>  <SCORE.SYSTEM.SOLV>
0

>  <SCORE.SYSTEM.norm>
0

>  <SCORE.heavy>
22

>  <SCORE.norm>
-0.0359346

>  <RMSD>
15.664

$$$$
ligand
 OpenBabel11021811443D
libRbt.so/2013.1/901 2013/11/27
 22 23  0  0  0  0  0  0  0  0999 V2000
   33.8748   34.0179   51.3528 C   0  0  0  0  0  0  0  0  0  0  0  0
   33.3721   35.4417   59.9471 C   0  0  0  0  0  0  0  0  0  0  0  0
   36.9103   31.5537   61.2471 P   0  0  1  0  0  0  0  0  0  0  0  0
   34.6500   34.9575   53.4118 N   0  0  0  0  0  0  0  0  0  0  0  0
   38.0480   31.5120   62.2011 O   0  0  0  0  0  0  0  0  0  0  0  0
   36.9777   35.4193   58.1568 S   0  0  0  0  0  0  0  0  0  0  0  0
   35.6712   35.3657   57.1019 C   0  0  0  0  0  0  0  0  0  0  0  0
   33.6010   34.3588   52.7481 C   0  0  0  0  0  0  0  0  0  0  0  0
   37.1530   30.8191   59.9788 O   0  5  0  0  0  0  0  0  0  0  0  0
   34.4524   35.3735   57.6828 N   0  0  0  0  0  0  0  0  0  0  0  0
   32.4395   34.1177   53.2946 N   0  0  0  0  0  0  0  0  0  0  0  0
   35.6387   31.1544   61.9308 O   0  0  0  0  0  0  0  0  0  0  0  0
   34.5901   35.4262   59.0711 C   0  0  2  0  0  0  0  0  0  0  0  0
   32.2132   34.4539   54.6252 C   0  0  0  0  0  0  0  0  0  0  0  0
   31.0183   34.2179   55.1589 N   0  0  0  0  0  0  0  0  0  0  0  0
   35.8896   35.4519   59.5192 C   0  0  1  0  0  0  0  0  0  0  0  0
   33.2892   35.0514   55.3987 C   0  0  0  0  0  0  0  0  0  0  0  0
   36.3706   35.4898   60.9251 C   0  0  0  0  0  0  0  0  0  0  0  0
   34.4615   35.2967   54.7123 C   0  0  0  0  0  0  0  0  0  0  0  0
   36.3067   34.1483   61.5535 C   0  0  0  0  0  0  0  0  0  0  0  0
   33.1359   35.3269   56.8823 C   0  0  0  0  0  0  0  0  0  0  0  0
   36.7335   33.0408   60.7594 O   0  0  0  0  0  0  0  0  0  0  0  0
  1  8  1  0  0  0  0
  3  5  1  1  0  0  0
  3  9  1  0  0  0  0
  3 12  2  0  0  0  0
  3 22  1  0  0  0  0
  4  8  2  0  0  0  0
  4 19  1  0  0  0  0
  6 16  1  0  0  0  0
  6  7  1  0  0  0  0
  7 10  1  0  0  0  0
  8 11  1  0  0  0  0
 10 13  1  0  0  0  0
 10 21  1  0  0  0  0
 11 14  2  0  0  0  0
 13  2  1  1  0  0  0
 13 16  1  0  0  0  0
 14 15  1  0  0  0  0
 14 17  1  0  0  0  0
 16 18  1  1  0  0  0
 17 19  2  0  0  0  0
 17 21  1  0  0  0  0
 18 20  1  0  0  0  0
 20 22  1  0  0  0  0
M  CHG  1   9  -1
M  END
>  <CHROM.1>
9.23889229,-100.67439496,154.80389322,42.32769753,172.75820892,-67.61641786
35.13581498,34.02349436,57.96349879,-2.82948359,-1.11790447,0.62645528

>  <Name>
ligand

>  <RI>
0

>  <Rbt.Current_Directory>
/home/itssahil/PROJECTS/Mol_Feturizer/New_Systems/rnas/2HOM

>  <Rbt.Executable>
rbdock ($Id: //depot/dev/client3/rdock/2013.1/src/exe/rbdock.cxx#4 $)

>  <Rbt.Library>
libRbt.so (2013.1, Build901 2013/11/27)

>  <Rbt.Parameter_File>
/export/apps/rDock/src/rDock_2013.1_src/data/scripts/dock_solv.prm

>  <Rbt.Receptor>
prm/blind_docking_80.prm

>  <SCORE>
2.46436

>  <SCORE.INTER>
-0.0892782

>  <SCORE.INTER.CONST>
1

>  <SCORE.INTER.POLAR>
0

>  <SCORE.INTER.ROT>
6

>  <SCORE.INTER.SOLV>
21.2646

>  <SCORE.INTER.VDW>
-14.7477

>  <SCORE.INTER.norm>
-0.0040581

>  <SCORE.INTRA>
1.56896

>  <SCORE.INTRA.DIHEDRAL>
1.20149

>  <SCORE.INTRA.DIHEDRAL.0>
5.05013

>  <SCORE.INTRA.POLAR>
0

>  <SCORE.INTRA.POLAR.0>
0

>  <SCORE.INTRA.REPUL>
0

>  <SCORE.INTRA.REPUL.0>
0

>  <SCORE.INTRA.SOLV>
-0.0753701

>  <SCORE.INTRA.SOLV.lig_0>
-54.1265

>  <SCORE.INTRA.VDW>
1.0059

>  <SCORE.INTRA.VDW.0>
-2.1303

>  <SCORE.INTRA.norm>
0.0713162

>  <SCORE.RESTR>
0.984678

>  <SCORE.RESTR.CAVITY>
0.984678

>  <SCORE.RESTR.norm>
0.0447581

>  <SCORE.SYSTEM>
0

>  <SCORE.SYSTEM.CONST>
0

>  <SCORE.SYSTEM.DIHEDRAL>
0

>  <SCORE.SYSTEM.SOLV>
0

>  <SCORE.SYSTEM.norm>
0

>  <SCORE.heavy>
22

>  <SCORE.norm>
0.112016

>  <RMSD>
15.699

$$$$
ligand
 OpenBabel11021811443D
libRbt.so/2013.1/901 2013/11/27
 22 23  0  0  0  0  0  0  0  0999 V2000
   31.3698   37.8137   61.5708 C   0  0  0  0  0  0  0  0  0  0  0  0
   37.6640   31.7349   62.1019 C   0  0  0  0  0  0  0  0  0  0  0  0
   36.9692   27.2615   58.8692 P   0  0  1  0  0  0  0  0  0  0  0  0
   32.3271   35.8138   62.4693 N   0  0  0  0  0  0  0  0  0  0  0  0
   35.8832   26.7851   59.7636 O   0  0  0  0  0  0  0  0  0  0  0  0
   36.2621   32.5403   58.4151 S   0  0  0  0  0  0  0  0  0  0  0  0
   35.6747   33.5485   59.6239 C   0  0  0  0  0  0  0  0  0  0  0  0
   32.5024   36.8906   61.6272 C   0  0  0  0  0  0  0  0  0  0  0  0
   38.2689   27.4811   59.5545 O   0  5  0  0  0  0  0  0  0  0  0  0
   36.1338   33.2954   60.8682 N   0  0  0  0  0  0  0  0  0  0  0  0
   33.5787   37.0862   60.9136 N   0  0  0  0  0  0  0  0  0  0  0  0
   37.0758   26.3828   57.6608 O   0  0  0  0  0  0  0  0  0  0  0  0
   37.0175   32.2151   60.8359 C   0  0  2  0  0  0  0  0  0  0  0  0
   34.6384   36.1885   60.9923 C   0  0  0  0  0  0  0  0  0  0  0  0
   35.7184   36.3941   60.2442 N   0  0  0  0  0  0  0  0  0  0  0  0
   37.2107   31.6675   59.5897 C   0  0  1  0  0  0  0  0  0  0  0  0
   34.5392   35.0511   61.8920 C   0  0  0  0  0  0  0  0  0  0  0  0
   38.0665   30.5087   59.2237 C   0  0  0  0  0  0  0  0  0  0  0  0
   33.3435   34.9201   62.5693 C   0  0  0  0  0  0  0  0  0  0  0  0
   37.5036   29.7651   58.0711 C   0  0  0  0  0  0  0  0  0  0  0  0
   35.7091   34.1098   62.1060 C   0  0  0  0  0  0  0  0  0  0  0  0
   36.5925   28.7060   58.3669 O   0  0  0  0  0  0  0  0  0  0  0  0
  1  8  1  0  0  0  0
  3  5  1  1  0  0  0
  3  9  1  0  0  0  0
  3 12  2  0  0  0  0
  3 22  1  0  0  0  0
  4  8  2  0  0  0  0
  4 19  1  0  0  0  0
  6 16  1  0  0  0  0
  6  7  1  0  0  0  0
  7 10  1  0  0  0  0
  8 11  1  0  0  0  0
 10 13  1  0  0  0  0
 10 21  1  0  0  0  0
 11 14  2  0  0  0  0
 13  2  1  1  0  0  0
 13 16  1  0  0  0  0
 14 15  1  0  0  0  0
 14 17  1  0  0  0  0
 16 18  1  1  0  0  0
 17 19  2  0  0  0  0
 17 21  1  0  0  0  0
 18 20  1  0  0  0  0
 20 22  1  0  0  0  0
M  CHG  1   9  -1
M  END
>  <CHROM.1>
11.16532418,-30.79826362,-65.13146348,-89.64934357,-78.11831599,147.40360336
35.78943095,32.10401816,60.10350370,2.01895398,0.48587332,0.08815121

>  <Name>
ligand

>  <RI>
0

>  <Rbt.Current_Directory>
/home/itssahil/PROJECTS/Mol_Feturizer/New_Systems/rnas/2HOM

>  <Rbt.Executable>
rbdock ($Id: //depot/dev/client3/rdock/2013.1/src/exe/rbdock.cxx#4 $)

>  <Rbt.Library>
libRbt.so (2013.1, Build901 2013/11/27)

>  <Rbt.Parameter_File>
/export/apps/rDock/src/rDock_2013.1_src/data/scripts/dock_solv.prm

>  <Rbt.Receptor>
prm/blind_docking_80.prm

>  <SCORE>
-2.87258

>  <SCORE.INTER>
-9.3163

>  <SCORE.INTER.CONST>
1

>  <SCORE.INTER.POLAR>
0

>  <SCORE.INTER.ROT>
6

>  <SCORE.INTER.SOLV>
10.8762

>  <SCORE.INTER.VDW>
-17.4363

>  <SCORE.INTER.norm>
-0.423468

>  <SCORE.INTRA>
5.3344

>  <SCORE.INTRA.DIHEDRAL>
5.49348

>  <SCORE.INTRA.DIHEDRAL.0>
5.05013

>  <SCORE.INTRA.POLAR>
0

>  <SCORE.INTRA.POLAR.0>
0

>  <SCORE.INTRA.REPUL>
0

>  <SCORE.INTRA.REPUL.0>
0

>  <SCORE.INTRA.SOLV>
2.9532

>  <SCORE.INTRA.SOLV.lig_0>
-54.1265

>  <SCORE.INTRA.VDW>
1.11106

>  <SCORE.INTRA.VDW.0>
-2.1303

>  <SCORE.INTRA.norm>
0.242473

>  <SCORE.RESTR>
1.10933

>  <SCORE.RESTR.CAVITY>
1.10933

>  <SCORE.RESTR.norm>
0.050424

>  <SCORE.SYSTEM>
0

>  <SCORE.SYSTEM.CONST>
0

>  <SCORE.SYSTEM.DIHEDRAL>
0

>  <SCORE.SYSTEM.SOLV>
0

>  <SCORE.SYSTEM.norm>
0

>  <SCORE.heavy>
22

>  <SCORE.norm>
-0.130572

>  <RMSD>
15.892

$$$$
ligand
 OpenBabel11021811443D
libRbt.so/2013.1/901 2013/11/27
 22 23  0  0  0  0  0  0  0  0999 V2000
   33.1888   33.8866   51.9946 C   0  0  0  0  0  0  0  0  0  0  0  0
   33.6481   34.8197   60.4636 C   0  0  0  0  0  0  0  0  0  0  0  0
   37.3815   29.9362   60.3347 P   0  0  1  0  0  0  0  0  0  0  0  0
   34.1767   35.1619   53.7613 N   0  0  0  0  0  0  0  0  0  0  0  0
   38.5164   30.1232   59.3948 O   0  0  0  0  0  0  0  0  0  0  0  0
   37.1070   34.1387   58.5197 S   0  0  0  0  0  0  0  0  0  0  0  0
   35.8695   34.7429   57.5573 C   0  0  0  0  0  0  0  0  0  0  0  0
   33.1699   34.2933   53.3989 C   0  0  0  0  0  0  0  0  0  0  0  0
   36.2655   29.1232   59.7863 O   0  5  0  0  0  0  0  0  0  0  0  0
   34.7008   34.9792   58.1909 N   0  0  0  0  0  0  0  0  0  0  0  0
   32.2506   33.8642   54.2216 N   0  0  0  0  0  0  0  0  0  0  0  0
   37.8756   29.4483   61.6619 O   0  0  0  0  0  0  0  0  0  0  0  0
   34.8196   34.6483   59.5420 C   0  0  2  0  0  0  0  0  0  0  0  0
   32.2630   34.2702   55.5520 C   0  0  0  0  0  0  0  0  0  0  0  0
   31.3081   33.8378   56.3702 N   0  0  0  0  0  0  0  0  0  0  0  0
   36.0543   34.1681   59.9098 C   0  0  1  0  0  0  0  0  0  0  0  0
   33.3207   35.1538   56.0141 C   0  0  0  0  0  0  0  0  0  0  0  0
   36.4946   33.7150   61.2552 C   0  0  0  0  0  0  0  0  0  0  0  0
   34.2172   35.5760   55.0530 C   0  0  0  0  0  0  0  0  0  0  0  0
   37.3168   32.4842   61.1676 C   0  0  0  0  0  0  0  0  0  0  0  0
   33.4508   35.5310   57.4774 C   0  0  0  0  0  0  0  0  0  0  0  0
   36.7057   31.3388   60.5726 O   0  0  0  0  0  0  0  0  0  0  0  0
  1  8  1  0  0  0  0
  3  5  1  6  0  0  0
  3  9  1  0  0  0  0
  3 12  2  0  0  0  0
  3 22  1  0  0  0  0
  4  8  2  0  0  0  0
  4 19  1  0  0  0  0
  6 16  1  0  0  0  0
  6  7  1  0  0  0  0
  7 10  1  0  0  0  0
  8 11  1  0  0  0  0
 10 13  1  0  0  0  0
 10 21  1  0  0  0  0
 11 14  2  0  0  0  0
 13  2  1  6  0  0  0
 13 16  1  0  0  0  0
 14 15  1  0  0  0  0
 14 17  1  0  0  0  0
 16 18  1  6  0  0  0
 17 19  2  0  0  0  0
 17 21  1  0  0  0  0
 18 20  1  0  0  0  0
 20 22  1  0  0  0  0
M  CHG  1   9  -1
M  END
>  <CHROM.1>
29.93938080,-41.15769113,112.64903961,-59.27444928,178.34830253,-62.84014253
35.31201650,33.15719038,58.08522831,-2.93684293,-1.01918031,0.81054178

>  <Name>
ligand

>  <RI>
0

>  <Rbt.Current_Directory>
/home/itssahil/PROJECTS/Mol_Feturizer/New_Systems/rnas/2HOM

>  <Rbt.Executable>
rbdock ($Id: //depot/dev/client3/rdock/2013.1/src/exe/rbdock.cxx#4 $)

>  <Rbt.Library>
libRbt.so (2013.1, Build901 2013/11/27)

>  <Rbt.Parameter_File>
/export/apps/rDock/src/rDock_2013.1_src/data/scripts/dock_solv.prm

>  <Rbt.Receptor>
prm/blind_docking_80.prm

>  <SCORE>
3.7607

>  <SCORE.INTER>
2.87894

>  <SCORE.INTER.CONST>
1

>  <SCORE.INTER.POLAR>
0

>  <SCORE.INTER.ROT>
6

>  <SCORE.INTER.SOLV>
26.3773

>  <SCORE.INTER.VDW>
-14.4731

>  <SCORE.INTER.norm>
0.130861

>  <SCORE.INTRA>
0.238578

>  <SCORE.INTRA.DIHEDRAL>
0.00569476

>  <SCORE.INTRA.DIHEDRAL.0>
5.05013

>  <SCORE.INTRA.POLAR>
0

>  <SCORE.INTRA.POLAR.0>
0

>  <SCORE.INTRA.REPUL>
0

>  <SCORE.INTRA.REPUL.0>
0

>  <SCORE.INTRA.SOLV>
-0.0504365

>  <SCORE.INTRA.SOLV.lig_0>
-54.1265

>  <SCORE.INTRA.VDW>
0.260949

>  <SCORE.INTRA.VDW.0>
-2.1303

>  <SCORE.INTRA.norm>
0.0108444

>  <SCORE.RESTR>
0.643186

>  <SCORE.RESTR.CAVITY>
0.643186

>  <SCORE.RESTR.norm>
0.0292357

>  <SCORE.SYSTEM>
0

>  <SCORE.SYSTEM.CONST>
0

>  <SCORE.SYSTEM.DIHEDRAL>
0

>  <SCORE.SYSTEM.SOLV>
0

>  <SCORE.SYSTEM.norm>
0

>  <SCORE.heavy>
22

>  <SCORE.norm>
0.170941

>  <RMSD>
15.909

$$$$
ligand
 OpenBabel11021811443D
libRbt.so/2013.1/901 2013/11/27
 22 23  0  0  0  0  0  0  0  0999 V2000
   37.6815   27.7240   58.9997 C   0  0  0  0  0  0  0  0  0  0  0  0
   34.1132   33.4598   61.2432 C   0  0  0  0  0  0  0  0  0  0  0  0
   31.0976   38.3617   61.1831 P   0  0  1  0  0  0  0  0  0  0  0  0
   37.8037   29.1066   60.9483 N   0  0  0  0  0  0  0  0  0  0  0  0
   30.7158   37.5603   62.3741 O   0  0  0  0  0  0  0  0  0  0  0  0
   36.5084   35.9435   59.1694 S   0  0  0  0  0  0  0  0  0  0  0  0
   37.3172   34.7666   60.0544 C   0  0  0  0  0  0  0  0  0  0  0  0
   37.5485   29.0529   59.5950 C   0  0  0  0  0  0  0  0  0  0  0  0
   29.9458   38.8219   60.3652 O   0  5  0  0  0  0  0  0  0  0  0  0
   36.5314   33.9224   60.7565 N   0  0  0  0  0  0  0  0  0  0  0  0
   37.2263   30.0942   58.8754 N   0  0  0  0  0  0  0  0  0  0  0  0
   32.0290   39.4681   61.5730 O   0  0  0  0  0  0  0  0  0  0  0  0
   35.1891   34.2536   60.5624 C   0  0  2  0  0  0  0  0  0  0  0  0
   37.1072   31.3440   59.4743 C   0  0  0  0  0  0  0  0  0  0  0  0
   36.7967   32.3958   58.7222 N   0  0  0  0  0  0  0  0  0  0  0  0
   34.9766   35.3300   59.7339 C   0  0  1  0  0  0  0  0  0  0  0  0
   37.3219   31.4675   60.9067 C   0  0  0  0  0  0  0  0  0  0  0  0
   33.6787   35.9399   59.3431 C   0  0  0  0  0  0  0  0  0  0  0  0
   37.6947   30.3117   61.5628 C   0  0  0  0  0  0  0  0  0  0  0  0
   33.1532   36.8216   60.4130 C   0  0  0  0  0  0  0  0  0  0  0  0
   37.0883   32.7805   61.6293 C   0  0  0  0  0  0  0  0  0  0  0  0
   31.8767   37.4213   60.1885 O   0  0  0  0  0  0  0  0  0  0  0  0
  1  8  1  0  0  0  0
  3  5  1  1  0  0  0
  3  9  1  0  0  0  0
  3 12  2  0  0  0  0
  3 22  1  0  0  0  0
  4  8  2  0  0  0  0
  4 19  1  0  0  0  0
  6 16  1  0  0  0  0
  6  7  1  0  0  0  0
  7 10  1  0  0  0  0
  8 11  1  0  0  0  0
 10 13  1  0  0  0  0
 10 21  1  0  0  0  0
 11 14  2  0  0  0  0
 13  2  1  1  0  0  0
 13 16  1  0  0  0  0
 14 15  1  0  0  0  0
 14 17  1  0  0  0  0
 16 18  1  1  0  0  0
 17 19  2  0  0  0  0
 17 21  1  0  0  0  0
 18 20  1  0  0  0  0
 20 22  1  0  0  0  0
M  CHG  1   9  -1
M  END
>  <CHROM.1>
-87.73271851,-100.27512677,3.65394312,-177.10716977,178.44686906,-66.27707859
34.86875341,34.40182819,60.34790309,0.85329174,-0.42459629,2.92204090

>  <Name>
ligand

>  <RI>
0

>  <Rbt.Current_Directory>
/home/itssahil/PROJECTS/Mol_Feturizer/New_Systems/rnas/2HOM

>  <Rbt.Executable>
rbdock ($Id: //depot/dev/client3/rdock/2013.1/src/exe/rbdock.cxx#4 $)

>  <Rbt.Library>
libRbt.so (2013.1, Build901 2013/11/27)

>  <Rbt.Parameter_File>
/export/apps/rDock/src/rDock_2013.1_src/data/scripts/dock_solv.prm

>  <Rbt.Receptor>
prm/blind_docking_80.prm

>  <SCORE>
-11.4356

>  <SCORE.INTER>
-13.6868

>  <SCORE.INTER.CONST>
1

>  <SCORE.INTER.POLAR>
0

>  <SCORE.INTER.ROT>
6

>  <SCORE.INTER.SOLV>
17.4612

>  <SCORE.INTER.VDW>
-22.545

>  <SCORE.INTER.norm>
-0.622129

>  <SCORE.INTRA>
2.25101

>  <SCORE.INTRA.DIHEDRAL>
-0.216946

>  <SCORE.INTRA.DIHEDRAL.0>
5.05013

>  <SCORE.INTRA.POLAR>
0

>  <SCORE.INTRA.POLAR.0>
0

>  <SCORE.INTRA.REPUL>
0

>  <SCORE.INTRA.REPUL.0>
0

>  <SCORE.INTRA.SOLV>
4.42977

>  <SCORE.INTRA.SOLV.lig_0>
-54.1265

>  <SCORE.INTRA.VDW>
0.144594

>  <SCORE.INTRA.VDW.0>
-2.1303

>  <SCORE.INTRA.norm>
0.102319

>  <SCORE.RESTR>
0.000230598

>  <SCORE.RESTR.CAVITY>
0.000230598

>  <SCORE.RESTR.norm>
1.04817e-05

>  <SCORE.SYSTEM>
0

>  <SCORE.SYSTEM.CONST>
0

>  <SCORE.SYSTEM.DIHEDRAL>
0

>  <SCORE.SYSTEM.SOLV>
0

>  <SCORE.SYSTEM.norm>
0

>  <SCORE.heavy>
22

>  <SCORE.norm>
-0.5198

>  <RMSD>
16.130

$$$$
ligand
 OpenBabel11021811443D
libRbt.so/2013.1/901 2013/11/27
 22 23  0  0  0  0  0  0  0  0999 V2000
   37.6118   27.7408   59.1071 C   0  0  0  0  0  0  0  0  0  0  0  0
   34.1627   33.0923   60.4690 C   0  0  0  0  0  0  0  0  0  0  0  0
   31.9416   37.4494   61.7371 P   0  0  1  0  0  0  0  0  0  0  0  0
   37.7045   29.1864   61.0110 N   0  0  0  0  0  0  0  0  0  0  0  0
   32.5770   38.7849   61.5994 O   0  0  0  0  0  0  0  0  0  0  0  0
   36.4645   36.1424   59.2019 S   0  0  0  0  0  0  0  0  0  0  0  0
   37.2497   35.0370   60.1940 C   0  0  0  0  0  0  0  0  0  0  0  0
   37.4861   29.0912   59.6536 C   0  0  0  0  0  0  0  0  0  0  0  0
   32.1533   36.8089   63.0608 O   0  5  0  0  0  0  0  0  0  0  0  0
   36.4950   34.0054   60.6291 N   0  0  0  0  0  0  0  0  0  0  0  0
   37.2028   30.1128   58.8908 N   0  0  0  0  0  0  0  0  0  0  0  0
   30.5013   37.5102   61.3301 O   0  0  0  0  0  0  0  0  0  0  0  0
   35.1985   34.1216   60.1243 C   0  0  2  0  0  0  0  0  0  0  0  0
   37.0894   31.3841   59.4439 C   0  0  0  0  0  0  0  0  0  0  0  0
   36.8188   32.4149   58.6486 N   0  0  0  0  0  0  0  0  0  0  0  0
   34.9875   35.2240   59.3303 C   0  0  1  0  0  0  0  0  0  0  0  0
   37.2664   31.5524   60.8769 C   0  0  0  0  0  0  0  0  0  0  0  0
   33.7269   35.6407   58.6620 C   0  0  0  0  0  0  0  0  0  0  0  0
   37.6001   30.4133   61.5816 C   0  0  0  0  0  0  0  0  0  0  0  0
   33.0581   36.7350   59.4061 C   0  0  0  0  0  0  0  0  0  0  0  0
   37.0363   32.8928   61.5484 C   0  0  0  0  0  0  0  0  0  0  0  0
   32.6661   36.4577   60.7510 O   0  0  0  0  0  0  0  0  0  0  0  0
  1  8  1  0  0  0  0
  3  5  1  6  0  0  0
  3  9  1  0  0  0  0
  3 12  2  0  0  0  0
  3 22  1  0  0  0  0
  4  8  2  0  0  0  0
  4 19  1  0  0  0  0
  6 16  1  0  0  0  0
  6  7  1  0  0  0  0
  7 10  1  0  0  0  0
  8 11  1  0  0  0  0
 10 13  1  0  0  0  0
 10 21  1  0  0  0  0
 11 14  2  0  0  0  0
 13  2  1  1  0  0  0
 13 16  1  0  0  0  0
 14 15  1  0  0  0  0
 14 17  1  0  0  0  0
 16 18  1  1  0  0  0
 17 19  2  0  0  0  0
 17 21  1  0  0  0  0
 18 20  1  0  0  0  0
 20 22  1  0  0  0  0
M  CHG  1   9  -1
M  END
>  <CHROM.1>
-106.42668963,-77.85599187,4.94258524,-60.41960247,-179.83253226,-42.46662713
35.07824375,34.15433967,60.37519166,0.79305132,-0.62234625,2.79728937

>  <Name>
ligand

>  <RI>
0

>  <Rbt.Current_Directory>
/home/itssahil/PROJECTS/Mol_Feturizer/New_Systems/rnas/2HOM

>  <Rbt.Executable>
rbdock ($Id: //depot/dev/client3/rdock/2013.1/src/exe/rbdock.cxx#4 $)

>  <Rbt.Library>
libRbt.so (2013.1, Build901 2013/11/27)

>  <Rbt.Parameter_File>
/export/apps/rDock/src/rDock_2013.1_src/data/scripts/dock_solv.prm

>  <Rbt.Receptor>
prm/blind_docking_80.prm

>  <SCORE>
-9.61663

>  <SCORE.INTER>
-11.8677

>  <SCORE.INTER.CONST>
1

>  <SCORE.INTER.POLAR>
0

>  <SCORE.INTER.ROT>
6

>  <SCORE.INTER.SOLV>
17.8344

>  <SCORE.INTER.VDW>
-21.4566

>  <SCORE.INTER.norm>
-0.539441

>  <SCORE.INTRA>
2.25107

>  <SCORE.INTRA.DIHEDRAL>
0.442866

>  <SCORE.INTRA.DIHEDRAL.0>
5.05013

>  <SCORE.INTRA.POLAR>
0

>  <SCORE.INTRA.POLAR.0>
0

>  <SCORE.INTRA.REPUL>
0

>  <SCORE.INTRA.REPUL.0>
0

>  <SCORE.INTRA.SOLV>
4.843

>  <SCORE.INTRA.SOLV.lig_0>
-54.1265

>  <SCORE.INTRA.VDW>
-0.391869

>  <SCORE.INTRA.VDW.0>
-2.1303

>  <SCORE.INTRA.norm>
0.102321

>  <SCORE.RESTR>
0

>  <SCORE.RESTR.CAVITY>
0

>  <SCORE.RESTR.norm>
0

>  <SCORE.SYSTEM>
0

>  <SCORE.SYSTEM.CONST>
0

>  <SCORE.SYSTEM.DIHEDRAL>
0

>  <SCORE.SYSTEM.SOLV>
0

>  <SCORE.SYSTEM.norm>
0

>  <SCORE.heavy>
22

>  <SCORE.norm>
-0.43712

>  <RMSD>
16.145

$$$$
ligand
 OpenBabel11021811443D
libRbt.so/2013.1/901 2013/11/27
 22 23  0  0  0  0  0  0  0  0999 V2000
   37.0962   27.2181   58.7205 C   0  0  0  0  0  0  0  0  0  0  0  0
   37.0399   34.5327   60.2267 C   0  0  0  0  0  0  0  0  0  0  0  0
   31.5682   37.6591   61.4574 P   0  0  1  0  0  0  0  0  0  0  0  0
   37.4787   28.3328   60.8024 N   0  0  0  0  0  0  0  0  0  0  0  0
   31.1971   36.9934   62.7323 O   0  0  0  0  0  0  0  0  0  0  0  0
   33.8943   33.5299   62.5303 S   0  0  0  0  0  0  0  0  0  0  0  0
   35.2115   32.4943   62.6534 C   0  0  0  0  0  0  0  0  0  0  0  0
   37.2468   28.4755   59.4514 C   0  0  0  0  0  0  0  0  0  0  0  0
   31.3318   36.8300   60.2474 O   0  5  0  0  0  0  0  0  0  0  0  0
   36.2778   32.8139   61.8891 N   0  0  0  0  0  0  0  0  0  0  0  0
   37.1777   29.6302   58.8449 N   0  0  0  0  0  0  0  0  0  0  0  0
   30.9461   39.0193   61.3763 O   0  0  0  0  0  0  0  0  0  0  0  0
   36.0062   33.9723   61.1587 C   0  0  2  0  0  0  0  0  0  0  0  0
   37.3243   30.8075   59.5711 C   0  0  0  0  0  0  0  0  0  0  0  0
   37.2695   31.9731   58.9334 N   0  0  0  0  0  0  0  0  0  0  0  0
   34.7567   34.5054   61.3700 C   0  0  1  0  0  0  0  0  0  0  0  0
   37.5305   30.7335   61.0081 C   0  0  0  0  0  0  0  0  0  0  0  0
   34.1593   35.7113   60.7390 C   0  0  0  0  0  0  0  0  0  0  0  0
   37.6252   29.4629   61.5394 C   0  0  0  0  0  0  0  0  0  0  0  0
   34.1144   36.8502   61.6872 C   0  0  0  0  0  0  0  0  0  0  0  0
   37.5769   31.9847   61.8642 C   0  0  0  0  0  0  0  0  0  0  0  0
   33.1308   37.8564   61.4439 O   0  0  0  0  0  0  0  0  0  0  0  0
  1  8  1  0  0  0  0
  3  5  1  1  0  0  0
  3  9  1  0  0  0  0
  3 12  2  0  0  0  0
  3 22  1  0  0  0  0
  4  8  2  0  0  0  0
  4 19  1  0  0  0  0
  6 16  1  0  0  0  0
  6  7  1  0  0  0  0
  7 10  1  0  0  0  0
  8 11  1  0  0  0  0
 10 13  1  0  0  0  0
 10 21  1  0  0  0  0
 11 14  2  0  0  0  0
 13  2  1  6  0  0  0
 13 16  1  0  0  0  0
 14 15  1  0  0  0  0
 14 17  1  0  0  0  0
 16 18  1  6  0  0  0
 17 19  2  0  0  0  0
 17 21  1  0  0  0  0
 18 20  1  0  0  0  0
 20 22  1  0  0  0  0
M  CHG  1   9  -1
M  END
>  <CHROM.1>
79.81778988,74.76750527,62.78434862,-155.56831347,62.63589476,51.62467297
34.88654732,33.64290199,61.03478439,-0.29715963,0.95356785,-1.02759967

>  <Name>
ligand

>  <RI>
0

>  <Rbt.Current_Directory>
/home/itssahil/PROJECTS/Mol_Feturizer/New_Systems/rnas/2HOM

>  <Rbt.Executable>
rbdock ($Id: //depot/dev/client3/rdock/2013.1/src/exe/rbdock.cxx#4 $)

>  <Rbt.Library>
libRbt.so (2013.1, Build901 2013/11/27)

>  <Rbt.Parameter_File>
/export/apps/rDock/src/rDock_2013.1_src/data/scripts/dock_solv.prm

>  <Rbt.Receptor>
prm/blind_docking_80.prm

>  <SCORE>
-10.1129

>  <SCORE.INTER>
-13.4951

>  <SCORE.INTER.CONST>
1

>  <SCORE.INTER.POLAR>
0

>  <SCORE.INTER.ROT>
6

>  <SCORE.INTER.SOLV>
16.9323

>  <SCORE.INTER.VDW>
-22.2408

>  <SCORE.INTER.norm>
-0.613411

>  <SCORE.INTRA>
3.37353

>  <SCORE.INTRA.DIHEDRAL>
2.15099

>  <SCORE.INTRA.DIHEDRAL.0>
5.05013

>  <SCORE.INTRA.POLAR>
0

>  <SCORE.INTRA.POLAR.0>
0

>  <SCORE.INTRA.REPUL>
0

>  <SCORE.INTRA.REPUL.0>
0

>  <SCORE.INTRA.SOLV>
4.23068

>  <SCORE.INTRA.SOLV.lig_0>
-54.1265

>  <SCORE.INTRA.VDW>
0.182692

>  <SCORE.INTRA.VDW.0>
-2.1303

>  <SCORE.INTRA.norm>
0.153342

>  <SCORE.RESTR>
0.00860453

>  <SCORE.RESTR.CAVITY>
0.00860453

>  <SCORE.RESTR.norm>
0.000391115

>  <SCORE.SYSTEM>
0

>  <SCORE.SYSTEM.CONST>
0

>  <SCORE.SYSTEM.DIHEDRAL>
0

>  <SCORE.SYSTEM.SOLV>
0

>  <SCORE.SYSTEM.norm>
0

>  <SCORE.heavy>
22

>  <SCORE.norm>
-0.459678

>  <RMSD>
16.148

$$$$
ligand
 OpenBabel11021811443D
libRbt.so/2013.1/901 2013/11/27
 22 23  0  0  0  0  0  0  0  0999 V2000
   37.6951   27.6938   59.0795 C   0  0  0  0  0  0  0  0  0  0  0  0
   34.1446   33.1721   60.2401 C   0  0  0  0  0  0  0  0  0  0  0  0
   32.1171   38.1110   60.9998 P   0  0  1  0  0  0  0  0  0  0  0  0
   37.7141   29.1590   60.9705 N   0  0  0  0  0  0  0  0  0  0  0  0
   32.4971   39.5412   61.1282 O   0  0  0  0  0  0  0  0  0  0  0  0
   36.6474   36.0869   59.0373 S   0  0  0  0  0  0  0  0  0  0  0  0
   37.3315   34.9626   60.0817 C   0  0  0  0  0  0  0  0  0  0  0  0
   37.5275   29.0461   59.6097 C   0  0  0  0  0  0  0  0  0  0  0  0
   32.4247   37.2901   62.1992 O   0  5  0  0  0  0  0  0  0  0  0  0
   36.5084   33.9757   60.4961 N   0  0  0  0  0  0  0  0  0  0  0  0
   37.2383   30.0538   58.8308 N   0  0  0  0  0  0  0  0  0  0  0  0
   30.6962   37.9856   60.5426 O   0  0  0  0  0  0  0  0  0  0  0  0
   35.2438   34.1448   59.9292 C   0  0  2  0  0  0  0  0  0  0  0  0
   37.0846   31.3274   59.3686 C   0  0  0  0  0  0  0  0  0  0  0  0
   36.8086   32.3443   58.5574 N   0  0  0  0  0  0  0  0  0  0  0  0
   35.1233   35.2423   59.1098 C   0  0  1  0  0  0  0  0  0  0  0  0
   37.2265   31.5132   60.8034 C   0  0  0  0  0  0  0  0  0  0  0  0
   33.9167   35.7071   58.3769 C   0  0  0  0  0  0  0  0  0  0  0  0
   37.5700   30.3887   61.5264 C   0  0  0  0  0  0  0  0  0  0  0  0
   32.8607   36.1649   59.3116 C   0  0  0  0  0  0  0  0  0  0  0  0
   36.9521   32.8545   61.4563 C   0  0  0  0  0  0  0  0  0  0  0  0
   33.0259   37.4599   59.8903 O   0  0  0  0  0  0  0  0  0  0  0  0
  1  8  1  0  0  0  0
  3  5  1  1  0  0  0
  3  9  1  0  0  0  0
  3 12  2  0  0  0  0
  3 22  1  0  0  0  0
  4  8  2  0  0  0  0
  4 19  1  0  0  0  0
  6 16  1  0  0  0  0
  6  7  1  0  0  0  0
  7 10  1  0  0  0  0
  8 11  1  0  0  0  0
 10 13  1  0  0  0  0
 10 21  1  0  0  0  0
 11 14  2  0  0  0  0
 13  2  1  1  0  0  0
 13 16  1  0  0  0  0
 14 15  1  0  0  0  0
 14 17  1  0  0  0  0
 16 18  1  1  0  0  0
 17 19  2  0  0  0  0
 17 21  1  0  0  0  0
 18 20  1  0  0  0  0
 20 22  1  0  0  0  0
M  CHG  1   9  -1
M  END
>  <CHROM.1>
-102.99359499,-112.72879182,0.50740420,77.82855633,-174.16348947,-169.93178322
35.15595834,34.30183148,60.08002879,0.91612315,-0.49364791,2.88497208

>  <Name>
ligand

>  <RI>
0

>  <Rbt.Current_Directory>
/home/itssahil/PROJECTS/Mol_Feturizer/New_Systems/rnas/2HOM

>  <Rbt.Executable>
rbdock ($Id: //depot/dev/client3/rdock/2013.1/src/exe/rbdock.cxx#4 $)

>  <Rbt.Library>
libRbt.so (2013.1, Build901 2013/11/27)

>  <Rbt.Parameter_File>
/export/apps/rDock/src/rDock_2013.1_src/data/scripts/dock_solv.prm

>  <Rbt.Receptor>
prm/blind_docking_80.prm

>  <SCORE>
-9.84199

>  <SCORE.INTER>
-13.2095

>  <SCORE.INTER.CONST>
1

>  <SCORE.INTER.POLAR>
0

>  <SCORE.INTER.ROT>
6

>  <SCORE.INTER.SOLV>
18.5221

>  <SCORE.INTER.VDW>
-22.5804

>  <SCORE.INTER.norm>
-0.600433

>  <SCORE.INTRA>
3.36703

>  <SCORE.INTRA.DIHEDRAL>
0.962342

>  <SCORE.INTRA.DIHEDRAL.0>
5.05013

>  <SCORE.INTRA.POLAR>
0

>  <SCORE.INTRA.POLAR.0>
0

>  <SCORE.INTRA.REPUL>
0

>  <SCORE.INTRA.REPUL.0>
0

>  <SCORE.INTRA.SOLV>
5.72256

>  <SCORE.INTRA.SOLV.lig_0>
-54.1265

>  <SCORE.INTRA.VDW>
0.0245752

>  <SCORE.INTRA.VDW.0>
-2.1303

>  <SCORE.INTRA.norm>
0.153047

>  <SCORE.RESTR>
0.000505506

>  <SCORE.RESTR.CAVITY>
0.000505506

>  <SCORE.RESTR.norm>
2.29776e-05

>  <SCORE.SYSTEM>
0

>  <SCORE.SYSTEM.CONST>
0

>  <SCORE.SYSTEM.DIHEDRAL>
0

>  <SCORE.SYSTEM.SOLV>
0

>  <SCORE.SYSTEM.norm>
0

>  <SCORE.heavy>
22

>  <SCORE.norm>
-0.447363

>  <RMSD>
16.261

$$$$
ligand
 OpenBabel11021811443D
libRbt.so/2013.1/901 2013/11/27
 22 23  0  0  0  0  0  0  0  0999 V2000
    7.9543   49.0205   69.0910 C   0  0  0  0  0  0  0  0  0  0  0  0
   11.7946   42.0106   70.7079 C   0  0  0  0  0  0  0  0  0  0  0  0
   12.3074   40.9863   77.6749 P   0  0  1  0  0  0  0  0  0  0  0  0
    9.2080   47.2606   70.1176 N   0  0  0  0  0  0  0  0  0  0  0  0
   12.1983   42.4003   78.1164 O   0  0  0  0  0  0  0  0  0  0  0  0
    9.0394   42.4758   73.6060 S   0  0  0  0  0  0  0  0  0  0  0  0
    8.6005   43.1102   72.1136 C   0  0  0  0  0  0  0  0  0  0  0  0
    8.2140   47.5875   69.2207 C   0  0  0  0  0  0  0  0  0  0  0  0
   13.5789   40.3240   78.0648 O   0  5  0  0  0  0  0  0  0  0  0  0
    9.5110   42.9635   71.1274 N   0  0  0  0  0  0  0  0  0  0  0  0
    7.5327   46.7057   68.5394 N   0  0  0  0  0  0  0  0  0  0  0  0
   11.0881   40.2158   78.0789 O   0  0  0  0  0  0  0  0  0  0  0  0
   10.6343   42.2940   71.6161 C   0  0  2  0  0  0  0  0  0  0  0  0
    7.8066   45.3499   68.6861 C   0  0  0  0  0  0  0  0  0  0  0  0
    7.0899   44.4660   67.9981 N   0  0  0  0  0  0  0  0  0  0  0  0
   10.5660   41.9514   72.9458 C   0  0  1  0  0  0  0  0  0  0  0  0
    8.8710   44.9345   69.5848 C   0  0  0  0  0  0  0  0  0  0  0  0
   11.5931   41.2548   73.7637 C   0  0  0  0  0  0  0  0  0  0  0  0
    9.5003   45.9456   70.2828 C   0  0  0  0  0  0  0  0  0  0  0  0
   11.4307   41.5578   75.2060 C   0  0  0  0  0  0  0  0  0  0  0  0
    9.2909   43.4810   69.6921 C   0  0  0  0  0  0  0  0  0  0  0  0
   12.3739   40.9677   76.1013 O   0  0  0  0  0  0  0  0  0  0  0  0
  1  8  1  0  0  0  0
  3  5  1  1  0  0  0
  3  9  1  0  0  0  0
  3 12  2  0  0  0  0
  3 22  1  0  0  0  0
  4  8  2  0  0  0  0
  4 19  1  0  0  0  0
  6 16  1  0  0  0  0
  6  7  1  0  0  0  0
  7 10  1  0  0  0  0
  8 11  1  0  0  0  0
 10 13  1  0  0  0  0
 10 21  1  0  0  0  0
 11 14  2  0  0  0  0
 13  2  1  1  0  0  0
 13 16  1  0  0  0  0
 14 15  1  0  0  0  0
 14 17  1  0  0  0  0
 16 18  1  1  0  0  0
 17 19  2  0  0  0  0
 17 21  1  0  0  0  0
 18 20  1  0  0  0  0
 20 22  1  0  0  0  0
M  CHG  1   9  -1
M  END
>  <CHROM.1>
51.32321170,-23.34183164,-135.83024365,-178.87455773,-171.69975101,-54.84810718
10.15968170,43.24410461,72.88832479,3.12750803,1.18405618,-2.55089537

>  <Name>
ligand

>  <RI>
0

>  <Rbt.Current_Directory>
/home/itssahil/PROJECTS/Mol_Feturizer/New_Systems/rnas/2HOM

>  <Rbt.Executable>
rbdock ($Id: //depot/dev/client3/rdock/2013.1/src/exe/rbdock.cxx#4 $)

>  <Rbt.Library>
libRbt.so (2013.1, Build901 2013/11/27)

>  <Rbt.Parameter_File>
/export/apps/rDock/src/rDock_2013.1_src/data/scripts/dock_solv.prm

>  <Rbt.Receptor>
prm/blind_docking_100.prm

>  <SCORE>
-12.2447

>  <SCORE.INTER>
-13.432

>  <SCORE.INTER.CONST>
1

>  <SCORE.INTER.POLAR>
0

>  <SCORE.INTER.ROT>
6

>  <SCORE.INTER.SOLV>
10.8211

>  <SCORE.INTER.VDW>
-20.1617

>  <SCORE.INTER.norm>
-0.610546

>  <SCORE.INTRA>
1.18734

>  <SCORE.INTRA.DIHEDRAL>
0.0331302

>  <SCORE.INTRA.DIHEDRAL.0>
5.05013

>  <SCORE.INTRA.POLAR>
0

>  <SCORE.INTRA.POLAR.0>
0

>  <SCORE.INTRA.REPUL>
0

>  <SCORE.INTRA.REPUL.0>
0

>  <SCORE.INTRA.SOLV>
-0.010566

>  <SCORE.INTRA.SOLV.lig_0>
-54.1265

>  <SCORE.INTRA.VDW>
1.17606

>  <SCORE.INTRA.VDW.0>
-2.1303

>  <SCORE.INTRA.norm>
0.0539699

>  <SCORE.RESTR>
0

>  <SCORE.RESTR.CAVITY>
0

>  <SCORE.RESTR.norm>
0

>  <SCORE.SYSTEM>
0

>  <SCORE.SYSTEM.CONST>
0

>  <SCORE.SYSTEM.DIHEDRAL>
0

>  <SCORE.SYSTEM.SOLV>
0

>  <SCORE.SYSTEM.norm>
0

>  <SCORE.heavy>
22

>  <SCORE.norm>
-0.556576

>  <RMSD>
16.321

$$$$
ligand
 OpenBabel11021811443D
libRbt.so/2013.1/901 2013/11/27
 22 23  0  0  0  0  0  0  0  0999 V2000
   36.8089   26.6891   58.6326 C   0  0  0  0  0  0  0  0  0  0  0  0
   36.7552   35.1362   58.5111 C   0  0  0  0  0  0  0  0  0  0  0  0
   30.9366   38.0925   61.3754 P   0  0  1  0  0  0  0  0  0  0  0  0
   37.1671   28.9112   57.8222 N   0  0  0  0  0  0  0  0  0  0  0  0
   29.7657   37.4987   60.6808 O   0  0  0  0  0  0  0  0  0  0  0  0
   34.1018   33.7455   61.2003 S   0  0  0  0  0  0  0  0  0  0  0  0
   35.3601   32.6898   60.8469 C   0  0  0  0  0  0  0  0  0  0  0  0
   36.9310   28.1168   58.9233 C   0  0  0  0  0  0  0  0  0  0  0  0
   30.9881   39.5763   61.3203 O   0  5  0  0  0  0  0  0  0  0  0  0
   36.2618   33.1382   59.9475 N   0  0  0  0  0  0  0  0  0  0  0  0
   36.8069   28.5792   60.1385 N   0  0  0  0  0  0  0  0  0  0  0  0
   31.0543   37.5453   62.7648 O   0  0  0  0  0  0  0  0  0  0  0  0
   35.9071   34.4189   59.5198 C   0  0  2  0  0  0  0  0  0  0  0  0
   36.9301   29.9435   60.3799 C   0  0  0  0  0  0  0  0  0  0  0  0
   36.7821   30.3978   61.6209 N   0  0  0  0  0  0  0  0  0  0  0  0
   34.7572   34.9161   60.0861 C   0  0  1  0  0  0  0  0  0  0  0  0
   37.2205   30.8368   59.2705 C   0  0  0  0  0  0  0  0  0  0  0  0
   34.1069   36.2282   59.8315 C   0  0  0  0  0  0  0  0  0  0  0  0
   37.2936   30.2473   58.0244 C   0  0  0  0  0  0  0  0  0  0  0  0
   32.9392   36.4333   60.7219 C   0  0  0  0  0  0  0  0  0  0  0  0
   37.4829   32.3138   59.4943 C   0  0  0  0  0  0  0  0  0  0  0  0
   32.2369   37.6700   60.5933 O   0  0  0  0  0  0  0  0  0  0  0  0
  1  8  1  0  0  0  0
  3  5  1  6  0  0  0
  3  9  1  0  0  0  0
  3 12  2  0  0  0  0
  3 22  1  0  0  0  0
  4  8  2  0  0  0  0
  4 19  1  0  0  0  0
  6 16  1  0  0  0  0
  6  7  1  0  0  0  0
  7 10  1  0  0  0  0
  8 11  1  0  0  0  0
 10 13  1  0  0  0  0
 10 21  1  0  0  0  0
 11 14  2  0  0  0  0
 13  2  1  6  0  0  0
 13 16  1  0  0  0  0
 14 15  1  0  0  0  0
 14 17  1  0  0  0  0
 16 18  1  6  0  0  0
 17 19  2  0  0  0  0
 17 21  1  0  0  0  0
 18 20  1  0  0  0  0
 20 22  1  0  0  0  0
M  CHG  1   9  -1
M  END
>  <CHROM.1>
40.62569936,5.08399707,-69.03843515,178.97714813,177.08252569,-82.39733231
34.55271959,33.75316258,60.24326901,0.87700233,-0.55476334,2.95686341

>  <Name>
ligand

>  <RI>
0

>  <Rbt.Current_Directory>
/home/itssahil/PROJECTS/Mol_Feturizer/New_Systems/rnas/2HOM

>  <Rbt.Executable>
rbdock ($Id: //depot/dev/client3/rdock/2013.1/src/exe/rbdock.cxx#4 $)

>  <Rbt.Library>
libRbt.so (2013.1, Build901 2013/11/27)

>  <Rbt.Parameter_File>
/export/apps/rDock/src/rDock_2013.1_src/data/scripts/dock_solv.prm

>  <Rbt.Receptor>
prm/blind_docking_80.prm

>  <SCORE>
-6.17697

>  <SCORE.INTER>
-9.12314

>  <SCORE.INTER.CONST>
1

>  <SCORE.INTER.POLAR>
0

>  <SCORE.INTER.ROT>
6

>  <SCORE.INTER.SOLV>
15.7789

>  <SCORE.INTER.VDW>
-18.9417

>  <SCORE.INTER.norm>
-0.414688

>  <SCORE.INTRA>
2.6859

>  <SCORE.INTRA.DIHEDRAL>
0.378421

>  <SCORE.INTRA.DIHEDRAL.0>
5.05013

>  <SCORE.INTRA.POLAR>
0

>  <SCORE.INTRA.POLAR.0>
0

>  <SCORE.INTRA.REPUL>
0

>  <SCORE.INTRA.REPUL.0>
0

>  <SCORE.INTRA.SOLV>
1.77109

>  <SCORE.INTRA.SOLV.lig_0>
-54.1265

>  <SCORE.INTRA.VDW>
1.61115

>  <SCORE.INTRA.VDW.0>
-2.1303

>  <SCORE.INTRA.norm>
0.122087

>  <SCORE.RESTR>
0.260263

>  <SCORE.RESTR.CAVITY>
0.260263

>  <SCORE.RESTR.norm>
0.0118302

>  <SCORE.SYSTEM>
0

>  <SCORE.SYSTEM.CONST>
0

>  <SCORE.SYSTEM.DIHEDRAL>
0

>  <SCORE.SYSTEM.SOLV>
0

>  <SCORE.SYSTEM.norm>
0

>  <SCORE.heavy>
22

>  <SCORE.norm>
-0.280771

>  <RMSD>
16.322

$$$$
ligand
 OpenBabel11021811443D
libRbt.so/2013.1/901 2013/11/27
 22 23  0  0  0  0  0  0  0  0999 V2000
   36.8583   27.0472   58.6683 C   0  0  0  0  0  0  0  0  0  0  0  0
   34.4154   33.2160   60.8555 C   0  0  0  0  0  0  0  0  0  0  0  0
   31.4731   38.4413   60.9882 P   0  0  1  0  0  0  0  0  0  0  0  0
   37.2955   29.3241   58.0786 N   0  0  0  0  0  0  0  0  0  0  0  0
   30.9913   39.4814   60.0436 O   0  0  0  0  0  0  0  0  0  0  0  0
   35.5323   35.3372   57.6213 S   0  0  0  0  0  0  0  0  0  0  0  0
   36.7159   34.3119   58.2299 C   0  0  0  0  0  0  0  0  0  0  0  0
   36.9139   28.4508   59.0741 C   0  0  0  0  0  0  0  0  0  0  0  0
   32.7965   38.7372   61.5951 O   0  5  0  0  0  0  0  0  0  0  0  0
   36.3606   33.5904   59.3145 N   0  0  0  0  0  0  0  0  0  0  0  0
   36.6063   28.8234   60.2876 N   0  0  0  0  0  0  0  0  0  0  0  0
   30.4146   38.1206   61.9985 O   0  0  0  0  0  0  0  0  0  0  0  0
   35.0449   33.8903   59.6722 C   0  0  2  0  0  0  0  0  0  0  0  0
   36.6712   30.1673   60.6405 C   0  0  0  0  0  0  0  0  0  0  0  0
   36.3363   30.5297   61.8753 N   0  0  0  0  0  0  0  0  0  0  0  0
   34.4301   34.8238   58.8716 C   0  0  1  0  0  0  0  0  0  0  0  0
   37.1061   31.1400   59.6517 C   0  0  0  0  0  0  0  0  0  0  0  0
   33.0525   35.3679   58.9950 C   0  0  0  0  0  0  0  0  0  0  0  0
   37.3698   30.6427   58.3913 C   0  0  0  0  0  0  0  0  0  0  0  0
   33.0337   36.6103   59.8041 C   0  0  0  0  0  0  0  0  0  0  0  0
   37.3094   32.5984   60.0157 C   0  0  0  0  0  0  0  0  0  0  0  0
   31.7528   37.1259   60.1683 O   0  0  0  0  0  0  0  0  0  0  0  0
  1  8  1  0  0  0  0
  3  5  1  6  0  0  0
  3  9  1  0  0  0  0
  3 12  2  0  0  0  0
  3 22  1  0  0  0  0
  4  8  2  0  0  0  0
  4 19  1  0  0  0  0
  6 16  1  0  0  0  0
  6  7  1  0  0  0  0
  7 10  1  0  0  0  0
  8 11  1  0  0  0  0
 10 13  1  0  0  0  0
 10 21  1  0  0  0  0
 11 14  2  0  0  0  0
 13  2  1  1  0  0  0
 13 16  1  0  0  0  0
 14 15  1  0  0  0  0
 14 17  1  0  0  0  0
 16 18  1  1  0  0  0
 17 19  2  0  0  0  0
 17 21  1  0  0  0  0
 18 20  1  0  0  0  0
 20 22  1  0  0  0  0
M  CHG  1   9  -1
M  END
>  <CHROM.1>
-99.31358976,-86.85705934,-115.60239360,-170.89358013,-178.38722263,104.90781241
34.65606346,34.03628315,59.76288568,0.69404121,-0.83521666,2.56439572

>  <Name>
ligand

>  <RI>
0

>  <Rbt.Current_Directory>
/home/itssahil/PROJECTS/Mol_Feturizer/New_Systems/rnas/2HOM

>  <Rbt.Executable>
rbdock ($Id: //depot/dev/client3/rdock/2013.1/src/exe/rbdock.cxx#4 $)

>  <Rbt.Library>
libRbt.so (2013.1, Build901 2013/11/27)

>  <Rbt.Parameter_File>
/export/apps/rDock/src/rDock_2013.1_src/data/scripts/dock_solv.prm

>  <Rbt.Receptor>
prm/blind_docking_80.prm

>  <SCORE>
-8.70798

>  <SCORE.INTER>
-11.0692

>  <SCORE.INTER.CONST>
1

>  <SCORE.INTER.POLAR>
0

>  <SCORE.INTER.ROT>
6

>  <SCORE.INTER.SOLV>
18.9943

>  <SCORE.INTER.VDW>
-21.3109

>  <SCORE.INTER.norm>
-0.503146

>  <SCORE.INTRA>
2.36123

>  <SCORE.INTRA.DIHEDRAL>
2.20082

>  <SCORE.INTRA.DIHEDRAL.0>
5.05013

>  <SCORE.INTRA.POLAR>
0

>  <SCORE.INTRA.POLAR.0>
0

>  <SCORE.INTRA.REPUL>
0

>  <SCORE.INTRA.REPUL.0>
0

>  <SCORE.INTRA.SOLV>
1.79534

>  <SCORE.INTRA.SOLV.lig_0>
-54.1265

>  <SCORE.INTRA.VDW>
0.363149

>  <SCORE.INTRA.VDW.0>
-2.1303

>  <SCORE.INTRA.norm>
0.107329

>  <SCORE.RESTR>
0

>  <SCORE.RESTR.CAVITY>
0

>  <SCORE.RESTR.norm>
0

>  <SCORE.SYSTEM>
0

>  <SCORE.SYSTEM.CONST>
0

>  <SCORE.SYSTEM.DIHEDRAL>
0

>  <SCORE.SYSTEM.SOLV>
0

>  <SCORE.SYSTEM.norm>
0

>  <SCORE.heavy>
22

>  <SCORE.norm>
-0.395817

>  <RMSD>
16.330

$$$$
ligand
 OpenBabel11021811443D
libRbt.so/2013.1/901 2013/11/27
 22 23  0  0  0  0  0  0  0  0999 V2000
   37.4121   29.1059   61.2531 C   0  0  0  0  0  0  0  0  0  0  0  0
   36.2673   34.2987   58.2264 C   0  0  0  0  0  0  0  0  0  0  0  0
   31.1685   33.9330   54.2028 P   0  0  1  0  0  0  0  0  0  0  0  0
   37.7850   31.3740   60.5899 N   0  0  0  0  0  0  0  0  0  0  0  0
   30.6705   32.8525   55.0920 O   0  0  0  0  0  0  0  0  0  0  0  0
   32.9069   36.2886   59.2036 S   0  0  0  0  0  0  0  0  0  0  0  0
   33.8546   35.8284   60.5124 C   0  0  0  0  0  0  0  0  0  0  0  0
   36.9644   30.4977   61.2667 C   0  0  0  0  0  0  0  0  0  0  0  0
   31.6346   33.4603   52.8737 O   0  5  0  0  0  0  0  0  0  0  0  0
   34.9872   35.1604   60.2057 N   0  0  0  0  0  0  0  0  0  0  0  0
   35.8610   30.8541   61.8679 N   0  0  0  0  0  0  0  0  0  0  0  0
   30.1692   35.0459   54.1206 O   0  0  0  0  0  0  0  0  0  0  0  0
   35.0901   35.0141   58.8211 C   0  0  2  0  0  0  0  0  0  0  0  0
   35.4649   32.1875   61.8623 C   0  0  0  0  0  0  0  0  0  0  0  0
   34.3289   32.5284   62.4637 N   0  0  0  0  0  0  0  0  0  0  0  0
   34.0494   35.5588   58.1066 C   0  0  1  0  0  0  0  0  0  0  0  0
   36.3042   33.1740   61.2024 C   0  0  0  0  0  0  0  0  0  0  0  0
   33.8527   35.5562   56.6333 C   0  0  0  0  0  0  0  0  0  0  0  0
   37.4269   32.6828   60.5669 C   0  0  0  0  0  0  0  0  0  0  0  0
   32.7839   34.6095   56.2334 C   0  0  0  0  0  0  0  0  0  0  0  0
   35.9825   34.6547   61.2685 C   0  0  0  0  0  0  0  0  0  0  0  0
   32.4806   34.5271   54.8404 O   0  0  0  0  0  0  0  0  0  0  0  0
  1  8  1  0  0  0  0
  3  5  1  1  0  0  0
  3  9  1  0  0  0  0
  3 12  2  0  0  0  0
  3 22  1  0  0  0  0
  4  8  2  0  0  0  0
  4 19  1  0  0  0  0
  6 16  1  0  0  0  0
  6  7  1  0  0  0  0
  7 10  1  0  0  0  0
  8 11  1  0  0  0  0
 10 13  1  0  0  0  0
 10 21  1  0  0  0  0
 11 14  2  0  0  0  0
 13  2  1  1  0  0  0
 13 16  1  0  0  0  0
 14 15  1  0  0  0  0
 14 17  1  0  0  0  0
 16 18  1  1  0  0  0
 17 19  2  0  0  0  0
 17 21  1  0  0  0  0
 18 20  1  0  0  0  0
 20 22  1  0  0  0  0
M  CHG  1   9  -1
M  END
>  <CHROM.1>
125.27556497,-72.90369589,-85.58655257,179.03952898,-161.78506434,-31.00244133
34.07692827,33.75837507,58.33637100,-0.17085213,0.94858333,-2.59839039

>  <Name>
ligand

>  <RI>
0

>  <Rbt.Current_Directory>
/home/itssahil/PROJECTS/Mol_Feturizer/New_Systems/rnas/2HOM

>  <Rbt.Executable>
rbdock ($Id: //depot/dev/client3/rdock/2013.1/src/exe/rbdock.cxx#4 $)

>  <Rbt.Library>
libRbt.so (2013.1, Build901 2013/11/27)

>  <Rbt.Parameter_File>
/export/apps/rDock/src/rDock_2013.1_src/data/scripts/dock_solv.prm

>  <Rbt.Receptor>
prm/blind_docking_80.prm

>  <SCORE>
-5.39236

>  <SCORE.INTER>
-7.51154

>  <SCORE.INTER.CONST>
1

>  <SCORE.INTER.POLAR>
0

>  <SCORE.INTER.ROT>
6

>  <SCORE.INTER.SOLV>
28.1419

>  <SCORE.INTER.VDW>
-21.9883

>  <SCORE.INTER.norm>
-0.341434

>  <SCORE.INTRA>
2.11918

>  <SCORE.INTRA.DIHEDRAL>
2.75445

>  <SCORE.INTRA.DIHEDRAL.0>
5.05013

>  <SCORE.INTRA.POLAR>
0

>  <SCORE.INTRA.POLAR.0>
0

>  <SCORE.INTRA.REPUL>
0

>  <SCORE.INTRA.REPUL.0>
0

>  <SCORE.INTRA.SOLV>
0.401412

>  <SCORE.INTRA.SOLV.lig_0>
-54.1265

>  <SCORE.INTRA.VDW>
0.541253

>  <SCORE.INTRA.VDW.0>
-2.1303

>  <SCORE.INTRA.norm>
0.0963265

>  <SCORE.RESTR>
0

>  <SCORE.RESTR.CAVITY>
0

>  <SCORE.RESTR.norm>
0

>  <SCORE.SYSTEM>
0

>  <SCORE.SYSTEM.CONST>
0

>  <SCORE.SYSTEM.DIHEDRAL>
0

>  <SCORE.SYSTEM.SOLV>
0

>  <SCORE.SYSTEM.norm>
0

>  <SCORE.heavy>
22

>  <SCORE.norm>
-0.245107

>  <RMSD>
16.348

$$$$
ligand
 OpenBabel11021811443D
libRbt.so/2013.1/901 2013/11/27
 22 23  0  0  0  0  0  0  0  0999 V2000
   36.8276   26.6439   58.5140 C   0  0  0  0  0  0  0  0  0  0  0  0
   36.3145   34.6981   58.1127 C   0  0  0  0  0  0  0  0  0  0  0  0
   31.7869   37.6002   61.6952 P   0  0  1  0  0  0  0  0  0  0  0  0
   37.2098   28.8948   57.7995 N   0  0  0  0  0  0  0  0  0  0  0  0
   31.3844   37.2527   63.0822 O   0  0  0  0  0  0  0  0  0  0  0  0
   34.0682   33.7474   61.3153 S   0  0  0  0  0  0  0  0  0  0  0  0
   35.3911   32.7427   61.0641 C   0  0  0  0  0  0  0  0  0  0  0  0
   36.9232   28.0615   58.8591 C   0  0  0  0  0  0  0  0  0  0  0  0
   31.0881   36.8158   60.6447 O   0  5  0  0  0  0  0  0  0  0  0  0
   36.1582   33.0455   59.9950 N   0  0  0  0  0  0  0  0  0  0  0  0
   36.7327   28.4810   60.0813 N   0  0  0  0  0  0  0  0  0  0  0  0
   31.7078   39.0808   61.4823 O   0  0  0  0  0  0  0  0  0  0  0  0
   35.6377   34.1633   59.3404 C   0  0  2  0  0  0  0  0  0  0  0  0
   36.8324   29.8370   60.3751 C   0  0  0  0  0  0  0  0  0  0  0  0
   36.6167   30.2474   61.6214 N   0  0  0  0  0  0  0  0  0  0  0  0
   34.4983   34.6830   59.9078 C   0  0  1  0  0  0  0  0  0  0  0  0
   37.1729   30.7696   59.3133 C   0  0  0  0  0  0  0  0  0  0  0  0
   33.6973   35.8470   59.4468 C   0  0  0  0  0  0  0  0  0  0  0  0
   37.3151   30.2238   58.0534 C   0  0  0  0  0  0  0  0  0  0  0  0
   33.9840   37.0545   60.2581 C   0  0  0  0  0  0  0  0  0  0  0  0
   37.4117   32.2396   59.6007 C   0  0  0  0  0  0  0  0  0  0  0  0
   33.2919   37.1783   61.5011 O   0  0  0  0  0  0  0  0  0  0  0  0
  1  8  1  0  0  0  0
  3  5  1  1  0  0  0
  3  9  1  0  0  0  0
  3 12  2  0  0  0  0
  3 22  1  0  0  0  0
  4  8  2  0  0  0  0
  4 19  1  0  0  0  0
  6 16  1  0  0  0  0
  6  7  1  0  0  0  0
  7 10  1  0  0  0  0
  8 11  1  0  0  0  0
 10 13  1  0  0  0  0
 10 21  1  0  0  0  0
 11 14  2  0  0  0  0
 13  2  1  6  0  0  0
 13 16  1  0  0  0  0
 14 15  1  0  0  0  0
 14 17  1  0  0  0  0
 16 18  1  6  0  0  0
 17 19  2  0  0  0  0
 17 21  1  0  0  0  0
 18 20  1  0  0  0  0
 20 22  1  0  0  0  0
M  CHG  1   9  -1
M  END
>  <CHROM.1>
58.92749498,78.79864798,-70.00001870,-82.68116757,-76.44831338,165.07445730
34.75873585,33.56217042,60.28727267,0.74822628,-0.83919055,2.73239806

>  <Name>
ligand

>  <RI>
0

>  <Rbt.Current_Directory>
/home/itssahil/PROJECTS/Mol_Feturizer/New_Systems/rnas/2HOM

>  <Rbt.Executable>
rbdock ($Id: //depot/dev/client3/rdock/2013.1/src/exe/rbdock.cxx#4 $)

>  <Rbt.Library>
libRbt.so (2013.1, Build901 2013/11/27)

>  <Rbt.Parameter_File>
/export/apps/rDock/src/rDock_2013.1_src/data/scripts/dock_solv.prm

>  <Rbt.Receptor>
prm/blind_docking_80.prm

>  <SCORE>
-3.91128

>  <SCORE.INTER>
-7.22521

>  <SCORE.INTER.CONST>
1

>  <SCORE.INTER.POLAR>
0

>  <SCORE.INTER.ROT>
6

>  <SCORE.INTER.SOLV>
18.4072

>  <SCORE.INTER.VDW>
-18.5525

>  <SCORE.INTER.norm>
-0.328419

>  <SCORE.INTRA>
3.00055

>  <SCORE.INTRA.DIHEDRAL>
3.41399

>  <SCORE.INTRA.DIHEDRAL.0>
5.05013

>  <SCORE.INTRA.POLAR>
0

>  <SCORE.INTRA.POLAR.0>
0

>  <SCORE.INTRA.REPUL>
0

>  <SCORE.INTRA.REPUL.0>
0

>  <SCORE.INTRA.SOLV>
3.0867

>  <SCORE.INTRA.SOLV.lig_0>
-54.1265

>  <SCORE.INTRA.VDW>
-0.249797

>  <SCORE.INTRA.VDW.0>
-2.1303

>  <SCORE.INTRA.norm>
0.136389

>  <SCORE.RESTR>
0.313379

>  <SCORE.RESTR.CAVITY>
0.313379

>  <SCORE.RESTR.norm>
0.0142445

>  <SCORE.SYSTEM>
0

>  <SCORE.SYSTEM.CONST>
0

>  <SCORE.SYSTEM.DIHEDRAL>
0

>  <SCORE.SYSTEM.SOLV>
0

>  <SCORE.SYSTEM.norm>
0

>  <SCORE.heavy>
22

>  <SCORE.norm>
-0.177785

>  <RMSD>
16.354

$$$$
ligand
 OpenBabel11021811443D
libRbt.so/2013.1/901 2013/11/27
 22 23  0  0  0  0  0  0  0  0999 V2000
   13.5781   41.7871   77.1730 C   0  0  0  0  0  0  0  0  0  0  0  0
   11.1092   41.4007   70.2717 C   0  0  0  0  0  0  0  0  0  0  0  0
   10.5846   47.2479   68.0696 P   0  0  1  0  0  0  0  0  0  0  0  0
   13.0602   41.0092   74.9708 N   0  0  0  0  0  0  0  0  0  0  0  0
   10.5961   47.9787   69.3627 O   0  0  0  0  0  0  0  0  0  0  0  0
    8.4126   44.1462   71.4539 S   0  0  0  0  0  0  0  0  0  0  0  0
    8.6147   42.8599   72.5156 C   0  0  0  0  0  0  0  0  0  0  0  0
   12.5634   41.4890   76.1634 C   0  0  0  0  0  0  0  0  0  0  0  0
    9.2469   46.7395   67.6704 O   0  5  0  0  0  0  0  0  0  0  0  0
    9.5159   41.9282   72.1377 N   0  0  0  0  0  0  0  0  0  0  0  0
   11.2908   41.6589   76.4035 N   0  0  0  0  0  0  0  0  0  0  0  0
   11.2540   48.0595   67.0034 O   0  0  0  0  0  0  0  0  0  0  0  0
   10.0762   42.2827   70.9091 C   0  0  2  0  0  0  0  0  0  0  0  0
   10.3519   41.3664   75.4197 C   0  0  0  0  0  0  0  0  0  0  0  0
    9.0597   41.5279   75.6889 N   0  0  0  0  0  0  0  0  0  0  0  0
    9.5976   43.4562   70.3762 C   0  0  1  0  0  0  0  0  0  0  0  0
   10.8075   40.8951   74.1222 C   0  0  0  0  0  0  0  0  0  0  0  0
    9.9725   44.0941   69.0871 C   0  0  0  0  0  0  0  0  0  0  0  0
   12.1697   40.7154   73.9898 C   0  0  0  0  0  0  0  0  0  0  0  0
   11.2032   44.9092   69.2264 C   0  0  0  0  0  0  0  0  0  0  0  0
    9.8373   40.6759   72.9771 C   0  0  0  0  0  0  0  0  0  0  0  0
   11.4208   45.9250   68.2465 O   0  0  0  0  0  0  0  0  0  0  0  0
  1  8  1  0  0  0  0
  3  5  1  1  0  0  0
  3  9  1  0  0  0  0
  3 12  2  0  0  0  0
  3 22  1  0  0  0  0
  4  8  2  0  0  0  0
  4 19  1  0  0  0  0
  6 16  1  0  0  0  0
  6  7  1  0  0  0  0
  7 10  1  0  0  0  0
  8 11  1  0  0  0  0
 10 13  1  0  0  0  0
 10 21  1  0  0  0  0
 11 14  2  0  0  0  0
 13  2  1  6  0  0  0
 13 16  1  0  0  0  0
 14 15  1  0  0  0  0
 14 17  1  0  0  0  0
 16 18  1  6  0  0  0
 17 19  2  0  0  0  0
 17 21  1  0  0  0  0
 18 20  1  0  0  0  0
 20 22  1  0  0  0  0
M  CHG  1   9  -1
M  END
>  <CHROM.1>
-81.03967171,96.79263411,85.17544067,-158.75861773,68.87991182,55.69598216
10.54052158,43.66372430,71.60493142,-1.44935662,-0.46790331,-0.85683989

>  <Name>
ligand

>  <RI>
0

>  <Rbt.Current_Directory>
/home/itssahil/PROJECTS/Mol_Feturizer/New_Systems/rnas/2HOM

>  <Rbt.Executable>
rbdock ($Id: //depot/dev/client3/rdock/2013.1/src/exe/rbdock.cxx#4 $)

>  <Rbt.Library>
libRbt.so (2013.1, Build901 2013/11/27)

>  <Rbt.Parameter_File>
/export/apps/rDock/src/rDock_2013.1_src/data/scripts/dock_solv.prm

>  <Rbt.Receptor>
prm/blind_docking_100.prm

>  <SCORE>
-7.46819

>  <SCORE.INTER>
-8.79866

>  <SCORE.INTER.CONST>
1

>  <SCORE.INTER.POLAR>
0

>  <SCORE.INTER.ROT>
6

>  <SCORE.INTER.SOLV>
13.4421

>  <SCORE.INTER.VDW>
-17.9465

>  <SCORE.INTER.norm>
-0.399939

>  <SCORE.INTRA>
1.33047

>  <SCORE.INTRA.DIHEDRAL>
1.58505

>  <SCORE.INTRA.DIHEDRAL.0>
5.05013

>  <SCORE.INTRA.POLAR>
0

>  <SCORE.INTRA.POLAR.0>
0

>  <SCORE.INTRA.REPUL>
0

>  <SCORE.INTRA.REPUL.0>
0

>  <SCORE.INTRA.SOLV>
1.71289

>  <SCORE.INTRA.SOLV.lig_0>
-54.1265

>  <SCORE.INTRA.VDW>
-0.3185

>  <SCORE.INTRA.VDW.0>
-2.1303

>  <SCORE.INTRA.norm>
0.0604758

>  <SCORE.RESTR>
0

>  <SCORE.RESTR.CAVITY>
0

>  <SCORE.RESTR.norm>
0

>  <SCORE.SYSTEM>
0

>  <SCORE.SYSTEM.CONST>
0

>  <SCORE.SYSTEM.DIHEDRAL>
0

>  <SCORE.SYSTEM.SOLV>
0

>  <SCORE.SYSTEM.norm>
0

>  <SCORE.heavy>
22

>  <SCORE.norm>
-0.339463

>  <RMSD>
16.448

$$$$
ligand
 OpenBabel11021811443D
libRbt.so/2013.1/901 2013/11/27
 22 23  0  0  0  0  0  0  0  0999 V2000
   38.0814   28.3054   60.3017 C   0  0  0  0  0  0  0  0  0  0  0  0
   36.2744   35.3368   57.6753 C   0  0  0  0  0  0  0  0  0  0  0  0
   30.1892   33.9572   54.9493 P   0  0  1  0  0  0  0  0  0  0  0  0
   37.5367   30.3372   59.1624 N   0  0  0  0  0  0  0  0  0  0  0  0
   29.1669   33.3283   55.8243 O   0  0  0  0  0  0  0  0  0  0  0  0
   32.5357   34.0816   58.4839 S   0  0  0  0  0  0  0  0  0  0  0  0
   33.6906   33.6159   59.6118 C   0  0  0  0  0  0  0  0  0  0  0  0
   37.5378   29.6613   60.3634 C   0  0  0  0  0  0  0  0  0  0  0  0
   30.6493   33.0919   53.8327 O   0  5  0  0  0  0  0  0  0  0  0  0
   34.9513   34.0280   59.3592 N   0  0  0  0  0  0  0  0  0  0  0  0
   37.0814   30.1638   61.4793 N   0  0  0  0  0  0  0  0  0  0  0  0
   29.7337   35.3123   54.5020 O   0  0  0  0  0  0  0  0  0  0  0  0
   34.9793   34.7678   58.1756 C   0  0  2  0  0  0  0  0  0  0  0  0
   36.5720   31.4580   61.5028 C   0  0  0  0  0  0  0  0  0  0  0  0
   36.0946   31.9457   62.6440 N   0  0  0  0  0  0  0  0  0  0  0  0
   33.7611   34.9013   57.5523 C   0  0  1  0  0  0  0  0  0  0  0  0
   36.5777   32.2447   60.2804 C   0  0  0  0  0  0  0  0  0  0  0  0
   33.4587   35.6065   56.2793 C   0  0  0  0  0  0  0  0  0  0  0  0
   37.0473   31.6030   59.1520 C   0  0  0  0  0  0  0  0  0  0  0  0
   32.7288   34.7266   55.3352 C   0  0  0  0  0  0  0  0  0  0  0  0
   36.1461   33.6987   60.2758 C   0  0  0  0  0  0  0  0  0  0  0  0
   31.5018   34.1596   55.7960 O   0  0  0  0  0  0  0  0  0  0  0  0
  1  8  1  0  0  0  0
  3  5  1  1  0  0  0
  3  9  1  0  0  0  0
  3 12  2  0  0  0  0
  3 22  1  0  0  0  0
  4  8  2  0  0  0  0
  4 19  1  0  0  0  0
  6 16  1  0  0  0  0
  6  7  1  0  0  0  0
  7 10  1  0  0  0  0
  8 11  1  0  0  0  0
 10 13  1  0  0  0  0
 10 21  1  0  0  0  0
 11 14  2  0  0  0  0
 13  2  1  6  0  0  0
 13 16  1  0  0  0  0
 14 15  1  0  0  0  0
 14 17  1  0  0  0  0
 16 18  1  6  0  0  0
 17 19  2  0  0  0  0
 17 21  1  0  0  0  0
 18 20  1  0  0  0  0
 20 22  1  0  0  0  0
M  CHG  1   9  -1
M  END
>  <CHROM.1>
69.80637794,-52.30706004,-120.36906450,56.79427511,141.28846446,179.68850636
33.93390686,33.15128730,58.01566074,0.34184226,0.72215192,-3.08177775

>  <Name>
ligand

>  <RI>
0

>  <Rbt.Current_Directory>
/home/itssahil/PROJECTS/Mol_Feturizer/New_Systems/rnas/2HOM

>  <Rbt.Executable>
rbdock ($Id: //depot/dev/client3/rdock/2013.1/src/exe/rbdock.cxx#4 $)

>  <Rbt.Library>
libRbt.so (2013.1, Build901 2013/11/27)

>  <Rbt.Parameter_File>
/export/apps/rDock/src/rDock_2013.1_src/data/scripts/dock_solv.prm

>  <Rbt.Receptor>
prm/blind_docking_80.prm

>  <SCORE>
-7.9319

>  <SCORE.INTER>
-11.1412

>  <SCORE.INTER.CONST>
1

>  <SCORE.INTER.POLAR>
0

>  <SCORE.INTER.ROT>
6

>  <SCORE.INTER.SOLV>
31.7271

>  <SCORE.INTER.VDW>
-25.6032

>  <SCORE.INTER.norm>
-0.506418

>  <SCORE.INTRA>
3.20929

>  <SCORE.INTRA.DIHEDRAL>
5.32885

>  <SCORE.INTRA.DIHEDRAL.0>
5.05013

>  <SCORE.INTRA.POLAR>
0

>  <SCORE.INTRA.POLAR.0>
0

>  <SCORE.INTRA.REPUL>
0

>  <SCORE.INTRA.REPUL.0>
0

>  <SCORE.INTRA.SOLV>
0.662068

>  <SCORE.INTRA.SOLV.lig_0>
-54.1265

>  <SCORE.INTRA.VDW>
0.213831

>  <SCORE.INTRA.VDW.0>
-2.1303

>  <SCORE.INTRA.norm>
0.145877

>  <SCORE.RESTR>
0

>  <SCORE.RESTR.CAVITY>
0

>  <SCORE.RESTR.norm>
0

>  <SCORE.SYSTEM>
0

>  <SCORE.SYSTEM.CONST>
0

>  <SCORE.SYSTEM.DIHEDRAL>
0

>  <SCORE.SYSTEM.SOLV>
0

>  <SCORE.SYSTEM.norm>
0

>  <SCORE.heavy>
22

>  <SCORE.norm>
-0.360541

>  <RMSD>
16.900

$$$$
ligand
 OpenBabel11021811443D
libRbt.so/2013.1/901 2013/11/27
 22 23  0  0  0  0  0  0  0  0999 V2000
   37.3981   28.1166   58.9536 C   0  0  0  0  0  0  0  0  0  0  0  0
   34.0690   33.2220   60.1527 C   0  0  0  0  0  0  0  0  0  0  0  0
   32.6660   35.2707   54.7900 P   0  0  1  0  0  0  0  0  0  0  0  0
   37.1010   29.3811   60.9626 N   0  0  0  0  0  0  0  0  0  0  0  0
   31.7908   36.2222   54.0584 O   0  0  0  0  0  0  0  0  0  0  0  0
   36.2911   36.5395   59.6396 S   0  0  0  0  0  0  0  0  0  0  0  0
   36.9805   35.3828   60.6442 C   0  0  0  0  0  0  0  0  0  0  0  0
   37.2695   29.4240   59.5954 C   0  0  0  0  0  0  0  0  0  0  0  0
   31.9958   34.0025   55.1768 O   0  5  0  0  0  0  0  0  0  0  0  0
   36.2511   34.2615   60.8285 N   0  0  0  0  0  0  0  0  0  0  0  0
   37.3282   30.5318   58.9059 N   0  0  0  0  0  0  0  0  0  0  0  0
   33.9492   35.0616   54.0462 O   0  0  0  0  0  0  0  0  0  0  0  0
   35.0584   34.3491   60.1082 C   0  0  2  0  0  0  0  0  0  0  0  0
   37.2008   31.7589   59.5485 C   0  0  0  0  0  0  0  0  0  0  0  0
   37.2820   32.8766   58.8325 N   0  0  0  0  0  0  0  0  0  0  0  0
   34.8976   35.5181   59.4025 C   0  0  1  0  0  0  0  0  0  0  0  0
   36.9793   31.7879   60.9848 C   0  0  0  0  0  0  0  0  0  0  0  0
   33.7433   35.9244   58.5588 C   0  0  0  0  0  0  0  0  0  0  0  0
   36.9724   30.5618   61.6191 C   0  0  0  0  0  0  0  0  0  0  0  0
   33.8172   35.3101   57.2114 C   0  0  0  0  0  0  0  0  0  0  0  0
   36.7147   33.0899   61.7164 C   0  0  0  0  0  0  0  0  0  0  0  0
   33.0299   35.9106   56.1824 O   0  0  0  0  0  0  0  0  0  0  0  0
  1  8  1  0  0  0  0
  3  5  1  6  0  0  0
  3  9  1  0  0  0  0
  3 12  2  0  0  0  0
  3 22  1  0  0  0  0
  4  8  2  0  0  0  0
  4 19  1  0  0  0  0
  6 16  1  0  0  0  0
  6  7  1  0  0  0  0
  7 10  1  0  0  0  0
  8 11  1  0  0  0  0
 10 13  1  0  0  0  0
 10 21  1  0  0  0  0
 11 14  2  0  0  0  0
 13  2  1  1  0  0  0
 13 16  1  0  0  0  0
 14 15  1  0  0  0  0
 14 17  1  0  0  0  0
 16 18  1  1  0  0  0
 17 19  2  0  0  0  0
 17 21  1  0  0  0  0
 18 20  1  0  0  0  0
 20 22  1  0  0  0  0
M  CHG  1   9  -1
M  END
>  <CHROM.1>
-114.93231681,99.58700606,18.92577960,-161.46269918,-164.47908038,177.92085074
35.20390083,33.70619757,58.42630694,0.27604087,0.99338982,-2.73295507

>  <Name>
ligand

>  <RI>
0

>  <Rbt.Current_Directory>
/home/itssahil/PROJECTS/Mol_Feturizer/New_Systems/rnas/2HOM

>  <Rbt.Executable>
rbdock ($Id: //depot/dev/client3/rdock/2013.1/src/exe/rbdock.cxx#4 $)

>  <Rbt.Library>
libRbt.so (2013.1, Build901 2013/11/27)

>  <Rbt.Parameter_File>
/export/apps/rDock/src/rDock_2013.1_src/data/scripts/dock_solv.prm

>  <Rbt.Receptor>
prm/blind_docking_80.prm

>  <SCORE>
-9.06857

>  <SCORE.INTER>
-12.4023

>  <SCORE.INTER.CONST>
1

>  <SCORE.INTER.POLAR>
0

>  <SCORE.INTER.ROT>
6

>  <SCORE.INTER.SOLV>
23.3222

>  <SCORE.INTER.VDW>
-23.6423

>  <SCORE.INTER.norm>
-0.563742

>  <SCORE.INTRA>
3.32766

>  <SCORE.INTRA.DIHEDRAL>
2.13671

>  <SCORE.INTRA.DIHEDRAL.0>
5.05013

>  <SCORE.INTRA.POLAR>
0

>  <SCORE.INTRA.POLAR.0>
0

>  <SCORE.INTRA.REPUL>
0

>  <SCORE.INTRA.REPUL.0>
0

>  <SCORE.INTRA.SOLV>
5.06937

>  <SCORE.INTRA.SOLV.lig_0>
-54.1265

>  <SCORE.INTRA.VDW>
-0.275383

>  <SCORE.INTRA.VDW.0>
-2.1303

>  <SCORE.INTRA.norm>
0.151257

>  <SCORE.RESTR>
0.00610266

>  <SCORE.RESTR.CAVITY>
0.00610266

>  <SCORE.RESTR.norm>
0.000277394

>  <SCORE.SYSTEM>
0

>  <SCORE.SYSTEM.CONST>
0

>  <SCORE.SYSTEM.DIHEDRAL>
0

>  <SCORE.SYSTEM.SOLV>
0

>  <SCORE.SYSTEM.norm>
0

>  <SCORE.heavy>
22

>  <SCORE.norm>
-0.412208

>  <RMSD>
16.918

$$$$
ligand
 OpenBabel11021811443D
libRbt.so/2013.1/901 2013/11/27
 22 23  0  0  0  0  0  0  0  0999 V2000
   35.8454   25.5792   58.6867 C   0  0  0  0  0  0  0  0  0  0  0  0
   35.4520   32.8454   58.8900 C   0  0  0  0  0  0  0  0  0  0  0  0
   32.3249   36.9729   61.2663 P   0  0  1  0  0  0  0  0  0  0  0  0
   36.4985   27.3411   60.1674 N   0  0  0  0  0  0  0  0  0  0  0  0
   32.1416   36.1902   62.5152 O   0  0  0  0  0  0  0  0  0  0  0  0
   35.8600   32.5000   62.8801 S   0  0  0  0  0  0  0  0  0  0  0  0
   36.9391   31.5764   61.9827 C   0  0  0  0  0  0  0  0  0  0  0  0
   36.3645   26.9354   58.8572 C   0  0  0  0  0  0  0  0  0  0  0  0
   31.0797   37.1606   60.4780 O   0  5  0  0  0  0  0  0  0  0  0  0
   36.8193   31.6790   60.6418 N   0  0  0  0  0  0  0  0  0  0  0  0
   36.6830   27.6785   57.8313 N   0  0  0  0  0  0  0  0  0  0  0  0
   33.0458   38.2544   61.5523 O   0  0  0  0  0  0  0  0  0  0  0  0
   35.7863   32.5632   60.3252 C   0  0  2  0  0  0  0  0  0  0  0  0
   37.1731   28.9651   58.0294 C   0  0  0  0  0  0  0  0  0  0  0  0
   37.5096   29.6999   56.9734 N   0  0  0  0  0  0  0  0  0  0  0  0
   35.1423   33.1073   61.4112 C   0  0  1  0  0  0  0  0  0  0  0  0
   37.3018   29.4742   59.3849 C   0  0  0  0  0  0  0  0  0  0  0  0
   34.0006   34.0590   61.4139 C   0  0  0  0  0  0  0  0  0  0  0  0
   36.9731   28.5921   60.3945 C   0  0  0  0  0  0  0  0  0  0  0  0
   34.3259   35.2938   60.6602 C   0  0  0  0  0  0  0  0  0  0  0  0
   37.7164   30.9083   59.6532 C   0  0  0  0  0  0  0  0  0  0  0  0
   33.2314   36.1329   60.2897 O   0  0  0  0  0  0  0  0  0  0  0  0
  1  8  1  0  0  0  0
  3  5  1  1  0  0  0
  3  9  1  0  0  0  0
  3 12  2  0  0  0  0
  3 22  1  0  0  0  0
  4  8  2  0  0  0  0
  4 19  1  0  0  0  0
  6 16  1  0  0  0  0
  6  7  1  0  0  0  0
  7 10  1  0  0  0  0
  8 11  1  0  0  0  0
 10 13  1  0  0  0  0
 10 21  1  0  0  0  0
 11 14  2  0  0  0  0
 13  2  1  6  0  0  0
 13 16  1  0  0  0  0
 14 15  1  0  0  0  0
 14 17  1  0  0  0  0
 16 18  1  6  0  0  0
 17 19  2  0  0  0  0
 17 21  1  0  0  0  0
 18 20  1  0  0  0  0
 20 22  1  0  0  0  0
M  CHG  1   9  -1
M  END
>  <CHROM.1>
81.96860446,123.39192713,130.29566734,164.36099067,68.21847205,-36.09119989
35.13056981,32.42953961,60.41234461,0.70086843,0.98362311,-2.09570411

>  <Name>
ligand

>  <RI>
0

>  <Rbt.Current_Directory>
/home/itssahil/PROJECTS/Mol_Feturizer/New_Systems/rnas/2HOM

>  <Rbt.Executable>
rbdock ($Id: //depot/dev/client3/rdock/2013.1/src/exe/rbdock.cxx#4 $)

>  <Rbt.Library>
libRbt.so (2013.1, Build901 2013/11/27)

>  <Rbt.Parameter_File>
/export/apps/rDock/src/rDock_2013.1_src/data/scripts/dock_solv.prm

>  <Rbt.Receptor>
prm/blind_docking_80.prm

>  <SCORE>
-8.1293

>  <SCORE.INTER>
-11.2262

>  <SCORE.INTER.CONST>
1

>  <SCORE.INTER.POLAR>
0

>  <SCORE.INTER.ROT>
6

>  <SCORE.INTER.SOLV>
19.3896

>  <SCORE.INTER.VDW>
-21.5473

>  <SCORE.INTER.norm>
-0.510281

>  <SCORE.INTRA>
1.89305

>  <SCORE.INTRA.DIHEDRAL>
1.56289

>  <SCORE.INTRA.DIHEDRAL.0>
5.05013

>  <SCORE.INTRA.POLAR>
0

>  <SCORE.INTRA.POLAR.0>
0

>  <SCORE.INTRA.REPUL>
0

>  <SCORE.INTRA.REPUL.0>
0

>  <SCORE.INTRA.SOLV>
0.936562

>  <SCORE.INTRA.SOLV.lig_0>
-54.1265

>  <SCORE.INTRA.VDW>
0.643327

>  <SCORE.INTRA.VDW.0>
-2.1303

>  <SCORE.INTRA.norm>
0.0860479

>  <SCORE.RESTR>
1.20383

>  <SCORE.RESTR.CAVITY>
1.20383

>  <SCORE.RESTR.norm>
0.0547196

>  <SCORE.SYSTEM>
0

>  <SCORE.SYSTEM.CONST>
0

>  <SCORE.SYSTEM.DIHEDRAL>
0

>  <SCORE.SYSTEM.SOLV>
0

>  <SCORE.SYSTEM.norm>
0

>  <SCORE.heavy>
22

>  <SCORE.norm>
-0.369514

>  <RMSD>
16.946

$$$$
ligand
 OpenBabel11021811443D
libRbt.so/2013.1/901 2013/11/27
 22 23  0  0  0  0  0  0  0  0999 V2000
   38.1140   28.3468   60.3167 C   0  0  0  0  0  0  0  0  0  0  0  0
   36.3648   35.3472   58.6078 C   0  0  0  0  0  0  0  0  0  0  0  0
   31.1748   35.5105   53.7569 P   0  0  1  0  0  0  0  0  0  0  0  0
   36.7278   29.8819   61.5189 N   0  0  0  0  0  0  0  0  0  0  0  0
   30.6889   36.7535   53.1047 O   0  0  0  0  0  0  0  0  0  0  0  0
   32.5950   33.9354   58.5625 S   0  0  0  0  0  0  0  0  0  0  0  0
   33.5179   33.4272   59.8711 C   0  0  0  0  0  0  0  0  0  0  0  0
   37.5894   29.7042   60.4580 C   0  0  0  0  0  0  0  0  0  0  0  0
   30.1358   34.7846   54.5321 O   0  5  0  0  0  0  0  0  0  0  0  0
   34.7856   33.8908   59.9054 N   0  0  0  0  0  0  0  0  0  0  0  0
   37.9377   30.6595   59.6382 N   0  0  0  0  0  0  0  0  0  0  0  0
   31.8902   34.6444   52.7661 O   0  0  0  0  0  0  0  0  0  0  0  0
   35.0202   34.7095   58.7992 C   0  0  2  0  0  0  0  0  0  0  0  0
   37.4186   31.9398   59.8008 C   0  0  0  0  0  0  0  0  0  0  0  0
   37.7992   32.9038   58.9678 N   0  0  0  0  0  0  0  0  0  0  0  0
   33.9476   34.8505   57.9506 C   0  0  1  0  0  0  0  0  0  0  0  0
   36.4713   32.1899   60.8747 C   0  0  0  0  0  0  0  0  0  0  0  0
   33.8782   35.6315   56.6879 C   0  0  0  0  0  0  0  0  0  0  0  0
   36.2030   31.1196   61.7041 C   0  0  0  0  0  0  0  0  0  0  0  0
   32.9252   35.0229   55.7289 C   0  0  0  0  0  0  0  0  0  0  0  0
   35.7845   33.5340   61.0239 C   0  0  0  0  0  0  0  0  0  0  0  0
   32.2176   35.9141   54.8661 O   0  0  0  0  0  0  0  0  0  0  0  0
  1  8  1  0  0  0  0
  3  5  1  6  0  0  0
  3  9  1  0  0  0  0
  3 12  2  0  0  0  0
  3 22  1  0  0  0  0
  4  8  2  0  0  0  0
  4 19  1  0  0  0  0
  6 16  1  0  0  0  0
  6  7  1  0  0  0  0
  7 10  1  0  0  0  0
  8 11  1  0  0  0  0
 10 13  1  0  0  0  0
 10 21  1  0  0  0  0
 11 14  2  0  0  0  0
 13  2  1  6  0  0  0
 13 16  1  0  0  0  0
 14 15  1  0  0  0  0
 14 17  1  0  0  0  0
 16 18  1  6  0  0  0
 17 19  2  0  0  0  0
 17 21  1  0  0  0  0
 18 20  1  0  0  0  0
 20 22  1  0  0  0  0
M  CHG  1   9  -1
M  END
>  <CHROM.1>
81.23317844,-29.65742914,67.44324777,147.39287711,179.06938287,-179.99718814
34.29400382,33.60516605,57.79123684,-0.22728715,0.92424160,-2.24050524

>  <Name>
ligand

>  <RI>
0

>  <Rbt.Current_Directory>
/home/itssahil/PROJECTS/Mol_Feturizer/New_Systems/rnas/2HOM

>  <Rbt.Executable>
rbdock ($Id: //depot/dev/client3/rdock/2013.1/src/exe/rbdock.cxx#4 $)

>  <Rbt.Library>
libRbt.so (2013.1, Build901 2013/11/27)

>  <Rbt.Parameter_File>
/export/apps/rDock/src/rDock_2013.1_src/data/scripts/dock_solv.prm

>  <Rbt.Receptor>
prm/blind_docking_80.prm

>  <SCORE>
-3.11295

>  <SCORE.INTER>
-7.71701

>  <SCORE.INTER.CONST>
1

>  <SCORE.INTER.POLAR>
0

>  <SCORE.INTER.ROT>
6

>  <SCORE.INTER.SOLV>
24.493

>  <SCORE.INTER.VDW>
-20.909

>  <SCORE.INTER.norm>
-0.350773

>  <SCORE.INTRA>
4.60406

>  <SCORE.INTRA.DIHEDRAL>
2.92319

>  <SCORE.INTRA.DIHEDRAL.0>
5.05013

>  <SCORE.INTRA.POLAR>
0

>  <SCORE.INTRA.POLAR.0>
0

>  <SCORE.INTRA.REPUL>
0

>  <SCORE.INTRA.REPUL.0>
0

>  <SCORE.INTRA.SOLV>
3.80438

>  <SCORE.INTRA.SOLV.lig_0>
-54.1265

>  <SCORE.INTRA.VDW>
1.24028

>  <SCORE.INTRA.VDW.0>
-2.1303

>  <SCORE.INTRA.norm>
0.209276

>  <SCORE.RESTR>
0

>  <SCORE.RESTR.CAVITY>
0

>  <SCORE.RESTR.norm>
0

>  <SCORE.SYSTEM>
0

>  <SCORE.SYSTEM.CONST>
0

>  <SCORE.SYSTEM.DIHEDRAL>
0

>  <SCORE.SYSTEM.SOLV>
0

>  <SCORE.SYSTEM.norm>
0

>  <SCORE.heavy>
22

>  <SCORE.norm>
-0.141498

>  <RMSD>
16.976

$$$$
ligand
 OpenBabel11021811443D
libRbt.so/2013.1/901 2013/11/27
 22 23  0  0  0  0  0  0  0  0999 V2000
   37.7702   28.4567   61.3793 C   0  0  0  0  0  0  0  0  0  0  0  0
   34.1182   32.9637   60.1620 C   0  0  0  0  0  0  0  0  0  0  0  0
   32.3893   36.2175   54.2033 P   0  0  1  0  0  0  0  0  0  0  0  0
   37.8422   30.7203   62.1502 N   0  0  0  0  0  0  0  0  0  0  0  0
   32.6340   37.6821   54.1655 O   0  0  0  0  0  0  0  0  0  0  0  0
   35.1795   35.5403   57.2566 S   0  0  0  0  0  0  0  0  0  0  0  0
   36.3515   35.2904   58.4341 C   0  0  0  0  0  0  0  0  0  0  0  0
   37.5782   29.8775   61.0922 C   0  0  0  0  0  0  0  0  0  0  0  0
   30.9642   35.8345   54.0309 O   0  5  0  0  0  0  0  0  0  0  0  0
   36.0153   34.4284   59.4175 N   0  0  0  0  0  0  0  0  0  0  0  0
   37.1999   30.2906   59.9123 N   0  0  0  0  0  0  0  0  0  0  0  0
   33.3133   35.5076   53.2621 O   0  0  0  0  0  0  0  0  0  0  0  0
   34.7252   33.9416   59.1994 C   0  0  2  0  0  0  0  0  0  0  0  0
   37.0256   31.6498   59.6737 C   0  0  0  0  0  0  0  0  0  0  0  0
   36.6581   32.0528   58.4610 N   0  0  0  0  0  0  0  0  0  0  0  0
   34.1066   34.4358   58.0754 C   0  0  1  0  0  0  0  0  0  0  0  0
   37.2464   32.5940   60.7567 C   0  0  0  0  0  0  0  0  0  0  0  0
   32.7391   34.1337   57.5777 C   0  0  0  0  0  0  0  0  0  0  0  0
   37.6804   32.0528   61.9501 C   0  0  0  0  0  0  0  0  0  0  0  0
   32.6366   34.3533   56.1149 C   0  0  0  0  0  0  0  0  0  0  0  0
   36.9559   34.0729   60.5858 C   0  0  0  0  0  0  0  0  0  0  0  0
   32.7141   35.7035   55.6563 O   0  0  0  0  0  0  0  0  0  0  0  0
  1  8  1  0  0  0  0
  3  5  1  6  0  0  0
  3  9  1  0  0  0  0
  3 12  2  0  0  0  0
  3 22  1  0  0  0  0
  4  8  2  0  0  0  0
  4 19  1  0  0  0  0
  6 16  1  0  0  0  0
  6  7  1  0  0  0  0
  7 10  1  0  0  0  0
  8 11  1  0  0  0  0
 10 13  1  0  0  0  0
 10 21  1  0  0  0  0
 11 14  2  0  0  0  0
 13  2  1  1  0  0  0
 13 16  1  0  0  0  0
 14 15  1  0  0  0  0
 14 17  1  0  0  0  0
 16 18  1  1  0  0  0
 17 19  2  0  0  0  0
 17 21  1  0  0  0  0
 18 20  1  0  0  0  0
 20 22  1  0  0  0  0
M  CHG  1   9  -1
M  END
>  <CHROM.1>
-123.98876891,25.31047024,19.07103104,-68.86193125,-168.77873385,-178.71628985
34.92515555,33.85110505,57.93273813,0.65102308,0.87710630,3.03214338

>  <Name>
ligand

>  <RI>
0

>  <Rbt.Current_Directory>
/home/itssahil/PROJECTS/Mol_Feturizer/New_Systems/rnas/2HOM

>  <Rbt.Executable>
rbdock ($Id: //depot/dev/client3/rdock/2013.1/src/exe/rbdock.cxx#4 $)

>  <Rbt.Library>
libRbt.so (2013.1, Build901 2013/11/27)

>  <Rbt.Parameter_File>
/export/apps/rDock/src/rDock_2013.1_src/data/scripts/dock_solv.prm

>  <Rbt.Receptor>
prm/blind_docking_80.prm

>  <SCORE>
-7.68534

>  <SCORE.INTER>
-11.888

>  <SCORE.INTER.CONST>
1

>  <SCORE.INTER.POLAR>
0

>  <SCORE.INTER.ROT>
6

>  <SCORE.INTER.SOLV>
23.9629

>  <SCORE.INTER.VDW>
-23.513

>  <SCORE.INTER.norm>
-0.540362

>  <SCORE.INTRA>
3.79769

>  <SCORE.INTRA.DIHEDRAL>
0.703449

>  <SCORE.INTRA.DIHEDRAL.0>
5.05013

>  <SCORE.INTRA.POLAR>
0

>  <SCORE.INTRA.POLAR.0>
0

>  <SCORE.INTRA.REPUL>
0

>  <SCORE.INTRA.REPUL.0>
0

>  <SCORE.INTRA.SOLV>
5.27121

>  <SCORE.INTRA.SOLV.lig_0>
-54.1265

>  <SCORE.INTRA.VDW>
0.810357

>  <SCORE.INTRA.VDW.0>
-2.1303

>  <SCORE.INTRA.norm>
0.172622

>  <SCORE.RESTR>
0.404947

>  <SCORE.RESTR.CAVITY>
0.404947

>  <SCORE.RESTR.norm>
0.0184067

>  <SCORE.SYSTEM>
0

>  <SCORE.SYSTEM.CONST>
0

>  <SCORE.SYSTEM.DIHEDRAL>
0

>  <SCORE.SYSTEM.SOLV>
0

>  <SCORE.SYSTEM.norm>
0

>  <SCORE.heavy>
22

>  <SCORE.norm>
-0.349334

>  <RMSD>
17.062

$$$$
ligand
 OpenBabel11021811443D
libRbt.so/2013.1/901 2013/11/27
 22 23  0  0  0  0  0  0  0  0999 V2000
   37.6606   28.6393   61.0004 C   0  0  0  0  0  0  0  0  0  0  0  0
   36.2261   35.5488   58.0382 C   0  0  0  0  0  0  0  0  0  0  0  0
   33.2308   34.7231   52.8014 P   0  0  1  0  0  0  0  0  0  0  0  0
   36.3412   30.4573   61.8235 N   0  0  0  0  0  0  0  0  0  0  0  0
   32.7209   33.3583   52.5122 O   0  0  0  0  0  0  0  0  0  0  0  0
   32.4953   34.0631   58.3215 S   0  0  0  0  0  0  0  0  0  0  0  0
   33.4790   33.7442   59.6456 C   0  0  0  0  0  0  0  0  0  0  0  0
   37.2568   30.0397   60.8820 C   0  0  0  0  0  0  0  0  0  0  0  0
   34.6450   34.7604   53.2551 O   0  5  0  0  0  0  0  0  0  0  0  0
   34.7346   34.2351   59.5706 N   0  0  0  0  0  0  0  0  0  0  0  0
   37.7518   30.8169   59.9563 N   0  0  0  0  0  0  0  0  0  0  0  0
   32.9516   35.6412   51.6512 O   0  0  0  0  0  0  0  0  0  0  0  0
   34.9066   34.9121   58.3618 C   0  0  2  0  0  0  0  0  0  0  0  0
   37.3447   32.1443   59.8713 C   0  0  0  0  0  0  0  0  0  0  0  0
   37.8735   32.9253   58.9339 N   0  0  0  0  0  0  0  0  0  0  0  0
   33.8001   34.9218   57.5459 C   0  0  1  0  0  0  0  0  0  0  0  0
   36.3498   32.6423   60.8068 C   0  0  0  0  0  0  0  0  0  0  0  0
   33.6636   35.5352   56.1989 C   0  0  0  0  0  0  0  0  0  0  0  0
   35.9228   31.7471   61.7669 C   0  0  0  0  0  0  0  0  0  0  0  0
   32.6061   34.8643   55.4053 C   0  0  0  0  0  0  0  0  0  0  0  0
   35.7831   34.0439   60.6842 C   0  0  0  0  0  0  0  0  0  0  0  0
   32.4503   35.2840   54.0492 O   0  0  0  0  0  0  0  0  0  0  0  0
  1  8  1  0  0  0  0
  3  5  1  6  0  0  0
  3  9  1  0  0  0  0
  3 12  2  0  0  0  0
  3 22  1  0  0  0  0
  4  8  2  0  0  0  0
  4 19  1  0  0  0  0
  6 16  1  0  0  0  0
  6  7  1  0  0  0  0
  7 10  1  0  0  0  0
  8 11  1  0  0  0  0
 10 13  1  0  0  0  0
 10 21  1  0  0  0  0
 11 14  2  0  0  0  0
 13  2  1  6  0  0  0
 13 16  1  0  0  0  0
 14 15  1  0  0  0  0
 14 17  1  0  0  0  0
 16 18  1  6  0  0  0
 17 19  2  0  0  0  0
 17 21  1  0  0  0  0
 18 20  1  0  0  0  0
 20 22  1  0  0  0  0
M  CHG  1   9  -1
M  END
>  <CHROM.1>
72.55941024,-24.63035563,76.58638781,-174.84589280,87.02326833,72.29953733
34.73151179,33.55745776,57.44938432,-0.91359628,0.83790327,-1.64426425

>  <Name>
ligand

>  <RI>
0

>  <Rbt.Current_Directory>
/home/itssahil/PROJECTS/Mol_Feturizer/New_Systems/rnas/2HOM

>  <Rbt.Executable>
rbdock ($Id: //depot/dev/client3/rdock/2013.1/src/exe/rbdock.cxx#4 $)

>  <Rbt.Library>
libRbt.so (2013.1, Build901 2013/11/27)

>  <Rbt.Parameter_File>
/export/apps/rDock/src/rDock_2013.1_src/data/scripts/dock_solv.prm

>  <Rbt.Receptor>
prm/blind_docking_80.prm

>  <SCORE>
-4.3316

>  <SCORE.INTER>
-8.41468

>  <SCORE.INTER.CONST>
1

>  <SCORE.INTER.POLAR>
0

>  <SCORE.INTER.ROT>
6

>  <SCORE.INTER.SOLV>
22.3575

>  <SCORE.INTER.VDW>
-20.6623

>  <SCORE.INTER.norm>
-0.382486

>  <SCORE.INTRA>
4.08309

>  <SCORE.INTRA.DIHEDRAL>
3.02057

>  <SCORE.INTRA.DIHEDRAL.0>
5.05013

>  <SCORE.INTRA.POLAR>
0

>  <SCORE.INTRA.POLAR.0>
0

>  <SCORE.INTRA.REPUL>
0

>  <SCORE.INTRA.REPUL.0>
0

>  <SCORE.INTRA.SOLV>
3.40445

>  <SCORE.INTRA.SOLV.lig_0>
-54.1265

>  <SCORE.INTRA.VDW>
0.870571

>  <SCORE.INTRA.VDW.0>
-2.1303

>  <SCORE.INTRA.norm>
0.185595

>  <SCORE.RESTR>
0

>  <SCORE.RESTR.CAVITY>
0

>  <SCORE.RESTR.norm>
0

>  <SCORE.SYSTEM>
0

>  <SCORE.SYSTEM.CONST>
0

>  <SCORE.SYSTEM.DIHEDRAL>
0

>  <SCORE.SYSTEM.SOLV>
0

>  <SCORE.SYSTEM.norm>
0

>  <SCORE.heavy>
22

>  <SCORE.norm>
-0.196891

>  <RMSD>
17.092

$$$$
ligand
 OpenBabel11021811443D
libRbt.so/2013.1/901 2013/11/27
 22 23  0  0  0  0  0  0  0  0999 V2000
   38.3250   28.1081   60.0334 C   0  0  0  0  0  0  0  0  0  0  0  0
   36.6670   34.7741   59.0391 C   0  0  0  0  0  0  0  0  0  0  0  0
   32.3736   35.7273   53.5242 P   0  0  1  0  0  0  0  0  0  0  0  0
   36.4243   29.5522   59.8750 N   0  0  0  0  0  0  0  0  0  0  0  0
   31.4229   36.8360   53.7949 O   0  0  0  0  0  0  0  0  0  0  0  0
   32.7471   33.9774   58.5850 S   0  0  0  0  0  0  0  0  0  0  0  0
   33.4517   33.2789   59.9408 C   0  0  0  0  0  0  0  0  0  0  0  0
   37.6700   29.3537   60.4301 C   0  0  0  0  0  0  0  0  0  0  0  0
   31.7793   34.3718   53.6523 O   0  5  0  0  0  0  0  0  0  0  0  0
   34.7663   33.5350   60.1119 N   0  0  0  0  0  0  0  0  0  0  0  0
   38.2365   30.1890   61.2591 N   0  0  0  0  0  0  0  0  0  0  0  0
   33.0766   35.9469   52.2198 O   0  0  0  0  0  0  0  0  0  0  0  0
   35.2285   34.3493   59.0763 C   0  0  2  0  0  0  0  0  0  0  0  0
   37.5857   31.3659   61.6144 C   0  0  0  0  0  0  0  0  0  0  0  0
   38.1700   32.1952   62.4742 N   0  0  0  0  0  0  0  0  0  0  0  0
   34.2764   34.6910   58.1451 C   0  0  1  0  0  0  0  0  0  0  0  0
   36.2856   31.6604   61.0345 C   0  0  0  0  0  0  0  0  0  0  0  0
   34.4487   35.5222   56.9251 C   0  0  0  0  0  0  0  0  0  0  0  0
   35.7634   30.6919   60.2009 C   0  0  0  0  0  0  0  0  0  0  0  0
   33.2678   35.4235   56.0339 C   0  0  0  0  0  0  0  0  0  0  0  0
   35.5870   32.9815   61.2935 C   0  0  0  0  0  0  0  0  0  0  0  0
   33.4701   35.7346   54.6549 O   0  0  0  0  0  0  0  0  0  0  0  0
  1  8  1  0  0  0  0
  3  5  1  1  0  0  0
  3  9  1  0  0  0  0
  3 12  2  0  0  0  0
  3 22  1  0  0  0  0
  4  8  2  0  0  0  0
  4 19  1  0  0  0  0
  6 16  1  0  0  0  0
  6  7  1  0  0  0  0
  7 10  1  0  0  0  0
  8 11  1  0  0  0  0
 10 13  1  0  0  0  0
 10 21  1  0  0  0  0
 11 14  2  0  0  0  0
 13  2  1  6  0  0  0
 13 16  1  0  0  0  0
 14 15  1  0  0  0  0
 14 17  1  0  0  0  0
 16 18  1  6  0  0  0
 17 19  2  0  0  0  0
 17 21  1  0  0  0  0
 18 20  1  0  0  0  0
 20 22  1  0  0  0  0
M  CHG  1   9  -1
M  END
>  <CHROM.1>
92.10922394,-11.53175651,144.98698821,-157.29959644,-178.86819103,67.80508035
34.71489851,33.45229882,57.95472403,-0.46041120,0.99930450,-1.98156900

>  <Name>
ligand

>  <RI>
0

>  <Rbt.Current_Directory>
/home/itssahil/PROJECTS/Mol_Feturizer/New_Systems/rnas/2HOM

>  <Rbt.Executable>
rbdock ($Id: //depot/dev/client3/rdock/2013.1/src/exe/rbdock.cxx#4 $)

>  <Rbt.Library>
libRbt.so (2013.1, Build901 2013/11/27)

>  <Rbt.Parameter_File>
/export/apps/rDock/src/rDock_2013.1_src/data/scripts/dock_solv.prm

>  <Rbt.Receptor>
prm/blind_docking_80.prm

>  <SCORE>
-1.3012

>  <SCORE.INTER>
-3.98025

>  <SCORE.INTER.CONST>
1

>  <SCORE.INTER.POLAR>
0

>  <SCORE.INTER.ROT>
6

>  <SCORE.INTER.SOLV>
25.3833

>  <SCORE.INTER.VDW>
-18.7146

>  <SCORE.INTER.norm>
-0.18092

>  <SCORE.INTRA>
2.22931

>  <SCORE.INTRA.DIHEDRAL>
1.5149

>  <SCORE.INTRA.DIHEDRAL.0>
5.05013

>  <SCORE.INTRA.POLAR>
0

>  <SCORE.INTRA.POLAR.0>
0

>  <SCORE.INTRA.REPUL>
0

>  <SCORE.INTRA.REPUL.0>
0

>  <SCORE.INTRA.SOLV>
0.349353

>  <SCORE.INTRA.SOLV.lig_0>
-54.1265

>  <SCORE.INTRA.VDW>
1.29718

>  <SCORE.INTRA.VDW.0>
-2.1303

>  <SCORE.INTRA.norm>
0.101332

>  <SCORE.RESTR>
0.449737

>  <SCORE.RESTR.CAVITY>
0.449737

>  <SCORE.RESTR.norm>
0.0204426

>  <SCORE.SYSTEM>
0

>  <SCORE.SYSTEM.CONST>
0

>  <SCORE.SYSTEM.DIHEDRAL>
0

>  <SCORE.SYSTEM.SOLV>
0

>  <SCORE.SYSTEM.norm>
0

>  <SCORE.heavy>
22

>  <SCORE.norm>
-0.0591457

>  <RMSD>
17.131

$$$$
ligand
 OpenBabel11021811443D
libRbt.so/2013.1/901 2013/11/27
 22 23  0  0  0  0  0  0  0  0999 V2000
   37.4524   28.4374   61.0420 C   0  0  0  0  0  0  0  0  0  0  0  0
   33.5349   34.9438   60.1039 C   0  0  0  0  0  0  0  0  0  0  0  0
   33.0236   35.2449   53.1895 P   0  0  1  0  0  0  0  0  0  0  0  0
   36.5041   30.4170   61.9934 N   0  0  0  0  0  0  0  0  0  0  0  0
   34.2713   34.4942   52.8964 O   0  0  0  0  0  0  0  0  0  0  0  0
   36.1466   35.2777   57.0586 S   0  0  0  0  0  0  0  0  0  0  0  0
   36.8087   34.6962   58.4890 C   0  0  0  0  0  0  0  0  0  0  0  0
   37.2493   29.8833   60.9642 C   0  0  0  0  0  0  0  0  0  0  0  0
   32.8237   36.4473   52.3400 O   0  5  0  0  0  0  0  0  0  0  0  0
   35.9485   34.5757   59.5228 N   0  0  0  0  0  0  0  0  0  0  0  0
   37.7579   30.5929   59.9927 N   0  0  0  0  0  0  0  0  0  0  0  0
   31.8454   34.3201   53.1969 O   0  0  0  0  0  0  0  0  0  0  0  0
   34.6728   34.9816   59.1267 C   0  0  2  0  0  0  0  0  0  0  0  0
   37.5441   31.9667   59.9486 C   0  0  0  0  0  0  0  0  0  0  0  0
   38.0854   32.6752   58.9621 N   0  0  0  0  0  0  0  0  0  0  0  0
   34.5832   35.4029   57.8210 C   0  0  1  0  0  0  0  0  0  0  0  0
   36.7321   32.5915   60.9797 C   0  0  0  0  0  0  0  0  0  0  0  0
   33.3832   35.9093   57.1048 C   0  0  0  0  0  0  0  0  0  0  0  0
   36.2765   31.7548   61.9786 C   0  0  0  0  0  0  0  0  0  0  0  0
   33.1270   35.1347   55.8668 C   0  0  0  0  0  0  0  0  0  0  0  0
   36.3684   34.0626   60.9143 C   0  0  0  0  0  0  0  0  0  0  0  0
   33.1481   35.8574   54.6353 O   0  0  0  0  0  0  0  0  0  0  0  0
  1  8  1  0  0  0  0
  3  5  1  6  0  0  0
  3  9  1  0  0  0  0
  3 12  2  0  0  0  0
  3 22  1  0  0  0  0
  4  8  2  0  0  0  0
  4 19  1  0  0  0  0
  6 16  1  0  0  0  0
  6  7  1  0  0  0  0
  7 10  1  0  0  0  0
  8 11  1  0  0  0  0
 10 13  1  0  0  0  0
 10 21  1  0  0  0  0
 11 14  2  0  0  0  0
 13  2  1  1  0  0  0
 13 16  1  0  0  0  0
 14 15  1  0  0  0  0
 14 17  1  0  0  0  0
 16 18  1  1  0  0  0
 17 19  2  0  0  0  0
 17 21  1  0  0  0  0
 18 20  1  0  0  0  0
 20 22  1  0  0  0  0
M  CHG  1   9  -1
M  END
>  <CHROM.1>
-69.33727114,55.64887345,42.71635275,-119.68484695,174.64434293,-70.28103144
35.16725502,33.84204602,57.62326719,-0.33365586,1.10270590,-2.24485326

>  <Name>
ligand

>  <RI>
0

>  <Rbt.Current_Directory>
/home/itssahil/PROJECTS/Mol_Feturizer/New_Systems/rnas/2HOM

>  <Rbt.Executable>
rbdock ($Id: //depot/dev/client3/rdock/2013.1/src/exe/rbdock.cxx#4 $)

>  <Rbt.Library>
libRbt.so (2013.1, Build901 2013/11/27)

>  <Rbt.Parameter_File>
/export/apps/rDock/src/rDock_2013.1_src/data/scripts/dock_solv.prm

>  <Rbt.Receptor>
prm/blind_docking_80.prm

>  <SCORE>
12.0737

>  <SCORE.INTER>
5.96378

>  <SCORE.INTER.CONST>
1

>  <SCORE.INTER.POLAR>
0

>  <SCORE.INTER.ROT>
6

>  <SCORE.INTER.SOLV>
21.1723

>  <SCORE.INTER.VDW>
-10.6816

>  <SCORE.INTER.norm>
0.271081

>  <SCORE.INTRA>
6.1099

>  <SCORE.INTRA.DIHEDRAL>
6.03368

>  <SCORE.INTRA.DIHEDRAL.0>
5.05013

>  <SCORE.INTRA.POLAR>
0

>  <SCORE.INTRA.POLAR.0>
0

>  <SCORE.INTRA.REPUL>
0

>  <SCORE.INTRA.REPUL.0>
0

>  <SCORE.INTRA.SOLV>
2.38805

>  <SCORE.INTRA.SOLV.lig_0>
-54.1265

>  <SCORE.INTRA.VDW>
1.89904

>  <SCORE.INTRA.VDW.0>
-2.1303

>  <SCORE.INTRA.norm>
0.277723

>  <SCORE.RESTR>
0

>  <SCORE.RESTR.CAVITY>
0

>  <SCORE.RESTR.norm>
0

>  <SCORE.SYSTEM>
0

>  <SCORE.SYSTEM.CONST>
0

>  <SCORE.SYSTEM.DIHEDRAL>
0

>  <SCORE.SYSTEM.SOLV>
0

>  <SCORE.SYSTEM.norm>
0

>  <SCORE.heavy>
22

>  <SCORE.norm>
0.548804

>  <RMSD>
17.173

$$$$
ligand
 OpenBabel11021811443D
libRbt.so/2013.1/901 2013/11/27
 22 23  0  0  0  0  0  0  0  0999 V2000
   37.6593   27.6347   59.1287 C   0  0  0  0  0  0  0  0  0  0  0  0
   34.1941   33.3986   60.7638 C   0  0  0  0  0  0  0  0  0  0  0  0
   33.0024   35.3069   55.0174 P   0  0  1  0  0  0  0  0  0  0  0  0
   37.7933   29.1062   61.0102 N   0  0  0  0  0  0  0  0  0  0  0  0
   32.1964   36.5255   54.7500 O   0  0  0  0  0  0  0  0  0  0  0  0
   36.7452   35.9554   58.9857 S   0  0  0  0  0  0  0  0  0  0  0  0
   37.4765   34.8064   59.9694 C   0  0  0  0  0  0  0  0  0  0  0  0
   37.5405   28.9917   59.6603 C   0  0  0  0  0  0  0  0  0  0  0  0
   32.1940   34.0974   55.3193 O   0  5  0  0  0  0  0  0  0  0  0  0
   36.6378   33.9384   60.5745 N   0  0  0  0  0  0  0  0  0  0  0  0
   37.2323   30.0015   58.8914 N   0  0  0  0  0  0  0  0  0  0  0  0
   34.0065   35.0932   53.9267 O   0  0  0  0  0  0  0  0  0  0  0  0
   35.3196   34.2258   60.2157 C   0  0  2  0  0  0  0  0  0  0  0  0
   37.1264   31.2796   59.4303 C   0  0  0  0  0  0  0  0  0  0  0  0
   36.8300   32.2982   58.6286 N   0  0  0  0  0  0  0  0  0  0  0  0
   35.1761   35.2936   59.3616 C   0  0  1  0  0  0  0  0  0  0  0  0
   37.3393   31.4680   60.8559 C   0  0  0  0  0  0  0  0  0  0  0  0
   33.9171   35.8607   58.8115 C   0  0  0  0  0  0  0  0  0  0  0  0
   37.6971   30.3402   61.5669 C   0  0  0  0  0  0  0  0  0  0  0  0
   33.4306   35.0720   57.6541 C   0  0  0  0  0  0  0  0  0  0  0  0
   37.1196   32.8162   61.5151 C   0  0  0  0  0  0  0  0  0  0  0  0
   33.8034   35.5324   56.3547 O   0  0  0  0  0  0  0  0  0  0  0  0
  1  8  1  0  0  0  0
  3  5  1  6  0  0  0
  3  9  1  0  0  0  0
  3 12  2  0  0  0  0
  3 22  1  0  0  0  0
  4  8  2  0  0  0  0
  4 19  1  0  0  0  0
  6 16  1  0  0  0  0
  6  7  1  0  0  0  0
  7 10  1  0  0  0  0
  8 11  1  0  0  0  0
 10 13  1  0  0  0  0
 10 21  1  0  0  0  0
 11 14  2  0  0  0  0
 13  2  1  1  0  0  0
 13 16  1  0  0  0  0
 14 15  1  0  0  0  0
 14 17  1  0  0  0  0
 16 18  1  1  0  0  0
 17 19  2  0  0  0  0
 17 21  1  0  0  0  0
 18 20  1  0  0  0  0
 20 22  1  0  0  0  0
M  CHG  1   9  -1
M  END
>  <CHROM.1>
-94.00934703,99.76861696,1.05204301,-95.09889480,-152.58765679,97.65869626
35.47418181,33.46480565,58.43500002,0.35425568,0.98857482,-2.72518945

>  <Name>
ligand

>  <RI>
0

>  <Rbt.Current_Directory>
/home/itssahil/PROJECTS/Mol_Feturizer/New_Systems/rnas/2HOM

>  <Rbt.Executable>
rbdock ($Id: //depot/dev/client3/rdock/2013.1/src/exe/rbdock.cxx#4 $)

>  <Rbt.Library>
libRbt.so (2013.1, Build901 2013/11/27)

>  <Rbt.Parameter_File>
/export/apps/rDock/src/rDock_2013.1_src/data/scripts/dock_solv.prm

>  <Rbt.Receptor>
prm/blind_docking_80.prm

>  <SCORE>
-7.41563

>  <SCORE.INTER>
-14.2497

>  <SCORE.INTER.CONST>
1

>  <SCORE.INTER.POLAR>
0

>  <SCORE.INTER.ROT>
6

>  <SCORE.INTER.SOLV>
24.0428

>  <SCORE.INTER.VDW>
-25.1141

>  <SCORE.INTER.norm>
-0.647714

>  <SCORE.INTRA>
6.83408

>  <SCORE.INTRA.DIHEDRAL>
7.94469

>  <SCORE.INTRA.DIHEDRAL.0>
5.05013

>  <SCORE.INTRA.POLAR>
0

>  <SCORE.INTRA.POLAR.0>
0

>  <SCORE.INTRA.REPUL>
0

>  <SCORE.INTRA.REPUL.0>
0

>  <SCORE.INTRA.SOLV>
5.19759

>  <SCORE.INTRA.SOLV.lig_0>
-54.1265

>  <SCORE.INTRA.VDW>
0.262941

>  <SCORE.INTRA.VDW.0>
-2.1303

>  <SCORE.INTRA.norm>
0.31064

>  <SCORE.RESTR>
0

>  <SCORE.RESTR.CAVITY>
0

>  <SCORE.RESTR.norm>
0

>  <SCORE.SYSTEM>
0

>  <SCORE.SYSTEM.CONST>
0

>  <SCORE.SYSTEM.DIHEDRAL>
0

>  <SCORE.SYSTEM.SOLV>
0

>  <SCORE.SYSTEM.norm>
0

>  <SCORE.heavy>
22

>  <SCORE.norm>
-0.337074

>  <RMSD>
17.192

$$$$
ligand
 OpenBabel11021811443D
libRbt.so/2013.1/901 2013/11/27
 22 23  0  0  0  0  0  0  0  0999 V2000
   37.7930   27.7614   59.2059 C   0  0  0  0  0  0  0  0  0  0  0  0
   34.0843   33.0073   60.1982 C   0  0  0  0  0  0  0  0  0  0  0  0
   32.5634   35.3488   54.4437 P   0  0  1  0  0  0  0  0  0  0  0  0
   37.7671   29.2915   61.0447 N   0  0  0  0  0  0  0  0  0  0  0  0
   32.5951   36.8175   54.2241 O   0  0  0  0  0  0  0  0  0  0  0  0
   36.2990   36.1076   58.8984 S   0  0  0  0  0  0  0  0  0  0  0  0
   37.0908   35.0795   59.9655 C   0  0  0  0  0  0  0  0  0  0  0  0
   37.5910   29.1270   59.6878 C   0  0  0  0  0  0  0  0  0  0  0  0
   31.2565   34.7152   54.1307 O   0  5  0  0  0  0  0  0  0  0  0  0
   36.3652   34.0323   60.4125 N   0  0  0  0  0  0  0  0  0  0  0  0
   37.2829   30.1000   58.8728 N   0  0  0  0  0  0  0  0  0  0  0  0
   33.7216   34.6916   53.7579 O   0  0  0  0  0  0  0  0  0  0  0  0
   35.0868   34.0688   59.8525 C   0  0  2  0  0  0  0  0  0  0  0  0
   37.0967   31.3876   59.3651 C   0  0  0  0  0  0  0  0  0  0  0  0
   36.8018   32.3689   58.5176 N   0  0  0  0  0  0  0  0  0  0  0  0
   34.8601   35.1282   59.0061 C   0  0  1  0  0  0  0  0  0  0  0  0
   37.2260   31.6264   60.7932 C   0  0  0  0  0  0  0  0  0  0  0  0
   33.6110   35.4598   58.2719 C   0  0  0  0  0  0  0  0  0  0  0  0
   37.5913   30.5360   61.5567 C   0  0  0  0  0  0  0  0  0  0  0  0
   33.8292   35.4527   56.8054 C   0  0  0  0  0  0  0  0  0  0  0  0
   36.9168   32.9828   61.3976 C   0  0  0  0  0  0  0  0  0  0  0  0
   32.7190   35.0804   55.9879 O   0  0  0  0  0  0  0  0  0  0  0  0
  1  8  1  0  0  0  0
  3  5  1  6  0  0  0
  3  9  1  0  0  0  0
  3 12  2  0  0  0  0
  3 22  1  0  0  0  0
  4  8  2  0  0  0  0
  4 19  1  0  0  0  0
  6 16  1  0  0  0  0
  6  7  1  0  0  0  0
  7 10  1  0  0  0  0
  8 11  1  0  0  0  0
 10 13  1  0  0  0  0
 10 21  1  0  0  0  0
 11 14  2  0  0  0  0
 13  2  1  1  0  0  0
 13 16  1  0  0  0  0
 14 15  1  0  0  0  0
 14 17  1  0  0  0  0
 16 18  1  1  0  0  0
 17 19  2  0  0  0  0
 17 21  1  0  0  0  0
 18 20  1  0  0  0  0
 20 22  1  0  0  0  0
M  CHG  1   9  -1
M  END
>  <CHROM.1>
-106.76952164,61.45716856,4.32949327,149.17177176,162.82488559,-60.68178498
35.24696721,33.51790948,58.14426084,0.28756498,0.98206978,-2.73315178

>  <Name>
ligand

>  <RI>
0

>  <Rbt.Current_Directory>
/home/itssahil/PROJECTS/Mol_Feturizer/New_Systems/rnas/2HOM

>  <Rbt.Executable>
rbdock ($Id: //depot/dev/client3/rdock/2013.1/src/exe/rbdock.cxx#4 $)

>  <Rbt.Library>
libRbt.so (2013.1, Build901 2013/11/27)

>  <Rbt.Parameter_File>
/export/apps/rDock/src/rDock_2013.1_src/data/scripts/dock_solv.prm

>  <Rbt.Receptor>
prm/blind_docking_80.prm

>  <SCORE>
-7.89885

>  <SCORE.INTER>
-12.836

>  <SCORE.INTER.CONST>
1

>  <SCORE.INTER.POLAR>
0

>  <SCORE.INTER.ROT>
6

>  <SCORE.INTER.SOLV>
22.1317

>  <SCORE.INTER.VDW>
-23.5346

>  <SCORE.INTER.norm>
-0.583455

>  <SCORE.INTRA>
4.93716

>  <SCORE.INTRA.DIHEDRAL>
4.39076

>  <SCORE.INTRA.DIHEDRAL.0>
5.05013

>  <SCORE.INTRA.POLAR>
0

>  <SCORE.INTRA.POLAR.0>
0

>  <SCORE.INTRA.REPUL>
0

>  <SCORE.INTRA.REPUL.0>
0

>  <SCORE.INTRA.SOLV>
5.16225

>  <SCORE.INTRA.SOLV.lig_0>
-54.1265

>  <SCORE.INTRA.VDW>
0.160656

>  <SCORE.INTRA.VDW.0>
-2.1303

>  <SCORE.INTRA.norm>
0.224416

>  <SCORE.RESTR>
0

>  <SCORE.RESTR.CAVITY>
0

>  <SCORE.RESTR.norm>
0

>  <SCORE.SYSTEM>
0

>  <SCORE.SYSTEM.CONST>
0

>  <SCORE.SYSTEM.DIHEDRAL>
0

>  <SCORE.SYSTEM.SOLV>
0

>  <SCORE.SYSTEM.norm>
0

>  <SCORE.heavy>
22

>  <SCORE.norm>
-0.359038

>  <RMSD>
17.228

$$$$
ligand
 OpenBabel11021811443D
libRbt.so/2013.1/901 2013/11/27
 22 23  0  0  0  0  0  0  0  0999 V2000
   36.3258   25.8775   58.2316 C   0  0  0  0  0  0  0  0  0  0  0  0
   35.2651   31.7188   61.8518 C   0  0  0  0  0  0  0  0  0  0  0  0
   32.8866   37.3027   60.5550 P   0  0  1  0  0  0  0  0  0  0  0  0
   36.4695   27.3410   60.1186 N   0  0  0  0  0  0  0  0  0  0  0  0
   31.7253   37.0152   61.4354 O   0  0  0  0  0  0  0  0  0  0  0  0
   36.4438   34.0528   58.7908 S   0  0  0  0  0  0  0  0  0  0  0  0
   37.4968   32.7968   59.1603 C   0  0  0  0  0  0  0  0  0  0  0  0
   36.8075   27.1363   58.7983 C   0  0  0  0  0  0  0  0  0  0  0  0
   32.8029   36.6716   59.2126 O   0  5  0  0  0  0  0  0  0  0  0  0
   37.1189   32.0014   60.1838 N   0  0  0  0  0  0  0  0  0  0  0  0
   37.5141   27.9772   58.0914 N   0  0  0  0  0  0  0  0  0  0  0  0
   33.1527   38.7759   60.5033 O   0  0  0  0  0  0  0  0  0  0  0  0
   35.8980   32.4408   60.6988 C   0  0  2  0  0  0  0  0  0  0  0  0
   37.9556   29.1666   58.6616 C   0  0  0  0  0  0  0  0  0  0  0  0
   38.6895   30.0016   57.9320 N   0  0  0  0  0  0  0  0  0  0  0  0
   35.3758   33.5487   60.0740 C   0  0  1  0  0  0  0  0  0  0  0  0
   37.6007   29.4675   60.0388 C   0  0  0  0  0  0  0  0  0  0  0  0
   34.1138   34.2668   60.3916 C   0  0  0  0  0  0  0  0  0  0  0  0
   36.8843   28.4930   60.7040 C   0  0  0  0  0  0  0  0  0  0  0  0
   34.3072   35.2336   61.4989 C   0  0  0  0  0  0  0  0  0  0  0  0
   37.9530   30.8003   60.6713 C   0  0  0  0  0  0  0  0  0  0  0  0
   34.1589   36.6182   61.1824 O   0  0  0  0  0  0  0  0  0  0  0  0
  1  8  1  0  0  0  0
  3  5  1  1  0  0  0
  3  9  1  0  0  0  0
  3 12  2  0  0  0  0
  3 22  1  0  0  0  0
  4  8  2  0  0  0  0
  4 19  1  0  0  0  0
  6 16  1  0  0  0  0
  6  7  1  0  0  0  0
  7 10  1  0  0  0  0
  8 11  1  0  0  0  0
 10 13  1  0  0  0  0
 10 21  1  0  0  0  0
 11 14  2  0  0  0  0
 13  2  1  1  0  0  0
 13 16  1  0  0  0  0
 14 15  1  0  0  0  0
 14 17  1  0  0  0  0
 16 18  1  1  0  0  0
 17 19  2  0  0  0  0
 17 21  1  0  0  0  0
 18 20  1  0  0  0  0
 20 22  1  0  0  0  0
M  CHG  1   9  -1
M  END
>  <CHROM.1>
-92.48181860,-96.25672037,72.78920291,114.50624025,57.21810651,56.45402088
35.55110726,32.73770922,59.93839329,1.05144070,-0.57282333,3.00673865

>  <Name>
ligand

>  <RI>
0

>  <Rbt.Current_Directory>
/home/itssahil/PROJECTS/Mol_Feturizer/New_Systems/rnas/2HOM

>  <Rbt.Executable>
rbdock ($Id: //depot/dev/client3/rdock/2013.1/src/exe/rbdock.cxx#4 $)

>  <Rbt.Library>
libRbt.so (2013.1, Build901 2013/11/27)

>  <Rbt.Parameter_File>
/export/apps/rDock/src/rDock_2013.1_src/data/scripts/dock_solv.prm

>  <Rbt.Receptor>
prm/blind_docking_80.prm

>  <SCORE>
-4.98271

>  <SCORE.INTER>
-8.83183

>  <SCORE.INTER.CONST>
1

>  <SCORE.INTER.POLAR>
0

>  <SCORE.INTER.ROT>
6

>  <SCORE.INTER.SOLV>
16.2849

>  <SCORE.INTER.VDW>
-18.9162

>  <SCORE.INTER.norm>
-0.401447

>  <SCORE.INTRA>
3.39071

>  <SCORE.INTRA.DIHEDRAL>
5.08002

>  <SCORE.INTRA.DIHEDRAL.0>
5.05013

>  <SCORE.INTRA.POLAR>
0

>  <SCORE.INTRA.POLAR.0>
0

>  <SCORE.INTRA.REPUL>
0

>  <SCORE.INTRA.REPUL.0>
0

>  <SCORE.INTRA.SOLV>
2.13622

>  <SCORE.INTRA.SOLV.lig_0>
-54.1265

>  <SCORE.INTRA.VDW>
-0.217413

>  <SCORE.INTRA.VDW.0>
-2.1303

>  <SCORE.INTRA.norm>
0.154123

>  <SCORE.RESTR>
0.458405

>  <SCORE.RESTR.CAVITY>
0.458405

>  <SCORE.RESTR.norm>
0.0208366

>  <SCORE.SYSTEM>
0

>  <SCORE.SYSTEM.CONST>
0

>  <SCORE.SYSTEM.DIHEDRAL>
0

>  <SCORE.SYSTEM.SOLV>
0

>  <SCORE.SYSTEM.norm>
0

>  <SCORE.heavy>
22

>  <SCORE.norm>
-0.226487

>  <RMSD>
17.250

$$$$
ligand
 OpenBabel11021811443D
libRbt.so/2013.1/901 2013/11/27
 22 23  0  0  0  0  0  0  0  0999 V2000
   38.1761   28.1659   59.8936 C   0  0  0  0  0  0  0  0  0  0  0  0
   36.2598   35.3735   57.8409 C   0  0  0  0  0  0  0  0  0  0  0  0
   32.5916   34.7175   52.6880 P   0  0  1  0  0  0  0  0  0  0  0  0
   37.8803   30.3717   59.0160 N   0  0  0  0  0  0  0  0  0  0  0  0
   31.4484   33.7983   52.9211 O   0  0  0  0  0  0  0  0  0  0  0  0
   32.5355   33.9920   58.4950 S   0  0  0  0  0  0  0  0  0  0  0  0
   33.6880   33.4450   59.5883 C   0  0  0  0  0  0  0  0  0  0  0  0
   37.5903   29.4975   60.0411 C   0  0  0  0  0  0  0  0  0  0  0  0
   33.8736   34.0294   52.3875 O   0  5  0  0  0  0  0  0  0  0  0  0
   34.9439   33.8979   59.3868 N   0  0  0  0  0  0  0  0  0  0  0  0
   36.8418   29.8043   61.0666 N   0  0  0  0  0  0  0  0  0  0  0  0
   32.2267   35.7615   51.6778 O   0  0  0  0  0  0  0  0  0  0  0  0
   34.9700   34.7415   58.2747 C   0  0  2  0  0  0  0  0  0  0  0  0
   36.3011   31.0812   61.1762 C   0  0  0  0  0  0  0  0  0  0  0  0
   35.5262   31.3694   62.2178 N   0  0  0  0  0  0  0  0  0  0  0  0
   33.7553   34.9113   57.6534 C   0  0  1  0  0  0  0  0  0  0  0  0
   36.5995   32.0682   60.1516 C   0  0  0  0  0  0  0  0  0  0  0  0
   33.4524   35.7234   56.4459 C   0  0  0  0  0  0  0  0  0  0  0  0
   37.3686   31.6263   59.0939 C   0  0  0  0  0  0  0  0  0  0  0  0
   32.9374   34.8777   55.3423 C   0  0  0  0  0  0  0  0  0  0  0  0
   36.1358   33.5064   60.2823 C   0  0  0  0  0  0  0  0  0  0  0  0
   32.9053   35.4624   54.0398 O   0  0  0  0  0  0  0  0  0  0  0  0
  1  8  1  0  0  0  0
  3  5  1  1  0  0  0
  3  9  1  0  0  0  0
  3 12  2  0  0  0  0
  3 22  1  0  0  0  0
  4  8  2  0  0  0  0
  4 19  1  0  0  0  0
  6 16  1  0  0  0  0
  6  7  1  0  0  0  0
  7 10  1  0  0  0  0
  8 11  1  0  0  0  0
 10 13  1  0  0  0  0
 10 21  1  0  0  0  0
 11 14  2  0  0  0  0
 13  2  1  6  0  0  0
 13 16  1  0  0  0  0
 14 15  1  0  0  0  0
 14 17  1  0  0  0  0
 16 18  1  6  0  0  0
 17 19  2  0  0  0  0
 17 21  1  0  0  0  0
 18 20  1  0  0  0  0
 20 22  1  0  0  0  0
M  CHG  1   9  -1
M  END
>  <CHROM.1>
70.33935409,-61.06911319,-105.09010930,-165.62887439,171.12672609,42.48010393
34.59237568,33.28604038,57.32304316,-0.73728896,0.90986821,-1.76254380

>  <Name>
ligand

>  <RI>
0

>  <Rbt.Current_Directory>
/home/itssahil/PROJECTS/Mol_Feturizer/New_Systems/rnas/2HOM

>  <Rbt.Executable>
rbdock ($Id: //depot/dev/client3/rdock/2013.1/src/exe/rbdock.cxx#4 $)

>  <Rbt.Library>
libRbt.so (2013.1, Build901 2013/11/27)

>  <Rbt.Parameter_File>
/export/apps/rDock/src/rDock_2013.1_src/data/scripts/dock_solv.prm

>  <Rbt.Receptor>
prm/blind_docking_80.prm

>  <SCORE>
-5.07738

>  <SCORE.INTER>
-6.32791

>  <SCORE.INTER.CONST>
1

>  <SCORE.INTER.POLAR>
0

>  <SCORE.INTER.ROT>
6

>  <SCORE.INTER.SOLV>
24.6835

>  <SCORE.INTER.VDW>
-20.0464

>  <SCORE.INTER.norm>
-0.287632

>  <SCORE.INTRA>
1.25052

>  <SCORE.INTRA.DIHEDRAL>
1.82217

>  <SCORE.INTRA.DIHEDRAL.0>
5.05013

>  <SCORE.INTRA.POLAR>
0

>  <SCORE.INTRA.POLAR.0>
0

>  <SCORE.INTRA.REPUL>
0

>  <SCORE.INTRA.REPUL.0>
0

>  <SCORE.INTRA.SOLV>
0.250658

>  <SCORE.INTRA.SOLV.lig_0>
-54.1265

>  <SCORE.INTRA.VDW>
0.214112

>  <SCORE.INTRA.VDW.0>
-2.1303

>  <SCORE.INTRA.norm>
0.056842

>  <SCORE.RESTR>
0

>  <SCORE.RESTR.CAVITY>
0

>  <SCORE.RESTR.norm>
0

>  <SCORE.SYSTEM>
0

>  <SCORE.SYSTEM.CONST>
0

>  <SCORE.SYSTEM.DIHEDRAL>
0

>  <SCORE.SYSTEM.SOLV>
0

>  <SCORE.SYSTEM.norm>
0

>  <SCORE.heavy>
22

>  <SCORE.norm>
-0.23079

>  <RMSD>
17.334

$$$$
ligand
 OpenBabel11021811443D
libRbt.so/2013.1/901 2013/11/27
 22 23  0  0  0  0  0  0  0  0999 V2000
   37.7925   27.0718   58.7077 C   0  0  0  0  0  0  0  0  0  0  0  0
   36.6688   35.0717   58.1584 C   0  0  0  0  0  0  0  0  0  0  0  0
   31.7333   35.9797   53.9307 P   0  0  1  0  0  0  0  0  0  0  0  0
   37.5736   29.3655   58.0641 N   0  0  0  0  0  0  0  0  0  0  0  0
   31.1447   37.2475   53.4281 O   0  0  0  0  0  0  0  0  0  0  0  0
   33.0100   33.5988   58.9652 S   0  0  0  0  0  0  0  0  0  0  0  0
   34.2784   32.7453   59.6621 C   0  0  0  0  0  0  0  0  0  0  0  0
   37.4887   28.4498   59.0906 C   0  0  0  0  0  0  0  0  0  0  0  0
   30.7326   34.9975   54.4218 O   0  5  0  0  0  0  0  0  0  0  0  0
   35.5143   33.2241   59.4043 N   0  0  0  0  0  0  0  0  0  0  0  0
   37.1511   28.7599   60.3136 N   0  0  0  0  0  0  0  0  0  0  0  0
   32.6827   35.4074   52.9233 O   0  0  0  0  0  0  0  0  0  0  0  0
   35.4236   34.3544   58.5899 C   0  0  2  0  0  0  0  0  0  0  0  0
   36.8697   30.0815   60.6440 C   0  0  0  0  0  0  0  0  0  0  0  0
   36.5096   30.3752   61.8900 N   0  0  0  0  0  0  0  0  0  0  0  0
   34.1422   34.7103   58.2412 C   0  0  1  0  0  0  0  0  0  0  0  0
   36.9795   31.1074   59.6201 C   0  0  0  0  0  0  0  0  0  0  0  0
   33.7109   35.8416   57.3791 C   0  0  0  0  0  0  0  0  0  0  0  0
   37.3061   30.6640   58.3543 C   0  0  0  0  0  0  0  0  0  0  0  0
   33.2549   35.3647   56.0513 C   0  0  0  0  0  0  0  0  0  0  0  0
   36.8012   32.5765   59.9525 C   0  0  0  0  0  0  0  0  0  0  0  0
   32.5658   36.3058   55.2274 O   0  0  0  0  0  0  0  0  0  0  0  0
  1  8  1  0  0  0  0
  3  5  1  6  0  0  0
  3  9  1  0  0  0  0
  3 12  2  0  0  0  0
  3 22  1  0  0  0  0
  4  8  2  0  0  0  0
  4 19  1  0  0  0  0
  6 16  1  0  0  0  0
  6  7  1  0  0  0  0
  7 10  1  0  0  0  0
  8 11  1  0  0  0  0
 10 13  1  0  0  0  0
 10 21  1  0  0  0  0
 11 14  2  0  0  0  0
 13  2  1  6  0  0  0
 13 16  1  0  0  0  0
 14 15  1  0  0  0  0
 14 17  1  0  0  0  0
 16 18  1  6  0  0  0
 17 19  2  0  0  0  0
 17 21  1  0  0  0  0
 18 20  1  0  0  0  0
 20 22  1  0  0  0  0
M  CHG  1   9  -1
M  END
>  <CHROM.1>
55.58195919,-73.08980233,-109.81150840,167.74061422,-166.44393056,177.61212214
34.59702829,33.18053552,57.58516920,-0.11537209,1.00824982,-2.13368768

>  <Name>
ligand

>  <RI>
0

>  <Rbt.Current_Directory>
/home/itssahil/PROJECTS/Mol_Feturizer/New_Systems/rnas/2HOM

>  <Rbt.Executable>
rbdock ($Id: //depot/dev/client3/rdock/2013.1/src/exe/rbdock.cxx#4 $)

>  <Rbt.Library>
libRbt.so (2013.1, Build901 2013/11/27)

>  <Rbt.Parameter_File>
/export/apps/rDock/src/rDock_2013.1_src/data/scripts/dock_solv.prm

>  <Rbt.Receptor>
prm/blind_docking_80.prm

>  <SCORE>
-2.74189

>  <SCORE.INTER>
-4.28534

>  <SCORE.INTER.CONST>
1

>  <SCORE.INTER.POLAR>
0

>  <SCORE.INTER.ROT>
6

>  <SCORE.INTER.SOLV>
23.4668

>  <SCORE.INTER.VDW>
-18.2792

>  <SCORE.INTER.norm>
-0.194788

>  <SCORE.INTRA>
1.33077

>  <SCORE.INTRA.DIHEDRAL>
1.52207

>  <SCORE.INTRA.DIHEDRAL.0>
5.05013

>  <SCORE.INTRA.POLAR>
0

>  <SCORE.INTRA.POLAR.0>
0

>  <SCORE.INTRA.REPUL>
0

>  <SCORE.INTRA.REPUL.0>
0

>  <SCORE.INTRA.SOLV>
0.725303

>  <SCORE.INTRA.SOLV.lig_0>
-54.1265

>  <SCORE.INTRA.VDW>
0.20708

>  <SCORE.INTRA.VDW.0>
-2.1303

>  <SCORE.INTRA.norm>
0.0604894

>  <SCORE.RESTR>
0.212675

>  <SCORE.RESTR.CAVITY>
0.212675

>  <SCORE.RESTR.norm>
0.00966703

>  <SCORE.SYSTEM>
0

>  <SCORE.SYSTEM.CONST>
0

>  <SCORE.SYSTEM.DIHEDRAL>
0

>  <SCORE.SYSTEM.SOLV>
0

>  <SCORE.SYSTEM.norm>
0

>  <SCORE.heavy>
22

>  <SCORE.norm>
-0.124632

>  <RMSD>
17.485

$$$$
ligand
 OpenBabel11021811443D
libRbt.so/2013.1/901 2013/11/27
 22 23  0  0  0  0  0  0  0  0999 V2000
   37.8822   27.6258   57.8950 C   0  0  0  0  0  0  0  0  0  0  0  0
   34.2725   33.1168   59.9896 C   0  0  0  0  0  0  0  0  0  0  0  0
   32.3700   35.7461   54.5635 P   0  0  1  0  0  0  0  0  0  0  0  0
   37.2521   29.9321   57.9796 N   0  0  0  0  0  0  0  0  0  0  0  0
   31.7119   36.9600   54.0162 O   0  0  0  0  0  0  0  0  0  0  0  0
   36.7703   35.8691   58.4426 S   0  0  0  0  0  0  0  0  0  0  0  0
   37.5227   34.6688   59.3459 C   0  0  0  0  0  0  0  0  0  0  0  0
   37.6950   28.8380   58.6909 C   0  0  0  0  0  0  0  0  0  0  0  0
   31.4447   34.6089   54.8042 O   0  5  0  0  0  0  0  0  0  0  0  0
   36.7021   33.7350   59.8729 N   0  0  0  0  0  0  0  0  0  0  0  0
   37.9225   28.8521   59.9770 N   0  0  0  0  0  0  0  0  0  0  0  0
   33.5614   35.3772   53.7339 O   0  0  0  0  0  0  0  0  0  0  0  0
   35.3803   34.0132   59.5200 C   0  0  2  0  0  0  0  0  0  0  0  0
   37.7353   30.0232   60.7040 C   0  0  0  0  0  0  0  0  0  0  0  0
   37.9540   30.0134   62.0156 N   0  0  0  0  0  0  0  0  0  0  0  0
   35.2163   35.1386   58.7474 C   0  0  1  0  0  0  0  0  0  0  0  0
   37.3087   31.2277   60.0110 C   0  0  0  0  0  0  0  0  0  0  0  0
   33.9479   35.7117   58.2258 C   0  0  0  0  0  0  0  0  0  0  0  0
   37.0607   31.0907   58.6600 C   0  0  0  0  0  0  0  0  0  0  0  0
   33.6577   35.2224   56.8566 C   0  0  0  0  0  0  0  0  0  0  0  0
   37.2049   32.5581   60.7320 C   0  0  0  0  0  0  0  0  0  0  0  0
   32.8923   36.0818   56.0110 O   0  0  0  0  0  0  0  0  0  0  0  0
  1  8  1  0  0  0  0
  3  5  1  6  0  0  0
  3  9  1  0  0  0  0
  3 12  2  0  0  0  0
  3 22  1  0  0  0  0
  4  8  2  0  0  0  0
  4 19  1  0  0  0  0
  6 16  1  0  0  0  0
  6  7  1  0  0  0  0
  7 10  1  0  0  0  0
  8 11  1  0  0  0  0
 10 13  1  0  0  0  0
 10 21  1  0  0  0  0
 11 14  2  0  0  0  0
 13  2  1  1  0  0  0
 13 16  1  0  0  0  0
 14 15  1  0  0  0  0
 14 17  1  0  0  0  0
 16 18  1  1  0  0  0
 17 19  2  0  0  0  0
 17 21  1  0  0  0  0
 18 20  1  0  0  0  0
 20 22  1  0  0  0  0
M  CHG  1   9  -1
M  END
>  <CHROM.1>
-101.10553120,86.76713985,-178.39907545,-151.88210627,-175.27957521,-175.74228066
35.38805441,33.39135091,57.91960406,0.40400470,0.92861496,-2.74619634

>  <Name>
ligand

>  <RI>
0

>  <Rbt.Current_Directory>
/home/itssahil/PROJECTS/Mol_Feturizer/New_Systems/rnas/2HOM

>  <Rbt.Executable>
rbdock ($Id: //depot/dev/client3/rdock/2013.1/src/exe/rbdock.cxx#4 $)

>  <Rbt.Library>
libRbt.so (2013.1, Build901 2013/11/27)

>  <Rbt.Parameter_File>
/export/apps/rDock/src/rDock_2013.1_src/data/scripts/dock_solv.prm

>  <Rbt.Receptor>
prm/blind_docking_80.prm

>  <SCORE>
-7.53255

>  <SCORE.INTER>
-9.69962

>  <SCORE.INTER.CONST>
1

>  <SCORE.INTER.POLAR>
0

>  <SCORE.INTER.ROT>
6

>  <SCORE.INTER.SOLV>
24.7569

>  <SCORE.INTER.VDW>
-22.3187

>  <SCORE.INTER.norm>
-0.440892

>  <SCORE.INTRA>
1.51804

>  <SCORE.INTRA.DIHEDRAL>
2.49824

>  <SCORE.INTRA.DIHEDRAL.0>
5.05013

>  <SCORE.INTRA.POLAR>
0

>  <SCORE.INTRA.POLAR.0>
0

>  <SCORE.INTRA.REPUL>
0

>  <SCORE.INTRA.REPUL.0>
0

>  <SCORE.INTRA.SOLV>
0.564779

>  <SCORE.INTRA.SOLV.lig_0>
-54.1265

>  <SCORE.INTRA.VDW>
-0.0134698

>  <SCORE.INTRA.VDW.0>
-2.1303

>  <SCORE.INTRA.norm>
0.0690017

>  <SCORE.RESTR>
0.649025

>  <SCORE.RESTR.CAVITY>
0.649025

>  <SCORE.RESTR.norm>
0.0295011

>  <SCORE.SYSTEM>
0

>  <SCORE.SYSTEM.CONST>
0

>  <SCORE.SYSTEM.DIHEDRAL>
0

>  <SCORE.SYSTEM.SOLV>
0

>  <SCORE.SYSTEM.norm>
0

>  <SCORE.heavy>
22

>  <SCORE.norm>
-0.342389

>  <RMSD>
17.623

$$$$
ligand
 OpenBabel11021811443D
libRbt.so/2013.1/901 2013/11/27
 22 23  0  0  0  0  0  0  0  0999 V2000
   37.8656   27.1857   58.2107 C   0  0  0  0  0  0  0  0  0  0  0  0
   34.3093   32.7686   60.0701 C   0  0  0  0  0  0  0  0  0  0  0  0
   32.4705   34.7645   54.2832 P   0  0  1  0  0  0  0  0  0  0  0  0
   37.3322   29.5101   58.0217 N   0  0  0  0  0  0  0  0  0  0  0  0
   33.7784   34.6300   53.5921 O   0  0  0  0  0  0  0  0  0  0  0  0
   36.4163   35.4260   57.9010 S   0  0  0  0  0  0  0  0  0  0  0  0
   37.3500   34.3742   58.8199 C   0  0  0  0  0  0  0  0  0  0  0  0
   37.7140   28.4863   58.8614 C   0  0  0  0  0  0  0  0  0  0  0  0
   31.8645   36.1170   54.1798 O   0  5  0  0  0  0  0  0  0  0  0  0
   36.6620   33.4740   59.5542 N   0  0  0  0  0  0  0  0  0  0  0  0
   37.9163   28.6361   60.1431 N   0  0  0  0  0  0  0  0  0  0  0  0
   31.5428   33.6644   53.8674 O   0  0  0  0  0  0  0  0  0  0  0  0
   35.2913   33.6510   59.3571 C   0  0  2  0  0  0  0  0  0  0  0  0
   37.7644   29.8881   60.7298 C   0  0  0  0  0  0  0  0  0  0  0  0
   37.9563   30.0175   62.0393 N   0  0  0  0  0  0  0  0  0  0  0  0
   34.9614   34.6695   58.4945 C   0  0  1  0  0  0  0  0  0  0  0  0
   37.4031   31.0229   59.8963 C   0  0  0  0  0  0  0  0  0  0  0  0
   33.6041   35.1216   58.0912 C   0  0  0  0  0  0  0  0  0  0  0  0
   37.1766   30.7447   58.5634 C   0  0  0  0  0  0  0  0  0  0  0  0
   33.5490   35.4387   56.6439 C   0  0  0  0  0  0  0  0  0  0  0  0
   37.3415   32.4292   60.4613 C   0  0  0  0  0  0  0  0  0  0  0  0
   32.7160   34.6108   55.8314 O   0  0  0  0  0  0  0  0  0  0  0  0
  1  8  1  0  0  0  0
  3  5  1  6  0  0  0
  3  9  1  0  0  0  0
  3 12  2  0  0  0  0
  3 22  1  0  0  0  0
  4  8  2  0  0  0  0
  4 19  1  0  0  0  0
  6 16  1  0  0  0  0
  6  7  1  0  0  0  0
  7 10  1  0  0  0  0
  8 11  1  0  0  0  0
 10 13  1  0  0  0  0
 10 21  1  0  0  0  0
 11 14  2  0  0  0  0
 13  2  1  1  0  0  0
 13 16  1  0  0  0  0
 14 15  1  0  0  0  0
 14 17  1  0  0  0  0
 16 18  1  1  0  0  0
 17 19  2  0  0  0  0
 17 21  1  0  0  0  0
 18 20  1  0  0  0  0
 20 22  1  0  0  0  0
M  CHG  1   9  -1
M  END
>  <CHROM.1>
-102.28760506,41.36092967,-167.50543874,114.61256276,178.65794786,60.10349060
35.35771436,32.90170812,57.74576296,0.32542355,0.93913834,-2.72645949

>  <Name>
ligand

>  <RI>
0

>  <Rbt.Current_Directory>
/home/itssahil/PROJECTS/Mol_Feturizer/New_Systems/rnas/2HOM

>  <Rbt.Executable>
rbdock ($Id: //depot/dev/client3/rdock/2013.1/src/exe/rbdock.cxx#4 $)

>  <Rbt.Library>
libRbt.so (2013.1, Build901 2013/11/27)

>  <Rbt.Parameter_File>
/export/apps/rDock/src/rDock_2013.1_src/data/scripts/dock_solv.prm

>  <Rbt.Receptor>
prm/blind_docking_80.prm

>  <SCORE>
-7.03615

>  <SCORE.INTER>
-10.5196

>  <SCORE.INTER.CONST>
1

>  <SCORE.INTER.POLAR>
0

>  <SCORE.INTER.ROT>
6

>  <SCORE.INTER.SOLV>
24.1709

>  <SCORE.INTER.VDW>
-22.67

>  <SCORE.INTER.norm>
-0.478164

>  <SCORE.INTRA>
3.05252

>  <SCORE.INTRA.DIHEDRAL>
5.2959

>  <SCORE.INTRA.DIHEDRAL.0>
5.05013

>  <SCORE.INTRA.POLAR>
0

>  <SCORE.INTRA.POLAR.0>
0

>  <SCORE.INTRA.REPUL>
0

>  <SCORE.INTRA.REPUL.0>
0

>  <SCORE.INTRA.SOLV>
0.020736

>  <SCORE.INTRA.SOLV.lig_0>
-54.1265

>  <SCORE.INTRA.VDW>
0.394204

>  <SCORE.INTRA.VDW.0>
-2.1303

>  <SCORE.INTRA.norm>
0.138751

>  <SCORE.RESTR>
0.430934

>  <SCORE.RESTR.CAVITY>
0.430934

>  <SCORE.RESTR.norm>
0.0195879

>  <SCORE.SYSTEM>
0

>  <SCORE.SYSTEM.CONST>
0

>  <SCORE.SYSTEM.DIHEDRAL>
0

>  <SCORE.SYSTEM.SOLV>
0

>  <SCORE.SYSTEM.norm>
0

>  <SCORE.heavy>
22

>  <SCORE.norm>
-0.319825

>  <RMSD>
17.839

$$$$
