@<TRIPOS>MOLECULE
2HOM_rdock.pdb
 1692 1891 0 0 0
SMALL
GASTEIGER

@<TRIPOS>ATOM
      1  C5'       36.6140   38.7780   40.2800 C.3     9  G9          0.0000
      2  O5'       36.1010   37.4410   40.2990 O.3     9  G9          0.0000
      3  C4'       35.7490   39.8030   39.5700 C.3     9  G9          0.0000
      4  O4'       35.7610   39.5570   38.1360 O.3     9  G9          0.0000
      5  C3'       34.2710   39.8100   39.9200 C.3     9  G9          0.0000
      6  O3'       34.0060   40.5380   41.1090 O.3     9  G9          0.0000
      7  C2'       33.6920   40.5340   38.7220 C.3     9  G9          0.0000
      8  O2'       33.9860   41.9110   38.8070 O.3     9  G9          0.0000
      9  C1'       34.4980   39.9010   37.5870 C.3     9  G9          0.0000
     10  N1        30.9800   38.0150   34.4570 N.ar    9  G9          0.0000
     11  C2        31.2990   39.3230   34.7330 C.ar    9  G9          0.0000
     12  N2        30.5850   40.2620   34.0780 N.pl3   9  G9          0.0000
     13  N3        32.2450   39.6910   35.5840 N.ar    9  G9          0.0000
     14  C4        32.8580   38.6310   36.1430 C.ar    9  G9          0.0000
     15  C5        32.6220   37.2880   35.9340 C.ar    9  G9          0.0000
     16  C6        31.6000   36.9060   35.0200 C.ar    9  G9          0.0000
     17  O6        31.2290   35.7650   34.7000 O.2     9  G9          0.0000
     18  N7        33.4780   36.5110   36.7020 N.ar    9  G9          0.0000
     19  C8        34.2000   37.3810   37.3580 C.ar    9  G9          0.0000
     20  N9        33.8800   38.6860   37.0570 N.ar    9  G9          0.0000
     21  P         32.7950   40.0770   42.0720 P.3    10  C10         0.0000
     22  C5'       31.3680   42.0900   41.1640 C.3    10  C10         0.0000
     23  O5'       31.4920   40.6860   41.3730 O.3    10  C10         0.0000
     24  C4'       30.2570   42.3900   40.1810 C.3    10  C10         0.0000
     25  O4'       30.5890   41.8440   38.8750 O.3    10  C10         0.0000
     26  C3'       28.9020   41.7730   40.4750 C.3    10  C10         0.0000
     27  O3'       28.1430   42.4980   41.4160 O.3    10  C10         0.0000
     28  C2'       28.2420   41.8420   39.1140 C.3    10  C10         0.0000
     29  O2'       27.8760   43.1700   38.8120 O.3    10  C10         0.0000
     30  C1'       29.4010   41.4260   38.2180 C.3    10  C10         0.0000
     31  N1        29.4470   39.9690   38.0570 N.ar   10  C10         0.0000
     32  C2        28.6780   39.3940   37.0590 C.ar   10  C10         0.0000
     33  O2        27.9710   40.1300   36.3540 O.2    10  C10         0.0000
     34  N3        28.7220   38.0520   36.8790 N.ar   10  C10         0.0000
     35  C4        29.4930   37.3000   37.6610 C.ar   10  C10         0.0000
     36  N4        29.5030   35.9870   37.4420 N.pl3  10  C10         0.0000
     37  C5        30.2830   37.8610   38.6970 C.ar   10  C10         0.0000
     38  C6        30.2300   39.1880   38.8610 C.ar   10  C10         0.0000
     39  OP1       32.9940   40.7630   43.3810 O.3    10  C10        -0.5000
     40  OP2       32.7040   38.5800   42.0290 O.co2  10  C10        -0.5000
     41  P         27.1100   41.7010   42.3410 P.3    11  G11         0.0000
     42  C5'       25.2180   42.2190   40.6120 C.3    11  G11         0.0000
     43  O5'       25.9640   41.2530   41.3270 O.3    11  G11         0.0000
     44  C4'       24.3180   41.5480   39.6060 C.3    11  G11         0.0000
     45  O4'       25.1150   40.8080   38.6440 O.3    11  G11         0.0000
     46  C3'       23.3580   40.5080   40.1470 C.3    11  G11         0.0000
     47  O3'       22.1990   41.1390   40.6650 O.3    11  G11         0.0000
     48  C2'       23.0240   39.7270   38.8870 C.3    11  G11         0.0000
     49  O2'       22.1360   40.4450   38.0750 O.3    11  G11         0.0000
     50  C1'       24.3790   39.6880   38.1870 C.3    11  G11         0.0000
     51  N1        24.9430   34.7820   37.2350 N.ar   11  G11         0.0000
     52  C2        24.0340   35.6870   36.7340 C.ar   11  G11         0.0000
     53  N2        23.1570   35.2330   35.8290 N.pl3  11  G11         0.0000
     54  N3        23.9830   36.9470   37.0870 N.ar   11  G11         0.0000
     55  C4        24.9240   37.2530   37.9820 C.ar   11  G11         0.0000
     56  C5        25.8730   36.4380   38.5520 C.ar   11  G11         0.0000
     57  C6        25.9180   35.0780   38.1780 C.ar   11  G11         0.0000
     58  O6        26.6810   34.1930   38.5810 O.2    11  G11         0.0000
     59  N7        26.6630   37.1520   39.4390 N.ar   11  G11         0.0000
     60  C8        26.1830   38.3630   39.3850 C.ar   11  G11         0.0000
     61  N9        25.1320   38.4860   38.5100 N.ar   11  G11         0.0000
     62  OP1       26.5340   42.6090   43.3830 O.3    11  G11        -0.5000
     63  OP2       27.8400   40.4690   42.7580 O.co2  11  G11        -0.5000
     64  P         21.3410   40.4070   41.8080 P.3    12  A12         0.0000
     65  C5'       19.5960   39.5980   40.0270 C.3    12  A12         0.0000
     66  O5'       20.5440   39.2640   41.0300 O.3    12  A12         0.0000
     67  C4'       19.3300   38.4080   39.1370 C.3    12  A12         0.0000
     68  O4'       20.5880   37.9210   38.6140 O.3    12  A12         0.0000
     69  C3'       18.7350   37.1820   39.7990 C.3    12  A12         0.0000
     70  O3'       17.3240   37.3310   39.9030 O.3    12  A12         0.0000
     71  C2'       19.1060   36.0890   38.8070 C.3    12  A12         0.0000
     72  O2'       18.2950   36.0980   37.6520 O.3    12  A12         0.0000
     73  C1'       20.5030   36.5280   38.3890 C.3    12  A12         0.0000
     74  N1        23.1970   32.2190   39.1640 N.ar   12  A12         0.0000
     75  C2        22.1870   32.5050   38.3360 C.ar   12  A12         0.0000
     76  N3        21.5170   33.6430   38.1870 N.ar   12  A12         0.0000
     77  C4        21.9890   34.5810   39.0230 C.ar   12  A12         0.0000
     78  C5        23.0130   34.4350   39.9320 C.ar   12  A12         0.0000
     79  C6        23.6360   33.1840   39.9950 C.ar   12  A12         0.0000
     80  N6        24.6340   32.9040   40.8300 N.pl3  12  A12         0.0000
     81  N7        23.2250   35.6170   40.6260 N.ar   12  A12         0.0000
     82  C8        22.3390   36.4370   40.1240 C.ar   12  A12         0.0000
     83  N9        21.5620   35.8790   39.1480 N.ar   12  A12         0.0000
     84  OP1       20.3630   41.3930   42.3320 O.2    12  A12        -0.5000
     85  OP2       22.2960   39.7570   42.7420 O.co2  12  A12        -0.5000
     86  P         16.5510   36.7460   41.1860 P.3    13  C13         0.0000
     87  C5'       15.5710   34.8250   39.6950 C.3    13  C13         0.0000
     88  O5'       16.3270   35.2080   40.8340 O.3    13  C13         0.0000
     89  C4'       15.8790   33.4010   39.3330 C.3    13  C13         0.0000
     90  O4'       17.2920   33.2930   39.0420 O.3    13  C13         0.0000
     91  C3'       15.6980   32.3910   40.4450 C.3    13  C13         0.0000
     92  O3'       14.3390   32.0050   40.5510 O.3    13  C13         0.0000
     93  C2'       16.5570   31.2390   39.9520 C.3    13  C13         0.0000
     94  O2'       15.9410   30.5450   38.8920 O.3    13  C13         0.0000
     95  C1'       17.7490   31.9890   39.3670 C.3    13  C13         0.0000
     96  N1        18.8920   32.0920   40.2860 N.ar   13  C13         0.0000
     97  C2        19.7680   31.0010   40.3990 C.ar   13  C13         0.0000
     98  O2        19.5710   29.9900   39.7160 O.2    13  C13         0.0000
     99  N3        20.8080   31.0780   41.2480 N.ar   13  C13         0.0000
    100  C4        21.0000   32.1830   41.9680 C.ar   13  C13         0.0000
    101  N4        22.0400   32.2030   42.8030 N.pl3  13  C13         0.0000
    102  C5        20.1330   33.3100   41.8670 C.ar   13  C13         0.0000
    103  C6        19.1010   33.2210   41.0220 C.ar   13  C13         0.0000
    104  OP1       15.2270   37.4170   41.2150 O.2    13  C13        -0.5000
    105  OP2       17.4450   36.8360   42.3750 O.co2  13  C13        -0.5000
    106  P         13.7370   31.6140   41.9860 P.3    14  U14         0.0000
    107  C5'       13.8340   29.0590   41.4190 C.3    14  U14         0.0000
    108  O5'       14.2620   30.1330   42.2390 O.3    14  U14         0.0000
    109  C4'       14.7080   27.8530   41.6540 C.3    14  U14         0.0000
    110  O4'       16.0730   28.1890   41.3020 O.3    14  U14         0.0000
    111  C3'       14.8490   27.3790   43.0880 C.3    14  U14         0.0000
    112  O3'       13.7440   26.5880   43.5050 O.3    14  U14         0.0000
    113  C2'       16.1140   26.5430   43.0000 C.3    14  U14         0.0000
    114  O2'       15.8710   25.3040   42.3810 O.3    14  U14         0.0000
    115  C1'       16.9640   27.3940   42.0610 C.3    14  U14         0.0000
    116  N1        17.9070   28.2730   42.7680 N.ar   14  U14         0.0000
    117  C2        19.0790   27.6950   43.2170 C.ar   14  U14         0.0000
    118  O2        19.3380   26.5120   43.0440 O.2    14  U14         0.0000
    119  N3        19.9370   28.5460   43.8720 N.ar   14  U14         0.0000
    120  C4        19.7510   29.8920   44.1160 C.ar   14  U14         0.0000
    121  O4        20.6290   30.5260   44.7110 O.2    14  U14         0.0000
    122  C5        18.5100   30.4230   43.6190 C.ar   14  U14         0.0000
    123  C6        17.6500   29.6130   42.9780 C.ar   14  U14         0.0000
    124  OP1       12.2600   31.5960   41.8480 O.2    14  U14        -0.5000
    125  OP2       14.3780   32.4690   43.0250 O.co2  14  U14        -0.5000
    126  P         13.2920   26.6110   45.0520 P.3    15  C15         0.0000
    127  C5'       14.6890   24.4340   45.5580 C.3    15  C15         0.0000
    128  O5'       14.4590   25.8210   45.8110 O.3    15  C15         0.0000
    129  C4'       16.0440   24.0110   46.0830 C.3    15  C15         0.0000
    130  O4'       17.0800   24.7780   45.4110 O.3    15  C15         0.0000
    131  C3'       16.3250   24.2530   47.5590 C.3    15  C15         0.0000
    132  O3'       15.7980   23.2320   48.3980 O.3    15  C15         0.0000
    133  C2'       17.8470   24.2430   47.5880 C.3    15  C15         0.0000
    134  O2'       18.3860   22.9400   47.5490 O.3    15  C15         0.0000
    135  C1'       18.1690   24.9980   46.2990 C.3    15  C15         0.0000
    136  N1        18.2550   26.4360   46.5730 N.ar   15  C15         0.0000
    137  C2        19.4300   26.9450   47.1170 C.ar   15  C15         0.0000
    138  O2        20.3810   26.1800   47.3080 O.2    15  C15         0.0000
    139  N3        19.5020   28.2550   47.4240 N.ar   15  C15         0.0000
    140  C4        18.4540   29.0480   47.2010 C.ar   15  C15         0.0000
    141  N4        18.5620   30.3380   47.5320 N.pl3  15  C15         0.0000
    142  C5        17.2480   28.5570   46.6310 C.ar   15  C15         0.0000
    143  C6        17.1950   27.2590   46.3280 C.ar   15  C15         0.0000
    144  OP1       12.0350   25.8210   45.1820 O.2    15  C15        -0.5000
    145  OP2       13.3090   28.0390   45.4940 O.co2  15  C15        -0.5000
    146  P         15.3890   23.5850   49.9160 P.3    16  G16         0.0000
    147  C5'       17.7520   23.0160   50.8660 C.3    16  G16         0.0000
    148  O5'       16.7610   23.9970   50.6110 O.3    16  G16         0.0000
    149  C4'       19.0480   23.6650   51.2910 C.3    16  G16         0.0000
    150  O4'       19.4240   24.6810   50.3210 O.3    16  G16         0.0000
    151  C3'       19.0680   24.4460   52.5930 C.3    16  G16         0.0000
    152  O3'       19.1510   23.5970   53.7290 O.3    16  G16         0.0000
    153  C2'       20.3500   25.2440   52.4170 C.3    16  G16         0.0000
    154  O2'       21.5030   24.4310   52.5090 O.3    16  G16         0.0000
    155  C1'       20.2120   25.6740   50.9640 C.3    16  G16         0.0000
    156  N1        20.6390   30.6860   51.6150 N.ar   16  G16         0.0000
    157  C2        21.5070   29.6850   51.9680 C.ar   16  G16         0.0000
    158  N2        22.6520   30.0720   52.5610 N.pl3  16  G16         0.0000
    159  N3        21.2740   28.3980   51.7600 N.ar   16  G16         0.0000
    160  C4        20.0790   28.1900   51.1750 C.ar   16  G16         0.0000
    161  C5        19.1390   29.1180   50.7940 C.ar   16  G16         0.0000
    162  C6        19.4100   30.4970   51.0070 C.ar   16  G16         0.0000
    163  O6        18.7140   31.4740   50.7200 O.2    16  G16         0.0000
    164  N7        18.0280   28.4920   50.2400 N.ar   16  G16         0.0000
    165  C8        18.3170   27.2200   50.2830 C.ar   16  G16         0.0000
    166  N9        19.5540   26.9690   50.8210 N.ar   16  G16         0.0000
    167  OP1       14.9300   22.3120   50.5410 O.3    16  G16        -0.5000
    168  OP2       14.4870   24.7800   49.9050 O.co2  16  G16        -0.5000
    169  P         18.8140   24.1860   55.1880 P.3    17  G17         0.0000
    170  C5'       21.3090   24.6840   55.7240 C.3    17  G17         0.0000
    171  O5'       20.0100   25.1890   55.4770 O.3    17  G17         0.0000
    172  C4'       22.1690   25.7530   56.3340 C.3    17  G17         0.0000
    173  O4'       22.3970   26.8020   55.3530 O.3    17  G17         0.0000
    174  C3'       21.5520   26.4950   57.5010 C.3    17  G17         0.0000
    175  O3'       21.6870   25.7720   58.7120 O.3    17  G17         0.0000
    176  C2'       22.3760   27.7730   57.4930 C.3    17  G17         0.0000
    177  O2'       23.7030   27.5430   57.9400 O.3    17  G17         0.0000
    178  C1'       22.4120   28.0710   55.9960 C.3    17  G17         0.0000
    179  N1        20.2490   32.6600   55.4790 N.ar   17  G17         0.0000
    180  C2        21.4480   32.3250   56.0530 C.ar   17  G17         0.0000
    181  N2        22.1560   33.3300   56.5500 N.pl3  17  G17         0.0000
    182  N3        21.9150   31.0860   56.1360 N.ar   17  G17         0.0000
    183  C4        21.0670   30.1890   55.5890 C.ar   17  G17         0.0000
    184  C5        19.8480   30.4190   54.9920 C.ar   17  G17         0.0000
    185  C6        19.3620   31.7540   54.9090 C.ar   17  G17         0.0000
    186  O6        18.3060   32.1570   54.4180 O.2    17  G17         0.0000
    187  N7        19.2820   29.2310   54.5600 N.ar   17  G17         0.0000
    188  C8        20.1500   28.3160   54.8930 C.ar   17  G17         0.0000
    189  N9        21.2580   28.8270   55.5160 N.ar   17  G17         0.0000
    190  OP1       18.9690   23.0810   56.1640 O.3    17  G17        -0.5000
    191  OP2       17.5230   24.9370   55.1060 O.co2  17  G17        -0.5000
    192  P         20.9550   26.3120   60.0310 P.3    18  G18         0.0000
    193  C5'       21.1210   28.6260   61.1830 C.3    18  G18         0.0000
    194  O5'       21.6690   27.7090   60.2700 O.3    18  G18         0.0000
    195  C4'       21.8210   29.9450   61.0920 C.3    18  G18         0.0000
    196  O4'       21.8040   30.4500   59.7330 O.3    18  G18         0.0000
    197  C3'       21.0820   30.9810   61.9070 C.3    18  G18         0.0000
    198  O3'       21.5800   30.8920   63.2310 O.3    18  G18         0.0000
    199  C2'       21.4460   32.2770   61.1900 C.3    18  G18         0.0000
    200  O2'       22.7510   32.7200   61.5120 O.3    18  G18         0.0000
    201  C1'       21.4340   31.8180   59.7320 C.3    18  G18         0.0000
    202  N1        17.9320   34.7710   57.4850 N.ar   18  G18         0.0000
    203  C2        19.0850   35.1450   58.1190 C.ar   18  G18         0.0000
    204  N2        19.3460   36.4530   58.1250 N.pl3  18  G18         0.0000
    205  N3        19.9200   34.2940   58.7040 N.ar   18  G18         0.0000
    206  C4        19.4970   33.0200   58.5930 C.ar   18  G18         0.0000
    207  C5        18.3600   32.5470   57.9760 C.ar   18  G18         0.0000
    208  C6        17.4790   33.4630   57.3600 C.ar   18  G18         0.0000
    209  O6        16.4230   33.2280   56.7630 O.2    18  G18         0.0000
    210  N7        18.2840   31.1690   58.0790 N.ar   18  G18         0.0000
    211  C8        19.3520   30.8330   58.7440 C.ar   18  G18         0.0000
    212  N9        20.1430   31.9000   59.0660 N.ar   18  G18         0.0000
    213  OP1       21.2930   25.4530   61.1980 O.3    18  G18        -0.5000
    214  OP2       19.5290   26.5720   59.7010 O.co2  18  G18        -0.5000
    215  P         20.6190   30.4060   64.4150 P.3    19  G19         0.0000
    216  C5'       21.5300   32.6590   65.3990 C.3    19  G19         0.0000
    217  O5'       20.4490   31.7340   65.2690 O.3    19  G19         0.0000
    218  C4'       21.0100   34.0670   65.2970 C.3    19  G19         0.0000
    219  O4'       20.7290   34.4040   63.9150 O.3    19  G19         0.0000
    220  C3'       19.6880   34.2880   66.0090 C.3    19  G19         0.0000
    221  O3'       19.9240   34.4960   67.3970 O.3    19  G19         0.0000
    222  C2'       19.1380   35.5220   65.2960 C.3    19  G19         0.0000
    223  O2'       19.7050   36.7260   65.7630 O.3    19  G19         0.0000
    224  C1'       19.6240   35.2940   63.8640 C.3    19  G19         0.0000
    225  N1        16.3170   36.2900   60.1350 N.ar   19  G19         0.0000
    226  C2        17.0570   37.1540   60.8860 C.ar   19  G19         0.0000
    227  N2        16.9150   38.4440   60.5790 N.pl3  19  G19         0.0000
    228  N3        17.8690   36.7810   61.8640 N.ar   19  G19         0.0000
    229  C4        17.8680   35.4430   62.0410 C.ar   19  G19         0.0000
    230  C5        17.1540   34.4900   61.3540 C.ar   19  G19         0.0000
    231  C6        16.2960   34.9090   60.2950 C.ar   19  G19         0.0000
    232  O6        15.5850   34.2160   59.5490 O.2    19  G19         0.0000
    233  N7        17.4320   33.2170   61.8420 N.ar   19  G19         0.0000
    234  C8        18.3010   33.4160   62.7930 C.ar   19  G19         0.0000
    235  N9        18.6290   34.7410   62.9510 N.ar   19  G19         0.0000
    236  OP1       21.4480   29.4430   65.1830 O.3    19  G19        -0.5000
    237  OP2       19.2880   29.9960   63.9010 O.co2  19  G19        -0.5000
    238  P         18.7910   34.1060   68.4740 P.3    20  U20         0.0000
    239  C5'       18.0930   36.5930   68.3250 C.3    20  U20         0.0000
    240  O5'       17.6830   35.2460   68.3070 O.3    20  U20         0.0000
    241  C4'       16.9430   37.5510   68.1430 C.3    20  U20         0.0000
    242  O4'       16.5360   37.5580   66.7390 O.3    20  U20         0.0000
    243  C3'       15.6880   37.1460   68.8880 C.3    20  U20         0.0000
    244  O3'       15.2460   37.6860   70.0940 O.3    20  U20         0.0000
    245  C2'       14.6840   36.5850   67.9200 C.3    20  U20         0.0000
    246  O2'       13.4880   37.3050   68.1430 O.3    20  U20         0.0000
    247  C1'       15.2070   37.0890   66.5910 C.3    20  U20         0.0000
    248  N1        15.1020   36.0750   65.5360 N.ar   20  U20         0.0000
    249  C2        14.5880   36.4940   64.3310 C.ar   20  U20         0.0000
    250  O2        14.3020   37.6580   64.1110 O.2    20  U20         0.0000
    251  N3        14.4110   35.5080   63.3940 N.ar   20  U20         0.0000
    252  C4        14.6930   34.1820   63.5360 C.ar   20  U20         0.0000
    253  O4        14.4570   33.4250   62.6040 O.2    20  U20         0.0000
    254  C5        15.2470   33.8180   64.8060 C.ar   20  U20         0.0000
    255  C6        15.4380   34.7590   65.7390 C.ar   20  U20         0.0000
    256  OP1       19.4280   34.2400   69.8150 O.3    20  U20        -0.5000
    257  OP2       18.1870   32.8100   68.0670 O.co2  20  U20        -0.5000
    258  P         14.6760   36.6930   71.2110 P.3    21  G21         0.0000
    259  C5'       15.8690   37.9290   73.1620 C.3    21  G21         0.0000
    260  O5'       15.7930   36.7870   72.3350 O.3    21  G21         0.0000
    261  C4'       17.2310   38.5720   73.0750 C.3    21  G21         0.0000
    262  O4'       17.4820   39.0720   71.7350 O.3    21  G21         0.0000
    263  C3'       17.2800   39.7880   73.9720 C.3    21  G21         0.0000
    264  O3'       17.5810   39.3600   75.2920 O.3    21  G21         0.0000
    265  C2'       18.2490   40.7330   73.2550 C.3    21  G21         0.0000
    266  O2'       19.6390   40.5800   73.4810 O.3    21  G21         0.0000
    267  C1'       17.9310   40.4190   71.7930 C.3    21  G21         0.0000
    268  N1        16.2100   45.1390   70.9680 N.ar   21  G21         0.0000
    269  C2        17.3660   44.7380   71.5870 C.ar   21  G21         0.0000
    270  N2        18.1460   45.7230   72.0540 N.pl3  21  G21         0.0000
    271  N3        17.7210   43.4740   71.7420 N.ar   21  G21         0.0000
    272  C4        16.8020   42.6300   71.2330 C.ar   21  G21         0.0000
    273  C5        15.6110   42.9310   70.6090 C.ar   21  G21         0.0000
    274  C6        15.2470   44.2860   70.4430 C.ar   21  G21         0.0000
    275  O6        14.2260   44.7510   69.9180 O.2    21  G21         0.0000
    276  N7        14.9410   41.7720   70.2350 N.ar   21  G21         0.0000
    277  C8        15.7210   40.8070   70.6310 C.ar   21  G21         0.0000
    278  N9        16.8660   41.2540   71.2440 N.ar   21  G21         0.0000
    279  OP1       14.6990   35.3100   70.6790 O.2    21  G21        -0.5000
    280  OP2       13.3870   37.2790   71.6720 O.co2  21  G21        -0.5000
    281  P         16.4560   39.4970   76.4330 P.3    22  C22         0.0000
    282  C5'       18.0470   41.4360   77.1990 C.3    22  C22         0.0000
    283  O5'       16.7120   40.9710   76.9770 O.3    22  C22         0.0000
    284  C4'       18.1050   42.9390   77.0970 C.3    22  C22         0.0000
    285  O4'       17.9820   43.3670   75.7180 O.3    22  C22         0.0000
    286  C3'       16.9660   43.6620   77.7730 C.3    22  C22         0.0000
    287  O3'       17.1820   43.7290   79.1590 O.3    22  C22         0.0000
    288  C2'       17.0340   45.0270   77.1130 C.3    22  C22         0.0000
    289  O2'       18.0880   45.8310   77.6020 O.3    22  C22         0.0000
    290  C1'       17.3470   44.6330   75.6750 C.3    22  C22         0.0000
    291  N1        16.1310   44.5130   74.8810 N.ar   22  C22         0.0000
    292  C2        15.4370   45.6810   74.5530 C.ar   22  C22         0.0000
    293  O2        15.8530   46.7660   74.9820 O.2    22  C22         0.0000
    294  N3        14.3330   45.5980   73.7850 N.ar   22  C22         0.0000
    295  C4        13.9110   44.4070   73.3570 C.ar   22  C22         0.0000
    296  N4        12.8220   44.3770   72.5870 N.pl3  22  C22         0.0000
    297  C5        14.5900   43.1960   73.6970 C.ar   22  C22         0.0000
    298  C6        15.6840   43.2960   74.4550 C.ar   22  C22         0.0000
    299  OP1       16.7540   38.5580   77.5350 O.3    22  C22        -0.5000
    300  OP2       15.1040   39.4910   75.8200 O.co2  22  C22        -0.5000
    301  P         15.9620   43.4390   80.1480 P.3    23  C23         0.0000
    302  C5'       15.6410   46.0170   80.5100 C.3    23  C23         0.0000
    303  O5'       15.0850   44.7720   80.1060 O.3    23  C23         0.0000
    304  C4'       14.7790   47.1580   80.0400 C.3    23  C23         0.0000
    305  O4'       14.6790   47.1470   78.5880 O.3    23  C23         0.0000
    306  C3'       13.3240   47.1410   80.4700 C.3    23  C23         0.0000
    307  O3'       13.1730   47.5590   81.8250 O.3    23  C23         0.0000
    308  C2'       12.7170   48.1390   79.4860 C.3    23  C23         0.0000
    309  O2'       13.0060   49.4820   79.8100 O.3    23  C23         0.0000
    310  C1'       13.4720   47.7880   78.2030 C.3    23  C23         0.0000
    311  N1        12.7190   46.8820   77.3310 N.ar   23  C23         0.0000
    312  C2        11.7050   47.4150   76.5070 C.ar   23  C23         0.0000
    313  O2        11.4420   48.6320   76.5760 O.2    23  C23         0.0000
    314  N3        11.0430   46.5870   75.6640 N.ar   23  C23         0.0000
    315  C4        11.3460   45.2840   75.6320 C.ar   23  C23         0.0000
    316  N4        10.6850   44.5110   74.7750 N.pl3  23  C23         0.0000
    317  C5        12.3460   44.7190   76.4740 C.ar   23  C23         0.0000
    318  C6        13.0020   45.5450   77.3000 C.ar   23  C23         0.0000
    319  OP1       16.5730   43.2780   81.4940 O.3    23  C23        -0.5000
    320  OP2       15.1300   42.3490   79.5650 O.co2  23  C23        -0.5000
    321  P         12.0030   46.9240   82.7320 P.3    24  C24         0.0000
    322  C5'       10.4020   49.0100   82.5680 C.3    24  C24         0.0000
    323  O5'       10.6590   47.6420   82.2520 O.3    24  C24         0.0000
    324  C4'        9.2690   49.5260   81.7250 C.3    24  C24         0.0000
    325  O4'        9.5450   49.1320   80.3650 O.3    24  C24         0.0000
    326  C3'        7.9030   48.9440   82.0520 C.3    24  C24         0.0000
    327  O3'        7.2530   49.6810   83.1130 O.3    24  C24         0.0000
    328  C2'        7.1880   48.8390   80.7000 C.3    24  C24         0.0000
    329  O2'        6.3360   49.9020   80.3230 O.3    24  C24         0.0000
    330  C1'        8.3600   48.7160   79.7210 C.3    24  C24         0.0000
    331  N1         8.6060   47.3770   79.1730 N.ar   24  C24         0.0000
    332  C2         7.9820   47.0050   77.9780 C.ar   24  C24         0.0000
    333  O2         7.2060   47.8050   77.4290 O.2    24  C24         0.0000
    334  N3         8.2440   45.7850   77.4530 N.ar   24  C24         0.0000
    335  C4         9.0800   44.9550   78.0800 C.ar   24  C24         0.0000
    336  N4         9.3060   43.7720   77.5310 N.pl3  24  C24         0.0000
    337  C5         9.7170   45.3040   79.3000 C.ar   24  C24         0.0000
    338  C6         9.4530   46.5120   79.8090 C.ar   24  C24         0.0000
    339  OP1       12.2640   47.3380   84.1330 O.3    24  C24        -0.5000
    340  OP2       11.9230   45.4770   82.3870 O.co2  24  C24        -0.5000
    341  P          6.7560   51.2150   82.8980 P.3    25  U25         0.0000
    342  C5'        9.0260   52.4890   83.2200 C.3    25  U25         0.0000
    343  O5'        7.7730   52.0840   83.7650 O.3    25  U25         0.0000
    344  C4'        9.1540   53.9990   83.2330 C.3    25  U25         0.0000
    345  O4'       10.3220   54.3450   82.4340 O.3    25  U25         0.0000
    346  C3'        7.9970   54.7650   82.5910 C.3    25  U25         0.0000
    347  O3'        7.0050   55.1160   83.5550 O.3    25  U25         0.0000
    348  C2'        8.6950   55.9990   82.0390 C.3    25  U25         0.0000
    349  O2'        8.9650   56.9480   83.0540 O.3    25  U25         0.0000
    350  C1'        9.9940   55.3800   81.5210 C.3    25  U25         0.0000
    351  N1         9.8350   54.7600   80.1940 N.ar   25  U25         0.0000
    352  C2        10.1500   55.5140   79.0710 C.ar   25  U25         0.0000
    353  O2        10.5790   56.6650   79.1310 O.2    25  U25         0.0000
    354  N3         9.9430   54.8690   77.8710 N.ar   25  U25         0.0000
    355  C4         9.4690   53.5800   77.6850 C.ar   25  U25         0.0000
    356  O4         9.3210   53.1460   76.5410 O.2    25  U25         0.0000
    357  C5         9.1830   52.8710   78.8900 C.ar   25  U25         0.0000
    358  C6         9.3720   53.4650   80.0690 C.ar   25  U25         0.0000
    359  OP1        5.4250   51.3600   83.5340 O.3    25  U25        -0.5000
    360  OP2        6.9400   51.6620   81.4940 O.co2  25  U25        -0.5000
    361  P          4.0650   51.8440   90.6050 P.3    29  G29         0.0000
    362  C5'        5.0780   49.5230   91.3140 C.3    29  G29         0.0000
    363  O5'        4.5190   50.7730   91.7000 O.3    29  G29         0.0000
    364  C4'        4.7390   48.4610   92.3320 C.3    29  G29         0.0000
    365  O4'        3.3020   48.4180   92.5220 O.3    29  G29         0.0000
    366  C3'        5.1050   47.0440   91.9160 C.3    29  G29         0.0000
    367  O3'        6.4760   46.7700   92.2030 O.3    29  G29         0.0000
    368  C2'        4.1310   46.1880   92.7290 C.3    29  G29         0.0000
    369  O2'        4.5530   45.9130   94.0540 O.3    29  G29         0.0000
    370  C1'        2.8860   47.0800   92.7520 C.3    29  G29         0.0000
    371  N1        -0.4270   43.5860   91.0520 N.ar   29  G29         0.0000
    372  C2         0.4910   43.4900   92.0710 C.ar   29  G29         0.0000
    373  N2         0.5150   42.3260   92.7280 N.pl3  29  G29         0.0000
    374  N3         1.3230   44.4640   92.4180 N.ar   29  G29         0.0000
    375  C4         1.1590   45.5650   91.6530 C.ar   29  G29         0.0000
    376  C5         0.2720   45.7640   90.6120 C.ar   29  G29         0.0000
    377  C6        -0.6130   44.7040   90.2480 C.ar   29  G29         0.0000
    378  O6        -1.4650   44.6810   89.3490 O.2    29  G29         0.0000
    379  N7         0.4180   47.0370   90.0790 N.ar   29  G29         0.0000
    380  C8         1.3690   47.5820   90.7900 C.ar   29  G29         0.0000
    381  N9         1.8560   46.7510   91.7690 N.ar   29  G29         0.0000
    382  OP1        5.2720   52.5690   90.1160 O.3    29  G29         0.0000
    383  OP2        3.1510   51.1860   89.6290 O.co2  29  G29        -1.0000
    384  P          7.4440   46.2570   91.0270 P.3    30  C30         0.0000
    385  C5'        7.1850   43.7770   91.8350 C.3    30  C30         0.0000
    386  O5'        7.0030   44.7420   90.8080 O.3    30  C30         0.0000
    387  C4'        6.2440   42.6110   91.6370 C.3    30  C30         0.0000
    388  O4'        4.8670   43.0760   91.6970 O.3    30  C30         0.0000
    389  C3'        6.2720   41.9050   90.2910 C.3    30  C30         0.0000
    390  O3'        7.3780   41.0220   90.1370 O.3    30  C30         0.0000
    391  C2'        4.9550   41.1420   90.3310 C.3    30  C30         0.0000
    392  O2'        4.9870   40.0110   91.1800 O.3    30  C30         0.0000
    393  C1'        4.0410   42.1890   90.9550 C.3    30  C30         0.0000
    394  N1         3.3240   42.9480   89.9310 N.ar   30  C30         0.0000
    395  C2         2.3410   42.2860   89.1840 C.ar   30  C30         0.0000
    396  O2         2.1390   41.0820   89.3970 O.2    30  C30         0.0000
    397  N3         1.6420   42.9710   88.2530 N.ar   30  C30         0.0000
    398  C4         1.9020   44.2640   88.0460 C.ar   30  C30         0.0000
    399  N4         1.1880   44.9010   87.1190 N.pl3  30  C30         0.0000
    400  C5         2.9110   44.9600   88.7850 C.ar   30  C30         0.0000
    401  C6         3.5920   44.2680   89.7080 C.ar   30  C30         0.0000
    402  OP1        8.8460   46.2840   91.5230 O.3    30  C30        -0.5000
    403  OP2        7.0840   47.0130   89.7980 O.co2  30  C30        -0.5000
    404  P          7.9050   40.6720   88.6560 P.3    31  G31         0.0000
    405  C5'        6.6740   39.5510   86.6580 C.3    31  G31         0.0000
    406  O5'        6.7940   39.7060   88.0560 O.3    31  G31         0.0000
    407  C4'        5.4890   38.6890   86.3250 C.3    31  G31         0.0000
    408  O4'        4.2810   39.2840   86.8640 O.3    31  G31         0.0000
    409  C3'        5.2360   38.5990   84.8330 C.3    31  G31         0.0000
    410  O3'        6.0420   37.5790   84.2690 O.3    31  G31         0.0000
    411  C2'        3.7460   38.2910   84.7720 C.3    31  G31         0.0000
    412  O2'        3.4180   36.9240   84.9500 O.3    31  G31         0.0000
    413  C1'        3.2270   39.1560   85.9230 C.3    31  G31         0.0000
    414  N1         0.3960   41.8900   82.7470 N.ar   31  G31         0.0000
    415  C2         0.4490   40.5300   82.9190 C.ar   31  G31         0.0000
    416  N2        -0.3680   39.8030   82.1430 N.pl3  31  G31         0.0000
    417  N3         1.2410   39.9280   83.7880 N.ar   31  G31         0.0000
    418  C4         1.9840   40.8090   84.4830 C.ar   31  G31         0.0000
    419  C5         2.0070   42.1820   84.3880 C.ar   31  G31         0.0000
    420  C6         1.1570   42.8140   83.4520 C.ar   31  G31         0.0000
    421  O6         1.0370   44.0180   83.2150 O.2    31  G31         0.0000
    422  N7         2.9220   42.7230   85.2820 N.ar   31  G31         0.0000
    423  C8         3.4240   41.6860   85.8950 C.ar   31  G31         0.0000
    424  N9         2.8930   40.4950   85.4580 N.ar   31  G31         0.0000
    425  OP1        9.1830   39.9160   88.7690 O.3    31  G31        -0.5000
    426  OP2        7.8550   41.9260   87.8580 O.co2  31  G31        -0.5000
    427  P          7.5530   37.9120   83.8310 P.3    32  U32         0.0000
    428  C5'        7.1250   38.2510   81.2740 C.3    32  U32         0.0000
    429  O5'        7.5990   37.4210   82.3210 O.3    32  U32         0.0000
    430  C4'        5.6760   37.9490   80.9710 C.3    32  U32         0.0000
    431  O4'        4.8180   38.5810   81.9620 O.3    32  U32         0.0000
    432  C3'        5.2300   38.5650   79.6600 C.3    32  U32         0.0000
    433  O3'        5.5670   37.6940   78.5950 O.3    32  U32         0.0000
    434  C2'        3.7370   38.7100   79.8680 C.3    32  U32         0.0000
    435  O2'        3.0800   37.4680   79.7720 O.3    32  U32         0.0000
    436  C1'        3.7040   39.1860   81.3170 C.3    32  U32         0.0000
    437  N1         3.8080   40.6480   81.4780 N.ar   32  U32         0.0000
    438  C2         2.9860   41.4610   80.6960 C.ar   32  U32         0.0000
    439  O2         2.2260   41.0250   79.8490 O.2    32  U32         0.0000
    440  N3         3.0950   42.8080   80.9430 N.ar   32  U32         0.0000
    441  C4         3.9300   43.4240   81.8580 C.ar   32  U32         0.0000
    442  O4         3.8970   44.6560   81.9750 O.2    32  U32         0.0000
    443  C5         4.7670   42.5270   82.6060 C.ar   32  U32         0.0000
    444  C6         4.6810   41.2060   82.3960 C.ar   32  U32         0.0000
    445  OP1        8.4870   37.0520   84.6200 O.3    32  U32        -0.5000
    446  OP2        7.7030   39.3960   83.8670 O.co2  32  U32        -0.5000
    447  P          7.0040   37.8340   77.8910 P.3    33  G33         0.0000
    448  C5'        6.8710   38.7280   75.4420 C.3    33  G33         0.0000
    449  O5'        6.6730   37.6550   76.3500 O.3    33  G33         0.0000
    450  C4'        5.6020   39.5160   75.3100 C.3    33  G33         0.0000
    451  O4'        5.3460   40.2340   76.5400 O.3    33  G33         0.0000
    452  C3'        5.6140   40.6160   74.2700 C.3    33  G33         0.0000
    453  O3'        5.4170   40.0130   72.9880 O.3    33  G33         0.0000
    454  C2'        4.4440   41.4900   74.7270 C.3    33  G33         0.0000
    455  O2'        3.1960   41.0120   74.2620 O.3    33  G33         0.0000
    456  C1'        4.4930   41.3200   76.2530 C.3    33  G33         0.0000
    457  N1         7.0810   43.1740   80.2700 N.ar   33  G33         0.0000
    458  C2         7.0920   41.9060   79.7520 C.ar   33  G33         0.0000
    459  N2         7.8460   41.0200   80.4040 N.pl3  33  G33         0.0000
    460  N3         6.4130   41.5350   78.6740 N.ar   33  G33         0.0000
    461  C4         5.7080   42.5560   78.1460 C.ar   33  G33         0.0000
    462  C5         5.6340   43.8650   78.5870 C.ar   33  G33         0.0000
    463  C6         6.3670   44.2450   79.7450 C.ar   33  G33         0.0000
    464  O6         6.4240   45.3570   80.2930 O.2    33  G33         0.0000
    465  N7         4.8040   44.6160   77.7670 N.ar   33  G33         0.0000
    466  C8         4.3920   43.7720   76.8610 C.ar   33  G33         0.0000
    467  N9         4.8740   42.4960   77.0420 N.ar   33  G33         0.0000
    468  OP1        7.8770   36.7110   78.3200 O.3    33  G33        -0.5000
    469  OP2        7.4570   39.2310   78.1060 O.co2  33  G33        -0.5000
    470  P          5.2430   40.9340   71.6780 P.3    34  A34         0.0000
    471  C5'        2.6330   40.7440   71.4590 C.3    34  A34         0.0000
    472  O5'        3.7680   41.5130   71.8410 O.3    34  A34         0.0000
    473  C4'        1.4320   41.6400   71.3520 C.3    34  A34         0.0000
    474  O4'        0.8770   41.9090   72.6660 O.3    34  A34         0.0000
    475  C3'        1.7580   43.0220   70.8150 C.3    34  A34         0.0000
    476  O3'        1.8910   43.0080   69.3980 O.3    34  A34         0.0000
    477  C2'        0.5790   43.8540   71.3120 C.3    34  A34         0.0000
    478  O2'       -0.5610   43.7910   70.4810 O.3    34  A34         0.0000
    479  C1'        0.2920   43.2030   72.6700 C.3    34  A34         0.0000
    480  N1         0.2480   47.6850   75.1800 N.ar   34  A34         0.0000
    481  C2        -0.4320   47.2390   74.1150 C.ar   34  A34         0.0000
    482  N3        -0.3740   46.0530   73.5130 N.ar   34  A34         0.0000
    483  C4         0.5160   45.2520   74.1240 C.ar   34  A34         0.0000
    484  C5         1.2900   45.5650   75.2270 C.ar   34  A34         0.0000
    485  C6         1.1360   46.8570   75.7720 C.ar   34  A34         0.0000
    486  N6         1.8150   47.3030   76.8350 N.pl3  34  A34         0.0000
    487  N7         2.0930   44.4890   75.5790 N.ar   34  A34         0.0000
    488  C8         1.7940   43.5680   74.6950 C.ar   34  A34         0.0000
    489  N9         0.8490   43.9620   73.7850 N.ar   34  A34         0.0000
    490  OP1        5.2610   40.0580   70.4740 O.2    34  A34        -0.5000
    491  OP2        6.2020   42.0720   71.7670 O.co2  34  A34        -0.5000
    492  P          3.0800   43.8430   68.7010 P.3    35  A35         0.0000
    493  C5'        1.5190   45.9530   68.3880 C.3    35  A35         0.0000
    494  O5'        2.6870   45.3670   68.9730 O.3    35  A35         0.0000
    495  C4'        1.1940   47.2540   69.0850 C.3    35  A35         0.0000
    496  O4'        0.8980   46.9590   70.4760 O.3    35  A35         0.0000
    497  C3'        2.3450   48.2480   69.1650 C.3    35  A35         0.0000
    498  O3'        2.4810   49.0540   68.0030 O.3    35  A35         0.0000
    499  C2'        1.9810   49.0640   70.3930 C.3    35  A35         0.0000
    500  O2'        0.9740   50.0280   70.1500 O.3    35  A35         0.0000
    501  C1'        1.4590   47.9640   71.3140 C.3    35  A35         0.0000
    502  N1         4.5230   48.5040   75.4190 N.ar   35  A35         0.0000
    503  C2         3.6170   49.3150   74.8560 C.ar   35  A35         0.0000
    504  N3         2.8620   49.1160   73.7770 N.ar   35  A35         0.0000
    505  C4         3.1070   47.9070   73.2380 C.ar   35  A35         0.0000
    506  C5         4.0080   46.9620   73.6970 C.ar   35  A35         0.0000
    507  C6         4.7480   47.2930   74.8540 C.ar   35  A35         0.0000
    508  N6         5.6510   46.4830   75.4160 N.pl3  35  A35         0.0000
    509  N7         3.9950   45.8340   72.8840 N.ar   35  A35         0.0000
    510  C8         3.0990   46.1160   71.9710 C.ar   35  A35         0.0000
    511  N9         2.5120   47.3510   72.1300 N.ar   35  A35         0.0000
    512  OP1        3.0060   43.5990   67.2340 O.2    35  A35        -0.5000
    513  OP2        4.3470   43.5470   69.4350 O.co2  35  A35        -0.5000
    514  P          3.9460   49.2960   67.3870 P.3    36  G36         0.0000
    515  C5'        4.0360   51.4920   68.8280 C.3    36  G36         0.0000
    516  O5'        4.6540   50.2750   68.4320 O.3    36  G36         0.0000
    517  C4'        4.6070   51.9680   70.1400 C.3    36  G36         0.0000
    518  O4'        4.3400   50.9750   71.1690 O.3    36  G36         0.0000
    519  C3'        6.1160   52.1080   70.2010 C.3    36  G36         0.0000
    520  O3'        6.5970   53.2940   69.5770 O.3    36  G36         0.0000
    521  C2'        6.3610   52.0840   71.7080 C.3    36  G36         0.0000
    522  O2'        6.0330   53.2770   72.3970 O.3    36  G36         0.0000
    523  C1'        5.3860   50.9960   72.1370 C.3    36  G36         0.0000
    524  N1         8.9310   48.1560   74.4010 N.ar   36  G36         0.0000
    525  C2         8.5920   49.4710   74.6170 C.ar   36  G36         0.0000
    526  N2         9.2850   50.1050   75.5700 N.pl3  36  G36         0.0000
    527  N3         7.6440   50.1130   73.9450 N.ar   36  G36         0.0000
    528  C4         7.0560   49.3230   73.0190 C.ar   36  G36         0.0000
    529  C5         7.3220   48.0030   72.7180 C.ar   36  G36         0.0000
    530  C6         8.3360   47.3220   73.4520 C.ar   36  G36         0.0000
    531  O6         8.7130   46.1460   73.3380 O.2    36  G36         0.0000
    532  N7         6.5050   47.5580   71.6870 N.ar   36  G36         0.0000
    533  C8         5.7650   48.5940   71.3930 C.ar   36  G36         0.0000
    534  N9         6.0400   49.6930   72.1720 N.ar   36  G36         0.0000
    535  OP1        3.8030   49.9890   66.0750 O.2    36  G36        -0.5000
    536  OP2        4.6560   47.9850   67.4560 O.co2  36  G36        -0.5000
    537  P          8.0270   53.2710   68.8240 P.3    37  G37         0.0000
    538  C5'        9.2880   54.7030   70.6450 C.3    37  G37         0.0000
    539  O5'        9.1030   53.4520   69.9860 O.3    37  G37         0.0000
    540  C4'       10.2670   54.5450   71.7860 C.3    37  G37         0.0000
    541  O4'        9.7610   53.5390   72.7120 O.3    37  G37         0.0000
    542  C3'       11.6340   53.9970   71.4070 C.3    37  G37         0.0000
    543  O3'       12.5030   54.9910   70.9220 O.3    37  G37         0.0000
    544  C2'       12.1230   53.4590   72.7360 C.3    37  G37         0.0000
    545  O2'       12.5080   54.4870   73.6310 O.3    37  G37         0.0000
    546  C1'       10.8490   52.7870   73.2340 C.3    37  G37         0.0000
    547  N1        12.8930   48.1340   73.2110 N.ar   37  G37         0.0000
    548  C2        13.3240   49.2690   73.8520 C.ar   37  G37         0.0000
    549  N2        14.4310   49.1390   74.6050 N.pl3  37  G37         0.0000
    550  N3        12.7140   50.4470   73.7650 N.ar   37  G37         0.0000
    551  C4        11.6200   50.3920   72.9760 C.ar   37  G37         0.0000
    552  C5        11.1130   49.3170   72.2920 C.ar   37  G37         0.0000
    553  C6        11.7720   48.0600   72.3940 C.ar   37  G37         0.0000
    554  O6        11.4660   46.9880   71.8730 O.2    37  G37         0.0000
    555  N7         9.9730   49.6780   71.5870 N.ar   37  G37         0.0000
    556  C8         9.8050   50.9410   71.8630 C.ar   37  G37         0.0000
    557  N9        10.7610   51.4330   72.7080 N.ar   37  G37         0.0000
    558  OP1        8.0810   54.4390   67.9120 O.2    37  G37        -0.5000
    559  OP2        8.2360   51.9050   68.2850 O.co2  37  G37        -0.5000
    560  P         13.3830   54.6890   69.6210 P.3    38  C38         0.0000
    561  C5'       15.3270   54.4330   71.3450 C.3    38  C38         0.0000
    562  O5'       14.6960   53.9830   70.1660 O.3    38  C38         0.0000
    563  C4'       16.4860   53.5370   71.6550 C.3    38  C38         0.0000
    564  O4'       16.0370   52.3360   72.3340 O.3    38  C38         0.0000
    565  C3'       17.1520   53.0110   70.4070 C.3    38  C38         0.0000
    566  O3'       18.0100   53.9870   69.8480 O.3    38  C38         0.0000
    567  C2'       17.8660   51.7790   70.9440 C.3    38  C38         0.0000
    568  O2'       19.0310   52.0960   71.6710 O.3    38  C38         0.0000
    569  C1'       16.8110   51.2230   71.9070 C.3    38  C38         0.0000
    570  N1        15.9120   50.2460   71.2560 N.ar   38  C38         0.0000
    571  C2        16.3690   48.9230   71.0090 C.ar   38  C38         0.0000
    572  O2        17.5010   48.5780   71.3950 O.2    38  C38         0.0000
    573  N3        15.5640   48.0620   70.3550 N.ar   38  C38         0.0000
    574  C4        14.3580   48.4560   69.9530 C.ar   38  C38         0.0000
    575  N4        13.6140   47.5850   69.2820 N.pl3  38  C38         0.0000
    576  C5        13.8630   49.7670   70.2160 C.ar   38  C38         0.0000
    577  C6        14.6620   50.6190   70.8670 C.ar   38  C38         0.0000
    578  OP1       13.7330   55.9970   68.9950 O.3    38  C38        -0.5000
    579  OP2       12.6350   53.6700   68.8530 O.co2  38  C38        -0.5000
    580  P         18.2870   53.9890   68.2690 P.3    39  U39         0.0000
    581  C5'       20.5850   52.8290   68.6290 C.3    39  U39         0.0000
    582  O5'       19.2800   52.7660   68.0790 O.3    39  U39         0.0000
    583  C4'       21.3250   51.5500   68.3580 C.3    39  U39         0.0000
    584  O4'       20.7110   50.4790   69.1130 O.3    39  U39         0.0000
    585  C3'       21.2870   51.0800   66.9160 C.3    39  U39         0.0000
    586  O3'       22.3150   51.7270   66.1610 O.3    39  U39         0.0000
    587  C2'       21.5360   49.5880   67.0800 C.3    39  U39         0.0000
    588  O2'       22.8930   49.3310   67.3210 O.3    39  U39         0.0000
    589  C1'       20.7560   49.2840   68.3610 C.3    39  U39         0.0000
    590  N1        19.3760   48.8360   68.1120 N.ar   39  U39         0.0000
    591  C2        19.1710   47.4860   67.9490 C.ar   39  U39         0.0000
    592  O2        20.0590   46.6740   68.0360 O.2    39  U39         0.0000
    593  N3        17.8840   47.1170   67.6800 N.ar   39  U39         0.0000
    594  C4        16.8010   47.9440   67.5620 C.ar   39  U39         0.0000
    595  O4        15.6990   47.4580   67.2920 O.2    39  U39         0.0000
    596  C5        17.0910   49.3380   67.7590 C.ar   39  U39         0.0000
    597  C6        18.3380   49.7220   68.0240 C.ar   39  U39         0.0000
    598  OP1       19.0760   55.2040   67.9610 O.3    39  U39        -0.5000
    599  OP2       17.0160   53.7300   67.5530 O.co2  39  U39        -0.5000
    600  P         22.1850   51.8490   64.5560 P.3    40  G40         0.0000
    601  C5'       22.9960   49.4410   63.9550 C.3    40  G40         0.0000
    602  O5'       21.9240   50.3580   64.0740 O.3    40  G40         0.0000
    603  C4'       22.4880   48.1240   63.4470 C.3    40  G40         0.0000
    604  O4'       21.4700   47.6470   64.3550 O.3    40  G40         0.0000
    605  C3'       21.7360   48.1680   62.1370 C.3    40  G40         0.0000
    606  O3'       22.6350   48.1810   61.0440 O.3    40  G40         0.0000
    607  C2'       21.0010   46.8450   62.1880 C.3    40  G40         0.0000
    608  O2'       21.9040   45.8050   61.9270 O.3    40  G40         0.0000
    609  C1'       20.5970   46.7830   63.6580 C.3    40  G40         0.0000
    610  N1        15.8190   45.1950   64.0270 N.ar   40  G40         0.0000
    611  C2        16.9790   44.4740   63.8820 C.ar   40  G40         0.0000
    612  N2        16.8500   43.1540   63.7930 N.pl3  40  G40         0.0000
    613  N3        18.1810   45.0130   63.8270 N.ar   40  G40         0.0000
    614  C4        18.1360   46.3580   63.9280 C.ar   40  G40         0.0000
    615  C5        17.0400   47.1750   64.0750 C.ar   40  G40         0.0000
    616  C6        15.7470   46.5790   64.1340 C.ar   40  G40         0.0000
    617  O6        14.6470   47.1250   64.2610 O.2    40  G40         0.0000
    618  N7        17.4260   48.5020   64.1450 N.ar   40  G40         0.0000
    619  C8        18.7280   48.4680   64.0350 C.ar   40  G40         0.0000
    620  N9        19.2170   47.1990   63.8810 N.ar   40  G40         0.0000
    621  OP1       23.5200   52.2280   64.0080 O.2    40  G40        -0.5000
    622  OP2       20.9760   52.6520   64.2030 O.co2  40  G40        -0.5000
    623  P         22.2110   48.9030   59.6660 P.3    41  A41         0.0000
    624  C5'       20.6160   48.1720   57.7190 C.3    41  A41         0.0000
    625  O5'       21.3080   47.8300   58.9110 O.3    41  A41         0.0000
    626  C4'       19.8490   46.9820   57.2110 C.3    41  A41         0.0000
    627  O4'       20.7890   45.9690   56.7920 O.3    41  A41         0.0000
    628  C3'       18.9430   46.2850   58.2150 C.3    41  A41         0.0000
    629  O3'       17.6610   46.9150   58.2030 O.3    41  A41         0.0000
    630  C2'       18.8590   44.8750   57.6400 C.3    41  A41         0.0000
    631  O2'       17.9400   44.8050   56.5650 O.3    41  A41         0.0000
    632  C1'       20.2650   44.6880   57.0690 C.3    41  A41         0.0000
    633  N1        21.8990   40.2360   59.1360 N.ar   41  A41         0.0000
    634  C2        20.8320   40.5220   58.3820 C.ar   41  A41         0.0000
    635  N3        20.4360   41.6960   57.8910 N.ar   41  A41         0.0000
    636  C4        21.2880   42.6710   58.2500 C.ar   41  A41         0.0000
    637  C5        22.4240   42.5290   59.0230 C.ar   41  A41         0.0000
    638  C6        22.7320   41.2420   59.4800 C.ar   41  A41         0.0000
    639  N6        23.8010   40.9670   60.2320 N.pl3  41  A41         0.0000
    640  N7        23.0590   43.7500   59.1870 N.ar   41  A41         0.0000
    641  C8        22.3090   44.5870   58.5180 C.ar   41  A41         0.0000
    642  N9        21.2310   44.0040   57.9170 N.ar   41  A41         0.0000
    643  OP1       23.4690   49.0410   58.8800 O.2    41  A41        -0.5000
    644  OP2       21.3640   50.1080   59.9410 O.co2  41  A41        -0.5000
    645  P         16.8930   47.2230   59.5850 P.3    42  G42         0.0000
    646  C5'       15.3140   45.1610   59.1630 C.3    42  G42         0.0000
    647  O5'       16.2700   45.8150   59.9920 O.3    42  G42         0.0000
    648  C4'       15.3010   43.6760   59.4600 C.3    42  G42         0.0000
    649  O4'       16.5920   43.1080   59.1230 O.3    42  G42         0.0000
    650  C3'       15.0540   43.2920   60.9110 C.3    42  G42         0.0000
    651  O3'       13.6470   43.1400   61.1070 O.3    42  G42         0.0000
    652  C2'       15.7680   41.9480   61.0240 C.3    42  G42         0.0000
    653  O2'       14.9680   40.8950   60.5250 O.3    42  G42         0.0000
    654  C1'       16.9570   42.1360   60.0770 C.3    42  G42         0.0000
    655  N1        21.3790   40.7600   62.2230 N.ar   42  G42         0.0000
    656  C2        20.3380   39.9680   61.8050 C.ar   42  G42         0.0000
    657  N2        20.5230   38.6510   61.9560 N.pl3  42  G42         0.0000
    658  N3        19.2060   40.4390   61.2750 N.ar   42  G42         0.0000
    659  C4        19.2070   41.7920   61.1990 C.ar   42  G42         0.0000
    660  C5        20.1960   42.6750   61.5900 C.ar   42  G42         0.0000
    661  C6        21.4080   42.1510   62.1450 C.ar   42  G42         0.0000
    662  O6        22.4180   42.7650   62.5210 O.2    42  G42         0.0000
    663  N7        19.8080   43.9860   61.3490 N.ar   42  G42         0.0000
    664  C8        18.6220   43.8810   60.8170 C.ar   42  G42         0.0000
    665  N9        18.2030   42.5810   60.6830 N.ar   42  G42         0.0000
    666  OP1       15.7610   48.1140   59.2230 O.2    42  G42        -0.5000
    667  OP2       17.8580   47.6610   60.6320 O.co2  42  G42        -0.5000
    668  P         12.9810   43.5290   62.5170 P.3    43  A43         0.0000
    669  C5'       13.5330   41.2740   63.7790 C.3    43  A43         0.0000
    670  O5'       13.7890   42.6680   63.5890 O.3    43  A43         0.0000
    671  C4'       13.7090   40.9120   65.2340 C.3    43  A43         0.0000
    672  O4'       15.0450   41.2330   65.6460 O.3    43  A43         0.0000
    673  C3'       12.8180   41.6830   66.1940 C.3    43  A43         0.0000
    674  O3'       11.6640   40.8820   66.4270 O.3    43  A43         0.0000
    675  C2'       13.6260   41.7720   67.4920 C.3    43  A43         0.0000
    676  O2'       13.2450   40.8210   68.4580 O.3    43  A43         0.0000
    677  C1'       15.0450   41.4430   67.0320 C.3    43  A43         0.0000
    678  N1        19.7260   41.6060   68.9890 N.ar   43  A43         0.0000
    679  C2        18.8690   40.6070   68.7310 C.ar   43  A43         0.0000
    680  N3        17.6500   40.6600   68.2170 N.ar   43  A43         0.0000
    681  C4        17.3020   41.9290   67.9480 C.ar   43  A43         0.0000
    682  C5        18.0580   43.0650   68.1590 C.ar   43  A43         0.0000
    683  C6        19.3470   42.8740   68.7070 C.ar   43  A43         0.0000
    684  N6        20.2100   43.8630   68.9580 N.pl3  43  A43         0.0000
    685  N7        17.3580   44.1990   67.7600 N.ar   43  A43         0.0000
    686  C8        16.2180   43.7260   67.3150 C.ar   43  A43         0.0000
    687  N9        16.1190   42.3590   67.4020 N.ar   43  A43         0.0000
    688  OP1       11.5900   43.0130   62.4780 O.2    43  A43        -0.5000
    689  OP2       13.2240   44.9700   62.8060 O.co2  43  A43        -0.5000
    690  P         10.2000   41.5330   66.3640 P.3    44  A44         0.0000
    691  C5'        9.9480   39.7440   64.4540 C.3    44  A44         0.0000
    692  O5'        9.6090   41.0230   64.9750 O.3    44  A44         0.0000
    693  C4'        9.0590   39.4280   63.2850 C.3    44  A44         0.0000
    694  O4'        9.5860   38.2680   62.5880 O.3    44  A44         0.0000
    695  C3'        7.6550   39.0350   63.7060 C.3    44  A44         0.0000
    696  O3'        6.5730   39.9550   63.5700 O.3    44  A44         0.0000
    697  C2'        7.5730   37.5100   63.6860 C.3    44  A44         0.0000
    698  O2'        6.3930   37.0040   63.0920 O.3    44  A44         0.0000
    699  C1'        8.7390   37.1440   62.7670 C.3    44  A44         0.0000
    700  N1        11.8030   35.3120   66.4640 N.ar   44  A44         0.0000
    701  C2        11.2240   36.5150   66.2760 C.ar   44  A44         0.0000
    702  N3        10.4550   36.9340   65.2740 N.ar   44  A44         0.0000
    703  C4        10.2860   35.9560   64.3730 C.ar   44  A44         0.0000
    704  C5        10.8150   34.6760   64.4180 C.ar   44  A44         0.0000
    705  C6        11.6110   34.3510   65.5310 C.ar   44  A44         0.0000
    706  N6        12.1770   33.1530   65.7150 N.pl3  44  A44         0.0000
    707  N7        10.4260   33.9450   63.3070 N.ar   44  A44         0.0000
    708  C8         9.6780   34.7830   62.6290 C.ar   44  A44         0.0000
    709  N9         9.5410   36.0120   63.2260 N.ar   44  A44         0.0000
    710  OP1       10.3320   43.0180   66.2780 O.2    44  A44        -0.5000
    711  OP2        9.4290   40.9240   67.4760 O.co2  44  A44        -0.5000
    712  P          5.6400   39.9150   62.2660 P.3    45  A45         0.0000
    713  C5'        6.3270   39.4720   59.7720 C.3    45  A45         0.0000
    714  O5'        6.6870   39.9200   61.0720 O.3    45  A45         0.0000
    715  C4'        7.3790   39.8960   58.7850 C.3    45  A45         0.0000
    716  O4'        8.6840   39.6780   59.3750 O.3    45  A45         0.0000
    717  C3'        7.3980   39.1110   57.4900 C.3    45  A45         0.0000
    718  O3'        6.5000   39.6970   56.5590 O.3    45  A45         0.0000
    719  C2'        8.8460   39.2740   57.0470 C.3    45  A45         0.0000
    720  O2'        9.0640   40.5450   56.4630 O.3    45  A45         0.0000
    721  C1'        9.5800   39.2100   58.3880 C.3    45  A45         0.0000
    722  N1        12.9000   36.6570   61.3180 N.ar   45  A45         0.0000
    723  C2        12.6590   37.9620   61.1490 C.ar   45  A45         0.0000
    724  N3        11.7650   38.5560   60.3670 N.ar   45  A45         0.0000
    725  C4        11.0490   37.6420   59.6920 C.ar   45  A45         0.0000
    726  C5        11.1760   36.2680   59.7640 C.ar   45  A45         0.0000
    727  C6        12.1610   35.7670   60.6230 C.ar   45  A45         0.0000
    728  N6        12.4070   34.4700   60.7890 N.pl3  45  A45         0.0000
    729  N7        10.2630   35.6470   58.9290 N.ar   45  A45         0.0000
    730  C8         9.6150   36.6450   58.3740 C.ar   45  A45         0.0000
    731  N9        10.0440   37.8800   58.7890 N.ar   45  A45         0.0000
    732  OP1        4.8920   41.2030   62.2060 O.2    45  A45        -0.5000
    733  OP2        4.9010   38.6220   62.2310 O.co2  45  A45        -0.5000
    734  P          5.5360   38.7570   55.6710 P.3    46  U46         0.0000
    735  C5'        7.2650   37.7960   53.9390 C.3    46  U46         0.0000
    736  O5'        6.4810   37.5970   55.1130 O.3    46  U46         0.0000
    737  C4'        6.9700   36.7210   52.9160 C.3    46  U46         0.0000
    738  O4'        5.5550   36.7400   52.5670 O.3    46  U46         0.0000
    739  C3'        7.6830   36.9140   51.5870 C.3    46  U46         0.0000
    740  O3'        8.9980   36.3750   51.6470 O.3    46  U46         0.0000
    741  C2'        6.7810   36.1610   50.6120 C.3    46  U46         0.0000
    742  O2'        6.9880   34.7580   50.6210 O.3    46  U46         0.0000
    743  C1'        5.3950   36.4810   51.1780 C.3    46  U46         0.0000
    744  OP1        5.1020   39.5800   54.5070 O.2    46  U46        -0.5000
    745  OP2        4.5160   38.1570   56.5850 O.co2  46  U46        -0.5000
    746  P         10.1870   37.1060   50.8530 P.3    47  A47         0.0000
    747  C5'       10.1740   39.5580   51.8160 C.3    47  A47         0.0000
    748  O5'       10.7100   38.2310   51.8600 O.3    47  A47         0.0000
    749  C4'       10.7970   40.4220   52.8920 C.3    47  A47         0.0000
    750  O4'       10.4110   39.9210   54.2010 O.3    47  A47         0.0000
    751  C3'       12.3180   40.4490   52.9210 C.3    47  A47         0.0000
    752  O3'       12.8490   41.3970   51.9910 O.3    47  A47         0.0000
    753  C2'       12.6020   40.8130   54.3760 C.3    47  A47         0.0000
    754  O2'       12.4790   42.1870   54.6770 O.3    47  A47         0.0000
    755  C1'       11.5010   40.0390   55.0960 C.3    47  A47         0.0000
    756  N1        14.2680   37.1900   58.3390 N.ar   47  A47         0.0000
    757  C2        14.0950   38.5130   58.2290 C.ar   47  A47         0.0000
    758  N3        13.3630   39.1950   57.3520 N.ar   47  A47         0.0000
    759  C4        12.7570   38.3590   56.4970 C.ar   47  A47         0.0000
    760  C5        12.8440   36.9830   56.4830 C.ar   47  A47         0.0000
    761  C6        13.6360   36.3850   57.4650 C.ar   47  A47         0.0000
    762  N6        13.7940   35.0780   57.5880 N.pl3  47  A47         0.0000
    763  N7        12.0950   36.4590   55.4440 N.ar   47  A47         0.0000
    764  C8        11.5730   37.5140   54.8680 C.ar   47  A47         0.0000
    765  N9        11.9240   38.6930   55.4610 N.ar   47  A47         0.0000
    766  OP1        9.5590   37.7840   49.6880 O.2    47  A47        -0.5000
    767  OP2       11.2730   36.1110   50.6360 O.co2  47  A47        -0.5000
    768  P         14.2920   41.1370   51.3090 P.3    48  C48         0.0000
    769  C5'       15.4870   42.5410   53.1660 C.3    48  C48         0.0000
    770  O5'       15.3110   41.2850   52.5220 O.3    48  C48         0.0000
    771  C4'       16.3450   42.3770   54.3900 C.3    48  C48         0.0000
    772  O4'       15.6610   41.5120   55.3380 O.3    48  C48         0.0000
    773  C3'       17.6630   41.6680   54.1410 C.3    48  C48         0.0000
    774  O3'       18.6580   42.5540   53.6450 O.3    48  C48         0.0000
    775  C2'       17.9850   41.1350   55.5260 C.3    48  C48         0.0000
    776  O2'       18.4210   42.1710   56.3760 O.3    48  C48         0.0000
    777  C1'       16.6030   40.6670   55.9770 C.3    48  C48         0.0000
    778  N1        16.3090   39.2780   55.5930 N.ar   48  C48         0.0000
    779  C2        16.7970   38.2470   56.3940 C.ar   48  C48         0.0000
    780  O2        17.4860   38.5300   57.3710 O.2    48  C48         0.0000
    781  N3        16.5070   36.9650   56.0820 N.ar   48  C48         0.0000
    782  C4        15.7700   36.6940   55.0070 C.ar   48  C48         0.0000
    783  N4        15.5100   35.4240   54.7550 N.pl3  48  C48         0.0000
    784  C5        15.2710   37.7230   54.1540 C.ar   48  C48         0.0000
    785  C6        15.5630   38.9930   54.4820 C.ar   48  C48         0.0000
    786  OP1       14.5510   42.2620   50.3810 O.2    48  C48        -0.5000
    787  OP2       14.3720   39.7410   50.8020 O.co2  48  C48        -0.5000
    788  P         19.6090   42.0780   52.4330 P.3    49  C49         0.0000
    789  C5'       21.5790   41.7110   54.1120 C.3    49  C49         0.0000
    790  O5'       20.7070   41.1630   53.1360 O.3    49  C49         0.0000
    791  C4'       22.2250   40.6100   54.9020 C.3    49  C49         0.0000
    792  O4'       21.1890   39.8140   55.5370 O.3    49  C49         0.0000
    793  C3'       22.9740   39.5960   54.0700 C.3    49  C49         0.0000
    794  O3'       24.2570   40.0740   53.6840 O.3    49  C49         0.0000
    795  C2'       23.0120   38.3930   55.0090 C.3    49  C49         0.0000
    796  O2'       23.9820   38.4720   56.0290 O.3    49  C49         0.0000
    797  C1'       21.6270   38.4730   55.6510 C.3    49  C49         0.0000
    798  N1        20.6420   37.5870   55.0050 N.ar   49  C49         0.0000
    799  C2        20.7680   36.1990   55.1930 C.ar   49  C49         0.0000
    800  O2        21.6980   35.7780   55.8790 O.2    49  C49         0.0000
    801  N3        19.8820   35.3630   54.6200 N.ar   49  C49         0.0000
    802  C4        18.8990   35.8570   53.8670 C.ar   49  C49         0.0000
    803  N4        18.0550   34.9970   53.3100 N.pl3  49  C49         0.0000
    804  C5        18.7420   37.2660   53.6510 C.ar   49  C49         0.0000
    805  C6        19.6280   38.0880   54.2380 C.ar   49  C49         0.0000
    806  OP1       20.3070   43.2710   51.8920 O.3    49  C49        -0.5000
    807  OP2       18.7870   41.2230   51.5280 O.co2  49  C49        -0.5000
    808  P         24.9020   39.5800   52.2900 P.3    50  C50         0.0000
    809  C5'       26.2990   37.7820   53.5360 C.3    50  C50         0.0000
    810  O5'       25.2870   38.0680   52.5910 O.3    50  C50         0.0000
    811  C4'       26.2790   36.3260   53.9070 C.3    50  C50         0.0000
    812  O4'       24.9690   35.9660   54.4120 O.3    50  C50         0.0000
    813  C3'       26.5030   35.3210   52.7970 C.3    50  C50         0.0000
    814  O3'       27.8880   35.1780   52.5470 O.3    50  C50         0.0000
    815  C2'       25.9830   34.0640   53.4620 C.3    50  C50         0.0000
    816  O2'       26.8940   33.6510   54.4620 O.3    50  C50         0.0000
    817  C1'       24.7260   34.6000   54.1400 C.3    50  C50         0.0000
    818  N1        23.5450   34.5130   53.2770 N.ar   50  C50         0.0000
    819  C2        22.9820   33.2550   53.0360 C.ar   50  C50         0.0000
    820  O2        23.5120   32.2530   53.5430 O.2    50  C50         0.0000
    821  N3        21.8780   33.1630   52.2570 N.ar   50  C50         0.0000
    822  C4        21.3460   34.2650   51.7200 C.ar   50  C50         0.0000
    823  N4        20.2640   34.1230   50.9560 N.pl3  50  C50         0.0000
    824  C5        21.9040   35.5580   51.9440 C.ar   50  C50         0.0000
    825  C6        22.9950   35.6350   52.7210 C.ar   50  C50         0.0000
    826  OP1       26.1950   40.2860   52.0690 O.3    50  C50        -0.5000
    827  OP2       23.8570   39.6210   51.2380 O.co2  50  C50        -0.5000
    828  P         28.3910   34.8360   51.0670 P.3    51  G51         0.0000
    829  C5'       28.9790   32.3120   51.4950 C.3    51  G51         0.0000
    830  O5'       28.1240   33.2760   50.8930 O.3    51  G51         0.0000
    831  C4'       28.4550   30.9270   51.2210 C.3    51  G51         0.0000
    832  O4'       27.0540   30.8990   51.5930 O.3    51  G51         0.0000
    833  C3'       28.4310   30.4990   49.7640 C.3    51  G51         0.0000
    834  O3'       29.7050   29.9870   49.3770 O.3    51  G51         0.0000
    835  C2'       27.3550   29.4150   49.7730 C.3    51  G51         0.0000
    836  O2'       27.7770   28.1720   50.2960 O.3    51  G51         0.0000
    837  C1'       26.3530   29.9970   50.7610 C.3    51  G51         0.0000
    838  N1        21.8500   29.5350   48.4860 N.ar   51  G51         0.0000
    839  C2        22.7150   28.5620   48.9180 C.ar   51  G51         0.0000
    840  N2        22.3260   27.3010   48.7360 N.pl3  51  G51         0.0000
    841  N3        23.8770   28.8070   49.4850 N.ar   51  G51         0.0000
    842  C4        24.1190   30.1290   49.5890 C.ar   51  G51         0.0000
    843  C5        23.3300   31.1810   49.1860 C.ar   51  G51         0.0000
    844  C6        22.0780   30.9040   48.5780 C.ar   51  G51         0.0000
    845  O6        21.2300   31.7030   48.1520 O.2    51  G51         0.0000
    846  N7        23.9430   32.3920   49.4700 N.ar   51  G51         0.0000
    847  C8        25.0730   32.0580   50.0350 C.ar   51  G51         0.0000
    848  N9        25.2360   30.7020   50.1470 N.ar   51  G51         0.0000
    849  OP1       29.8590   35.0970   51.0200 O.3    51  G51        -0.5000
    850  OP2       27.4770   35.5280   50.1200 O.co2  51  G51        -0.5000
    851  P         30.6020   30.7890   48.3070 P.3    52  U52         0.0000
    852  C5'       32.8430   31.2790   49.5870 C.3    52  U52         0.0000
    853  O5'       32.0870   30.4210   48.7370 O.3    52  U52         0.0000
    854  C4'       33.9630   30.4980   50.2260 C.3    52  U52         0.0000
    855  O4'       33.4490   29.6920   51.3070 O.3    52  U52         0.0000
    856  C3'       34.6750   29.5460   49.2790 C.3    52  U52         0.0000
    857  O3'       35.6980   30.2360   48.5260 O.3    52  U52         0.0000
    858  C2'       35.0790   28.3480   50.1490 C.3    52  U52         0.0000
    859  O2'       36.4140   28.3380   50.6040 O.3    52  U52         0.0000
    860  C1'       34.1090   28.4460   51.3370 C.3    52  U52         0.0000
    861  N1        33.0830   27.4050   51.4880 N.ar   52  U52         0.0000
    862  C2        33.4720   26.1670   51.9610 C.ar   52  U52         0.0000
    863  O2        34.6340   25.8850   52.2040 O.2    52  U52         0.0000
    864  N3        32.4470   25.2680   52.1410 N.ar   52  U52         0.0000
    865  C4        31.1040   25.4790   51.8950 C.ar   52  U52         0.0000
    866  O4        30.2920   24.5760   52.1200 O.2    52  U52         0.0000
    867  C5        30.7910   26.7770   51.3880 C.ar   52  U52         0.0000
    868  C6        31.7670   27.6700   51.2020 C.ar   52  U52         0.0000
    869  OP1       30.4500   32.2510   48.5160 O.3    52  U52        -0.5000
    870  OP2       30.3370   30.2070   46.9660 O.co2  52  U52        -0.5000
    871  P         36.9630   30.9440   49.2740 P.3    53  A53         0.0000
    872  C5'       37.0720   31.6180   51.8280 C.3    53  A53         0.0000
    873  O5'       36.3590   31.6200   50.5890 O.3    53  A53         0.0000
    874  C4'       36.1780   32.1430   52.9290 C.3    53  A53         0.0000
    875  O4'       34.9200   31.4380   52.9110 O.3    53  A53         0.0000
    876  C3'       36.6780   32.0140   54.3640 C.3    53  A53         0.0000
    877  O3'       37.4170   33.2070   54.6670 O.3    53  A53         0.0000
    878  C2'       35.3840   31.9740   55.1990 C.3    53  A53         0.0000
    879  O2'       35.0290   33.2310   55.7410 O.3    53  A53         0.0000
    880  C1'       34.3170   31.5780   54.1710 C.3    53  A53         0.0000
    881  N1        33.9250   26.6440   55.6930 N.ar   53  A53         0.0000
    882  C2        34.9900   27.4510   55.5450 C.ar   53  A53         0.0000
    883  N3        35.0380   28.7210   55.1420 N.ar   53  A53         0.0000
    884  C4        33.8050   29.1740   54.8680 C.ar   53  A53         0.0000
    885  C5        32.6170   28.4660   54.9680 C.ar   53  A53         0.0000
    886  C6        32.7000   27.1320   55.4040 C.ar   53  A53         0.0000
    887  N6        31.6400   26.3280   55.5460 N.pl3  53  A53         0.0000
    888  N7        31.5420   29.2580   54.6010 N.ar   53  A53         0.0000
    889  C8        32.0910   30.4060   54.2940 C.ar   53  A53         0.0000
    890  N9        33.4560   30.4270   54.4350 N.ar   53  A53         0.0000
    891  OP1       37.4290   32.0690   48.4140 O.2    53  A53        -0.5000
    892  OP2       37.9310   29.8880   49.6830 O.co2  53  A53        -0.5000
    893  P         38.7130   33.1590   55.6290 P.3    54  U54         0.0000
    894  C5'       39.7940   35.4890   56.2040 C.3    54  U54         0.0000
    895  O5'       38.6950   34.5920   56.3380 O.3    54  U54         0.0000
    896  C4'       39.3960   36.8990   56.5980 C.3    54  U54         0.0000
    897  O4'       40.6070   37.7070   56.6110 O.3    54  U54         0.0000
    898  C3'       38.4300   37.6270   55.6600 C.3    54  U54         0.0000
    899  O3'       37.0450   37.4400   56.0100 O.3    54  U54         0.0000
    900  C2'       38.8350   39.0890   55.8350 C.3    54  U54         0.0000
    901  O2'       38.2260   39.7080   56.9530 O.3    54  U54         0.0000
    902  C1'       40.3480   38.9750   56.0380 C.3    54  U54         0.0000
    903  OP1       39.9230   33.0880   54.7590 O.2    54  U54        -0.5000
    904  OP2       38.4950   32.1200   56.6760 O.co2  54  U54        -0.5000
    905  P         35.8850   38.0960   55.0850 P.3    55  C55         0.0000
    906  C5'       34.4680   38.7120   57.2380 C.3    55  C55         0.0000
    907  O5'       34.5530   38.0480   55.9700 O.3    55  C55         0.0000
    908  C4'       33.2930   39.6810   57.2620 C.3    55  C55         0.0000
    909  O4'       33.5840   40.8310   56.4200 O.3    55  C55         0.0000
    910  C3'       31.9570   39.1590   56.7420 C.3    55  C55         0.0000
    911  O3'       31.2000   38.4430   57.7210 O.3    55  C55         0.0000
    912  C2'       31.2270   40.4350   56.3340 C.3    55  C55         0.0000
    913  O2'       30.5320   41.0470   57.4090 O.3    55  C55         0.0000
    914  C1'       32.3830   41.3110   55.8340 C.3    55  C55         0.0000
    915  OP1       35.6750   37.2120   53.9040 O.2    55  C55        -0.5000
    916  OP2       36.2240   39.5310   54.8710 O.co2  55  C55        -0.5000
    917  P         30.1830   37.3020   57.2330 P.3    56  A56         0.0000
    918  C5'       27.8460   38.1900   57.9730 C.3    56  A56         0.0000
    919  O5'       28.9530   37.3460   58.2470 O.3    56  A56         0.0000
    920  C4'       26.5510   37.4050   57.9050 C.3    56  A56         0.0000
    921  O4'       26.7060   36.2130   57.0880 O.3    56  A56         0.0000
    922  C3'       25.9950   36.8240   59.1870 C.3    56  A56         0.0000
    923  O3'       25.4110   37.8150   60.0290 O.3    56  A56         0.0000
    924  C2'       24.9480   35.8720   58.6200 C.3    56  A56         0.0000
    925  O2'       23.8200   36.5360   58.0840 O.3    56  A56         0.0000
    926  C1'       25.7230   35.2550   57.4630 C.3    56  A56         0.0000
    927  N1        25.1580   30.1900   58.2560 N.ar   56  A56         0.0000
    928  C2        24.3030   31.1370   57.8810 C.ar   56  A56         0.0000
    929  N3        24.5110   32.4450   57.6970 N.ar   56  A56         0.0000
    930  C4        25.7910   32.7700   57.9570 C.ar   56  A56         0.0000
    931  C5        26.7890   31.9040   58.3580 C.ar   56  A56         0.0000
    932  C6        26.4360   30.5410   58.5030 C.ar   56  A56         0.0000
    933  N6        27.2950   29.5870   58.8620 N.pl3  56  A56         0.0000
    934  N7        27.9840   32.5870   58.5370 N.ar   56  A56         0.0000
    935  C8        27.6890   33.8290   58.2370 C.ar   56  A56         0.0000
    936  N9        26.3820   34.0140   57.8710 N.ar   56  A56         0.0000
    937  OP1       30.8540   35.9790   57.3340 O.3    56  A56        -0.5000
    938  OP2       29.6990   37.7950   55.9140 O.co2  56  A56        -0.5000
    939  P         25.8300   37.8810   61.5810 P.3    57  C57         0.0000
    940  C5'       24.3290   35.9040   62.4210 C.3    57  C57         0.0000
    941  O5'       25.6270   36.4000   62.1190 O.3    57  C57         0.0000
    942  C4'       24.3860   34.4140   62.6710 C.3    57  C57         0.0000
    943  O4'       25.0170   33.7830   61.5280 O.3    57  C57         0.0000
    944  C3'       25.2150   33.9460   63.8560 C.3    57  C57         0.0000
    945  O3'       24.4320   33.9740   65.0430 O.3    57  C57         0.0000
    946  C2'       25.5480   32.5220   63.4410 C.3    57  C57         0.0000
    947  O2'       24.4440   31.6480   63.5570 O.3    57  C57         0.0000
    948  C1'       25.8370   32.7150   61.9580 C.3    57  C57         0.0000
    949  N1        27.2370   33.0770   61.6920 N.ar   57  C57         0.0000
    950  C2        28.1850   32.0580   61.5650 C.ar   57  C57         0.0000
    951  O2        27.8200   30.8810   61.6780 O.2    57  C57         0.0000
    952  N3        29.4750   32.3810   61.3270 N.ar   57  C57         0.0000
    953  C4        29.8310   33.6610   61.2190 C.ar   57  C57         0.0000
    954  N4        31.1140   33.9350   60.9840 N.pl3  57  C57         0.0000
    955  C5        28.8850   34.7200   61.3440 C.ar   57  C57         0.0000
    956  C6        27.6110   34.3840   61.5760 C.ar   57  C57         0.0000
    957  OP1       24.8590   38.7430   62.3150 O.3    57  C57        -0.5000
    958  OP2       27.2800   38.1810   61.6240 O.co2  57  C57        -0.5000
    959  P         25.1440   34.1730   66.4690 P.3    58  C58         0.0000
    960  C5'       24.8460   31.6110   66.8510 C.3    58  C58         0.0000
    961  O5'       25.7090   32.7320   66.8330 O.3    58  C58         0.0000
    962  C4'       25.6510   30.3450   66.9130 C.3    58  C58         0.0000
    963  O4'       26.4880   30.2610   65.7320 O.3    58  C58         0.0000
    964  C3'       26.6490   30.2650   68.0540 C.3    58  C58         0.0000
    965  O3'       26.0430   29.8690   69.2760 O.3    58  C58         0.0000
    966  C2'       27.6390   29.2270   67.5400 C.3    58  C58         0.0000
    967  O2'       27.1950   27.8930   67.7220 O.3    58  C58         0.0000
    968  C1'       27.6940   29.5860   66.0540 C.3    58  C58         0.0000
    969  N1        28.8160   30.4610   65.6870 N.ar   58  C58         0.0000
    970  C2        30.1000   29.9180   65.6260 C.ar   58  C58         0.0000
    971  O2        30.2630   28.7350   65.9610 O.2    58  C58         0.0000
    972  N3        31.1300   30.6920   65.2070 N.ar   58  C58         0.0000
    973  C4        30.9160   31.9640   64.8720 C.ar   58  C58         0.0000
    974  N4        31.9560   32.6810   64.4420 N.pl3  58  C58         0.0000
    975  C5        29.6220   32.5570   64.9610 C.ar   58  C58         0.0000
    976  C6        28.6100   31.7770   65.3750 C.ar   58  C58         0.0000
    977  OP1       24.0630   34.5160   67.4350 O.3    58  C58        -0.5000
    978  OP2       26.3040   35.0820   66.3090 O.co2  58  C58        -0.5000
    979  P         26.6360   30.4210   70.6610 P.3    59  U59         0.0000
    980  C5'       27.9530   28.1800   71.0750 C.3    59  U59         0.0000
    981  O5'       27.9750   29.5850   70.8600 O.3    59  U59         0.0000
    982  C4'       29.3660   27.6710   71.1490 C.3    59  U59         0.0000
    983  O4'       30.0160   27.9430   69.8800 O.3    59  U59         0.0000
    984  C3'       30.2180   28.4000   72.1750 C.3    59  U59         0.0000
    985  O3'       30.0890   27.8050   73.4610 O.3    59  U59         0.0000
    986  C2'       31.6260   28.2880   71.5980 C.3    59  U59         0.0000
    987  O2'       32.2520   27.0470   71.8760 O.3    59  U59         0.0000
    988  C1'       31.3420   28.3900   70.0990 C.3    59  U59         0.0000
    989  N1        31.4660   29.7240   69.4940 N.ar   59  U59         0.0000
    990  C2        32.7360   30.2040   69.2240 C.ar   59  U59         0.0000
    991  O2        33.7530   29.6090   69.5530 O.2    59  U59         0.0000
    992  N3        32.7670   31.4080   68.5490 N.ar   59  U59         0.0000
    993  C4        31.6750   32.1720   68.1410 C.ar   59  U59         0.0000
    994  O4        31.8590   33.2250   67.5240 O.2    59  U59         0.0000
    995  C5        30.4020   31.6240   68.5010 C.ar   59  U59         0.0000
    996  C6        30.3420   30.4540   69.1560 C.ar   59  U59         0.0000
    997  OP1       25.6610   30.0520   71.7250 O.3    59  U59        -0.5000
    998  OP2       27.0460   31.8460   70.4900 O.co2  59  U59        -0.5000
    999  P         30.0080   28.7480   74.7520 P.3    60  G60         0.0000
   1000  C5'       32.5980   28.5520   75.0550 C.3    60  G60         0.0000
   1001  O5'       31.4640   29.3800   74.8190 O.3    60  G60         0.0000
   1002  C4'       33.8600   29.3380   74.8270 C.3    60  G60         0.0000
   1003  O4'       33.9080   29.7020   73.4220 O.3    60  G60         0.0000
   1004  C3'       33.9190   30.6680   75.5660 C.3    60  G60         0.0000
   1005  O3'       34.4570   30.5340   76.8870 O.3    60  G60         0.0000
   1006  C2'       34.8910   31.4540   74.6900 C.3    60  G60         0.0000
   1007  O2'       36.2410   31.1410   74.9620 O.3    60  G60         0.0000
   1008  C1'       34.5150   30.9720   73.2830 C.3    60  G60         0.0000
   1009  N1        34.0400   34.6820   69.8550 N.ar   60  G60         0.0000
   1010  C2        35.1560   33.9870   70.2440 C.ar   60  G60         0.0000
   1011  N2        36.2990   34.3340   69.6580 N.pl3  60  G60         0.0000
   1012  N3        35.1510   33.0220   71.1440 N.ar   60  G60         0.0000
   1013  C4        33.9180   32.7980   71.6340 C.ar   60  G60         0.0000
   1014  C5        32.7360   33.4360   71.3160 C.ar   60  G60         0.0000
   1015  C6        32.7600   34.4770   70.3490 C.ar   60  G60         0.0000
   1016  O6        31.8280   35.1710   69.9370 O.3    60  G60         0.0000
   1017  N7        31.6820   32.9100   72.0480 N.ar   60  G60         0.0000
   1018  C8        32.2300   31.9780   72.7850 C.ar   60  G60         0.0000
   1019  N9        33.5880   31.8670   72.5920 N.ar   60  G60         0.0000
   1020  OP1       29.8170   27.8920   75.9480 O.3    60  G60        -0.5000
   1021  OP2       29.0300   29.8270   74.4560 O.co2  60  G60        -0.5000
   1022  P         33.4860   30.4910   78.1940 P.3    61  A61         0.0000
   1023  C5'       31.2180   31.6050   78.9220 C.3    61  A61         0.0000
   1024  O5'       32.1670   31.3390   77.8770 O.3    61  A61         0.0000
   1025  C4'       30.1520   32.5780   78.4590 C.3    61  A61         0.0000
   1026  O4'       30.7870   33.7810   77.9620 O.3    61  A61         0.0000
   1027  C3'       29.3260   32.0330   77.3040 C.3    61  A61         0.0000
   1028  O3'       27.9130   32.2140   77.4250 O.3    61  A61         0.0000
   1029  C2'       29.9310   32.6280   76.0370 C.3    61  A61         0.0000
   1030  O2'       28.9230   33.0520   75.1460 O.3    61  A61         0.0000
   1031  C1'       30.6180   33.8870   76.5680 C.3    61  A61         0.0000
   1032  N1        32.9560   36.3560   72.7060 N.ar   61  A61         0.0000
   1033  C2        31.6710   36.1790   73.0070 C.ar   61  A61         0.0000
   1034  N3        31.1240   35.5240   74.0290 N.ar   61  A61         0.0000
   1035  C4        32.0740   34.9950   74.8180 C.ar   61  A61         0.0000
   1036  C5        33.4390   35.0920   74.6410 C.ar   61  A61         0.0000
   1037  C6        33.8890   35.8170   73.5190 C.ar   61  A61         0.0000
   1038  N6        35.1850   35.9970   73.2190 N.pl3  61  A61         0.0000
   1039  N7        34.1110   34.4230   75.6540 N.ar   61  A61         0.0000
   1040  C8        33.1520   33.9430   76.4080 C.ar   61  A61         0.0000
   1041  N9        31.8970   34.2500   75.9640 N.ar   61  A61         0.0000
   1042  OP1       34.1830   31.2350   79.2750 O.3    61  A61        -0.5000
   1043  OP2       33.0680   29.0840   78.4220 O.co2  61  A61        -0.5000
   1044  P         27.1220   31.6840   78.7270 P.3    62  U62         0.0000
   1045  C5'       26.9020   34.1170   79.7200 C.3    62  U62         0.0000
   1046  O5'       27.4110   32.7860   79.8520 O.3    62  U62         0.0000
   1047  C4'       27.0210   34.8910   81.0280 C.3    62  U62         0.0000
   1048  O4'       26.2380   34.2560   82.0690 O.3    62  U62         0.0000
   1049  C3'       28.4420   34.9660   81.5640 C.3    62  U62         0.0000
   1050  O3'       28.7750   36.3070   81.9590 O.3    62  U62         0.0000
   1051  C2'       28.5410   33.8580   82.6180 C.3    62  U62         0.0000
   1052  O2'       29.2780   34.2440   83.7550 O.3    62  U62         0.0000
   1053  C1'       27.0790   33.7010   83.0500 C.3    62  U62         0.0000
   1054  N1        26.5720   32.3650   83.3850 N.ar   62  U62         0.0000
   1055  C2        26.3160   32.0950   84.7230 C.ar   62  U62         0.0000
   1056  O2        26.5200   32.9020   85.6080 O.2    62  U62         0.0000
   1057  N3        25.8040   30.8450   84.9760 N.ar   62  U62         0.0000
   1058  C4        25.5300   29.8560   84.0450 C.ar   62  U62         0.0000
   1059  O4        25.0770   28.7760   84.4220 O.2    62  U62         0.0000
   1060  C5        25.8310   30.2080   82.6870 C.ar   62  U62         0.0000
   1061  C6        26.3340   31.4180   82.4110 C.ar   62  U62         0.0000
   1062  OP1       27.6860   30.3760   79.1740 O.3    62  U62        -0.5000
   1063  OP2       25.6880   31.7780   78.3580 O.co2  62  U62        -0.5000
   1064  P         29.9670   37.0970   81.2360 P.3    63  C63         0.0000
   1065  C5'       31.9030   35.4440   80.6600 C.3    63  C63         0.0000
   1066  O5'       31.2440   36.2320   81.6280 O.3    63  C63         0.0000
   1067  C4'       33.3650   35.7990   80.6000 C.3    63  C63         0.0000
   1068  O4'       33.7730   35.5330   79.2360 O.3    63  C63         0.0000
   1069  C3'       33.7130   37.2680   80.8390 C.3    63  C63         0.0000
   1070  O3'       34.0680   37.5030   82.1990 O.3    63  C63         0.0000
   1071  C2'       34.9270   37.4580   79.9500 C.3    63  C63         0.0000
   1072  O2'       36.1010   36.9180   80.5170 O.3    63  C63         0.0000
   1073  C1'       34.5280   36.6210   78.7380 C.3    63  C63         0.0000
   1074  N1        33.6900   37.3530   77.7730 N.ar   63  C63         0.0000
   1075  C2        34.3080   37.9800   76.6840 C.ar   63  C63         0.0000
   1076  O2        35.5400   37.9170   76.5720 O.2    63  C63         0.0000
   1077  N3        33.5500   38.6370   75.7820 N.ar   63  C63         0.0000
   1078  C4        32.2270   38.6890   75.9370 C.ar   63  C63         0.0000
   1079  N4        31.5200   39.3540   75.0160 N.pl3  63  C63         0.0000
   1080  C5        31.5710   38.0630   77.0410 C.ar   63  C63         0.0000
   1081  C6        32.3340   37.4150   77.9270 C.ar   63  C63         0.0000
   1082  OP1       30.1150   38.4070   81.9070 O.3    63  C63         0.0000
   1083  OP2       29.7540   37.0530   79.7670 O.co2  63  C63        -1.0000
   1084  P         34.0320   39.0020   82.8000 P.3    64  U64         0.0000
   1085  C5'       36.5370   39.5680   82.1320 C.3    64  U64         0.0000
   1086  O5'       35.1360   39.8120   81.9680 O.3    64  U64         0.0000
   1087  C4'       37.3430   40.4140   81.1650 C.3    64  U64         0.0000
   1088  O4'       37.0640   40.0010   79.8010 O.3    64  U64         0.0000
   1089  C3'       37.0500   41.9080   81.1600 C.3    64  U64         0.0000
   1090  O3'       37.7390   42.6170   82.1840 O.3    64  U64         0.0000
   1091  C2'       37.5480   42.3300   79.7850 C.3    64  U64         0.0000
   1092  O2'       38.9430   42.5490   79.7510 O.3    64  U64         0.0000
   1093  C1'       37.1390   41.1260   78.9330 C.3    64  U64         0.0000
   1094  N1        35.8150   41.3210   78.3220 N.ar   64  U64         0.0000
   1095  C2        35.7310   42.0590   77.1400 C.ar   64  U64         0.0000
   1096  O2        36.7100   42.5380   76.5800 O.2    64  U64         0.0000
   1097  N3        34.4510   42.2110   76.6440 N.ar   64  U64         0.0000
   1098  C4        33.2730   41.7110   77.1980 C.ar   64  U64         0.0000
   1099  O4        32.1880   41.9330   76.6450 O.2    64  U64         0.0000
   1100  C5        33.4560   40.9630   78.4050 C.ar   64  U64         0.0000
   1101  C6        34.6860   40.7970   78.9110 C.ar   64  U64         0.0000
   1102  OP1       34.4640   38.8860   84.2220 O.2    64  U64         0.0000
   1103  OP2       32.7120   39.6240   82.4770 O.co2  64  U64        -1.0000
   1104  P         36.9850   43.7970   82.9790 P.3    65  G65         0.0000
   1105  C5'       38.3410   45.8250   82.0310 C.3    65  G65         0.0000
   1106  O5'       37.1400   45.0690   82.0320 O.3    65  G65         0.0000
   1107  C4'       38.3230   46.8460   80.9190 C.3    65  G65         0.0000
   1108  O4'       38.2730   46.1710   79.6300 O.3    65  G65         0.0000
   1109  C3'       37.1300   47.7840   80.8810 C.3    65  G65         0.0000
   1110  O3'       37.2860   48.8690   81.7840 O.3    65  G65         0.0000
   1111  C2'       37.1660   48.2530   79.4340 C.3    65  G65         0.0000
   1112  O2'       38.1620   49.2230   79.2070 O.3    65  G65         0.0000
   1113  C1'       37.5260   46.9560   78.7090 C.3    65  G65         0.0000
   1114  N1        33.4420   46.8720   75.7100 N.ar   65  G65         0.0000
   1115  C2        34.5100   47.7270   75.7060 C.ar   65  G65         0.0000
   1116  N2        34.4720   48.7080   74.8030 N.pl3  65  G65         0.0000
   1117  N3        35.5410   47.6290   76.5250 N.ar   65  G65         0.0000
   1118  C4        35.4200   46.5800   77.3650 C.ar   65  G65         0.0000
   1119  C5        34.3980   45.6610   77.4510 C.ar   65  G65         0.0000
   1120  C6        33.2880   45.7870   76.5630 C.ar   65  G65         0.0000
   1121  O6        32.2730   45.0840   76.4850 O.2    65  G65         0.0000
   1122  N7        34.6570   44.7300   78.4500 N.ar   65  G65         0.0000
   1123  C8        35.8050   45.0990   78.9490 C.ar   65  G65         0.0000
   1124  N9        36.3120   46.2280   78.3510 N.ar   65  G65         0.0000
   1125  OP1       37.7450   44.0510   84.2320 O.3    65  G65        -0.5000
   1126  OP2       35.5410   43.4550   83.0590 O.co2  65  G65        -0.5000
   1127  P         35.9870   49.6570   82.3100 P.3    66  G66         0.0000
   1128  C5'       36.1600   51.2600   80.2240 C.3    66  G66         0.0000
   1129  O5'       35.3870   50.3280   80.9890 O.3    66  G66         0.0000
   1130  C4'       35.3560   51.8140   79.0620 C.3    66  G66         0.0000
   1131  O4'       35.0640   50.7640   78.1010 O.3    66  G66         0.0000
   1132  C3'       33.9900   52.3800   79.3990 C.3    66  G66         0.0000
   1133  O3'       34.0720   53.7100   79.8630 O.3    66  G66         0.0000
   1134  C2'       33.2850   52.3380   78.0540 C.3    66  G66         0.0000
   1135  O2'       33.6760   53.4070   77.2190 O.3    66  G66         0.0000
   1136  C1'       33.8030   51.0150   77.4940 C.3    66  G66         0.0000
   1137  N1        29.5150   48.6570   76.2450 N.ar   66  G66         0.0000
   1138  C2        30.0940   49.7730   75.6980 C.ar   66  G66         0.0000
   1139  N2        29.4500   50.3310   74.6660 N.pl3  66  G66         0.0000
   1140  N3        31.2220   50.3030   76.1260 N.ar   66  G66         0.0000
   1141  C4        31.7410   49.6150   77.1590 C.ar   66  G66         0.0000
   1142  C5        31.2470   48.4930   77.7800 C.ar   66  G66         0.0000
   1143  C6        30.0300   47.9340   77.3130 C.ar   66  G66         0.0000
   1144  O6        29.4260   46.9410   77.7310 O.2    66  G66         0.0000
   1145  N7        32.0860   48.0920   78.8100 N.ar   66  G66         0.0000
   1146  C8        33.0570   48.9610   78.7890 C.ar   66  G66         0.0000
   1147  N9        32.9080   49.9080   77.8070 N.ar   66  G66         0.0000
   1148  OP1       36.4630   50.7370   83.2110 O.3    66  G66        -0.5000
   1149  OP2       35.0010   48.6720   82.8190 O.co2  66  G66        -0.5000
   1150  P         32.8150   54.3450   80.6250 P.3    67  A67         0.0000
   1151  C5'       30.5550   55.2540   79.7310 C.3    67  A67         0.0000
   1152  O5'       31.9070   54.9390   79.4650 O.3    67  A67         0.0000
   1153  C4'       29.7340   55.0940   78.4900 C.3    67  A67         0.0000
   1154  O4'       30.0610   53.8400   77.8320 O.3    67  A67         0.0000
   1155  C3'       28.2600   54.9810   78.7970 C.3    67  A67         0.0000
   1156  O3'       27.6790   56.2560   79.0330 O.3    67  A67         0.0000
   1157  C2'       27.7410   54.2270   77.5850 C.3    67  A67         0.0000
   1158  O2'       27.5910   55.0440   76.4460 O.3    67  A67         0.0000
   1159  C1'       28.8710   53.2170   77.3760 C.3    67  A67         0.0000
   1160  N1        26.0660   48.9710   78.1490 N.ar   67  A67         0.0000
   1161  C2        26.0270   49.9110   77.1930 C.ar   67  A67         0.0000
   1162  N3        26.7880   50.9870   77.0370 N.ar   67  A67         0.0000
   1163  C4        27.7010   51.0620   78.0190 C.ar   67  A67         0.0000
   1164  C5        27.8660   50.1740   79.0670 C.ar   67  A67         0.0000
   1165  C6        26.9920   49.0780   79.1210 C.ar   67  A67         0.0000
   1166  N6        27.0270   48.1450   80.0760 N.pl3  67  A67         0.0000
   1167  N7        28.9160   50.5690   79.8810 N.ar   67  A67         0.0000
   1168  C8        29.3550   51.6670   79.3180 C.ar   67  A67         0.0000
   1169  N9        28.6580   52.0300   78.1960 N.ar   67  A67         0.0000
   1170  OP1       33.3010   55.4810   81.4540 O.3    67  A67        -0.5000
   1171  OP2       32.0350   53.2410   81.2530 O.co2  67  A67        -0.5000
   1172  P         26.8010   56.4780   80.3640 P.3    68  U68         0.0000
   1173  C5'       25.0090   56.0650   78.5270 C.3    68  U68         0.0000
   1174  O5'       25.3430   56.0620   79.8980 O.3    68  U68         0.0000
   1175  C4'       24.0310   54.9700   78.2480 C.3    68  U68         0.0000
   1176  O4'       24.6970   53.6870   78.2350 O.3    68  U68         0.0000
   1177  C3'       22.9950   54.7660   79.3260 C.3    68  U68         0.0000
   1178  O3'       21.9880   55.7520   79.2910 O.3    68  U68         0.0000
   1179  C2'       22.4630   53.3910   78.9770 C.3    68  U68         0.0000
   1180  O2'       21.5220   53.4250   77.9280 O.3    68  U68         0.0000
   1181  C1'       23.7450   52.6810   78.5380 C.3    68  U68         0.0000
   1182  N1        24.2540   51.8430   79.6270 N.ar   68  U68         0.0000
   1183  C2        23.7050   50.5800   79.7380 C.ar   68  U68         0.0000
   1184  O2        22.8690   50.1530   78.9540 O.2    68  U68         0.0000
   1185  N3        24.1630   49.8350   80.7980 N.ar   68  U68         0.0000
   1186  C4        25.0960   50.2150   81.7320 C.ar   68  U68         0.0000
   1187  O4        25.3900   49.4310   82.6430 O.2    68  U68         0.0000
   1188  C5        25.6340   51.5370   81.5370 C.ar   68  U68         0.0000
   1189  C6        25.2060   52.2860   80.5120 C.ar   68  U68         0.0000
   1190  OP1       26.8000   57.9290   80.6960 O.2    68  U68        -0.5000
   1191  OP2       27.2310   55.4830   81.3970 O.co2  68  U68        -0.5000
   1192  P         21.5060   56.4140   80.6640 P.3    69  A69         0.0000
   1193  C5'       19.7870   55.4630   82.4200 C.3    69  A69         0.0000
   1194  O5'       20.2020   55.5890   81.0580 O.3    69  A69         0.0000
   1195  C4'       18.9260   54.2340   82.5770 C.3    69  A69         0.0000
   1196  O4'       17.7630   54.3820   81.7230 O.3    69  A69         0.0000
   1197  C3'       19.5820   52.9440   82.1040 C.3    69  A69         0.0000
   1198  O3'       20.2870   52.3040   83.1530 O.3    69  A69         0.0000
   1199  C2'       18.3970   52.0800   81.7140 C.3    69  A69         0.0000
   1200  O2'       17.8640   51.3970   82.8260 O.3    69  A69         0.0000
   1201  C1'       17.4100   53.1200   81.1790 C.3    69  A69         0.0000
   1202  N1        15.8750   50.8790   76.8190 N.ar   69  A69         0.0000
   1203  C2        15.8000   50.5050   78.1000 C.ar   69  A69         0.0000
   1204  N3        16.2350   51.1320   79.1880 N.ar   69  A69         0.0000
   1205  C4        16.8240   52.2980   78.8620 C.ar   69  A69         0.0000
   1206  C5        16.9830   52.8150   77.5900 C.ar   69  A69         0.0000
   1207  C6        16.4680   52.0490   76.5230 C.ar   69  A69         0.0000
   1208  N6        16.5310   52.4150   75.2460 N.pl3  69  A69         0.0000
   1209  N7        17.6540   54.0330   77.6370 N.ar   69  A69         0.0000
   1210  C8        17.8740   54.2240   78.9160 C.ar   69  A69         0.0000
   1211  N9        17.3860   53.2210   79.7160 N.ar   69  A69         0.0000
   1212  OP1       21.1100   57.8130   80.3660 O.3    69  A69         0.0000
   1213  OP2       22.5440   56.1410   81.6930 O.co2  69  A69        -1.0000
   1214  P         21.5580   51.3960   82.8110 P.3    70  A70         0.0000
   1215  C5'       20.3250   49.1160   82.6880 C.3    70  A70         0.0000
   1216  O5'       20.9520   50.1750   81.9990 O.3    70  A70         0.0000
   1217  C4'       19.7440   48.1460   81.7090 C.3    70  A70         0.0000
   1218  O4'       18.8360   48.8650   80.8440 O.3    70  A70         0.0000
   1219  C3'       20.7310   47.5150   80.7500 C.3    70  A70         0.0000
   1220  O3'       21.3420   46.3890   81.3810 O.3    70  A70         0.0000
   1221  C2'       19.8250   47.1160   79.5870 C.3    70  A70         0.0000
   1222  O2'       19.0970   45.9340   79.8460 O.3    70  A70         0.0000
   1223  C1'       18.8400   48.2840   79.5550 C.3    70  A70         0.0000
   1224  N1        18.7950   49.7690   74.6410 N.ar   70  A70         0.0000
   1225  C2        18.3280   48.6790   75.2410 C.ar   70  A70         0.0000
   1226  N3        18.3560   48.3520   76.5270 N.ar   70  A70         0.0000
   1227  C4        18.9570   49.3150   77.2460 C.ar   70  A70         0.0000
   1228  C5        19.4810   50.4960   76.7660 C.ar   70  A70         0.0000
   1229  C6        19.3910   50.7150   75.3990 C.ar   70  A70         0.0000
   1230  N6        19.8650   51.8050   74.8080 N.pl3  70  A70         0.0000
   1231  N7        20.0200   51.2520   77.7960 N.ar   70  A70         0.0000
   1232  C8        19.8200   50.5170   78.8620 C.ar   70  A70         0.0000
   1233  N9        19.1890   49.3280   78.6000 N.ar   70  A70         0.0000
   1234  OP1       22.0750   50.8330   84.0770 O.3    70  A70        -0.5000
   1235  OP2       22.4570   52.1970   81.9370 O.co2  70  A70        -0.5000
   1236  P         22.8860   46.0370   81.0770 P.3    71  U71         0.0000
   1237  C5'       22.1260   44.0170   79.5850 C.3    71  U71         0.0000
   1238  O5'       22.8310   45.2500   79.6940 O.3    71  U71         0.0000
   1239  C4'       21.8160   43.7130   78.1380 C.3    71  U71         0.0000
   1240  O4'       20.9860   44.7700   77.6070 O.3    71  U71         0.0000
   1241  C3'       22.9780   43.6540   77.1610 C.3    71  U71         0.0000
   1242  O3'       23.6110   42.3780   77.2580 O.3    71  U71         0.0000
   1243  C2'       22.2500   43.8480   75.8340 C.3    71  U71         0.0000
   1244  O2'       21.5480   42.6930   75.4170 O.3    71  U71         0.0000
   1245  C1'       21.1930   44.8820   76.2160 C.3    71  U71         0.0000
   1246  N1        21.5620   46.2680   75.9070 N.ar   71  U71         0.0000
   1247  C2        21.0370   46.8200   74.7600 C.ar   71  U71         0.0000
   1248  O2        20.2620   46.2220   74.0390 O.2    71  U71         0.0000
   1249  N3        21.4480   48.0980   74.4880 N.ar   71  U71         0.0000
   1250  C4        22.3040   48.8650   75.2360 C.ar   71  U71         0.0000
   1251  O4        22.5990   49.9930   74.8450 O.2    71  U71         0.0000
   1252  C5        22.7880   48.2330   76.4220 C.ar   71  U71         0.0000
   1253  C6        22.4080   46.9860   76.7110 C.ar   71  U71         0.0000
   1254  OP1       23.3140   45.1100   82.1560 O.3    71  U71        -0.5000
   1255  OP2       23.6700   47.2760   80.8150 O.co2  71  U71        -0.5000
   1256  P         25.1380   42.1880   76.7830 P.3    72  G72         0.0000
   1257  C5'       26.1280   42.2730   74.3400 C.3    72  G72         0.0000
   1258  O5'       25.0110   42.0570   75.1980 O.3    72  G72         0.0000
   1259  C4'       25.8480   41.7200   72.9530 C.3    72  G72         0.0000
   1260  O4'       25.7740   40.2650   73.0010 O.3    72  G72         0.0000
   1261  C3'       24.5370   42.1140   72.2790 C.3    72  G72         0.0000
   1262  O3'       24.5990   43.4190   71.6880 O.3    72  G72         0.0000
   1263  C2'       24.4190   41.0260   71.2160 C.3    72  G72         0.0000
   1264  O2'       25.2990   41.2480   70.1330 O.3    72  G72         0.0000
   1265  C1'       24.8960   39.7930   71.9850 C.3    72  G72         0.0000
   1266  N1        20.8390   36.7610   71.2470 N.ar   72  G72         0.0000
   1267  C2        21.7640   37.2070   70.3310 C.ar   72  G72         0.0000
   1268  N2        21.5650   36.8160   69.0530 N.pl3  72  G72         0.0000
   1269  N3        22.8070   37.9820   70.6430 N.ar   72  G72         0.0000
   1270  C4        22.8450   38.2790   71.9690 C.ar   72  G72         0.0000
   1271  C5        21.9680   37.8830   72.9620 C.ar   72  G72         0.0000
   1272  C6        20.8500   37.0570   72.6080 C.ar   72  G72         0.0000
   1273  O6        19.9510   36.6200   73.3370 O.2    72  G72         0.0000
   1274  N7        22.3560   38.3990   74.1980 N.ar   72  G72         0.0000
   1275  C8        23.4390   39.0890   73.9410 C.ar   72  G72         0.0000
   1276  N9        23.7860   39.0780   72.6100 N.ar   72  G72         0.0000
   1277  OP1       25.5880   40.8850   77.3220 O.3    72  G72        -0.5000
   1278  OP2       25.9050   43.4080   77.1170 O.co2  72  G72        -0.5000
   1279  P         23.2570   44.1200   71.1190 P.3    73  C73         0.0000
   1280  C5'       22.9040   46.6820   70.7240 C.3    73  C73         0.0000
   1281  O5'       23.4300   45.6440   71.5350 O.3    73  C73         0.0000
   1282  C4'       23.7230   47.9360   70.8920 C.3    73  C73         0.0000
   1283  O4'       23.6780   48.3640   72.2800 O.3    73  C73         0.0000
   1284  C3'       25.2010   47.7850   70.5850 C.3    73  C73         0.0000
   1285  O3'       25.4160   47.9530   69.1900 O.3    73  C73         0.0000
   1286  C2'       25.8050   48.9210   71.3980 C.3    73  C73         0.0000
   1287  O2'       25.6580   50.1700   70.7650 O.3    73  C73         0.0000
   1288  C1'       24.9360   48.8860   72.6580 C.3    73  C73         0.0000
   1289  N1        25.4880   48.0060   73.6940 N.ar   73  C73         0.0000
   1290  C2        26.6840   48.3670   74.3240 C.ar   73  C73         0.0000
   1291  O2        27.2300   49.4410   74.0130 O.2    73  C73         0.0000
   1292  N3        27.2150   47.5370   75.2560 N.ar   73  C73         0.0000
   1293  C4        26.5950   46.3980   75.5630 C.ar   73  C73         0.0000
   1294  N4        27.1610   45.6090   76.4650 N.pl3  73  C73         0.0000
   1295  C5        25.3690   46.0200   74.9510 C.ar   73  C73         0.0000
   1296  C6        24.8560   46.8440   74.0310 C.ar   73  C73         0.0000
   1297  OP1       22.0570   43.6040   71.8350 O.3    73  C73        -0.5000
   1298  OP2       23.3100   44.0580   69.6380 O.co2  73  C73        -0.5000
   1299  P         26.7140   47.3150   68.4910 P.3    74  C74         0.0000
   1300  C5'       28.0070   49.5900   68.6010 C.3    74  C74         0.0000
   1301  O5'       27.8990   48.2350   69.0100 O.3    74  C74         0.0000
   1302  C4'       29.3150   50.1590   69.0760 C.3    74  C74         0.0000
   1303  O4'       29.2720   50.3080   70.5170 O.3    74  C74         0.0000
   1304  C3'       30.5050   49.2500   68.8280 C.3    74  C74         0.0000
   1305  O3'       31.0360   49.4140   67.5240 O.3    74  C74         0.0000
   1306  C2'       31.4890   49.6970   69.8950 C.3    74  C74         0.0000
   1307  O2'       32.2260   50.8430   69.5250 O.3    74  C74         0.0000
   1308  C1'       30.5470   50.0090   71.0610 C.3    74  C74         0.0000
   1309  N1        30.4100   48.8740   71.9880 N.ar   74  C74         0.0000
   1310  C2        31.3840   48.6960   72.9660 C.ar   74  C74         0.0000
   1311  O2        32.3300   49.4990   73.0260 O.2    74  C74         0.0000
   1312  N3        31.2760   47.6560   73.8210 N.ar   74  C74         0.0000
   1313  C4        30.2500   46.8140   73.7220 C.ar   74  C74         0.0000
   1314  N4        30.1890   45.8100   74.5910 N.pl3  74  C74         0.0000
   1315  C5        29.2440   46.9690   72.7310 C.ar   74  C74         0.0000
   1316  C6        29.3590   48.0060   71.8950 C.ar   74  C74         0.0000
   1317  OP1       26.5930   47.5340   67.0310 O.2    74  C74        -0.5000
   1318  OP2       26.9170   45.9410   69.0100 O.co2  74  C74        -0.5000
   1319  P         31.7390   48.1700   66.8040 P.3    75  A75         0.0000
   1320  C5'       34.0450   49.0310   67.7250 C.3    75  A75         0.0000
   1321  O5'       33.0860   47.9770   67.6300 O.3    75  A75         0.0000
   1322  C4'       35.1130   48.6900   68.7440 C.3    75  A75         0.0000
   1323  O4'       34.5540   48.7510   70.0830 O.3    75  A75         0.0000
   1324  C3'       35.6970   47.2870   68.6570 C.3    75  A75         0.0000
   1325  O3'       36.7160   47.1750   67.6750 O.3    75  A75         0.0000
   1326  C2'       36.2570   47.0830   70.0580 C.3    75  A75         0.0000
   1327  O2'       37.5250   47.6660   70.2580 O.3    75  A75         0.0000
   1328  C1'       35.2070   47.7970   70.9090 C.3    75  A75         0.0000
   1329  N1        34.4820   43.8270   74.0300 N.ar   75  A75         0.0000
   1330  C2        35.5610   44.5500   73.7190 C.ar   75  A75         0.0000
   1331  N3        35.6730   45.5740   72.8850 N.ar   75  A75         0.0000
   1332  C4        34.4880   45.8570   72.3220 C.ar   75  A75         0.0000
   1333  C5        33.2910   45.2100   72.5390 C.ar   75  A75         0.0000
   1334  C6        33.3050   44.1390   73.4460 C.ar   75  A75         0.0000
   1335  N6        32.2280   43.4210   73.7600 N.pl3  75  A75         0.0000
   1336  N7        32.2810   45.7850   71.7820 N.ar   75  A75         0.0000
   1337  C8        32.8840   46.7510   71.1360 C.ar   75  A75         0.0000
   1338  N9        34.2180   46.8540   71.4200 N.ar   75  A75         0.0000
   1339  OP1       32.0830   48.5640   65.4140 O.2    75  A75        -0.5000
   1340  OP2       30.8590   46.9920   67.0480 O.co2  75  A75        -0.5000
   1341  P         37.0210   45.7440   67.0140 P.3    76  G76         0.0000
   1342  C5'       38.9030   45.4240   68.8160 C.3    76  G76         0.0000
   1343  O5'       37.7520   44.9120   68.1640 O.3    76  G76         0.0000
   1344  C4'       39.3080   44.5270   69.9610 C.3    76  G76         0.0000
   1345  O4'       38.2740   44.5120   70.9750 O.3    76  G76         0.0000
   1346  C3'       39.5170   43.0630   69.6290 C.3    76  G76         0.0000
   1347  O3'       40.8340   42.8630   69.1620 O.3    76  G76         0.0000
   1348  C2'       39.3790   42.4010   70.9910 C.3    76  G76         0.0000
   1349  O2'       40.5810   42.4570   71.7270 O.3    76  G76         0.0000
   1350  C1'       38.3110   43.2710   71.6600 C.3    76  G76         0.0000
   1351  N1        35.0830   40.0600   73.9080 N.ar   76  G76         0.0000
   1352  C2        36.3540   40.4110   74.2740 C.ar   76  G76         0.0000
   1353  N2        36.8260   39.8300   75.3740 N.pl3  76  G76         0.0000
   1354  N3        37.1050   41.2680   73.6080 N.ar   76  G76         0.0000
   1355  C4        36.4680   41.7620   72.5210 C.ar   76  G76         0.0000
   1356  C5        35.1990   41.4820   72.0700 C.ar   76  G76         0.0000
   1357  C6        34.4030   40.5530   72.7970 C.ar   76  G76         0.0000
   1358  O6        33.2470   40.1660   72.5540 O.2    76  G76         0.0000
   1359  N7        34.9160   42.2020   70.9180 N.ar   76  G76         0.0000
   1360  C8        35.9980   42.8930   70.6930 C.ar   76  G76         0.0000
   1361  N9        36.9800   42.6720   71.6240 N.ar   76  G76         0.0000
   1362  OP1       37.9690   45.9780   65.8900 O.2    76  G76        -0.5000
   1363  OP2       35.7190   45.0770   66.7540 O.co2  76  G76        -0.5000
   1364  P         41.1540   41.6370   68.1840 P.3    77  C77         0.0000
   1365  C5'       41.0910   39.6830   69.9300 C.3    77  C77         0.0000
   1366  O5'       40.4540   40.3760   68.8650 O.3    77  C77         0.0000
   1367  C4'       40.1310   38.7090   70.5600 C.3    77  C77         0.0000
   1368  O4'       38.9020   39.4180   70.8380 O.3    77  C77         0.0000
   1369  C3'       39.6710   37.5500   69.6880 C.3    77  C77         0.0000
   1370  O3'       40.5790   36.4530   69.7710 O.3    77  C77         0.0000
   1371  C2'       38.3570   37.1530   70.3530 C.3    77  C77         0.0000
   1372  O2'       38.5520   36.3260   71.4820 O.3    77  C77         0.0000
   1373  C1'       37.8220   38.5060   70.8170 C.3    77  C77         0.0000
   1374  N1        36.7480   39.0470   69.9790 N.ar   77  C77         0.0000
   1375  C2        35.4420   38.6730   70.2770 C.ar   77  C77         0.0000
   1376  O2        35.2580   37.8800   71.2130 O.2    77  C77         0.0000
   1377  N3        34.4170   39.1780   69.5440 N.ar   77  C77         0.0000
   1378  C4        34.6720   40.0200   68.5390 C.ar   77  C77         0.0000
   1379  N4        33.6390   40.4980   67.8490 N.pl3  77  C77         0.0000
   1380  C5        36.0050   40.4090   68.1990 C.ar   77  C77         0.0000
   1381  C6        37.0040   39.9020   68.9410 C.ar   77  C77         0.0000
   1382  OP1       42.6180   41.3770   68.2510 O.3    77  C77        -0.5000
   1383  OP2       40.5090   41.9300   66.8740 O.co2  77  C77        -0.5000
   1384  P         41.5240   36.0810   68.5160 P.3    78  G78         0.0000
   1385  C5'       41.1260   35.9450   65.9250 C.3    78  G78         0.0000
   1386  O5'       40.6490   36.3570   67.2090 O.3    78  G78         0.0000
   1387  C4'       40.5940   36.8410   64.8190 C.3    78  G78         0.0000
   1388  O4'       39.1770   36.5910   64.6150 O.3    78  G78         0.0000
   1389  C3'       40.6980   38.3290   65.0970 C.3    78  G78         0.0000
   1390  O3'       41.6050   39.1180   64.3130 O.3    78  G78         0.0000
   1391  C2'       39.3290   38.7920   65.5940 C.3    78  G78         0.0000
   1392  O2'       38.9300   40.0130   65.0210 O.3    78  G78         0.0000
   1393  C1'       38.4020   37.6950   65.0600 C.3    78  G78         0.0000
   1394  N1        33.5040   37.8440   66.4010 N.pl3  78  G78         0.3300
   1395  C2        34.1590   38.5530   65.4270 C.cat  78  G78         0.0000
   1396  N2        33.4160   39.4020   64.7180 N.pl3  78  G78         0.3300
   1397  N3        35.4470   38.4380   65.1720 N.2    78  G78         0.3300
   1398  C4        36.0420   37.5470   65.9900 C.3    78  G78         0.0000
   1399  C5        35.4770   36.7910   66.9940 C.2    78  G78         0.0000
   1400  C6        34.0940   36.9170   67.2490 C.2    78  G78         0.0000
   1401  O6        33.4070   36.3240   68.0860 O.2    78  G78         0.0000
   1402  N7        36.4290   35.9970   67.6080 N.2    78  G78         0.0000
   1403  C8        37.5370   36.2720   66.9780 C.2    78  G78         0.0000
   1404  N9        37.3740   37.1980   65.9770 N.pl3  78  G78         0.0000
   1405  OP1       41.8050   34.6200   68.5930 O.3    78  G78        -0.5000
   1406  OP2       42.6540   37.0490   68.5060 O.co2  78  G78        -0.5000
   1407  P         41.2200   39.5330   62.7990 P.3    79  U79         0.0000
   1408  C5'       41.3050   38.0990   60.5680 C.3    79  U79         0.0000
   1409  O5'       41.7000   38.2770   61.9350 O.3    79  U79         0.0000
   1410  C4'       42.1520   37.0170   59.9210 C.3    79  U79         0.0000
   1411  O4'       43.5380   37.4620   59.8830 O.3    79  U79         0.0000
   1412  C3'       42.1820   35.6750   60.6510 C.3    79  U79         0.0000
   1413  O3'       41.1520   34.8160   60.1620 O.3    79  U79         0.0000
   1414  C2'       43.5500   35.1130   60.2740 C.3    79  U79         0.0000
   1415  O2'       43.5530   34.4520   59.0210 O.3    79  U79         0.0000
   1416  C1'       44.4020   36.3830   60.2050 C.3    79  U79         0.0000
   1417  OP1       42.0270   40.7270   62.4160 O.2    79  U79        -0.5000
   1418  OP2       39.7390   39.5840   62.7070 O.co2  79  U79        -0.5000
   1419  P         40.4980   33.7030   61.1270 P.3    80  A80         0.0000
   1420  C5'       41.7240   33.6390   63.4410 C.3    80  A80         0.0000
   1421  O5'       41.6800   33.2150   62.0840 O.3    80  A80         0.0000
   1422  C4'       41.8620   32.4560   64.3750 C.3    80  A80         0.0000
   1423  O4'       41.3220   32.8740   65.6590 O.3    80  A80         0.0000
   1424  C3'       41.0800   31.2060   63.9800 C.3    80  A80         0.0000
   1425  O3'       41.9600   30.3000   63.3040 O.3    80  A80         0.0000
   1426  C2'       40.6120   30.6520   65.3240 C.3    80  A80         0.0000
   1427  O2'       41.6020   29.8860   65.9740 O.3    80  A80         0.0000
   1428  C1'       40.3610   31.9380   66.1150 C.3    80  A80         0.0000
   1429  N1        35.4560   32.2630   67.7210 N.ar   80  A80         0.0000
   1430  C2        36.5060   31.5790   68.1920 C.ar   80  A80         0.0000
   1431  N3        37.7570   31.5400   67.7410 N.ar   80  A80         0.0000
   1432  C4        37.8960   32.3250   66.6590 C.ar   80  A80         0.0000
   1433  C5        36.9090   33.0910   66.0610 C.ar   80  A80         0.0000
   1434  C6        35.6270   33.0440   66.6340 C.ar   80  A80         0.0000
   1435  N6        34.5790   33.7260   66.1620 N.pl3  80  A80         0.0000
   1436  N7        37.4160   33.7790   64.9680 N.ar   80  A80         0.0000
   1437  C8        38.6730   33.4160   64.9230 C.ar   80  A80         0.0000
   1438  N9        39.0340   32.5320   65.9130 N.ar   80  A80         0.0000
   1439  OP1       40.0660   32.5460   60.2870 O.2    80  A80        -0.5000
   1440  OP2       39.5000   34.4170   61.9670 O.co2  80  A80        -0.5000
   1441  P         41.3810   28.9800   62.5730 P.3    81  G81         0.0000
   1442  C5'       41.0100   27.1440   64.3790 C.3    81  G81         0.0000
   1443  O5'       40.4950   28.2570   63.6760 O.3    81  G81         0.0000
   1444  C4'       39.8840   26.2930   64.8820 C.3    81  G81         0.0000
   1445  O4'       39.1260   27.0430   65.8680 O.3    81  G81         0.0000
   1446  C3'       38.8440   25.9260   63.8440 C.3    81  G81         0.0000
   1447  O3'       39.2540   24.8070   63.0890 O.3    81  G81         0.0000
   1448  C2'       37.6510   25.6020   64.7250 C.3    81  G81         0.0000
   1449  O2'       37.7980   24.3620   65.3860 O.3    81  G81         0.0000
   1450  C1'       37.7460   26.7290   65.7510 C.3    81  G81         0.0000
   1451  N1        33.3130   29.1760   65.6380 N.ar   81  G81         0.0000
   1452  C2        33.6300   27.9710   66.2190 C.ar   81  G81         0.0000
   1453  N2        32.6330   27.3260   66.8370 N.pl3  81  G81         0.0000
   1454  N3        34.8350   27.4380   66.1920 N.ar   81  G81         0.0000
   1455  C4        35.7150   28.2150   65.5200 C.ar   81  G81         0.0000
   1456  C5        35.4990   29.4320   64.9010 C.ar   81  G81         0.0000
   1457  C6        34.2020   29.9940   64.9430 C.ar   81  G81         0.0000
   1458  O6        33.8100   31.0640   64.4550 O.2    81  G81         0.0000
   1459  N7        36.6670   29.9030   64.3120 N.ar   81  G81         0.0000
   1460  C8        37.5540   28.9830   64.5790 C.ar   81  G81         0.0000
   1461  N9        37.0410   27.9290   65.3050 N.ar   81  G81         0.0000
   1462  OP1       42.5510   28.0990   62.3310 O.3    81  G81        -0.5000
   1463  OP2       40.5100   29.3770   61.4280 O.co2  81  G81        -0.5000
   1464  P         38.4230   24.3900   61.7850 P.3    82  G82         0.0000
   1465  C5'       36.0020   23.5310   61.5760 C.3    82  G82         0.0000
   1466  O5'       37.1710   23.6070   62.3520 O.3    82  G82         0.0000
   1467  C4'       34.7980   23.7580   62.4380 C.3    82  G82         0.0000
   1468  O4'       34.9160   25.0190   63.1460 O.3    82  G82         0.0000
   1469  C3'       33.5230   23.9280   61.6490 C.3    82  G82         0.0000
   1470  O3'       33.0300   22.6700   61.2240 O.3    82  G82         0.0000
   1471  C2'       32.6300   24.6240   62.6600 C.3    82  G82         0.0000
   1472  O2'       32.1150   23.7220   63.6100 O.3    82  G82         0.0000
   1473  C1'       33.6250   25.5790   63.3270 C.3    82  G82         0.0000
   1474  N1        30.7540   29.6020   62.1850 N.ar   82  G82         0.0000
   1475  C2        30.4130   28.4410   62.8220 C.ar   82  G82         0.0000
   1476  N2        29.1390   28.3320   63.2010 N.pl3  82  G82         0.0000
   1477  N3        31.2620   27.4570   63.0720 N.ar   82  G82         0.0000
   1478  C4        32.5070   27.7330   62.6230 C.ar   82  G82         0.0000
   1479  C5        32.9530   28.8600   61.9720 C.ar   82  G82         0.0000
   1480  C6        32.0240   29.9120   61.7140 C.ar   82  G82         0.0000
   1481  O6        32.2190   30.9940   61.1560 O.2    82  G82         0.0000
   1482  N7        34.3060   28.7530   61.6710 N.ar   82  G82         0.0000
   1483  C8        34.6500   27.5820   62.1380 C.ar   82  G82         0.0000
   1484  N9        33.6040   26.9090   62.7230 N.ar   82  G82         0.0000
   1485  OP1       39.2330   23.4180   61.0140 O.2    82  G82        -0.5000
   1486  OP2       37.9160   25.6210   61.1200 O.co2  82  G82        -0.5000
   1487  P         32.7080   22.4470   59.6720 P.3    83  G83         0.0000
   1488  C5'       30.3710   23.5560   60.1590 C.3    83  G83         0.0000
   1489  O5'       31.5830   23.5450   59.3970 O.3    83  G83         0.0000
   1490  C4'       29.4950   24.7200   59.7480 C.3    83  G83         0.0000
   1491  O4'       29.9900   25.9520   60.3260 O.3    83  G83         0.0000
   1492  C3'       29.4170   24.9800   58.2540 C.3    83  G83         0.0000
   1493  O3'       28.4260   24.1490   57.6500 O.3    83  G83         0.0000
   1494  C2'       29.0500   26.4590   58.2080 C.3    83  G83         0.0000
   1495  O2'       27.6680   26.6990   58.4030 O.3    83  G83         0.0000
   1496  C1'       29.8420   27.0080   59.3980 C.3    83  G83         0.0000
   1497  N1        32.6730   30.9760   57.9580 N.ar   83  G83         0.0000
   1498  C2        31.3170   30.8970   58.1340 C.ar   83  G83         0.0000
   1499  N2        30.6290   32.0200   57.9030 N.pl3  83  G83         0.0000
   1500  N3        30.6830   29.7970   58.5050 N.ar   83  G83         0.0000
   1501  C4        31.5280   28.7610   58.6790 C.ar   83  G83         0.0000
   1502  C5        32.8960   28.7330   58.5250 C.ar   83  G83         0.0000
   1503  C6        33.5660   29.9250   58.1350 C.ar   83  G83         0.0000
   1504  O6        34.7800   30.1080   57.9510 O.2    83  G83         0.0000
   1505  N7        33.3960   27.4670   58.7930 N.ar   83  G83         0.0000
   1506  C8        32.3440   26.7630   59.1040 C.ar   83  G83         0.0000
   1507  N9        31.1800   27.4890   59.0660 N.ar   83  G83         0.0000
   1508  OP1       32.1020   21.0930   59.5350 O.3    83  G83        -0.5000
   1509  OP2       33.9160   22.8020   58.8730 O.co2  83  G83        -0.5000
   1510  P         28.8060   23.2650   56.3630 P.3    84  A84         0.0000
   1511  C5'       26.4250   23.1650   55.2510 C.3    84  A84         0.0000
   1512  O5'       27.7430   23.7040   55.2650 O.3    84  A84         0.0000
   1513  C4'       25.5610   23.9800   54.3220 C.3    84  A84         0.0000
   1514  O4'       25.3130   25.2760   54.9250 O.3    84  A84         0.0000
   1515  C3'       26.2130   24.2950   52.9860 C.3    84  A84         0.0000
   1516  O3'       25.9760   23.2530   52.0500 O.3    84  A84         0.0000
   1517  C2'       25.5190   25.5890   52.5890 C.3    84  A84         0.0000
   1518  O2'       24.2260   25.3650   52.0660 O.3    84  A84         0.0000
   1519  C1'       25.4090   26.2920   53.9410 C.3    84  A84         0.0000
   1520  N1        27.0750   31.0300   55.0470 N.ar   84  A84         0.0000
   1521  C2        25.8700   30.5590   54.7270 C.ar   84  A84         0.0000
   1522  N3        25.5010   29.3170   54.4380 N.ar   84  A84         0.0000
   1523  C4        26.5540   28.4830   54.5030 C.ar   84  A84         0.0000
   1524  C5        27.8560   28.8220   54.8170 C.ar   84  A84         0.0000
   1525  C6        28.1110   30.1720   55.1000 C.ar   84  A84         0.0000
   1526  N6        29.3160   30.6480   55.4150 N.pl3  84  A84         0.0000
   1527  N7        28.6770   27.7020   54.7830 N.ar   84  A84         0.0000
   1528  C8        27.8650   26.7260   54.4560 C.ar   84  A84         0.0000
   1529  N9        26.5630   27.1260   54.2790 N.ar   84  A84         0.0000
   1530  OP1       28.5710   21.8350   56.6660 O.3    84  A84        -0.5000
   1531  OP2       30.1510   23.7150   55.8960 O.co2  84  A84        -0.5000
   1532  P         27.1020   22.8930   50.9580 P.3    85  A85         0.0000
   1533  C5'       28.1260   24.3120   48.9840 C.3    85  A85         0.0000
   1534  O5'       27.2600   24.2430   50.1190 O.3    85  A85         0.0000
   1535  C4'       27.4180   23.7570   47.7720 C.3    85  A85         0.0000
   1536  O4'       26.2970   24.6150   47.4360 O.3    85  A85         0.0000
   1537  C3'       28.3140   23.7300   46.5390 C.3    85  A85         0.0000
   1538  O3'       28.3400   22.4250   45.9480 O.3    85  A85         0.0000
   1539  C2'       27.9560   24.9790   45.7290 C.3    85  A85         0.0000
   1540  O2'       27.8750   24.7730   44.3370 O.3    85  A85         0.0000
   1541  C1'       26.5320   25.2540   46.2060 C.3    85  A85         0.0000
   1542  N1        22.6240   28.3180   45.3510 N.ar   85  A85         0.0000
   1543  C2        22.7080   26.9540   45.2800 C.ar   85  A85         0.0000
   1544  N3        23.7930   26.2600   45.5640 N.ar   85  A85         0.0000
   1545  C4        24.8120   27.0530   45.9360 C.ar   85  A85         0.0000
   1546  C5        24.8390   28.4230   46.0480 C.ar   85  A85         0.0000
   1547  C6        23.6560   29.1600   45.7280 C.ar   85  A85         0.0000
   1548  N6        23.4720   30.3800   45.7430 N.pl3  85  A85         0.0000
   1549  N7        26.0920   28.8550   46.4670 N.ar   85  A85         0.0000
   1550  C8        26.7870   27.7560   46.5910 C.ar   85  A85         0.0000
   1551  N9        26.0730   26.6330   46.2630 N.ar   85  A85         0.0000
   1552  OP1       26.5310   21.8410   50.0750 O.2    85  A85        -0.5000
   1553  OP2       28.3860   22.6410   51.6750 O.co2  85  A85        -0.5000
   1554  P         29.2160   22.1330   44.6360 P.3    86  G86         0.0000
   1555  C5'       28.0530   22.7070   42.3420 C.3    86  G86         0.0000
   1556  O5'       28.1150   21.8800   43.5070 O.3    86  G86         0.0000
   1557  C4'       26.6450   22.7410   41.7850 C.3    86  G86         0.0000
   1558  O4'       25.7670   23.4810   42.6870 O.3    86  G86         0.0000
   1559  C3'       26.4770   23.5140   40.4890 C.3    86  G86         0.0000
   1560  O3'       26.9250   22.8060   39.3450 O.3    86  G86         0.0000
   1561  C2'       24.9760   23.7570   40.4750 C.3    86  G86         0.0000
   1562  O2'       24.2290   22.6030   40.1590 O.3    86  G86         0.0000
   1563  C1'       24.7460   24.1320   41.9350 C.3    86  G86         0.0000
   1564  N1        22.4010   28.6360   41.4810 N.ar   86  G86         0.0000
   1565  C2        21.9560   27.3840   41.1530 C.ar   86  G86         0.0000
   1566  N2        20.7220   27.3250   40.6330 N.pl3  86  G86         0.0000
   1567  N3        22.6660   26.2730   41.3190 N.ar   86  G86         0.0000
   1568  C4        23.8900   26.5190   41.8430 C.ar   86  G86         0.0000
   1569  C5        24.4380   27.7280   42.2040 C.ar   86  G86         0.0000
   1570  C6        23.6460   28.9230   42.0300 C.ar   86  G86         0.0000
   1571  O6        23.9360   30.0990   42.3040 O.2    86  G86         0.0000
   1572  N7        25.7270   27.5530   42.7020 N.ar   86  G86         0.0000
   1573  C8        25.9310   26.2660   42.6390 C.ar   86  G86         0.0000
   1574  N9        24.8580   25.5760   42.1330 N.ar   86  G86         0.0000
   1575  OP1       29.9290   20.8550   44.8920 O.3    86  G86        -0.5000
   1576  OP2       30.0000   23.3560   44.2960 O.co2  86  G86        -0.5000
   1577  P         27.4530   23.6300   38.0730 P.3    87  U87         0.0000
   1578  C5'       25.0870   23.5640   36.9560 C.3    87  U87         0.0000
   1579  O5'       26.1410   24.3450   37.5130 O.3    87  U87         0.0000
   1580  C4'       23.9520   24.4460   36.4810 C.3    87  U87         0.0000
   1581  O4'       23.3580   25.1420   37.6110 O.3    87  U87         0.0000
   1582  C3'       24.2900   25.5580   35.5010 C.3    87  U87         0.0000
   1583  O3'       24.3620   25.0800   34.1640 O.3    87  U87         0.0000
   1584  C2'       23.0940   26.4810   35.6800 C.3    87  U87         0.0000
   1585  O2'       21.9330   25.9890   35.0330 O.3    87  U87         0.0000
   1586  C1'       22.9080   26.4240   37.1970 C.3    87  U87         0.0000
   1587  N1        23.7210   27.4320   37.8940 N.ar   87  U87         0.0000
   1588  C2        23.1960   28.7070   38.0480 C.ar   87  U87         0.0000
   1589  O2        22.0970   29.0310   37.6260 O.2    87  U87         0.0000
   1590  N3        24.0110   29.5890   38.7130 N.ar   87  U87         0.0000
   1591  C4        25.2640   29.3340   39.2220 C.ar   87  U87         0.0000
   1592  O4        25.8760   30.2320   39.7910 O.2    87  U87         0.0000
   1593  C5        25.7330   28.0000   39.0200 C.ar   87  U87         0.0000
   1594  C6        24.9670   27.1180   38.3790 C.ar   87  U87         0.0000
   1595  OP1       27.9120   22.6570   37.0440 O.2    87  U87        -0.5000
   1596  OP2       28.3950   24.6580   38.5910 O.co2  87  U87        -0.5000
   1597  P         25.1840   25.9170   33.0660 P.3    88  C88         0.0000
   1598  C5'       23.0070   27.1280   32.2590 C.3    88  C88         0.0000
   1599  O5'       24.3040   27.2230   32.8230 O.3    88  C88         0.0000
   1600  C4'       22.3020   28.4540   32.3600 C.3    88  C88         0.0000
   1601  O4'       22.2210   28.8190   33.7600 O.3    88  C88         0.0000
   1602  C3'       22.9870   29.6490   31.7080 C.3    88  C88         0.0000
   1603  O3'       22.6570   29.7860   30.3260 O.3    88  C88         0.0000
   1604  C2'       22.3680   30.8020   32.4750 C.3    88  C88         0.0000
   1605  O2'       21.0600   31.0750   32.0090 O.3    88  C88         0.0000
   1606  C1'       22.3130   30.2230   33.8890 C.3    88  C88         0.0000
   1607  N1        23.5130   30.5340   34.6710 N.ar   88  C88         0.0000
   1608  C2        23.5900   31.7640   35.3340 C.ar   88  C88         0.0000
   1609  O2        22.6670   32.5690   35.2020 O.2    88  C88         0.0000
   1610  N3        24.6720   32.0430   36.0970 N.ar   88  C88         0.0000
   1611  C4        25.6580   31.1520   36.1960 C.ar   88  C88         0.0000
   1612  N4        26.6940   31.4530   36.9640 N.pl3  88  C88         0.0000
   1613  C5        25.6180   29.9030   35.5090 C.ar   88  C88         0.0000
   1614  C6        24.5360   29.6380   34.7640 C.ar   88  C88         0.0000
   1615  OP1       25.2020   25.1360   31.8040 O.2    88  C88        -0.5000
   1616  OP2       26.4660   26.3440   33.6830 O.co2  88  C88        -0.5000
   1617  P         23.5750   30.7120   29.3680 P.3    89  G89         0.0000
   1618  C5'       22.2070   32.9530   29.6100 C.3    89  G89         0.0000
   1619  O5'       23.3850   32.2000   29.9140 O.3    89  G89         0.0000
   1620  C4'       22.2780   34.3310   30.2340 C.3    89  G89         0.0000
   1621  O4'       22.5830   34.1940   31.6470 O.3    89  G89         0.0000
   1622  C3'       23.3740   35.2520   29.7220 C.3    89  G89         0.0000
   1623  O3'       22.9480   35.9010   28.5310 O.3    89  G89         0.0000
   1624  C2'       23.5310   36.2330   30.8800 C.3    89  G89         0.0000
   1625  O2'       22.4920   37.1930   30.9490 O.3    89  G89         0.0000
   1626  C1'       23.3440   35.3070   32.0750 C.3    89  G89         0.0000
   1627  N1        27.1120   36.4880   35.2310 N.ar   89  G89         0.0000
   1628  C2        26.1350   37.2880   34.6970 C.ar   89  G89         0.0000
   1629  N2        26.1360   38.5720   35.0980 N.pl3  89  G89         0.0000
   1630  N3        25.2270   36.8660   33.8350 N.ar   89  G89         0.0000
   1631  C4        25.3760   35.5610   33.5390 C.ar   89  G89         0.0000
   1632  C5        26.3190   34.6740   34.0080 C.ar   89  G89         0.0000
   1633  C6        27.2900   35.1410   34.9450 C.ar   89  G89         0.0000
   1634  O6        28.2040   34.5180   35.4940 O.2    89  G89         0.0000
   1635  N7        26.1330   33.4160   33.4440 N.ar   89  G89         0.0000
   1636  C8        25.0900   33.5610   32.6700 C.ar   89  G89         0.0000
   1637  N9        24.5640   34.8290   32.7110 N.ar   89  G89         0.0000
   1638  OP1       22.9670   30.6490   28.0110 O.2    89  G89        -0.5000
   1639  OP2       25.0110   30.3420   29.5540 O.co2  89  G89        -0.5000
   1640  P         24.0390   36.4340   27.4830 P.3    90  C90         0.0000
   1641  C5'       23.7300   38.8080   28.5530 C.3    90  C90         0.0000
   1642  O5'       24.6050   37.7660   28.1470 O.3    90  C90         0.0000
   1643  C4'       24.4730   39.7830   29.4200 C.3    90  C90         0.0000
   1644  O4'       24.8940   39.1100   30.6240 O.3    90  C90         0.0000
   1645  C3'       25.7710   40.2840   28.8200 C.3    90  C90         0.0000
   1646  O3'       25.5070   41.3820   27.9670 O.3    90  C90         0.0000
   1647  C2'       26.5550   40.7080   30.0540 C.3    90  C90         0.0000
   1648  O2'       26.1220   41.9550   30.5610 O.3    90  C90         0.0000
   1649  C1'       26.1310   39.6410   31.0540 C.3    90  C90         0.0000
   1650  N1        27.0580   38.5290   31.2830 N.ar   90  C90         0.0000
   1651  C2        28.0700   38.6910   32.2180 C.ar   90  C90         0.0000
   1652  O2        28.2220   39.7990   32.7460 O.2    90  C90         0.0000
   1653  N3        28.8550   37.6380   32.5310 N.ar   90  C90         0.0000
   1654  C4        28.6650   36.4640   31.9310 C.ar   90  C90         0.0000
   1655  N4        29.4410   35.4470   32.2950 N.pl3  90  C90         0.0000
   1656  C5        27.6710   36.2840   30.9380 C.ar   90  C90         0.0000
   1657  C6        26.9000   37.3370   30.6410 C.ar   90  C90         0.0000
   1658  OP1       23.3500   36.8140   26.2280 O.2    90  C90        -0.5000
   1659  OP2       25.1460   35.4390   27.4490 O.co2  90  C90        -0.5000
   1660  P         26.2540   41.4770   26.5570 P.3    91  A91         0.0000
   1661  C5'       26.1250   39.9200   24.4390 C.3    91  A91         0.0000
   1662  O5'       25.5050   40.4140   25.6290 O.3    91  A91         0.0000
   1663  C4'       25.3100   40.2840   23.2140 C.3    91  A91         0.0000
   1664  O4'       23.9510   39.8690   23.4470 O.3    91  A91         0.0000
   1665  C3'       25.2080   41.7620   22.8430 C.3    91  A91         0.0000
   1666  O3'       26.1200   42.1510   21.7700 O.3    91  A91         0.0000
   1667  C2'       23.8950   41.8350   22.0810 C.3    91  A91         0.0000
   1668  O2'       24.1430   41.5950   20.6990 O.3    91  A91         0.0000
   1669  C1'       23.0720   40.7210   22.7440 C.3    91  A91         0.0000
   1670  N1        18.1190   42.0190   23.1330 N.ar   91  A91         0.0000
   1671  C2        18.9130   41.7890   22.0790 C.ar   91  A91         0.0000
   1672  N3        20.2020   41.4860   22.0470 N.ar   91  A91         0.0000
   1673  C4        20.7020   41.4220   23.2900 C.ar   91  A91         0.0000
   1674  C5        20.0150   41.6310   24.4720 C.ar   91  A91         0.0000
   1675  C6        18.6490   41.9450   24.3670 C.ar   91  A91         0.0000
   1676  N6        17.8550   42.1690   25.4100 N.pl3  91  A91         0.0000
   1677  N7        20.8560   41.4730   25.5640 N.ar   91  A91         0.0000
   1678  C8        22.0140   41.1760   25.0250 C.ar   91  A91         0.0000
   1679  N9        21.9880   41.1070   23.6530 N.ar   91  A91         0.0000
   1680  OP1       27.6620   41.0340   26.7360 O.3    91  A91        -0.5000
   1681  OP2       25.9760   42.8370   26.0200 O.co2  91  A91        -0.5000
   1682 MG         31.3010   36.9640   68.2600 Mg     98  MG98        0.0000
   1683 MG         31.1430   42.4730   69.1400 Mg     99  MG99        0.0000
   1684 CA         30.5960   40.0420   83.3100 Ca    100  CA100       0.0000
   1685 MG         15.9610   51.7000   63.7030 Mg    101  MG101       0.0000
   1686 CA         19.6760   59.4550   79.5260 Ca    102  CA102       0.0000
   1687 MG         30.5970   36.2920   84.3810 Mg    103  MG103       0.0000
   1688  O         15.6440   51.6910   66.0520 O.3    92  HOH92       0.0000
   1689  O         13.3020   52.4140   64.6090 O.3    93  HOH93       0.0000
   1690  O         14.1080   49.7780   64.2670 O.3    94  HOH94       0.0000
   1691  O         12.0730   47.1210   64.1720 O.3    95  HOH95       0.0000
   1692  O         31.7470   37.8310   70.3880 O.3    96  HOH96       0.0000
@<TRIPOS>BOND
     1  1016  1682    1
     2  1050  1687    1
     3  1052  1687    1
     4  1066  1687    1
     5  1082  1684    1
     6  1103  1684    1
     7  1212  1686    1
     8  1394  1682    1
     9  1401  1682    1
    10  1682  1692    1
    11  1685  1688    1
    12  1685  1689    1
    13  1685  1690    1
    14  1668  1667    1
    15  1666  1665    1
    16  1672  1671   ar
    17  1672  1673   ar
    18  1671  1670   ar
    19  1667  1669    1
    20  1667  1665    1
    21  1669  1664    1
    22  1669  1679    1
    23  1665  1663    1
    24  1670  1675   ar
    25  1663  1664    1
    26  1663  1661    1
    27  1673  1679   ar
    28  1673  1674   ar
    29  1679  1678   ar
    30  1675  1674   ar
    31  1675  1676    1
    32  1661  1662    1
    33  1674  1677   ar
    34  1678  1677   ar
    35  1662  1660    1
    36  1681  1660    2
    37  1658  1640    2
    38  1660  1680    1
    39  1660  1646    1
    40  1659  1640    1
    41  1640  1642    1
    42  1640  1623    1
    43  1646  1645    1
    44  1638  1617    2
    45  1642  1641    1
    46  1623  1622    1
    47  1641  1643    1
    48  1645  1643    1
    49  1645  1647    1
    50  1617  1639    1
    51  1617  1619    1
    52  1617  1603    1
    53  1643  1644    1
    54  1618  1619    1
    55  1618  1620    1
    56  1622  1620    1
    57  1622  1624    1
    58  1647  1648    1
    59  1647  1649    1
    60  1620  1621    1
    61  1603  1602    1
    62  1644  1649    1
    63  1657  1656   ar
    64  1657  1650   ar
    65  1624  1625    1
    66  1624  1626    1
    67  1656  1654   ar
    68  1649  1650    1
    69  1650  1651   ar
    70  1621  1626    1
    71  1602  1600    1
    72  1602  1604    1
    73  1615  1597    2
    74  1654  1655    1
    75  1654  1653   ar
    76  1605  1604    1
    77  1626  1637    1
    78  1651  1653   ar
    79  1651  1652    2
    80  1598  1600    1
    81  1598  1599    1
    82  1600  1601    1
    83  1604  1606    1
    84  1636  1637   ar
    85  1636  1635   ar
    86  1637  1631   ar
    87  1599  1597    1
    88  1597  1616    1
    89  1597  1583    1
    90  1635  1632   ar
    91  1631  1630   ar
    92  1631  1632   ar
    93  1601  1606    1
    94  1630  1628   ar
    95  1606  1607    1
    96  1632  1633   ar
    97    12    11    1
    98  1583  1582    1
    99    10    11   ar
   100    10    16   ar
   101  1607  1614   ar
   102  1607  1608   ar
   103  1628  1629    1
   104  1628  1627   ar
   105    17    16    2
   106    11    13   ar
   107  1614  1613   ar
   108  1633  1627   ar
   109  1633  1634    2
   110    16    15   ar
   111  1585  1584    1
   112  1609  1608    2
   113  1608  1610   ar
   114  1582  1584    1
   115  1582  1580    1
   116  1613  1611   ar
   117    13    14   ar
   118  1584  1586    1
   119    53    52    1
   120    15    14   ar
   121    15    18   ar
   122  1610  1611   ar
   123    14    20   ar
   124  1611  1612    1
   125    33    32    2
   126  1580  1578    1
   127  1580  1581    1
   128    18    19   ar
   129    52    54   ar
   130    52    51   ar
   131    34    32   ar
   132    34    35   ar
   133  1578  1579    1
   134  1595  1577    2
   135    20    19   ar
   136    20     9    1
   137    32    31   ar
   138    54    55   ar
   139  1586  1581    1
   140  1586  1587    1
   141    51    57   ar
   142    36    35    1
   143  1579  1577    1
   144     9     4    1
   145     9     7    1
   146  1589  1588    2
   147    72    71    1
   148    35    37   ar
   149  1587  1588   ar
   150  1587  1594   ar
   151    55    61   ar
   152    55    56   ar
   153  1588  1590   ar
   154    31    30    1
   155    31    38   ar
   156  1577  1596    1
   157  1577  1560    1
   158    49    48    1
   159     4     3    1
   160    57    56   ar
   161    57    58    2
   162    50    61    1
   163    50    45    1
   164    50    48    1
   165    76    75   ar
   166    76    77   ar
   167    30    25    1
   168    30    28    1
   169    75    74   ar
   170  1594  1593   ar
   171    73    68    1
   172    73    71    1
   173    73    83    1
   174    61    60   ar
   175    56    59   ar
   176    68    67    1
   177    45    44    1
   178    37    38   ar
   179  1590  1591   ar
   180     7     8    1
   181     7     5    1
   182    71    69    1
   183    29    28    1
   184    25    24    1
   185    48    46    1
   186    94    93    1
   187  1593  1591   ar
   188    77    83   ar
   189    77    78   ar
   190    90    89    1
   191    90    95    1
   192    28    26    1
   193    67    69    1
   194    67    65    1
   195    83    82   ar
   196    74    79   ar
   197  1591  1592    2
   198    89    87    1
   199    89    91    1
   200  1560  1559    1
   201    95    93    1
   202    95    96    1
   203    60    59   ar
   204     3     5    1
   205     3     1    1
   206    44    46    1
   207    44    42    1
   208    87    88    1
   209    98    97    2
   210    69    70    1
   211    70    86    1
   212     5     6    1
   213    78    79   ar
   214    78    81   ar
   215    93    91    1
   216    79    80    1
   217    65    66    1
   218    82    81   ar
   219    46    47    1
   220  1562  1561    1
   221    24    26    1
   222    24    22    1
   223     1     2    1
   224    96    97   ar
   225    96   103   ar
   226    97    99   ar
   227    91    92    1
   228  1561  1559    1
   229  1561  1563    1
   230    26    27    1
   231  1559  1557    1
   232    92   106    1
   233    42    43    1
   234  1566  1565    1
   235    47    64    1
   236    88    86    1
   237   103   102   ar
   238    66    64    1
   239     6    21    1
   240  1565  1567   ar
   241  1565  1564   ar
   242    22    23    1
   243    86   104    2
   244    86   105    1
   245    99   100   ar
   246   110   109    1
   247   110   115    1
   248  1567  1568   ar
   249    43    41    1
   250    23    21    1
   251    27    41    1
   252   107   109    1
   253   107   108    1
   254  1564  1570   ar
   255   109   111    1
   256  1557  1555    1
   257  1557  1558    1
   258    64    84    2
   259    64    85    1
   260  1568  1574   ar
   261  1568  1569   ar
   262   124   106    2
   263   102   100   ar
   264  1563  1574    1
   265  1563  1558    1
   266   100   101    1
   267   106   108    1
   268   106   125    1
   269    40    21    2
   270  1570  1569   ar
   271  1570  1571    2
   272   115   116    1
   273   115   113    1
   274    21    39    1
   275  1574  1573   ar
   276  1569  1572   ar
   277    41    63    2
   278    41    62    1
   279  1555  1556    1
   280   114   113    1
   281  1573  1572   ar
   282   116   123   ar
   283   116   117   ar
   284   123   122   ar
   285   113   111    1
   286   118   117    2
   287   111   112    1
   288   117   119   ar
   289   112   126    1
   290  1556  1554    1
   291   122   120   ar
   292   119   120   ar
   293   120   121    2
   294  1576  1554    2
   295  1540  1539    1
   296  1554  1575    1
   297  1554  1538    1
   298   126   144    2
   299   126   145    1
   300   126   128    1
   301  1543  1542   ar
   302  1543  1544   ar
   303  1542  1547   ar
   304   130   129    1
   305   130   135    1
   306   127   128    1
   307   127   129    1
   308  1544  1545   ar
   309  1547  1548    1
   310  1547  1546   ar
   311  1539  1541    1
   312  1539  1537    1
   313  1545  1546   ar
   314  1545  1551   ar
   315  1538  1537    1
   316  1546  1549   ar
   317   129   131    1
   318  1541  1551    1
   319  1541  1536    1
   320  1551  1550   ar
   321   135   136    1
   322   135   133    1
   323   143   136   ar
   324   143   142   ar
   325  1549  1550   ar
   326  1537  1535    1
   327   136   137   ar
   328   142   140   ar
   329   870   851    2
   330   137   138    2
   331   137   139   ar
   332   140   139   ar
   333   140   141    1
   334  1536  1535    1
   335   134   133    1
   336   131   133    1
   337   131   132    1
   338  1535  1533    1
   339   845   844    2
   340   851   869    1
   341   851   853    1
   342   851   834    1
   343   132   146    1
   344   891   871    2
   345   838   844   ar
   346   838   839   ar
   347   857   871    1
   348   857   856    1
   349   844   843   ar
   350   840   839    1
   351   853   852    1
   352   839   841   ar
   353  1533  1534    1
   354   843   846   ar
   355   843   842   ar
   356   871   892    1
   357   871   873    1
   358   856   858    1
   359   856   854    1
   360   834   833    1
   361   846   847   ar
   362   841   842   ar
   363   852   854    1
   364   842   848   ar
   365   766   746    2
   366   833   835    1
   367   833   831    1
   368   835   836    1
   369   835   837    1
   370   168   146    2
   371   146   167    1
   372   146   148    1
   373   847   848   ar
   374  1552  1532    2
   375  1534  1532    1
   376   850   828    2
   377   848   837    1
   378   858   859    1
   379   858   860    1
   380   854   855    1
   381   164   165   ar
   382   164   161   ar
   383   165   166   ar
   384   150   155    1
   385   150   149    1
   386   786   768    2
   387   873   872    1
   388   148   147    1
   389   741   742    1
   390   741   743    1
   391   741   739    1
   392   767   746    1
   393   163   162    2
   394   837   832    1
   395   161   162   ar
   396   161   160   ar
   397   787   768    1
   398   166   155    1
   399   166   160   ar
   400   746   740    1
   401   746   748    1
   402   147   149    1
   403   830   828    1
   404   830   829    1
   405   823   822    1
   406  1532  1553    1
   407  1532  1516    1
   408   155   153    1
   409   162   156   ar
   410   849   828    1
   411   828   814    1
   412   160   159   ar
   413   743   738    1
   414   868   867   ar
   415   868   861   ar
   416   831   829    1
   417   831   832    1
   418   827   808    2
   419   149   151    1
   420   855   860    1
   421   768   752    1
   422   768   770    1
   423   860   861    1
   424   867   865   ar
   425   861   862   ar
   426   807   788    2
   427   739   740    1
   428   739   737    1
   429   156   157   ar
   430   822   824   ar
   431   822   821   ar
   432   159   157   ar
   433   747   748    1
   434   747   749    1
   435   872   874    1
   436   806   788    1
   437   865   866    2
   438   865   864   ar
   439   824   825   ar
   440   862   864   ar
   441   862   863    2
   442   157   158    1
   443   752   751    1
   444  1516  1515    1
   445  1518  1517    1
   446   826   808    1
   447   821   819   ar
   448   808   810    1
   449   808   794    1
   450   153   154    1
   451   153   151    1
   452   788   790    1
   453   788   774    1
   454   770   769    1
   455   814   813    1
   456   738   737    1
   457  1517  1515    1
   458  1517  1519    1
   459   810   809    1
   460   151   152    1
   461   825   818   ar
   462   813   815    1
   463   813   811    1
   464   749   751    1
   465   749   750    1
   466   875   874    1
   467   875   880    1
   468   737   735    1
   469   751   753    1
   470   874   876    1
   471  1515  1513    1
   472   819   818   ar
   473   819   820    2
   474   790   789    1
   475   769   771    1
   476   818   817    1
   477   803   802    1
   478   815   817    1
   479   815   816    1
   480   809   811    1
   481   774   773    1
   482   804   802   ar
   483   804   805   ar
   484   794   793    1
   485   152   169    1
   486   802   801   ar
   487   915   905    2
   488   811   812    1
   489   735   736    1
   490  1519  1529    1
   491  1519  1514    1
   492   793   791    1
   493   793   795    1
   494   789   791    1
   495   817   812    1
   496   773   771    1
   497   773   775    1
   498   784   785   ar
   499   784   782   ar
   500   880   890    1
   501   880   878    1
   502   750   755    1
   503   805   798   ar
   504  1529  1528   ar
   505  1529  1523   ar
   506   889   890   ar
   507   889   888   ar
   508  1513  1514    1
   509  1513  1511    1
   510   876   877    1
   511   876   878    1
   512   753   754    1
   513   753   755    1
   514   771   772    1
   515   186   185    2
   516   890   884   ar
   517  1522  1523   ar
   518  1522  1521   ar
   519  1528  1527   ar
   520   785   778   ar
   521  1523  1524   ar
   522   744   734    2
   523   187   188   ar
   524   187   184   ar
   525   888   885   ar
   526   801   799   ar
   527   877   893    1
   528  1521  1520   ar
   529   783   782    1
   530   903   893    2
   531  1527  1524   ar
   532  1524  1525   ar
   533   884   885   ar
   534   884   883   ar
   535   764   763   ar
   536   764   765   ar
   537   916   905    1
   538   188   189   ar
   539   791   792    1
   540   185   184   ar
   541   185   179   ar
   542   885   886   ar
   543   184   183   ar
   544   798   799   ar
   545   798   797    1
   546   782   781   ar
   547   795   797    1
   548   795   796    1
   549  1520  1525   ar
   550   905   907    1
   551   905   899    1
   552   755   765    1
   553  1525  1526    1
   554   191   169    2
   555   736   734    1
   556   883   882   ar
   557   169   171    1
   558   169   190    1
   559   799   800    2
   560   878   879    1
   561  1511  1512    1
   562  1512  1510    1
   563   772   777    1
   564   173   178    1
   565   173   172    1
   566   886   887    1
   567   886   881   ar
   568   763   760   ar
   569   765   759   ar
   570   171   170    1
   571   179   180   ar
   572   189   183   ar
   573   189   178    1
   574   775   777    1
   575   775   776    1
   576   792   797    1
   577   882   881   ar
   578   183   182   ar
   579   778   777    1
   580   778   779   ar
   581   893   895    1
   582   893   904    1
   583   898   900    1
   584   898   899    1
   585   898   896    1
   586   734   718    1
   587   734   745    1
   588   170   172    1
   589   914   912    1
   590   914   909    1
   591   900   902    1
   592   900   901    1
   593  1531  1510    2
   594   938   917    2
   595   907   906    1
   596   178   176    1
   597   902   897    1
   598   180   182   ar
   599   180   181    1
   600   781   779   ar
   601   894   895    1
   602   894   896    1
   603   172   174    1
   604   912   910    1
   605   912   913    1
   606  1510  1530    1
   607  1510  1493    1
   608   779   780    2
   609   909   908    1
   610   720   719    1
   611   760   759   ar
   612   760   761   ar
   613   759   758   ar
   614   718   717    1
   615   631   630    1
   616   896   897    1
   617   910   908    1
   618   910   911    1
   619   209   208    2
   620   627   632    1
   621   627   626    1
   622   719   717    1
   623   719   721    1
   624   632   630    1
   625   632   642    1
   626   921   926    1
   627   921   920    1
   628   626   624    1
   629   626   628    1
   630   917   937    1
   631   917   911    1
   632   917   919    1
   633   906   908    1
   634   758   757   ar
   635   208   202   ar
   636   208   207   ar
   637   926   936    1
   638   926   924    1
   639   761   762    1
   640   761   756   ar
   641   202   203   ar
   642   717   715    1
   643   176   174    1
   644   176   177    1
   645   174   175    1
   646   630   628    1
   647  1493  1492    1
   648   929   928   ar
   649   929   930   ar
   650   624   625    1
   651   936   930   ar
   652   936   935   ar
   653   928   927   ar
   654   635   636   ar
   655   635   634   ar
   656  1499  1498    1
   657   920   918    1
   658   920   922    1
   659   642   636   ar
   660   642   641   ar
   661  1504  1503    2
   662   930   931   ar
   663  1497  1498   ar
   664  1497  1503   ar
   665   918   919    1
   666   207   210   ar
   667   207   206   ar
   668   210   211   ar
   669   925   924    1
   670   203   204    1
   671   203   205   ar
   672  1498  1500   ar
   673  1503  1502   ar
   674   629   628    1
   675   629   645    1
   676  1494  1492    1
   677  1494  1495    1
   678  1494  1496    1
   679   757   756   ar
   680   935   934   ar
   681   636   637   ar
   682  1492  1490    1
   683   927   932   ar
   684   931   932   ar
   685   931   934   ar
   686   730   731   ar
   687   730   729   ar
   688   634   633   ar
   689   721   731    1
   690   721   716    1
   691   932   933    1
   692  1500  1501   ar
   693   641   640   ar
   694  1502  1501   ar
   695  1502  1505   ar
   696   206   205   ar
   697   206   212   ar
   698   924   922    1
   699  1501  1507   ar
   700   175   192    1
   701   211   212   ar
   702   715   716    1
   703   715   713    1
   704   731   725   ar
   705  1505  1506   ar
   706  1509  1487    2
   707   643   623    2
   708   625   623    1
   709   729   726   ar
   710  1415  1414    1
   711   637   640   ar
   712   637   638   ar
   713  1507  1506   ar
   714  1507  1496    1
   715   212   201    1
   716   649   648    1
   717   649   654    1
   718   633   638   ar
   719   646   648    1
   720   646   647    1
   721   922   923    1
   722   666   645    2
   723  1489  1487    1
   724  1489  1488    1
   725  1496  1491    1
   726   648   650    1
   727   638   639    1
   728  1508  1487    1
   729   232   231    2
   730   645   647    1
   731   645   667    1
   732   623   644    1
   733   623   606    1
   734  1487  1470    1
   735   725   726   ar
   736   725   724   ar
   737   214   192    2
   738   201   196    1
   739   201   199    1
   740   196   195    1
   741  1490  1488    1
   742  1490  1491    1
   743   726   727   ar
   744   713   714    1
   745  1411  1410    1
   746  1411  1416    1
   747  1410  1408    1
   748  1410  1412    1
   749   923   939    1
   750   192   194    1
   751   192   213    1
   752   654   665    1
   753   654   652    1
   754   225   231   ar
   755   225   226   ar
   756  1413  1412    1
   757  1413  1419    1
   758  1416  1414    1
   759   194   193    1
   760  1414  1412    1
   761  1439  1419    2
   762   231   230   ar
   763   724   723   ar
   764   653   652    1
   765  1408  1409    1
   766   227   226    1
   767   727   728    1
   768   727   722   ar
   769   665   664   ar
   770   665   659   ar
   771   664   663   ar
   772   226   228   ar
   773   650   652    1
   774   650   651    1
   775   954   953    1
   776  1485  1464    2
   777   606   605    1
   778   714   712    1
   779   195   193    1
   780   195   197    1
   781   651   668    1
   782  1486  1464    1
   783  1419  1440    1
   784  1419  1421    1
   785   723   722   ar
   786  1481  1480    2
   787   199   200    1
   788   199   197    1
   789   659   658   ar
   790   659   660   ar
   791   953   952   ar
   792   953   955   ar
   793  1470  1469    1
   794   658   656   ar
   795   952   950   ar
   796   955   956   ar
   797   663   660   ar
   798   230   233   ar
   799   230   229   ar
   800  1463  1441    2
   801   943   948    1
   802   943   942    1
   803   950   951    2
   804   950   949   ar
   805  1465  1466    1
   806  1465  1467    1
   807   956   949   ar
   808   939   958    2
   809   939   941    1
   810   939   957    1
   811   660   661   ar
   812  1469  1467    1
   813  1469  1471    1
   814  1482  1479   ar
   815  1482  1483   ar
   816   949   948    1
   817  1480  1479   ar
   818  1480  1474   ar
   819  1464  1466    1
   820  1464  1447    1
   821   656   657    1
   822   656   655   ar
   823   233   234   ar
   824   228   229   ar
   825   197   198    1
   826   608   607    1
   827  1409  1407    1
   828   948   946    1
   829  1479  1478   ar
   830   229   235   ar
   831  1421  1420    1
   832   941   940    1
   833   605   607    1
   834   605   603    1
   835  1483  1484   ar
   836   661   655   ar
   837   661   662    2
   838  1474  1475   ar
   839   607   609    1
   840   732   712    2
   841   733   712    1
   842   712   696    1
   843  1462  1441    1
   844  1417  1407    2
   845   940   942    1
   846  1467  1468    1
   847   688   668    2
   848   668   689    1
   849   668   670    1
   850  1441  1425    1
   851  1441  1443    1
   852   694   699    1
   853   694   693    1
   854   253   252    2
   855  1478  1484   ar
   856  1478  1477   ar
   857   708   709   ar
   858   708   707   ar
   859  1471  1473    1
   860  1471  1472    1
   861   942   944    1
   862  1418  1407    1
   863  1484  1473    1
   864   699   709    1
   865   699   697    1
   866   234   235   ar
   867  1407  1390    1
   868  1475  1477   ar
   869  1475  1476    1
   870   235   224    1
   871  1447  1446    1
   872   698   697    1
   873  1468  1473    1
   874   709   703   ar
   875   198   215    1
   876   693   695    1
   877   693   691    1
   878  1425  1424    1
   879   707   704   ar
   880   251   252   ar
   881   251   249   ar
   882  1420  1422    1
   883   946   947    1
   884   946   944    1
   885   603   601    1
   886   603   604    1
   887   252   254   ar
   888   696   695    1
   889   670   669    1
   890   609   620    1
   891   609   604    1
   892  1443  1442    1
   893   697   695    1
   894   669   671    1
   895   612   611    1
   896   613   611   ar
   897   613   614   ar
   898  1446  1448    1
   899  1446  1444    1
   900   944   945    1
   901   224   219    1
   902   224   222    1
   903   620   614   ar
   904   620   619   ar
   905   611   610   ar
   906   237   215    2
   907   219   218    1
   908   614   615   ar
   909   601   602    1
   910  1424  1422    1
   911  1424  1426    1
   912   621   600    2
   913   610   616   ar
   914   619   618   ar
   915   602   600    1
   916   615   616   ar
   917   615   618   ar
   918   250   249    2
   919   616   617    2
   920   622   600    1
   921  1459  1460   ar
   922  1459  1456   ar
   923  1390  1389    1
   924   249   248   ar
   925   703   704   ar
   926   703   702   ar
   927  1422  1423    1
   928  1442  1444    1
   929   215   236    1
   930   215   217    1
   931   704   705   ar
   932   974   973    1
   933   691   692    1
   934  1458  1457    2
   935   600   586    1
   936  1460  1461   ar
   937  1388  1387    1
   938  1388  1393    1
   939  1396  1395    1
   940  1448  1449    1
   941  1448  1450    1
   942   254   255   ar
   943  1387  1389    1
   944  1387  1385    1
   945   973   975   ar
   946   973   972   ar
   947  1444  1445    1
   948  1456  1457   ar
   949  1456  1455   ar
   950  1437  1436   ar
   951  1437  1438   ar
   952  1457  1451   ar
   953   975   976   ar
   954  1436  1433   ar
   955   692   690    1
   956  1392  1391    1
   957   945   959    1
   958  1393  1391    1
   959  1393  1404    1
   960  1389  1391    1
   961  1397  1395    2
   962  1397  1398    1
   963   972   970   ar
   964   671   672    1
   965   671   673    1
   966   217   216    1
   967   702   701   ar
   968   222   223    1
   969   222   220    1
   970   218   216    1
   971   218   220    1
   972  1461  1455   ar
   973  1461  1450    1
   974  1426  1427    1
   975  1426  1428    1
   976   976   969   ar
   977  1339  1319    2
   978  1395  1394    1
   979  1455  1454   ar
   980   705   706    1
   981   705   700   ar
   982   248   255   ar
   983   248   247    1
   984   970   969   ar
   985   970   971    2
   986  1451  1452   ar
   987   672   677    1
   988  1423  1428    1
   989   969   968    1
   990   963   968    1
   991   963   962    1
   992  1450  1445    1
   993  1362  1341    2
   994  1438  1428    1
   995  1438  1432   ar
   996  1385  1386    1
   997  1404  1398    1
   998  1404  1403    1
   999  1398  1399    1
  1000   220   221    1
  1001   968   966    1
  1002  1433  1434   ar
  1003  1433  1432   ar
  1004   535   514    2
  1005   586   585    1
  1006  1435  1434    1
  1007  1454  1452   ar
  1008   673   674    1
  1009   673   675    1
  1010  1452  1453    1
  1011   701   700   ar
  1012   710   690    2
  1013   978   959    2
  1014   690   674    1
  1015   690   711    1
  1016  1394  1400    1
  1017   959   961    1
  1018   959   977    1
  1019   247   242    1
  1020   247   245    1
  1021  1434  1429   ar
  1022  1432  1431   ar
  1023   242   241    1
  1024  1363  1341    1
  1025  1319  1340    1
  1026  1319  1305    1
  1027  1319  1321    1
  1028   961   960    1
  1029   960   962    1
  1030  1383  1364    2
  1031   962   964    1
  1032   585   587    1
  1033   585   583    1
  1034  1403  1402    2
  1035  1399  1400    2
  1036  1399  1402    1
  1037  1341  1325    1
  1038  1341  1343    1
  1039  1317  1299    2
  1040   677   687    1
  1041   677   675    1
  1042   587   588    1
  1043   587   589    1
  1044  1386  1384    1
  1045   512   492    2
  1046  1400  1401    1
  1047   595   594    2
  1048   686   687   ar
  1049   686   685   ar
  1050   514   536    1
  1051   514   498    1
  1052   514   516    1
  1053   221   238    1
  1054   687   681   ar
  1055   675   676    1
  1056   994   993    2
  1057  1305  1304    1
  1058   966   967    1
  1059   966   964    1
  1060   599   580    2
  1061   594   593   ar
  1062   594   596   ar
  1063  1321  1320    1
  1064  1325  1324    1
  1065   593   591   ar
  1066  1429  1430   ar
  1067  1320  1322    1
  1068  1431  1430   ar
  1069   596   597   ar
  1070   685   682   ar
  1071  1379  1378    1
  1072   558   537    2
  1073   245   246    1
  1074   245   243    1
  1075   681   682   ar
  1076   681   680   ar
  1077   591   592    2
  1078   591   590   ar
  1079   598   580    1
  1080   498   497    1
  1081   597   590   ar
  1082   964   965    1
  1083   257   238    2
  1084   582   580    1
  1085   582   581    1
  1086   590   589    1
  1087   993   995   ar
  1088   993   992   ar
  1089   241   239    1
  1090   241   243    1
  1091   682   683   ar
  1092  1343  1342    1
  1093  1364  1382    1
  1094  1364  1366    1
  1095  1364  1347    1
  1096  1380  1378   ar
  1097  1380  1381   ar
  1098   680   679   ar
  1099   580   566    1
  1100   559   537    1
  1101   240   239    1
  1102   240   238    1
  1103   583   581    1
  1104   583   584    1
  1105   589   584    1
  1106   493   494    1
  1107   493   495    1
  1108   516   515    1
  1109   238   256    1
  1110  1299  1318    1
  1111  1299  1301    1
  1112  1299  1285    1
  1113   995   996   ar
  1114  1406  1384    2
  1115  1384  1405    1
  1116  1384  1370    1
  1117  1378  1377   ar
  1118   992   990   ar
  1119  1300  1301    1
  1120  1300  1302    1
  1121  1324  1322    1
  1122  1324  1326    1
  1123   492   494    1
  1124   492   476    1
  1125   492   513    1
  1126   683   684    1
  1127   683   678   ar
  1128   679   678   ar
  1129  1322  1323    1
  1130  1342  1344    1
  1131   537   520    1
  1132   537   539    1
  1133   515   517    1
  1134  1304  1302    1
  1135  1304  1306    1
  1136   579   560    2
  1137  1366  1365    1
  1138   243   244    1
  1139  1381  1374   ar
  1140   578   560    1
  1141  1268  1267    1
  1142  1302  1303    1
  1143   495   497    1
  1144   495   496    1
  1145   996   989   ar
  1146  1347  1346    1
  1147   497   499    1
  1148  1285  1284    1
  1149   990   989   ar
  1150   990   991    2
  1151   965   979    1
  1152   575   574    1
  1153   476   475    1
  1154   989   988    1
  1155  1307  1306    1
  1156  1377  1375   ar
  1157   520   519    1
  1158   560   562    1
  1159   560   543    1
  1160  1346  1344    1
  1161  1346  1348    1
  1162  1298  1279    2
  1163  1011  1010    1
  1164  1369  1370    1
  1165  1369  1371    1
  1166  1369  1367    1
  1167   566   565    1
  1168  1009  1010   ar
  1169  1009  1015   ar
  1170   983   988    1
  1171   983   982    1
  1172  1306  1308    1
  1173   275   274    2
  1174  1365  1367    1
  1175  1016  1015    1
  1176   574   576   ar
  1177   574   573   ar
  1178  1344  1345    1
  1179  1374  1375   ar
  1180  1374  1373    1
  1181   539   538    1
  1182  1326  1327    1
  1183  1326  1328    1
  1184  1323  1328    1
  1185   244   258    1
  1186   988   986    1
  1187  1264  1263    1
  1188   517   519    1
  1189   517   518    1
  1190   500   499    1
  1191   562   561    1
  1192   519   521    1
  1193   576   577   ar
  1194   276   273   ar
  1195   276   277   ar
  1196  1010  1012   ar
  1197  1375  1376    2
  1198  1267  1269   ar
  1199  1267  1266   ar
  1200  1015  1014   ar
  1201  1371  1373    1
  1202  1371  1372    1
  1203   573   571   ar
  1204   499   501    1
  1205   565   567    1
  1206   565   563    1
  1207   274   273   ar
  1208   274   268   ar
  1209   490   470    2
  1210   496   501    1
  1211   478   477    1
  1212   998   979    2
  1213  1303  1308    1
  1214  1367  1368    1
  1215  1284  1282    1
  1216  1284  1286    1
  1217   273   272   ar
  1218   277   278   ar
  1219  1269  1270   ar
  1220   538   540    1
  1221   979   981    1
  1222   979   997    1
  1223   279   258    2
  1224  1360  1359   ar
  1225  1360  1361   ar
  1226  1280  1282    1
  1227  1280  1281    1
  1228  1287  1286    1
  1229   475   477    1
  1230   475   473    1
  1231  1373  1368    1
  1232   981   980    1
  1233   577   570   ar
  1234  1282  1283    1
  1235  1328  1338    1
  1236  1359  1356   ar
  1237   543   542    1
  1238   567   568    1
  1239   567   569    1
  1240   268   269   ar
  1241  1345  1350    1
  1242  1348  1350    1
  1243  1348  1349    1
  1244   571   570   ar
  1245   571   572    2
  1246  1308  1309    1
  1247   980   982    1
  1248  1279  1281    1
  1249  1279  1262    1
  1250  1279  1297    1
  1251  1337  1338   ar
  1252  1337  1336   ar
  1253  1012  1013   ar
  1254   982   984    1
  1255   518   523    1
  1256   258   280    1
  1257   258   260    1
  1258  1263  1265    1
  1259  1263  1261    1
  1260   272   278   ar
  1261   272   271   ar
  1262   278   267    1
  1263  1266  1272   ar
  1264   570   569    1
  1265   477   479    1
  1266   501   511    1
  1267  1014  1013   ar
  1268  1014  1017   ar
  1269   561   563    1
  1270   473   471    1
  1271   473   474    1
  1272   533   532   ar
  1273   533   534   ar
  1274  1286  1288    1
  1275   542   540    1
  1276   542   544    1
  1277  1338  1332   ar
  1278   471   472    1
  1279   555   556   ar
  1280   555   552   ar
  1281   269   271   ar
  1282   269   270    1
  1283   986   987    1
  1284   986   984    1
  1285  1361  1350    1
  1286  1361  1355   ar
  1287  1013  1019   ar
  1288   563   564    1
  1289   470   491    1
  1290   470   472    1
  1291   470   453    1
  1292   532   529   ar
  1293  1262  1261    1
  1294   521   523    1
  1295   521   522    1
  1296   262   267    1
  1297   262   261    1
  1298  1336  1333   ar
  1299   540   541    1
  1300   267   265    1
  1301   556   557   ar
  1302   554   553    2
  1303  1316  1309   ar
  1304  1316  1315   ar
  1305   569   564    1
  1306  1270  1276   ar
  1307  1270  1271   ar
  1308   510   511   ar
  1309   510   509   ar
  1310  1265  1276    1
  1311  1265  1260    1
  1312  1309  1310   ar
  1313  1017  1018   ar
  1314  1356  1355   ar
  1315  1356  1357   ar
  1316   511   505   ar
  1317   523   534    1
  1318   534   528   ar
  1319   984   985    1
  1320  1261  1259    1
  1321  1283  1288    1
  1322   552   553   ar
  1323   552   551   ar
  1324  1332  1333   ar
  1325  1332  1331   ar
  1326   260   259    1
  1327   553   547   ar
  1328  1355  1354   ar
  1329  1333  1334   ar
  1330  1358  1357    2
  1331   296   295    1
  1332  1019  1018   ar
  1333  1019  1008    1
  1334  1272  1271   ar
  1335  1272  1273    2
  1336  1276  1275   ar
  1337  1288  1289    1
  1338   474   479    1
  1339   479   489    1
  1340  1032  1033   ar
  1341  1032  1037   ar
  1342   557   551   ar
  1343   557   546    1
  1344   541   546    1
  1345   529   528   ar
  1346   529   530   ar
  1347  1315  1313   ar
  1348   544   546    1
  1349   544   545    1
  1350  1357  1351   ar
  1351   509   506   ar
  1352  1331  1330   ar
  1353  1259  1260    1
  1354  1259  1257    1
  1355  1271  1274   ar
  1356  1310  1311    2
  1357  1310  1312   ar
  1358   551   550   ar
  1359   453   452    1
  1360  1033  1034   ar
  1361   528   527   ar
  1362   261   259    1
  1363   261   263    1
  1364   547   548   ar
  1365  1038  1037    1
  1366   505   506   ar
  1367   505   504   ar
  1368   265   266    1
  1369   265   263    1
  1370  1008  1003    1
  1371  1008  1006    1
  1372   531   530    2
  1373   295   297   ar
  1374   295   294   ar
  1375  1003  1002    1
  1376  1334  1335    1
  1377  1334  1329   ar
  1378   530   524   ar
  1379   985   999    1
  1380   482   481   ar
  1381   482   483   ar
  1382  1037  1036   ar
  1383  1354  1352   ar
  1384  1289  1296   ar
  1385  1289  1290   ar
  1386   297   298   ar
  1387   506   507   ar
  1388  1330  1329   ar
  1389  1313  1312   ar
  1390  1313  1314    1
  1391   550   548   ar
  1392   504   503   ar
  1393   294   292   ar
  1394   489   483   ar
  1395   489   488   ar
  1396   548   549    1
  1397  1351  1352   ar
  1398  1275  1274   ar
  1399   527   525   ar
  1400   263   264    1
  1401  1291  1290    2
  1402  1034  1035   ar
  1403  1296  1295   ar
  1404  1248  1247    2
  1405   481   480   ar
  1406   483   484   ar
  1407   455   454    1
  1408   452   454    1
  1409   452   450    1
  1410  1352  1353    1
  1411  1290  1292   ar
  1412  1257  1258    1
  1413   524   525   ar
  1414   298   291   ar
  1415  1021   999    2
  1416  1249  1247   ar
  1417  1249  1250   ar
  1418   292   291   ar
  1419   292   293    2
  1420   525   526    1
  1421  1224  1225   ar
  1422  1224  1229   ar
  1423  1036  1035   ar
  1424  1036  1039   ar
  1425  1139  1138    1
  1426  1006  1007    1
  1427  1006  1004    1
  1428   488   487   ar
  1429   454   456    1
  1430   999  1001    1
  1431   999  1020    1
  1432  1247  1246   ar
  1433   316   315    1
  1434  1116  1115    1
  1435  1230  1229    1
  1436  1035  1041   ar
  1437  1001  1000    1
  1438  1002  1000    1
  1439  1002  1004    1
  1440  1251  1250    2
  1441   507   508    1
  1442   507   502   ar
  1443   503   502   ar
  1444   291   290    1
  1445  1295  1293   ar
  1446  1079  1078    1
  1447  1030  1029    1
  1448   480   485   ar
  1449  1258  1256    1
  1450   484   487   ar
  1451   484   485   ar
  1452  1250  1252   ar
  1453  1225  1226   ar
  1454  1208  1207    1
  1455  1292  1293   ar
  1456   264   281    1
  1457   450   448    1
  1458   450   451    1
  1459  1229  1228   ar
  1460  1244  1243    1
  1461   448   449    1
  1462  1293  1294    1
  1463  1004  1005    1
  1464   315   314   ar
  1465   315   317   ar
  1466  1039  1040   ar
  1467   314   312   ar
  1468   290   285    1
  1469   290   288    1
  1470  1138  1140   ar
  1471  1138  1137   ar
  1472  1115  1114   ar
  1473  1115  1117   ar
  1474  1114  1120   ar
  1475   285   284    1
  1476   485   486    1
  1477  1077  1078   ar
  1478  1077  1075   ar
  1479   300   281    2
  1480  1243  1245    1
  1481  1243  1241    1
  1482  1246  1245    1
  1483  1246  1253   ar
  1484  1078  1080   ar
  1485  1041  1040   ar
  1486  1041  1031    1
  1487  1029  1031    1
  1488  1029  1027    1
  1489  1140  1141   ar
  1490  1245  1240    1
  1491  1137  1143   ar
  1492   456   451    1
  1493   456   467    1
  1494   449   447    1
  1495  1252  1253   ar
  1496   281   283    1
  1497   281   299    1
  1498  1158  1157    1
  1499   317   318   ar
  1500  1121  1120    2
  1501   312   313    2
  1502   312   311   ar
  1503  1207  1202   ar
  1504  1207  1206   ar
  1505  1117  1118   ar
  1506  1226  1227   ar
  1507   356   355    2
  1508  1120  1119   ar
  1509  1031  1026    1
  1510  1076  1075    2
  1511  1096  1095    2
  1512  1097  1095   ar
  1513  1097  1098   ar
  1514  1099  1098    2
  1515  1075  1074   ar
  1516  1228  1227   ar
  1517  1228  1231   ar
  1518  1256  1278    2
  1519  1256  1242    1
  1520  1256  1277    1
  1521  1202  1203   ar
  1522   466   467   ar
  1523   466   465   ar
  1524  1005  1022    1
  1525   283   282    1
  1526  1162  1161   ar
  1527  1162  1163   ar
  1528  1080  1081   ar
  1529   467   461   ar
  1530   284   282    1
  1531   284   286    1
  1532   288   289    1
  1533   288   286    1
  1534  1095  1094   ar
  1535  1141  1142   ar
  1536  1141  1147   ar
  1537  1241  1242    1
  1538  1241  1239    1
  1539  1161  1160   ar
  1540  1098  1100   ar
  1541  1135  1134    1
  1542  1227  1233   ar
  1543   318   311   ar
  1544  1027  1028    1
  1545  1027  1025    1
  1546  1143  1144    2
  1547  1143  1142   ar
  1548   311   310    1
  1549  1118  1119   ar
  1550  1118  1124   ar
  1551  1159  1157    1
  1552  1159  1154    1
  1553  1159  1169    1
  1554  1028  1044    1
  1555   333   332    2
  1556  1119  1122   ar
  1557   334   332   ar
  1558   334   335   ar
  1559  1136  1147    1
  1560  1136  1134    1
  1561  1136  1131    1
  1562   336   335    1
  1563  1157  1155    1
  1564  1206  1209   ar
  1565  1206  1205   ar
  1566  1240  1239    1
  1567  1209  1210   ar
  1568   355   354   ar
  1569   355   357   ar
  1570   465   462   ar
  1571   286   287    1
  1572  1074  1081   ar
  1573  1074  1073    1
  1574  1142  1145   ar
  1575  1231  1232   ar
  1576  1147  1146   ar
  1577  1154  1153    1
  1578   354   352   ar
  1579  1024  1022    1
  1580  1024  1023    1
  1581   447   469    2
  1582   447   468    1
  1583   447   433    1
  1584  1180  1179    1
  1585  1026  1025    1
  1586   332   331   ar
  1587  1163  1169   ar
  1588  1163  1164   ar
  1589  1134  1132    1
  1590   335   337   ar
  1591  1203  1204   ar
  1592  1131  1130    1
  1593  1239  1237    1
  1594   461   462   ar
  1595   461   460   ar
  1596  1160  1165   ar
  1597  1022  1043    2
  1598  1022  1042    1
  1599  1169  1168   ar
  1600   310   305    1
  1601   310   308    1
  1602  1176  1175    1
  1603  1176  1181    1
  1604  1175  1173    1
  1605  1175  1177    1
  1606  1094  1101   ar
  1607  1094  1093    1
  1608  1124  1113    1
  1609  1124  1123   ar
  1610  1063  1044    2
  1611  1100  1101   ar
  1612  1122  1123   ar
  1613  1025  1023    1
  1614  1153  1155    1
  1615  1153  1151    1
  1616  1173  1174    1
  1617  1181  1179    1
  1618  1181  1182    1
  1619   462   463   ar
  1620   305   304    1
  1621   433   432    1
  1622  1233  1232   ar
  1623  1233  1223    1
  1624   460   458   ar
  1625  1113  1111    1
  1626  1113  1108    1
  1627  1044  1062    1
  1628  1044  1046    1
  1629  1073  1068    1
  1630  1073  1071    1
  1631  1146  1145   ar
  1632  1155  1156    1
  1633  1205  1204   ar
  1634  1205  1211   ar
  1635   357   358   ar
  1636  1210  1211   ar
  1637  1093  1091    1
  1638  1093  1088    1
  1639  1184  1183    2
  1640  1179  1177    1
  1641  1156  1172    1
  1642  1130  1132    1
  1643  1130  1128    1
  1644  1164  1165   ar
  1645  1164  1167   ar
  1646   352   353    2
  1647   352   351   ar
  1648  1165  1166    1
  1649   287   301    1
  1650   331   330    1
  1651   331   338   ar
  1652  1112  1111    1
  1653  1068  1067    1
  1654  1178  1177    1
  1655  1178  1192    1
  1656   337   338   ar
  1657  1168  1167   ar
  1658  1132  1133    1
  1659  1111  1109    1
  1660  1152  1151    1
  1661  1152  1150    1
  1662   308   309    1
  1663   308   306    1
  1664  1223  1221    1
  1665  1223  1218    1
  1666   320   301    2
  1667  1237  1238    1
  1668  1221  1222    1
  1669  1221  1219    1
  1670  1182  1183   ar
  1671  1182  1189   ar
  1672  1108  1107    1
  1673   432   434    1
  1674   432   430    1
  1675  1238  1236    1
  1676  1211  1201    1
  1677  1045  1046    1
  1678  1045  1047    1
  1679   330   325    1
  1680   330   328    1
  1681  1183  1185   ar
  1682   463   457   ar
  1683   463   464    2
  1684  1092  1091    1
  1685   458   457   ar
  1686   458   459    1
  1687  1083  1064    2
  1688   435   434    1
  1689  1091  1089    1
  1690  1088  1087    1
  1691   439   438    2
  1692  1133  1150    1
  1693   434   436    1
  1694  1174  1172    1
  1695  1071  1072    1
  1696  1071  1069    1
  1697   304   306    1
  1698   304   302    1
  1699   358   351   ar
  1700   303   301    1
  1701   303   302    1
  1702   301   319    1
  1703   351   350    1
  1704  1128  1129    1
  1705   329   328    1
  1706  1172  1190    2
  1707  1172  1191    1
  1708   325   324    1
  1709  1212  1192    1
  1710   306   307    1
  1711  1189  1188   ar
  1712  1067  1065    1
  1713  1067  1069    1
  1714  1150  1171    2
  1715  1150  1170    1
  1716  1065  1066    1
  1717  1192  1194    1
  1718  1192  1213    2
  1719   438   440   ar
  1720   438   437   ar
  1721   328   326    1
  1722  1219  1220    1
  1723  1219  1217    1
  1724  1185  1186   ar
  1725  1255  1236    2
  1726  1069  1070    1
  1727  1218  1217    1
  1728  1109  1107    1
  1729  1109  1110    1
  1730  1107  1105    1
  1731   440   441   ar
  1732   430   428    1
  1733   430   431    1
  1734  1129  1127    1
  1735  1047  1049    1
  1736  1047  1048    1
  1737  1194  1193    1
  1738  1236  1220    1
  1739  1236  1254    1
  1740  1089  1087    1
  1741  1089  1090    1
  1742  1087  1085    1
  1743  1201  1199    1
  1744  1201  1196    1
  1745  1064  1082    1
  1746   428   429    1
  1747   436   437    1
  1748   436   431    1
  1749   437   444   ar
  1750   360   341    2
  1751   350   348    1
  1752   350   345    1
  1753  1188  1186   ar
  1754  1049  1050    1
  1755  1049  1051    1
  1756  1217  1215    1
  1757  1199  1197    1
  1758  1199  1200    1
  1759  1196  1195    1
  1760   324   326    1
  1761   324   322    1
  1762  1186  1187    2
  1763  1110  1127    1
  1764   307   321    1
  1765   441   442    2
  1766   441   443   ar
  1767  1235  1214    2
  1768  1086  1085    1
  1769  1086  1084    1
  1770  1216  1215    1
  1771  1216  1214    1
  1772  1105  1106    1
  1773  1106  1104    1
  1774   348   346    1
  1775   348   349    1
  1776   326   327    1
  1777  1048  1053    1
  1778  1197  1195    1
  1779  1197  1198    1
  1780   416   415    1
  1781  1090  1104    1
  1782  1070  1084    1
  1783   323   322    1
  1784   323   321    1
  1785  1127  1149    2
  1786  1127  1148    1
  1787   429   427    1
  1788   340   321    2
  1789   444   443   ar
  1790  1061  1060   ar
  1791  1061  1054   ar
  1792  1193  1195    1
  1793   345   344    1
  1794  1103  1084    1
  1795   346   344    1
  1796   346   347    1
  1797  1051  1053    1
  1798  1051  1052    1
  1799  1060  1058   ar
  1800   321   339    1
  1801   414   415   ar
  1802   414   420   ar
  1803  1084  1102    2
  1804  1214  1198    1
  1805  1214  1234    1
  1806   341   327    1
  1807   341   359    1
  1808   341   343    1
  1809   415   417   ar
  1810  1104  1126    2
  1811  1104  1125    1
  1812  1053  1054    1
  1813   421   420    2
  1814   342   344    1
  1815   342   343    1
  1816  1054  1055   ar
  1817   420   419   ar
  1818   417   418   ar
  1819   427   446    2
  1820   427   410    1
  1821   427   445    1
  1822  1058  1059    2
  1823  1058  1057   ar
  1824   410   409    1
  1825   419   418   ar
  1826   419   422   ar
  1827   418   424   ar
  1828  1055  1057   ar
  1829  1055  1056    2
  1830   411   409    1
  1831   411   412    1
  1832   411   413    1
  1833   409   407    1
  1834   422   423   ar
  1835   424   423   ar
  1836   424   413    1
  1837   413   408    1
  1838   407   405    1
  1839   407   408    1
  1840   405   406    1
  1841   399   398    1
  1842   426   404    2
  1843   398   397   ar
  1844   398   400   ar
  1845   406   404    1
  1846   397   395   ar
  1847   404   425    1
  1848   404   390    1
  1849   400   401   ar
  1850   395   396    2
  1851   395   394   ar
  1852   378   377    2
  1853   383   361    1
  1854   401   394   ar
  1855   403   384    2
  1856   394   393    1
  1857   379   376   ar
  1858   379   380   ar
  1859   382   361    1
  1860   390   389    1
  1861   377   376   ar
  1862   377   371   ar
  1863   389   391    1
  1864   389   387    1
  1865   391   393    1
  1866   391   392    1
  1867   361   363    1
  1868   376   375   ar
  1869   380   381   ar
  1870   386   384    1
  1871   386   385    1
  1872   393   388    1
  1873   384   402    1
  1874   384   367    1
  1875   371   372   ar
  1876   362   363    1
  1877   362   364    1
  1878   387   388    1
  1879   387   385    1
  1880   375   381   ar
  1881   375   374   ar
  1882   381   370    1
  1883   366   367    1
  1884   366   364    1
  1885   366   368    1
  1886   372   374   ar
  1887   372   373    1
  1888   364   365    1
  1889   365   370    1
  1890   368   370    1
  1891   368   369    1
