2f4u_lig
 OpenBabel02221317003D

 36 37  0  0  1  0  0  0  0  0999 V2000
   37.8870    9.1830    5.3800 C   0  0  2  0  0  0  0  0  0  0  0  0
   38.7210    8.1040    4.8160 O   0  0  0  0  0  0  0  0  0  0  0  0
   42.0200    5.5980    6.1320 C   0  0  2  0  0  0  0  0  0  0  0  0
   43.3040    5.2040    6.7730 N   0  0  0  0  0  0  0  0  0  0  0  0
   36.4210    8.8990    4.9280 C   0  0  2  0  0  0  0  0  0  0  0  0
   35.9330    7.5820    5.3770 N   0  0  0  0  0  0  0  0  0  0  0  0
   42.2330    6.6950    5.0300 C   0  0  0  0  0  0  0  0  0  0  0  0
   43.8310    3.5900    6.2210 C   0  0  0  0  0  0  0  0  0  0  0  0
   44.9090    3.7480    7.2470 C   0  0  1  0  0  0  0  0  0  0  0  0
   45.7210    2.4480    7.2550 C   0  0  0  0  0  0  0  0  0  0  0  0
   46.7250    2.2910    8.4120 C   0  0  0  0  0  0  0  0  0  0  0  0
   47.4140    1.0080    8.2600 N   0  0  0  0  0  0  0  0  0  0  0  0
   45.7760    4.7880    6.8850 O   0  0  0  0  0  0  0  0  0  0  0  0
   41.1080    4.4340    9.4260 C   0  0  0  0  0  0  0  0  0  0  0  0
   39.8400    4.6010   10.2500 C   0  0  0  0  0  0  0  0  0  0  0  0
   36.3460    8.9960    3.3680 C   0  0  1  0  0  0  0  0  0  0  0  0
   39.0510    3.3620   10.4030 N   0  0  0  0  0  0  0  0  0  0  0  0
   35.0250    8.7330    2.9020 O   0  0  0  0  0  0  0  0  0  0  0  0
   40.8910    7.1360    4.4110 C   0  0  2  0  0  0  0  0  0  0  0  0
   41.0850    8.1870    3.4200 N   0  0  0  0  0  0  0  0  0  0  0  0
   36.8770    4.5530   10.6380 C   0  0  0  0  0  0  0  0  0  0  0  0
   35.5130    4.6590   11.3840 C   0  0  0  0  0  0  0  0  0  0  0  0
   37.7700    3.3950   11.1550 C   0  0  0  0  0  0  0  0  0  0  0  0
   34.6600    5.7540   10.8320 N   0  0  0  0  0  0  0  0  0  0  0  0
   43.4730    2.8520    5.5220 O   0  0  0  0  0  0  0  0  0  0  0  0
   36.8210   10.4020    2.9500 C   0  0  2  0  0  0  0  0  0  0  0  0
   36.7980   10.5880    1.5370 O   0  0  0  0  0  0  0  0  0  0  0  0
   39.9610    7.6620    5.4860 C   0  0  2  0  0  0  0  0  0  0  0  0
   38.2420   10.6790    3.4730 C   0  0  2  0  0  0  0  0  0  0  0  0
   38.3130   10.4860    4.8900 O   0  0  0  0  0  0  0  0  0  0  0  0
   39.7080    6.5400    6.5730 C   0  0  2  0  0  0  0  0  0  0  0  0
   38.8240    7.0800    7.6050 O   0  0  0  0  0  0  0  0  0  0  0  0
   38.6960   12.0770    3.1480 C   0  0  0  0  0  0  0  0  0  0  0  0
   39.9730   12.2900    3.6160 O   0  0  0  0  0  0  0  0  0  0  0  0
   41.0820    6.1250    7.2000 C   0  0  1  0  0  0  0  0  0  0  0  0
   40.9350    5.1360    8.1770 O   0  0  0  0  0  0  0  0  0  0  0  0
  1  2  1  6  0  0  0
  1  5  1  0  0  0  0
  1 30  1  0  0  0  0
  3  4  1  1  0  0  0
  3  7  1  0  0  0  0
  3 35  1  0  0  0  0
  5  6  1  6  0  0  0
  5 16  1  0  0  0  0
  7 19  1  0  0  0  0
  8  4  1  0  0  0  0
  8 25  2  0  0  0  0
  9  8  1  6  0  0  0
  9 10  1  0  0  0  0
  9 13  1  0  0  0  0
 10 11  1  0  0  0  0
 11 12  1  0  0  0  0
 14 15  1  0  0  0  0
 14 36  1  0  0  0  0
 15 17  1  0  0  0  0
 16 18  1  1  0  0  0
 16 26  1  0  0  0  0
 17 23  1  0  0  0  0
 19 20  1  1  0  0  0
 19 28  1  0  0  0  0
 21 22  1  0  0  0  0
 21 23  1  0  0  0  0
 22 24  1  0  0  0  0
 26 27  1  6  0  0  0
 26 29  1  0  0  0  0
 28  2  1  6  0  0  0
 28 31  1  0  0  0  0
 29 30  1  0  0  0  0
 29 33  1  1  0  0  0
 31 32  1  1  0  0  0
 31 35  1  0  0  0  0
 33 34  1  0  0  0  0
 35 36  1  6  0  0  0
M  END
$$$$
