2f4u_lig
 OpenBabel11021811433D
libRbt.so/2013.1/901 2013/11/27
 36 37  0  0  0  0  0  0  0  0999 V2000
   37.8064    9.1645    5.6138 C   0  0  2  0  0  0  0  0  0  0  0  0
   38.5801    8.0441    5.0445 O   0  0  0  0  0  0  0  0  0  0  0  0
   41.8502    5.5207    6.3988 C   0  0  2  0  0  0  0  0  0  0  0  0
   43.1755    5.1310    6.9525 N   0  0  0  0  0  0  0  0  0  0  0  0
   36.3195    8.9389    5.1985 C   0  0  2  0  0  0  0  0  0  0  0  0
   35.7860    7.6494    5.6747 N   0  0  0  0  0  0  0  0  0  0  0  0
   41.9956    6.4024    5.1086 C   0  0  0  0  0  0  0  0  0  0  0  0
   44.0682    4.0867    5.8124 C   0  0  0  0  0  0  0  0  0  0  0  0
   45.0587    3.9591    6.9270 C   0  0  1  0  0  0  0  0  0  0  0  0
   45.8710    2.6854    6.6678 C   0  0  0  0  0  0  0  0  0  0  0  0
   46.8885    2.3046    7.7591 C   0  0  0  0  0  0  0  0  0  0  0  0
   47.5523    1.0609    7.3635 N   0  0  0  0  0  0  0  0  0  0  0  0
   45.9493    5.0412    6.9121 O   0  0  0  0  0  0  0  0  0  0  0  0
   40.5820    5.0411    9.9073 C   0  0  0  0  0  0  0  0  0  0  0  0
   39.1084    4.6683    9.8420 C   0  0  0  0  0  0  0  0  0  0  0  0
   36.2128    9.0213    3.6396 C   0  0  1  0  0  0  0  0  0  0  0  0
   38.5230    4.2877   11.1433 N   0  0  0  0  0  0  0  0  0  0  0  0
   34.8713    8.8103    3.2068 O   0  0  0  0  0  0  0  0  0  0  0  0
   40.6186    6.8466    4.5748 C   0  0  2  0  0  0  0  0  0  0  0  0
   40.7559    7.7027    3.4032 N   0  0  0  0  0  0  0  0  0  0  0  0
   36.4977    4.0466   12.5716 C   0  0  0  0  0  0  0  0  0  0  0  0
   34.9504    3.8624   12.5807 C   0  0  0  0  0  0  0  0  0  0  0  0
   37.1436    3.7379   11.1957 C   0  0  0  0  0  0  0  0  0  0  0  0
   34.2720    4.8034   11.6396 N   0  0  0  0  0  0  0  0  0  0  0  0
   43.9032    3.6993    4.8203 O   0  0  0  0  0  0  0  0  0  0  0  0
   36.7379   10.4006    3.1936 C   0  0  2  0  0  0  0  0  0  0  0  0
   36.6902   10.5714    1.7793 O   0  0  0  0  0  0  0  0  0  0  0  0
   39.8623    7.6157    5.6396 C   0  0  2  0  0  0  0  0  0  0  0  0
   38.1812   10.6219    3.6809 C   0  0  2  0  0  0  0  0  0  0  0  0
   38.2765   10.4422    5.0982 O   0  0  0  0  0  0  0  0  0  0  0  0
   39.6738    6.7102    6.9238 C   0  0  2  0  0  0  0  0  0  0  0  0
   38.9588    7.4823    7.9390 O   0  0  0  0  0  0  0  0  0  0  0  0
   38.6871   11.9952    3.3285 C   0  0  0  0  0  0  0  0  0  0  0  0
   40.0148   12.1219    3.6696 O   0  0  0  0  0  0  0  0  0  0  0  0
   41.0852    6.2902    7.4575 C   0  0  1  0  0  0  0  0  0  0  0  0
   40.9966    5.4889    8.5995 O   0  0  0  0  0  0  0  0  0  0  0  0
  1  2  1  6  0  0  0
  1  5  1  0  0  0  0
  1 30  1  0  0  0  0
  3  4  1  1  0  0  0
  3  7  1  0  0  0  0
  3 35  1  0  0  0  0
  5  6  1  6  0  0  0
  5 16  1  0  0  0  0
  7 19  1  0  0  0  0
  8  4  1  0  0  0  0
  8 25  2  0  0  0  0
  9  8  1  6  0  0  0
  9 10  1  0  0  0  0
  9 13  1  0  0  0  0
 10 11  1  0  0  0  0
 11 12  1  0  0  0  0
 14 15  1  0  0  0  0
 14 36  1  0  0  0  0
 15 17  1  0  0  0  0
 16 18  1  1  0  0  0
 16 26  1  0  0  0  0
 17 23  1  0  0  0  0
 19 20  1  6  0  0  0
 19 28  1  0  0  0  0
 21 22  1  0  0  0  0
 21 23  1  0  0  0  0
 22 24  1  0  0  0  0
 26 27  1  6  0  0  0
 26 29  1  0  0  0  0
 28  2  1  6  0  0  0
 28 31  1  0  0  0  0
 29 30  1  0  0  0  0
 29 33  1  1  0  0  0
 31 32  1  1  0  0  0
 31 35  1  0  0  0  0
 33 34  1  0  0  0  0
 35 36  1  1  0  0  0
M  END
>  <CHROM.1>
-155.28058304,-64.25365794,158.88311879,-175.68925040,178.98946988,-175.58085940
67.28887711,-172.32141067,-152.71331660,-62.64185398,164.16780921,-159.36137930
-174.65140985,-170.14144567,39.92143358,6.59624225,6.57237744,-2.42006958
-0.36339693,2.24913327

>  <Name>
2f4u_lig

>  <RI>
0

>  <Rbt.Current_Directory>
/home/itssahil/PROJECTS/Mol_Feturizer/New_Systems/rnas/2f4u

>  <Rbt.Executable>
rbdock ($Id: //depot/dev/client3/rdock/2013.1/src/exe/rbdock.cxx#4 $)

>  <Rbt.Library>
libRbt.so (2013.1, Build901 2013/11/27)

>  <Rbt.Parameter_File>
/export/apps/rDock/src/rDock_2013.1_src/data/scripts/dock_solv.prm

>  <Rbt.Receptor>
prm/pocket_docking_2.prm

>  <SCORE>
-21.4516

>  <SCORE.INTER>
-11.1923

>  <SCORE.INTER.CONST>
1

>  <SCORE.INTER.POLAR>
-0.997598

>  <SCORE.INTER.ROT>
14

>  <SCORE.INTER.SOLV>
13.5612

>  <SCORE.INTER.VDW>
-21.5899

>  <SCORE.INTER.norm>
-0.310898

>  <SCORE.INTRA>
-10.2593

>  <SCORE.INTRA.DIHEDRAL>
-18.1953

>  <SCORE.INTRA.DIHEDRAL.0>
26.3805

>  <SCORE.INTRA.POLAR>
0

>  <SCORE.INTRA.POLAR.0>
0

>  <SCORE.INTRA.REPUL>
0

>  <SCORE.INTRA.REPUL.0>
0

>  <SCORE.INTRA.SOLV>
0.00243686

>  <SCORE.INTRA.SOLV.lig_0>
-98.5587

>  <SCORE.INTRA.VDW>
-1.1629

>  <SCORE.INTRA.VDW.0>
-2.91167

>  <SCORE.INTRA.norm>
-0.284981

>  <SCORE.RESTR>
0

>  <SCORE.RESTR.CAVITY>
0

>  <SCORE.RESTR.norm>
0

>  <SCORE.SYSTEM>
0

>  <SCORE.SYSTEM.CONST>
0

>  <SCORE.SYSTEM.DIHEDRAL>
0

>  <SCORE.SYSTEM.SOLV>
0

>  <SCORE.SYSTEM.norm>
0

>  <SCORE.heavy>
36

>  <SCORE.norm>
-0.595879

>  <RMSD>
0.715

$$$$
2f4u_lig
 OpenBabel11021811433D
libRbt.so/2013.1/901 2013/11/27
 36 37  0  0  0  0  0  0  0  0999 V2000
   37.8288    9.0402    5.5863 C   0  0  2  0  0  0  0  0  0  0  0  0
   38.5675    7.8587    5.1003 O   0  0  0  0  0  0  0  0  0  0  0  0
   42.1838    5.6268    6.0149 C   0  0  2  0  0  0  0  0  0  0  0  0
   43.5537    5.3341    6.5173 N   0  0  0  0  0  0  0  0  0  0  0  0
   36.4031    8.9674    4.9568 C   0  0  2  0  0  0  0  0  0  0  0  0
   35.6870    7.7288    5.3137 N   0  0  0  0  0  0  0  0  0  0  0  0
   42.1921    6.7635    4.9326 C   0  0  0  0  0  0  0  0  0  0  0  0
   44.1585    3.7829    5.8728 C   0  0  0  0  0  0  0  0  0  0  0  0
   45.3155    4.0147    6.7934 C   0  0  1  0  0  0  0  0  0  0  0  0
   46.1286    2.7161    6.8352 C   0  0  0  0  0  0  0  0  0  0  0  0
   45.4460    1.5187    7.5220 C   0  0  0  0  0  0  0  0  0  0  0  0
   46.3760    0.3878    7.5192 N   0  0  0  0  0  0  0  0  0  0  0  0
   46.1479    5.0207    6.2841 O   0  0  0  0  0  0  0  0  0  0  0  0
   41.8880    4.0726    9.0812 C   0  0  0  0  0  0  0  0  0  0  0  0
   40.7330    3.2882    9.6857 C   0  0  0  0  0  0  0  0  0  0  0  0
   36.5314    9.0842    3.4016 C   0  0  1  0  0  0  0  0  0  0  0  0
   39.6727    4.1308   10.2745 N   0  0  0  0  0  0  0  0  0  0  0  0
   35.2529    9.0120    2.7759 O   0  0  0  0  0  0  0  0  0  0  0  0
   40.7628    7.0973    4.4591 C   0  0  2  0  0  0  0  0  0  0  0  0
   40.7671    8.1839    3.4877 N   0  0  0  0  0  0  0  0  0  0  0  0
   37.6020    4.5714   11.5854 C   0  0  0  0  0  0  0  0  0  0  0  0
   36.3311    3.9810   12.2667 C   0  0  0  0  0  0  0  0  0  0  0  0
   38.5188    3.4898   10.9566 C   0  0  0  0  0  0  0  0  0  0  0  0
   35.4270    3.3180   11.2796 N   0  0  0  0  0  0  0  0  0  0  0  0
   43.7970    3.0299    5.1919 O   0  0  0  0  0  0  0  0  0  0  0  0
   37.2433   10.4125    3.0760 C   0  0  2  0  0  0  0  0  0  0  0  0
   37.4173   10.6092    1.6751 O   0  0  0  0  0  0  0  0  0  0  0  0
   39.9008    7.5136    5.6342 C   0  0  2  0  0  0  0  0  0  0  0  0
   38.6152   10.4842    3.7705 C   0  0  2  0  0  0  0  0  0  0  0  0
   38.4870   10.2738    5.1810 O   0  0  0  0  0  0  0  0  0  0  0  0
   39.8536    6.3489    6.7046 C   0  0  2  0  0  0  0  0  0  0  0  0
   39.0318    6.7842    7.8329 O   0  0  0  0  0  0  0  0  0  0  0  0
   39.2942   11.8069    3.5346 C   0  0  0  0  0  0  0  0  0  0  0  0
   38.5286   12.8371    4.0322 O   0  0  0  0  0  0  0  0  0  0  0  0
   41.3131    6.0436    7.1838 C   0  0  1  0  0  0  0  0  0  0  0  0
   41.3487    5.0232    8.1387 O   0  0  0  0  0  0  0  0  0  0  0  0
  1  2  1  6  0  0  0
  1  5  1  0  0  0  0
  1 30  1  0  0  0  0
  3  4  1  1  0  0  0
  3  7  1  0  0  0  0
  3 35  1  0  0  0  0
  5  6  1  6  0  0  0
  5 16  1  0  0  0  0
  7 19  1  0  0  0  0
  8  4  1  0  0  0  0
  8 25  2  0  0  0  0
  9  8  1  6  0  0  0
  9 10  1  0  0  0  0
  9 13  1  0  0  0  0
 10 11  1  0  0  0  0
 11 12  1  0  0  0  0
 14 15  1  0  0  0  0
 14 36  1  0  0  0  0
 15 17  1  0  0  0  0
 16 18  1  6  0  0  0
 16 26  1  0  0  0  0
 17 23  1  0  0  0  0
 19 20  1  6  0  0  0
 19 28  1  0  0  0  0
 21 22  1  0  0  0  0
 21 23  1  0  0  0  0
 22 24  1  0  0  0  0
 26 27  1  6  0  0  0
 26 29  1  0  0  0  0
 28  2  1  6  0  0  0
 28 31  1  0  0  0  0
 29 30  1  0  0  0  0
 29 33  1  1  0  0  0
 31 32  1  1  0  0  0
 31 35  1  0  0  0  0
 33 34  1  0  0  0  0
 35 36  1  1  0  0  0
M  END
>  <CHROM.1>
-172.08231528,-106.42064296,169.15879279,-68.32083052,-177.78473873,-53.67481836
-179.81177401,-177.07138825,175.59841217,-64.49618454,177.41262904,-137.92238672
60.51153847,56.55246879,40.21466393,6.42561345,6.38470755,2.26892647,0.38447781
-0.84294579

>  <Name>
2f4u_lig

>  <RI>
0

>  <Rbt.Current_Directory>
/home/itssahil/PROJECTS/Mol_Feturizer/New_Systems/rnas/2f4u

>  <Rbt.Executable>
rbdock ($Id: //depot/dev/client3/rdock/2013.1/src/exe/rbdock.cxx#4 $)

>  <Rbt.Library>
libRbt.so (2013.1, Build901 2013/11/27)

>  <Rbt.Parameter_File>
/export/apps/rDock/src/rDock_2013.1_src/data/scripts/dock_solv.prm

>  <Rbt.Receptor>
prm/pocket_docking_2.prm

>  <SCORE>
-21.1301

>  <SCORE.INTER>
-11.8537

>  <SCORE.INTER.CONST>
1

>  <SCORE.INTER.POLAR>
-0.979796

>  <SCORE.INTER.ROT>
14

>  <SCORE.INTER.SOLV>
15.0799

>  <SCORE.INTER.VDW>
-22.5965

>  <SCORE.INTER.norm>
-0.32927

>  <SCORE.INTRA>
-9.29447

>  <SCORE.INTRA.DIHEDRAL>
-17.8009

>  <SCORE.INTRA.DIHEDRAL.0>
26.3805

>  <SCORE.INTRA.POLAR>
0

>  <SCORE.INTRA.POLAR.0>
0

>  <SCORE.INTRA.REPUL>
0

>  <SCORE.INTRA.REPUL.0>
0

>  <SCORE.INTRA.SOLV>
2.6392

>  <SCORE.INTRA.SOLV.lig_0>
-98.5587

>  <SCORE.INTRA.VDW>
-1.71363

>  <SCORE.INTRA.VDW.0>
-2.91167

>  <SCORE.INTRA.norm>
-0.25818

>  <SCORE.RESTR>
0.0180555

>  <SCORE.RESTR.CAVITY>
0.0180555

>  <SCORE.RESTR.norm>
0.000501541

>  <SCORE.SYSTEM>
0

>  <SCORE.SYSTEM.CONST>
0

>  <SCORE.SYSTEM.DIHEDRAL>
0

>  <SCORE.SYSTEM.SOLV>
0

>  <SCORE.SYSTEM.norm>
0

>  <SCORE.heavy>
36

>  <SCORE.norm>
-0.586948

>  <RMSD>
0.880

$$$$
2f4u_lig
 OpenBabel11021811433D
libRbt.so/2013.1/901 2013/11/27
 36 37  0  0  0  0  0  0  0  0999 V2000
   37.8274    9.0286    5.7906 C   0  0  2  0  0  0  0  0  0  0  0  0
   38.6247    7.9366    5.1992 O   0  0  0  0  0  0  0  0  0  0  0  0
   42.1915    5.6442    6.1575 C   0  0  2  0  0  0  0  0  0  0  0  0
   43.5538    5.3307    6.6680 N   0  0  0  0  0  0  0  0  0  0  0  0
   36.3284    8.6291    5.6255 C   0  0  2  0  0  0  0  0  0  0  0  0
   36.0074    7.3455    6.2765 N   0  0  0  0  0  0  0  0  0  0  0  0
   42.2260    6.7636    5.0580 C   0  0  0  0  0  0  0  0  0  0  0  0
   44.3200    4.0362    5.7064 C   0  0  0  0  0  0  0  0  0  0  0  0
   45.4046    4.1098    6.7350 C   0  0  1  0  0  0  0  0  0  0  0  0
   46.1259    2.7573    6.7305 C   0  0  0  0  0  0  0  0  0  0  0  0
   45.3380    1.5746    7.3235 C   0  0  0  0  0  0  0  0  0  0  0  0
   46.1831    0.3799    7.2732 N   0  0  0  0  0  0  0  0  0  0  0  0
   46.3412    5.0917    6.3846 O   0  0  0  0  0  0  0  0  0  0  0  0
   40.9033    4.2805    9.4001 C   0  0  0  0  0  0  0  0  0  0  0  0
   40.2331    5.1876   10.4213 C   0  0  0  0  0  0  0  0  0  0  0  0
   35.9905    8.5563    4.0994 C   0  0  1  0  0  0  0  0  0  0  0  0
   39.3819    4.4755   11.3957 N   0  0  0  0  0  0  0  0  0  0  0  0
   34.6304    8.1830    3.8937 O   0  0  0  0  0  0  0  0  0  0  0  0
   40.8051    7.1199    4.5757 C   0  0  2  0  0  0  0  0  0  0  0  0
   40.8344    8.1911    3.5878 N   0  0  0  0  0  0  0  0  0  0  0  0
   37.0346    3.9755   12.0591 C   0  0  0  0  0  0  0  0  0  0  0  0
   35.6146    3.5320   11.5953 C   0  0  0  0  0  0  0  0  0  0  0  0
   38.1074    3.8588   10.9451 C   0  0  0  0  0  0  0  0  0  0  0  0
   35.0862    4.4064   10.5056 N   0  0  0  0  0  0  0  0  0  0  0  0
   44.0589    3.4546    4.8375 O   0  0  0  0  0  0  0  0  0  0  0  0
   36.2980    9.9309    3.4725 C   0  0  2  0  0  0  0  0  0  0  0  0
   36.0298    9.9646    2.0729 O   0  0  0  0  0  0  0  0  0  0  0  0
   39.9493    7.5720    5.7420 C   0  0  2  0  0  0  0  0  0  0  0  0
   37.7650   10.3289    3.7155 C   0  0  2  0  0  0  0  0  0  0  0  0
   38.0815   10.2910    5.1114 O   0  0  0  0  0  0  0  0  0  0  0  0
   39.8752    6.4251    6.8299 C   0  0  2  0  0  0  0  0  0  0  0  0
   39.0600    6.8947    7.9493 O   0  0  0  0  0  0  0  0  0  0  0  0
   38.0677   11.7045    3.1842 C   0  0  0  0  0  0  0  0  0  0  0  0
   39.4159   11.9689    3.2715 O   0  0  0  0  0  0  0  0  0  0  0  0
   41.3269    6.0968    7.3176 C   0  0  1  0  0  0  0  0  0  0  0  0
   41.3389    5.0908    8.2881 O   0  0  0  0  0  0  0  0  0  0  0  0
  1  2  1  6  0  0  0
  1  5  1  0  0  0  0
  1 30  1  0  0  0  0
  3  4  1  1  0  0  0
  3  7  1  0  0  0  0
  3 35  1  0  0  0  0
  5  6  1  6  0  0  0
  5 16  1  0  0  0  0
  7 19  1  0  0  0  0
  8  4  1  0  0  0  0
  8 25  2  0  0  0  0
  9  8  1  6  0  0  0
  9 10  1  0  0  0  0
  9 13  1  0  0  0  0
 10 11  1  0  0  0  0
 11 12  1  0  0  0  0
 14 15  1  0  0  0  0
 14 36  1  0  0  0  0
 15 17  1  0  0  0  0
 16 18  1  1  0  0  0
 16 26  1  0  0  0  0
 17 23  1  0  0  0  0
 19 20  1  6  0  0  0
 19 28  1  0  0  0  0
 21 22  1  0  0  0  0
 21 23  1  0  0  0  0
 22 24  1  0  0  0  0
 26 27  1  6  0  0  0
 26 29  1  0  0  0  0
 28  2  1  6  0  0  0
 28 31  1  0  0  0  0
 29 30  1  0  0  0  0
 29 33  1  1  0  0  0
 31 32  1  1  0  0  0
 31 35  1  0  0  0  0
 33 34  1  0  0  0  0
 35 36  1  1  0  0  0
M  END
>  <CHROM.1>
-147.21826616,-89.78518236,156.38162369,-71.51292685,-178.46611335,162.10725889
-38.07103834,-69.66997131,-144.70672219,-63.32777411,171.97291483,-146.43743398
-172.86384698,-155.07717001,39.99576929,6.41975511,6.51403376,-2.43069997
-0.36143134,2.26297736

>  <Name>
2f4u_lig

>  <RI>
0

>  <Rbt.Current_Directory>
/home/itssahil/PROJECTS/Mol_Feturizer/New_Systems/rnas/2f4u

>  <Rbt.Executable>
rbdock ($Id: //depot/dev/client3/rdock/2013.1/src/exe/rbdock.cxx#4 $)

>  <Rbt.Library>
libRbt.so (2013.1, Build901 2013/11/27)

>  <Rbt.Parameter_File>
/export/apps/rDock/src/rDock_2013.1_src/data/scripts/dock_solv.prm

>  <Rbt.Receptor>
prm/pocket_docking_2.prm

>  <SCORE>
-16.8181

>  <SCORE.INTER>
-12.0751

>  <SCORE.INTER.CONST>
1

>  <SCORE.INTER.POLAR>
-0.979796

>  <SCORE.INTER.ROT>
14

>  <SCORE.INTER.SOLV>
12.6977

>  <SCORE.INTER.VDW>
-21.95

>  <SCORE.INTER.norm>
-0.335419

>  <SCORE.INTRA>
-4.84684

>  <SCORE.INTRA.DIHEDRAL>
-8.45174

>  <SCORE.INTRA.DIHEDRAL.0>
26.3805

>  <SCORE.INTRA.POLAR>
0

>  <SCORE.INTRA.POLAR.0>
0

>  <SCORE.INTRA.REPUL>
0

>  <SCORE.INTRA.REPUL.0>
0

>  <SCORE.INTRA.SOLV>
1.29934

>  <SCORE.INTRA.SOLV.lig_0>
-98.5587

>  <SCORE.INTRA.VDW>
-1.27064

>  <SCORE.INTRA.VDW.0>
-2.91167

>  <SCORE.INTRA.norm>
-0.134634

>  <SCORE.RESTR>
0.103797

>  <SCORE.RESTR.CAVITY>
0.103797

>  <SCORE.RESTR.norm>
0.00288325

>  <SCORE.SYSTEM>
0

>  <SCORE.SYSTEM.CONST>
0

>  <SCORE.SYSTEM.DIHEDRAL>
0

>  <SCORE.SYSTEM.SOLV>
0

>  <SCORE.SYSTEM.norm>
0

>  <SCORE.heavy>
36

>  <SCORE.norm>
-0.46717

>  <RMSD>
0.882

$$$$
2f4u_lig
 OpenBabel11021811433D
libRbt.so/2013.1/901 2013/11/27
 36 37  0  0  0  0  0  0  0  0999 V2000
   37.7598    9.0452    5.7747 C   0  0  2  0  0  0  0  0  0  0  0  0
   38.5340    7.9758    5.1153 O   0  0  0  0  0  0  0  0  0  0  0  0
   41.7918    5.3282    6.2430 C   0  0  2  0  0  0  0  0  0  0  0  0
   43.1090    4.8839    6.7744 N   0  0  0  0  0  0  0  0  0  0  0  0
   36.2575    8.7753    5.4516 C   0  0  2  0  0  0  0  0  0  0  0  0
   35.8056    7.4506    5.9156 N   0  0  0  0  0  0  0  0  0  0  0  0
   41.9557    6.3468    5.0604 C   0  0  0  0  0  0  0  0  0  0  0  0
   43.5219    3.2489    6.1880 C   0  0  0  0  0  0  0  0  0  0  0  0
   44.6890    3.3652    7.1176 C   0  0  1  0  0  0  0  0  0  0  0  0
   45.2093    1.9459    7.3714 C   0  0  0  0  0  0  0  0  0  0  0  0
   46.4291    1.8352    8.3047 C   0  0  0  0  0  0  0  0  0  0  0  0
   47.5667    2.4991    7.6653 N   0  0  0  0  0  0  0  0  0  0  0  0
   45.7218    4.0942    6.5125 O   0  0  0  0  0  0  0  0  0  0  0  0
   40.4838    4.4734    9.6660 C   0  0  0  0  0  0  0  0  0  0  0  0
   39.0001    4.1485    9.5763 C   0  0  0  0  0  0  0  0  0  0  0  0
   36.0421    8.9053    3.9071 C   0  0  1  0  0  0  0  0  0  0  0  0
   38.3411    3.9659   10.8852 N   0  0  0  0  0  0  0  0  0  0  0  0
   34.6831    8.6562    3.5574 O   0  0  0  0  0  0  0  0  0  0  0  0
   40.5862    6.8431    4.5538 C   0  0  2  0  0  0  0  0  0  0  0  0
   40.7400    7.8232    3.4861 N   0  0  0  0  0  0  0  0  0  0  0  0
   36.0896    5.0032   10.6512 C   0  0  0  0  0  0  0  0  0  0  0  0
   35.2192    3.7540   10.9830 C   0  0  0  0  0  0  0  0  0  0  0  0
   37.4424    5.0265   11.4096 C   0  0  0  0  0  0  0  0  0  0  0  0
   34.5721    3.8666   12.3246 N   0  0  0  0  0  0  0  0  0  0  0  0
   43.0764    2.5247    5.5259 O   0  0  0  0  0  0  0  0  0  0  0  0
   36.4842   10.3184    3.4770 C   0  0  2  0  0  0  0  0  0  0  0  0
   36.3344   10.5341    2.0760 O   0  0  0  0  0  0  0  0  0  0  0  0
   39.8075    7.4882    5.6828 C   0  0  2  0  0  0  0  0  0  0  0  0
   37.9481   10.5800    3.8747 C   0  0  2  0  0  0  0  0  0  0  0  0
   38.1461   10.3570    5.2752 O   0  0  0  0  0  0  0  0  0  0  0  0
   39.6008    6.4466    6.8561 C   0  0  2  0  0  0  0  0  0  0  0  0
   38.8642    7.1002    7.9370 O   0  0  0  0  0  0  0  0  0  0  0  0
   38.3777   11.9831    3.5390 C   0  0  0  0  0  0  0  0  0  0  0  0
   38.2543   12.2145    2.1875 O   0  0  0  0  0  0  0  0  0  0  0  0
   41.0046    5.9745    7.3658 C   0  0  1  0  0  0  0  0  0  0  0  0
   40.8997    5.0522    8.4111 O   0  0  0  0  0  0  0  0  0  0  0  0
  1  2  1  6  0  0  0
  1  5  1  0  0  0  0
  1 30  1  0  0  0  0
  3  4  1  1  0  0  0
  3  7  1  0  0  0  0
  3 35  1  0  0  0  0
  5  6  1  6  0  0  0
  5 16  1  0  0  0  0
  7 19  1  0  0  0  0
  8  4  1  0  0  0  0
  8 25  2  0  0  0  0
  9  8  1  6  0  0  0
  9 10  1  0  0  0  0
  9 13  1  0  0  0  0
 10 11  1  0  0  0  0
 11 12  1  0  0  0  0
 14 15  1  0  0  0  0
 14 36  1  0  0  0  0
 15 17  1  0  0  0  0
 16 18  1  1  0  0  0
 16 26  1  0  0  0  0
 17 23  1  0  0  0  0
 19 20  1  6  0  0  0
 19 28  1  0  0  0  0
 21 22  1  0  0  0  0
 21 23  1  0  0  0  0
 22 24  1  0  0  0  0
 26 27  1  6  0  0  0
 26 29  1  0  0  0  0
 28  2  1  6  0  0  0
 28 31  1  0  0  0  0
 29 30  1  0  0  0  0
 29 33  1  1  0  0  0
 31 32  1  1  0  0  0
 31 35  1  0  0  0  0
 33 34  1  0  0  0  0
 35 36  1  1  0  0  0
M  END
>  <CHROM.1>
-149.26981086,-102.60503349,161.16841375,179.58073511,-64.52276725,-161.23665835
67.87170497,105.67169427,74.90579447,75.75301144,69.97827351,-158.00758074
-59.55044133,-173.02943504,39.71499739,6.41437250,6.55139081,-2.37983588
-0.36396539,2.27496816

>  <Name>
2f4u_lig

>  <RI>
0

>  <Rbt.Current_Directory>
/home/itssahil/PROJECTS/Mol_Feturizer/New_Systems/rnas/2f4u

>  <Rbt.Executable>
rbdock ($Id: //depot/dev/client3/rdock/2013.1/src/exe/rbdock.cxx#4 $)

>  <Rbt.Library>
libRbt.so (2013.1, Build901 2013/11/27)

>  <Rbt.Parameter_File>
/export/apps/rDock/src/rDock_2013.1_src/data/scripts/dock_solv.prm

>  <Rbt.Receptor>
prm/pocket_docking_2.prm

>  <SCORE>
-14.1514

>  <SCORE.INTER>
-8.1205

>  <SCORE.INTER.CONST>
1

>  <SCORE.INTER.POLAR>
-0.979796

>  <SCORE.INTER.ROT>
14

>  <SCORE.INTER.SOLV>
12.7963

>  <SCORE.INTER.VDW>
-19.3464

>  <SCORE.INTER.norm>
-0.225569

>  <SCORE.INTRA>
-6.03086

>  <SCORE.INTRA.DIHEDRAL>
-14.119

>  <SCORE.INTRA.DIHEDRAL.0>
26.3805

>  <SCORE.INTRA.POLAR>
0

>  <SCORE.INTRA.POLAR.0>
0

>  <SCORE.INTRA.REPUL>
0

>  <SCORE.INTRA.REPUL.0>
0

>  <SCORE.INTRA.SOLV>
3.25899

>  <SCORE.INTRA.SOLV.lig_0>
-98.5587

>  <SCORE.INTRA.VDW>
-0.600856

>  <SCORE.INTRA.VDW.0>
-2.91167

>  <SCORE.INTRA.norm>
-0.167524

>  <SCORE.RESTR>
0

>  <SCORE.RESTR.CAVITY>
0

>  <SCORE.RESTR.norm>
0

>  <SCORE.SYSTEM>
0

>  <SCORE.SYSTEM.CONST>
0

>  <SCORE.SYSTEM.DIHEDRAL>
0

>  <SCORE.SYSTEM.SOLV>
0

>  <SCORE.SYSTEM.norm>
0

>  <SCORE.heavy>
36

>  <SCORE.norm>
-0.393093

>  <RMSD>
0.883

$$$$
2f4u_lig
 OpenBabel11021811433D
libRbt.so/2013.1/901 2013/11/27
 36 37  0  0  0  0  0  0  0  0999 V2000
   37.6774    9.0756    5.6176 C   0  0  2  0  0  0  0  0  0  0  0  0
   38.3289    7.8571    5.0992 O   0  0  0  0  0  0  0  0  0  0  0  0
   41.3906    5.2093    6.6838 C   0  0  2  0  0  0  0  0  0  0  0  0
   42.7127    4.7488    7.1884 N   0  0  0  0  0  0  0  0  0  0  0  0
   36.1962    9.0341    5.1293 C   0  0  2  0  0  0  0  0  0  0  0  0
   35.4796    7.8305    5.5899 N   0  0  0  0  0  0  0  0  0  0  0  0
   41.4895    5.7687    5.2207 C   0  0  0  0  0  0  0  0  0  0  0  0
   43.6311    3.9044    5.9114 C   0  0  0  0  0  0  0  0  0  0  0  0
   44.6085    3.6116    7.0062 C   0  0  1  0  0  0  0  0  0  0  0  0
   45.7849    2.8591    6.3742 C   0  0  0  0  0  0  0  0  0  0  0  0
   46.8538    2.3404    7.3539 C   0  0  0  0  0  0  0  0  0  0  0  0
   46.4773    0.9921    7.7830 N   0  0  0  0  0  0  0  0  0  0  0  0
   45.1080    4.8055    7.5441 O   0  0  0  0  0  0  0  0  0  0  0  0
   40.3293    5.0312   10.0453 C   0  0  0  0  0  0  0  0  0  0  0  0
   39.9282    3.6387    9.5821 C   0  0  0  0  0  0  0  0  0  0  0  0
   36.1779    9.1044    3.5661 C   0  0  1  0  0  0  0  0  0  0  0  0
   38.7305    3.0989   10.2567 N   0  0  0  0  0  0  0  0  0  0  0  0
   34.8435    9.0586    3.0676 O   0  0  0  0  0  0  0  0  0  0  0  0
   40.1257    6.2939    4.7278 C   0  0  2  0  0  0  0  0  0  0  0  0
   40.2278    6.8547    3.3864 N   0  0  0  0  0  0  0  0  0  0  0  0
   36.3892    3.6531   10.8979 C   0  0  0  0  0  0  0  0  0  0  0  0
   34.9596    4.0534   10.4243 C   0  0  0  0  0  0  0  0  0  0  0  0
   37.3805    3.4229    9.7274 C   0  0  0  0  0  0  0  0  0  0  0  0
   34.1149    4.5423   11.5552 N   0  0  0  0  0  0  0  0  0  0  0  0
   43.4831    3.6765    4.8685 O   0  0  0  0  0  0  0  0  0  0  0  0
   36.8961   10.3986    3.1344 C   0  0  2  0  0  0  0  0  0  0  0  0
   36.9405   10.5514    1.7179 O   0  0  0  0  0  0  0  0  0  0  0  0
   39.6088    7.3743    5.6567 C   0  0  2  0  0  0  0  0  0  0  0  0
   38.3300   10.4427    3.6925 C   0  0  2  0  0  0  0  0  0  0  0  0
   38.3316   10.2749    5.1145 O   0  0  0  0  0  0  0  0  0  0  0  0
   39.4638    6.7973    7.1231 C   0  0  2  0  0  0  0  0  0  0  0  0
   38.9817    7.8639    7.9995 O   0  0  0  0  0  0  0  0  0  0  0  0
   39.0238   11.7348    3.3532 C   0  0  0  0  0  0  0  0  0  0  0  0
   38.4423   12.7853    4.0266 O   0  0  0  0  0  0  0  0  0  0  0  0
   40.8644    6.2902    7.6073 C   0  0  1  0  0  0  0  0  0  0  0  0
   40.8138    5.7689    8.9034 O   0  0  0  0  0  0  0  0  0  0  0  0
  1  2  1  6  0  0  0
  1  5  1  0  0  0  0
  1 30  1  0  0  0  0
  3  4  1  1  0  0  0
  3  7  1  0  0  0  0
  3 35  1  0  0  0  0
  5  6  1  6  0  0  0
  5 16  1  0  0  0  0
  7 19  1  0  0  0  0
  8  4  1  0  0  0  0
  8 25  2  0  0  0  0
  9  8  1  6  0  0  0
  9 10  1  0  0  0  0
  9 13  1  0  0  0  0
 10 11  1  0  0  0  0
 11 12  1  0  0  0  0
 14 15  1  0  0  0  0
 14 36  1  0  0  0  0
 15 17  1  0  0  0  0
 16 18  1  1  0  0  0
 16 26  1  0  0  0  0
 17 23  1  0  0  0  0
 19 20  1  6  0  0  0
 19 28  1  0  0  0  0
 21 22  1  0  0  0  0
 21 23  1  0  0  0  0
 22 24  1  0  0  0  0
 26 27  1  6  0  0  0
 26 29  1  0  0  0  0
 28  2  1  6  0  0  0
 28 31  1  0  0  0  0
 29 30  1  0  0  0  0
 29 33  1  1  0  0  0
 31 32  1  1  0  0  0
 31 35  1  0  0  0  0
 33 34  1  0  0  0  0
 35 36  1  1  0  0  0
M  END
>  <CHROM.1>
-163.04535138,-39.93293989,-177.30431528,-174.46293221,89.68260584,-142.99093933
47.09242370,86.09833061,-141.49388934,-168.06552038,177.75731933,-168.70966065
68.07754501,-80.05910459,39.71269899,6.45193385,6.45629519,-2.34609858,-0.33484722
2.32618174

>  <Name>
2f4u_lig

>  <RI>
0

>  <Rbt.Current_Directory>
/home/itssahil/PROJECTS/Mol_Feturizer/New_Systems/rnas/2f4u

>  <Rbt.Executable>
rbdock ($Id: //depot/dev/client3/rdock/2013.1/src/exe/rbdock.cxx#4 $)

>  <Rbt.Library>
libRbt.so (2013.1, Build901 2013/11/27)

>  <Rbt.Parameter_File>
/export/apps/rDock/src/rDock_2013.1_src/data/scripts/dock_solv.prm

>  <Rbt.Receptor>
prm/pocket_docking_2.prm

>  <SCORE>
-16.8276

>  <SCORE.INTER>
-11.5749

>  <SCORE.INTER.CONST>
1

>  <SCORE.INTER.POLAR>
-1.88645

>  <SCORE.INTER.ROT>
14

>  <SCORE.INTER.SOLV>
14.0134

>  <SCORE.INTER.VDW>
-19.0328

>  <SCORE.INTER.norm>
-0.321524

>  <SCORE.INTRA>
-5.5698

>  <SCORE.INTRA.DIHEDRAL>
-12.0052

>  <SCORE.INTRA.DIHEDRAL.0>
26.3805

>  <SCORE.INTRA.POLAR>
0

>  <SCORE.INTRA.POLAR.0>
0

>  <SCORE.INTRA.REPUL>
0

>  <SCORE.INTRA.REPUL.0>
0

>  <SCORE.INTRA.SOLV>
-0.136376

>  <SCORE.INTRA.SOLV.lig_0>
-98.5587

>  <SCORE.INTRA.VDW>
0.501009

>  <SCORE.INTRA.VDW.0>
-2.91167

>  <SCORE.INTRA.norm>
-0.154717

>  <SCORE.RESTR>
0.317045

>  <SCORE.RESTR.CAVITY>
0.317045

>  <SCORE.RESTR.norm>
0.00880682

>  <SCORE.SYSTEM>
0

>  <SCORE.SYSTEM.CONST>
0

>  <SCORE.SYSTEM.DIHEDRAL>
0

>  <SCORE.SYSTEM.SOLV>
0

>  <SCORE.SYSTEM.norm>
0

>  <SCORE.heavy>
36

>  <SCORE.norm>
-0.467433

>  <RMSD>
0.908

$$$$
2f4u_lig
 OpenBabel11021811433D
libRbt.so/2013.1/901 2013/11/27
 36 37  0  0  0  0  0  0  0  0999 V2000
   37.4062    9.0843    5.7113 C   0  0  2  0  0  0  0  0  0  0  0  0
   38.1678    7.9505    5.1525 O   0  0  0  0  0  0  0  0  0  0  0  0
   41.1508    5.1909    6.6958 C   0  0  2  0  0  0  0  0  0  0  0  0
   42.4043    4.7039    7.3332 N   0  0  0  0  0  0  0  0  0  0  0  0
   35.9265    8.8997    5.2525 C   0  0  2  0  0  0  0  0  0  0  0  0
   35.3482    7.6195    5.7003 N   0  0  0  0  0  0  0  0  0  0  0  0
   41.4460    6.0682    5.4284 C   0  0  0  0  0  0  0  0  0  0  0  0
   43.2890    3.5943    6.2498 C   0  0  0  0  0  0  0  0  0  0  0  0
   44.1924    3.3943    7.4261 C   0  0  1  0  0  0  0  0  0  0  0  0
   45.0439    2.1529    7.1376 C   0  0  0  0  0  0  0  0  0  0  0  0
   45.9990    1.7176    8.2643 C   0  0  0  0  0  0  0  0  0  0  0  0
   47.1596    2.6104    8.2621 N   0  0  0  0  0  0  0  0  0  0  0  0
   45.0629    4.4844    7.5613 O   0  0  0  0  0  0  0  0  0  0  0  0
   40.4254    4.4628   10.0392 C   0  0  0  0  0  0  0  0  0  0  0  0
   39.1628    3.7156   10.4422 C   0  0  0  0  0  0  0  0  0  0  0  0
   35.8658    8.9996    3.6920 C   0  0  1  0  0  0  0  0  0  0  0  0
   38.0827    4.5846   10.9512 N   0  0  0  0  0  0  0  0  0  0  0  0
   34.5323    8.8262    3.2198 O   0  0  0  0  0  0  0  0  0  0  0  0
   40.1434    6.6132    4.8079 C   0  0  2  0  0  0  0  0  0  0  0  0
   40.4206    7.4649    3.6580 N   0  0  0  0  0  0  0  0  0  0  0  0
   35.8525    4.9721   11.9887 C   0  0  0  0  0  0  0  0  0  0  0  0
   35.1336    5.1678   10.6201 C   0  0  0  0  0  0  0  0  0  0  0  0
   37.0851    4.0344   11.9050 C   0  0  0  0  0  0  0  0  0  0  0  0
   34.1442    6.2860   10.6656 N   0  0  0  0  0  0  0  0  0  0  0  0
   43.1607    3.2193    5.2477 O   0  0  0  0  0  0  0  0  0  0  0  0
   36.4371   10.3696    3.2750 C   0  0  2  0  0  0  0  0  0  0  0  0
   36.4335   10.5549    1.8617 O   0  0  0  0  0  0  0  0  0  0  0  0
   39.3729    7.4276    5.8279 C   0  0  2  0  0  0  0  0  0  0  0  0
   37.8710   10.5503    3.8047 C   0  0  2  0  0  0  0  0  0  0  0  0
   37.9220   10.3547    5.2222 O   0  0  0  0  0  0  0  0  0  0  0  0
   39.0336    6.5297    7.0861 C   0  0  2  0  0  0  0  0  0  0  0  0
   38.3077    7.3443    8.0595 O   0  0  0  0  0  0  0  0  0  0  0  0
   38.4204   11.9138    3.4805 C   0  0  0  0  0  0  0  0  0  0  0  0
   39.7750   11.9574    3.7215 O   0  0  0  0  0  0  0  0  0  0  0  0
   40.3721    6.0063    7.7090 C   0  0  1  0  0  0  0  0  0  0  0  0
   40.1493    5.2060    8.8334 O   0  0  0  0  0  0  0  0  0  0  0  0
  1  2  1  6  0  0  0
  1  5  1  0  0  0  0
  1 30  1  0  0  0  0
  3  4  1  1  0  0  0
  3  7  1  0  0  0  0
  3 35  1  0  0  0  0
  5  6  1  6  0  0  0
  5 16  1  0  0  0  0
  7 19  1  0  0  0  0
  8  4  1  0  0  0  0
  8 25  2  0  0  0  0
  9  8  1  6  0  0  0
  9 10  1  0  0  0  0
  9 13  1  0  0  0  0
 10 11  1  0  0  0  0
 11 12  1  0  0  0  0
 14 15  1  0  0  0  0
 14 36  1  0  0  0  0
 15 17  1  0  0  0  0
 16 18  1  1  0  0  0
 16 26  1  0  0  0  0
 17 23  1  0  0  0  0
 19 20  1  6  0  0  0
 19 28  1  0  0  0  0
 21 22  1  0  0  0  0
 21 23  1  0  0  0  0
 22 24  1  0  0  0  0
 26 27  1  6  0  0  0
 26 29  1  0  0  0  0
 28  2  1  6  0  0  0
 28 31  1  0  0  0  0
 29 30  1  0  0  0  0
 29 33  1  1  0  0  0
 31 32  1  1  0  0  0
 31 35  1  0  0  0  0
 33 34  1  0  0  0  0
 35 36  1  1  0  0  0
M  END
>  <CHROM.1>
-151.20405276,-64.75669276,165.53728138,-176.76520392,-77.00829344,-70.84995127
-173.62450191,-153.00575235,-164.23146800,-167.84374416,59.58583629,-161.94187381
-167.98038578,71.01931126,39.45481682,6.53385779,6.71197917,-2.38549496,-0.38123854
2.22372226

>  <Name>
2f4u_lig

>  <RI>
0

>  <Rbt.Current_Directory>
/home/itssahil/PROJECTS/Mol_Feturizer/New_Systems/rnas/2f4u

>  <Rbt.Executable>
rbdock ($Id: //depot/dev/client3/rdock/2013.1/src/exe/rbdock.cxx#4 $)

>  <Rbt.Library>
libRbt.so (2013.1, Build901 2013/11/27)

>  <Rbt.Parameter_File>
/export/apps/rDock/src/rDock_2013.1_src/data/scripts/dock_solv.prm

>  <Rbt.Receptor>
prm/pocket_docking_2.prm

>  <SCORE>
-21.2043

>  <SCORE.INTER>
-12.7225

>  <SCORE.INTER.CONST>
1

>  <SCORE.INTER.POLAR>
-1.7292

>  <SCORE.INTER.ROT>
14

>  <SCORE.INTER.SOLV>
14.5026

>  <SCORE.INTER.VDW>
-20.4852

>  <SCORE.INTER.norm>
-0.353404

>  <SCORE.INTRA>
-8.49213

>  <SCORE.INTRA.DIHEDRAL>
-16.4886

>  <SCORE.INTRA.DIHEDRAL.0>
26.3805

>  <SCORE.INTRA.POLAR>
0

>  <SCORE.INTRA.POLAR.0>
0

>  <SCORE.INTRA.REPUL>
0

>  <SCORE.INTRA.REPUL.0>
0

>  <SCORE.INTRA.SOLV>
1.93705

>  <SCORE.INTRA.SOLV.lig_0>
-98.5587

>  <SCORE.INTRA.VDW>
-1.21634

>  <SCORE.INTRA.VDW.0>
-2.91167

>  <SCORE.INTRA.norm>
-0.235893

>  <SCORE.RESTR>
0.0103792

>  <SCORE.RESTR.CAVITY>
0.0103792

>  <SCORE.RESTR.norm>
0.000288312

>  <SCORE.SYSTEM>
0

>  <SCORE.SYSTEM.CONST>
0

>  <SCORE.SYSTEM.DIHEDRAL>
0

>  <SCORE.SYSTEM.SOLV>
0

>  <SCORE.SYSTEM.norm>
0

>  <SCORE.heavy>
36

>  <SCORE.norm>
-0.589008

>  <RMSD>
0.919

$$$$
2f4u_lig
 OpenBabel11021811433D
libRbt.so/2013.1/901 2013/11/27
 36 37  0  0  0  0  0  0  0  0999 V2000
   37.6470    9.2258    5.6122 C   0  0  2  0  0  0  0  0  0  0  0  0
   38.3896    8.0920    5.0283 O   0  0  0  0  0  0  0  0  0  0  0  0
   41.4690    5.3804    6.4635 C   0  0  2  0  0  0  0  0  0  0  0  0
   42.7593    4.9131    7.0392 N   0  0  0  0  0  0  0  0  0  0  0  0
   36.1621    9.0696    5.1595 C   0  0  2  0  0  0  0  0  0  0  0  0
   35.5691    7.7894    5.5880 N   0  0  0  0  0  0  0  0  0  0  0  0
   41.6868    6.2275    5.1603 C   0  0  0  0  0  0  0  0  0  0  0  0
   43.7439    4.0688    5.8124 C   0  0  0  0  0  0  0  0  0  0  0  0
   44.6579    3.7688    6.9589 C   0  0  1  0  0  0  0  0  0  0  0  0
   45.8527    2.9919    6.3946 C   0  0  0  0  0  0  0  0  0  0  0  0
   45.5988    1.5059    6.0801 C   0  0  0  0  0  0  0  0  0  0  0  0
   45.4359    0.7837    7.3433 N   0  0  0  0  0  0  0  0  0  0  0  0
   45.1488    4.9587    7.5135 O   0  0  0  0  0  0  0  0  0  0  0  0
   40.9454    4.6377    9.7973 C   0  0  0  0  0  0  0  0  0  0  0  0
   39.6846    4.3743   10.6071 C   0  0  0  0  0  0  0  0  0  0  0  0
   36.0932    9.1984    3.6015 C   0  0  1  0  0  0  0  0  0  0  0  0
   38.6093    3.7024    9.8499 N   0  0  0  0  0  0  0  0  0  0  0  0
   34.7546    9.0516    3.1348 O   0  0  0  0  0  0  0  0  0  0  0  0
   40.3482    6.7531    4.6029 C   0  0  2  0  0  0  0  0  0  0  0  0
   40.5549    7.5772    3.4187 N   0  0  0  0  0  0  0  0  0  0  0  0
   36.5422    3.1390   11.1187 C   0  0  0  0  0  0  0  0  0  0  0  0
   35.0441    3.4650   11.3974 C   0  0  0  0  0  0  0  0  0  0  0  0
   37.1941    4.0909   10.0821 C   0  0  0  0  0  0  0  0  0  0  0  0
   34.8589    4.8688   11.8731 N   0  0  0  0  0  0  0  0  0  0  0  0
   43.6532    3.8446    4.7622 O   0  0  0  0  0  0  0  0  0  0  0  0
   36.6806   10.5679    3.2055 C   0  0  2  0  0  0  0  0  0  0  0  0
   36.6709   10.7786    1.7959 O   0  0  0  0  0  0  0  0  0  0  0  0
   39.6339    7.5896    5.6456 C   0  0  2  0  0  0  0  0  0  0  0  0
   38.1201   10.7195    3.7292 C   0  0  2  0  0  0  0  0  0  0  0  0
   38.1770   10.4978    5.1427 O   0  0  0  0  0  0  0  0  0  0  0  0
   39.3717    6.7216    6.9426 C   0  0  2  0  0  0  0  0  0  0  0  0
   38.6992    7.5575    7.9362 O   0  0  0  0  0  0  0  0  0  0  0  0
   38.6860   12.0812    3.4261 C   0  0  0  0  0  0  0  0  0  0  0  0
   40.0388   12.1081    3.6797 O   0  0  0  0  0  0  0  0  0  0  0  0
   40.7461    6.2179    7.4999 C   0  0  1  0  0  0  0  0  0  0  0  0
   40.5920    5.4446    8.6542 O   0  0  0  0  0  0  0  0  0  0  0  0
  1  2  1  6  0  0  0
  1  5  1  0  0  0  0
  1 30  1  0  0  0  0
  3  4  1  1  0  0  0
  3  7  1  0  0  0  0
  3 35  1  0  0  0  0
  5  6  1  6  0  0  0
  5 16  1  0  0  0  0
  7 19  1  0  0  0  0
  8  4  1  0  0  0  0
  8 25  2  0  0  0  0
  9  8  1  6  0  0  0
  9 10  1  0  0  0  0
  9 13  1  0  0  0  0
 10 11  1  0  0  0  0
 11 12  1  0  0  0  0
 14 15  1  0  0  0  0
 14 36  1  0  0  0  0
 15 17  1  0  0  0  0
 16 18  1  1  0  0  0
 16 26  1  0  0  0  0
 17 23  1  0  0  0  0
 19 20  1  6  0  0  0
 19 28  1  0  0  0  0
 21 22  1  0  0  0  0
 21 23  1  0  0  0  0
 22 24  1  0  0  0  0
 26 27  1  6  0  0  0
 26 29  1  0  0  0  0
 28  2  1  6  0  0  0
 28 31  1  0  0  0  0
 29 30  1  0  0  0  0
 29 33  1  1  0  0  0
 31 32  1  1  0  0  0
 31 35  1  0  0  0  0
 33 34  1  0  0  0  0
 35 36  1  1  0  0  0
M  END
>  <CHROM.1>
-154.67859031,-52.65632086,-178.28117480,-77.06080423,-69.92089897,57.97970638
173.92424999,-141.99064904,-95.09146357,-57.40608589,-178.90057257,-162.72960992
-168.94500098,58.18760346,39.70793531,6.52990361,6.43086558,2.28875567,0.37935961
-0.82337781

>  <Name>
2f4u_lig

>  <RI>
0

>  <Rbt.Current_Directory>
/home/itssahil/PROJECTS/Mol_Feturizer/New_Systems/rnas/2f4u

>  <Rbt.Executable>
rbdock ($Id: //depot/dev/client3/rdock/2013.1/src/exe/rbdock.cxx#4 $)

>  <Rbt.Library>
libRbt.so (2013.1, Build901 2013/11/27)

>  <Rbt.Parameter_File>
/export/apps/rDock/src/rDock_2013.1_src/data/scripts/dock_solv.prm

>  <Rbt.Receptor>
prm/pocket_docking_2.prm

>  <SCORE>
-20.5585

>  <SCORE.INTER>
-12.347

>  <SCORE.INTER.CONST>
1

>  <SCORE.INTER.POLAR>
-1.82228

>  <SCORE.INTER.ROT>
14

>  <SCORE.INTER.SOLV>
14.1739

>  <SCORE.INTER.VDW>
-19.8151

>  <SCORE.INTER.norm>
-0.342973

>  <SCORE.INTRA>
-8.26045

>  <SCORE.INTRA.DIHEDRAL>
-17.7817

>  <SCORE.INTRA.DIHEDRAL.0>
26.3805

>  <SCORE.INTRA.POLAR>
0

>  <SCORE.INTRA.POLAR.0>
0

>  <SCORE.INTRA.REPUL>
0

>  <SCORE.INTRA.REPUL.0>
0

>  <SCORE.INTRA.SOLV>
1.86796

>  <SCORE.INTRA.SOLV.lig_0>
-98.5587

>  <SCORE.INTRA.VDW>
-0.303603

>  <SCORE.INTRA.VDW.0>
-2.91167

>  <SCORE.INTRA.norm>
-0.229457

>  <SCORE.RESTR>
0.0489528

>  <SCORE.RESTR.CAVITY>
0.0489528

>  <SCORE.RESTR.norm>
0.0013598

>  <SCORE.SYSTEM>
0

>  <SCORE.SYSTEM.CONST>
0

>  <SCORE.SYSTEM.DIHEDRAL>
0

>  <SCORE.SYSTEM.SOLV>
0

>  <SCORE.SYSTEM.norm>
0

>  <SCORE.heavy>
36

>  <SCORE.norm>
-0.57107

>  <RMSD>
0.922

$$$$
2f4u_lig
 OpenBabel11021811433D
libRbt.so/2013.1/901 2013/11/27
 36 37  0  0  0  0  0  0  0  0999 V2000
   37.8294    8.9430    5.6516 C   0  0  2  0  0  0  0  0  0  0  0  0
   38.5771    7.7923    5.1088 O   0  0  0  0  0  0  0  0  0  0  0  0
   42.0823    5.5539    6.3732 C   0  0  2  0  0  0  0  0  0  0  0  0
   43.4851    5.2709    6.7816 N   0  0  0  0  0  0  0  0  0  0  0  0
   36.3774    8.8388    5.0905 C   0  0  2  0  0  0  0  0  0  0  0  0
   35.7153    7.5737    5.4589 N   0  0  0  0  0  0  0  0  0  0  0  0
   42.0117    6.1980    4.9438 C   0  0  0  0  0  0  0  0  0  0  0  0
   44.2056    3.9903    5.7675 C   0  0  0  0  0  0  0  0  0  0  0  0
   45.3616    4.0899    6.7127 C   0  0  1  0  0  0  0  0  0  0  0  0
   45.6813    2.6685    7.1888 C   0  0  0  0  0  0  0  0  0  0  0  0
   46.8004    2.5486    8.2399 C   0  0  0  0  0  0  0  0  0  0  0  0
   47.0654    1.1284    8.4783 N   0  0  0  0  0  0  0  0  0  0  0  0
   46.4934    4.5793    6.0466 O   0  0  0  0  0  0  0  0  0  0  0  0
   41.3628    4.9520    9.7164 C   0  0  0  0  0  0  0  0  0  0  0  0
   39.8948    4.9777   10.1153 C   0  0  0  0  0  0  0  0  0  0  0  0
   36.4261    8.9856    3.5334 C   0  0  1  0  0  0  0  0  0  0  0  0
   39.5210    3.9530   11.1108 N   0  0  0  0  0  0  0  0  0  0  0  0
   35.1211    8.8862    2.9690 O   0  0  0  0  0  0  0  0  0  0  0  0
   40.5590    6.5380    4.5530 C   0  0  2  0  0  0  0  0  0  0  0  0
   40.4985    7.1775    3.2447 N   0  0  0  0  0  0  0  0  0  0  0  0
   37.5631    2.4156   11.1658 C   0  0  0  0  0  0  0  0  0  0  0  0
   36.5796    3.5462   10.7381 C   0  0  0  0  0  0  0  0  0  0  0  0
   39.0101    2.6352   10.6524 C   0  0  0  0  0  0  0  0  0  0  0  0
   35.2387    3.3891   11.3772 N   0  0  0  0  0  0  0  0  0  0  0  0
   43.8933    3.4008    4.9211 O   0  0  0  0  0  0  0  0  0  0  0  0
   37.0829   10.3397    3.1981 C   0  0  2  0  0  0  0  0  0  0  0  0
   37.1825   10.5650    1.7942 O   0  0  0  0  0  0  0  0  0  0  0  0
   39.9446    7.4782    5.5707 C   0  0  2  0  0  0  0  0  0  0  0  0
   38.4844   10.4401    3.8267 C   0  0  2  0  0  0  0  0  0  0  0  0
   38.4314   10.2022    5.2376 O   0  0  0  0  0  0  0  0  0  0  0  0
   39.9724    6.8095    7.0048 C   0  0  2  0  0  0  0  0  0  0  0  0
   39.3914    7.7441    7.9676 O   0  0  0  0  0  0  0  0  0  0  0  0
   39.1128   11.7861    3.5824 C   0  0  0  0  0  0  0  0  0  0  0  0
   39.4405   11.9309    2.2532 O   0  0  0  0  0  0  0  0  0  0  0  0
   41.4583    6.4935    7.3861 C   0  0  1  0  0  0  0  0  0  0  0  0
   41.5612    5.9029    8.6490 O   0  0  0  0  0  0  0  0  0  0  0  0
  1  2  1  6  0  0  0
  1  5  1  0  0  0  0
  1 30  1  0  0  0  0
  3  4  1  1  0  0  0
  3  7  1  0  0  0  0
  3 35  1  0  0  0  0
  5  6  1  6  0  0  0
  5 16  1  0  0  0  0
  7 19  1  0  0  0  0
  8  4  1  0  0  0  0
  8 25  2  0  0  0  0
  9  8  1  6  0  0  0
  9 10  1  0  0  0  0
  9 13  1  0  0  0  0
 10 11  1  0  0  0  0
 11 12  1  0  0  0  0
 14 15  1  0  0  0  0
 14 36  1  0  0  0  0
 15 17  1  0  0  0  0
 16 18  1  1  0  0  0
 16 26  1  0  0  0  0
 17 23  1  0  0  0  0
 19 20  1  6  0  0  0
 19 28  1  0  0  0  0
 21 22  1  0  0  0  0
 21 23  1  0  0  0  0
 22 24  1  0  0  0  0
 26 27  1  6  0  0  0
 26 29  1  0  0  0  0
 28  2  1  6  0  0  0
 28 31  1  0  0  0  0
 29 30  1  0  0  0  0
 29 33  1  1  0  0  0
 31 32  1  1  0  0  0
 31 35  1  0  0  0  0
 33 34  1  0  0  0  0
 35 36  1  1  0  0  0
M  END
>  <CHROM.1>
-172.11852187,-67.00189392,129.19191593,-176.71255726,-174.35535776,174.23857954
-65.78180255,-92.42419877,-118.33596714,-173.37592467,56.35524970,-163.36989893
-69.74941066,-63.41428836,40.25164118,6.41532142,6.43127769,2.27404159,0.30440552
-0.85641797

>  <Name>
2f4u_lig

>  <RI>
0

>  <Rbt.Current_Directory>
/home/itssahil/PROJECTS/Mol_Feturizer/New_Systems/rnas/2f4u

>  <Rbt.Executable>
rbdock ($Id: //depot/dev/client3/rdock/2013.1/src/exe/rbdock.cxx#4 $)

>  <Rbt.Library>
libRbt.so (2013.1, Build901 2013/11/27)

>  <Rbt.Parameter_File>
/export/apps/rDock/src/rDock_2013.1_src/data/scripts/dock_solv.prm

>  <Rbt.Receptor>
prm/pocket_docking_2.prm

>  <SCORE>
-21.5812

>  <SCORE.INTER>
-10.5208

>  <SCORE.INTER.CONST>
1

>  <SCORE.INTER.POLAR>
-1.01083

>  <SCORE.INTER.ROT>
14

>  <SCORE.INTER.SOLV>
15.6525

>  <SCORE.INTER.VDW>
-21.7952

>  <SCORE.INTER.norm>
-0.292243

>  <SCORE.INTRA>
-11.2653

>  <SCORE.INTRA.DIHEDRAL>
-19.5004

>  <SCORE.INTRA.DIHEDRAL.0>
26.3805

>  <SCORE.INTRA.POLAR>
0

>  <SCORE.INTRA.POLAR.0>
0

>  <SCORE.INTRA.REPUL>
0

>  <SCORE.INTRA.REPUL.0>
0

>  <SCORE.INTRA.SOLV>
-0.655468

>  <SCORE.INTRA.SOLV.lig_0>
-98.5587

>  <SCORE.INTRA.VDW>
-1.18739

>  <SCORE.INTRA.VDW.0>
-2.91167

>  <SCORE.INTRA.norm>
-0.312926

>  <SCORE.RESTR>
0.204842

>  <SCORE.RESTR.CAVITY>
0.204842

>  <SCORE.RESTR.norm>
0.00569007

>  <SCORE.SYSTEM>
0

>  <SCORE.SYSTEM.CONST>
0

>  <SCORE.SYSTEM.DIHEDRAL>
0

>  <SCORE.SYSTEM.SOLV>
0

>  <SCORE.SYSTEM.norm>
0

>  <SCORE.heavy>
36

>  <SCORE.norm>
-0.599479

>  <RMSD>
0.928

$$$$
2f4u_lig
 OpenBabel11021811433D
libRbt.so/2013.1/901 2013/11/27
 36 37  0  0  0  0  0  0  0  0999 V2000
   37.6818    9.3398    5.3554 C   0  0  2  0  0  0  0  0  0  0  0  0
   38.4648    8.2045    4.8301 O   0  0  0  0  0  0  0  0  0  0  0  0
   41.1960    5.3977    6.7162 C   0  0  2  0  0  0  0  0  0  0  0  0
   42.4046    4.8815    7.4145 N   0  0  0  0  0  0  0  0  0  0  0  0
   36.2274    9.1680    4.8177 C   0  0  2  0  0  0  0  0  0  0  0  0
   35.6180    7.8888    5.2258 N   0  0  0  0  0  0  0  0  0  0  0  0
   41.5608    6.0812    5.3513 C   0  0  0  0  0  0  0  0  0  0  0  0
   43.0822    3.4638    6.5669 C   0  0  0  0  0  0  0  0  0  0  0  0
   44.0081    3.3836    7.7400 C   0  0  1  0  0  0  0  0  0  0  0  0
   44.7307    2.0345    7.6555 C   0  0  0  0  0  0  0  0  0  0  0  0
   45.9363    1.9778    6.6991 C   0  0  0  0  0  0  0  0  0  0  0  0
   46.6916    0.7539    6.9738 N   0  0  0  0  0  0  0  0  0  0  0  0
   44.9793    4.3912    7.6626 O   0  0  0  0  0  0  0  0  0  0  0  0
   40.4307    5.0630   10.0718 C   0  0  0  0  0  0  0  0  0  0  0  0
   39.0809    4.8365   10.7364 C   0  0  0  0  0  0  0  0  0  0  0  0
   36.2500    9.2781    3.2569 C   0  0  1  0  0  0  0  0  0  0  0  0
   38.1992    3.9004   10.0103 N   0  0  0  0  0  0  0  0  0  0  0  0
   34.9423    9.1166    2.7137 O   0  0  0  0  0  0  0  0  0  0  0  0
   40.3088    6.6612    4.6624 C   0  0  2  0  0  0  0  0  0  0  0  0
   40.6541    7.3355    3.4173 N   0  0  0  0  0  0  0  0  0  0  0  0
   36.1315    2.9703   11.0396 C   0  0  0  0  0  0  0  0  0  0  0  0
   35.8956    4.1586   12.0196 C   0  0  0  0  0  0  0  0  0  0  0  0
   37.6298    2.7265   10.7212 C   0  0  0  0  0  0  0  0  0  0  0  0
   34.4417    4.3984   12.2644 N   0  0  0  0  0  0  0  0  0  0  0  0
   42.8570    2.9147    5.6674 O   0  0  0  0  0  0  0  0  0  0  0  0
   36.8512   10.6469    2.8798 C   0  0  2  0  0  0  0  0  0  0  0  0
   36.9237   10.8412    1.4696 O   0  0  0  0  0  0  0  0  0  0  0  0
   39.6221    7.6619    5.5704 C   0  0  2  0  0  0  0  0  0  0  0  0
   38.2562   10.8147    3.4858 C   0  0  2  0  0  0  0  0  0  0  0  0
   38.2308   10.6098    4.9027 O   0  0  0  0  0  0  0  0  0  0  0  0
   39.2115    6.9609    6.9285 C   0  0  2  0  0  0  0  0  0  0  0  0
   38.5690    7.9521    7.7904 O   0  0  0  0  0  0  0  0  0  0  0  0
   38.8306   12.1766    3.2003 C   0  0  0  0  0  0  0  0  0  0  0  0
   40.1685   12.2125    3.5225 O   0  0  0  0  0  0  0  0  0  0  0  0
   40.5013    6.3994    7.6173 C   0  0  1  0  0  0  0  0  0  0  0  0
   40.2146    5.7677    8.8310 O   0  0  0  0  0  0  0  0  0  0  0  0
  1  2  1  6  0  0  0
  1  5  1  0  0  0  0
  1 30  1  0  0  0  0
  3  4  1  1  0  0  0
  3  7  1  0  0  0  0
  3 35  1  0  0  0  0
  5  6  1  6  0  0  0
  5 16  1  0  0  0  0
  7 19  1  0  0  0  0
  8  4  1  0  0  0  0
  8 25  2  0  0  0  0
  9  8  1  6  0  0  0
  9 10  1  0  0  0  0
  9 13  1  0  0  0  0
 10 11  1  0  0  0  0
 11 12  1  0  0  0  0
 14 15  1  0  0  0  0
 14 36  1  0  0  0  0
 15 17  1  0  0  0  0
 16 18  1  1  0  0  0
 16 26  1  0  0  0  0
 17 23  1  0  0  0  0
 19 20  1  6  0  0  0
 19 28  1  0  0  0  0
 21 22  1  0  0  0  0
 21 23  1  0  0  0  0
 22 24  1  0  0  0  0
 26 27  1  6  0  0  0
 26 29  1  0  0  0  0
 28  2  1  6  0  0  0
 28 31  1  0  0  0  0
 29 30  1  0  0  0  0
 29 33  1  1  0  0  0
 31 32  1  1  0  0  0
 31 35  1  0  0  0  0
 33 34  1  0  0  0  0
 35 36  1  1  0  0  0
M  END
>  <CHROM.1>
-150.68016800,-70.51906976,168.54002436,81.34913627,166.56532371,67.47992920
-179.34731948,125.82951505,104.61856757,177.85373101,-63.88683240,-171.64199696
-168.43522875,58.97859476,39.62556177,6.49172222,6.53036509,2.15367597,0.39306910
-0.84245766

>  <Name>
2f4u_lig

>  <RI>
0

>  <Rbt.Current_Directory>
/home/itssahil/PROJECTS/Mol_Feturizer/New_Systems/rnas/2f4u

>  <Rbt.Executable>
rbdock ($Id: //depot/dev/client3/rdock/2013.1/src/exe/rbdock.cxx#4 $)

>  <Rbt.Library>
libRbt.so (2013.1, Build901 2013/11/27)

>  <Rbt.Parameter_File>
/export/apps/rDock/src/rDock_2013.1_src/data/scripts/dock_solv.prm

>  <Rbt.Receptor>
prm/pocket_docking_2.prm

>  <SCORE>
-22.4647

>  <SCORE.INTER>
-14.0893

>  <SCORE.INTER.CONST>
1

>  <SCORE.INTER.POLAR>
-1.69948

>  <SCORE.INTER.ROT>
14

>  <SCORE.INTER.SOLV>
13.7645

>  <SCORE.INTER.VDW>
-21.2494

>  <SCORE.INTER.norm>
-0.391368

>  <SCORE.INTRA>
-8.49874

>  <SCORE.INTRA.DIHEDRAL>
-16.5219

>  <SCORE.INTRA.DIHEDRAL.0>
26.3805

>  <SCORE.INTRA.POLAR>
0

>  <SCORE.INTRA.POLAR.0>
0

>  <SCORE.INTRA.REPUL>
0

>  <SCORE.INTRA.REPUL.0>
0

>  <SCORE.INTRA.SOLV>
0.111847

>  <SCORE.INTRA.SOLV.lig_0>
-98.5587

>  <SCORE.INTRA.VDW>
-0.293708

>  <SCORE.INTRA.VDW.0>
-2.91167

>  <SCORE.INTRA.norm>
-0.236076

>  <SCORE.RESTR>
0.123268

>  <SCORE.RESTR.CAVITY>
0.123268

>  <SCORE.RESTR.norm>
0.00342411

>  <SCORE.SYSTEM>
0

>  <SCORE.SYSTEM.CONST>
0

>  <SCORE.SYSTEM.DIHEDRAL>
0

>  <SCORE.SYSTEM.SOLV>
0

>  <SCORE.SYSTEM.norm>
0

>  <SCORE.heavy>
36

>  <SCORE.norm>
-0.62402

>  <RMSD>
0.945

$$$$
2f4u_lig
 OpenBabel11021811433D
libRbt.so/2013.1/901 2013/11/27
 36 37  0  0  0  0  0  0  0  0999 V2000
   37.4238    8.8330    5.8993 C   0  0  2  0  0  0  0  0  0  0  0  0
   38.1240    7.6502    5.3621 O   0  0  0  0  0  0  0  0  0  0  0  0
   41.6852    5.4382    6.5110 C   0  0  2  0  0  0  0  0  0  0  0  0
   43.1104    5.1587    6.8355 N   0  0  0  0  0  0  0  0  0  0  0  0
   35.9186    8.6728    5.5213 C   0  0  2  0  0  0  0  0  0  0  0  0
   35.3263    7.4345    6.0596 N   0  0  0  0  0  0  0  0  0  0  0  0
   41.5194    5.9948    5.0529 C   0  0  0  0  0  0  0  0  0  0  0  0
   43.7694    3.8722    5.7876 C   0  0  0  0  0  0  0  0  0  0  0  0
   44.9804    3.9783    6.6606 C   0  0  1  0  0  0  0  0  0  0  0  0
   45.6941    2.6227    6.6122 C   0  0  0  0  0  0  0  0  0  0  0  0
   46.9696    2.5049    7.4669 C   0  0  0  0  0  0  0  0  0  0  0  0
   47.5212    1.1592    7.2975 N   0  0  0  0  0  0  0  0  0  0  0  0
   45.8630    4.9413    6.1525 O   0  0  0  0  0  0  0  0  0  0  0  0
   41.1407    5.1035    9.9565 C   0  0  0  0  0  0  0  0  0  0  0  0
   39.8785    5.5634   10.6707 C   0  0  0  0  0  0  0  0  0  0  0  0
   35.7841    8.6987    3.9625 C   0  0  1  0  0  0  0  0  0  0  0  0
   38.6325    4.9837   10.1296 N   0  0  0  0  0  0  0  0  0  0  0  0
   34.4246    8.5443    3.5636 O   0  0  0  0  0  0  0  0  0  0  0  0
   40.0463    6.3331    4.7460 C   0  0  2  0  0  0  0  0  0  0  0  0
   39.8992    6.8923    3.4081 N   0  0  0  0  0  0  0  0  0  0  0  0
   36.4198    3.8623   10.3442 C   0  0  0  0  0  0  0  0  0  0  0  0
   35.5499    5.1551   10.3522 C   0  0  0  0  0  0  0  0  0  0  0  0
   37.8239    4.0644   10.9712 C   0  0  0  0  0  0  0  0  0  0  0  0
   34.1487    4.8863    9.9100 N   0  0  0  0  0  0  0  0  0  0  0  0
   43.4071    3.2772    4.9654 O   0  0  0  0  0  0  0  0  0  0  0  0
   36.3735   10.0283    3.4507 C   0  0  2  0  0  0  0  0  0  0  0  0
   36.3059   10.1449    2.0317 O   0  0  0  0  0  0  0  0  0  0  0  0
   39.5174    7.3434    5.7443 C   0  0  2  0  0  0  0  0  0  0  0  0
   37.8364   10.1896    3.9017 C   0  0  2  0  0  0  0  0  0  0  0  0
   37.9513   10.0615    5.3232 O   0  0  0  0  0  0  0  0  0  0  0  0
   39.6406    6.7633    7.2116 C   0  0  2  0  0  0  0  0  0  0  0  0
   39.1409    7.7642    8.1532 O   0  0  0  0  0  0  0  0  0  0  0  0
   38.4083   11.5180    3.4841 C   0  0  0  0  0  0  0  0  0  0  0  0
   38.5190   11.5855    2.1136 O   0  0  0  0  0  0  0  0  0  0  0  0
   41.1464    6.4478    7.5053 C   0  0  1  0  0  0  0  0  0  0  0  0
   41.3330    5.9340    8.7919 O   0  0  0  0  0  0  0  0  0  0  0  0
  1  2  1  6  0  0  0
  1  5  1  0  0  0  0
  1 30  1  0  0  0  0
  3  4  1  1  0  0  0
  3  7  1  0  0  0  0
  3 35  1  0  0  0  0
  5  6  1  6  0  0  0
  5 16  1  0  0  0  0
  7 19  1  0  0  0  0
  8  4  1  0  0  0  0
  8 25  2  0  0  0  0
  9  8  1  6  0  0  0
  9 10  1  0  0  0  0
  9 13  1  0  0  0  0
 10 11  1  0  0  0  0
 11 12  1  0  0  0  0
 14 15  1  0  0  0  0
 14 36  1  0  0  0  0
 15 17  1  0  0  0  0
 16 18  1  1  0  0  0
 16 26  1  0  0  0  0
 17 23  1  0  0  0  0
 19 20  1  6  0  0  0
 19 28  1  0  0  0  0
 21 22  1  0  0  0  0
 21 23  1  0  0  0  0
 22 24  1  0  0  0  0
 26 27  1  6  0  0  0
 26 29  1  0  0  0  0
 28  2  1  6  0  0  0
 28 31  1  0  0  0  0
 29 30  1  0  0  0  0
 29 33  1  1  0  0  0
 31 32  1  1  0  0  0
 31 35  1  0  0  0  0
 33 34  1  0  0  0  0
 35 36  1  1  0  0  0
M  END
>  <CHROM.1>
-168.61043037,-63.65655265,154.13482940,-179.14405379,-179.67324719,84.26593240
-75.19141737,114.43383800,166.27795654,-172.47802195,-66.58676405,-164.26665746
-66.95302690,-72.86983536,39.74378120,6.51631348,6.41902067,-2.56874751,-0.35417626
2.19938387

>  <Name>
2f4u_lig

>  <RI>
0

>  <Rbt.Current_Directory>
/home/itssahil/PROJECTS/Mol_Feturizer/New_Systems/rnas/2f4u

>  <Rbt.Executable>
rbdock ($Id: //depot/dev/client3/rdock/2013.1/src/exe/rbdock.cxx#4 $)

>  <Rbt.Library>
libRbt.so (2013.1, Build901 2013/11/27)

>  <Rbt.Parameter_File>
/export/apps/rDock/src/rDock_2013.1_src/data/scripts/dock_solv.prm

>  <Rbt.Receptor>
prm/pocket_docking_2.prm

>  <SCORE>
-17.8795

>  <SCORE.INTER>
-8.14527

>  <SCORE.INTER.CONST>
1

>  <SCORE.INTER.POLAR>
-1.09759

>  <SCORE.INTER.ROT>
14

>  <SCORE.INTER.SOLV>
10.5468

>  <SCORE.INTER.VDW>
-18.2205

>  <SCORE.INTER.norm>
-0.226258

>  <SCORE.INTRA>
-9.92616

>  <SCORE.INTRA.DIHEDRAL>
-17.5476

>  <SCORE.INTRA.DIHEDRAL.0>
26.3805

>  <SCORE.INTRA.POLAR>
0

>  <SCORE.INTRA.POLAR.0>
0

>  <SCORE.INTRA.REPUL>
0

>  <SCORE.INTRA.REPUL.0>
0

>  <SCORE.INTRA.SOLV>
0.414453

>  <SCORE.INTRA.SOLV.lig_0>
-98.5587

>  <SCORE.INTRA.VDW>
-1.35959

>  <SCORE.INTRA.VDW.0>
-2.91167

>  <SCORE.INTRA.norm>
-0.275727

>  <SCORE.RESTR>
0.191945

>  <SCORE.RESTR.CAVITY>
0.191945

>  <SCORE.RESTR.norm>
0.00533179

>  <SCORE.SYSTEM>
0

>  <SCORE.SYSTEM.CONST>
0

>  <SCORE.SYSTEM.DIHEDRAL>
0

>  <SCORE.SYSTEM.SOLV>
0

>  <SCORE.SYSTEM.norm>
0

>  <SCORE.heavy>
36

>  <SCORE.norm>
-0.496652

>  <RMSD>
0.980

$$$$
2f4u_lig
 OpenBabel11021811433D
libRbt.so/2013.1/901 2013/11/27
 36 37  0  0  0  0  0  0  0  0999 V2000
   37.6039    9.1199    5.6740 C   0  0  2  0  0  0  0  0  0  0  0  0
   38.2261    7.8652    5.2085 O   0  0  0  0  0  0  0  0  0  0  0  0
   41.7266    5.4021    5.9665 C   0  0  2  0  0  0  0  0  0  0  0  0
   43.0153    4.9533    6.5602 N   0  0  0  0  0  0  0  0  0  0  0  0
   36.1457    9.1297    5.1192 C   0  0  2  0  0  0  0  0  0  0  0  0
   35.3590    7.9663    5.5685 N   0  0  0  0  0  0  0  0  0  0  0  0
   41.8635    6.8021    5.2706 C   0  0  0  0  0  0  0  0  0  0  0  0
   43.3527    3.2479    6.1536 C   0  0  0  0  0  0  0  0  0  0  0  0
   44.5154    3.4049    7.0827 C   0  0  1  0  0  0  0  0  0  0  0  0
   45.0926    2.0060    7.3266 C   0  0  0  0  0  0  0  0  0  0  0  0
   46.2824    1.9316    8.3013 C   0  0  0  0  0  0  0  0  0  0  0  0
   47.4652    2.4807    7.6354 N   0  0  0  0  0  0  0  0  0  0  0  0
   45.5173    4.1787    6.4813 O   0  0  0  0  0  0  0  0  0  0  0  0
   40.9981    3.0766    8.4581 C   0  0  0  0  0  0  0  0  0  0  0  0
   40.9204    3.4460    9.9319 C   0  0  0  0  0  0  0  0  0  0  0  0
   36.2008    9.1690    3.5558 C   0  0  1  0  0  0  0  0  0  0  0  0
   39.5493    3.4590   10.4804 N   0  0  0  0  0  0  0  0  0  0  0  0
   34.8894    9.1682    2.9976 O   0  0  0  0  0  0  0  0  0  0  0  0
   40.5108    7.2830    4.7073 C   0  0  2  0  0  0  0  0  0  0  0  0
   40.6288    8.6033    4.1012 N   0  0  0  0  0  0  0  0  0  0  0  0
   37.1834    4.2316   10.5540 C   0  0  0  0  0  0  0  0  0  0  0  0
   36.9910    4.0426   12.0888 C   0  0  0  0  0  0  0  0  0  0  0  0
   38.6399    4.5889   10.1583 C   0  0  0  0  0  0  0  0  0  0  0  0
   35.5574    3.8248   12.4476 N   0  0  0  0  0  0  0  0  0  0  0  0
   42.8782    2.4805    5.5643 O   0  0  0  0  0  0  0  0  0  0  0  0
   36.9916   10.4234    3.1336 C   0  0  2  0  0  0  0  0  0  0  0  0
   37.1062   10.5454    1.7181 O   0  0  0  0  0  0  0  0  0  0  0  0
   39.4753    7.3578    5.8116 C   0  0  2  0  0  0  0  0  0  0  0  0
   38.3996   10.4194    3.7560 C   0  0  2  0  0  0  0  0  0  0  0  0
   38.3301   10.2806    5.1794 O   0  0  0  0  0  0  0  0  0  0  0  0
   39.3023    5.9350    6.4825 C   0  0  2  0  0  0  0  0  0  0  0  0
   38.3130    6.0407    7.5540 O   0  0  0  0  0  0  0  0  0  0  0  0
   39.1619   11.6746    3.4251 C   0  0  0  0  0  0  0  0  0  0  0  0
   38.6269   12.7533    4.0924 O   0  0  0  0  0  0  0  0  0  0  0  0
   40.6835    5.4792    7.0639 C   0  0  1  0  0  0  0  0  0  0  0  0
   40.6055    4.2265    7.6793 O   0  0  0  0  0  0  0  0  0  0  0  0
  1  2  1  6  0  0  0
  1  5  1  0  0  0  0
  1 30  1  0  0  0  0
  3  4  1  1  0  0  0
  3  7  1  0  0  0  0
  3 35  1  0  0  0  0
  5  6  1  6  0  0  0
  5 16  1  0  0  0  0
  7 19  1  0  0  0  0
  8  4  1  0  0  0  0
  8 25  2  0  0  0  0
  9  8  1  6  0  0  0
  9 10  1  0  0  0  0
  9 13  1  0  0  0  0
 10 11  1  0  0  0  0
 11 12  1  0  0  0  0
 14 15  1  0  0  0  0
 14 36  1  0  0  0  0
 15 17  1  0  0  0  0
 16 18  1  6  0  0  0
 16 26  1  0  0  0  0
 17 23  1  0  0  0  0
 19 20  1  1  0  0  0
 19 28  1  0  0  0  0
 21 22  1  0  0  0  0
 21 23  1  0  0  0  0
 22 24  1  0  0  0  0
 26 27  1  6  0  0  0
 26 29  1  0  0  0  0
 28  2  1  6  0  0  0
 28 31  1  0  0  0  0
 29 30  1  0  0  0  0
 29 33  1  1  0  0  0
 31 32  1  1  0  0  0
 31 35  1  0  0  0  0
 33 34  1  0  0  0  0
 35 36  1  6  0  0  0
M  END
>  <CHROM.1>
-164.49478211,-133.92248501,169.36609801,-178.10409210,-73.02869801,77.44168400
75.46341044,-75.65889454,166.75581244,174.72964324,64.87381589,-119.79119908
70.39645370,67.28543486,39.92998462,6.33240697,6.46094879,2.26536490,0.37050186
-0.83394123

>  <Name>
2f4u_lig

>  <RI>
0

>  <Rbt.Current_Directory>
/home/itssahil/PROJECTS/Mol_Feturizer/New_Systems/rnas/2f4u

>  <Rbt.Executable>
rbdock ($Id: //depot/dev/client3/rdock/2013.1/src/exe/rbdock.cxx#4 $)

>  <Rbt.Library>
libRbt.so (2013.1, Build901 2013/11/27)

>  <Rbt.Parameter_File>
/export/apps/rDock/src/rDock_2013.1_src/data/scripts/dock_solv.prm

>  <Rbt.Receptor>
prm/pocket_docking_2.prm

>  <SCORE>
-15.9453

>  <SCORE.INTER>
-10.4058

>  <SCORE.INTER.CONST>
1

>  <SCORE.INTER.POLAR>
-0.979796

>  <SCORE.INTER.ROT>
14

>  <SCORE.INTER.SOLV>
16.5478

>  <SCORE.INTER.VDW>
-22.1205

>  <SCORE.INTER.norm>
-0.289049

>  <SCORE.INTRA>
-5.56445

>  <SCORE.INTRA.DIHEDRAL>
-12.1313

>  <SCORE.INTRA.DIHEDRAL.0>
26.3805

>  <SCORE.INTRA.POLAR>
0

>  <SCORE.INTRA.POLAR.0>
0

>  <SCORE.INTRA.REPUL>
0

>  <SCORE.INTRA.REPUL.0>
0

>  <SCORE.INTRA.SOLV>
5.22539

>  <SCORE.INTRA.SOLV.lig_0>
-98.5587

>  <SCORE.INTRA.VDW>
-2.1115

>  <SCORE.INTRA.VDW.0>
-2.91167

>  <SCORE.INTRA.norm>
-0.154568

>  <SCORE.RESTR>
0.0248651

>  <SCORE.RESTR.CAVITY>
0.0248651

>  <SCORE.RESTR.norm>
0.000690696

>  <SCORE.SYSTEM>
0

>  <SCORE.SYSTEM.CONST>
0

>  <SCORE.SYSTEM.DIHEDRAL>
0

>  <SCORE.SYSTEM.SOLV>
0

>  <SCORE.SYSTEM.norm>
0

>  <SCORE.heavy>
36

>  <SCORE.norm>
-0.442926

>  <RMSD>
0.986

$$$$
2f4u_lig
 OpenBabel11021811433D
libRbt.so/2013.1/901 2013/11/27
 36 37  0  0  0  0  0  0  0  0999 V2000
   37.6677    9.2204    5.5801 C   0  0  2  0  0  0  0  0  0  0  0  0
   38.4127    8.0718    5.0291 O   0  0  0  0  0  0  0  0  0  0  0  0
   41.5955    5.5037    6.5021 C   0  0  2  0  0  0  0  0  0  0  0  0
   42.9165    5.0934    7.0513 N   0  0  0  0  0  0  0  0  0  0  0  0
   36.1904    9.0670    5.1024 C   0  0  2  0  0  0  0  0  0  0  0  0
   35.5802    7.7983    5.5411 N   0  0  0  0  0  0  0  0  0  0  0  0
   41.7445    6.2684    5.1397 C   0  0  0  0  0  0  0  0  0  0  0  0
   43.7249    3.9200    5.9757 C   0  0  0  0  0  0  0  0  0  0  0  0
   44.7404    3.8311    7.0714 C   0  0  1  0  0  0  0  0  0  0  0  0
   45.3870    2.4445    6.9786 C   0  0  0  0  0  0  0  0  0  0  0  0
   46.4003    2.1011    8.0862 C   0  0  0  0  0  0  0  0  0  0  0  0
   47.0128    0.8086    7.7727 N   0  0  0  0  0  0  0  0  0  0  0  0
   45.7496    4.7841    6.8774 O   0  0  0  0  0  0  0  0  0  0  0  0
   40.5781    5.4446   10.1219 C   0  0  0  0  0  0  0  0  0  0  0  0
   40.6830    3.9464   10.3649 C   0  0  0  0  0  0  0  0  0  0  0  0
   36.1513    9.1699    3.5415 C   0  0  1  0  0  0  0  0  0  0  0  0
   39.4684    3.1887   10.0019 N   0  0  0  0  0  0  0  0  0  0  0  0
   34.8205    9.0246    3.0523 O   0  0  0  0  0  0  0  0  0  0  0  0
   40.3751    6.7373    4.6072 C   0  0  2  0  0  0  0  0  0  0  0  0
   40.5184    7.4867    3.3654 N   0  0  0  0  0  0  0  0  0  0  0  0
   37.4867    1.8223   10.6390 C   0  0  0  0  0  0  0  0  0  0  0  0
   36.5765    3.0389   10.9846 C   0  0  0  0  0  0  0  0  0  0  0  0
   38.9935    2.0940   10.8872 C   0  0  0  0  0  0  0  0  0  0  0  0
   36.6900    4.1263    9.9668 N   0  0  0  0  0  0  0  0  0  0  0  0
   43.5129    3.4648    5.0221 O   0  0  0  0  0  0  0  0  0  0  0  0
   36.7559   10.5284    3.1336 C   0  0  2  0  0  0  0  0  0  0  0  0
   36.7739   10.7154    1.7207 O   0  0  0  0  0  0  0  0  0  0  0  0
   39.6900    7.6285    5.6239 C   0  0  2  0  0  0  0  0  0  0  0  0
   38.1865   10.6788    3.6815 C   0  0  2  0  0  0  0  0  0  0  0  0
   38.2156   10.4806    5.0993 O   0  0  0  0  0  0  0  0  0  0  0  0
   39.4967    6.8418    6.9834 C   0  0  2  0  0  0  0  0  0  0  0  0
   38.8514    7.7298    7.9494 O   0  0  0  0  0  0  0  0  0  0  0  0
   38.7678   12.0312    3.3663 C   0  0  0  0  0  0  0  0  0  0  0  0
   38.9746   12.1630    2.0117 O   0  0  0  0  0  0  0  0  0  0  0  0
   40.9016    6.3953    7.5129 C   0  0  1  0  0  0  0  0  0  0  0  0
   40.8088    5.6955    8.7196 O   0  0  0  0  0  0  0  0  0  0  0  0
  1  2  1  6  0  0  0
  1  5  1  0  0  0  0
  1 30  1  0  0  0  0
  3  4  1  1  0  0  0
  3  7  1  0  0  0  0
  3 35  1  0  0  0  0
  5  6  1  6  0  0  0
  5 16  1  0  0  0  0
  7 19  1  0  0  0  0
  8  4  1  0  0  0  0
  8 25  2  0  0  0  0
  9  8  1  6  0  0  0
  9 10  1  0  0  0  0
  9 13  1  0  0  0  0
 10 11  1  0  0  0  0
 11 12  1  0  0  0  0
 14 15  1  0  0  0  0
 14 36  1  0  0  0  0
 15 17  1  0  0  0  0
 16 18  1  1  0  0  0
 16 26  1  0  0  0  0
 17 23  1  0  0  0  0
 19 20  1  6  0  0  0
 19 28  1  0  0  0  0
 21 22  1  0  0  0  0
 21 23  1  0  0  0  0
 22 24  1  0  0  0  0
 26 27  1  6  0  0  0
 26 29  1  0  0  0  0
 28  2  1  6  0  0  0
 28 31  1  0  0  0  0
 29 30  1  0  0  0  0
 29 33  1  1  0  0  0
 31 32  1  1  0  0  0
 31 35  1  0  0  0  0
 33 34  1  0  0  0  0
 35 36  1  1  0  0  0
M  END
>  <CHROM.1>
-158.87397689,-64.03091611,153.36924819,-175.77438390,-174.47672143,-80.20538460
173.40330321,-138.75197476,158.23585564,73.66978806,-62.94051193,-163.41786008
-67.58351214,168.75216397,39.99747603,6.40735257,6.39473450,2.20938690,0.30900167
-0.81167611

>  <Name>
2f4u_lig

>  <RI>
0

>  <Rbt.Current_Directory>
/home/itssahil/PROJECTS/Mol_Feturizer/New_Systems/rnas/2f4u

>  <Rbt.Executable>
rbdock ($Id: //depot/dev/client3/rdock/2013.1/src/exe/rbdock.cxx#4 $)

>  <Rbt.Library>
libRbt.so (2013.1, Build901 2013/11/27)

>  <Rbt.Parameter_File>
/export/apps/rDock/src/rDock_2013.1_src/data/scripts/dock_solv.prm

>  <Rbt.Receptor>
prm/pocket_docking_2.prm

>  <SCORE>
-22.5677

>  <SCORE.INTER>
-14.4294

>  <SCORE.INTER.CONST>
1

>  <SCORE.INTER.POLAR>
-1.02381

>  <SCORE.INTER.ROT>
14

>  <SCORE.INTER.SOLV>
13.6753

>  <SCORE.INTER.VDW>
-23.6987

>  <SCORE.INTER.norm>
-0.400818

>  <SCORE.INTRA>
-8.38074

>  <SCORE.INTRA.DIHEDRAL>
-17.1139

>  <SCORE.INTRA.DIHEDRAL.0>
26.3805

>  <SCORE.INTRA.POLAR>
0

>  <SCORE.INTRA.POLAR.0>
0

>  <SCORE.INTRA.REPUL>
0

>  <SCORE.INTRA.REPUL.0>
0

>  <SCORE.INTRA.SOLV>
2.83693

>  <SCORE.INTRA.SOLV.lig_0>
-98.5587

>  <SCORE.INTRA.VDW>
-1.24227

>  <SCORE.INTRA.VDW.0>
-2.91167

>  <SCORE.INTRA.norm>
-0.232798

>  <SCORE.RESTR>
0.242429

>  <SCORE.RESTR.CAVITY>
0.242429

>  <SCORE.RESTR.norm>
0.00673415

>  <SCORE.SYSTEM>
0

>  <SCORE.SYSTEM.CONST>
0

>  <SCORE.SYSTEM.DIHEDRAL>
0

>  <SCORE.SYSTEM.SOLV>
0

>  <SCORE.SYSTEM.norm>
0

>  <SCORE.heavy>
36

>  <SCORE.norm>
-0.626882

>  <RMSD>
1.004

$$$$
2f4u_lig
 OpenBabel11021811433D
libRbt.so/2013.1/901 2013/11/27
 36 37  0  0  0  0  0  0  0  0999 V2000
   37.8999    9.0324    5.4484 C   0  0  2  0  0  0  0  0  0  0  0  0
   38.7848    8.0352    4.8156 O   0  0  0  0  0  0  0  0  0  0  0  0
   42.3341    5.7964    5.9493 C   0  0  2  0  0  0  0  0  0  0  0  0
   43.6898    5.5110    6.4928 N   0  0  0  0  0  0  0  0  0  0  0  0
   36.4738    8.8046    4.8581 C   0  0  2  0  0  0  0  0  0  0  0  0
   35.9697    7.4403    5.1007 N   0  0  0  0  0  0  0  0  0  0  0  0
   42.3840    6.8479    4.7852 C   0  0  0  0  0  0  0  0  0  0  0  0
   44.6527    4.5397    5.3453 C   0  0  0  0  0  0  0  0  0  0  0  0
   45.6584    4.4893    6.4524 C   0  0  1  0  0  0  0  0  0  0  0  0
   45.7433    3.0326    6.9215 C   0  0  0  0  0  0  0  0  0  0  0  0
   46.7222    2.7558    8.0776 C   0  0  0  0  0  0  0  0  0  0  0  0
   48.0882    2.9526    7.5886 N   0  0  0  0  0  0  0  0  0  0  0  0
   46.9243    4.8567    5.9763 O   0  0  0  0  0  0  0  0  0  0  0  0
   41.1009    4.7259    9.3392 C   0  0  0  0  0  0  0  0  0  0  0  0
   39.6386    4.3131    9.2628 C   0  0  0  0  0  0  0  0  0  0  0  0
   36.5107    9.0979    3.3215 C   0  0  1  0  0  0  0  0  0  0  0  0
   39.1843    3.4842   10.3975 N   0  0  0  0  0  0  0  0  0  0  0  0
   35.2300    8.8931    2.7306 O   0  0  0  0  0  0  0  0  0  0  0  0
   40.9696    7.1778    4.2665 C   0  0  2  0  0  0  0  0  0  0  0  0
   41.0128    8.1878    3.2166 N   0  0  0  0  0  0  0  0  0  0  0  0
   37.9659    4.3180   12.4025 C   0  0  0  0  0  0  0  0  0  0  0  0
   36.6221    4.8795   12.9568 C   0  0  0  0  0  0  0  0  0  0  0  0
   37.8369    3.7120   10.9806 C   0  0  0  0  0  0  0  0  0  0  0  0
   35.5574    3.8328   13.0017 N   0  0  0  0  0  0  0  0  0  0  0  0
   44.5110    4.1410    4.3541 O   0  0  0  0  0  0  0  0  0  0  0  0
   36.9986   10.5466    3.1199 C   0  0  2  0  0  0  0  0  0  0  0  0
   37.0758   10.9097    1.7437 O   0  0  0  0  0  0  0  0  0  0  0  0
   40.1022    7.7009    5.3940 C   0  0  2  0  0  0  0  0  0  0  0  0
   38.3748   10.7583    3.7762 C   0  0  2  0  0  0  0  0  0  0  0  0
   38.3453   10.3878    5.1590 O   0  0  0  0  0  0  0  0  0  0  0  0
   40.0128    6.6214    6.5477 C   0  0  2  0  0  0  0  0  0  0  0  0
   39.1867    7.1590    7.6278 O   0  0  0  0  0  0  0  0  0  0  0  0
   38.8351   12.1872    3.6641 C   0  0  0  0  0  0  0  0  0  0  0  0
   39.2242   12.4682    2.3738 O   0  0  0  0  0  0  0  0  0  0  0  0
   41.4582    6.3197    7.0704 C   0  0  1  0  0  0  0  0  0  0  0  0
   41.4566    5.3735    8.0995 O   0  0  0  0  0  0  0  0  0  0  0  0
  1  2  1  6  0  0  0
  1  5  1  0  0  0  0
  1 30  1  0  0  0  0
  3  4  1  1  0  0  0
  3  7  1  0  0  0  0
  3 35  1  0  0  0  0
  5  6  1  6  0  0  0
  5 16  1  0  0  0  0
  7 19  1  0  0  0  0
  8  4  1  0  0  0  0
  8 25  2  0  0  0  0
  9  8  1  6  0  0  0
  9 10  1  0  0  0  0
  9 13  1  0  0  0  0
 10 11  1  0  0  0  0
 11 12  1  0  0  0  0
 14 15  1  0  0  0  0
 14 36  1  0  0  0  0
 15 17  1  0  0  0  0
 16 18  1  1  0  0  0
 16 26  1  0  0  0  0
 17 23  1  0  0  0  0
 19 20  1  6  0  0  0
 19 28  1  0  0  0  0
 21 22  1  0  0  0  0
 21 23  1  0  0  0  0
 22 24  1  0  0  0  0
 26 27  1  6  0  0  0
 26 29  1  0  0  0  0
 28  2  1  6  0  0  0
 28 31  1  0  0  0  0
 29 30  1  0  0  0  0
 29 33  1  1  0  0  0
 31 32  1  1  0  0  0
 31 35  1  0  0  0  0
 33 34  1  0  0  0  0
 35 36  1  1  0  0  0
M  END
>  <CHROM.1>
-162.64902651,-72.32434460,113.44091508,-179.45671476,-68.20503382,172.58823365
63.68629122,140.05575999,-110.76231885,57.90633034,167.15170457,-155.26792080
-73.35055952,-173.07723357,40.33577462,6.73252894,6.32592021,2.33083377,0.34505279
-0.93030624

>  <Name>
2f4u_lig

>  <RI>
0

>  <Rbt.Current_Directory>
/home/itssahil/PROJECTS/Mol_Feturizer/New_Systems/rnas/2f4u

>  <Rbt.Executable>
rbdock ($Id: //depot/dev/client3/rdock/2013.1/src/exe/rbdock.cxx#4 $)

>  <Rbt.Library>
libRbt.so (2013.1, Build901 2013/11/27)

>  <Rbt.Parameter_File>
/export/apps/rDock/src/rDock_2013.1_src/data/scripts/dock_solv.prm

>  <Rbt.Receptor>
prm/pocket_docking_3.prm

>  <SCORE>
-21.1118

>  <SCORE.INTER>
-12.8082

>  <SCORE.INTER.CONST>
1

>  <SCORE.INTER.POLAR>
-0.979796

>  <SCORE.INTER.ROT>
14

>  <SCORE.INTER.SOLV>
16.7973

>  <SCORE.INTER.VDW>
-23.8053

>  <SCORE.INTER.norm>
-0.355783

>  <SCORE.INTRA>
-8.30361

>  <SCORE.INTRA.DIHEDRAL>
-15.7726

>  <SCORE.INTRA.DIHEDRAL.0>
26.3805

>  <SCORE.INTRA.POLAR>
0

>  <SCORE.INTRA.POLAR.0>
0

>  <SCORE.INTRA.REPUL>
0

>  <SCORE.INTRA.REPUL.0>
0

>  <SCORE.INTRA.SOLV>
2.11206

>  <SCORE.INTRA.SOLV.lig_0>
-98.5587

>  <SCORE.INTRA.VDW>
-1.47332

>  <SCORE.INTRA.VDW.0>
-2.91167

>  <SCORE.INTRA.norm>
-0.230656

>  <SCORE.RESTR>
0

>  <SCORE.RESTR.CAVITY>
0

>  <SCORE.RESTR.norm>
0

>  <SCORE.SYSTEM>
0

>  <SCORE.SYSTEM.CONST>
0

>  <SCORE.SYSTEM.DIHEDRAL>
0

>  <SCORE.SYSTEM.SOLV>
0

>  <SCORE.SYSTEM.norm>
0

>  <SCORE.heavy>
36

>  <SCORE.norm>
-0.586439

>  <RMSD>
1.043

$$$$
2f4u_lig
 OpenBabel11021811433D
libRbt.so/2013.1/901 2013/11/27
 36 37  0  0  0  0  0  0  0  0999 V2000
   37.6623    8.7476    5.9719 C   0  0  2  0  0  0  0  0  0  0  0  0
   38.2253    7.4663    5.5037 O   0  0  0  0  0  0  0  0  0  0  0  0
   41.7166    4.9529    6.1273 C   0  0  2  0  0  0  0  0  0  0  0  0
   43.0940    4.5502    6.5216 N   0  0  0  0  0  0  0  0  0  0  0  0
   36.1282    8.6913    5.6936 C   0  0  2  0  0  0  0  0  0  0  0  0
   35.4689    7.5600    6.3717 N   0  0  0  0  0  0  0  0  0  0  0  0
   41.7305    6.0969    5.0530 C   0  0  0  0  0  0  0  0  0  0  0  0
   43.2639    2.7731    6.5444 C   0  0  0  0  0  0  0  0  0  0  0  0
   44.6209    3.0527    7.1103 C   0  0  1  0  0  0  0  0  0  0  0  0
   45.1650    1.7286    7.6582 C   0  0  0  0  0  0  0  0  0  0  0  0
   46.6954    1.6412    7.8048 C   0  0  0  0  0  0  0  0  0  0  0  0
   47.1071    2.5037    8.9141 N   0  0  0  0  0  0  0  0  0  0  0  0
   45.4903    3.4829    6.0987 O   0  0  0  0  0  0  0  0  0  0  0  0
   40.8475    3.7139    9.5703 C   0  0  0  0  0  0  0  0  0  0  0  0
   39.4729    4.0480   10.1302 C   0  0  0  0  0  0  0  0  0  0  0  0
   35.8985    8.5988    4.1485 C   0  0  1  0  0  0  0  0  0  0  0  0
   39.1254    3.3090   11.3607 N   0  0  0  0  0  0  0  0  0  0  0  0
   34.5084    8.5335    3.8410 O   0  0  0  0  0  0  0  0  0  0  0  0
   40.2995    6.5449    4.6922 C   0  0  2  0  0  0  0  0  0  0  0  0
   40.3141    7.6381    3.7284 N   0  0  0  0  0  0  0  0  0  0  0  0
   36.8451    4.0221   12.0620 C   0  0  0  0  0  0  0  0  0  0  0  0
   35.3410    3.6423   12.2086 C   0  0  0  0  0  0  0  0  0  0  0  0
   37.7291    2.8463   11.5702 C   0  0  0  0  0  0  0  0  0  0  0  0
   34.4961    4.8298   12.5361 N   0  0  0  0  0  0  0  0  0  0  0  0
   42.6351    1.9287    6.3142 O   0  0  0  0  0  0  0  0  0  0  0  0
   36.5642    9.8231    3.4890 C   0  0  2  0  0  0  0  0  0  0  0  0
   36.4174    9.8263    2.0712 O   0  0  0  0  0  0  0  0  0  0  0  0
   39.5646    7.0139    5.9320 C   0  0  2  0  0  0  0  0  0  0  0  0
   38.0610    9.8903    3.8421 C   0  0  2  0  0  0  0  0  0  0  0  0
   38.2540    9.8717    5.2608 O   0  0  0  0  0  0  0  0  0  0  0  0
   39.5088    5.8450    6.9974 C   0  0  2  0  0  0  0  0  0  0  0  0
   38.8117    6.3303    8.1876 O   0  0  0  0  0  0  0  0  0  0  0  0
   38.7151   11.1228    3.2772 C   0  0  0  0  0  0  0  0  0  0  0  0
   38.8311   12.0939    4.2460 O   0  0  0  0  0  0  0  0  0  0  0  0
   40.9726    5.4230    7.3616 C   0  0  1  0  0  0  0  0  0  0  0  0
   41.0015    4.3930    8.3063 O   0  0  0  0  0  0  0  0  0  0  0  0
  1  2  1  6  0  0  0
  1  5  1  0  0  0  0
  1 30  1  0  0  0  0
  3  4  1  1  0  0  0
  3  7  1  0  0  0  0
  3 35  1  0  0  0  0
  5  6  1  1  0  0  0
  5 16  1  0  0  0  0
  7 19  1  0  0  0  0
  8  4  1  0  0  0  0
  8 25  2  0  0  0  0
  9  8  1  6  0  0  0
  9 10  1  0  0  0  0
  9 13  1  0  0  0  0
 10 11  1  0  0  0  0
 11 12  1  0  0  0  0
 14 15  1  0  0  0  0
 14 36  1  0  0  0  0
 15 17  1  0  0  0  0
 16 18  1  1  0  0  0
 16 26  1  0  0  0  0
 17 23  1  0  0  0  0
 19 20  1  6  0  0  0
 19 28  1  0  0  0  0
 21 22  1  0  0  0  0
 21 23  1  0  0  0  0
 22 24  1  0  0  0  0
 26 27  1  6  0  0  0
 26 29  1  0  0  0  0
 28  2  1  6  0  0  0
 28 31  1  0  0  0  0
 29 30  1  0  0  0  0
 29 33  1  1  0  0  0
 31 32  1  1  0  0  0
 31 35  1  0  0  0  0
 33 34  1  0  0  0  0
 35 36  1  1  0  0  0
M  END
>  <CHROM.1>
-163.09678068,-133.81782169,166.89847176,158.08552241,71.06213926,174.12465682
46.97974278,-142.62492475,-79.31570960,-173.67806278,175.89729013,-133.22658978
99.52530102,169.50640253,39.72309973,5.98622316,6.83021328,2.35093449,0.39290683
-0.89372880

>  <Name>
2f4u_lig

>  <RI>
0

>  <Rbt.Current_Directory>
/home/itssahil/PROJECTS/Mol_Feturizer/New_Systems/rnas/2f4u

>  <Rbt.Executable>
rbdock ($Id: //depot/dev/client3/rdock/2013.1/src/exe/rbdock.cxx#4 $)

>  <Rbt.Library>
libRbt.so (2013.1, Build901 2013/11/27)

>  <Rbt.Parameter_File>
/export/apps/rDock/src/rDock_2013.1_src/data/scripts/dock_solv.prm

>  <Rbt.Receptor>
prm/pocket_docking_2.prm

>  <SCORE>
-14.8404

>  <SCORE.INTER>
-11.5476

>  <SCORE.INTER.CONST>
1

>  <SCORE.INTER.POLAR>
-1.64057

>  <SCORE.INTER.ROT>
14

>  <SCORE.INTER.SOLV>
15.3592

>  <SCORE.INTER.VDW>
-20.2829

>  <SCORE.INTER.norm>
-0.320766

>  <SCORE.INTRA>
-3.29279

>  <SCORE.INTRA.DIHEDRAL>
-8.0611

>  <SCORE.INTRA.DIHEDRAL.0>
26.3805

>  <SCORE.INTRA.POLAR>
0

>  <SCORE.INTRA.POLAR.0>
0

>  <SCORE.INTRA.REPUL>
0

>  <SCORE.INTRA.REPUL.0>
0

>  <SCORE.INTRA.SOLV>
2.60779

>  <SCORE.INTRA.SOLV.lig_0>
-98.5587

>  <SCORE.INTRA.VDW>
-0.566139

>  <SCORE.INTRA.VDW.0>
-2.91167

>  <SCORE.INTRA.norm>
-0.0914665

>  <SCORE.RESTR>
0

>  <SCORE.RESTR.CAVITY>
0

>  <SCORE.RESTR.norm>
0

>  <SCORE.SYSTEM>
0

>  <SCORE.SYSTEM.CONST>
0

>  <SCORE.SYSTEM.DIHEDRAL>
0

>  <SCORE.SYSTEM.SOLV>
0

>  <SCORE.SYSTEM.norm>
0

>  <SCORE.heavy>
36

>  <SCORE.norm>
-0.412232

>  <RMSD>
1.047

$$$$
2f4u_lig
 OpenBabel11021811433D
libRbt.so/2013.1/901 2013/11/27
 36 37  0  0  0  0  0  0  0  0999 V2000
   37.6861    9.4087    5.3132 C   0  0  2  0  0  0  0  0  0  0  0  0
   38.4467    8.2503    4.8058 O   0  0  0  0  0  0  0  0  0  0  0  0
   41.1628    5.4395    6.7077 C   0  0  2  0  0  0  0  0  0  0  0  0
   42.3694    4.9205    7.4075 N   0  0  0  0  0  0  0  0  0  0  0  0
   36.1748    9.0695    5.1254 C   0  0  2  0  0  0  0  0  0  0  0  0
   35.7760    7.8401    5.8351 N   0  0  0  0  0  0  0  0  0  0  0  0
   41.5293    6.1101    5.3369 C   0  0  0  0  0  0  0  0  0  0  0  0
   43.2129    3.6981    6.4167 C   0  0  0  0  0  0  0  0  0  0  0  0
   44.0738    3.5180    7.6274 C   0  0  1  0  0  0  0  0  0  0  0  0
   44.6790    2.1120    7.5480 C   0  0  0  0  0  0  0  0  0  0  0  0
   45.7564    1.9052    6.4673 C   0  0  0  0  0  0  0  0  0  0  0  0
   47.0222    2.4510    6.9611 N   0  0  0  0  0  0  0  0  0  0  0  0
   45.1318    4.4371    7.6128 O   0  0  0  0  0  0  0  0  0  0  0  0
   39.7318    5.6711   10.1812 C   0  0  0  0  0  0  0  0  0  0  0  0
   39.8946    4.2097   10.5719 C   0  0  0  0  0  0  0  0  0  0  0  0
   35.8756    8.9277    3.5961 C   0  0  1  0  0  0  0  0  0  0  0  0
   38.9677    3.2920    9.8794 N   0  0  0  0  0  0  0  0  0  0  0  0
   34.5055    8.6061    3.3706 O   0  0  0  0  0  0  0  0  0  0  0  0
   40.2798    6.6933    4.6462 C   0  0  2  0  0  0  0  0  0  0  0  0
   40.6270    7.3557    3.3952 N   0  0  0  0  0  0  0  0  0  0  0  0
   36.6614    3.5313   10.7869 C   0  0  0  0  0  0  0  0  0  0  0  0
   36.0653    3.9674    9.4148 C   0  0  0  0  0  0  0  0  0  0  0  0
   37.8992    2.6065   10.6514 C   0  0  0  0  0  0  0  0  0  0  0  0
   34.8071    4.7555    9.5795 N   0  0  0  0  0  0  0  0  0  0  0  0
   43.0870    3.2711    5.4352 O   0  0  0  0  0  0  0  0  0  0  0  0
   36.2646   10.2499    2.9051 C   0  0  2  0  0  0  0  0  0  0  0  0
   36.0366   10.2182    1.4984 O   0  0  0  0  0  0  0  0  0  0  0  0
   39.6019    7.7056    5.5478 C   0  0  2  0  0  0  0  0  0  0  0  0
   37.7416   10.5934    3.1698 C   0  0  2  0  0  0  0  0  0  0  0  0
   38.0179   10.6185    4.5745 O   0  0  0  0  0  0  0  0  0  0  0  0
   39.1894    7.0178    6.9121 C   0  0  2  0  0  0  0  0  0  0  0  0
   38.5554    8.0199    7.7677 O   0  0  0  0  0  0  0  0  0  0  0  0
   38.1234   11.9221    2.5740 C   0  0  0  0  0  0  0  0  0  0  0  0
   39.4489   12.1986    2.8223 O   0  0  0  0  0  0  0  0  0  0  0  0
   40.4768    6.4528    7.6026 C   0  0  1  0  0  0  0  0  0  0  0  0
   40.1884    5.8324    8.8217 O   0  0  0  0  0  0  0  0  0  0  0  0
  1  2  1  6  0  0  0
  1  5  1  0  0  0  0
  1 30  1  0  0  0  0
  3  4  1  1  0  0  0
  3  7  1  0  0  0  0
  3 35  1  0  0  0  0
  5  6  1  1  0  0  0
  5 16  1  0  0  0  0
  7 19  1  0  0  0  0
  8  4  1  0  0  0  0
  8 25  2  0  0  0  0
  9  8  1  6  0  0  0
  9 10  1  0  0  0  0
  9 13  1  0  0  0  0
 10 11  1  0  0  0  0
 11 12  1  0  0  0  0
 14 15  1  0  0  0  0
 14 36  1  0  0  0  0
 15 17  1  0  0  0  0
 16 18  1  1  0  0  0
 16 26  1  0  0  0  0
 17 23  1  0  0  0  0
 19 20  1  6  0  0  0
 19 28  1  0  0  0  0
 21 22  1  0  0  0  0
 21 23  1  0  0  0  0
 22 24  1  0  0  0  0
 26 27  1  6  0  0  0
 26 29  1  0  0  0  0
 28  2  1  6  0  0  0
 28 31  1  0  0  0  0
 29 30  1  0  0  0  0
 29 33  1  1  0  0  0
 31 32  1  1  0  0  0
 31 35  1  0  0  0  0
 33 34  1  0  0  0  0
 35 36  1  1  0  0  0
M  END
>  <CHROM.1>
-135.99141663,-59.76761635,156.38742123,71.14035344,79.42106193,-69.53274573
177.59908241,-112.01090433,84.31803397,174.95747653,58.73535431,-170.63341946
-179.76507939,176.35045375,39.57342874,6.50378133,6.33768331,-2.26327321
-0.31362125,2.30747533

>  <Name>
2f4u_lig

>  <RI>
0

>  <Rbt.Current_Directory>
/home/itssahil/PROJECTS/Mol_Feturizer/New_Systems/rnas/2f4u

>  <Rbt.Executable>
rbdock ($Id: //depot/dev/client3/rdock/2013.1/src/exe/rbdock.cxx#4 $)

>  <Rbt.Library>
libRbt.so (2013.1, Build901 2013/11/27)

>  <Rbt.Parameter_File>
/export/apps/rDock/src/rDock_2013.1_src/data/scripts/dock_solv.prm

>  <Rbt.Receptor>
prm/pocket_docking_2.prm

>  <SCORE>
-20.0321

>  <SCORE.INTER>
-13.228

>  <SCORE.INTER.CONST>
1

>  <SCORE.INTER.POLAR>
-1.63222

>  <SCORE.INTER.ROT>
14

>  <SCORE.INTER.SOLV>
12.3404

>  <SCORE.INTER.VDW>
-20.4247

>  <SCORE.INTER.norm>
-0.367445

>  <SCORE.INTRA>
-6.84744

>  <SCORE.INTRA.DIHEDRAL>
-14.8287

>  <SCORE.INTRA.DIHEDRAL.0>
26.3805

>  <SCORE.INTRA.POLAR>
0

>  <SCORE.INTRA.POLAR.0>
0

>  <SCORE.INTRA.REPUL>
0

>  <SCORE.INTRA.REPUL.0>
0

>  <SCORE.INTRA.SOLV>
2.68898

>  <SCORE.INTRA.SOLV.lig_0>
-98.5587

>  <SCORE.INTRA.VDW>
-0.777563

>  <SCORE.INTRA.VDW.0>
-2.91167

>  <SCORE.INTRA.norm>
-0.190207

>  <SCORE.RESTR>
0.0433169

>  <SCORE.RESTR.CAVITY>
0.0433169

>  <SCORE.RESTR.norm>
0.00120325

>  <SCORE.SYSTEM>
0

>  <SCORE.SYSTEM.CONST>
0

>  <SCORE.SYSTEM.DIHEDRAL>
0

>  <SCORE.SYSTEM.SOLV>
0

>  <SCORE.SYSTEM.norm>
0

>  <SCORE.heavy>
36

>  <SCORE.norm>
-0.556448

>  <RMSD>
1.053

$$$$
2f4u_lig
 OpenBabel11021811433D
libRbt.so/2013.1/901 2013/11/27
 36 37  0  0  0  0  0  0  0  0999 V2000
   37.7307    8.7393    5.9313 C   0  0  2  0  0  0  0  0  0  0  0  0
   38.4626    7.6290    5.2913 O   0  0  0  0  0  0  0  0  0  0  0  0
   41.8601    5.0768    6.2067 C   0  0  2  0  0  0  0  0  0  0  0  0
   43.2053    4.6644    6.6916 N   0  0  0  0  0  0  0  0  0  0  0  0
   36.2113    8.4134    5.7922 C   0  0  2  0  0  0  0  0  0  0  0  0
   35.8464    7.1281    6.4159 N   0  0  0  0  0  0  0  0  0  0  0  0
   41.9564    6.1739    5.0886 C   0  0  0  0  0  0  0  0  0  0  0  0
   43.3440    2.8862    6.7718 C   0  0  0  0  0  0  0  0  0  0  0  0
   44.6702    3.1608    7.4085 C   0  0  1  0  0  0  0  0  0  0  0  0
   45.2346    1.8154    7.8782 C   0  0  0  0  0  0  0  0  0  0  0  0
   46.6842    1.8401    8.3972 C   0  0  0  0  0  0  0  0  0  0  0  0
   47.5836    2.0335    7.2581 N   0  0  0  0  0  0  0  0  0  0  0  0
   45.5621    3.6895    6.4654 O   0  0  0  0  0  0  0  0  0  0  0  0
   41.4808    3.6679    9.3420 C   0  0  0  0  0  0  0  0  0  0  0  0
   40.2715    2.9491    9.9213 C   0  0  0  0  0  0  0  0  0  0  0  0
   35.8350    8.3990    4.2734 C   0  0  1  0  0  0  0  0  0  0  0  0
   39.5014    3.7496   10.8945 N   0  0  0  0  0  0  0  0  0  0  0  0
   34.4547    8.0942    4.0911 O   0  0  0  0  0  0  0  0  0  0  0  0
   40.5568    6.6340    4.6324 C   0  0  2  0  0  0  0  0  0  0  0  0
   40.6467    7.6852    3.6267 N   0  0  0  0  0  0  0  0  0  0  0  0
   37.2410    4.7214   11.2770 C   0  0  0  0  0  0  0  0  0  0  0  0
   36.4049    3.4202   11.0871 C   0  0  0  0  0  0  0  0  0  0  0  0
   38.5246    4.7576   10.4072 C   0  0  0  0  0  0  0  0  0  0  0  0
   35.1153    3.4721   11.8392 N   0  0  0  0  0  0  0  0  0  0  0  0
   42.7155    2.0454    6.5278 O   0  0  0  0  0  0  0  0  0  0  0  0
   36.1913    9.7752    3.6764 C   0  0  2  0  0  0  0  0  0  0  0  0
   35.8925    9.8604    2.2853 O   0  0  0  0  0  0  0  0  0  0  0  0
   39.7669    7.1691    5.8101 C   0  0  2  0  0  0  0  0  0  0  0  0
   37.6804   10.0988    3.8942 C   0  0  2  0  0  0  0  0  0  0  0  0
   38.0271   10.0073    5.2804 O   0  0  0  0  0  0  0  0  0  0  0  0
   39.6288    6.0475    6.9180 C   0  0  2  0  0  0  0  0  0  0  0  0
   38.8796    6.5961    8.0475 O   0  0  0  0  0  0  0  0  0  0  0  0
   38.0341   11.4735    3.3929 C   0  0  0  0  0  0  0  0  0  0  0  0
   38.8554   12.1173    4.2907 O   0  0  0  0  0  0  0  0  0  0  0  0
   41.0614    5.6130    7.3783 C   0  0  1  0  0  0  0  0  0  0  0  0
   41.0174    4.6233    8.3646 O   0  0  0  0  0  0  0  0  0  0  0  0
  1  2  1  6  0  0  0
  1  5  1  0  0  0  0
  1 30  1  0  0  0  0
  3  4  1  1  0  0  0
  3  7  1  0  0  0  0
  3 35  1  0  0  0  0
  5  6  1  6  0  0  0
  5 16  1  0  0  0  0
  7 19  1  0  0  0  0
  8  4  1  0  0  0  0
  8 25  2  0  0  0  0
  9  8  1  6  0  0  0
  9 10  1  0  0  0  0
  9 13  1  0  0  0  0
 10 11  1  0  0  0  0
 11 12  1  0  0  0  0
 14 15  1  0  0  0  0
 14 36  1  0  0  0  0
 15 17  1  0  0  0  0
 16 18  1  1  0  0  0
 16 26  1  0  0  0  0
 17 23  1  0  0  0  0
 19 20  1  6  0  0  0
 19 28  1  0  0  0  0
 21 22  1  0  0  0  0
 21 23  1  0  0  0  0
 22 24  1  0  0  0  0
 26 27  1  6  0  0  0
 26 29  1  0  0  0  0
 28  2  1  6  0  0  0
 28 31  1  0  0  0  0
 29 30  1  0  0  0  0
 29 33  1  1  0  0  0
 31 32  1  1  0  0  0
 31 35  1  0  0  0  0
 33 34  1  0  0  0  0
 35 36  1  1  0  0  0
M  END
>  <CHROM.1>
-145.81587209,-132.91447459,173.36819349,172.13177460,-71.77602712,-76.02616931
-177.80653189,80.90941374,139.25307362,-174.67671203,-68.94007079,-150.01962547
137.15381803,59.04704931,39.87394958,6.03419073,6.73093170,-2.38796844,-0.35044911
2.28698448

>  <Name>
2f4u_lig

>  <RI>
0

>  <Rbt.Current_Directory>
/home/itssahil/PROJECTS/Mol_Feturizer/New_Systems/rnas/2f4u

>  <Rbt.Executable>
rbdock ($Id: //depot/dev/client3/rdock/2013.1/src/exe/rbdock.cxx#4 $)

>  <Rbt.Library>
libRbt.so (2013.1, Build901 2013/11/27)

>  <Rbt.Parameter_File>
/export/apps/rDock/src/rDock_2013.1_src/data/scripts/dock_solv.prm

>  <Rbt.Receptor>
prm/pocket_docking_2.prm

>  <SCORE>
-16.6282

>  <SCORE.INTER>
-12.9556

>  <SCORE.INTER.CONST>
1

>  <SCORE.INTER.POLAR>
-1.61746

>  <SCORE.INTER.ROT>
14

>  <SCORE.INTER.SOLV>
12.7624

>  <SCORE.INTER.VDW>
-20.433

>  <SCORE.INTER.norm>
-0.359879

>  <SCORE.INTRA>
-3.67259

>  <SCORE.INTRA.DIHEDRAL>
-8.94051

>  <SCORE.INTRA.DIHEDRAL.0>
26.3805

>  <SCORE.INTRA.POLAR>
0

>  <SCORE.INTRA.POLAR.0>
0

>  <SCORE.INTRA.REPUL>
0

>  <SCORE.INTRA.REPUL.0>
0

>  <SCORE.INTRA.SOLV>
3.74684

>  <SCORE.INTRA.SOLV.lig_0>
-98.5587

>  <SCORE.INTRA.VDW>
-1.07575

>  <SCORE.INTRA.VDW.0>
-2.91167

>  <SCORE.INTRA.norm>
-0.102016

>  <SCORE.RESTR>
0

>  <SCORE.RESTR.CAVITY>
0

>  <SCORE.RESTR.norm>
0

>  <SCORE.SYSTEM>
0

>  <SCORE.SYSTEM.CONST>
0

>  <SCORE.SYSTEM.DIHEDRAL>
0

>  <SCORE.SYSTEM.SOLV>
0

>  <SCORE.SYSTEM.norm>
0

>  <SCORE.heavy>
36

>  <SCORE.norm>
-0.461895

>  <RMSD>
1.092

$$$$
2f4u_lig
 OpenBabel11021811433D
libRbt.so/2013.1/901 2013/11/27
 36 37  0  0  0  0  0  0  0  0999 V2000
   38.0388    8.9841    5.1421 C   0  0  2  0  0  0  0  0  0  0  0  0
   38.8559    7.9151    4.5359 O   0  0  0  0  0  0  0  0  0  0  0  0
   42.0713    5.5509    6.2583 C   0  0  2  0  0  0  0  0  0  0  0  0
   43.4241    5.1944    6.7659 N   0  0  0  0  0  0  0  0  0  0  0  0
   36.6263    8.8955    4.4854 C   0  0  2  0  0  0  0  0  0  0  0  0
   35.9877    7.5817    4.6863 N   0  0  0  0  0  0  0  0  0  0  0  0
   42.1124    5.9880    4.7515 C   0  0  0  0  0  0  0  0  0  0  0  0
   44.0601    3.7442    5.9414 C   0  0  0  0  0  0  0  0  0  0  0  0
   45.1823    3.8513    6.9258 C   0  0  1  0  0  0  0  0  0  0  0  0
   45.6248    2.4237    7.2655 C   0  0  0  0  0  0  0  0  0  0  0  0
   46.7725    2.3016    8.2850 C   0  0  0  0  0  0  0  0  0  0  0  0
   48.0173    2.7201    7.6375 N   0  0  0  0  0  0  0  0  0  0  0  0
   46.2762    4.5085    6.3463 O   0  0  0  0  0  0  0  0  0  0  0  0
   41.2156    5.4847    9.6097 C   0  0  0  0  0  0  0  0  0  0  0  0
   39.7058    5.4589    9.7951 C   0  0  0  0  0  0  0  0  0  0  0  0
   36.7608    9.1989    2.9562 C   0  0  1  0  0  0  0  0  0  0  0  0
   39.2482    4.6061   10.9106 N   0  0  0  0  0  0  0  0  0  0  0  0
   35.4951    9.1196    2.3057 O   0  0  0  0  0  0  0  0  0  0  0  0
   40.7153    6.4080    4.2512 C   0  0  2  0  0  0  0  0  0  0  0  0
   40.7620    6.8569    2.8653 N   0  0  0  0  0  0  0  0  0  0  0  0
   37.8569    4.5713   12.9753 C   0  0  0  0  0  0  0  0  0  0  0  0
   36.5161    4.8378   12.2274 C   0  0  0  0  0  0  0  0  0  0  0  0
   39.0884    5.1929   12.2662 C   0  0  0  0  0  0  0  0  0  0  0  0
   35.3572    4.1935   12.9152 N   0  0  0  0  0  0  0  0  0  0  0  0
   43.7272    3.0891    5.1531 O   0  0  0  0  0  0  0  0  0  0  0  0
   37.3892   10.5977    2.7966 C   0  0  2  0  0  0  0  0  0  0  0  0
   37.5627   10.9653    1.4305 O   0  0  0  0  0  0  0  0  0  0  0  0
   40.1686    7.5390    5.0991 C   0  0  2  0  0  0  0  0  0  0  0  0
   38.7474   10.6744    3.5169 C   0  0  2  0  0  0  0  0  0  0  0  0
   38.6203   10.2950    4.8917 O   0  0  0  0  0  0  0  0  0  0  0  0
   40.0824    7.0826    6.6120 C   0  0  2  0  0  0  0  0  0  0  0  0
   39.5700    8.1971    7.4079 O   0  0  0  0  0  0  0  0  0  0  0  0
   39.3425   12.0553    3.4452 C   0  0  0  0  0  0  0  0  0  0  0  0
   39.7373   12.3437    2.1583 O   0  0  0  0  0  0  0  0  0  0  0  0
   41.5152    6.6816    7.1011 C   0  0  1  0  0  0  0  0  0  0  0  0
   41.5170    6.2703    8.4372 O   0  0  0  0  0  0  0  0  0  0  0  0
  1  2  1  6  0  0  0
  1  5  1  0  0  0  0
  1 30  1  0  0  0  0
  3  4  1  1  0  0  0
  3  7  1  0  0  0  0
  3 35  1  0  0  0  0
  5  6  1  6  0  0  0
  5 16  1  0  0  0  0
  7 19  1  0  0  0  0
  8  4  1  0  0  0  0
  8 25  2  0  0  0  0
  9  8  1  6  0  0  0
  9 10  1  0  0  0  0
  9 13  1  0  0  0  0
 10 11  1  0  0  0  0
 11 12  1  0  0  0  0
 14 15  1  0  0  0  0
 14 36  1  0  0  0  0
 15 17  1  0  0  0  0
 16 18  1  1  0  0  0
 16 26  1  0  0  0  0
 17 23  1  0  0  0  0
 19 20  1  6  0  0  0
 19 28  1  0  0  0  0
 21 22  1  0  0  0  0
 21 23  1  0  0  0  0
 22 24  1  0  0  0  0
 26 27  1  6  0  0  0
 26 29  1  0  0  0  0
 28  2  1  6  0  0  0
 28 31  1  0  0  0  0
 29 30  1  0  0  0  0
 29 33  1  1  0  0  0
 31 32  1  1  0  0  0
 31 35  1  0  0  0  0
 33 34  1  0  0  0  0
 35 36  1  1  0  0  0
M  END
>  <CHROM.1>
-168.31119240,-65.43900881,145.64455798,-179.36298058,-72.44356518,175.90533279
-58.26394638,90.63748139,143.09274522,178.37528786,-61.32030572,179.20325789
-69.52221746,-59.48188063,40.37301381,6.74172724,6.36712211,2.25362148,0.42369775
-1.02272533

>  <Name>
2f4u_lig

>  <RI>
0

>  <Rbt.Current_Directory>
/home/itssahil/PROJECTS/Mol_Feturizer/New_Systems/rnas/2f4u

>  <Rbt.Executable>
rbdock ($Id: //depot/dev/client3/rdock/2013.1/src/exe/rbdock.cxx#4 $)

>  <Rbt.Library>
libRbt.so (2013.1, Build901 2013/11/27)

>  <Rbt.Parameter_File>
/export/apps/rDock/src/rDock_2013.1_src/data/scripts/dock_solv.prm

>  <Rbt.Receptor>
prm/pocket_docking_3.prm

>  <SCORE>
-23.7809

>  <SCORE.INTER>
-12.6312

>  <SCORE.INTER.CONST>
1

>  <SCORE.INTER.POLAR>
-0.99404

>  <SCORE.INTER.ROT>
14

>  <SCORE.INTER.SOLV>
15.6061

>  <SCORE.INTER.VDW>
-23.2427

>  <SCORE.INTER.norm>
-0.350866

>  <SCORE.INTRA>
-11.1497

>  <SCORE.INTRA.DIHEDRAL>
-21.5536

>  <SCORE.INTRA.DIHEDRAL.0>
26.3805

>  <SCORE.INTRA.POLAR>
0

>  <SCORE.INTRA.POLAR.0>
0

>  <SCORE.INTRA.REPUL>
0

>  <SCORE.INTRA.REPUL.0>
0

>  <SCORE.INTRA.SOLV>
0.679027

>  <SCORE.INTRA.SOLV.lig_0>
-98.5587

>  <SCORE.INTRA.VDW>
-0.712428

>  <SCORE.INTRA.VDW.0>
-2.91167

>  <SCORE.INTRA.norm>
-0.309715

>  <SCORE.RESTR>
0

>  <SCORE.RESTR.CAVITY>
0

>  <SCORE.RESTR.norm>
0

>  <SCORE.SYSTEM>
0

>  <SCORE.SYSTEM.CONST>
0

>  <SCORE.SYSTEM.DIHEDRAL>
0

>  <SCORE.SYSTEM.SOLV>
0

>  <SCORE.SYSTEM.norm>
0

>  <SCORE.heavy>
36

>  <SCORE.norm>
-0.660581

>  <RMSD>
1.117

$$$$
2f4u_lig
 OpenBabel11021811433D
libRbt.so/2013.1/901 2013/11/27
 36 37  0  0  0  0  0  0  0  0999 V2000
   37.4682    9.0612    5.7605 C   0  0  2  0  0  0  0  0  0  0  0  0
   38.1345    7.8544    5.2337 O   0  0  0  0  0  0  0  0  0  0  0  0
   41.3053    5.2636    6.6928 C   0  0  2  0  0  0  0  0  0  0  0  0
   42.6460    4.8349    7.1762 N   0  0  0  0  0  0  0  0  0  0  0  0
   36.0007    9.0296    5.2320 C   0  0  2  0  0  0  0  0  0  0  0  0
   35.2732    7.8162    5.6474 N   0  0  0  0  0  0  0  0  0  0  0  0
   41.3796    5.8963    5.2584 C   0  0  0  0  0  0  0  0  0  0  0  0
   43.5744    4.0367    5.8769 C   0  0  0  0  0  0  0  0  0  0  0  0
   44.5721    3.7569    6.9567 C   0  0  1  0  0  0  0  0  0  0  0  0
   45.7656    3.0541    6.3000 C   0  0  0  0  0  0  0  0  0  0  0  0
   46.8952    2.6192    7.2518 C   0  0  0  0  0  0  0  0  0  0  0  0
   46.4841    1.3891    7.9313 N   0  0  0  0  0  0  0  0  0  0  0  0
   45.0383    4.9569    7.5108 O   0  0  0  0  0  0  0  0  0  0  0  0
   40.4039    5.5136   10.3357 C   0  0  0  0  0  0  0  0  0  0  0  0
   38.9152    5.2308   10.4717 C   0  0  0  0  0  0  0  0  0  0  0  0
   36.0240    9.1336    3.6708 C   0  0  1  0  0  0  0  0  0  0  0  0
   38.2649    5.9409   11.5915 N   0  0  0  0  0  0  0  0  0  0  0  0
   34.7034    9.0980    3.1359 O   0  0  0  0  0  0  0  0  0  0  0  0
   39.9947    6.3872    4.7897 C   0  0  2  0  0  0  0  0  0  0  0  0
   40.0721    7.0156    3.4769 N   0  0  0  0  0  0  0  0  0  0  0  0
   35.9763    4.9758   11.4162 C   0  0  0  0  0  0  0  0  0  0  0  0
   34.7385    4.3993   12.1671 C   0  0  0  0  0  0  0  0  0  0  0  0
   37.1770    5.2733   12.3519 C   0  0  0  0  0  0  0  0  0  0  0  0
   34.0474    5.4417   12.9839 N   0  0  0  0  0  0  0  0  0  0  0  0
   43.4215    3.8198    4.8324 O   0  0  0  0  0  0  0  0  0  0  0  0
   36.7523   10.4370    3.2863 C   0  0  2  0  0  0  0  0  0  0  0  0
   36.8344   10.6202    1.8751 O   0  0  0  0  0  0  0  0  0  0  0  0
   39.4339    7.3992    5.7688 C   0  0  2  0  0  0  0  0  0  0  0  0
   38.1707   10.4696    3.8833 C   0  0  2  0  0  0  0  0  0  0  0  0
   38.1345   10.2713    5.3009 O   0  0  0  0  0  0  0  0  0  0  0  0
   39.3143    6.7468    7.2056 C   0  0  2  0  0  0  0  0  0  0  0  0
   38.7889    7.7490    8.1317 O   0  0  0  0  0  0  0  0  0  0  0  0
   38.8721   11.7690    3.5905 C   0  0  0  0  0  0  0  0  0  0  0  0
   39.1649   11.8669    2.2490 O   0  0  0  0  0  0  0  0  0  0  0  0
   40.7352    6.2759    7.6666 C   0  0  1  0  0  0  0  0  0  0  0  0
   40.7075    5.6912    8.9361 O   0  0  0  0  0  0  0  0  0  0  0  0
  1  2  1  6  0  0  0
  1  5  1  0  0  0  0
  1 30  1  0  0  0  0
  3  4  1  1  0  0  0
  3  7  1  0  0  0  0
  3 35  1  0  0  0  0
  5  6  1  6  0  0  0
  5 16  1  0  0  0  0
  7 19  1  0  0  0  0
  8  4  1  0  0  0  0
  8 25  2  0  0  0  0
  9  8  1  6  0  0  0
  9 10  1  0  0  0  0
  9 13  1  0  0  0  0
 10 11  1  0  0  0  0
 11 12  1  0  0  0  0
 14 15  1  0  0  0  0
 14 36  1  0  0  0  0
 15 17  1  0  0  0  0
 16 18  1  1  0  0  0
 16 26  1  0  0  0  0
 17 23  1  0  0  0  0
 19 20  1  6  0  0  0
 19 28  1  0  0  0  0
 21 22  1  0  0  0  0
 21 23  1  0  0  0  0
 22 24  1  0  0  0  0
 26 27  1  6  0  0  0
 26 29  1  0  0  0  0
 28  2  1  6  0  0  0
 28 31  1  0  0  0  0
 29 30  1  0  0  0  0
 29 33  1  1  0  0  0
 31 32  1  1  0  0  0
 31 35  1  0  0  0  0
 33 34  1  0  0  0  0
 35 36  1  1  0  0  0
M  END
>  <CHROM.1>
-166.19233673,-42.06560006,-177.06327031,-177.54451627,78.44413997,-137.63418767
69.43183304,-144.21892188,-62.32837132,72.74115965,-174.46127124,-165.35378492
-69.05626133,-169.78380533,39.57870678,6.73267832,6.69805013,-2.47176367
-0.42958168,2.13455274

>  <Name>
2f4u_lig

>  <RI>
0

>  <Rbt.Current_Directory>
/home/itssahil/PROJECTS/Mol_Feturizer/New_Systems/rnas/2f4u

>  <Rbt.Executable>
rbdock ($Id: //depot/dev/client3/rdock/2013.1/src/exe/rbdock.cxx#4 $)

>  <Rbt.Library>
libRbt.so (2013.1, Build901 2013/11/27)

>  <Rbt.Parameter_File>
/export/apps/rDock/src/rDock_2013.1_src/data/scripts/dock_solv.prm

>  <Rbt.Receptor>
prm/pocket_docking_3.prm

>  <SCORE>
-18.4623

>  <SCORE.INTER>
-12.8135

>  <SCORE.INTER.CONST>
1

>  <SCORE.INTER.POLAR>
-1.92399

>  <SCORE.INTER.ROT>
14

>  <SCORE.INTER.SOLV>
12.9658

>  <SCORE.INTER.VDW>
-19.3843

>  <SCORE.INTER.norm>
-0.355932

>  <SCORE.INTRA>
-5.64873

>  <SCORE.INTRA.DIHEDRAL>
-15.0307

>  <SCORE.INTRA.DIHEDRAL.0>
26.3805

>  <SCORE.INTRA.POLAR>
0

>  <SCORE.INTRA.POLAR.0>
0

>  <SCORE.INTRA.REPUL>
0.027155

>  <SCORE.INTRA.REPUL.0>
0

>  <SCORE.INTRA.SOLV>
0.960305

>  <SCORE.INTRA.SOLV.lig_0>
-98.5587

>  <SCORE.INTRA.VDW>
1.25067

>  <SCORE.INTRA.VDW.0>
-2.91167

>  <SCORE.INTRA.norm>
-0.156909

>  <SCORE.RESTR>
0

>  <SCORE.RESTR.CAVITY>
0

>  <SCORE.RESTR.norm>
0

>  <SCORE.SYSTEM>
0

>  <SCORE.SYSTEM.CONST>
0

>  <SCORE.SYSTEM.DIHEDRAL>
0

>  <SCORE.SYSTEM.SOLV>
0

>  <SCORE.SYSTEM.norm>
0

>  <SCORE.heavy>
36

>  <SCORE.norm>
-0.512841

>  <RMSD>
1.162

$$$$
2f4u_lig
 OpenBabel11021811433D
libRbt.so/2013.1/901 2013/11/27
 36 37  0  0  0  0  0  0  0  0999 V2000
   37.5469    9.2924    5.6871 C   0  0  2  0  0  0  0  0  0  0  0  0
   38.3008    8.1386    5.1596 O   0  0  0  0  0  0  0  0  0  0  0  0
   41.7768    5.7936    6.3056 C   0  0  2  0  0  0  0  0  0  0  0  0
   43.1413    5.4737    6.8063 N   0  0  0  0  0  0  0  0  0  0  0  0
   36.0606    9.0908    5.2576 C   0  0  2  0  0  0  0  0  0  0  0  0
   35.4898    7.8280    5.7615 N   0  0  0  0  0  0  0  0  0  0  0  0
   41.8237    6.7443    5.0577 C   0  0  0  0  0  0  0  0  0  0  0  0
   43.9966    4.3753    5.6887 C   0  0  0  0  0  0  0  0  0  0  0  0
   45.0513    4.3472    6.7501 C   0  0  1  0  0  0  0  0  0  0  0  0
   45.4353    2.8794    6.9685 C   0  0  0  0  0  0  0  0  0  0  0  0
   44.3217    1.9691    7.5183 C   0  0  0  0  0  0  0  0  0  0  0  0
   43.2631    1.8682    6.5117 N   0  0  0  0  0  0  0  0  0  0  0  0
   46.1977    5.0257    6.3144 O   0  0  0  0  0  0  0  0  0  0  0  0
   41.4845    4.8514    9.6557 C   0  0  0  0  0  0  0  0  0  0  0  0
   40.3599    3.9706   10.1793 C   0  0  0  0  0  0  0  0  0  0  0  0
   35.9765    9.1324    3.6956 C   0  0  1  0  0  0  0  0  0  0  0  0
   39.2851    4.7102   10.8714 N   0  0  0  0  0  0  0  0  0  0  0  0
   34.6362    8.9413    3.2502 O   0  0  0  0  0  0  0  0  0  0  0  0
   40.4043    7.1139    4.5808 C   0  0  2  0  0  0  0  0  0  0  0  0
   40.4481    8.0328    3.4503 N   0  0  0  0  0  0  0  0  0  0  0  0
   36.9285    4.9572   11.6365 C   0  0  0  0  0  0  0  0  0  0  0  0
   35.7429    4.3158   12.4183 C   0  0  0  0  0  0  0  0  0  0  0  0
   38.1025    3.9744   11.3887 C   0  0  0  0  0  0  0  0  0  0  0  0
   34.9192    3.4243   11.5476 N   0  0  0  0  0  0  0  0  0  0  0  0
   43.7869    3.9176    4.7358 O   0  0  0  0  0  0  0  0  0  0  0  0
   36.5406   10.4859    3.2193 C   0  0  2  0  0  0  0  0  0  0  0  0
   36.5158   10.6184    1.8004 O   0  0  0  0  0  0  0  0  0  0  0  0
   39.6262    7.7750    5.7009 C   0  0  2  0  0  0  0  0  0  0  0  0
   37.9822   10.6863    3.7204 C   0  0  2  0  0  0  0  0  0  0  0  0
   38.0544   10.5438    5.1433 O   0  0  0  0  0  0  0  0  0  0  0  0
   39.5379    6.7979    6.9426 C   0  0  2  0  0  0  0  0  0  0  0  0
   38.7992    7.4673    8.0124 O   0  0  0  0  0  0  0  0  0  0  0  0
   38.5257   12.0369    3.3375 C   0  0  0  0  0  0  0  0  0  0  0  0
   39.8637   12.1241    3.6496 O   0  0  0  0  0  0  0  0  0  0  0  0
   40.9898    6.4549    7.4198 C   0  0  1  0  0  0  0  0  0  0  0  0
   40.9899    5.5955    8.5224 O   0  0  0  0  0  0  0  0  0  0  0  0
  1  2  1  6  0  0  0
  1  5  1  0  0  0  0
  1 30  1  0  0  0  0
  3  4  1  1  0  0  0
  3  7  1  0  0  0  0
  3 35  1  0  0  0  0
  5  6  1  6  0  0  0
  5 16  1  0  0  0  0
  7 19  1  0  0  0  0
  8  4  1  0  0  0  0
  8 25  2  0  0  0  0
  9  8  1  6  0  0  0
  9 10  1  0  0  0  0
  9 13  1  0  0  0  0
 10 11  1  0  0  0  0
 11 12  1  0  0  0  0
 14 15  1  0  0  0  0
 14 36  1  0  0  0  0
 15 17  1  0  0  0  0
 16 18  1  1  0  0  0
 16 26  1  0  0  0  0
 17 23  1  0  0  0  0
 19 20  1  6  0  0  0
 19 28  1  0  0  0  0
 21 22  1  0  0  0  0
 21 23  1  0  0  0  0
 22 24  1  0  0  0  0
 26 27  1  6  0  0  0
 26 29  1  0  0  0  0
 28  2  1  6  0  0  0
 28 31  1  0  0  0  0
 29 30  1  0  0  0  0
 29 33  1  1  0  0  0
 31 32  1  1  0  0  0
 31 35  1  0  0  0  0
 33 34  1  0  0  0  0
 35 36  1  1  0  0  0
M  END
>  <CHROM.1>
-161.18493748,-71.62831228,132.95120607,-64.20463798,65.65525563,-71.92130550
-175.22955130,177.83277060,-161.25812663,-76.34433845,-169.52005917,-150.93900328
-172.48952416,69.40565888,39.76724735,6.71776114,6.49935818,2.25667542,0.37968244
-0.88815956

>  <Name>
2f4u_lig

>  <RI>
0

>  <Rbt.Current_Directory>
/home/itssahil/PROJECTS/Mol_Feturizer/New_Systems/rnas/2f4u

>  <Rbt.Executable>
rbdock ($Id: //depot/dev/client3/rdock/2013.1/src/exe/rbdock.cxx#4 $)

>  <Rbt.Library>
libRbt.so (2013.1, Build901 2013/11/27)

>  <Rbt.Parameter_File>
/export/apps/rDock/src/rDock_2013.1_src/data/scripts/dock_solv.prm

>  <Rbt.Receptor>
prm/pocket_docking_2.prm

>  <SCORE>
-18.5848

>  <SCORE.INTER>
-11.2719

>  <SCORE.INTER.CONST>
1

>  <SCORE.INTER.POLAR>
-0.99437

>  <SCORE.INTER.ROT>
14

>  <SCORE.INTER.SOLV>
15.4746

>  <SCORE.INTER.VDW>
-22.2916

>  <SCORE.INTER.norm>
-0.313109

>  <SCORE.INTRA>
-7.39744

>  <SCORE.INTRA.DIHEDRAL>
-15.9316

>  <SCORE.INTRA.DIHEDRAL.0>
26.3805

>  <SCORE.INTRA.POLAR>
0

>  <SCORE.INTRA.POLAR.0>
0

>  <SCORE.INTRA.REPUL>
0

>  <SCORE.INTRA.REPUL.0>
0

>  <SCORE.INTRA.SOLV>
4.73627

>  <SCORE.INTRA.SOLV.lig_0>
-98.5587

>  <SCORE.INTRA.VDW>
-1.7998

>  <SCORE.INTRA.VDW.0>
-2.91167

>  <SCORE.INTRA.norm>
-0.205485

>  <SCORE.RESTR>
0.0846042

>  <SCORE.RESTR.CAVITY>
0.0846042

>  <SCORE.RESTR.norm>
0.00235012

>  <SCORE.SYSTEM>
0

>  <SCORE.SYSTEM.CONST>
0

>  <SCORE.SYSTEM.DIHEDRAL>
0

>  <SCORE.SYSTEM.SOLV>
0

>  <SCORE.SYSTEM.norm>
0

>  <SCORE.heavy>
36

>  <SCORE.norm>
-0.516244

>  <RMSD>
1.165

$$$$
2f4u_lig
 OpenBabel11021811433D
libRbt.so/2013.1/901 2013/11/27
 36 37  0  0  0  0  0  0  0  0999 V2000
   37.7301    9.0197    5.8517 C   0  0  2  0  0  0  0  0  0  0  0  0
   38.3812    7.7879    5.3651 O   0  0  0  0  0  0  0  0  0  0  0  0
   41.8659    5.4159    6.4265 C   0  0  2  0  0  0  0  0  0  0  0  0
   43.2679    5.0851    6.8001 N   0  0  0  0  0  0  0  0  0  0  0  0
   36.2484    8.9651    5.3663 C   0  0  2  0  0  0  0  0  0  0  0  0
   35.5324    7.7742    5.8595 N   0  0  0  0  0  0  0  0  0  0  0  0
   41.7927    6.1669    5.0503 C   0  0  0  0  0  0  0  0  0  0  0  0
   44.0186    4.0051    5.5928 C   0  0  0  0  0  0  0  0  0  0  0  0
   45.1621    3.9567    6.5571 C   0  0  1  0  0  0  0  0  0  0  0  0
   45.8536    2.6013    6.3722 C   0  0  0  0  0  0  0  0  0  0  0  0
   44.9837    1.3609    6.6483 C   0  0  0  0  0  0  0  0  0  0  0  0
   44.4105    1.4833    7.9901 N   0  0  0  0  0  0  0  0  0  0  0  0
   46.0972    4.9554    6.2529 O   0  0  0  0  0  0  0  0  0  0  0  0
   41.0008    4.7522    9.8364 C   0  0  0  0  0  0  0  0  0  0  0  0
   40.0193    5.5122   10.7161 C   0  0  0  0  0  0  0  0  0  0  0  0
   36.2284    8.9939    3.8019 C   0  0  1  0  0  0  0  0  0  0  0  0
   38.6084    5.3824   10.2995 N   0  0  0  0  0  0  0  0  0  0  0  0
   34.8934    8.9348    3.3062 O   0  0  0  0  0  0  0  0  0  0  0  0
   40.3417    6.5539    4.6991 C   0  0  2  0  0  0  0  0  0  0  0  0
   40.2796    7.2911    3.4433 N   0  0  0  0  0  0  0  0  0  0  0  0
   37.3882    3.5320   11.4339 C   0  0  0  0  0  0  0  0  0  0  0  0
   36.4464    2.9355   10.3451 C   0  0  0  0  0  0  0  0  0  0  0  0
   37.5690    5.0677   11.3134 C   0  0  0  0  0  0  0  0  0  0  0  0
   35.0628    3.4903   10.4410 N   0  0  0  0  0  0  0  0  0  0  0  0
   43.7248    3.5645    4.6543 O   0  0  0  0  0  0  0  0  0  0  0  0
   36.9460   10.2762    3.3351 C   0  0  2  0  0  0  0  0  0  0  0  0
   36.9889   10.3913    1.9150 O   0  0  0  0  0  0  0  0  0  0  0  0
   39.7479    7.4224    5.7900 C   0  0  2  0  0  0  0  0  0  0  0  0
   38.3805   10.3351    3.8903 C   0  0  2  0  0  0  0  0  0  0  0  0
   38.3837   10.2052    5.3162 O   0  0  0  0  0  0  0  0  0  0  0  0
   39.7779    6.6472    7.1694 C   0  0  2  0  0  0  0  0  0  0  0  0
   39.2170    7.5138    8.2049 O   0  0  0  0  0  0  0  0  0  0  0  0
   39.0739   11.6178    3.5160 C   0  0  0  0  0  0  0  0  0  0  0  0
   38.4107   12.6984    4.0524 O   0  0  0  0  0  0  0  0  0  0  0  0
   41.2624    6.2843    7.5127 C   0  0  1  0  0  0  0  0  0  0  0  0
   41.3672    5.5989    8.7266 O   0  0  0  0  0  0  0  0  0  0  0  0
  1  2  1  6  0  0  0
  1  5  1  0  0  0  0
  1 30  1  0  0  0  0
  3  4  1  1  0  0  0
  3  7  1  0  0  0  0
  3 35  1  0  0  0  0
  5  6  1  6  0  0  0
  5 16  1  0  0  0  0
  7 19  1  0  0  0  0
  8  4  1  0  0  0  0
  8 25  2  0  0  0  0
  9  8  1  6  0  0  0
  9 10  1  0  0  0  0
  9 13  1  0  0  0  0
 10 11  1  0  0  0  0
 11 12  1  0  0  0  0
 14 15  1  0  0  0  0
 14 36  1  0  0  0  0
 15 17  1  0  0  0  0
 16 18  1  1  0  0  0
 16 26  1  0  0  0  0
 17 23  1  0  0  0  0
 19 20  1  6  0  0  0
 19 28  1  0  0  0  0
 21 22  1  0  0  0  0
 21 23  1  0  0  0  0
 22 24  1  0  0  0  0
 26 27  1  6  0  0  0
 26 29  1  0  0  0  0
 28  2  1  6  0  0  0
 28 31  1  0  0  0  0
 29 30  1  0  0  0  0
 29 33  1  1  0  0  0
 31 32  1  1  0  0  0
 31 35  1  0  0  0  0
 33 34  1  0  0  0  0
 35 36  1  1  0  0  0
M  END
>  <CHROM.1>
-171.97162313,-61.18617952,151.30292664,-60.84717094,-54.15813034,86.55676767
-74.93928331,132.69486392,-90.43854247,-61.85381845,-82.73939095,-154.13424219
61.96534658,-94.19505229,39.88950535,6.52505365,6.47977707,2.34934914,0.39887403
-0.85863923

>  <Name>
2f4u_lig

>  <RI>
0

>  <Rbt.Current_Directory>
/home/itssahil/PROJECTS/Mol_Feturizer/New_Systems/rnas/2f4u

>  <Rbt.Executable>
rbdock ($Id: //depot/dev/client3/rdock/2013.1/src/exe/rbdock.cxx#4 $)

>  <Rbt.Library>
libRbt.so (2013.1, Build901 2013/11/27)

>  <Rbt.Parameter_File>
/export/apps/rDock/src/rDock_2013.1_src/data/scripts/dock_solv.prm

>  <Rbt.Receptor>
prm/pocket_docking_2.prm

>  <SCORE>
-15.5741

>  <SCORE.INTER>
-11.1716

>  <SCORE.INTER.CONST>
1

>  <SCORE.INTER.POLAR>
-1.68751

>  <SCORE.INTER.ROT>
14

>  <SCORE.INTER.SOLV>
15.3835

>  <SCORE.INTER.VDW>
-19.8839

>  <SCORE.INTER.norm>
-0.310321

>  <SCORE.INTRA>
-4.53939

>  <SCORE.INTRA.DIHEDRAL>
-10.4893

>  <SCORE.INTRA.DIHEDRAL.0>
26.3805

>  <SCORE.INTRA.POLAR>
0

>  <SCORE.INTRA.POLAR.0>
0

>  <SCORE.INTRA.REPUL>
0

>  <SCORE.INTRA.REPUL.0>
0

>  <SCORE.INTRA.SOLV>
4.52437

>  <SCORE.INTRA.SOLV.lig_0>
-98.5587

>  <SCORE.INTRA.VDW>
-1.55693

>  <SCORE.INTRA.VDW.0>
-2.91167

>  <SCORE.INTRA.norm>
-0.126094

>  <SCORE.RESTR>
0.136853

>  <SCORE.RESTR.CAVITY>
0.136853

>  <SCORE.RESTR.norm>
0.00380146

>  <SCORE.SYSTEM>
0

>  <SCORE.SYSTEM.CONST>
0

>  <SCORE.SYSTEM.DIHEDRAL>
0

>  <SCORE.SYSTEM.SOLV>
0

>  <SCORE.SYSTEM.norm>
0

>  <SCORE.heavy>
36

>  <SCORE.norm>
-0.432614

>  <RMSD>
1.203

$$$$
2f4u_lig
 OpenBabel11021811433D
libRbt.so/2013.1/901 2013/11/27
 36 37  0  0  0  0  0  0  0  0999 V2000
   37.5967    9.2386    5.0850 C   0  0  2  0  0  0  0  0  0  0  0  0
   38.3781    8.0796    4.6117 O   0  0  0  0  0  0  0  0  0  0  0  0
   41.3859    5.3764    6.2057 C   0  0  2  0  0  0  0  0  0  0  0  0
   42.5877    4.9065    6.9471 N   0  0  0  0  0  0  0  0  0  0  0  0
   36.2585    9.2346    4.2829 C   0  0  2  0  0  0  0  0  0  0  0  0
   35.4919    7.9879    4.4629 N   0  0  0  0  0  0  0  0  0  0  0  0
   41.7568    6.4359    5.1089 C   0  0  0  0  0  0  0  0  0  0  0  0
   43.7397    4.0895    5.8549 C   0  0  0  0  0  0  0  0  0  0  0  0
   44.4884    3.7748    7.1119 C   0  0  1  0  0  0  0  0  0  0  0  0
   45.5034    2.6777    6.7721 C   0  0  0  0  0  0  0  0  0  0  0  0
   44.9227    1.2662    6.5674 C   0  0  0  0  0  0  0  0  0  0  0  0
   43.9977    0.9793    7.6656 N   0  0  0  0  0  0  0  0  0  0  0  0
   45.2062    4.8982    7.5445 O   0  0  0  0  0  0  0  0  0  0  0  0
   39.4717    4.3953    9.2913 C   0  0  0  0  0  0  0  0  0  0  0  0
   40.1788    3.0786    9.5760 C   0  0  0  0  0  0  0  0  0  0  0  0
   36.5780    9.4543    2.7669 C   0  0  1  0  0  0  0  0  0  0  0  0
   39.3716    2.1140   10.3500 N   0  0  0  0  0  0  0  0  0  0  0  0
   35.3854    9.4479    1.9866 O   0  0  0  0  0  0  0  0  0  0  0  0
   40.4990    6.9571    4.3845 C   0  0  2  0  0  0  0  0  0  0  0  0
   40.8395    7.9740    3.3975 N   0  0  0  0  0  0  0  0  0  0  0  0
   37.0986    2.9013   10.9930 C   0  0  0  0  0  0  0  0  0  0  0  0
   36.2446    3.6775   12.0401 C   0  0  0  0  0  0  0  0  0  0  0  0
   38.5383    2.5951   11.4821 C   0  0  0  0  0  0  0  0  0  0  0  0
   34.8782    3.9893   11.5233 N   0  0  0  0  0  0  0  0  0  0  0  0
   43.7972    3.8833    4.7987 O   0  0  0  0  0  0  0  0  0  0  0  0
   37.3374   10.7884    2.6237 C   0  0  2  0  0  0  0  0  0  0  0  0
   37.6841   11.0765    1.2714 O   0  0  0  0  0  0  0  0  0  0  0  0
   39.5306    7.5654    5.3792 C   0  0  2  0  0  0  0  0  0  0  0  0
   38.6143   10.7879    3.4834 C   0  0  2  0  0  0  0  0  0  0  0  0
   38.3117   10.4848    4.8497 O   0  0  0  0  0  0  0  0  0  0  0  0
   39.1192    6.4835    6.4584 C   0  0  2  0  0  0  0  0  0  0  0  0
   38.2008    7.1018    7.4135 O   0  0  0  0  0  0  0  0  0  0  0  0
   39.3299   12.1110    3.4245 C   0  0  0  0  0  0  0  0  0  0  0  0
   38.5964   13.0845    4.0644 O   0  0  0  0  0  0  0  0  0  0  0  0
   40.4101    5.9862    7.1928 C   0  0  1  0  0  0  0  0  0  0  0  0
   40.1217    5.0276    8.1686 O   0  0  0  0  0  0  0  0  0  0  0  0
  1  2  1  6  0  0  0
  1  5  1  0  0  0  0
  1 30  1  0  0  0  0
  3  4  1  1  0  0  0
  3  7  1  0  0  0  0
  3 35  1  0  0  0  0
  5  6  1  6  0  0  0
  5 16  1  0  0  0  0
  7 19  1  0  0  0  0
  8  4  1  0  0  0  0
  8 25  2  0  0  0  0
  9  8  1  6  0  0  0
  9 10  1  0  0  0  0
  9 13  1  0  0  0  0
 10 11  1  0  0  0  0
 11 12  1  0  0  0  0
 14 15  1  0  0  0  0
 14 36  1  0  0  0  0
 15 17  1  0  0  0  0
 16 18  1  6  0  0  0
 16 26  1  0  0  0  0
 17 23  1  0  0  0  0
 19 20  1  6  0  0  0
 19 28  1  0  0  0  0
 21 22  1  0  0  0  0
 21 23  1  0  0  0  0
 22 24  1  0  0  0  0
 26 27  1  6  0  0  0
 26 29  1  0  0  0  0
 28  2  1  6  0  0  0
 28 31  1  0  0  0  0
 29 30  1  0  0  0  0
 29 33  1  1  0  0  0
 31 32  1  1  0  0  0
 31 35  1  0  0  0  0
 33 34  1  0  0  0  0
 35 36  1  1  0  0  0
M  END
>  <CHROM.1>
-163.90383343,-62.14291774,164.97224469,-74.04119455,-46.90681204,-159.49426523
-177.68622804,-40.77098702,93.01233710,178.40298856,-168.33056141,-150.43827498
68.90920302,-170.03584337,39.74941329,6.42588067,6.23772281,2.03085544,0.37546999
-0.79905164

>  <Name>
2f4u_lig

>  <RI>
0

>  <Rbt.Current_Directory>
/home/itssahil/PROJECTS/Mol_Feturizer/New_Systems/rnas/2f4u

>  <Rbt.Executable>
rbdock ($Id: //depot/dev/client3/rdock/2013.1/src/exe/rbdock.cxx#4 $)

>  <Rbt.Library>
libRbt.so (2013.1, Build901 2013/11/27)

>  <Rbt.Parameter_File>
/export/apps/rDock/src/rDock_2013.1_src/data/scripts/dock_solv.prm

>  <Rbt.Receptor>
prm/pocket_docking_2.prm

>  <SCORE>
-23.037

>  <SCORE.INTER>
-16.9191

>  <SCORE.INTER.CONST>
1

>  <SCORE.INTER.POLAR>
-2.71952

>  <SCORE.INTER.ROT>
14

>  <SCORE.INTER.SOLV>
18.7765

>  <SCORE.INTER.VDW>
-21.4065

>  <SCORE.INTER.norm>
-0.469974

>  <SCORE.INTRA>
-6.7591

>  <SCORE.INTRA.DIHEDRAL>
-15.6509

>  <SCORE.INTRA.DIHEDRAL.0>
26.3805

>  <SCORE.INTRA.POLAR>
0

>  <SCORE.INTRA.POLAR.0>
0

>  <SCORE.INTRA.REPUL>
0

>  <SCORE.INTRA.REPUL.0>
0

>  <SCORE.INTRA.SOLV>
1.8604

>  <SCORE.INTRA.SOLV.lig_0>
-98.5587

>  <SCORE.INTRA.VDW>
0.136168

>  <SCORE.INTRA.VDW.0>
-2.91167

>  <SCORE.INTRA.norm>
-0.187753

>  <SCORE.RESTR>
0.641125

>  <SCORE.RESTR.CAVITY>
0.641125

>  <SCORE.RESTR.norm>
0.017809

>  <SCORE.SYSTEM>
0

>  <SCORE.SYSTEM.CONST>
0

>  <SCORE.SYSTEM.DIHEDRAL>
0

>  <SCORE.SYSTEM.SOLV>
0

>  <SCORE.SYSTEM.norm>
0

>  <SCORE.heavy>
36

>  <SCORE.norm>
-0.639918

>  <RMSD>
1.215

$$$$
2f4u_lig
 OpenBabel11021811433D
libRbt.so/2013.1/901 2013/11/27
 36 37  0  0  0  0  0  0  0  0999 V2000
   37.4085    9.1838    5.6333 C   0  0  2  0  0  0  0  0  0  0  0  0
   38.0721    7.9597    5.1440 O   0  0  0  0  0  0  0  0  0  0  0  0
   40.9709    5.2677    6.9453 C   0  0  2  0  0  0  0  0  0  0  0  0
   42.2540    4.7811    7.5211 N   0  0  0  0  0  0  0  0  0  0  0  0
   35.9396    9.1371    5.1096 C   0  0  2  0  0  0  0  0  0  0  0  0
   35.2117    7.9386    5.5656 N   0  0  0  0  0  0  0  0  0  0  0  0
   41.1503    5.7726    5.4701 C   0  0  0  0  0  0  0  0  0  0  0  0
   43.0250    3.5775    6.4513 C   0  0  0  0  0  0  0  0  0  0  0  0
   44.0068    3.4224    7.5701 C   0  0  1  0  0  0  0  0  0  0  0  0
   44.8846    2.2106    7.2379 C   0  0  0  0  0  0  0  0  0  0  0  0
   45.9900    1.8826    8.2586 C   0  0  0  0  0  0  0  0  0  0  0  0
   46.8038    0.7871    7.7281 N   0  0  0  0  0  0  0  0  0  0  0  0
   44.8426    4.5451    7.6425 O   0  0  0  0  0  0  0  0  0  0  0  0
   40.6693    5.2682   10.3569 C   0  0  0  0  0  0  0  0  0  0  0  0
   40.7935    3.7751   10.0926 C   0  0  0  0  0  0  0  0  0  0  0  0
   35.9593    9.1907    3.5459 C   0  0  1  0  0  0  0  0  0  0  0  0
   39.5678    3.1528    9.5528 N   0  0  0  0  0  0  0  0  0  0  0  0
   34.6373    9.1395    3.0156 O   0  0  0  0  0  0  0  0  0  0  0  0
   39.8274    6.3257    4.9020 C   0  0  2  0  0  0  0  0  0  0  0  0
   40.0048    6.8361    3.5484 N   0  0  0  0  0  0  0  0  0  0  0  0
   38.1064    2.2444   11.3527 C   0  0  0  0  0  0  0  0  0  0  0  0
   36.7594    2.8880   10.9060 C   0  0  0  0  0  0  0  0  0  0  0  0
   39.0463    1.9042   10.1666 C   0  0  0  0  0  0  0  0  0  0  0  0
   36.9590    4.2474   10.3199 N   0  0  0  0  0  0  0  0  0  0  0  0
   42.8126    3.1447    5.4875 O   0  0  0  0  0  0  0  0  0  0  0  0
   36.6882   10.4801    3.1178 C   0  0  2  0  0  0  0  0  0  0  0  0
   36.7670   10.6176    1.7012 O   0  0  0  0  0  0  0  0  0  0  0  0
   39.3099    7.4541    5.7716 C   0  0  2  0  0  0  0  0  0  0  0  0
   38.1081   10.5300    3.7100 C   0  0  2  0  0  0  0  0  0  0  0  0
   38.0751   10.3775    5.1333 O   0  0  0  0  0  0  0  0  0  0  0  0
   39.0838    6.9331    7.2487 C   0  0  2  0  0  0  0  0  0  0  0  0
   38.6029    8.0448    8.0678 O   0  0  0  0  0  0  0  0  0  0  0  0
   38.8104   11.8184    3.3738 C   0  0  0  0  0  0  0  0  0  0  0  0
   40.1589   11.7133    3.6302 O   0  0  0  0  0  0  0  0  0  0  0  0
   40.4444    6.3967    7.8091 C   0  0  1  0  0  0  0  0  0  0  0  0
   40.3216    5.9224    9.1184 O   0  0  0  0  0  0  0  0  0  0  0  0
  1  2  1  6  0  0  0
  1  5  1  0  0  0  0
  1 30  1  0  0  0  0
  3  4  1  1  0  0  0
  3  7  1  0  0  0  0
  3 35  1  0  0  0  0
  5  6  1  6  0  0  0
  5 16  1  0  0  0  0
  7 19  1  0  0  0  0
  8  4  1  0  0  0  0
  8 25  2  0  0  0  0
  9  8  1  6  0  0  0
  9 10  1  0  0  0  0
  9 13  1  0  0  0  0
 10 11  1  0  0  0  0
 11 12  1  0  0  0  0
 14 15  1  0  0  0  0
 14 36  1  0  0  0  0
 15 17  1  0  0  0  0
 16 18  1  1  0  0  0
 16 26  1  0  0  0  0
 17 23  1  0  0  0  0
 19 20  1  6  0  0  0
 19 28  1  0  0  0  0
 21 22  1  0  0  0  0
 21 23  1  0  0  0  0
 22 24  1  0  0  0  0
 26 27  1  6  0  0  0
 26 29  1  0  0  0  0
 28  2  1  6  0  0  0
 28 31  1  0  0  0  0
 29 30  1  0  0  0  0
 29 33  1  1  0  0  0
 31 32  1  1  0  0  0
 31 35  1  0  0  0  0
 33 34  1  0  0  0  0
 35 36  1  1  0  0  0
M  END
>  <CHROM.1>
-160.65682312,-52.33837034,170.57834657,179.03990158,-174.76187781,-58.55063134
-66.61460246,-131.15697026,87.24719388,-67.31497598,69.77813444,-171.50725207
-165.69383898,47.83518193,39.77190634,6.28550619,6.59882924,2.19160442,0.33016224
-0.81730208

>  <Name>
2f4u_lig

>  <RI>
0

>  <Rbt.Current_Directory>
/home/itssahil/PROJECTS/Mol_Feturizer/New_Systems/rnas/2f4u

>  <Rbt.Executable>
rbdock ($Id: //depot/dev/client3/rdock/2013.1/src/exe/rbdock.cxx#4 $)

>  <Rbt.Library>
libRbt.so (2013.1, Build901 2013/11/27)

>  <Rbt.Parameter_File>
/export/apps/rDock/src/rDock_2013.1_src/data/scripts/dock_solv.prm

>  <Rbt.Receptor>
prm/pocket_docking_2.prm

>  <SCORE>
-26.2471

>  <SCORE.INTER>
-17.7795

>  <SCORE.INTER.CONST>
1

>  <SCORE.INTER.POLAR>
-1.84138

>  <SCORE.INTER.ROT>
14

>  <SCORE.INTER.SOLV>
14.27

>  <SCORE.INTER.VDW>
-23.4051

>  <SCORE.INTER.norm>
-0.493876

>  <SCORE.INTRA>
-8.71415

>  <SCORE.INTRA.DIHEDRAL>
-19.4955

>  <SCORE.INTRA.DIHEDRAL.0>
26.3805

>  <SCORE.INTRA.POLAR>
0

>  <SCORE.INTRA.POLAR.0>
0

>  <SCORE.INTRA.REPUL>
0.0709926

>  <SCORE.INTRA.REPUL.0>
0

>  <SCORE.INTRA.SOLV>
3.95497

>  <SCORE.INTRA.SOLV.lig_0>
-98.5587

>  <SCORE.INTRA.VDW>
-1.29882

>  <SCORE.INTRA.VDW.0>
-2.91167

>  <SCORE.INTRA.norm>
-0.24206

>  <SCORE.RESTR>
0.246565

>  <SCORE.RESTR.CAVITY>
0.246565

>  <SCORE.RESTR.norm>
0.00684903

>  <SCORE.SYSTEM>
0

>  <SCORE.SYSTEM.CONST>
0

>  <SCORE.SYSTEM.DIHEDRAL>
0

>  <SCORE.SYSTEM.SOLV>
0

>  <SCORE.SYSTEM.norm>
0

>  <SCORE.heavy>
36

>  <SCORE.norm>
-0.729087

>  <RMSD>
1.235

$$$$
2f4u_lig
 OpenBabel11021811433D
libRbt.so/2013.1/901 2013/11/27
 36 37  0  0  0  0  0  0  0  0999 V2000
   37.9863    9.1125    5.4462 C   0  0  2  0  0  0  0  0  0  0  0  0
   38.7142    7.9494    4.9028 O   0  0  0  0  0  0  0  0  0  0  0  0
   41.9758    5.4576    6.3337 C   0  0  2  0  0  0  0  0  0  0  0  0
   43.3241    5.0752    6.8344 N   0  0  0  0  0  0  0  0  0  0  0  0
   36.5371    9.0421    4.8725 C   0  0  2  0  0  0  0  0  0  0  0  0
   35.8456    7.7892    5.2279 N   0  0  0  0  0  0  0  0  0  0  0  0
   42.0535    6.1568    4.9307 C   0  0  0  0  0  0  0  0  0  0  0  0
   44.1303    3.9430    5.7138 C   0  0  0  0  0  0  0  0  0  0  0  0
   45.1818    3.8642    6.7759 C   0  0  1  0  0  0  0  0  0  0  0  0
   46.1669    2.7670    6.3577 C   0  0  0  0  0  0  0  0  0  0  0  0
   47.3364    2.5105    7.3261 C   0  0  0  0  0  0  0  0  0  0  0  0
   46.8072    1.8882    8.5412 N   0  0  0  0  0  0  0  0  0  0  0  0
   45.8933    5.0697    6.8457 O   0  0  0  0  0  0  0  0  0  0  0  0
   41.7785    5.1120    9.7774 C   0  0  0  0  0  0  0  0  0  0  0  0
   40.5803    4.5615   10.5362 C   0  0  0  0  0  0  0  0  0  0  0  0
   36.6020    9.1969    3.3168 C   0  0  1  0  0  0  0  0  0  0  0  0
   39.7508    3.6211    9.7561 N   0  0  0  0  0  0  0  0  0  0  0  0
   35.3000    9.1283    2.7411 O   0  0  0  0  0  0  0  0  0  0  0  0
   40.6575    6.5984    4.4463 C   0  0  2  0  0  0  0  0  0  0  0  0
   40.7354    7.2880    3.1646 N   0  0  0  0  0  0  0  0  0  0  0  0
   37.3062    3.9944   10.0466 C   0  0  0  0  0  0  0  0  0  0  0  0
   37.0007    2.5286   10.4783 C   0  0  0  0  0  0  0  0  0  0  0  0
   38.5183    4.1105    9.0859 C   0  0  0  0  0  0  0  0  0  0  0  0
   38.0368    1.9960   11.4133 N   0  0  0  0  0  0  0  0  0  0  0  0
   43.9009    3.4980    4.7595 O   0  0  0  0  0  0  0  0  0  0  0  0
   37.2898   10.5388    2.9950 C   0  0  2  0  0  0  0  0  0  0  0  0
   37.4059   10.7701    1.5934 O   0  0  0  0  0  0  0  0  0  0  0  0
   40.0213    7.5362    5.4528 C   0  0  2  0  0  0  0  0  0  0  0  0
   38.6879   10.6060    3.6357 C   0  0  2  0  0  0  0  0  0  0  0  0
   38.6180   10.3612    5.0447 O   0  0  0  0  0  0  0  0  0  0  0  0
   39.8994    6.8150    6.8561 C   0  0  2  0  0  0  0  0  0  0  0  0
   39.3004    7.7472    7.8102 O   0  0  0  0  0  0  0  0  0  0  0  0
   39.3464   11.9399    3.4047 C   0  0  0  0  0  0  0  0  0  0  0  0
   38.6446   12.9401    4.0390 O   0  0  0  0  0  0  0  0  0  0  0  0
   41.3306    6.3955    7.3347 C   0  0  1  0  0  0  0  0  0  0  0  0
   41.3010    5.7539    8.5763 O   0  0  0  0  0  0  0  0  0  0  0  0
  1  2  1  6  0  0  0
  1  5  1  0  0  0  0
  1 30  1  0  0  0  0
  3  4  1  1  0  0  0
  3  7  1  0  0  0  0
  3 35  1  0  0  0  0
  5  6  1  6  0  0  0
  5 16  1  0  0  0  0
  7 19  1  0  0  0  0
  8  4  1  0  0  0  0
  8 25  2  0  0  0  0
  9  8  1  6  0  0  0
  9 10  1  0  0  0  0
  9 13  1  0  0  0  0
 10 11  1  0  0  0  0
 11 12  1  0  0  0  0
 14 15  1  0  0  0  0
 14 36  1  0  0  0  0
 15 17  1  0  0  0  0
 16 18  1  1  0  0  0
 16 26  1  0  0  0  0
 17 23  1  0  0  0  0
 19 20  1  6  0  0  0
 19 28  1  0  0  0  0
 21 22  1  0  0  0  0
 21 23  1  0  0  0  0
 22 24  1  0  0  0  0
 26 27  1  6  0  0  0
 26 29  1  0  0  0  0
 28  2  1  6  0  0  0
 28 31  1  0  0  0  0
 29 30  1  0  0  0  0
 29 33  1  1  0  0  0
 31 32  1  1  0  0  0
 31 35  1  0  0  0  0
 33 34  1  0  0  0  0
 35 36  1  1  0  0  0
M  END
>  <CHROM.1>
-166.89259863,-59.89926550,172.78191492,-179.58912310,69.91094357,57.01575096
-172.66109876,-97.74204846,-89.24054025,71.17345660,-61.74963562,-164.15830095
64.83227751,61.69257174,40.37196493,6.53124699,6.27347458,2.26148096,0.30009743
-0.81250742

>  <Name>
2f4u_lig

>  <RI>
0

>  <Rbt.Current_Directory>
/home/itssahil/PROJECTS/Mol_Feturizer/New_Systems/rnas/2f4u

>  <Rbt.Executable>
rbdock ($Id: //depot/dev/client3/rdock/2013.1/src/exe/rbdock.cxx#4 $)

>  <Rbt.Library>
libRbt.so (2013.1, Build901 2013/11/27)

>  <Rbt.Parameter_File>
/export/apps/rDock/src/rDock_2013.1_src/data/scripts/dock_solv.prm

>  <Rbt.Receptor>
prm/pocket_docking_2.prm

>  <SCORE>
-17.1857

>  <SCORE.INTER>
-7.87595

>  <SCORE.INTER.CONST>
1

>  <SCORE.INTER.POLAR>
-0.998202

>  <SCORE.INTER.ROT>
14

>  <SCORE.INTER.SOLV>
19.9807

>  <SCORE.INTER.VDW>
-21.5169

>  <SCORE.INTER.norm>
-0.218777

>  <SCORE.INTRA>
-9.58642

>  <SCORE.INTRA.DIHEDRAL>
-20.9002

>  <SCORE.INTRA.DIHEDRAL.0>
26.3805

>  <SCORE.INTRA.POLAR>
0

>  <SCORE.INTRA.POLAR.0>
0

>  <SCORE.INTRA.REPUL>
0

>  <SCORE.INTRA.REPUL.0>
0

>  <SCORE.INTRA.SOLV>
4.23833

>  <SCORE.INTRA.SOLV.lig_0>
-98.5587

>  <SCORE.INTRA.VDW>
-1.25546

>  <SCORE.INTRA.VDW.0>
-2.91167

>  <SCORE.INTRA.norm>
-0.266289

>  <SCORE.RESTR>
0.27667

>  <SCORE.RESTR.CAVITY>
0.27667

>  <SCORE.RESTR.norm>
0.00768529

>  <SCORE.SYSTEM>
0

>  <SCORE.SYSTEM.CONST>
0

>  <SCORE.SYSTEM.DIHEDRAL>
0

>  <SCORE.SYSTEM.SOLV>
0

>  <SCORE.SYSTEM.norm>
0

>  <SCORE.heavy>
36

>  <SCORE.norm>
-0.477381

>  <RMSD>
1.249

$$$$
2f4u_lig
 OpenBabel11021811433D
libRbt.so/2013.1/901 2013/11/27
 36 37  0  0  0  0  0  0  0  0999 V2000
   37.6232    9.0429    5.8723 C   0  0  2  0  0  0  0  0  0  0  0  0
   38.1801    7.7470    5.4383 O   0  0  0  0  0  0  0  0  0  0  0  0
   41.1795    5.0150    6.9988 C   0  0  2  0  0  0  0  0  0  0  0  0
   42.4893    4.5206    7.5036 N   0  0  0  0  0  0  0  0  0  0  0  0
   36.1442    9.0833    5.3773 C   0  0  2  0  0  0  0  0  0  0  0  0
   35.3362    7.9706    5.9097 N   0  0  0  0  0  0  0  0  0  0  0  0
   41.2980    5.5947    5.5452 C   0  0  0  0  0  0  0  0  0  0  0  0
   43.2404    3.3886    6.3453 C   0  0  0  0  0  0  0  0  0  0  0  0
   44.2632    3.1914    7.4199 C   0  0  1  0  0  0  0  0  0  0  0  0
   45.1921    2.0624    6.9598 C   0  0  0  0  0  0  0  0  0  0  0  0
   46.1086    1.4639    8.0429 C   0  0  0  0  0  0  0  0  0  0  0  0
   47.0232    2.5084    8.5084 N   0  0  0  0  0  0  0  0  0  0  0  0
   45.0414    4.3476    7.5685 O   0  0  0  0  0  0  0  0  0  0  0  0
   40.1504    4.7327   10.3233 C   0  0  0  0  0  0  0  0  0  0  0  0
   40.0493    3.2937    9.8400 C   0  0  0  0  0  0  0  0  0  0  0  0
   36.1345    9.0532    3.8128 C   0  0  1  0  0  0  0  0  0  0  0  0
   39.6028    2.3387   10.8742 N   0  0  0  0  0  0  0  0  0  0  0  0
   34.8015    9.0775    3.3089 O   0  0  0  0  0  0  0  0  0  0  0  0
   39.9479    6.1543    5.0528 C   0  0  2  0  0  0  0  0  0  0  0  0
   40.0689    6.7335    3.7208 N   0  0  0  0  0  0  0  0  0  0  0  0
   37.1318    2.0763   10.7150 C   0  0  0  0  0  0  0  0  0  0  0  0
   36.8898    2.9500    9.4476 C   0  0  0  0  0  0  0  0  0  0  0  0
   38.3180    2.5712   11.5832 C   0  0  0  0  0  0  0  0  0  0  0  0
   36.5328    4.3568    9.8008 N   0  0  0  0  0  0  0  0  0  0  0  0
   43.0010    3.0037    5.3676 O   0  0  0  0  0  0  0  0  0  0  0  0
   36.9509   10.2578    3.3034 C   0  0  2  0  0  0  0  0  0  0  0  0
   37.0099   10.3145    1.8804 O   0  0  0  0  0  0  0  0  0  0  0  0
   39.4469    7.2304    5.9953 C   0  0  2  0  0  0  0  0  0  0  0  0
   38.3828   10.2281    3.8676 C   0  0  2  0  0  0  0  0  0  0  0  0
   38.3686   10.1533    5.2974 O   0  0  0  0  0  0  0  0  0  0  0  0
   39.2819    6.6339    7.4519 C   0  0  2  0  0  0  0  0  0  0  0  0
   38.8158    7.6963    8.3419 O   0  0  0  0  0  0  0  0  0  0  0  0
   39.1747   11.4385    3.4505 C   0  0  0  0  0  0  0  0  0  0  0  0
   38.7302   12.5582    4.1168 O   0  0  0  0  0  0  0  0  0  0  0  0
   40.6693    6.0918    7.9360 C   0  0  1  0  0  0  0  0  0  0  0  0
   40.6007    5.5517    9.2236 O   0  0  0  0  0  0  0  0  0  0  0  0
  1  2  1  6  0  0  0
  1  5  1  0  0  0  0
  1 30  1  0  0  0  0
  3  4  1  1  0  0  0
  3  7  1  0  0  0  0
  3 35  1  0  0  0  0
  5  6  1  1  0  0  0
  5 16  1  0  0  0  0
  7 19  1  0  0  0  0
  8  4  1  0  0  0  0
  8 25  2  0  0  0  0
  9  8  1  6  0  0  0
  9 10  1  0  0  0  0
  9 13  1  0  0  0  0
 10 11  1  0  0  0  0
 11 12  1  0  0  0  0
 14 15  1  0  0  0  0
 14 36  1  0  0  0  0
 15 17  1  0  0  0  0
 16 18  1  6  0  0  0
 16 26  1  0  0  0  0
 17 23  1  0  0  0  0
 19 20  1  6  0  0  0
 19 28  1  0  0  0  0
 21 22  1  0  0  0  0
 21 23  1  0  0  0  0
 22 24  1  0  0  0  0
 26 27  1  6  0  0  0
 26 29  1  0  0  0  0
 28  2  1  6  0  0  0
 28 31  1  0  0  0  0
 29 30  1  0  0  0  0
 29 33  1  1  0  0  0
 31 32  1  1  0  0  0
 31 35  1  0  0  0  0
 33 34  1  0  0  0  0
 35 36  1  1  0  0  0
M  END
>  <CHROM.1>
-165.54931556,-52.10171522,173.48236699,-165.97115384,-63.48142625,179.68944951
48.83471124,55.91120060,81.21254714,-62.21216702,-69.49343729,-162.18517957
71.98215330,-69.16018812,39.79800121,6.16473293,6.71195631,2.20454702,0.30535758
-0.78621609

>  <Name>
2f4u_lig

>  <RI>
0

>  <Rbt.Current_Directory>
/home/itssahil/PROJECTS/Mol_Feturizer/New_Systems/rnas/2f4u

>  <Rbt.Executable>
rbdock ($Id: //depot/dev/client3/rdock/2013.1/src/exe/rbdock.cxx#4 $)

>  <Rbt.Library>
libRbt.so (2013.1, Build901 2013/11/27)

>  <Rbt.Parameter_File>
/export/apps/rDock/src/rDock_2013.1_src/data/scripts/dock_solv.prm

>  <Rbt.Receptor>
prm/pocket_docking_2.prm

>  <SCORE>
-21.8727

>  <SCORE.INTER>
-14.3609

>  <SCORE.INTER.CONST>
1

>  <SCORE.INTER.POLAR>
-1.76805

>  <SCORE.INTER.ROT>
14

>  <SCORE.INTER.SOLV>
17.4065

>  <SCORE.INTER.VDW>
-22.4159

>  <SCORE.INTER.norm>
-0.398913

>  <SCORE.INTRA>
-7.95036

>  <SCORE.INTRA.DIHEDRAL>
-20.1359

>  <SCORE.INTRA.DIHEDRAL.0>
26.3805

>  <SCORE.INTRA.POLAR>
0

>  <SCORE.INTRA.POLAR.0>
0

>  <SCORE.INTRA.REPUL>
0

>  <SCORE.INTRA.REPUL.0>
0

>  <SCORE.INTRA.SOLV>
4.5477

>  <SCORE.INTRA.SOLV.lig_0>
-98.5587

>  <SCORE.INTRA.VDW>
-0.156255

>  <SCORE.INTRA.VDW.0>
-2.91167

>  <SCORE.INTRA.norm>
-0.220843

>  <SCORE.RESTR>
0.43849

>  <SCORE.RESTR.CAVITY>
0.43849

>  <SCORE.RESTR.norm>
0.0121803

>  <SCORE.SYSTEM>
0

>  <SCORE.SYSTEM.CONST>
0

>  <SCORE.SYSTEM.DIHEDRAL>
0

>  <SCORE.SYSTEM.SOLV>
0

>  <SCORE.SYSTEM.norm>
0

>  <SCORE.heavy>
36

>  <SCORE.norm>
-0.607576

>  <RMSD>
1.259

$$$$
2f4u_lig
 OpenBabel11021811433D
libRbt.so/2013.1/901 2013/11/27
 36 37  0  0  0  0  0  0  0  0999 V2000
   37.4887    8.8037    6.1148 C   0  0  2  0  0  0  0  0  0  0  0  0
   38.0512    7.4995    5.7141 O   0  0  0  0  0  0  0  0  0  0  0  0
   41.1949    4.9214    7.2521 C   0  0  2  0  0  0  0  0  0  0  0  0
   42.5433    4.4809    7.7022 N   0  0  0  0  0  0  0  0  0  0  0  0
   35.9950    8.8049    5.6644 C   0  0  2  0  0  0  0  0  0  0  0  0
   35.2198    7.7031    6.2638 N   0  0  0  0  0  0  0  0  0  0  0  0
   41.2096    5.4049    5.7590 C   0  0  0  0  0  0  0  0  0  0  0  0
   43.1748    3.1746    6.6619 C   0  0  0  0  0  0  0  0  0  0  0  0
   44.2930    3.1183    7.6549 C   0  0  1  0  0  0  0  0  0  0  0  0
   45.2040    1.9553    7.2461 C   0  0  0  0  0  0  0  0  0  0  0  0
   46.3764    1.6545    8.1981 C   0  0  0  0  0  0  0  0  0  0  0  0
   47.5062    2.5103    7.8306 N   0  0  0  0  0  0  0  0  0  0  0  0
   45.0538    4.2940    7.5976 O   0  0  0  0  0  0  0  0  0  0  0  0
   40.4641    4.7753   10.6220 C   0  0  0  0  0  0  0  0  0  0  0  0
   38.9874    4.9177   10.9593 C   0  0  0  0  0  0  0  0  0  0  0  0
   35.9384    8.7139    4.1033 C   0  0  1  0  0  0  0  0  0  0  0  0
   38.0841    4.2090   10.0303 N   0  0  0  0  0  0  0  0  0  0  0  0
   34.5906    8.7006    3.6401 O   0  0  0  0  0  0  0  0  0  0  0  0
   39.8205    5.9108    5.3197 C   0  0  2  0  0  0  0  0  0  0  0  0
   39.8453    6.4018    3.9477 N   0  0  0  0  0  0  0  0  0  0  0  0
   35.7434    3.4159   10.3339 C   0  0  0  0  0  0  0  0  0  0  0  0
   35.2712    4.6575   11.1485 C   0  0  0  0  0  0  0  0  0  0  0  0
   37.2466    3.0887   10.5315 C   0  0  0  0  0  0  0  0  0  0  0  0
   35.4608    4.4647   12.6176 N   0  0  0  0  0  0  0  0  0  0  0  0
   42.8419    2.6539    5.7790 O   0  0  0  0  0  0  0  0  0  0  0  0
   36.7214    9.9086    3.5230 C   0  0  2  0  0  0  0  0  0  0  0  0
   36.7364    9.9106    2.0977 O   0  0  0  0  0  0  0  0  0  0  0  0
   39.3604    7.0396    6.2204 C   0  0  2  0  0  0  0  0  0  0  0  0
   38.1700    9.9200    4.0435 C   0  0  2  0  0  0  0  0  0  0  0  0
   38.2001    9.9009    5.4749 O   0  0  0  0  0  0  0  0  0  0  0  0
   39.2998    6.5389    7.7204 C   0  0  2  0  0  0  0  0  0  0  0  0
   38.8715    7.6512    8.5674 O   0  0  0  0  0  0  0  0  0  0  0  0
   38.9310   11.1238    3.5559 C   0  0  0  0  0  0  0  0  0  0  0  0
   38.3204   12.2833    3.9777 O   0  0  0  0  0  0  0  0  0  0  0  0
   40.7252    6.0506    8.1480 C   0  0  1  0  0  0  0  0  0  0  0  0
   40.7491    5.5963    9.4699 O   0  0  0  0  0  0  0  0  0  0  0  0
  1  2  1  6  0  0  0
  1  5  1  0  0  0  0
  1 30  1  0  0  0  0
  3  4  1  1  0  0  0
  3  7  1  0  0  0  0
  3 35  1  0  0  0  0
  5  6  1  1  0  0  0
  5 16  1  0  0  0  0
  7 19  1  0  0  0  0
  8  4  1  0  0  0  0
  8 25  2  0  0  0  0
  9  8  1  6  0  0  0
  9 10  1  0  0  0  0
  9 13  1  0  0  0  0
 10 11  1  0  0  0  0
 11 12  1  0  0  0  0
 14 15  1  0  0  0  0
 14 36  1  0  0  0  0
 15 17  1  0  0  0  0
 16 18  1  6  0  0  0
 16 26  1  0  0  0  0
 17 23  1  0  0  0  0
 19 20  1  6  0  0  0
 19 28  1  0  0  0  0
 21 22  1  0  0  0  0
 21 23  1  0  0  0  0
 22 24  1  0  0  0  0
 26 27  1  6  0  0  0
 26 29  1  0  0  0  0
 28  2  1  6  0  0  0
 28 31  1  0  0  0  0
 29 30  1  0  0  0  0
 29 33  1  1  0  0  0
 31 32  1  1  0  0  0
 31 35  1  0  0  0  0
 33 34  1  0  0  0  0
 35 36  1  1  0  0  0
M  END
>  <CHROM.1>
-167.37742972,-57.46639934,176.10754117,-175.88569603,-86.19544744,74.08387557
-66.51711589,116.10244376,119.46596477,-60.25963282,-63.13809841,-163.18272708
59.76345072,-56.83889827,39.53471359,6.20993270,6.96794759,-2.39487241,-0.36382109
2.24896805

>  <Name>
2f4u_lig

>  <RI>
0

>  <Rbt.Current_Directory>
/home/itssahil/PROJECTS/Mol_Feturizer/New_Systems/rnas/2f4u

>  <Rbt.Executable>
rbdock ($Id: //depot/dev/client3/rdock/2013.1/src/exe/rbdock.cxx#4 $)

>  <Rbt.Library>
libRbt.so (2013.1, Build901 2013/11/27)

>  <Rbt.Parameter_File>
/export/apps/rDock/src/rDock_2013.1_src/data/scripts/dock_solv.prm

>  <Rbt.Receptor>
prm/pocket_docking_2.prm

>  <SCORE>
-18.5613

>  <SCORE.INTER>
-10.7074

>  <SCORE.INTER.CONST>
1

>  <SCORE.INTER.POLAR>
-1.62606

>  <SCORE.INTER.ROT>
14

>  <SCORE.INTER.SOLV>
12.8895

>  <SCORE.INTER.VDW>
-18.9479

>  <SCORE.INTER.norm>
-0.297428

>  <SCORE.INTRA>
-7.88858

>  <SCORE.INTRA.DIHEDRAL>
-17.8122

>  <SCORE.INTRA.DIHEDRAL.0>
26.3805

>  <SCORE.INTRA.POLAR>
0

>  <SCORE.INTRA.POLAR.0>
0

>  <SCORE.INTRA.REPUL>
0

>  <SCORE.INTRA.REPUL.0>
0

>  <SCORE.INTRA.SOLV>
4.21729

>  <SCORE.INTRA.SOLV.lig_0>
-98.5587

>  <SCORE.INTRA.VDW>
-1.09115

>  <SCORE.INTRA.VDW.0>
-2.91167

>  <SCORE.INTRA.norm>
-0.219127

>  <SCORE.RESTR>
0.0346895

>  <SCORE.RESTR.CAVITY>
0.0346895

>  <SCORE.RESTR.norm>
0.000963597

>  <SCORE.SYSTEM>
0

>  <SCORE.SYSTEM.CONST>
0

>  <SCORE.SYSTEM.DIHEDRAL>
0

>  <SCORE.SYSTEM.SOLV>
0

>  <SCORE.SYSTEM.norm>
0

>  <SCORE.heavy>
36

>  <SCORE.norm>
-0.515591

>  <RMSD>
1.260

$$$$
2f4u_lig
 OpenBabel11021811433D
libRbt.so/2013.1/901 2013/11/27
 36 37  0  0  0  0  0  0  0  0999 V2000
   37.2433    8.8579    5.9075 C   0  0  2  0  0  0  0  0  0  0  0  0
   37.8428    7.5750    5.4918 O   0  0  0  0  0  0  0  0  0  0  0  0
   40.9499    5.0724    7.2175 C   0  0  2  0  0  0  0  0  0  0  0  0
   42.2949    4.6417    7.6867 N   0  0  0  0  0  0  0  0  0  0  0  0
   35.7739    8.8567    5.3829 C   0  0  2  0  0  0  0  0  0  0  0  0
   34.9850    7.7257    5.9052 N   0  0  0  0  0  0  0  0  0  0  0  0
   40.9503    5.4139    5.6857 C   0  0  0  0  0  0  0  0  0  0  0  0
   42.9842    3.3955    6.6099 C   0  0  0  0  0  0  0  0  0  0  0  0
   44.0755    3.3199    7.6312 C   0  0  1  0  0  0  0  0  0  0  0  0
   44.9869    2.1530    7.2349 C   0  0  0  0  0  0  0  0  0  0  0  0
   46.1854    1.8915    8.1658 C   0  0  0  0  0  0  0  0  0  0  0  0
   46.9031    0.7110    7.6807 N   0  0  0  0  0  0  0  0  0  0  0  0
   44.8474    4.4894    7.6052 O   0  0  0  0  0  0  0  0  0  0  0  0
   40.4396    6.1123   10.7991 C   0  0  0  0  0  0  0  0  0  0  0  0
   38.9625    6.0858   11.1629 C   0  0  0  0  0  0  0  0  0  0  0  0
   35.7965    8.8186    3.8187 C   0  0  1  0  0  0  0  0  0  0  0  0
   38.3142    4.7740   10.9630 N   0  0  0  0  0  0  0  0  0  0  0  0
   34.4737    8.8051    3.2882 O   0  0  0  0  0  0  0  0  0  0  0  0
   39.5664    5.9118    5.2217 C   0  0  2  0  0  0  0  0  0  0  0  0
   39.5793    6.2718    3.8095 N   0  0  0  0  0  0  0  0  0  0  0  0
   35.8738    4.2801   10.9452 C   0  0  0  0  0  0  0  0  0  0  0  0
   35.3530    5.6584   10.4382 C   0  0  0  0  0  0  0  0  0  0  0  0
   37.1561    4.3901   11.8109 C   0  0  0  0  0  0  0  0  0  0  0  0
   34.1045    5.5190    9.6300 N   0  0  0  0  0  0  0  0  0  0  0  0
   42.6875    2.9066    5.6965 O   0  0  0  0  0  0  0  0  0  0  0  0
   36.5910   10.0418    3.3190 C   0  0  2  0  0  0  0  0  0  0  0  0
   36.6770   10.0929    1.8972 O   0  0  0  0  0  0  0  0  0  0  0  0
   39.1491    7.1312    6.0194 C   0  0  2  0  0  0  0  0  0  0  0  0
   38.0116   10.0527    3.9118 C   0  0  2  0  0  0  0  0  0  0  0  0
   37.9706    9.9848    5.3414 O   0  0  0  0  0  0  0  0  0  0  0  0
   39.1025    6.7744    7.5605 C   0  0  2  0  0  0  0  0  0  0  0  0
   38.7157    7.9715    8.3058 O   0  0  0  0  0  0  0  0  0  0  0  0
   38.7795   11.2815    3.5038 C   0  0  0  0  0  0  0  0  0  0  0  0
   40.1047   11.1607    3.8563 O   0  0  0  0  0  0  0  0  0  0  0  0
   40.5230    6.2919    8.0106 C   0  0  1  0  0  0  0  0  0  0  0  0
   40.5588    5.9626    9.3687 O   0  0  0  0  0  0  0  0  0  0  0  0
  1  2  1  6  0  0  0
  1  5  1  0  0  0  0
  1 30  1  0  0  0  0
  3  4  1  1  0  0  0
  3  7  1  0  0  0  0
  3 35  1  0  0  0  0
  5  6  1  1  0  0  0
  5 16  1  0  0  0  0
  7 19  1  0  0  0  0
  8  4  1  0  0  0  0
  8 25  2  0  0  0  0
  9  8  1  6  0  0  0
  9 10  1  0  0  0  0
  9 13  1  0  0  0  0
 10 11  1  0  0  0  0
 11 12  1  0  0  0  0
 14 15  1  0  0  0  0
 14 36  1  0  0  0  0
 15 17  1  0  0  0  0
 16 18  1  6  0  0  0
 16 26  1  0  0  0  0
 17 23  1  0  0  0  0
 19 20  1  6  0  0  0
 19 28  1  0  0  0  0
 21 22  1  0  0  0  0
 21 23  1  0  0  0  0
 22 24  1  0  0  0  0
 26 27  1  6  0  0  0
 26 29  1  0  0  0  0
 28  2  1  6  0  0  0
 28 31  1  0  0  0  0
 29 30  1  0  0  0  0
 29 33  1  1  0  0  0
 31 32  1  1  0  0  0
 31 35  1  0  0  0  0
 33 34  1  0  0  0  0
 35 36  1  1  0  0  0
M  END
>  <CHROM.1>
-169.08570922,-48.80374972,173.50910125,-179.73925211,177.17530142,68.36970843
75.42674448,151.25423355,113.94872842,-178.94849416,-70.36948088,-170.68830799
-169.95372087,179.94281709,39.39924072,6.43448504,6.83920761,-2.46543150
-0.41724920,2.15191933

>  <Name>
2f4u_lig

>  <RI>
0

>  <Rbt.Current_Directory>
/home/itssahil/PROJECTS/Mol_Feturizer/New_Systems/rnas/2f4u

>  <Rbt.Executable>
rbdock ($Id: //depot/dev/client3/rdock/2013.1/src/exe/rbdock.cxx#4 $)

>  <Rbt.Library>
libRbt.so (2013.1, Build901 2013/11/27)

>  <Rbt.Parameter_File>
/export/apps/rDock/src/rDock_2013.1_src/data/scripts/dock_solv.prm

>  <Rbt.Receptor>
prm/pocket_docking_3.prm

>  <SCORE>
-24.1123

>  <SCORE.INTER>
-12.9139

>  <SCORE.INTER.CONST>
1

>  <SCORE.INTER.POLAR>
-1.82493

>  <SCORE.INTER.ROT>
14

>  <SCORE.INTER.SOLV>
12.0576

>  <SCORE.INTER.VDW>
-19.4787

>  <SCORE.INTER.norm>
-0.358718

>  <SCORE.INTRA>
-11.1985

>  <SCORE.INTRA.DIHEDRAL>
-20.5462

>  <SCORE.INTRA.DIHEDRAL.0>
26.3805

>  <SCORE.INTRA.POLAR>
0

>  <SCORE.INTRA.POLAR.0>
0

>  <SCORE.INTRA.REPUL>
0

>  <SCORE.INTRA.REPUL.0>
0

>  <SCORE.INTRA.SOLV>
-0.386157

>  <SCORE.INTRA.SOLV.lig_0>
-98.5587

>  <SCORE.INTRA.VDW>
-0.732299

>  <SCORE.INTRA.VDW.0>
-2.91167

>  <SCORE.INTRA.norm>
-0.311069

>  <SCORE.RESTR>
0

>  <SCORE.RESTR.CAVITY>
0

>  <SCORE.RESTR.norm>
0

>  <SCORE.SYSTEM>
0

>  <SCORE.SYSTEM.CONST>
0

>  <SCORE.SYSTEM.DIHEDRAL>
0

>  <SCORE.SYSTEM.SOLV>
0

>  <SCORE.SYSTEM.norm>
0

>  <SCORE.heavy>
36

>  <SCORE.norm>
-0.669787

>  <RMSD>
1.282

$$$$
2f4u_lig
 OpenBabel11021811433D
libRbt.so/2013.1/901 2013/11/27
 36 37  0  0  0  0  0  0  0  0999 V2000
   37.1401    9.0736    5.6447 C   0  0  2  0  0  0  0  0  0  0  0  0
   37.9365    7.9353    5.1468 O   0  0  0  0  0  0  0  0  0  0  0  0
   40.9413    5.2535    6.7821 C   0  0  2  0  0  0  0  0  0  0  0  0
   42.1680    4.7980    7.4909 N   0  0  0  0  0  0  0  0  0  0  0  0
   35.6783    8.8491    5.1480 C   0  0  2  0  0  0  0  0  0  0  0  0
   35.1071    7.5744    5.6205 N   0  0  0  0  0  0  0  0  0  0  0  0
   41.2826    6.2101    5.5856 C   0  0  0  0  0  0  0  0  0  0  0  0
   43.0016    3.5124    6.5745 C   0  0  0  0  0  0  0  0  0  0  0  0
   43.8908    3.4299    7.7755 C   0  0  1  0  0  0  0  0  0  0  0  0
   44.5558    2.0490    7.7530 C   0  0  0  0  0  0  0  0  0  0  0  0
   45.9978    2.0073    7.2145 C   0  0  0  0  0  0  0  0  0  0  0  0
   46.0023    2.5454    5.8527 N   0  0  0  0  0  0  0  0  0  0  0  0
   44.9069    4.3918    7.6950 O   0  0  0  0  0  0  0  0  0  0  0  0
   39.1016    4.5189    9.9626 C   0  0  0  0  0  0  0  0  0  0  0  0
   37.8755    3.7773    9.4514 C   0  0  0  0  0  0  0  0  0  0  0  0
   35.6636    8.8969    3.5840 C   0  0  1  0  0  0  0  0  0  0  0  0
   36.8405    3.5407   10.4780 N   0  0  0  0  0  0  0  0  0  0  0  0
   34.3480    8.6855    3.0780 O   0  0  0  0  0  0  0  0  0  0  0  0
   40.0026    6.7201    4.8927 C   0  0  2  0  0  0  0  0  0  0  0  0
   40.3185    7.6439    3.8106 N   0  0  0  0  0  0  0  0  0  0  0  0
   35.7499    4.3297   12.5727 C   0  0  0  0  0  0  0  0  0  0  0  0
   35.0646    5.5861   11.9563 C   0  0  0  0  0  0  0  0  0  0  0  0
   37.0884    3.9605   11.8815 C   0  0  0  0  0  0  0  0  0  0  0  0
   34.5095    5.3074   10.5978 N   0  0  0  0  0  0  0  0  0  0  0  0
   42.8585    3.0125    5.6305 O   0  0  0  0  0  0  0  0  0  0  0  0
   36.2253   10.2621    3.1391 C   0  0  2  0  0  0  0  0  0  0  0  0
   36.2620   10.4011    1.7210 O   0  0  0  0  0  0  0  0  0  0  0  0
   39.1141    7.4395    5.8879 C   0  0  2  0  0  0  0  0  0  0  0  0
   37.6394   10.4843    3.7053 C   0  0  2  0  0  0  0  0  0  0  0  0
   37.6501   10.3360    5.1294 O   0  0  0  0  0  0  0  0  0  0  0  0
   38.7307    6.4607    7.0708 C   0  0  2  0  0  0  0  0  0  0  0  0
   37.8902    7.1852    8.0230 O   0  0  0  0  0  0  0  0  0  0  0  0
   38.1764   11.8458    3.3528 C   0  0  0  0  0  0  0  0  0  0  0  0
   39.0261   12.2983    4.3369 O   0  0  0  0  0  0  0  0  0  0  0  0
   40.0451    5.9740    7.7700 C   0  0  1  0  0  0  0  0  0  0  0  0
   39.7825    5.1055    8.8335 O   0  0  0  0  0  0  0  0  0  0  0  0
  1  2  1  6  0  0  0
  1  5  1  0  0  0  0
  1 30  1  0  0  0  0
  3  4  1  1  0  0  0
  3  7  1  0  0  0  0
  3 35  1  0  0  0  0
  5  6  1  6  0  0  0
  5 16  1  0  0  0  0
  7 19  1  0  0  0  0
  8  4  1  0  0  0  0
  8 25  2  0  0  0  0
  9  8  1  6  0  0  0
  9 10  1  0  0  0  0
  9 13  1  0  0  0  0
 10 11  1  0  0  0  0
 11 12  1  0  0  0  0
 14 15  1  0  0  0  0
 14 36  1  0  0  0  0
 15 17  1  0  0  0  0
 16 18  1  1  0  0  0
 16 26  1  0  0  0  0
 17 23  1  0  0  0  0
 19 20  1  6  0  0  0
 19 28  1  0  0  0  0
 21 22  1  0  0  0  0
 21 23  1  0  0  0  0
 22 24  1  0  0  0  0
 26 27  1  6  0  0  0
 26 29  1  0  0  0  0
 28  2  1  6  0  0  0
 28 31  1  0  0  0  0
 29 30  1  0  0  0  0
 29 33  1  1  0  0  0
 31 32  1  1  0  0  0
 31 35  1  0  0  0  0
 33 34  1  0  0  0  0
 35 36  1  1  0  0  0
M  END
>  <CHROM.1>
-150.06822635,-77.49226111,158.83093659,99.94105264,-57.79856930,-159.41511826
73.11690756,-2.99612302,149.92789852,71.07891250,-65.67295822,-156.75828334
149.23235398,-155.67301320,39.11645880,6.46016454,6.68183802,-2.34244634
-0.39598520,2.24990807

>  <Name>
2f4u_lig

>  <RI>
0

>  <Rbt.Current_Directory>
/home/itssahil/PROJECTS/Mol_Feturizer/New_Systems/rnas/2f4u

>  <Rbt.Executable>
rbdock ($Id: //depot/dev/client3/rdock/2013.1/src/exe/rbdock.cxx#4 $)

>  <Rbt.Library>
libRbt.so (2013.1, Build901 2013/11/27)

>  <Rbt.Parameter_File>
/export/apps/rDock/src/rDock_2013.1_src/data/scripts/dock_solv.prm

>  <Rbt.Receptor>
prm/pocket_docking_2.prm

>  <SCORE>
-10.0744

>  <SCORE.INTER>
-13.0842

>  <SCORE.INTER.CONST>
1

>  <SCORE.INTER.POLAR>
-2.22395

>  <SCORE.INTER.ROT>
14

>  <SCORE.INTER.SOLV>
12.8883

>  <SCORE.INTER.VDW>
-18.5391

>  <SCORE.INTER.norm>
-0.36345

>  <SCORE.INTRA>
2.81535

>  <SCORE.INTRA.DIHEDRAL>
-5.29283

>  <SCORE.INTRA.DIHEDRAL.0>
26.3805

>  <SCORE.INTRA.POLAR>
0

>  <SCORE.INTRA.POLAR.0>
0

>  <SCORE.INTRA.REPUL>
0

>  <SCORE.INTRA.REPUL.0>
0

>  <SCORE.INTRA.SOLV>
6.50399

>  <SCORE.INTRA.SOLV.lig_0>
-98.5587

>  <SCORE.INTRA.VDW>
2.20977

>  <SCORE.INTRA.VDW.0>
-2.91167

>  <SCORE.INTRA.norm>
0.0782042

>  <SCORE.RESTR>
0.194466

>  <SCORE.RESTR.CAVITY>
0.194466

>  <SCORE.RESTR.norm>
0.00540185

>  <SCORE.SYSTEM>
0

>  <SCORE.SYSTEM.CONST>
0

>  <SCORE.SYSTEM.DIHEDRAL>
0

>  <SCORE.SYSTEM.SOLV>
0

>  <SCORE.SYSTEM.norm>
0

>  <SCORE.heavy>
36

>  <SCORE.norm>
-0.279844

>  <RMSD>
1.309

$$$$
2f4u_lig
 OpenBabel11021811433D
libRbt.so/2013.1/901 2013/11/27
 36 37  0  0  0  0  0  0  0  0999 V2000
   38.0115    8.5455    5.6430 C   0  0  2  0  0  0  0  0  0  0  0  0
   38.5644    7.3457    4.9853 O   0  0  0  0  0  0  0  0  0  0  0  0
   41.2331    4.1058    6.1150 C   0  0  2  0  0  0  0  0  0  0  0  0
   42.4324    3.4093    6.6548 N   0  0  0  0  0  0  0  0  0  0  0  0
   36.4683    8.5100    5.4158 C   0  0  2  0  0  0  0  0  0  0  0  0
   35.8421    7.2901    5.9580 N   0  0  0  0  0  0  0  0  0  0  0  0
   41.6063    5.0850    4.9467 C   0  0  0  0  0  0  0  0  0  0  0  0
   43.8382    4.5077    6.7247 C   0  0  0  0  0  0  0  0  0  0  0  0
   44.5967    3.2809    7.1239 C   0  0  1  0  0  0  0  0  0  0  0  0
   45.2464    2.7170    5.8554 C   0  0  0  0  0  0  0  0  0  0  0  0
   46.3372    1.6527    6.0763 C   0  0  0  0  0  0  0  0  0  0  0  0
   45.8291    0.6534    7.0182 N   0  0  0  0  0  0  0  0  0  0  0  0
   45.6252    3.6140    8.0158 O   0  0  0  0  0  0  0  0  0  0  0  0
   40.4756    3.1346    9.4179 C   0  0  0  0  0  0  0  0  0  0  0  0
   40.5054    4.0075   10.6637 C   0  0  0  0  0  0  0  0  0  0  0  0
   36.1811    8.6246    3.8819 C   0  0  1  0  0  0  0  0  0  0  0  0
   39.1963    4.5859   11.0279 N   0  0  0  0  0  0  0  0  0  0  0  0
   34.7808    8.5859    3.6193 O   0  0  0  0  0  0  0  0  0  0  0  0
   40.3654    5.8423    4.4317 C   0  0  2  0  0  0  0  0  0  0  0  0
   40.7197    6.7846    3.3778 N   0  0  0  0  0  0  0  0  0  0  0  0
   36.8175    3.8726   10.8476 C   0  0  0  0  0  0  0  0  0  0  0  0
   36.1773    5.2852   10.9988 C   0  0  0  0  0  0  0  0  0  0  0  0
   38.1500    3.7170   11.6260 C   0  0  0  0  0  0  0  0  0  0  0  0
   35.6007    5.4923   12.3611 N   0  0  0  0  0  0  0  0  0  0  0  0
   44.0248    5.5466    6.5074 O   0  0  0  0  0  0  0  0  0  0  0  0
   36.8139    9.9343    3.3705 C   0  0  2  0  0  0  0  0  0  0  0  0
   36.6137   10.1274    1.9725 O   0  0  0  0  0  0  0  0  0  0  0  0
   39.7121    6.6149    5.5603 C   0  0  2  0  0  0  0  0  0  0  0  0
   38.3225    9.9700    3.6745 C   0  0  2  0  0  0  0  0  0  0  0  0
   38.5689    9.7620    5.0696 O   0  0  0  0  0  0  0  0  0  0  0  0
   39.2925    5.6214    6.7185 C   0  0  2  0  0  0  0  0  0  0  0  0
   38.6827    6.3946    7.7994 O   0  0  0  0  0  0  0  0  0  0  0  0
   38.9471   11.2749    3.2583 C   0  0  0  0  0  0  0  0  0  0  0  0
   38.8599   12.1973    4.2765 O   0  0  0  0  0  0  0  0  0  0  0  0
   40.5716    4.8812    7.2372 C   0  0  1  0  0  0  0  0  0  0  0  0
   40.2768    3.9863    8.2700 O   0  0  0  0  0  0  0  0  0  0  0  0
  1  2  1  6  0  0  0
  1  5  1  0  0  0  0
  1 30  1  0  0  0  0
  3  4  1  1  0  0  0
  3  7  1  0  0  0  0
  3 35  1  0  0  0  0
  5  6  1  6  0  0  0
  5 16  1  0  0  0  0
  7 19  1  0  0  0  0
  8  4  1  0  0  0  0
  8 25  2  0  0  0  0
  9  8  1  6  0  0  0
  9 10  1  0  0  0  0
  9 13  1  0  0  0  0
 10 11  1  0  0  0  0
 11 12  1  0  0  0  0
 14 15  1  0  0  0  0
 14 36  1  0  0  0  0
 15 17  1  0  0  0  0
 16 18  1  1  0  0  0
 16 26  1  0  0  0  0
 17 23  1  0  0  0  0
 19 20  1  6  0  0  0
 19 28  1  0  0  0  0
 21 22  1  0  0  0  0
 21 23  1  0  0  0  0
 22 24  1  0  0  0  0
 26 27  1  6  0  0  0
 26 29  1  0  0  0  0
 28  2  1  6  0  0  0
 28 31  1  0  0  0  0
 29 30  1  0  0  0  0
 29 33  1  1  0  0  0
 31 32  1  1  0  0  0
 31 35  1  0  0  0  0
 33 34  1  0  0  0  0
 35 36  1  1  0  0  0
M  END
>  <CHROM.1>
-144.31448428,38.74673619,96.22532270,166.19726416,48.35051518,70.69725615
79.30432164,73.74085672,-128.39332273,-72.27693689,-66.93865784,-157.43797331
87.97571857,78.79786752,39.85627032,6.06551924,6.56115177,-2.38395456,-0.45415520
2.20234468

>  <Name>
2f4u_lig

>  <RI>
0

>  <Rbt.Current_Directory>
/home/itssahil/PROJECTS/Mol_Feturizer/New_Systems/rnas/2f4u

>  <Rbt.Executable>
rbdock ($Id: //depot/dev/client3/rdock/2013.1/src/exe/rbdock.cxx#4 $)

>  <Rbt.Library>
libRbt.so (2013.1, Build901 2013/11/27)

>  <Rbt.Parameter_File>
/export/apps/rDock/src/rDock_2013.1_src/data/scripts/dock_solv.prm

>  <Rbt.Receptor>
prm/pocket_docking_2.prm

>  <SCORE>
-11.4397

>  <SCORE.INTER>
-9.50076

>  <SCORE.INTER.CONST>
1

>  <SCORE.INTER.POLAR>
-2.04195

>  <SCORE.INTER.ROT>
14

>  <SCORE.INTER.SOLV>
10.7248

>  <SCORE.INTER.VDW>
-16.0356

>  <SCORE.INTER.norm>
-0.26391

>  <SCORE.INTRA>
-2.42477

>  <SCORE.INTRA.DIHEDRAL>
-7.89248

>  <SCORE.INTRA.DIHEDRAL.0>
26.3805

>  <SCORE.INTRA.POLAR>
0

>  <SCORE.INTRA.POLAR.0>
0

>  <SCORE.INTRA.REPUL>
0

>  <SCORE.INTRA.REPUL.0>
0

>  <SCORE.INTRA.SOLV>
4.38424

>  <SCORE.INTRA.SOLV.lig_0>
-98.5587

>  <SCORE.INTRA.VDW>
-0.670648

>  <SCORE.INTRA.VDW.0>
-2.91167

>  <SCORE.INTRA.norm>
-0.0673547

>  <SCORE.RESTR>
0.485812

>  <SCORE.RESTR.CAVITY>
0.485812

>  <SCORE.RESTR.norm>
0.0134948

>  <SCORE.SYSTEM>
0

>  <SCORE.SYSTEM.CONST>
0

>  <SCORE.SYSTEM.DIHEDRAL>
0

>  <SCORE.SYSTEM.SOLV>
0

>  <SCORE.SYSTEM.norm>
0

>  <SCORE.heavy>
36

>  <SCORE.norm>
-0.31777

>  <RMSD>
1.322

$$$$
2f4u_lig
 OpenBabel11021811433D
libRbt.so/2013.1/901 2013/11/27
 36 37  0  0  0  0  0  0  0  0999 V2000
   37.6229    9.3784    5.4247 C   0  0  2  0  0  0  0  0  0  0  0  0
   38.3455    8.1608    5.0088 O   0  0  0  0  0  0  0  0  0  0  0  0
   41.7921    5.8125    6.2343 C   0  0  2  0  0  0  0  0  0  0  0  0
   43.1216    5.4844    6.8169 N   0  0  0  0  0  0  0  0  0  0  0  0
   36.2199    9.3213    4.7446 C   0  0  2  0  0  0  0  0  0  0  0  0
   35.4565    8.1161    5.1173 N   0  0  0  0  0  0  0  0  0  0  0  0
   41.9081    6.8693    5.0798 C   0  0  0  0  0  0  0  0  0  0  0  0
   44.2622    4.9427    5.5547 C   0  0  0  0  0  0  0  0  0  0  0  0
   45.1769    4.6576    6.7044 C   0  0  1  0  0  0  0  0  0  0  0  0
   45.1372    3.1453    6.9508 C   0  0  0  0  0  0  0  0  0  0  0  0
   43.7375    2.5336    7.1455 C   0  0  0  0  0  0  0  0  0  0  0  0
   43.8916    1.1748    7.6687 N   0  0  0  0  0  0  0  0  0  0  0  0
   46.4952    4.9994    6.3731 O   0  0  0  0  0  0  0  0  0  0  0  0
   40.4969    4.7979    9.6195 C   0  0  0  0  0  0  0  0  0  0  0  0
   40.7594    3.3024    9.5235 C   0  0  0  0  0  0  0  0  0  0  0  0
   36.4088    9.3783    3.1922 C   0  0  1  0  0  0  0  0  0  0  0  0
   39.5424    2.4690    9.5976 N   0  0  0  0  0  0  0  0  0  0  0  0
   35.1527    9.3179    2.5215 O   0  0  0  0  0  0  0  0  0  0  0  0
   40.5204    7.2435    4.5205 C   0  0  2  0  0  0  0  0  0  0  0  0
   40.6251    8.2583    3.4797 N   0  0  0  0  0  0  0  0  0  0  0  0
   38.1668    2.8846   11.6311 C   0  0  0  0  0  0  0  0  0  0  0  0
   36.8541    3.1681   10.8407 C   0  0  0  0  0  0  0  0  0  0  0  0
   39.1198    1.9005   10.9037 C   0  0  0  0  0  0  0  0  0  0  0  0
   35.9417    4.0854   11.5873 N   0  0  0  0  0  0  0  0  0  0  0  0
   44.2391    4.8271    4.4835 O   0  0  0  0  0  0  0  0  0  0  0  0
   37.1694   10.6744    2.8475 C   0  0  2  0  0  0  0  0  0  0  0  0
   37.4004   10.8156    1.4481 O   0  0  0  0  0  0  0  0  0  0  0  0
   39.6343    7.7846    5.6247 C   0  0  2  0  0  0  0  0  0  0  0  0
   38.5162   10.7343    3.5905 C   0  0  2  0  0  0  0  0  0  0  0  0
   38.3301   10.5785    5.0016 O   0  0  0  0  0  0  0  0  0  0  0  0
   39.4783    6.7010    6.7675 C   0  0  2  0  0  0  0  0  0  0  0  0
   38.6353    7.2557    7.8256 O   0  0  0  0  0  0  0  0  0  0  0  0
   39.2404   12.0289    3.3342 C   0  0  0  0  0  0  0  0  0  0  0  0
   38.6415   13.0604    4.0217 O   0  0  0  0  0  0  0  0  0  0  0  0
   40.8976    6.3541    7.3319 C   0  0  1  0  0  0  0  0  0  0  0  0
   40.8370    5.4020    8.3537 O   0  0  0  0  0  0  0  0  0  0  0  0
  1  2  1  6  0  0  0
  1  5  1  0  0  0  0
  1 30  1  0  0  0  0
  3  4  1  1  0  0  0
  3  7  1  0  0  0  0
  3 35  1  0  0  0  0
  5  6  1  6  0  0  0
  5 16  1  0  0  0  0
  7 19  1  0  0  0  0
  8  4  1  0  0  0  0
  8 25  2  0  0  0  0
  9  8  1  6  0  0  0
  9 10  1  0  0  0  0
  9 13  1  0  0  0  0
 10 11  1  0  0  0  0
 11 12  1  0  0  0  0
 14 15  1  0  0  0  0
 14 36  1  0  0  0  0
 15 17  1  0  0  0  0
 16 18  1  6  0  0  0
 16 26  1  0  0  0  0
 17 23  1  0  0  0  0
 19 20  1  6  0  0  0
 19 28  1  0  0  0  0
 21 22  1  0  0  0  0
 21 23  1  0  0  0  0
 22 24  1  0  0  0  0
 26 27  1  6  0  0  0
 26 29  1  0  0  0  0
 28  2  1  6  0  0  0
 28 31  1  0  0  0  0
 29 30  1  0  0  0  0
 29 33  1  1  0  0  0
 31 32  1  1  0  0  0
 31 35  1  0  0  0  0
 33 34  1  0  0  0  0
 35 36  1  1  0  0  0
M  END
>  <CHROM.1>
-170.79021941,-55.01915191,101.96562852,-53.48759054,-167.08766409,-113.50569718
164.20669201,-95.00593079,90.11699573,178.25573159,61.47011282,-140.75245823
73.92878936,176.40689747,39.98252472,6.63506975,6.28386044,2.08119890,0.31138246
-0.78374595

>  <Name>
2f4u_lig

>  <RI>
0

>  <Rbt.Current_Directory>
/home/itssahil/PROJECTS/Mol_Feturizer/New_Systems/rnas/2f4u

>  <Rbt.Executable>
rbdock ($Id: //depot/dev/client3/rdock/2013.1/src/exe/rbdock.cxx#4 $)

>  <Rbt.Library>
libRbt.so (2013.1, Build901 2013/11/27)

>  <Rbt.Parameter_File>
/export/apps/rDock/src/rDock_2013.1_src/data/scripts/dock_solv.prm

>  <Rbt.Receptor>
prm/pocket_docking_2.prm

>  <SCORE>
-21.9893

>  <SCORE.INTER>
-17.9925

>  <SCORE.INTER.CONST>
1

>  <SCORE.INTER.POLAR>
-1.87422

>  <SCORE.INTER.ROT>
14

>  <SCORE.INTER.SOLV>
18.8541

>  <SCORE.INTER.VDW>
-24.9656

>  <SCORE.INTER.norm>
-0.499791

>  <SCORE.INTRA>
-5.14608

>  <SCORE.INTRA.DIHEDRAL>
-9.0468

>  <SCORE.INTRA.DIHEDRAL.0>
26.3805

>  <SCORE.INTRA.POLAR>
0

>  <SCORE.INTRA.POLAR.0>
0

>  <SCORE.INTRA.REPUL>
0

>  <SCORE.INTRA.REPUL.0>
0

>  <SCORE.INTRA.SOLV>
1.61101

>  <SCORE.INTRA.SOLV.lig_0>
-98.5587

>  <SCORE.INTRA.VDW>
-1.42818

>  <SCORE.INTRA.VDW.0>
-2.91167

>  <SCORE.INTRA.norm>
-0.142947

>  <SCORE.RESTR>
1.14929

>  <SCORE.RESTR.CAVITY>
1.14929

>  <SCORE.RESTR.norm>
0.0319246

>  <SCORE.SYSTEM>
0

>  <SCORE.SYSTEM.CONST>
0

>  <SCORE.SYSTEM.DIHEDRAL>
0

>  <SCORE.SYSTEM.SOLV>
0

>  <SCORE.SYSTEM.norm>
0

>  <SCORE.heavy>
36

>  <SCORE.norm>
-0.610813

>  <RMSD>
1.346

$$$$
2f4u_lig
 OpenBabel11021811433D
libRbt.so/2013.1/901 2013/11/27
 36 37  0  0  0  0  0  0  0  0999 V2000
   37.3553    9.0236    5.8416 C   0  0  2  0  0  0  0  0  0  0  0  0
   37.9594    7.7465    5.4150 O   0  0  0  0  0  0  0  0  0  0  0  0
   41.0170    5.1669    7.1155 C   0  0  2  0  0  0  0  0  0  0  0  0
   42.3450    4.7194    7.6166 N   0  0  0  0  0  0  0  0  0  0  0  0
   35.9128    9.0573    5.2481 C   0  0  2  0  0  0  0  0  0  0  0  0
   35.0871    7.9211    5.6968 N   0  0  0  0  0  0  0  0  0  0  0  0
   41.0819    5.6071    5.6104 C   0  0  0  0  0  0  0  0  0  0  0  0
   43.0415    3.4603    6.5598 C   0  0  0  0  0  0  0  0  0  0  0  0
   44.1081    3.3733    7.6061 C   0  0  1  0  0  0  0  0  0  0  0  0
   45.0498    2.2344    7.1995 C   0  0  0  0  0  0  0  0  0  0  0  0
   46.1540    1.8823    8.2135 C   0  0  0  0  0  0  0  0  0  0  0  0
   47.0202    0.8602    7.6228 N   0  0  0  0  0  0  0  0  0  0  0  0
   44.8594    4.5562    7.6338 O   0  0  0  0  0  0  0  0  0  0  0  0
   40.1607    5.1502   10.4720 C   0  0  0  0  0  0  0  0  0  0  0  0
   38.6795    5.3620   10.7478 C   0  0  0  0  0  0  0  0  0  0  0  0
   36.0097    9.0669    3.6863 C   0  0  1  0  0  0  0  0  0  0  0  0
   37.7899    4.8883    9.6683 N   0  0  0  0  0  0  0  0  0  0  0  0
   34.7137    9.0866    3.0935 O   0  0  0  0  0  0  0  0  0  0  0  0
   39.7140    6.1209    5.1170 C   0  0  2  0  0  0  0  0  0  0  0  0
   39.7858    6.5720    3.7329 N   0  0  0  0  0  0  0  0  0  0  0  0
   35.4392    4.8055   10.4852 C   0  0  0  0  0  0  0  0  0  0  0  0
   35.2887    3.2740   10.2395 C   0  0  0  0  0  0  0  0  0  0  0  0
   36.4387    5.4867    9.5142 C   0  0  0  0  0  0  0  0  0  0  0  0
   34.2548    2.6662   11.1300 N   0  0  0  0  0  0  0  0  0  0  0  0
   42.7592    2.9724    5.6413 O   0  0  0  0  0  0  0  0  0  0  0  0
   36.8410   10.2946    3.2634 C   0  0  2  0  0  0  0  0  0  0  0  0
   36.9954   10.3881    1.8495 O   0  0  0  0  0  0  0  0  0  0  0  0
   39.2462    7.2819    5.9718 C   0  0  2  0  0  0  0  0  0  0  0  0
   38.2317   10.2691    3.9229 C   0  0  2  0  0  0  0  0  0  0  0  0
   38.1216   10.1579    5.3462 O   0  0  0  0  0  0  0  0  0  0  0  0
   39.1350    6.8253    7.4829 C   0  0  2  0  0  0  0  0  0  0  0  0
   38.7003    7.9676    8.2855 O   0  0  0  0  0  0  0  0  0  0  0  0
   39.0320   11.4999    3.5904 C   0  0  0  0  0  0  0  0  0  0  0  0
   38.5144   12.6002    4.2357 O   0  0  0  0  0  0  0  0  0  0  0  0
   40.5398    6.3281    7.9652 C   0  0  1  0  0  0  0  0  0  0  0  0
   40.5188    5.9116    9.2995 O   0  0  0  0  0  0  0  0  0  0  0  0
  1  2  1  6  0  0  0
  1  5  1  0  0  0  0
  1 30  1  0  0  0  0
  3  4  1  1  0  0  0
  3  7  1  0  0  0  0
  3 35  1  0  0  0  0
  5  6  1  6  0  0  0
  5 16  1  0  0  0  0
  7 19  1  0  0  0  0
  8  4  1  0  0  0  0
  8 25  2  0  0  0  0
  9  8  1  6  0  0  0
  9 10  1  0  0  0  0
  9 13  1  0  0  0  0
 10 11  1  0  0  0  0
 11 12  1  0  0  0  0
 14 15  1  0  0  0  0
 14 36  1  0  0  0  0
 15 17  1  0  0  0  0
 16 18  1  6  0  0  0
 16 26  1  0  0  0  0
 17 23  1  0  0  0  0
 19 20  1  6  0  0  0
 19 28  1  0  0  0  0
 21 22  1  0  0  0  0
 21 23  1  0  0  0  0
 22 24  1  0  0  0  0
 26 27  1  6  0  0  0
 26 29  1  0  0  0  0
 28  2  1  6  0  0  0
 28 31  1  0  0  0  0
 29 30  1  0  0  0  0
 29 33  1  1  0  0  0
 31 32  1  1  0  0  0
 31 35  1  0  0  0  0
 33 34  1  0  0  0  0
 35 36  1  1  0  0  0
M  END
>  <CHROM.1>
-170.21154595,-53.14455843,176.09234282,-174.45601678,-175.39884921,62.16753118
-63.38913277,-155.25566246,-83.05163029,-176.26461164,-60.27272755,-167.95688554
71.04440035,-60.88596598,39.37670432,6.44597614,6.70962992,-2.35142194,-0.32997703
2.32664661

>  <Name>
2f4u_lig

>  <RI>
0

>  <Rbt.Current_Directory>
/home/itssahil/PROJECTS/Mol_Feturizer/New_Systems/rnas/2f4u

>  <Rbt.Executable>
rbdock ($Id: //depot/dev/client3/rdock/2013.1/src/exe/rbdock.cxx#4 $)

>  <Rbt.Library>
libRbt.so (2013.1, Build901 2013/11/27)

>  <Rbt.Parameter_File>
/export/apps/rDock/src/rDock_2013.1_src/data/scripts/dock_solv.prm

>  <Rbt.Receptor>
prm/pocket_docking_4.prm

>  <SCORE>
-23.4314

>  <SCORE.INTER>
-11.5134

>  <SCORE.INTER.CONST>
1

>  <SCORE.INTER.POLAR>
-1.8402

>  <SCORE.INTER.ROT>
14

>  <SCORE.INTER.SOLV>
14.1338

>  <SCORE.INTER.VDW>
-19.1862

>  <SCORE.INTER.norm>
-0.319817

>  <SCORE.INTRA>
-11.918

>  <SCORE.INTRA.DIHEDRAL>
-22.784

>  <SCORE.INTRA.DIHEDRAL.0>
26.3805

>  <SCORE.INTRA.POLAR>
0

>  <SCORE.INTRA.POLAR.0>
0

>  <SCORE.INTRA.REPUL>
0

>  <SCORE.INTRA.REPUL.0>
0

>  <SCORE.INTRA.SOLV>
1.05476

>  <SCORE.INTRA.SOLV.lig_0>
-98.5587

>  <SCORE.INTRA.VDW>
-1.05338

>  <SCORE.INTRA.VDW.0>
-2.91167

>  <SCORE.INTRA.norm>
-0.331056

>  <SCORE.RESTR>
0

>  <SCORE.RESTR.CAVITY>
0

>  <SCORE.RESTR.norm>
0

>  <SCORE.SYSTEM>
0

>  <SCORE.SYSTEM.CONST>
0

>  <SCORE.SYSTEM.DIHEDRAL>
0

>  <SCORE.SYSTEM.SOLV>
0

>  <SCORE.SYSTEM.norm>
0

>  <SCORE.heavy>
36

>  <SCORE.norm>
-0.650873

>  <RMSD>
1.361

$$$$
2f4u_lig
 OpenBabel11021811433D
libRbt.so/2013.1/901 2013/11/27
 36 37  0  0  0  0  0  0  0  0999 V2000
   37.6490    8.9855    5.8516 C   0  0  2  0  0  0  0  0  0  0  0  0
   38.3987    7.8581    5.2643 O   0  0  0  0  0  0  0  0  0  0  0  0
   41.9612    5.6294    6.3766 C   0  0  2  0  0  0  0  0  0  0  0  0
   43.3751    5.3538    6.7504 N   0  0  0  0  0  0  0  0  0  0  0  0
   36.1468    8.7576    5.4973 C   0  0  2  0  0  0  0  0  0  0  0  0
   35.6311    7.4739    6.0076 N   0  0  0  0  0  0  0  0  0  0  0  0
   41.8562    6.3321    4.9772 C   0  0  0  0  0  0  0  0  0  0  0  0
   44.1245    4.1903    5.6226 C   0  0  0  0  0  0  0  0  0  0  0  0
   45.2849    4.2406    6.5663 C   0  0  1  0  0  0  0  0  0  0  0  0
   45.1435    3.0507    7.5222 C   0  0  0  0  0  0  0  0  0  0  0  0
   44.9352    1.6772    6.8578 C   0  0  0  0  0  0  0  0  0  0  0  0
   43.8935    0.9573    7.5929 N   0  0  0  0  0  0  0  0  0  0  0  0
   46.4884    4.0819    5.8659 O   0  0  0  0  0  0  0  0  0  0  0  0
   41.1111    5.1253    9.8537 C   0  0  0  0  0  0  0  0  0  0  0  0
   40.4334    3.8353    9.4164 C   0  0  0  0  0  0  0  0  0  0  0  0
   35.9791    8.8237    3.9429 C   0  0  1  0  0  0  0  0  0  0  0  0
   40.2237    2.8626   10.5077 N   0  0  0  0  0  0  0  0  0  0  0  0
   34.6215    8.6099    3.5652 O   0  0  0  0  0  0  0  0  0  0  0  0
   40.3918    6.6630    4.6243 C   0  0  2  0  0  0  0  0  0  0  0  0
   40.2989    7.3562    3.3456 N   0  0  0  0  0  0  0  0  0  0  0  0
   38.0293    2.2196   11.4933 C   0  0  0  0  0  0  0  0  0  0  0  0
   37.3153    3.5838   11.2535 C   0  0  0  0  0  0  0  0  0  0  0  0
   39.1017    1.8924   10.4215 C   0  0  0  0  0  0  0  0  0  0  0  0
   36.3542    3.5163   10.1120 N   0  0  0  0  0  0  0  0  0  0  0  0
   43.8227    3.6688    4.7291 O   0  0  0  0  0  0  0  0  0  0  0  0
   36.4877   10.1975    3.4621 C   0  0  2  0  0  0  0  0  0  0  0  0
   36.3849   10.3533    2.0490 O   0  0  0  0  0  0  0  0  0  0  0  0
   39.7787    7.5486    5.6907 C   0  0  2  0  0  0  0  0  0  0  0  0
   37.9492   10.4220    3.8901 C   0  0  2  0  0  0  0  0  0  0  0  0
   38.0998   10.2571    5.3045 O   0  0  0  0  0  0  0  0  0  0  0  0
   39.8414    6.8204    7.0944 C   0  0  2  0  0  0  0  0  0  0  0  0
   39.2609    7.7033    8.1052 O   0  0  0  0  0  0  0  0  0  0  0  0
   38.4422   11.7908    3.5036 C   0  0  0  0  0  0  0  0  0  0  0  0
   38.5982   11.8791    2.1387 O   0  0  0  0  0  0  0  0  0  0  0  0
   41.3385    6.5144    7.4384 C   0  0  1  0  0  0  0  0  0  0  0  0
   41.4721    5.8728    8.6732 O   0  0  0  0  0  0  0  0  0  0  0  0
  1  2  1  6  0  0  0
  1  5  1  0  0  0  0
  1 30  1  0  0  0  0
  3  4  1  1  0  0  0
  3  7  1  0  0  0  0
  3 35  1  0  0  0  0
  5  6  1  6  0  0  0
  5 16  1  0  0  0  0
  7 19  1  0  0  0  0
  8  4  1  0  0  0  0
  8 25  2  0  0  0  0
  9  8  1  6  0  0  0
  9 10  1  0  0  0  0
  9 13  1  0  0  0  0
 10 11  1  0  0  0  0
 11 12  1  0  0  0  0
 14 15  1  0  0  0  0
 14 36  1  0  0  0  0
 15 17  1  0  0  0  0
 16 18  1  1  0  0  0
 16 26  1  0  0  0  0
 17 23  1  0  0  0  0
 19 20  1  6  0  0  0
 19 28  1  0  0  0  0
 21 22  1  0  0  0  0
 21 23  1  0  0  0  0
 22 24  1  0  0  0  0
 26 27  1  6  0  0  0
 26 29  1  0  0  0  0
 28  2  1  6  0  0  0
 28 31  1  0  0  0  0
 29 30  1  0  0  0  0
 29 33  1  1  0  0  0
 31 32  1  1  0  0  0
 31 35  1  0  0  0  0
 33 34  1  0  0  0  0
 35 36  1  1  0  0  0
M  END
>  <CHROM.1>
-163.64134666,-64.20113063,96.11506525,51.45331879,-136.77766657,169.75545847
52.51785691,152.63855225,-111.53947526,73.64288396,65.85632704,-162.35307677
-70.58326212,-104.17366515,39.99304607,6.31194089,6.40309965,2.23771318,0.34439266
-0.82660435

>  <Name>
2f4u_lig

>  <RI>
0

>  <Rbt.Current_Directory>
/home/itssahil/PROJECTS/Mol_Feturizer/New_Systems/rnas/2f4u

>  <Rbt.Executable>
rbdock ($Id: //depot/dev/client3/rdock/2013.1/src/exe/rbdock.cxx#4 $)

>  <Rbt.Library>
libRbt.so (2013.1, Build901 2013/11/27)

>  <Rbt.Parameter_File>
/export/apps/rDock/src/rDock_2013.1_src/data/scripts/dock_solv.prm

>  <Rbt.Receptor>
prm/pocket_docking_2.prm

>  <SCORE>
-18.4379

>  <SCORE.INTER>
-15.411

>  <SCORE.INTER.CONST>
1

>  <SCORE.INTER.POLAR>
-1.94075

>  <SCORE.INTER.ROT>
14

>  <SCORE.INTER.SOLV>
15.7784

>  <SCORE.INTER.VDW>
-21.9976

>  <SCORE.INTER.norm>
-0.428083

>  <SCORE.INTRA>
-3.71585

>  <SCORE.INTRA.DIHEDRAL>
-7.37905

>  <SCORE.INTRA.DIHEDRAL.0>
26.3805

>  <SCORE.INTRA.POLAR>
0

>  <SCORE.INTRA.POLAR.0>
0

>  <SCORE.INTRA.REPUL>
0

>  <SCORE.INTRA.REPUL.0>
0

>  <SCORE.INTRA.SOLV>
2.12643

>  <SCORE.INTRA.SOLV.lig_0>
-98.5587

>  <SCORE.INTRA.VDW>
-1.08954

>  <SCORE.INTRA.VDW.0>
-2.91167

>  <SCORE.INTRA.norm>
-0.103218

>  <SCORE.RESTR>
0.688913

>  <SCORE.RESTR.CAVITY>
0.688913

>  <SCORE.RESTR.norm>
0.0191365

>  <SCORE.SYSTEM>
0

>  <SCORE.SYSTEM.CONST>
0

>  <SCORE.SYSTEM.DIHEDRAL>
0

>  <SCORE.SYSTEM.SOLV>
0

>  <SCORE.SYSTEM.norm>
0

>  <SCORE.heavy>
36

>  <SCORE.norm>
-0.512165

>  <RMSD>
1.365

$$$$
2f4u_lig
 OpenBabel11021811433D
libRbt.so/2013.1/901 2013/11/27
 36 37  0  0  0  0  0  0  0  0999 V2000
   38.1016    9.0306    5.7962 C   0  0  2  0  0  0  0  0  0  0  0  0
   38.7853    7.9307    5.0886 O   0  0  0  0  0  0  0  0  0  0  0  0
   42.0027    5.1584    6.0147 C   0  0  2  0  0  0  0  0  0  0  0  0
   43.3366    4.6641    6.4521 N   0  0  0  0  0  0  0  0  0  0  0  0
   36.5741    8.7178    5.7413 C   0  0  2  0  0  0  0  0  0  0  0  0
   36.2373    7.4208    6.3567 N   0  0  0  0  0  0  0  0  0  0  0  0
   42.1187    6.1496    4.8034 C   0  0  0  0  0  0  0  0  0  0  0  0
   43.3682    2.8809    6.5329 C   0  0  0  0  0  0  0  0  0  0  0  0
   44.7309    3.0737    7.1206 C   0  0  1  0  0  0  0  0  0  0  0  0
   45.2126    1.7024    7.6075 C   0  0  0  0  0  0  0  0  0  0  0  0
   46.5382    1.6961    8.3911 C   0  0  0  0  0  0  0  0  0  0  0  0
   47.5945    2.2215    7.5238 N   0  0  0  0  0  0  0  0  0  0  0  0
   45.6269    3.5137    6.1367 O   0  0  0  0  0  0  0  0  0  0  0  0
   41.6998    3.9800    9.2207 C   0  0  0  0  0  0  0  0  0  0  0  0
   40.5305    3.6758   10.1453 C   0  0  0  0  0  0  0  0  0  0  0  0
   36.1076    8.7407    4.2478 C   0  0  1  0  0  0  0  0  0  0  0  0
   39.4900    2.8187    9.5420 N   0  0  0  0  0  0  0  0  0  0  0  0
   34.7165    8.4489    4.1419 O   0  0  0  0  0  0  0  0  0  0  0  0
   40.7368    6.6984    4.3937 C   0  0  2  0  0  0  0  0  0  0  0  0
   40.8499    7.6534    3.2985 N   0  0  0  0  0  0  0  0  0  0  0  0
   37.2514    1.9876   10.2475 C   0  0  0  0  0  0  0  0  0  0  0  0
   36.7323    1.7690    8.7946 C   0  0  0  0  0  0  0  0  0  0  0  0
   38.7869    1.8151   10.3822 C   0  0  0  0  0  0  0  0  0  0  0  0
   35.2681    2.0415    8.6794 N   0  0  0  0  0  0  0  0  0  0  0  0
   42.6807    2.0803    6.3143 O   0  0  0  0  0  0  0  0  0  0  0  0
   36.4381   10.1279    3.6617 C   0  0  2  0  0  0  0  0  0  0  0  0
   36.0574   10.2469    2.2933 O   0  0  0  0  0  0  0  0  0  0  0  0
   40.0766    7.3958    5.5663 C   0  0  2  0  0  0  0  0  0  0  0  0
   37.9401   10.4368    3.7970 C   0  0  2  0  0  0  0  0  0  0  0  0
   38.3684   10.3113    5.1575 O   0  0  0  0  0  0  0  0  0  0  0  0
   39.9163    6.3833    6.7720 C   0  0  2  0  0  0  0  0  0  0  0  0
   39.2946    7.0865    7.8932 O   0  0  0  0  0  0  0  0  0  0  0  0
   38.2738   11.8204    3.3064 C   0  0  0  0  0  0  0  0  0  0  0  0
   39.6262   12.0555    3.4109 O   0  0  0  0  0  0  0  0  0  0  0  0
   41.3335    5.8572    7.1818 C   0  0  1  0  0  0  0  0  0  0  0  0
   41.2700    4.9574    8.2497 O   0  0  0  0  0  0  0  0  0  0  0  0
  1  2  1  6  0  0  0
  1  5  1  0  0  0  0
  1 30  1  0  0  0  0
  3  4  1  1  0  0  0
  3  7  1  0  0  0  0
  3 35  1  0  0  0  0
  5  6  1  6  0  0  0
  5 16  1  0  0  0  0
  7 19  1  0  0  0  0
  8  4  1  0  0  0  0
  8 25  2  0  0  0  0
  9  8  1  6  0  0  0
  9 10  1  0  0  0  0
  9 13  1  0  0  0  0
 10 11  1  0  0  0  0
 11 12  1  0  0  0  0
 14 15  1  0  0  0  0
 14 36  1  0  0  0  0
 15 17  1  0  0  0  0
 16 18  1  1  0  0  0
 16 26  1  0  0  0  0
 17 23  1  0  0  0  0
 19 20  1  6  0  0  0
 19 28  1  0  0  0  0
 21 22  1  0  0  0  0
 21 23  1  0  0  0  0
 22 24  1  0  0  0  0
 26 27  1  6  0  0  0
 26 29  1  0  0  0  0
 28  2  1  6  0  0  0
 28 31  1  0  0  0  0
 29 30  1  0  0  0  0
 29 33  1  1  0  0  0
 31 32  1  1  0  0  0
 31 35  1  0  0  0  0
 33 34  1  0  0  0  0
 35 36  1  1  0  0  0
M  END
>  <CHROM.1>
-142.06688835,-127.78339264,171.90457713,-173.53354964,-60.43005531,75.22937374
176.76800680,143.81481590,127.62419974,-175.75353994,61.54935124,-158.93602234
-178.59929097,49.33647694,40.08579655,5.93569236,6.38105634,-2.23294688,-0.18696694
2.50497767

>  <Name>
2f4u_lig

>  <RI>
0

>  <Rbt.Current_Directory>
/home/itssahil/PROJECTS/Mol_Feturizer/New_Systems/rnas/2f4u

>  <Rbt.Executable>
rbdock ($Id: //depot/dev/client3/rdock/2013.1/src/exe/rbdock.cxx#4 $)

>  <Rbt.Library>
libRbt.so (2013.1, Build901 2013/11/27)

>  <Rbt.Parameter_File>
/export/apps/rDock/src/rDock_2013.1_src/data/scripts/dock_solv.prm

>  <Rbt.Receptor>
prm/pocket_docking_6.prm

>  <SCORE>
-19.1983

>  <SCORE.INTER>
-12.3907

>  <SCORE.INTER.CONST>
1

>  <SCORE.INTER.POLAR>
-0.979796

>  <SCORE.INTER.ROT>
14

>  <SCORE.INTER.SOLV>
11.8954

>  <SCORE.INTER.VDW>
-21.893

>  <SCORE.INTER.norm>
-0.344187

>  <SCORE.INTRA>
-6.80753

>  <SCORE.INTRA.DIHEDRAL>
-13.7421

>  <SCORE.INTRA.DIHEDRAL.0>
26.3805

>  <SCORE.INTRA.POLAR>
0

>  <SCORE.INTRA.POLAR.0>
0

>  <SCORE.INTRA.REPUL>
0

>  <SCORE.INTRA.REPUL.0>
0

>  <SCORE.INTRA.SOLV>
2.90267

>  <SCORE.INTRA.SOLV.lig_0>
-98.5587

>  <SCORE.INTRA.VDW>
-1.38783

>  <SCORE.INTRA.VDW.0>
-2.91167

>  <SCORE.INTRA.norm>
-0.189098

>  <SCORE.RESTR>
0

>  <SCORE.RESTR.CAVITY>
0

>  <SCORE.RESTR.norm>
0

>  <SCORE.SYSTEM>
0

>  <SCORE.SYSTEM.CONST>
0

>  <SCORE.SYSTEM.DIHEDRAL>
0

>  <SCORE.SYSTEM.SOLV>
0

>  <SCORE.SYSTEM.norm>
0

>  <SCORE.heavy>
36

>  <SCORE.norm>
-0.533285

>  <RMSD>
1.376

$$$$
2f4u_lig
 OpenBabel11021811433D
libRbt.so/2013.1/901 2013/11/27
 36 37  0  0  0  0  0  0  0  0999 V2000
   37.9348    9.4961    5.1403 C   0  0  2  0  0  0  0  0  0  0  0  0
   38.7605    8.4544    4.4991 O   0  0  0  0  0  0  0  0  0  0  0  0
   41.5009    5.5427    6.2042 C   0  0  2  0  0  0  0  0  0  0  0  0
   42.7199    4.9847    6.8503 N   0  0  0  0  0  0  0  0  0  0  0  0
   36.4754    9.2886    4.6291 C   0  0  2  0  0  0  0  0  0  0  0  0
   35.9487    7.9476    4.9429 N   0  0  0  0  0  0  0  0  0  0  0  0
   41.8397    6.2737    4.8574 C   0  0  0  0  0  0  0  0  0  0  0  0
   42.8035    3.2130    6.6465 C   0  0  0  0  0  0  0  0  0  0  0  0
   43.9893    3.3075    7.5547 C   0  0  1  0  0  0  0  0  0  0  0  0
   45.0977    4.0282    6.7792 C   0  0  0  0  0  0  0  0  0  0  0  0
   46.4262    3.2621    6.6395 C   0  0  0  0  0  0  0  0  0  0  0  0
   46.1513    1.9609    6.0270 N   0  0  0  0  0  0  0  0  0  0  0  0
   43.6807    4.0873    8.6776 O   0  0  0  0  0  0  0  0  0  0  0  0
   40.8216    5.1420    9.5945 C   0  0  0  0  0  0  0  0  0  0  0  0
   39.4835    4.6894   10.1596 C   0  0  0  0  0  0  0  0  0  0  0  0
   36.4428    9.5301    3.0834 C   0  0  1  0  0  0  0  0  0  0  0  0
   39.5915    3.6948   11.2460 N   0  0  0  0  0  0  0  0  0  0  0  0
   35.1291    9.3415    2.5637 O   0  0  0  0  0  0  0  0  0  0  0  0
   40.5784    6.8957    4.2242 C   0  0  2  0  0  0  0  0  0  0  0  0
   40.9007    7.6131    2.9972 N   0  0  0  0  0  0  0  0  0  0  0  0
   37.8806    1.9215   10.8876 C   0  0  0  0  0  0  0  0  0  0  0  0
   37.4979    2.3904    9.4516 C   0  0  0  0  0  0  0  0  0  0  0  0
   38.3595    3.0786   11.8028 C   0  0  0  0  0  0  0  0  0  0  0  0
   36.3982    3.4012    9.4704 N   0  0  0  0  0  0  0  0  0  0  0  0
   42.2158    2.4589    6.1493 O   0  0  0  0  0  0  0  0  0  0  0  0
   36.9576   10.9572    2.8084 C   0  0  2  0  0  0  0  0  0  0  0  0
   36.9750   11.2725    1.4185 O   0  0  0  0  0  0  0  0  0  0  0  0
   39.9290    7.8691    5.1875 C   0  0  2  0  0  0  0  0  0  0  0  0
   38.3700   11.1522    3.3885 C   0  0  2  0  0  0  0  0  0  0  0  0
   38.4003   10.8284    4.7829 O   0  0  0  0  0  0  0  0  0  0  0  0
   39.5440    7.1215    6.5281 C   0  0  2  0  0  0  0  0  0  0  0  0
   38.9374    8.0867    7.4438 O   0  0  0  0  0  0  0  0  0  0  0  0
   38.8612   12.5632    3.2049 C   0  0  0  0  0  0  0  0  0  0  0  0
   40.1863   12.6629    3.5645 O   0  0  0  0  0  0  0  0  0  0  0  0
   40.8432    6.5176    7.1609 C   0  0  1  0  0  0  0  0  0  0  0  0
   40.5793    5.8432    8.3567 O   0  0  0  0  0  0  0  0  0  0  0  0
  1  2  1  6  0  0  0
  1  5  1  0  0  0  0
  1 30  1  0  0  0  0
  3  4  1  1  0  0  0
  3  7  1  0  0  0  0
  3 35  1  0  0  0  0
  5  6  1  6  0  0  0
  5 16  1  0  0  0  0
  7 19  1  0  0  0  0
  8  4  1  0  0  0  0
  8 25  2  0  0  0  0
  9  8  1  6  0  0  0
  9 10  1  0  0  0  0
  9 13  1  0  0  0  0
 10 11  1  0  0  0  0
 11 12  1  0  0  0  0
 14 15  1  0  0  0  0
 14 36  1  0  0  0  0
 15 17  1  0  0  0  0
 16 18  1  1  0  0  0
 16 26  1  0  0  0  0
 17 23  1  0  0  0  0
 19 20  1  6  0  0  0
 19 28  1  0  0  0  0
 21 22  1  0  0  0  0
 21 23  1  0  0  0  0
 22 24  1  0  0  0  0
 26 27  1  6  0  0  0
 26 29  1  0  0  0  0
 28  2  1  6  0  0  0
 28 31  1  0  0  0  0
 29 30  1  0  0  0  0
 29 33  1  1  0  0  0
 31 32  1  1  0  0  0
 31 35  1  0  0  0  0
 33 34  1  0  0  0  0
 35 36  1  1  0  0  0
M  END
>  <CHROM.1>
-147.57290266,-104.74649977,-68.60200245,-122.99751531,55.71810254,166.34634234
-175.11228981,-174.54648670,81.22348863,-59.53046771,-62.17692967,-177.15816369
-171.80222023,66.00116331,39.93441273,6.61689623,6.23749481,2.05065550,0.31228719
-0.77798993

>  <Name>
2f4u_lig

>  <RI>
0

>  <Rbt.Current_Directory>
/home/itssahil/PROJECTS/Mol_Feturizer/New_Systems/rnas/2f4u

>  <Rbt.Executable>
rbdock ($Id: //depot/dev/client3/rdock/2013.1/src/exe/rbdock.cxx#4 $)

>  <Rbt.Library>
libRbt.so (2013.1, Build901 2013/11/27)

>  <Rbt.Parameter_File>
/export/apps/rDock/src/rDock_2013.1_src/data/scripts/dock_solv.prm

>  <Rbt.Receptor>
prm/pocket_docking_2.prm

>  <SCORE>
-9.26308

>  <SCORE.INTER>
-9.79278

>  <SCORE.INTER.CONST>
1

>  <SCORE.INTER.POLAR>
-0.979796

>  <SCORE.INTER.ROT>
14

>  <SCORE.INTER.SOLV>
16.6617

>  <SCORE.INTER.VDW>
-21.7498

>  <SCORE.INTER.norm>
-0.272022

>  <SCORE.INTRA>
-0.757676

>  <SCORE.INTRA.DIHEDRAL>
-13.6484

>  <SCORE.INTRA.DIHEDRAL.0>
26.3805

>  <SCORE.INTRA.POLAR>
0

>  <SCORE.INTRA.POLAR.0>
0

>  <SCORE.INTRA.REPUL>
0

>  <SCORE.INTRA.REPUL.0>
0

>  <SCORE.INTRA.SOLV>
4.15297

>  <SCORE.INTRA.SOLV.lig_0>
-98.5587

>  <SCORE.INTRA.VDW>
3.99005

>  <SCORE.INTRA.VDW.0>
-2.91167

>  <SCORE.INTRA.norm>
-0.0210465

>  <SCORE.RESTR>
1.28738

>  <SCORE.RESTR.CAVITY>
1.28738

>  <SCORE.RESTR.norm>
0.0357605

>  <SCORE.SYSTEM>
0

>  <SCORE.SYSTEM.CONST>
0

>  <SCORE.SYSTEM.DIHEDRAL>
0

>  <SCORE.SYSTEM.SOLV>
0

>  <SCORE.SYSTEM.norm>
0

>  <SCORE.heavy>
36

>  <SCORE.norm>
-0.257308

>  <RMSD>
1.386

$$$$
2f4u_lig
 OpenBabel11021811433D
libRbt.so/2013.1/901 2013/11/27
 36 37  0  0  0  0  0  0  0  0999 V2000
   37.6630    9.0519    5.6003 C   0  0  2  0  0  0  0  0  0  0  0  0
   38.3871    7.8849    5.0601 O   0  0  0  0  0  0  0  0  0  0  0  0
   41.5465    5.3506    6.6381 C   0  0  2  0  0  0  0  0  0  0  0  0
   42.8804    4.9427    7.1571 N   0  0  0  0  0  0  0  0  0  0  0  0
   36.2137    8.9848    5.0267 C   0  0  2  0  0  0  0  0  0  0  0  0
   35.5179    7.7351    5.3853 N   0  0  0  0  0  0  0  0  0  0  0  0
   41.6446    5.9520    5.1918 C   0  0  0  0  0  0  0  0  0  0  0  0
   43.2854    3.2780    6.6551 C   0  0  0  0  0  0  0  0  0  0  0  0
   44.4773    3.4523    7.5432 C   0  0  1  0  0  0  0  0  0  0  0  0
   44.9371    2.0521    7.9645 C   0  0  0  0  0  0  0  0  0  0  0  0
   45.4625    1.1495    6.8329 C   0  0  0  0  0  0  0  0  0  0  0  0
   46.7781    1.6404    6.4182 N   0  0  0  0  0  0  0  0  0  0  0  0
   45.5287    4.0491    6.8342 O   0  0  0  0  0  0  0  0  0  0  0  0
   40.5460    4.9211    9.9281 C   0  0  0  0  0  0  0  0  0  0  0  0
   40.9542    3.5125    9.5230 C   0  0  0  0  0  0  0  0  0  0  0  0
   36.2792    9.1351    3.4705 C   0  0  1  0  0  0  0  0  0  0  0  0
   40.5593    2.4674   10.4889 N   0  0  0  0  0  0  0  0  0  0  0  0
   34.9770    9.0693    2.8949 O   0  0  0  0  0  0  0  0  0  0  0  0
   40.2658    6.4221    4.6853 C   0  0  2  0  0  0  0  0  0  0  0  0
   40.3647    7.0219    3.3606 N   0  0  0  0  0  0  0  0  0  0  0  0
   38.3800    2.1126   11.6398 C   0  0  0  0  0  0  0  0  0  0  0  0
   38.0648    3.6256   11.8396 C   0  0  0  0  0  0  0  0  0  0  0  0
   39.2248    1.8249   10.3712 C   0  0  0  0  0  0  0  0  0  0  0  0
   37.3165    3.8757   13.1080 N   0  0  0  0  0  0  0  0  0  0  0  0
   42.8254    2.5149    6.0489 O   0  0  0  0  0  0  0  0  0  0  0  0
   36.9715   10.4738    3.1452 C   0  0  2  0  0  0  0  0  0  0  0  0
   37.0885   10.7009    1.7429 O   0  0  0  0  0  0  0  0  0  0  0  0
   39.6788    7.4513    5.6305 C   0  0  2  0  0  0  0  0  0  0  0  0
   38.3698   10.5381    3.7858 C   0  0  2  0  0  0  0  0  0  0  0  0
   38.2989   10.2973    5.1955 O   0  0  0  0  0  0  0  0  0  0  0  0
   39.5355    6.8299    7.0789 C   0  0  2  0  0  0  0  0  0  0  0  0
   38.9849    7.8484    7.9720 O   0  0  0  0  0  0  0  0  0  0  0  0
   39.0327   11.8692    3.5512 C   0  0  0  0  0  0  0  0  0  0  0  0
   39.3197   12.0358    2.2152 O   0  0  0  0  0  0  0  0  0  0  0  0
   40.9503    6.3799    7.5779 C   0  0  1  0  0  0  0  0  0  0  0  0
   40.9016    5.8232    8.8592 O   0  0  0  0  0  0  0  0  0  0  0  0
  1  2  1  6  0  0  0
  1  5  1  0  0  0  0
  1 30  1  0  0  0  0
  3  4  1  1  0  0  0
  3  7  1  0  0  0  0
  3 35  1  0  0  0  0
  5  6  1  6  0  0  0
  5 16  1  0  0  0  0
  7 19  1  0  0  0  0
  8  4  1  0  0  0  0
  8 25  2  0  0  0  0
  9  8  1  6  0  0  0
  9 10  1  0  0  0  0
  9 13  1  0  0  0  0
 10 11  1  0  0  0  0
 11 12  1  0  0  0  0
 14 15  1  0  0  0  0
 14 36  1  0  0  0  0
 15 17  1  0  0  0  0
 16 18  1  1  0  0  0
 16 26  1  0  0  0  0
 17 23  1  0  0  0  0
 19 20  1  6  0  0  0
 19 28  1  0  0  0  0
 21 22  1  0  0  0  0
 21 23  1  0  0  0  0
 22 24  1  0  0  0  0
 26 27  1  6  0  0  0
 26 29  1  0  0  0  0
 28  2  1  6  0  0  0
 28 31  1  0  0  0  0
 29 30  1  0  0  0  0
 29 33  1  1  0  0  0
 31 32  1  1  0  0  0
 31 35  1  0  0  0  0
 33 34  1  0  0  0  0
 35 36  1  1  0  0  0
M  END
>  <CHROM.1>
-165.55323528,-86.71248106,156.26572442,65.13896967,72.73773544,-175.82062574
57.27430809,88.41883043,-117.67473908,-176.81482456,63.52999001,-169.02342924
-66.99450497,-61.31001418,40.07694456,6.21090702,6.54291650,2.16170826,0.44523384
-0.89532694

>  <Name>
2f4u_lig

>  <RI>
0

>  <Rbt.Current_Directory>
/home/itssahil/PROJECTS/Mol_Feturizer/New_Systems/rnas/2f4u

>  <Rbt.Executable>
rbdock ($Id: //depot/dev/client3/rdock/2013.1/src/exe/rbdock.cxx#4 $)

>  <Rbt.Library>
libRbt.so (2013.1, Build901 2013/11/27)

>  <Rbt.Parameter_File>
/export/apps/rDock/src/rDock_2013.1_src/data/scripts/dock_solv.prm

>  <Rbt.Receptor>
prm/pocket_docking_5.prm

>  <SCORE>
-23.8379

>  <SCORE.INTER>
-13.8367

>  <SCORE.INTER.CONST>
1

>  <SCORE.INTER.POLAR>
-1.06044

>  <SCORE.INTER.ROT>
14

>  <SCORE.INTER.SOLV>
19.1799

>  <SCORE.INTER.VDW>
-25.0162

>  <SCORE.INTER.norm>
-0.384352

>  <SCORE.INTRA>
-10.0013

>  <SCORE.INTRA.DIHEDRAL>
-20.2433

>  <SCORE.INTRA.DIHEDRAL.0>
26.3805

>  <SCORE.INTRA.POLAR>
0

>  <SCORE.INTRA.POLAR.0>
0

>  <SCORE.INTRA.REPUL>
0

>  <SCORE.INTRA.REPUL.0>
0

>  <SCORE.INTRA.SOLV>
2.19385

>  <SCORE.INTRA.SOLV.lig_0>
-98.5587

>  <SCORE.INTRA.VDW>
-0.976555

>  <SCORE.INTRA.VDW.0>
-2.91167

>  <SCORE.INTRA.norm>
-0.277813

>  <SCORE.RESTR>
0

>  <SCORE.RESTR.CAVITY>
0

>  <SCORE.RESTR.norm>
0

>  <SCORE.SYSTEM>
0

>  <SCORE.SYSTEM.CONST>
0

>  <SCORE.SYSTEM.DIHEDRAL>
0

>  <SCORE.SYSTEM.SOLV>
0

>  <SCORE.SYSTEM.norm>
0

>  <SCORE.heavy>
36

>  <SCORE.norm>
-0.662165

>  <RMSD>
1.386

$$$$
2f4u_lig
 OpenBabel11021811433D
libRbt.so/2013.1/901 2013/11/27
 36 37  0  0  0  0  0  0  0  0999 V2000
   37.2103    8.7616    6.0532 C   0  0  2  0  0  0  0  0  0  0  0  0
   37.8670    7.5107    5.6269 O   0  0  0  0  0  0  0  0  0  0  0  0
   41.3241    5.2559    6.9907 C   0  0  2  0  0  0  0  0  0  0  0  0
   42.7325    4.9480    7.3598 N   0  0  0  0  0  0  0  0  0  0  0  0
   35.6863    8.5873    5.7683 C   0  0  2  0  0  0  0  0  0  0  0  0
   35.1043    7.4322    6.4764 N   0  0  0  0  0  0  0  0  0  0  0  0
   41.2021    5.7150    5.4949 C   0  0  0  0  0  0  0  0  0  0  0  0
   43.4660    3.8029    6.2029 C   0  0  0  0  0  0  0  0  0  0  0  0
   44.6248    3.8096    7.1499 C   0  0  1  0  0  0  0  0  0  0  0  0
   45.5175    2.6192    6.7819 C   0  0  0  0  0  0  0  0  0  0  0  0
   46.7685    2.4225    7.6580 C   0  0  0  0  0  0  0  0  0  0  0  0
   47.5207    1.2757    7.1452 N   0  0  0  0  0  0  0  0  0  0  0  0
   45.3827    4.9766    6.9824 O   0  0  0  0  0  0  0  0  0  0  0  0
   40.9128    5.9498   10.6674 C   0  0  0  0  0  0  0  0  0  0  0  0
   39.4624    6.0982   11.1022 C   0  0  0  0  0  0  0  0  0  0  0  0
   35.4757    8.4329    4.2254 C   0  0  1  0  0  0  0  0  0  0  0  0
   38.6402    4.8905   10.8867 N   0  0  0  0  0  0  0  0  0  0  0  0
   34.0961    8.2591    3.9123 O   0  0  0  0  0  0  0  0  0  0  0  0
   39.7478    6.0846    5.1385 C   0  0  2  0  0  0  0  0  0  0  0  0
   39.6428    6.5540    3.7627 N   0  0  0  0  0  0  0  0  0  0  0  0
   36.5591    4.6545   12.2334 C   0  0  0  0  0  0  0  0  0  0  0  0
   36.4256    6.1377   12.6923 C   0  0  0  0  0  0  0  0  0  0  0  0
   38.0307    4.1992   12.0521 C   0  0  0  0  0  0  0  0  0  0  0  0
   35.0041    6.5130   12.9567 N   0  0  0  0  0  0  0  0  0  0  0  0
   43.1580    3.3103    5.2952 O   0  0  0  0  0  0  0  0  0  0  0  0
   36.0572    9.6818    3.5331 C   0  0  2  0  0  0  0  0  0  0  0  0
   35.9214    9.6325    2.1151 O   0  0  0  0  0  0  0  0  0  0  0  0
   39.2417    7.1807    6.0548 C   0  0  2  0  0  0  0  0  0  0  0  0
   37.5426    9.8665    3.8923 C   0  0  2  0  0  0  0  0  0  0  0  0
   37.7255    9.9037    5.3120 O   0  0  0  0  0  0  0  0  0  0  0  0
   39.3201    6.7004    7.5606 C   0  0  2  0  0  0  0  0  0  0  0  0
   38.8438    7.7821    8.4215 O   0  0  0  0  0  0  0  0  0  0  0  0
   38.1112   11.1255    3.2943 C   0  0  0  0  0  0  0  0  0  0  0  0
   38.1010   11.0533    1.9196 O   0  0  0  0  0  0  0  0  0  0  0  0
   40.8081    6.3514    7.9028 C   0  0  1  0  0  0  0  0  0  0  0  0
   40.9551    5.9223    9.2251 O   0  0  0  0  0  0  0  0  0  0  0  0
  1  2  1  6  0  0  0
  1  5  1  0  0  0  0
  1 30  1  0  0  0  0
  3  4  1  1  0  0  0
  3  7  1  0  0  0  0
  3 35  1  0  0  0  0
  5  6  1  1  0  0  0
  5 16  1  0  0  0  0
  7 19  1  0  0  0  0
  8  4  1  0  0  0  0
  8 25  2  0  0  0  0
  9  8  1  6  0  0  0
  9 10  1  0  0  0  0
  9 13  1  0  0  0  0
 10 11  1  0  0  0  0
 11 12  1  0  0  0  0
 14 15  1  0  0  0  0
 14 36  1  0  0  0  0
 15 17  1  0  0  0  0
 16 18  1  1  0  0  0
 16 26  1  0  0  0  0
 17 23  1  0  0  0  0
 19 20  1  6  0  0  0
 19 28  1  0  0  0  0
 21 22  1  0  0  0  0
 21 23  1  0  0  0  0
 22 24  1  0  0  0  0
 26 27  1  6  0  0  0
 26 29  1  0  0  0  0
 28  2  1  6  0  0  0
 28 31  1  0  0  0  0
 29 30  1  0  0  0  0
 29 33  1  6  0  0  0
 31 32  1  1  0  0  0
 31 35  1  0  0  0  0
 33 34  1  0  0  0  0
 35 36  1  1  0  0  0
M  END
>  <CHROM.1>
-164.30257491,-52.13230004,165.55497756,-178.92843654,-178.29362028,71.53634898
62.22174089,117.60312305,97.10215499,-175.68575142,-68.73732579,-163.42440478
-64.31927177,178.22200836,39.54593837,6.51439340,6.91385158,-2.61376920,-0.45926091
1.97282887

>  <Name>
2f4u_lig

>  <RI>
0

>  <Rbt.Current_Directory>
/home/itssahil/PROJECTS/Mol_Feturizer/New_Systems/rnas/2f4u

>  <Rbt.Executable>
rbdock ($Id: //depot/dev/client3/rdock/2013.1/src/exe/rbdock.cxx#4 $)

>  <Rbt.Library>
libRbt.so (2013.1, Build901 2013/11/27)

>  <Rbt.Parameter_File>
/export/apps/rDock/src/rDock_2013.1_src/data/scripts/dock_solv.prm

>  <Rbt.Receptor>
prm/pocket_docking_3.prm

>  <SCORE>
-21.8478

>  <SCORE.INTER>
-11.5053

>  <SCORE.INTER.CONST>
1

>  <SCORE.INTER.POLAR>
-1.10569

>  <SCORE.INTER.ROT>
14

>  <SCORE.INTER.SOLV>
10.9164

>  <SCORE.INTER.VDW>
-20.5567

>  <SCORE.INTER.norm>
-0.31959

>  <SCORE.INTRA>
-10.3425

>  <SCORE.INTRA.DIHEDRAL>
-19.9532

>  <SCORE.INTRA.DIHEDRAL.0>
26.3805

>  <SCORE.INTRA.POLAR>
0

>  <SCORE.INTRA.POLAR.0>
0

>  <SCORE.INTRA.REPUL>
0

>  <SCORE.INTRA.REPUL.0>
0

>  <SCORE.INTRA.SOLV>
0.487434

>  <SCORE.INTRA.SOLV.lig_0>
-98.5587

>  <SCORE.INTRA.VDW>
-0.609625

>  <SCORE.INTRA.VDW.0>
-2.91167

>  <SCORE.INTRA.norm>
-0.287292

>  <SCORE.RESTR>
0

>  <SCORE.RESTR.CAVITY>
0

>  <SCORE.RESTR.norm>
0

>  <SCORE.SYSTEM>
0

>  <SCORE.SYSTEM.CONST>
0

>  <SCORE.SYSTEM.DIHEDRAL>
0

>  <SCORE.SYSTEM.SOLV>
0

>  <SCORE.SYSTEM.norm>
0

>  <SCORE.heavy>
36

>  <SCORE.norm>
-0.606882

>  <RMSD>
1.390

$$$$
2f4u_lig
 OpenBabel11021811433D
libRbt.so/2013.1/901 2013/11/27
 36 37  0  0  0  0  0  0  0  0999 V2000
   37.1302    8.8774    5.9483 C   0  0  2  0  0  0  0  0  0  0  0  0
   37.8739    7.7036    5.4513 O   0  0  0  0  0  0  0  0  0  0  0  0
   41.3565    5.3735    6.6075 C   0  0  2  0  0  0  0  0  0  0  0  0
   42.7196    5.0591    7.1154 N   0  0  0  0  0  0  0  0  0  0  0  0
   35.6274    8.6330    5.6075 C   0  0  2  0  0  0  0  0  0  0  0  0
   35.1016    7.3954    6.2125 N   0  0  0  0  0  0  0  0  0  0  0  0
   41.4057    6.3309    5.3649 C   0  0  0  0  0  0  0  0  0  0  0  0
   43.5949    3.9851    5.9893 C   0  0  0  0  0  0  0  0  0  0  0  0
   44.6407    3.9514    7.0593 C   0  0  1  0  0  0  0  0  0  0  0  0
   45.4759    2.6856    6.8369 C   0  0  0  0  0  0  0  0  0  0  0  0
   46.5103    2.3632    7.9311 C   0  0  0  0  0  0  0  0  0  0  0  0
   47.2177    1.1371    7.5567 N   0  0  0  0  0  0  0  0  0  0  0  0
   45.4982    5.0531    6.9359 O   0  0  0  0  0  0  0  0  0  0  0  0
   40.3249    4.6773   10.1586 C   0  0  0  0  0  0  0  0  0  0  0  0
   40.7689    3.2239   10.2298 C   0  0  0  0  0  0  0  0  0  0  0  0
   35.4646    8.5814    4.0520 C   0  0  1  0  0  0  0  0  0  0  0  0
   40.0531    2.3269    9.3002 N   0  0  0  0  0  0  0  0  0  0  0  0
   34.1067    8.3484    3.6872 O   0  0  0  0  0  0  0  0  0  0  0  0
   39.9872    6.6946    4.8807 C   0  0  2  0  0  0  0  0  0  0  0  0
   40.0328    7.6196    3.7554 N   0  0  0  0  0  0  0  0  0  0  0  0
   37.6598    2.2959    9.9867 C   0  0  0  0  0  0  0  0  0  0  0  0
   36.4454    1.4483   10.4715 C   0  0  0  0  0  0  0  0  0  0  0  0
   38.9567    1.4637    9.8104 C   0  0  0  0  0  0  0  0  0  0  0  0
   35.2000    2.2670   10.5731 N   0  0  0  0  0  0  0  0  0  0  0  0
   43.3976    3.5394    5.0282 O   0  0  0  0  0  0  0  0  0  0  0  0
   35.9839    9.9111    3.4695 C   0  0  2  0  0  0  0  0  0  0  0  0
   35.8861    9.9594    2.0483 O   0  0  0  0  0  0  0  0  0  0  0  0
   39.1979    7.3451    5.9992 C   0  0  2  0  0  0  0  0  0  0  0  0
   37.4456   10.1580    3.8841 C   0  0  2  0  0  0  0  0  0  0  0  0
   37.5911   10.1005    5.3073 O   0  0  0  0  0  0  0  0  0  0  0  0
   39.1076    6.3610    7.2353 C   0  0  2  0  0  0  0  0  0  0  0  0
   38.3580    7.0203    8.3037 O   0  0  0  0  0  0  0  0  0  0  0  0
   37.9490   11.4901    3.3959 C   0  0  0  0  0  0  0  0  0  0  0  0
   38.8928   11.9952    4.2615 O   0  0  0  0  0  0  0  0  0  0  0  0
   40.5584    6.0241    7.7200 C   0  0  1  0  0  0  0  0  0  0  0  0
   40.5565    5.1590    8.8181 O   0  0  0  0  0  0  0  0  0  0  0  0
  1  2  1  6  0  0  0
  1  5  1  0  0  0  0
  1 30  1  0  0  0  0
  3  4  1  1  0  0  0
  3  7  1  0  0  0  0
  3 35  1  0  0  0  0
  5  6  1  1  0  0  0
  5 16  1  0  0  0  0
  7 19  1  0  0  0  0
  8  4  1  0  0  0  0
  8 25  2  0  0  0  0
  9  8  1  6  0  0  0
  9 10  1  0  0  0  0
  9 13  1  0  0  0  0
 10 11  1  0  0  0  0
 11 12  1  0  0  0  0
 14 15  1  0  0  0  0
 14 36  1  0  0  0  0
 15 17  1  0  0  0  0
 16 18  1  1  0  0  0
 16 26  1  0  0  0  0
 17 23  1  0  0  0  0
 19 20  1  6  0  0  0
 19 28  1  0  0  0  0
 21 22  1  0  0  0  0
 21 23  1  0  0  0  0
 22 24  1  0  0  0  0
 26 27  1  6  0  0  0
 26 29  1  0  0  0  0
 28  2  1  6  0  0  0
 28 31  1  0  0  0  0
 29 30  1  0  0  0  0
 29 33  1  1  0  0  0
 31 32  1  1  0  0  0
 31 35  1  0  0  0  0
 33 34  1  0  0  0  0
 35 36  1  1  0  0  0
M  END
>  <CHROM.1>
-157.70337982,-71.04736709,158.27796694,-172.96833213,-179.66378135,-59.97210638
175.97302178,-101.15343447,78.52602387,-177.48984294,177.92022928,-148.82153344
149.47362343,173.37678804,39.65387135,6.04989362,6.56856299,2.31644683,0.20454614
-0.70980486

>  <Name>
2f4u_lig

>  <RI>
0

>  <Rbt.Current_Directory>
/home/itssahil/PROJECTS/Mol_Feturizer/New_Systems/rnas/2f4u

>  <Rbt.Executable>
rbdock ($Id: //depot/dev/client3/rdock/2013.1/src/exe/rbdock.cxx#4 $)

>  <Rbt.Library>
libRbt.so (2013.1, Build901 2013/11/27)

>  <Rbt.Parameter_File>
/export/apps/rDock/src/rDock_2013.1_src/data/scripts/dock_solv.prm

>  <Rbt.Receptor>
prm/pocket_docking_4.prm

>  <SCORE>
-23.3859

>  <SCORE.INTER>
-15.0882

>  <SCORE.INTER.CONST>
1

>  <SCORE.INTER.POLAR>
-1.58141

>  <SCORE.INTER.ROT>
14

>  <SCORE.INTER.SOLV>
13.9782

>  <SCORE.INTER.VDW>
-22.3802

>  <SCORE.INTER.norm>
-0.419117

>  <SCORE.INTRA>
-8.29773

>  <SCORE.INTRA.DIHEDRAL>
-14.6994

>  <SCORE.INTRA.DIHEDRAL.0>
26.3805

>  <SCORE.INTRA.POLAR>
0

>  <SCORE.INTRA.POLAR.0>
0

>  <SCORE.INTRA.REPUL>
0

>  <SCORE.INTRA.REPUL.0>
0

>  <SCORE.INTRA.SOLV>
0.30808

>  <SCORE.INTRA.SOLV.lig_0>
-98.5587

>  <SCORE.INTRA.VDW>
-1.10207

>  <SCORE.INTRA.VDW.0>
-2.91167

>  <SCORE.INTRA.norm>
-0.230492

>  <SCORE.RESTR>
0

>  <SCORE.RESTR.CAVITY>
0

>  <SCORE.RESTR.norm>
0

>  <SCORE.SYSTEM>
0

>  <SCORE.SYSTEM.CONST>
0

>  <SCORE.SYSTEM.DIHEDRAL>
0

>  <SCORE.SYSTEM.SOLV>
0

>  <SCORE.SYSTEM.norm>
0

>  <SCORE.heavy>
36

>  <SCORE.norm>
-0.649609

>  <RMSD>
1.403

$$$$
2f4u_lig
 OpenBabel11021811433D
libRbt.so/2013.1/901 2013/11/27
 36 37  0  0  0  0  0  0  0  0999 V2000
   37.4003    8.9670    5.6741 C   0  0  2  0  0  0  0  0  0  0  0  0
   38.1639    7.8226    5.1400 O   0  0  0  0  0  0  0  0  0  0  0  0
   41.2432    5.1568    6.6587 C   0  0  2  0  0  0  0  0  0  0  0  0
   42.5144    4.7089    7.2897 N   0  0  0  0  0  0  0  0  0  0  0  0
   35.9132    8.7475    5.2563 C   0  0  2  0  0  0  0  0  0  0  0  0
   35.3618    7.4778    5.7642 N   0  0  0  0  0  0  0  0  0  0  0  0
   41.5047    6.0509    5.3956 C   0  0  0  0  0  0  0  0  0  0  0  0
   43.3065    3.4412    6.3136 C   0  0  0  0  0  0  0  0  0  0  0  0
   44.2657    3.3580    7.4593 C   0  0  1  0  0  0  0  0  0  0  0  0
   45.2344    2.2093    7.1568 C   0  0  0  0  0  0  0  0  0  0  0  0
   44.6125    0.8013    7.1116 C   0  0  0  0  0  0  0  0  0  0  0  0
   45.6839   -0.1747    6.9027 N   0  0  0  0  0  0  0  0  0  0  0  0
   45.0191    4.5364    7.5491 O   0  0  0  0  0  0  0  0  0  0  0  0
   39.7690    4.6955   10.0907 C   0  0  0  0  0  0  0  0  0  0  0  0
   40.1901    5.7268   11.1269 C   0  0  0  0  0  0  0  0  0  0  0  0
   35.8161    8.7887    3.6951 C   0  0  1  0  0  0  0  0  0  0  0  0
   39.2877    5.8158   12.2926 N   0  0  0  0  0  0  0  0  0  0  0  0
   34.4747    8.5816    3.2603 O   0  0  0  0  0  0  0  0  0  0  0  0
   40.1825    6.5550    4.7820 C   0  0  2  0  0  0  0  0  0  0  0  0
   40.4273    7.4221    3.6364 N   0  0  0  0  0  0  0  0  0  0  0  0
   37.0175    5.9154   13.3106 C   0  0  0  0  0  0  0  0  0  0  0  0
   35.5193    6.3038   13.1300 C   0  0  0  0  0  0  0  0  0  0  0  0
   37.9099    6.3433   12.1163 C   0  0  0  0  0  0  0  0  0  0  0  0
   34.9624    5.7911   11.8422 N   0  0  0  0  0  0  0  0  0  0  0  0
   43.1135    2.9483    5.3749 O   0  0  0  0  0  0  0  0  0  0  0  0
   36.3600   10.1491    3.2149 C   0  0  2  0  0  0  0  0  0  0  0  0
   36.3223   10.2818    1.7962 O   0  0  0  0  0  0  0  0  0  0  0  0
   39.3880    7.3369    5.8089 C   0  0  2  0  0  0  0  0  0  0  0  0
   37.8030   10.3668    3.7045 C   0  0  2  0  0  0  0  0  0  0  0  0
   37.8883   10.2246    5.1267 O   0  0  0  0  0  0  0  0  0  0  0  0
   39.0831    6.4209    7.0629 C   0  0  2  0  0  0  0  0  0  0  0  0
   38.3330    7.2049    8.0430 O   0  0  0  0  0  0  0  0  0  0  0  0
   38.3271   11.7240    3.3179 C   0  0  0  0  0  0  0  0  0  0  0  0
   38.6131   12.4678    4.4404 O   0  0  0  0  0  0  0  0  0  0  0  0
   40.4404    5.9396    7.6789 C   0  0  1  0  0  0  0  0  0  0  0  0
   40.2482    5.1259    8.7993 O   0  0  0  0  0  0  0  0  0  0  0  0
  1  2  1  6  0  0  0
  1  5  1  0  0  0  0
  1 30  1  0  0  0  0
  3  4  1  1  0  0  0
  3  7  1  0  0  0  0
  3 35  1  0  0  0  0
  5  6  1  6  0  0  0
  5 16  1  0  0  0  0
  7 19  1  0  0  0  0
  8  4  1  0  0  0  0
  8 25  2  0  0  0  0
  9  8  1  6  0  0  0
  9 10  1  0  0  0  0
  9 13  1  0  0  0  0
 10 11  1  0  0  0  0
 11 12  1  0  0  0  0
 14 15  1  0  0  0  0
 14 36  1  0  0  0  0
 15 17  1  0  0  0  0
 16 18  1  1  0  0  0
 16 26  1  0  0  0  0
 17 23  1  0  0  0  0
 19 20  1  6  0  0  0
 19 28  1  0  0  0  0
 21 22  1  0  0  0  0
 21 23  1  0  0  0  0
 22 24  1  0  0  0  0
 26 27  1  6  0  0  0
 26 29  1  0  0  0  0
 28  2  1  6  0  0  0
 28 31  1  0  0  0  0
 29 30  1  0  0  0  0
 29 33  1  1  0  0  0
 31 32  1  1  0  0  0
 31 35  1  0  0  0  0
 33 34  1  0  0  0  0
 35 36  1  1  0  0  0
M  END
>  <CHROM.1>
-150.99484152,-73.70196100,175.81272214,-65.29760822,-176.24952629,151.67558039
-56.84069046,-67.83695358,161.18547598,53.91933080,-174.02931477,-159.09638875
117.40947112,-175.33595787,39.47683022,6.56740801,6.85324995,2.47905073,0.60612283
-1.14089997

>  <Name>
2f4u_lig

>  <RI>
0

>  <Rbt.Current_Directory>
/home/itssahil/PROJECTS/Mol_Feturizer/New_Systems/rnas/2f4u

>  <Rbt.Executable>
rbdock ($Id: //depot/dev/client3/rdock/2013.1/src/exe/rbdock.cxx#4 $)

>  <Rbt.Library>
libRbt.so (2013.1, Build901 2013/11/27)

>  <Rbt.Parameter_File>
/export/apps/rDock/src/rDock_2013.1_src/data/scripts/dock_solv.prm

>  <Rbt.Receptor>
prm/pocket_docking_3.prm

>  <SCORE>
-22.1888

>  <SCORE.INTER>
-17.2376

>  <SCORE.INTER.CONST>
1

>  <SCORE.INTER.POLAR>
-2.28194

>  <SCORE.INTER.ROT>
14

>  <SCORE.INTER.SOLV>
13.9316

>  <SCORE.INTER.VDW>
-21.4625

>  <SCORE.INTER.norm>
-0.478822

>  <SCORE.INTRA>
-4.9675

>  <SCORE.INTRA.DIHEDRAL>
-11.4112

>  <SCORE.INTRA.DIHEDRAL.0>
26.3805

>  <SCORE.INTRA.POLAR>
0

>  <SCORE.INTRA.POLAR.0>
0

>  <SCORE.INTRA.REPUL>
0

>  <SCORE.INTRA.REPUL.0>
0

>  <SCORE.INTRA.SOLV>
0.732161

>  <SCORE.INTRA.SOLV.lig_0>
-98.5587

>  <SCORE.INTRA.VDW>
0.372033

>  <SCORE.INTRA.VDW.0>
-2.91167

>  <SCORE.INTRA.norm>
-0.137986

>  <SCORE.RESTR>
0.0163441

>  <SCORE.RESTR.CAVITY>
0.0163441

>  <SCORE.RESTR.norm>
0.000454002

>  <SCORE.SYSTEM>
0

>  <SCORE.SYSTEM.CONST>
0

>  <SCORE.SYSTEM.DIHEDRAL>
0

>  <SCORE.SYSTEM.SOLV>
0

>  <SCORE.SYSTEM.norm>
0

>  <SCORE.heavy>
36

>  <SCORE.norm>
-0.616355

>  <RMSD>
1.415

$$$$
2f4u_lig
 OpenBabel11021811433D
libRbt.so/2013.1/901 2013/11/27
 36 37  0  0  0  0  0  0  0  0999 V2000
   37.9129    9.3050    5.2649 C   0  0  2  0  0  0  0  0  0  0  0  0
   38.7749    8.2840    4.6385 O   0  0  0  0  0  0  0  0  0  0  0  0
   42.1241    5.8757    6.0092 C   0  0  2  0  0  0  0  0  0  0  0  0
   43.4611    5.5325    6.5654 N   0  0  0  0  0  0  0  0  0  0  0  0
   36.4773    9.0918    4.6925 C   0  0  2  0  0  0  0  0  0  0  0  0
   35.9535    7.7398    4.9608 N   0  0  0  0  0  0  0  0  0  0  0  0
   42.2414    6.7532    4.7133 C   0  0  0  0  0  0  0  0  0  0  0  0
   44.2300    4.2199    5.6309 C   0  0  0  0  0  0  0  0  0  0  0  0
   45.2807    4.2705    6.6953 C   0  0  1  0  0  0  0  0  0  0  0  0
   45.3580    2.8740    7.3225 C   0  0  0  0  0  0  0  0  0  0  0  0
   45.9900    1.7781    6.4445 C   0  0  0  0  0  0  0  0  0  0  0  0
   45.9665    0.5158    7.1861 N   0  0  0  0  0  0  0  0  0  0  0  0
   46.5320    4.5521    6.1303 O   0  0  0  0  0  0  0  0  0  0  0  0
   40.9187    5.4085    9.5442 C   0  0  0  0  0  0  0  0  0  0  0  0
   39.4022    5.4179    9.6653 C   0  0  0  0  0  0  0  0  0  0  0  0
   36.5033    9.3613    3.1512 C   0  0  1  0  0  0  0  0  0  0  0  0
   38.9057    5.3046   11.0515 N   0  0  0  0  0  0  0  0  0  0  0  0
   35.2134    9.1686    2.5764 O   0  0  0  0  0  0  0  0  0  0  0  0
   40.8509    7.1495    4.1767 C   0  0  2  0  0  0  0  0  0  0  0  0
   40.9609    8.0019    2.9996 N   0  0  0  0  0  0  0  0  0  0  0  0
   37.4671    3.2804   11.2330 C   0  0  0  0  0  0  0  0  0  0  0  0
   37.4891    2.8168    9.7454 C   0  0  0  0  0  0  0  0  0  0  0  0
   38.7850    3.9644   11.6814 C   0  0  0  0  0  0  0  0  0  0  0  0
   38.5747    1.8237    9.4876 N   0  0  0  0  0  0  0  0  0  0  0  0
   43.9852    3.6432    4.7540 O   0  0  0  0  0  0  0  0  0  0  0  0
   37.0126   10.7985    2.9227 C   0  0  2  0  0  0  0  0  0  0  0  0
   37.0816   11.1396    1.5405 O   0  0  0  0  0  0  0  0  0  0  0  0
   40.0701    7.9008    5.2365 C   0  0  2  0  0  0  0  0  0  0  0  0
   38.3987   10.9975    3.5620 C   0  0  2  0  0  0  0  0  0  0  0  0
   38.3773   10.6484    4.9505 O   0  0  0  0  0  0  0  0  0  0  0  0
   39.9105    6.9982    6.5265 C   0  0  2  0  0  0  0  0  0  0  0  0
   39.1709    7.7535    7.5367 O   0  0  0  0  0  0  0  0  0  0  0  0
   38.8810   12.4168    3.4235 C   0  0  0  0  0  0  0  0  0  0  0  0
   38.9443   12.7769    2.0963 O   0  0  0  0  0  0  0  0  0  0  0  0
   41.3346    6.6272    7.0629 C   0  0  1  0  0  0  0  0  0  0  0  0
   41.2716    5.8309    8.2101 O   0  0  0  0  0  0  0  0  0  0  0  0
  1  2  1  6  0  0  0
  1  5  1  0  0  0  0
  1 30  1  0  0  0  0
  3  4  1  1  0  0  0
  3  7  1  0  0  0  0
  3 35  1  0  0  0  0
  5  6  1  6  0  0  0
  5 16  1  0  0  0  0
  7 19  1  0  0  0  0
  8  4  1  0  0  0  0
  8 25  2  0  0  0  0
  9  8  1  6  0  0  0
  9 10  1  0  0  0  0
  9 13  1  0  0  0  0
 10 11  1  0  0  0  0
 11 12  1  0  0  0  0
 14 15  1  0  0  0  0
 14 36  1  0  0  0  0
 15 17  1  0  0  0  0
 16 18  1  1  0  0  0
 16 26  1  0  0  0  0
 17 23  1  0  0  0  0
 19 20  1  6  0  0  0
 19 28  1  0  0  0  0
 21 22  1  0  0  0  0
 21 23  1  0  0  0  0
 22 24  1  0  0  0  0
 26 27  1  6  0  0  0
 26 29  1  0  0  0  0
 28  2  1  6  0  0  0
 28 31  1  0  0  0  0
 29 30  1  0  0  0  0
 29 33  1  1  0  0  0
 31 32  1  1  0  0  0
 31 35  1  0  0  0  0
 33 34  1  0  0  0  0
 35 36  1  1  0  0  0
M  END
>  <CHROM.1>
-160.35037295,-77.53237731,122.10031069,71.67894953,-179.24061476,-166.89447807
55.49622074,-83.24849778,-81.39653543,60.34574235,71.50983926,-164.53416213
-58.40883241,-177.02910387,40.25887474,6.70104177,6.07088691,2.21179170,0.38664569
-0.84110093

>  <Name>
2f4u_lig

>  <RI>
0

>  <Rbt.Current_Directory>
/home/itssahil/PROJECTS/Mol_Feturizer/New_Systems/rnas/2f4u

>  <Rbt.Executable>
rbdock ($Id: //depot/dev/client3/rdock/2013.1/src/exe/rbdock.cxx#4 $)

>  <Rbt.Library>
libRbt.so (2013.1, Build901 2013/11/27)

>  <Rbt.Parameter_File>
/export/apps/rDock/src/rDock_2013.1_src/data/scripts/dock_solv.prm

>  <Rbt.Receptor>
prm/pocket_docking_2.prm

>  <SCORE>
-18.289

>  <SCORE.INTER>
-10.6687

>  <SCORE.INTER.CONST>
1

>  <SCORE.INTER.POLAR>
-0.979796

>  <SCORE.INTER.ROT>
14

>  <SCORE.INTER.SOLV>
15.052

>  <SCORE.INTER.VDW>
-21.7971

>  <SCORE.INTER.norm>
-0.296352

>  <SCORE.INTRA>
-8.19455

>  <SCORE.INTRA.DIHEDRAL>
-18.3561

>  <SCORE.INTRA.DIHEDRAL.0>
26.3805

>  <SCORE.INTRA.POLAR>
0

>  <SCORE.INTRA.POLAR.0>
0

>  <SCORE.INTRA.REPUL>
0

>  <SCORE.INTRA.REPUL.0>
0

>  <SCORE.INTRA.SOLV>
2.28192

>  <SCORE.INTRA.SOLV.lig_0>
-98.5587

>  <SCORE.INTRA.VDW>
-0.157461

>  <SCORE.INTRA.VDW.0>
-2.91167

>  <SCORE.INTRA.norm>
-0.227626

>  <SCORE.RESTR>
0.574225

>  <SCORE.RESTR.CAVITY>
0.574225

>  <SCORE.RESTR.norm>
0.0159507

>  <SCORE.SYSTEM>
0

>  <SCORE.SYSTEM.CONST>
0

>  <SCORE.SYSTEM.DIHEDRAL>
0

>  <SCORE.SYSTEM.SOLV>
0

>  <SCORE.SYSTEM.norm>
0

>  <SCORE.heavy>
36

>  <SCORE.norm>
-0.508027

>  <RMSD>
1.432

$$$$
2f4u_lig
 OpenBabel11021811433D
libRbt.so/2013.1/901 2013/11/27
 36 37  0  0  0  0  0  0  0  0999 V2000
   37.8401    9.3518    5.4569 C   0  0  2  0  0  0  0  0  0  0  0  0
   38.6466    8.2366    4.9241 O   0  0  0  0  0  0  0  0  0  0  0  0
   42.1403    5.9410    6.1155 C   0  0  2  0  0  0  0  0  0  0  0  0
   43.4873    5.6359    6.6698 N   0  0  0  0  0  0  0  0  0  0  0  0
   36.3733    9.1103    4.9833 C   0  0  2  0  0  0  0  0  0  0  0  0
   35.8333    7.8176    5.4434 N   0  0  0  0  0  0  0  0  0  0  0  0
   42.2180    6.9677    4.9310 C   0  0  0  0  0  0  0  0  0  0  0  0
   44.5652    4.9685    5.4127 C   0  0  0  0  0  0  0  0  0  0  0  0
   45.5222    4.7617    6.5446 C   0  0  1  0  0  0  0  0  0  0  0  0
   45.4131    3.2925    6.9675 C   0  0  0  0  0  0  0  0  0  0  0  0
   44.0463    2.8546    7.5257 C   0  0  0  0  0  0  0  0  0  0  0  0
   44.1031    1.4228    7.8267 N   0  0  0  0  0  0  0  0  0  0  0  0
   46.8379    4.9834    6.1155 O   0  0  0  0  0  0  0  0  0  0  0  0
   41.0613    4.3284    8.9626 C   0  0  0  0  0  0  0  0  0  0  0  0
   39.6036    3.9148    8.8256 C   0  0  0  0  0  0  0  0  0  0  0  0
   36.3285    9.1854    3.4210 C   0  0  1  0  0  0  0  0  0  0  0  0
   39.3381    2.5075    9.1859 N   0  0  0  0  0  0  0  0  0  0  0  0
   35.0076    8.9598    2.9356 O   0  0  0  0  0  0  0  0  0  0  0  0
   40.8132    7.3191    4.4004 C   0  0  2  0  0  0  0  0  0  0  0  0
   40.8829    8.3068    3.3309 N   0  0  0  0  0  0  0  0  0  0  0  0
   37.8178    2.4127   11.1556 C   0  0  0  0  0  0  0  0  0  0  0  0
   36.6945    1.7072   10.3380 C   0  0  0  0  0  0  0  0  0  0  0  0
   39.2430    2.1211   10.6174 C   0  0  0  0  0  0  0  0  0  0  0  0
   35.3329    2.0743   10.8306 N   0  0  0  0  0  0  0  0  0  0  0  0
   44.4955    4.7647    4.3568 O   0  0  0  0  0  0  0  0  0  0  0  0
   36.8581   10.5679    2.9904 C   0  0  2  0  0  0  0  0  0  0  0  0
   36.8657   10.7325    1.5745 O   0  0  0  0  0  0  0  0  0  0  0  0
   39.9541    7.8841    5.5140 C   0  0  2  0  0  0  0  0  0  0  0  0
   38.2785   10.8050    3.5342 C   0  0  2  0  0  0  0  0  0  0  0  0
   38.3185   10.6319    4.9550 O   0  0  0  0  0  0  0  0  0  0  0  0
   39.8364    6.8301    6.6886 C   0  0  2  0  0  0  0  0  0  0  0  0
   39.0190    7.4078    7.7546 O   0  0  0  0  0  0  0  0  0  0  0  0
   38.7852   12.1817    3.1964 C   0  0  0  0  0  0  0  0  0  0  0  0
   40.1124   12.3046    3.5406 O   0  0  0  0  0  0  0  0  0  0  0  0
   41.2727    6.5063    7.2227 C   0  0  1  0  0  0  0  0  0  0  0  0
   41.2461    5.5811    8.2704 O   0  0  0  0  0  0  0  0  0  0  0  0
  1  2  1  6  0  0  0
  1  5  1  0  0  0  0
  1 30  1  0  0  0  0
  3  4  1  1  0  0  0
  3  7  1  0  0  0  0
  3 35  1  0  0  0  0
  5  6  1  6  0  0  0
  5 16  1  0  0  0  0
  7 19  1  0  0  0  0
  8  4  1  0  0  0  0
  8 25  2  0  0  0  0
  9  8  1  6  0  0  0
  9 10  1  0  0  0  0
  9 13  1  0  0  0  0
 10 11  1  0  0  0  0
 11 12  1  0  0  0  0
 14 15  1  0  0  0  0
 14 36  1  0  0  0  0
 15 17  1  0  0  0  0
 16 18  1  1  0  0  0
 16 26  1  0  0  0  0
 17 23  1  0  0  0  0
 19 20  1  6  0  0  0
 19 28  1  0  0  0  0
 21 22  1  0  0  0  0
 21 23  1  0  0  0  0
 22 24  1  0  0  0  0
 26 27  1  6  0  0  0
 26 29  1  0  0  0  0
 28  2  1  6  0  0  0
 28 31  1  0  0  0  0
 29 30  1  0  0  0  0
 29 33  1  1  0  0  0
 31 32  1  1  0  0  0
 31 35  1  0  0  0  0
 33 34  1  0  0  0  0
 35 36  1  1  0  0  0
M  END
>  <CHROM.1>
-159.65112661,-58.67338276,99.01918227,-63.55030662,177.77973289,165.48562652
-60.34588626,78.57400340,82.99489757,-176.54622989,56.36537982,-149.41618020
-172.22239841,-54.90885426,40.10898297,6.54225554,6.16248430,2.07181002,0.20206881
-0.70169136

>  <Name>
2f4u_lig

>  <RI>
0

>  <Rbt.Current_Directory>
/home/itssahil/PROJECTS/Mol_Feturizer/New_Systems/rnas/2f4u

>  <Rbt.Executable>
rbdock ($Id: //depot/dev/client3/rdock/2013.1/src/exe/rbdock.cxx#4 $)

>  <Rbt.Library>
libRbt.so (2013.1, Build901 2013/11/27)

>  <Rbt.Parameter_File>
/export/apps/rDock/src/rDock_2013.1_src/data/scripts/dock_solv.prm

>  <Rbt.Receptor>
prm/pocket_docking_3.prm

>  <SCORE>
-27.6946

>  <SCORE.INTER>
-18.3903

>  <SCORE.INTER.CONST>
1

>  <SCORE.INTER.POLAR>
-1.72666

>  <SCORE.INTER.ROT>
14

>  <SCORE.INTER.SOLV>
18.5456

>  <SCORE.INTER.VDW>
-25.6199

>  <SCORE.INTER.norm>
-0.510842

>  <SCORE.INTRA>
-9.34748

>  <SCORE.INTRA.DIHEDRAL>
-16.765

>  <SCORE.INTRA.DIHEDRAL.0>
26.3805

>  <SCORE.INTRA.POLAR>
0

>  <SCORE.INTRA.POLAR.0>
0

>  <SCORE.INTRA.REPUL>
0

>  <SCORE.INTRA.REPUL.0>
0

>  <SCORE.INTRA.SOLV>
0.893661

>  <SCORE.INTRA.SOLV.lig_0>
-98.5587

>  <SCORE.INTRA.VDW>
-1.4118

>  <SCORE.INTRA.VDW.0>
-2.91167

>  <SCORE.INTRA.norm>
-0.259652

>  <SCORE.RESTR>
0.0432213

>  <SCORE.RESTR.CAVITY>
0.0432213

>  <SCORE.RESTR.norm>
0.00120059

>  <SCORE.SYSTEM>
0

>  <SCORE.SYSTEM.CONST>
0

>  <SCORE.SYSTEM.DIHEDRAL>
0

>  <SCORE.SYSTEM.SOLV>
0

>  <SCORE.SYSTEM.norm>
0

>  <SCORE.heavy>
36

>  <SCORE.norm>
-0.769294

>  <RMSD>
1.445

$$$$
2f4u_lig
 OpenBabel11021811433D
libRbt.so/2013.1/901 2013/11/27
 36 37  0  0  0  0  0  0  0  0999 V2000
   37.6173    9.7695    4.6141 C   0  0  2  0  0  0  0  0  0  0  0  0
   38.5503    8.7402    4.1161 O   0  0  0  0  0  0  0  0  0  0  0  0
   41.1910    5.8467    6.0001 C   0  0  2  0  0  0  0  0  0  0  0  0
   42.2803    5.3003    6.8543 N   0  0  0  0  0  0  0  0  0  0  0  0
   36.4137    9.8010    3.6220 C   0  0  2  0  0  0  0  0  0  0  0  0
   35.7329    8.4976    3.5130 N   0  0  0  0  0  0  0  0  0  0  0  0
   41.7395    6.8648    4.9391 C   0  0  0  0  0  0  0  0  0  0  0  0
   43.3810    4.2607    5.9081 C   0  0  0  0  0  0  0  0  0  0  0  0
   44.0116    3.9662    7.2330 C   0  0  1  0  0  0  0  0  0  0  0  0
   44.8184    2.6727    7.0732 C   0  0  0  0  0  0  0  0  0  0  0  0
   45.5041    2.1477    8.3482 C   0  0  0  0  0  0  0  0  0  0  0  0
   46.3243    0.9882    7.9922 N   0  0  0  0  0  0  0  0  0  0  0  0
   44.9081    4.9854    7.5820 O   0  0  0  0  0  0  0  0  0  0  0  0
   38.9890    5.0694    8.9525 C   0  0  0  0  0  0  0  0  0  0  0  0
   39.4302    5.7951   10.2148 C   0  0  0  0  0  0  0  0  0  0  0  0
   36.9297   10.2563    2.2166 C   0  0  1  0  0  0  0  0  0  0  0  0
   38.5721    5.5404   11.3896 N   0  0  0  0  0  0  0  0  0  0  0  0
   35.8666   10.2910    1.2679 O   0  0  0  0  0  0  0  0  0  0  0  0
   40.5966    7.4665    4.0963 C   0  0  2  0  0  0  0  0  0  0  0  0
   41.1014    8.4456    3.1419 N   0  0  0  0  0  0  0  0  0  0  0  0
   37.4817    4.1349   13.1319 C   0  0  0  0  0  0  0  0  0  0  0  0
   36.0267    4.4504   12.6720 C   0  0  0  0  0  0  0  0  0  0  0  0
   38.5129    4.1757   11.9740 C   0  0  0  0  0  0  0  0  0  0  0  0
   35.5015    3.4126   11.7347 N   0  0  0  0  0  0  0  0  0  0  0  0
   43.4721    3.9600    4.8772 O   0  0  0  0  0  0  0  0  0  0  0  0
   37.5910   11.6404    2.3721 C   0  0  2  0  0  0  0  0  0  0  0  0
   38.1046   12.1411    1.1404 O   0  0  0  0  0  0  0  0  0  0  0  0
   39.5850    8.1534    4.9919 C   0  0  2  0  0  0  0  0  0  0  0  0
   38.7262   11.5924    3.4107 C   0  0  2  0  0  0  0  0  0  0  0  0
   38.2553   11.0773    4.6609 O   0  0  0  0  0  0  0  0  0  0  0  0
   38.9964    7.1156    6.0316 C   0  0  2  0  0  0  0  0  0  0  0  0
   38.0389    7.8084    6.8925 O   0  0  0  0  0  0  0  0  0  0  0  0
   39.3330   12.9507    3.6405 C   0  0  0  0  0  0  0  0  0  0  0  0
   39.9786   13.3883    2.5061 O   0  0  0  0  0  0  0  0  0  0  0  0
   40.1729    6.5354    6.8875 C   0  0  1  0  0  0  0  0  0  0  0  0
   39.7251    5.6107    7.8354 O   0  0  0  0  0  0  0  0  0  0  0  0
  1  2  1  6  0  0  0
  1  5  1  0  0  0  0
  1 30  1  0  0  0  0
  3  4  1  1  0  0  0
  3  7  1  0  0  0  0
  3 35  1  0  0  0  0
  5  6  1  6  0  0  0
  5 16  1  0  0  0  0
  7 19  1  0  0  0  0
  8  4  1  0  0  0  0
  8 25  2  0  0  0  0
  9  8  1  6  0  0  0
  9 10  1  0  0  0  0
  9 13  1  0  0  0  0
 10 11  1  0  0  0  0
 11 12  1  0  0  0  0
 14 15  1  0  0  0  0
 14 36  1  0  0  0  0
 15 17  1  0  0  0  0
 16 18  1  6  0  0  0
 16 26  1  0  0  0  0
 17 23  1  0  0  0  0
 19 20  1  6  0  0  0
 19 28  1  0  0  0  0
 21 22  1  0  0  0  0
 21 23  1  0  0  0  0
 22 24  1  0  0  0  0
 26 27  1  6  0  0  0
 26 29  1  0  0  0  0
 28  2  1  6  0  0  0
 28 31  1  0  0  0  0
 29 30  1  0  0  0  0
 29 33  1  1  0  0  0
 31 32  1  1  0  0  0
 31 35  1  0  0  0  0
 33 34  1  0  0  0  0
 35 36  1  1  0  0  0
M  END
>  <CHROM.1>
-161.53941959,-67.63340553,160.98340035,-177.28758712,-174.80710114,168.23008222
-64.92877493,65.75341648,-176.30432899,64.74240392,62.30105758,-163.70859720
-66.24059746,179.76035847,39.81074971,7.11789337,6.19362908,1.96595246,0.44197291
-0.89913257

>  <Name>
2f4u_lig

>  <RI>
0

>  <Rbt.Current_Directory>
/home/itssahil/PROJECTS/Mol_Feturizer/New_Systems/rnas/2f4u

>  <Rbt.Executable>
rbdock ($Id: //depot/dev/client3/rdock/2013.1/src/exe/rbdock.cxx#4 $)

>  <Rbt.Library>
libRbt.so (2013.1, Build901 2013/11/27)

>  <Rbt.Parameter_File>
/export/apps/rDock/src/rDock_2013.1_src/data/scripts/dock_solv.prm

>  <Rbt.Receptor>
prm/pocket_docking_3.prm

>  <SCORE>
-27.1742

>  <SCORE.INTER>
-16.4941

>  <SCORE.INTER.CONST>
1

>  <SCORE.INTER.POLAR>
-1.80301

>  <SCORE.INTER.ROT>
14

>  <SCORE.INTER.SOLV>
19.8625

>  <SCORE.INTER.VDW>
-24.5402

>  <SCORE.INTER.norm>
-0.45817

>  <SCORE.INTRA>
-10.6801

>  <SCORE.INTRA.DIHEDRAL>
-21.3999

>  <SCORE.INTRA.DIHEDRAL.0>
26.3805

>  <SCORE.INTRA.POLAR>
0

>  <SCORE.INTRA.POLAR.0>
0

>  <SCORE.INTRA.REPUL>
0

>  <SCORE.INTRA.REPUL.0>
0

>  <SCORE.INTRA.SOLV>
0.821653

>  <SCORE.INTRA.SOLV.lig_0>
-98.5587

>  <SCORE.INTRA.VDW>
-0.390962

>  <SCORE.INTRA.VDW.0>
-2.91167

>  <SCORE.INTRA.norm>
-0.296669

>  <SCORE.RESTR>
0

>  <SCORE.RESTR.CAVITY>
0

>  <SCORE.RESTR.norm>
0

>  <SCORE.SYSTEM>
0

>  <SCORE.SYSTEM.CONST>
0

>  <SCORE.SYSTEM.DIHEDRAL>
0

>  <SCORE.SYSTEM.SOLV>
0

>  <SCORE.SYSTEM.norm>
0

>  <SCORE.heavy>
36

>  <SCORE.norm>
-0.754839

>  <RMSD>
1.464

$$$$
2f4u_lig
 OpenBabel11021811433D
libRbt.so/2013.1/901 2013/11/27
 36 37  0  0  0  0  0  0  0  0999 V2000
   37.6195    9.0623    4.8994 C   0  0  2  0  0  0  0  0  0  0  0  0
   38.5576    8.0552    4.3668 O   0  0  0  0  0  0  0  0  0  0  0  0
   41.3019    5.3254    6.3449 C   0  0  2  0  0  0  0  0  0  0  0  0
   42.4779    4.8486    7.1223 N   0  0  0  0  0  0  0  0  0  0  0  0
   36.3452    9.0071    4.0009 C   0  0  2  0  0  0  0  0  0  0  0  0
   35.7167    7.6733    3.9875 N   0  0  0  0  0  0  0  0  0  0  0  0
   41.7359    6.1088    5.0560 C   0  0  0  0  0  0  0  0  0  0  0  0
   43.3527    3.5637    6.2441 C   0  0  0  0  0  0  0  0  0  0  0  0
   44.1654    3.4582    7.4963 C   0  0  1  0  0  0  0  0  0  0  0  0
   44.9820    2.1647    7.3989 C   0  0  0  0  0  0  0  0  0  0  0  0
   46.2415    2.2312    6.5154 C   0  0  0  0  0  0  0  0  0  0  0  0
   45.8261    2.4389    5.1268 N   0  0  0  0  0  0  0  0  0  0  0  0
   45.0695    4.5259    7.5804 O   0  0  0  0  0  0  0  0  0  0  0  0
   39.5789    5.2335    9.6888 C   0  0  0  0  0  0  0  0  0  0  0  0
   39.7415    3.7476    9.9720 C   0  0  0  0  0  0  0  0  0  0  0  0
   36.7347    9.4316    2.5460 C   0  0  1  0  0  0  0  0  0  0  0  0
   39.2307    3.3242   11.2913 N   0  0  0  0  0  0  0  0  0  0  0  0
   35.6036    9.3872    1.6800 O   0  0  0  0  0  0  0  0  0  0  0  0
   40.5115    6.6460    4.2874 C   0  0  2  0  0  0  0  0  0  0  0  0
   40.9164    7.4119    3.1153 N   0  0  0  0  0  0  0  0  0  0  0  0
   37.6544    3.9634   13.1098 C   0  0  0  0  0  0  0  0  0  0  0  0
   38.3269    5.3340   13.4222 C   0  0  0  0  0  0  0  0  0  0  0  0
   37.7984    3.5340   11.6264 C   0  0  0  0  0  0  0  0  0  0  0  0
   37.6900    6.4524   12.6640 N   0  0  0  0  0  0  0  0  0  0  0  0
   43.2626    3.0757    5.2874 O   0  0  0  0  0  0  0  0  0  0  0  0
   37.3437   10.8469    2.6046 C   0  0  2  0  0  0  0  0  0  0  0  0
   37.7416   11.3231    1.3214 O   0  0  0  0  0  0  0  0  0  0  0  0
   39.6809    7.5463    5.1799 C   0  0  2  0  0  0  0  0  0  0  0  0
   38.5539   10.8844    3.5551 C   0  0  2  0  0  0  0  0  0  0  0  0
   38.2005   10.3963    4.8539 O   0  0  0  0  0  0  0  0  0  0  0  0
   39.2031    6.7430    6.4570 C   0  0  2  0  0  0  0  0  0  0  0  0
   38.4209    7.6394    7.3073 O   0  0  0  0  0  0  0  0  0  0  0  0
   39.1153   12.2744    3.6927 C   0  0  0  0  0  0  0  0  0  0  0  0
   38.3828   13.0020    4.6033 O   0  0  0  0  0  0  0  0  0  0  0  0
   40.4637    6.2267    7.2300 C   0  0  1  0  0  0  0  0  0  0  0  0
   40.1169    5.5088    8.3783 O   0  0  0  0  0  0  0  0  0  0  0  0
  1  2  1  6  0  0  0
  1  5  1  0  0  0  0
  1 30  1  0  0  0  0
  3  4  1  1  0  0  0
  3  7  1  0  0  0  0
  3 35  1  0  0  0  0
  5  6  1  6  0  0  0
  5 16  1  0  0  0  0
  7 19  1  0  0  0  0
  8  4  1  0  0  0  0
  8 25  2  0  0  0  0
  9  8  1  6  0  0  0
  9 10  1  0  0  0  0
  9 13  1  0  0  0  0
 10 11  1  0  0  0  0
 11 12  1  0  0  0  0
 14 15  1  0  0  0  0
 14 36  1  0  0  0  0
 15 17  1  0  0  0  0
 16 18  1  6  0  0  0
 16 26  1  0  0  0  0
 17 23  1  0  0  0  0
 19 20  1  6  0  0  0
 19 28  1  0  0  0  0
 21 22  1  0  0  0  0
 21 23  1  0  0  0  0
 22 24  1  0  0  0  0
 26 27  1  6  0  0  0
 26 29  1  0  0  0  0
 28  2  1  6  0  0  0
 28 31  1  0  0  0  0
 29 30  1  0  0  0  0
 29 33  1  1  0  0  0
 31 32  1  1  0  0  0
 31 35  1  0  0  0  0
 33 34  1  0  0  0  0
 35 36  1  1  0  0  0
M  END
>  <CHROM.1>
-161.64231446,-68.75404537,167.27414188,78.75034790,-65.83705006,179.91628823
176.70909374,59.59545845,-141.30884481,63.08043743,63.66487239,-174.38581066
81.58508179,173.29276028,39.92037025,6.66166839,6.37372291,2.15104384,0.57823595
-1.04207116

>  <Name>
2f4u_lig

>  <RI>
0

>  <Rbt.Current_Directory>
/home/itssahil/PROJECTS/Mol_Feturizer/New_Systems/rnas/2f4u

>  <Rbt.Executable>
rbdock ($Id: //depot/dev/client3/rdock/2013.1/src/exe/rbdock.cxx#4 $)

>  <Rbt.Library>
libRbt.so (2013.1, Build901 2013/11/27)

>  <Rbt.Parameter_File>
/export/apps/rDock/src/rDock_2013.1_src/data/scripts/dock_solv.prm

>  <Rbt.Receptor>
prm/pocket_docking_4.prm

>  <SCORE>
-22.8305

>  <SCORE.INTER>
-15.9471

>  <SCORE.INTER.CONST>
1

>  <SCORE.INTER.POLAR>
-1.84128

>  <SCORE.INTER.ROT>
14

>  <SCORE.INTER.SOLV>
16.9676

>  <SCORE.INTER.VDW>
-23.083

>  <SCORE.INTER.norm>
-0.442976

>  <SCORE.INTRA>
-6.89582

>  <SCORE.INTRA.DIHEDRAL>
-19.6823

>  <SCORE.INTRA.DIHEDRAL.0>
26.3805

>  <SCORE.INTRA.POLAR>
0

>  <SCORE.INTRA.POLAR.0>
0

>  <SCORE.INTRA.REPUL>
0

>  <SCORE.INTRA.REPUL.0>
0

>  <SCORE.INTRA.SOLV>
5.48267

>  <SCORE.INTRA.SOLV.lig_0>
-98.5587

>  <SCORE.INTRA.VDW>
0.203974

>  <SCORE.INTRA.VDW.0>
-2.91167

>  <SCORE.INTRA.norm>
-0.191551

>  <SCORE.RESTR>
0.0125015

>  <SCORE.RESTR.CAVITY>
0.0125015

>  <SCORE.RESTR.norm>
0.000347264

>  <SCORE.SYSTEM>
0

>  <SCORE.SYSTEM.CONST>
0

>  <SCORE.SYSTEM.DIHEDRAL>
0

>  <SCORE.SYSTEM.SOLV>
0

>  <SCORE.SYSTEM.norm>
0

>  <SCORE.heavy>
36

>  <SCORE.norm>
-0.634179

>  <RMSD>
1.468

$$$$
2f4u_lig
 OpenBabel11021811433D
libRbt.so/2013.1/901 2013/11/27
 36 37  0  0  0  0  0  0  0  0999 V2000
   38.7342    8.8172    5.9181 C   0  0  2  0  0  0  0  0  0  0  0  0
   39.0939    7.5868    5.1869 O   0  0  0  0  0  0  0  0  0  0  0  0
   41.3118    3.9973    6.2319 C   0  0  2  0  0  0  0  0  0  0  0  0
   42.4430    3.1315    6.6626 N   0  0  0  0  0  0  0  0  0  0  0  0
   37.1770    8.9113    5.8981 C   0  0  2  0  0  0  0  0  0  0  0  0
   36.5290    7.7381    6.5129 N   0  0  0  0  0  0  0  0  0  0  0  0
   41.6634    4.8118    4.9372 C   0  0  0  0  0  0  0  0  0  0  0  0
   43.9214    4.0934    6.9396 C   0  0  0  0  0  0  0  0  0  0  0  0
   44.5789    2.7632    7.1347 C   0  0  1  0  0  0  0  0  0  0  0  0
   45.8790    2.7770    6.3229 C   0  0  0  0  0  0  0  0  0  0  0  0
   46.7497    1.5113    6.4288 C   0  0  0  0  0  0  0  0  0  0  0  0
   47.3072    1.4413    7.7809 N   0  0  0  0  0  0  0  0  0  0  0  0
   44.9214    2.5832    8.4818 O   0  0  0  0  0  0  0  0  0  0  0  0
   40.0836    3.1946    9.3409 C   0  0  0  0  0  0  0  0  0  0  0  0
   38.5844    3.4492    9.3868 C   0  0  0  0  0  0  0  0  0  0  0  0
   36.7001    9.0730    4.4166 C   0  0  1  0  0  0  0  0  0  0  0  0
   38.1950    4.6226   10.1945 N   0  0  0  0  0  0  0  0  0  0  0  0
   35.2790    9.1528    4.3424 O   0  0  0  0  0  0  0  0  0  0  0  0
   40.5059    5.7466    4.5312 C   0  0  2  0  0  0  0  0  0  0  0  0
   40.8503    6.5359    3.3553 N   0  0  0  0  0  0  0  0  0  0  0  0
   36.5265    5.3326   11.9009 C   0  0  0  0  0  0  0  0  0  0  0  0
   35.2524    4.9229   11.1026 C   0  0  0  0  0  0  0  0  0  0  0  0
   37.7537    4.4330   11.6005 C   0  0  0  0  0  0  0  0  0  0  0  0
   34.7223    3.5973   11.5420 N   0  0  0  0  0  0  0  0  0  0  0  0
   44.1877    5.1371    6.9057 O   0  0  0  0  0  0  0  0  0  0  0  0
   37.3660   10.3347    3.8318 C   0  0  2  0  0  0  0  0  0  0  0  0
   36.9995   10.5655    2.4738 O   0  0  0  0  0  0  0  0  0  0  0  0
   40.1744    6.6990    5.6627 C   0  0  2  0  0  0  0  0  0  0  0  0
   38.8993   10.2425    3.9326 C   0  0  2  0  0  0  0  0  0  0  0  0
   39.3099    9.9931    5.2815 O   0  0  0  0  0  0  0  0  0  0  0  0
   39.7737    5.8784    6.9551 C   0  0  2  0  0  0  0  0  0  0  0  0
   39.4774    6.8203    8.0336 O   0  0  0  0  0  0  0  0  0  0  0  0
   39.5695   11.4985    3.4432 C   0  0  0  0  0  0  0  0  0  0  0  0
   39.3430   11.6722    2.0965 O   0  0  0  0  0  0  0  0  0  0  0  0
   40.9720    4.9536    7.3580 C   0  0  1  0  0  0  0  0  0  0  0  0
   40.6904    4.1986    8.5003 O   0  0  0  0  0  0  0  0  0  0  0  0
  1  2  1  6  0  0  0
  1  5  1  0  0  0  0
  1 30  1  0  0  0  0
  3  4  1  1  0  0  0
  3  7  1  0  0  0  0
  3 35  1  0  0  0  0
  5  6  1  6  0  0  0
  5 16  1  0  0  0  0
  7 19  1  0  0  0  0
  8  4  1  0  0  0  0
  8 25  2  0  0  0  0
  9  8  1  1  0  0  0
  9 10  1  0  0  0  0
  9 13  1  0  0  0  0
 10 11  1  0  0  0  0
 11 12  1  0  0  0  0
 14 15  1  0  0  0  0
 14 36  1  0  0  0  0
 15 17  1  0  0  0  0
 16 18  1  1  0  0  0
 16 26  1  0  0  0  0
 17 23  1  0  0  0  0
 19 20  1  6  0  0  0
 19 28  1  0  0  0  0
 21 22  1  0  0  0  0
 21 23  1  0  0  0  0
 22 24  1  0  0  0  0
 26 27  1  6  0  0  0
 26 29  1  0  0  0  0
 28  2  1  6  0  0  0
 28 31  1  0  0  0  0
 29 30  1  0  0  0  0
 29 33  1  1  0  0  0
 31 32  1  1  0  0  0
 31 35  1  0  0  0  0
 33 34  1  0  0  0  0
 35 36  1  1  0  0  0
M  END
>  <CHROM.1>
-139.38328620,57.08487596,133.36315895,177.63687316,-69.04082152,-73.04288949
-60.78119442,-97.06231873,-137.86965958,67.64116145,66.46125879,-166.33410860
-65.12041310,-52.37966231,40.03132612,6.09944370,6.67155519,-2.35177958,-0.42403608
2.30528105

>  <Name>
2f4u_lig

>  <RI>
0

>  <Rbt.Current_Directory>
/home/itssahil/PROJECTS/Mol_Feturizer/New_Systems/rnas/2f4u

>  <Rbt.Executable>
rbdock ($Id: //depot/dev/client3/rdock/2013.1/src/exe/rbdock.cxx#4 $)

>  <Rbt.Library>
libRbt.so (2013.1, Build901 2013/11/27)

>  <Rbt.Parameter_File>
/export/apps/rDock/src/rDock_2013.1_src/data/scripts/dock_solv.prm

>  <Rbt.Receptor>
prm/pocket_docking_2.prm

>  <SCORE>
-8.41483

>  <SCORE.INTER>
-2.62337

>  <SCORE.INTER.CONST>
1

>  <SCORE.INTER.POLAR>
-0.717693

>  <SCORE.INTER.ROT>
14

>  <SCORE.INTER.SOLV>
10.0337

>  <SCORE.INTER.VDW>
-15.6345

>  <SCORE.INTER.norm>
-0.0728715

>  <SCORE.INTRA>
-6.17194

>  <SCORE.INTRA.DIHEDRAL>
-14.3045

>  <SCORE.INTRA.DIHEDRAL.0>
26.3805

>  <SCORE.INTRA.POLAR>
0

>  <SCORE.INTRA.POLAR.0>
0

>  <SCORE.INTRA.REPUL>
0

>  <SCORE.INTRA.REPUL.0>
0

>  <SCORE.INTRA.SOLV>
5.14163

>  <SCORE.INTRA.SOLV.lig_0>
-98.5587

>  <SCORE.INTRA.VDW>
-1.5905

>  <SCORE.INTRA.VDW.0>
-2.91167

>  <SCORE.INTRA.norm>
-0.171443

>  <SCORE.RESTR>
0.380479

>  <SCORE.RESTR.CAVITY>
0.380479

>  <SCORE.RESTR.norm>
0.0105689

>  <SCORE.SYSTEM>
0

>  <SCORE.SYSTEM.CONST>
0

>  <SCORE.SYSTEM.DIHEDRAL>
0

>  <SCORE.SYSTEM.SOLV>
0

>  <SCORE.SYSTEM.norm>
0

>  <SCORE.heavy>
36

>  <SCORE.norm>
-0.233745

>  <RMSD>
1.488

$$$$
2f4u_lig
 OpenBabel11021811433D
libRbt.so/2013.1/901 2013/11/27
 36 37  0  0  0  0  0  0  0  0999 V2000
   37.9908    8.8300    5.6088 C   0  0  2  0  0  0  0  0  0  0  0  0
   38.4317    7.5814    4.9571 O   0  0  0  0  0  0  0  0  0  0  0  0
   41.1909    4.5428    6.3885 C   0  0  2  0  0  0  0  0  0  0  0  0
   42.4755    3.8732    6.7291 N   0  0  0  0  0  0  0  0  0  0  0  0
   36.4622    8.9664    5.3280 C   0  0  2  0  0  0  0  0  0  0  0  0
   35.6868    7.8189    5.8344 N   0  0  0  0  0  0  0  0  0  0  0  0
   41.1080    4.8993    4.8623 C   0  0  0  0  0  0  0  0  0  0  0  0
   43.8707    4.8178    6.1387 C   0  0  0  0  0  0  0  0  0  0  0  0
   44.6782    3.6450    6.5994 C   0  0  1  0  0  0  0  0  0  0  0  0
   45.9260    3.5773    5.7118 C   0  0  0  0  0  0  0  0  0  0  0  0
   46.8827    2.4026    5.9876 C   0  0  0  0  0  0  0  0  0  0  0  0
   48.1807    2.7070    5.3822 N   0  0  0  0  0  0  0  0  0  0  0  0
   45.1064    3.8382    7.9199 O   0  0  0  0  0  0  0  0  0  0  0  0
   41.1671    5.6003   10.0001 C   0  0  0  0  0  0  0  0  0  0  0  0
   39.8393    6.2128   10.4202 C   0  0  0  0  0  0  0  0  0  0  0  0
   36.2442    9.1232    3.7864 C   0  0  1  0  0  0  0  0  0  0  0  0
   38.7078    5.2637   10.4167 N   0  0  0  0  0  0  0  0  0  0  0  0
   34.8583    9.2409    3.4751 O   0  0  0  0  0  0  0  0  0  0  0  0
   39.7976    5.6418    4.5303 C   0  0  2  0  0  0  0  0  0  0  0  0
   39.7415    6.0128    3.1219 N   0  0  0  0  0  0  0  0  0  0  0  0
   37.9699    4.4926   12.6664 C   0  0  0  0  0  0  0  0  0  0  0  0
   36.4208    4.3653   12.5561 C   0  0  0  0  0  0  0  0  0  0  0  0
   38.7108    4.1137   11.3574 C   0  0  0  0  0  0  0  0  0  0  0  0
   35.8579    5.2904   11.5271 N   0  0  0  0  0  0  0  0  0  0  0  0
   44.0148    5.7581    5.6322 O   0  0  0  0  0  0  0  0  0  0  0  0
   37.0347   10.3590    3.3120 C   0  0  2  0  0  0  0  0  0  0  0  0
   36.9069   10.5833    1.9102 O   0  0  0  0  0  0  0  0  0  0  0  0
   39.6817    6.9051    5.3597 C   0  0  2  0  0  0  0  0  0  0  0  0
   38.5263   10.2261    3.6685 C   0  0  2  0  0  0  0  0  0  0  0  0
   38.6985    9.9819    5.0688 O   0  0  0  0  0  0  0  0  0  0  0  0
   39.7175    6.5416    6.8995 C   0  0  2  0  0  0  0  0  0  0  0  0
   39.6224    7.7782    7.6740 O   0  0  0  0  0  0  0  0  0  0  0  0
   39.3049   11.4573    3.2889 C   0  0  0  0  0  0  0  0  0  0  0  0
   38.8722   12.5439    4.0148 O   0  0  0  0  0  0  0  0  0  0  0  0
   41.0651    5.8079    7.2142 C   0  0  1  0  0  0  0  0  0  0  0  0
   41.1693    5.4592    8.5639 O   0  0  0  0  0  0  0  0  0  0  0  0
  1  2  1  6  0  0  0
  1  5  1  0  0  0  0
  1 30  1  0  0  0  0
  3  4  1  6  0  0  0
  3  7  1  0  0  0  0
  3 35  1  0  0  0  0
  5  6  1  6  0  0  0
  5 16  1  0  0  0  0
  7 19  1  0  0  0  0
  8  4  1  0  0  0  0
  8 25  2  0  0  0  0
  9  8  1  6  0  0  0
  9 10  1  0  0  0  0
  9 13  1  0  0  0  0
 10 11  1  0  0  0  0
 11 12  1  0  0  0  0
 14 15  1  0  0  0  0
 14 36  1  0  0  0  0
 15 17  1  0  0  0  0
 16 18  1  1  0  0  0
 16 26  1  0  0  0  0
 17 23  1  0  0  0  0
 19 20  1  6  0  0  0
 19 28  1  0  0  0  0
 21 22  1  0  0  0  0
 21 23  1  0  0  0  0
 22 24  1  0  0  0  0
 26 27  1  6  0  0  0
 26 29  1  0  0  0  0
 28  2  1  1  0  0  0
 28 31  1  0  0  0  0
 29 30  1  0  0  0  0
 29 33  1  1  0  0  0
 31 32  1  1  0  0  0
 31 35  1  0  0  0  0
 33 34  1  0  0  0  0
 35 36  1  1  0  0  0
M  END
>  <CHROM.1>
-159.99268111,51.93114940,151.06706032,-178.05921081,-162.37670523,77.11404140
54.30799704,64.54071267,92.58158147,-62.21450630,82.02651610,177.94127068
64.02086012,-174.67501029,40.04359501,6.60642219,6.48822772,-2.48971057,-0.45491942
2.12460871

>  <Name>
2f4u_lig

>  <RI>
0

>  <Rbt.Current_Directory>
/home/itssahil/PROJECTS/Mol_Feturizer/New_Systems/rnas/2f4u

>  <Rbt.Executable>
rbdock ($Id: //depot/dev/client3/rdock/2013.1/src/exe/rbdock.cxx#4 $)

>  <Rbt.Library>
libRbt.so (2013.1, Build901 2013/11/27)

>  <Rbt.Parameter_File>
/export/apps/rDock/src/rDock_2013.1_src/data/scripts/dock_solv.prm

>  <Rbt.Receptor>
prm/pocket_docking_3.prm

>  <SCORE>
-19.9957

>  <SCORE.INTER>
-11.7025

>  <SCORE.INTER.CONST>
1

>  <SCORE.INTER.POLAR>
-1.57001

>  <SCORE.INTER.ROT>
14

>  <SCORE.INTER.SOLV>
11.7914

>  <SCORE.INTER.VDW>
-19.4321

>  <SCORE.INTER.norm>
-0.32507

>  <SCORE.INTRA>
-8.46679

>  <SCORE.INTRA.DIHEDRAL>
-18.1419

>  <SCORE.INTRA.DIHEDRAL.0>
26.3805

>  <SCORE.INTRA.POLAR>
0

>  <SCORE.INTRA.POLAR.0>
0

>  <SCORE.INTRA.REPUL>
0

>  <SCORE.INTRA.REPUL.0>
0

>  <SCORE.INTRA.SOLV>
2.84957

>  <SCORE.INTRA.SOLV.lig_0>
-98.5587

>  <SCORE.INTRA.VDW>
-0.820621

>  <SCORE.INTRA.VDW.0>
-2.91167

>  <SCORE.INTRA.norm>
-0.235189

>  <SCORE.RESTR>
0.173567

>  <SCORE.RESTR.CAVITY>
0.173567

>  <SCORE.RESTR.norm>
0.00482132

>  <SCORE.SYSTEM>
0

>  <SCORE.SYSTEM.CONST>
0

>  <SCORE.SYSTEM.DIHEDRAL>
0

>  <SCORE.SYSTEM.SOLV>
0

>  <SCORE.SYSTEM.norm>
0

>  <SCORE.heavy>
36

>  <SCORE.norm>
-0.555437

>  <RMSD>
1.492

$$$$
2f4u_lig
 OpenBabel11021811433D
libRbt.so/2013.1/901 2013/11/27
 36 37  0  0  0  0  0  0  0  0999 V2000
   37.2991    9.0827    5.7016 C   0  0  2  0  0  0  0  0  0  0  0  0
   37.9452    7.8416    5.2326 O   0  0  0  0  0  0  0  0  0  0  0  0
   40.9262    5.2545    7.0535 C   0  0  2  0  0  0  0  0  0  0  0  0
   42.2384    4.7952    7.5846 N   0  0  0  0  0  0  0  0  0  0  0  0
   35.8266    9.0433    5.1875 C   0  0  2  0  0  0  0  0  0  0  0  0
   35.0873    7.8627    5.6711 N   0  0  0  0  0  0  0  0  0  0  0  0
   41.0172    5.6424    5.5355 C   0  0  0  0  0  0  0  0  0  0  0  0
   42.9815    3.5826    6.5054 C   0  0  0  0  0  0  0  0  0  0  0  0
   44.0103    3.4607    7.5855 C   0  0  1  0  0  0  0  0  0  0  0  0
   44.9128    2.2769    7.2201 C   0  0  0  0  0  0  0  0  0  0  0  0
   45.9928    1.9119    8.2553 C   0  0  0  0  0  0  0  0  0  0  0  0
   46.7826    0.7961    7.7308 N   0  0  0  0  0  0  0  0  0  0  0  0
   44.8121    4.6096    7.6250 O   0  0  0  0  0  0  0  0  0  0  0  0
   40.8342    5.5091   10.4637 C   0  0  0  0  0  0  0  0  0  0  0  0
   40.8030    3.9936   10.3334 C   0  0  0  0  0  0  0  0  0  0  0  0
   35.8375    9.0661    3.6228 C   0  0  1  0  0  0  0  0  0  0  0  0
   39.4737    3.3941   10.5673 N   0  0  0  0  0  0  0  0  0  0  0  0
   34.5119    9.0204    3.1013 O   0  0  0  0  0  0  0  0  0  0  0  0
   39.6665    6.1691    5.0094 C   0  0  2  0  0  0  0  0  0  0  0  0
   39.7633    6.5718    3.6119 N   0  0  0  0  0  0  0  0  0  0  0  0
   37.9962    1.4545   11.0725 C   0  0  0  0  0  0  0  0  0  0  0  0
   36.6923    2.1329   10.5550 C   0  0  0  0  0  0  0  0  0  0  0  0
   39.2729    1.9400   10.3376 C   0  0  0  0  0  0  0  0  0  0  0  0
   36.4319    1.8159    9.1187 N   0  0  0  0  0  0  0  0  0  0  0  0
   42.7360    3.1296    5.5589 O   0  0  0  0  0  0  0  0  0  0  0  0
   36.5790   10.3381    3.1654 C   0  0  2  0  0  0  0  0  0  0  0  0
   36.6510   10.4470    1.7460 O   0  0  0  0  0  0  0  0  0  0  0  0
   39.2153    7.3680    5.8195 C   0  0  2  0  0  0  0  0  0  0  0  0
   38.0030   10.3827    3.7483 C   0  0  2  0  0  0  0  0  0  0  0  0
   37.9767   10.2585    5.1745 O   0  0  0  0  0  0  0  0  0  0  0  0
   39.0776    6.9649    7.3436 C   0  0  2  0  0  0  0  0  0  0  0  0
   38.6595    8.1427    8.1026 O   0  0  0  0  0  0  0  0  0  0  0  0
   38.7184   11.6558    3.3829 C   0  0  0  0  0  0  0  0  0  0  0  0
   40.0533   11.5687    3.7077 O   0  0  0  0  0  0  0  0  0  0  0  0
   40.4657    6.4537    7.8585 C   0  0  1  0  0  0  0  0  0  0  0  0
   40.4210    6.0827    9.2055 O   0  0  0  0  0  0  0  0  0  0  0  0
  1  2  1  6  0  0  0
  1  5  1  0  0  0  0
  1 30  1  0  0  0  0
  3  4  1  1  0  0  0
  3  7  1  0  0  0  0
  3 35  1  0  0  0  0
  5  6  1  6  0  0  0
  5 16  1  0  0  0  0
  7 19  1  0  0  0  0
  8  4  1  0  0  0  0
  8 25  2  0  0  0  0
  9  8  1  6  0  0  0
  9 10  1  0  0  0  0
  9 13  1  0  0  0  0
 10 11  1  0  0  0  0
 11 12  1  0  0  0  0
 14 15  1  0  0  0  0
 14 36  1  0  0  0  0
 15 17  1  0  0  0  0
 16 18  1  1  0  0  0
 16 26  1  0  0  0  0
 17 23  1  0  0  0  0
 19 20  1  6  0  0  0
 19 28  1  0  0  0  0
 21 22  1  0  0  0  0
 21 23  1  0  0  0  0
 22 24  1  0  0  0  0
 26 27  1  6  0  0  0
 26 29  1  0  0  0  0
 28  2  1  6  0  0  0
 28 31  1  0  0  0  0
 29 30  1  0  0  0  0
 29 33  1  1  0  0  0
 31 32  1  1  0  0  0
 31 35  1  0  0  0  0
 33 34  1  0  0  0  0
 35 36  1  1  0  0  0
M  END
>  <CHROM.1>
-163.61773136,-48.45266946,172.01176590,-176.02161442,-178.28131472,-84.20432744
-70.19268310,173.86609541,161.24336585,62.54598025,62.53797678,-173.83761298
-169.28268890,46.36028624,39.70564183,6.15210001,6.63464359,2.16969141,0.23941681
-0.75205844

>  <Name>
2f4u_lig

>  <RI>
0

>  <Rbt.Current_Directory>
/home/itssahil/PROJECTS/Mol_Feturizer/New_Systems/rnas/2f4u

>  <Rbt.Executable>
rbdock ($Id: //depot/dev/client3/rdock/2013.1/src/exe/rbdock.cxx#4 $)

>  <Rbt.Library>
libRbt.so (2013.1, Build901 2013/11/27)

>  <Rbt.Parameter_File>
/export/apps/rDock/src/rDock_2013.1_src/data/scripts/dock_solv.prm

>  <Rbt.Receptor>
prm/pocket_docking_4.prm

>  <SCORE>
-28.3224

>  <SCORE.INTER>
-18.2298

>  <SCORE.INTER.CONST>
1

>  <SCORE.INTER.POLAR>
-1.84156

>  <SCORE.INTER.ROT>
14

>  <SCORE.INTER.SOLV>
15.9515

>  <SCORE.INTER.VDW>
-24.2652

>  <SCORE.INTER.norm>
-0.506383

>  <SCORE.INTRA>
-10.0926

>  <SCORE.INTRA.DIHEDRAL>
-19.8484

>  <SCORE.INTRA.DIHEDRAL.0>
26.3805

>  <SCORE.INTRA.POLAR>
0

>  <SCORE.INTRA.POLAR.0>
0

>  <SCORE.INTRA.REPUL>
0

>  <SCORE.INTRA.REPUL.0>
0

>  <SCORE.INTRA.SOLV>
0.89277

>  <SCORE.INTRA.SOLV.lig_0>
-98.5587

>  <SCORE.INTRA.VDW>
-0.614828

>  <SCORE.INTRA.VDW.0>
-2.91167

>  <SCORE.INTRA.norm>
-0.280351

>  <SCORE.RESTR>
0

>  <SCORE.RESTR.CAVITY>
0

>  <SCORE.RESTR.norm>
0

>  <SCORE.SYSTEM>
0

>  <SCORE.SYSTEM.CONST>
0

>  <SCORE.SYSTEM.DIHEDRAL>
0

>  <SCORE.SYSTEM.SOLV>
0

>  <SCORE.SYSTEM.norm>
0

>  <SCORE.heavy>
36

>  <SCORE.norm>
-0.786733

>  <RMSD>
1.504

$$$$
2f4u_lig
 OpenBabel11021811433D
libRbt.so/2013.1/901 2013/11/27
 36 37  0  0  0  0  0  0  0  0999 V2000
   38.3479    9.0210    5.5007 C   0  0  2  0  0  0  0  0  0  0  0  0
   38.8011    7.8216    4.7700 O   0  0  0  0  0  0  0  0  0  0  0  0
   41.1351    4.3544    5.9644 C   0  0  2  0  0  0  0  0  0  0  0  0
   42.2967    3.5439    6.4212 N   0  0  0  0  0  0  0  0  0  0  0  0
   36.8214    9.1697    5.2149 C   0  0  2  0  0  0  0  0  0  0  0  0
   36.0469    7.9872    5.6344 N   0  0  0  0  0  0  0  0  0  0  0  0
   41.4443    5.1092    4.6235 C   0  0  0  0  0  0  0  0  0  0  0  0
   43.7542    4.5571    6.6117 C   0  0  0  0  0  0  0  0  0  0  0  0
   44.4501    3.2576    6.8699 C   0  0  1  0  0  0  0  0  0  0  0  0
   45.6527    3.1914    5.9219 C   0  0  0  0  0  0  0  0  0  0  0  0
   46.5754    4.4242    5.9213 C   0  0  0  0  0  0  0  0  0  0  0  0
   46.7517    4.8748    7.3033 N   0  0  0  0  0  0  0  0  0  0  0  0
   44.9412    3.2215    8.1821 O   0  0  0  0  0  0  0  0  0  0  0  0
   40.2630    4.4173    9.6246 C   0  0  0  0  0  0  0  0  0  0  0  0
   39.5877    3.0600    9.7525 C   0  0  0  0  0  0  0  0  0  0  0  0
   36.6173    9.4302    3.6855 C   0  0  1  0  0  0  0  0  0  0  0  0
   39.1463    2.7313   11.1230 N   0  0  0  0  0  0  0  0  0  0  0  0
   35.2339    9.5630    3.3693 O   0  0  0  0  0  0  0  0  0  0  0  0
   40.2549    5.9891    4.1882 C   0  0  2  0  0  0  0  0  0  0  0  0
   40.5594    6.7248    2.9674 N   0  0  0  0  0  0  0  0  0  0  0  0
   36.6679    2.8952   10.9482 C   0  0  0  0  0  0  0  0  0  0  0  0
   36.3006    3.9302   12.0537 C   0  0  0  0  0  0  0  0  0  0  0  0
   37.8724    1.9946   11.3276 C   0  0  0  0  0  0  0  0  0  0  0  0
   35.1398    4.7819   11.6555 N   0  0  0  0  0  0  0  0  0  0  0  0
   43.9924    5.6034    6.5119 O   0  0  0  0  0  0  0  0  0  0  0  0
   37.4063   10.6987    3.3040 C   0  0  2  0  0  0  0  0  0  0  0  0
   37.2907   11.0174    1.9195 O   0  0  0  0  0  0  0  0  0  0  0  0
   39.9132    6.9901    5.2737 C   0  0  2  0  0  0  0  0  0  0  0  0
   38.8950   10.5482    3.6652 C   0  0  2  0  0  0  0  0  0  0  0  0
   39.0551   10.2100    5.0473 O   0  0  0  0  0  0  0  0  0  0  0  0
   39.5551    6.2278    6.6135 C   0  0  2  0  0  0  0  0  0  0  0  0
   39.2482    7.2165    7.6461 O   0  0  0  0  0  0  0  0  0  0  0  0
   39.6712   11.8056    3.3779 C   0  0  0  0  0  0  0  0  0  0  0  0
   39.7548   12.0208    2.0207 O   0  0  0  0  0  0  0  0  0  0  0  0
   40.7849    5.3588    7.0445 C   0  0  1  0  0  0  0  0  0  0  0  0
   40.5417    4.6573    8.2290 O   0  0  0  0  0  0  0  0  0  0  0  0
  1  2  1  6  0  0  0
  1  5  1  0  0  0  0
  1 30  1  0  0  0  0
  3  4  1  1  0  0  0
  3  7  1  0  0  0  0
  3 35  1  0  0  0  0
  5  6  1  6  0  0  0
  5 16  1  0  0  0  0
  7 19  1  0  0  0  0
  8  4  1  0  0  0  0
  8 25  2  0  0  0  0
  9  8  1  1  0  0  0
  9 10  1  0  0  0  0
  9 13  1  0  0  0  0
 10 11  1  0  0  0  0
 11 12  1  0  0  0  0
 14 15  1  0  0  0  0
 14 36  1  0  0  0  0
 15 17  1  0  0  0  0
 16 18  1  1  0  0  0
 16 26  1  0  0  0  0
 17 23  1  0  0  0  0
 19 20  1  6  0  0  0
 19 28  1  0  0  0  0
 21 22  1  0  0  0  0
 21 23  1  0  0  0  0
 22 24  1  0  0  0  0
 26 27  1  6  0  0  0
 26 29  1  0  0  0  0
 28  2  1  6  0  0  0
 28 31  1  0  0  0  0
 29 30  1  0  0  0  0
 29 33  1  1  0  0  0
 31 32  1  1  0  0  0
 31 35  1  0  0  0  0
 33 34  1  0  0  0  0
 35 36  1  1  0  0  0
M  END
>  <CHROM.1>
-149.28680145,56.64862395,127.43363030,50.62455578,41.27942057,-175.34159933
154.56779265,142.85113530,-68.85725728,179.88496533,-78.93358067,-171.22704085
-68.53280277,174.12925658,40.01345705,6.38481419,6.38333905,2.03845639,0.31694591
-0.81537919

>  <Name>
2f4u_lig

>  <RI>
0

>  <Rbt.Current_Directory>
/home/itssahil/PROJECTS/Mol_Feturizer/New_Systems/rnas/2f4u

>  <Rbt.Executable>
rbdock ($Id: //depot/dev/client3/rdock/2013.1/src/exe/rbdock.cxx#4 $)

>  <Rbt.Library>
libRbt.so (2013.1, Build901 2013/11/27)

>  <Rbt.Parameter_File>
/export/apps/rDock/src/rDock_2013.1_src/data/scripts/dock_solv.prm

>  <Rbt.Receptor>
prm/pocket_docking_2.prm

>  <SCORE>
-16.4721

>  <SCORE.INTER>
-13.1723

>  <SCORE.INTER.CONST>
1

>  <SCORE.INTER.POLAR>
-2.06247

>  <SCORE.INTER.ROT>
14

>  <SCORE.INTER.SOLV>
16.1451

>  <SCORE.INTER.VDW>
-20.2217

>  <SCORE.INTER.norm>
-0.365897

>  <SCORE.INTRA>
-4.10111

>  <SCORE.INTRA.DIHEDRAL>
-12.9714

>  <SCORE.INTRA.DIHEDRAL.0>
26.3805

>  <SCORE.INTRA.POLAR>
0

>  <SCORE.INTRA.POLAR.0>
0

>  <SCORE.INTRA.REPUL>
0

>  <SCORE.INTRA.REPUL.0>
0

>  <SCORE.INTRA.SOLV>
4.29696

>  <SCORE.INTRA.SOLV.lig_0>
-98.5587

>  <SCORE.INTRA.VDW>
0.236136

>  <SCORE.INTRA.VDW.0>
-2.91167

>  <SCORE.INTRA.norm>
-0.11392

>  <SCORE.RESTR>
0.801359

>  <SCORE.RESTR.CAVITY>
0.801359

>  <SCORE.RESTR.norm>
0.02226

>  <SCORE.SYSTEM>
0

>  <SCORE.SYSTEM.CONST>
0

>  <SCORE.SYSTEM.DIHEDRAL>
0

>  <SCORE.SYSTEM.SOLV>
0

>  <SCORE.SYSTEM.norm>
0

>  <SCORE.heavy>
36

>  <SCORE.norm>
-0.457557

>  <RMSD>
1.505

$$$$
2f4u_lig
 OpenBabel11021811433D
libRbt.so/2013.1/901 2013/11/27
 36 37  0  0  0  0  0  0  0  0999 V2000
   37.4971    8.7261    5.9385 C   0  0  2  0  0  0  0  0  0  0  0  0
   37.9923    7.4221    5.4564 O   0  0  0  0  0  0  0  0  0  0  0  0
   41.0051    4.5939    6.8051 C   0  0  2  0  0  0  0  0  0  0  0  0
   42.3293    4.0590    7.2236 N   0  0  0  0  0  0  0  0  0  0  0  0
   35.9811    8.7917    5.5758 C   0  0  2  0  0  0  0  0  0  0  0  0
   35.2050    7.6913    6.1765 N   0  0  0  0  0  0  0  0  0  0  0  0
   41.0497    5.1846    5.3518 C   0  0  0  0  0  0  0  0  0  0  0  0
   43.6614    5.0443    6.5587 C   0  0  0  0  0  0  0  0  0  0  0  0
   44.5448    3.9858    7.1407 C   0  0  1  0  0  0  0  0  0  0  0  0
   44.6901    2.8853    6.0838 C   0  0  0  0  0  0  0  0  0  0  0  0
   45.5952    1.7004    6.4687 C   0  0  0  0  0  0  0  0  0  0  0  0
   45.5607    0.7165    5.3848 N   0  0  0  0  0  0  0  0  0  0  0  0
   45.8225    4.5035    7.3932 O   0  0  0  0  0  0  0  0  0  0  0  0
   40.5798    5.0571   10.5075 C   0  0  0  0  0  0  0  0  0  0  0  0
   39.3300    5.7570   11.0202 C   0  0  0  0  0  0  0  0  0  0  0  0
   35.8332    8.7650    4.0182 C   0  0  1  0  0  0  0  0  0  0  0  0
   38.0752    5.0250   10.7543 N   0  0  0  0  0  0  0  0  0  0  0  0
   34.4616    8.8121    3.6337 O   0  0  0  0  0  0  0  0  0  0  0  0
   39.6878    5.7858    4.9488 C   0  0  2  0  0  0  0  0  0  0  0  0
   39.7423    6.3747    3.6167 N   0  0  0  0  0  0  0  0  0  0  0  0
   36.4966    4.1543   12.4719 C   0  0  0  0  0  0  0  0  0  0  0  0
   35.2824    4.7133   11.6709 C   0  0  0  0  0  0  0  0  0  0  0  0
   37.7266    3.8404   11.5806 C   0  0  0  0  0  0  0  0  0  0  0  0
   34.6797    3.6780   10.7786 N   0  0  0  0  0  0  0  0  0  0  0  0
   43.7449    5.9393    5.9642 O   0  0  0  0  0  0  0  0  0  0  0  0
   36.6214    9.9571    3.4396 C   0  0  2  0  0  0  0  0  0  0  0  0
   36.5557   10.0157    2.0169 O   0  0  0  0  0  0  0  0  0  0  0  0
   39.2761    6.8656    5.9295 C   0  0  2  0  0  0  0  0  0  0  0  0
   38.0967    9.9027    3.8754 C   0  0  2  0  0  0  0  0  0  0  0  0
   38.2073    9.8253    5.3008 O   0  0  0  0  0  0  0  0  0  0  0  0
   39.1849    6.2594    7.3884 C   0  0  2  0  0  0  0  0  0  0  0  0
   38.8045    7.3252    8.3144 O   0  0  0  0  0  0  0  0  0  0  0  0
   38.8686   11.1009    3.3908 C   0  0  0  0  0  0  0  0  0  0  0  0
   40.1997   10.9824    3.7212 O   0  0  0  0  0  0  0  0  0  0  0  0
   40.5840    5.6748    7.7811 C   0  0  1  0  0  0  0  0  0  0  0  0
   40.5801    5.1240    9.0659 O   0  0  0  0  0  0  0  0  0  0  0  0
  1  2  1  6  0  0  0
  1  5  1  0  0  0  0
  1 30  1  0  0  0  0
  3  4  1  1  0  0  0
  3  7  1  0  0  0  0
  3 35  1  0  0  0  0
  5  6  1  1  0  0  0
  5 16  1  0  0  0  0
  7 19  1  0  0  0  0
  8  4  1  0  0  0  0
  8 25  2  0  0  0  0
  9  8  1  6  0  0  0
  9 10  1  0  0  0  0
  9 13  1  0  0  0  0
 10 11  1  0  0  0  0
 11 12  1  0  0  0  0
 14 15  1  0  0  0  0
 14 36  1  0  0  0  0
 15 17  1  0  0  0  0
 16 18  1  1  0  0  0
 16 26  1  0  0  0  0
 17 23  1  0  0  0  0
 19 20  1  6  0  0  0
 19 28  1  0  0  0  0
 21 22  1  0  0  0  0
 21 23  1  0  0  0  0
 22 24  1  0  0  0  0
 26 27  1  6  0  0  0
 26 29  1  0  0  0  0
 28  2  1  6  0  0  0
 28 31  1  0  0  0  0
 29 30  1  0  0  0  0
 29 33  1  1  0  0  0
 31 32  1  1  0  0  0
 31 35  1  0  0  0  0
 33 34  1  0  0  0  0
 35 36  1  1  0  0  0
M  END
>  <CHROM.1>
-163.75198492,35.25114964,87.54961316,178.66666086,176.86882825,70.73102782
60.36735312,76.21049430,111.55681713,68.61030337,52.49412967,-162.40902887
-176.14009648,162.66971940,39.54195831,6.32144877,6.72796116,-2.46991738
-0.40876557,2.18635605

>  <Name>
2f4u_lig

>  <RI>
0

>  <Rbt.Current_Directory>
/home/itssahil/PROJECTS/Mol_Feturizer/New_Systems/rnas/2f4u

>  <Rbt.Executable>
rbdock ($Id: //depot/dev/client3/rdock/2013.1/src/exe/rbdock.cxx#4 $)

>  <Rbt.Library>
libRbt.so (2013.1, Build901 2013/11/27)

>  <Rbt.Parameter_File>
/export/apps/rDock/src/rDock_2013.1_src/data/scripts/dock_solv.prm

>  <Rbt.Receptor>
prm/pocket_docking_2.prm

>  <SCORE>
-14.3059

>  <SCORE.INTER>
-7.39727

>  <SCORE.INTER.CONST>
1

>  <SCORE.INTER.POLAR>
-1.07778

>  <SCORE.INTER.ROT>
14

>  <SCORE.INTER.SOLV>
10.529

>  <SCORE.INTER.VDW>
-17.7819

>  <SCORE.INTER.norm>
-0.20548

>  <SCORE.INTRA>
-8.25803

>  <SCORE.INTRA.DIHEDRAL>
-17.8968

>  <SCORE.INTRA.DIHEDRAL.0>
26.3805

>  <SCORE.INTRA.POLAR>
0

>  <SCORE.INTRA.POLAR.0>
0

>  <SCORE.INTRA.REPUL>
0

>  <SCORE.INTRA.REPUL.0>
0

>  <SCORE.INTRA.SOLV>
2.11474

>  <SCORE.INTRA.SOLV.lig_0>
-98.5587

>  <SCORE.INTRA.VDW>
-0.367018

>  <SCORE.INTRA.VDW.0>
-2.91167

>  <SCORE.INTRA.norm>
-0.22939

>  <SCORE.RESTR>
1.34938

>  <SCORE.RESTR.CAVITY>
1.34938

>  <SCORE.RESTR.norm>
0.0374827

>  <SCORE.SYSTEM>
0

>  <SCORE.SYSTEM.CONST>
0

>  <SCORE.SYSTEM.DIHEDRAL>
0

>  <SCORE.SYSTEM.SOLV>
0

>  <SCORE.SYSTEM.norm>
0

>  <SCORE.heavy>
36

>  <SCORE.norm>
-0.397387

>  <RMSD>
1.505

$$$$
2f4u_lig
 OpenBabel11021811433D
libRbt.so/2013.1/901 2013/11/27
 36 37  0  0  0  0  0  0  0  0999 V2000
   39.2317    9.0965    5.5242 C   0  0  2  0  0  0  0  0  0  0  0  0
   39.7765    7.9962    4.7053 O   0  0  0  0  0  0  0  0  0  0  0  0
   41.2350    4.1283    6.0498 C   0  0  2  0  0  0  0  0  0  0  0  0
   42.1593    3.0990    6.5984 N   0  0  0  0  0  0  0  0  0  0  0  0
   37.6907    8.8693    5.6117 C   0  0  2  0  0  0  0  0  0  0  0  0
   37.3414    7.5646    6.2033 N   0  0  0  0  0  0  0  0  0  0  0  0
   41.8167    4.8025    4.7574 C   0  0  0  0  0  0  0  0  0  0  0  0
   43.6357    3.8490    7.2656 C   0  0  0  0  0  0  0  0  0  0  0  0
   44.1021    2.4377    7.4403 C   0  0  1  0  0  0  0  0  0  0  0  0
   45.5308    2.4977    7.9922 C   0  0  0  0  0  0  0  0  0  0  0  0
   46.6124    2.9729    7.0045 C   0  0  0  0  0  0  0  0  0  0  0  0
   47.9197    2.5391    7.5011 N   0  0  0  0  0  0  0  0  0  0  0  0
   43.3082    1.7772    8.3878 O   0  0  0  0  0  0  0  0  0  0  0  0
   39.9947    4.3821    9.5947 C   0  0  0  0  0  0  0  0  0  0  0  0
   39.6889    2.9077    9.8121 C   0  0  0  0  0  0  0  0  0  0  0  0
   37.0805    8.9882    4.1756 C   0  0  1  0  0  0  0  0  0  0  0  0
   38.7769    2.6397   10.9424 N   0  0  0  0  0  0  0  0  0  0  0  0
   35.6712    8.7771    4.1995 O   0  0  0  0  0  0  0  0  0  0  0  0
   40.8772    5.9054    4.2289 C   0  0  2  0  0  0  0  0  0  0  0  0
   41.4391    6.5620    3.0552 N   0  0  0  0  0  0  0  0  0  0  0  0
   36.7024    3.6081   11.9214 C   0  0  0  0  0  0  0  0  0  0  0  0
   36.7185    5.1455   11.6675 C   0  0  0  0  0  0  0  0  0  0  0  0
   37.3106    2.7877   10.7540 C   0  0  0  0  0  0  0  0  0  0  0  0
   35.8915    5.5228   10.4822 N   0  0  0  0  0  0  0  0  0  0  0  0
   44.0060    4.8522    7.3993 O   0  0  0  0  0  0  0  0  0  0  0  0
   37.4317   10.3819    3.6176 C   0  0  2  0  0  0  0  0  0  0  0  0
   36.9248   10.5862    2.3012 O   0  0  0  0  0  0  0  0  0  0  0  0
   40.6440    6.9565    5.2956 C   0  0  2  0  0  0  0  0  0  0  0  0
   38.9551   10.6028    3.6123 C   0  0  2  0  0  0  0  0  0  0  0  0
   39.5081   10.3899    4.9158 O   0  0  0  0  0  0  0  0  0  0  0  0
   40.0132    6.2849    6.5822 C   0  0  2  0  0  0  0  0  0  0  0  0
   39.8163    7.3169    7.5992 O   0  0  0  0  0  0  0  0  0  0  0  0
   39.3188   11.9881    3.1488 C   0  0  0  0  0  0  0  0  0  0  0  0
   38.8462   12.9316    4.0329 O   0  0  0  0  0  0  0  0  0  0  0  0
   40.9946    5.1845    7.1105 C   0  0  1  0  0  0  0  0  0  0  0  0
   40.5029    4.5489    8.2543 O   0  0  0  0  0  0  0  0  0  0  0  0
  1  2  1  6  0  0  0
  1  5  1  0  0  0  0
  1 30  1  0  0  0  0
  3  4  1  1  0  0  0
  3  7  1  0  0  0  0
  3 35  1  0  0  0  0
  5  6  1  6  0  0  0
  5 16  1  0  0  0  0
  7 19  1  0  0  0  0
  8  4  1  0  0  0  0
  8 25  2  0  0  0  0
  9  8  1  1  0  0  0
  9 10  1  0  0  0  0
  9 13  1  0  0  0  0
 10 11  1  0  0  0  0
 11 12  1  0  0  0  0
 14 15  1  0  0  0  0
 14 36  1  0  0  0  0
 15 17  1  0  0  0  0
 16 18  1  1  0  0  0
 16 26  1  0  0  0  0
 17 23  1  0  0  0  0
 19 20  1  6  0  0  0
 19 28  1  0  0  0  0
 21 22  1  0  0  0  0
 21 23  1  0  0  0  0
 22 24  1  0  0  0  0
 26 27  1  6  0  0  0
 26 29  1  0  0  0  0
 28  2  1  6  0  0  0
 28 31  1  0  0  0  0
 29 30  1  0  0  0  0
 29 33  1  1  0  0  0
 31 32  1  1  0  0  0
 31 35  1  0  0  0  0
 33 34  1  0  0  0  0
 35 36  1  1  0  0  0
M  END
>  <CHROM.1>
-111.94938377,68.82927057,177.16350110,-71.29055921,-160.45746265,-161.30469231
178.03816180,81.39624095,-132.56008065,62.47842867,88.18393676,173.16254853
64.53278990,-179.18607994,40.18832500,6.17656616,6.65317806,-2.13622878,-0.39685281
2.35196911

>  <Name>
2f4u_lig

>  <RI>
0

>  <Rbt.Current_Directory>
/home/itssahil/PROJECTS/Mol_Feturizer/New_Systems/rnas/2f4u

>  <Rbt.Executable>
rbdock ($Id: //depot/dev/client3/rdock/2013.1/src/exe/rbdock.cxx#4 $)

>  <Rbt.Library>
libRbt.so (2013.1, Build901 2013/11/27)

>  <Rbt.Parameter_File>
/export/apps/rDock/src/rDock_2013.1_src/data/scripts/dock_solv.prm

>  <Rbt.Receptor>
prm/pocket_docking_2.prm

>  <SCORE>
-13.7024

>  <SCORE.INTER>
-10.5708

>  <SCORE.INTER.CONST>
1

>  <SCORE.INTER.POLAR>
-1.62143

>  <SCORE.INTER.ROT>
14

>  <SCORE.INTER.SOLV>
13.133

>  <SCORE.INTER.VDW>
-18.9535

>  <SCORE.INTER.norm>
-0.293634

>  <SCORE.INTRA>
-4.48667

>  <SCORE.INTRA.DIHEDRAL>
-11.3602

>  <SCORE.INTRA.DIHEDRAL.0>
26.3805

>  <SCORE.INTRA.POLAR>
0

>  <SCORE.INTRA.POLAR.0>
0

>  <SCORE.INTRA.REPUL>
0

>  <SCORE.INTRA.REPUL.0>
0

>  <SCORE.INTRA.SOLV>
3.46484

>  <SCORE.INTRA.SOLV.lig_0>
-98.5587

>  <SCORE.INTRA.VDW>
-0.538979

>  <SCORE.INTRA.VDW.0>
-2.91167

>  <SCORE.INTRA.norm>
-0.12463

>  <SCORE.RESTR>
1.35505

>  <SCORE.RESTR.CAVITY>
1.35505

>  <SCORE.RESTR.norm>
0.0376402

>  <SCORE.SYSTEM>
0

>  <SCORE.SYSTEM.CONST>
0

>  <SCORE.SYSTEM.DIHEDRAL>
0

>  <SCORE.SYSTEM.SOLV>
0

>  <SCORE.SYSTEM.norm>
0

>  <SCORE.heavy>
36

>  <SCORE.norm>
-0.380623

>  <RMSD>
1.529

$$$$
2f4u_lig
 OpenBabel11021811433D
libRbt.so/2013.1/901 2013/11/27
 36 37  0  0  0  0  0  0  0  0999 V2000
   38.9234    8.9685    5.7925 C   0  0  2  0  0  0  0  0  0  0  0  0
   39.2703    7.7690    5.0059 O   0  0  0  0  0  0  0  0  0  0  0  0
   41.2405    4.0777    6.1838 C   0  0  2  0  0  0  0  0  0  0  0  0
   42.3238    3.1431    6.5935 N   0  0  0  0  0  0  0  0  0  0  0  0
   37.3746    8.9494    5.9795 C   0  0  2  0  0  0  0  0  0  0  0  0
   36.8996    7.7310    6.6608 N   0  0  0  0  0  0  0  0  0  0  0  0
   41.5403    4.7413    4.7935 C   0  0  0  0  0  0  0  0  0  0  0  0
   43.8699    4.0073    6.8172 C   0  0  0  0  0  0  0  0  0  0  0  0
   44.4433    2.6385    7.0104 C   0  0  1  0  0  0  0  0  0  0  0  0
   45.9287    2.8126    7.3459 C   0  0  0  0  0  0  0  0  0  0  0  0
   46.7674    1.5213    7.3687 C   0  0  0  0  0  0  0  0  0  0  0  0
   48.0686    1.8216    7.9691 N   0  0  0  0  0  0  0  0  0  0  0  0
   43.8329    2.0054    8.1017 O   0  0  0  0  0  0  0  0  0  0  0  0
   40.6409    4.3767    9.8874 C   0  0  0  0  0  0  0  0  0  0  0  0
   40.4937    2.8936   10.1928 C   0  0  0  0  0  0  0  0  0  0  0  0
   36.6951    9.0792    4.5759 C   0  0  1  0  0  0  0  0  0  0  0  0
   39.2762    2.2779    9.6274 N   0  0  0  0  0  0  0  0  0  0  0  0
   35.2747    9.0557    4.6911 O   0  0  0  0  0  0  0  0  0  0  0  0
   40.4395    5.7490    4.4041 C   0  0  2  0  0  0  0  0  0  0  0  0
   40.7412    6.3983    3.1346 N   0  0  0  0  0  0  0  0  0  0  0  0
   37.5957    2.6204   11.4325 C   0  0  0  0  0  0  0  0  0  0  0  0
   36.6068    3.6771   12.0103 C   0  0  0  0  0  0  0  0  0  0  0  0
   37.9455    2.8598    9.9405 C   0  0  0  0  0  0  0  0  0  0  0  0
   35.2540    3.5741   11.3853 N   0  0  0  0  0  0  0  0  0  0  0  0
   44.2038    5.0305    6.7628 O   0  0  0  0  0  0  0  0  0  0  0  0
   37.1855   10.3871    3.9231 C   0  0  2  0  0  0  0  0  0  0  0  0
   36.6266   10.5935    2.6283 O   0  0  0  0  0  0  0  0  0  0  0  0
   40.3055    6.8215    5.4666 C   0  0  2  0  0  0  0  0  0  0  0  0
   38.7212   10.4062    3.8194 C   0  0  2  0  0  0  0  0  0  0  0  0
   39.3238   10.1845    5.0992 O   0  0  0  0  0  0  0  0  0  0  0  0
   39.9564    6.1565    6.8596 C   0  0  2  0  0  0  0  0  0  0  0  0
   39.8512    7.2107    7.8674 O   0  0  0  0  0  0  0  0  0  0  0  0
   39.2288   11.7085    3.2606 C   0  0  0  0  0  0  0  0  0  0  0  0
   38.8420   12.7597    4.0608 O   0  0  0  0  0  0  0  0  0  0  0  0
   41.0980    5.1545    7.2414 C   0  0  1  0  0  0  0  0  0  0  0  0
   40.8586    4.5301    8.4690 O   0  0  0  0  0  0  0  0  0  0  0  0
  1  2  1  6  0  0  0
  1  5  1  0  0  0  0
  1 30  1  0  0  0  0
  3  4  1  1  0  0  0
  3  7  1  0  0  0  0
  3 35  1  0  0  0  0
  5  6  1  6  0  0  0
  5 16  1  0  0  0  0
  7 19  1  0  0  0  0
  8  4  1  0  0  0  0
  8 25  2  0  0  0  0
  9  8  1  1  0  0  0
  9 10  1  0  0  0  0
  9 13  1  0  0  0  0
 10 11  1  0  0  0  0
 11 12  1  0  0  0  0
 14 15  1  0  0  0  0
 14 36  1  0  0  0  0
 15 17  1  0  0  0  0
 16 18  1  1  0  0  0
 16 26  1  0  0  0  0
 17 23  1  0  0  0  0
 19 20  1  6  0  0  0
 19 28  1  0  0  0  0
 21 22  1  0  0  0  0
 21 23  1  0  0  0  0
 22 24  1  0  0  0  0
 26 27  1  6  0  0  0
 26 29  1  0  0  0  0
 28  2  1  6  0  0  0
 28 31  1  0  0  0  0
 29 30  1  0  0  0  0
 29 33  1  1  0  0  0
 31 32  1  1  0  0  0
 31 35  1  0  0  0  0
 33 34  1  0  0  0  0
 35 36  1  1  0  0  0
M  END
>  <CHROM.1>
-127.76817298,63.04199533,-177.01271198,-170.77676344,-168.33460349,-67.11604673
-178.04388970,-54.96744404,-69.31855993,66.86464615,154.13312818,-177.88653047
59.57723530,175.93980745,40.19488173,5.97888665,6.72648248,-2.20023607,-0.36683190
2.38853058

>  <Name>
2f4u_lig

>  <RI>
0

>  <Rbt.Current_Directory>
/home/itssahil/PROJECTS/Mol_Feturizer/New_Systems/rnas/2f4u

>  <Rbt.Executable>
rbdock ($Id: //depot/dev/client3/rdock/2013.1/src/exe/rbdock.cxx#4 $)

>  <Rbt.Library>
libRbt.so (2013.1, Build901 2013/11/27)

>  <Rbt.Parameter_File>
/export/apps/rDock/src/rDock_2013.1_src/data/scripts/dock_solv.prm

>  <Rbt.Receptor>
prm/pocket_docking_2.prm

>  <SCORE>
-16.5196

>  <SCORE.INTER>
-11.0982

>  <SCORE.INTER.CONST>
1

>  <SCORE.INTER.POLAR>
-1.45041

>  <SCORE.INTER.ROT>
14

>  <SCORE.INTER.SOLV>
13.0883

>  <SCORE.INTER.VDW>
-19.8602

>  <SCORE.INTER.norm>
-0.308283

>  <SCORE.INTRA>
-6.18113

>  <SCORE.INTRA.DIHEDRAL>
-15.0714

>  <SCORE.INTRA.DIHEDRAL.0>
26.3805

>  <SCORE.INTRA.POLAR>
0

>  <SCORE.INTRA.POLAR.0>
0

>  <SCORE.INTRA.REPUL>
0

>  <SCORE.INTRA.REPUL.0>
0

>  <SCORE.INTRA.SOLV>
2.23512

>  <SCORE.INTRA.SOLV.lig_0>
-98.5587

>  <SCORE.INTRA.VDW>
0.236992

>  <SCORE.INTRA.VDW.0>
-2.91167

>  <SCORE.INTRA.norm>
-0.171698

>  <SCORE.RESTR>
0.759752

>  <SCORE.RESTR.CAVITY>
0.759752

>  <SCORE.RESTR.norm>
0.0211042

>  <SCORE.SYSTEM>
0

>  <SCORE.SYSTEM.CONST>
0

>  <SCORE.SYSTEM.DIHEDRAL>
0

>  <SCORE.SYSTEM.SOLV>
0

>  <SCORE.SYSTEM.norm>
0

>  <SCORE.heavy>
36

>  <SCORE.norm>
-0.458877

>  <RMSD>
1.529

$$$$
2f4u_lig
 OpenBabel11021811433D
libRbt.so/2013.1/901 2013/11/27
 36 37  0  0  0  0  0  0  0  0999 V2000
   37.4339    8.6955    6.0636 C   0  0  2  0  0  0  0  0  0  0  0  0
   37.9052    7.3413    5.7144 O   0  0  0  0  0  0  0  0  0  0  0  0
   41.1903    4.7268    6.8403 C   0  0  2  0  0  0  0  0  0  0  0  0
   42.5732    4.2847    7.1672 N   0  0  0  0  0  0  0  0  0  0  0  0
   35.9335    8.7702    5.6425 C   0  0  2  0  0  0  0  0  0  0  0  0
   35.1049    7.7483    6.3084 N   0  0  0  0  0  0  0  0  0  0  0  0
   41.0981    5.3247    5.3922 C   0  0  0  0  0  0  0  0  0  0  0  0
   43.7861    5.2828    6.3185 C   0  0  0  0  0  0  0  0  0  0  0  0
   44.7730    4.3096    6.8829 C   0  0  1  0  0  0  0  0  0  0  0  0
   44.8089    3.1020    5.9395 C   0  0  0  0  0  0  0  0  0  0  0  0
   45.5636    1.8652    6.4610 C   0  0  0  0  0  0  0  0  0  0  0  0
   45.5032    0.8177    5.4397 N   0  0  0  0  0  0  0  0  0  0  0  0
   46.0561    4.8732    6.9001 O   0  0  0  0  0  0  0  0  0  0  0  0
   40.8640    5.1257   10.5685 C   0  0  0  0  0  0  0  0  0  0  0  0
   39.4486    5.4031   11.0529 C   0  0  0  0  0  0  0  0  0  0  0  0
   35.8366    8.6108    4.0888 C   0  0  1  0  0  0  0  0  0  0  0  0
   38.4365    4.4614   10.5334 N   0  0  0  0  0  0  0  0  0  0  0  0
   34.4806    8.6612    3.6529 O   0  0  0  0  0  0  0  0  0  0  0  0
   39.6740    5.8301    5.0838 C   0  0  2  0  0  0  0  0  0  0  0  0
   39.5998    6.4265    3.7559 N   0  0  0  0  0  0  0  0  0  0  0  0
   36.3226    5.1248   11.6698 C   0  0  0  0  0  0  0  0  0  0  0  0
   35.1216    4.6909   12.5628 C   0  0  0  0  0  0  0  0  0  0  0  0
   37.3479    3.9867   11.4263 C   0  0  0  0  0  0  0  0  0  0  0  0
   34.3643    3.5518   11.9626 N   0  0  0  0  0  0  0  0  0  0  0  0
   43.7682    6.1373    5.6620 O   0  0  0  0  0  0  0  0  0  0  0  0
   36.6792    9.7257    3.4375 C   0  0  2  0  0  0  0  0  0  0  0  0
   36.6626    9.6609    2.0136 O   0  0  0  0  0  0  0  0  0  0  0  0
   39.2531    6.8746    6.0982 C   0  0  2  0  0  0  0  0  0  0  0  0
   38.1370    9.6697    3.9288 C   0  0  2  0  0  0  0  0  0  0  0  0
   38.1977    9.7148    5.3586 O   0  0  0  0  0  0  0  0  0  0  0  0
   39.3003    6.2579    7.5549 C   0  0  2  0  0  0  0  0  0  0  0  0
   38.9078    7.2908    8.5126 O   0  0  0  0  0  0  0  0  0  0  0  0
   38.9603   10.7993    3.3700 C   0  0  0  0  0  0  0  0  0  0  0  0
   38.9121   11.8909    4.2074 O   0  0  0  0  0  0  0  0  0  0  0  0
   40.7595    5.7717    7.8506 C   0  0  1  0  0  0  0  0  0  0  0  0
   40.8784    5.2171    9.1283 O   0  0  0  0  0  0  0  0  0  0  0  0
  1  2  1  6  0  0  0
  1  5  1  0  0  0  0
  1 30  1  0  0  0  0
  3  4  1  1  0  0  0
  3  7  1  0  0  0  0
  3 35  1  0  0  0  0
  5  6  1  1  0  0  0
  5 16  1  0  0  0  0
  7 19  1  0  0  0  0
  8  4  1  0  0  0  0
  8 25  2  0  0  0  0
  9  8  1  6  0  0  0
  9 10  1  0  0  0  0
  9 13  1  0  0  0  0
 10 11  1  0  0  0  0
 11 12  1  0  0  0  0
 14 15  1  0  0  0  0
 14 36  1  0  0  0  0
 15 17  1  0  0  0  0
 16 18  1  6  0  0  0
 16 26  1  0  0  0  0
 17 23  1  0  0  0  0
 19 20  1  6  0  0  0
 19 28  1  0  0  0  0
 21 22  1  0  0  0  0
 21 23  1  0  0  0  0
 22 24  1  0  0  0  0
 26 27  1  6  0  0  0
 26 29  1  0  0  0  0
 28  2  1  6  0  0  0
 28 31  1  0  0  0  0
 29 30  1  0  0  0  0
 29 33  1  6  0  0  0
 31 32  1  1  0  0  0
 31 35  1  0  0  0  0
 33 34  1  0  0  0  0
 35 36  1  1  0  0  0
M  END
>  <CHROM.1>
-173.81664676,30.63825770,83.72817474,-169.12930995,-179.77688687,60.00019003
62.10026691,140.53627024,72.87607984,-59.33022999,178.13975476,-152.71562406
90.12696701,175.69396164,39.54030264,6.37305683,6.77835160,-2.56768524,-0.40314392
2.17559762

>  <Name>
2f4u_lig

>  <RI>
0

>  <Rbt.Current_Directory>
/home/itssahil/PROJECTS/Mol_Feturizer/New_Systems/rnas/2f4u

>  <Rbt.Executable>
rbdock ($Id: //depot/dev/client3/rdock/2013.1/src/exe/rbdock.cxx#4 $)

>  <Rbt.Library>
libRbt.so (2013.1, Build901 2013/11/27)

>  <Rbt.Parameter_File>
/export/apps/rDock/src/rDock_2013.1_src/data/scripts/dock_solv.prm

>  <Rbt.Receptor>
prm/pocket_docking_2.prm

>  <SCORE>
-16.2599

>  <SCORE.INTER>
-10.2256

>  <SCORE.INTER.CONST>
1

>  <SCORE.INTER.POLAR>
-1.67365

>  <SCORE.INTER.ROT>
14

>  <SCORE.INTER.SOLV>
11.0957

>  <SCORE.INTER.VDW>
-17.8701

>  <SCORE.INTER.norm>
-0.284045

>  <SCORE.INTRA>
-7.24546

>  <SCORE.INTRA.DIHEDRAL>
-16.831

>  <SCORE.INTRA.DIHEDRAL.0>
26.3805

>  <SCORE.INTRA.POLAR>
0

>  <SCORE.INTRA.POLAR.0>
0

>  <SCORE.INTRA.REPUL>
0

>  <SCORE.INTRA.REPUL.0>
0

>  <SCORE.INTRA.SOLV>
1.96602

>  <SCORE.INTRA.SOLV.lig_0>
-98.5587

>  <SCORE.INTRA.VDW>
0.187022

>  <SCORE.INTRA.VDW.0>
-2.91167

>  <SCORE.INTRA.norm>
-0.201263

>  <SCORE.RESTR>
1.21119

>  <SCORE.RESTR.CAVITY>
1.21119

>  <SCORE.RESTR.norm>
0.0336441

>  <SCORE.SYSTEM>
0

>  <SCORE.SYSTEM.CONST>
0

>  <SCORE.SYSTEM.DIHEDRAL>
0

>  <SCORE.SYSTEM.SOLV>
0

>  <SCORE.SYSTEM.norm>
0

>  <SCORE.heavy>
36

>  <SCORE.norm>
-0.451664

>  <RMSD>
1.533

$$$$
2f4u_lig
 OpenBabel11021811433D
libRbt.so/2013.1/901 2013/11/27
 36 37  0  0  0  0  0  0  0  0999 V2000
   37.6429    9.2037    5.4102 C   0  0  2  0  0  0  0  0  0  0  0  0
   38.3545    8.0149    4.9019 O   0  0  0  0  0  0  0  0  0  0  0  0
   41.2903    5.3310    6.6549 C   0  0  2  0  0  0  0  0  0  0  0  0
   42.5675    4.8609    7.2570 N   0  0  0  0  0  0  0  0  0  0  0  0
   36.2336    9.2025    4.7408 C   0  0  2  0  0  0  0  0  0  0  0  0
   35.4663    7.9780    5.0339 N   0  0  0  0  0  0  0  0  0  0  0  0
   41.5114    5.9428    5.2266 C   0  0  0  0  0  0  0  0  0  0  0  0
   43.4596    3.8018    6.1300 C   0  0  0  0  0  0  0  0  0  0  0  0
   44.3896    3.5960    7.2843 C   0  0  1  0  0  0  0  0  0  0  0  0
   45.4519    2.5861    6.8359 C   0  0  0  0  0  0  0  0  0  0  0  0
   44.9539    1.1479    6.6017 C   0  0  0  0  0  0  0  0  0  0  0  0
   43.9837    0.8149    7.6466 N   0  0  0  0  0  0  0  0  0  0  0  0
   45.0475    4.7932    7.5979 O   0  0  0  0  0  0  0  0  0  0  0  0
   40.8556    5.1407   10.0680 C   0  0  0  0  0  0  0  0  0  0  0  0
   39.6795    5.2736   11.0239 C   0  0  0  0  0  0  0  0  0  0  0  0
   36.4090    9.3691    3.1948 C   0  0  1  0  0  0  0  0  0  0  0  0
   38.4025    4.7631   10.4857 N   0  0  0  0  0  0  0  0  0  0  0  0
   35.1466    9.3633    2.5331 O   0  0  0  0  0  0  0  0  0  0  0  0
   40.1912    6.4770    4.6348 C   0  0  2  0  0  0  0  0  0  0  0  0
   40.4048    7.0859    3.3280 N   0  0  0  0  0  0  0  0  0  0  0  0
   37.6005    2.6878   11.6036 C   0  0  0  0  0  0  0  0  0  0  0  0
   37.5679    1.8900   10.2654 C   0  0  0  0  0  0  0  0  0  0  0  0
   37.3821    4.2116   11.4142 C   0  0  0  0  0  0  0  0  0  0  0  0
   38.7562    2.1876    9.4106 N   0  0  0  0  0  0  0  0  0  0  0  0
   43.3221    3.4486    5.1212 O   0  0  0  0  0  0  0  0  0  0  0  0
   37.1742   10.6823    2.9361 C   0  0  2  0  0  0  0  0  0  0  0  0
   37.3936   10.9216    1.5482 O   0  0  0  0  0  0  0  0  0  0  0  0
   39.5851    7.5203    5.5521 C   0  0  2  0  0  0  0  0  0  0  0  0
   38.5279   10.6820    3.6689 C   0  0  2  0  0  0  0  0  0  0  0  0
   38.3535   10.4271    5.0670 O   0  0  0  0  0  0  0  0  0  0  0  0
   39.3179    6.8904    6.9791 C   0  0  2  0  0  0  0  0  0  0  0  0
   38.7514    7.9221    7.8467 O   0  0  0  0  0  0  0  0  0  0  0  0
   39.2575   11.9877    3.4986 C   0  0  0  0  0  0  0  0  0  0  0  0
   38.5290   13.0213    4.0428 O   0  0  0  0  0  0  0  0  0  0  0  0
   40.6755    6.3750    7.5661 C   0  0  1  0  0  0  0  0  0  0  0  0
   40.5166    5.8074    8.8337 O   0  0  0  0  0  0  0  0  0  0  0  0
  1  2  1  6  0  0  0
  1  5  1  0  0  0  0
  1 30  1  0  0  0  0
  3  4  1  1  0  0  0
  3  7  1  0  0  0  0
  3 35  1  0  0  0  0
  5  6  1  6  0  0  0
  5 16  1  0  0  0  0
  7 19  1  0  0  0  0
  8  4  1  0  0  0  0
  8 25  2  0  0  0  0
  9  8  1  6  0  0  0
  9 10  1  0  0  0  0
  9 13  1  0  0  0  0
 10 11  1  0  0  0  0
 11 12  1  0  0  0  0
 14 15  1  0  0  0  0
 14 36  1  0  0  0  0
 15 17  1  0  0  0  0
 16 18  1  6  0  0  0
 16 26  1  0  0  0  0
 17 23  1  0  0  0  0
 19 20  1  6  0  0  0
 19 28  1  0  0  0  0
 21 22  1  0  0  0  0
 21 23  1  0  0  0  0
 22 24  1  0  0  0  0
 26 27  1  6  0  0  0
 26 29  1  0  0  0  0
 28  2  1  6  0  0  0
 28 31  1  0  0  0  0
 29 30  1  0  0  0  0
 29 33  1  1  0  0  0
 31 32  1  1  0  0  0
 31 35  1  0  0  0  0
 33 34  1  0  0  0  0
 35 36  1  1  0  0  0
M  END
>  <CHROM.1>
-165.40955524,-50.82490570,177.14080358,-68.24584594,-39.67132615,55.99629248
168.80909493,150.28574814,-90.22192325,69.32670424,-57.10971229,-169.20873411
62.04049360,55.06737672,39.82454764,6.47135674,6.42754989,2.12304926,0.44088013
-0.84279568

>  <Name>
2f4u_lig

>  <RI>
0

>  <Rbt.Current_Directory>
/home/itssahil/PROJECTS/Mol_Feturizer/New_Systems/rnas/2f4u

>  <Rbt.Executable>
rbdock ($Id: //depot/dev/client3/rdock/2013.1/src/exe/rbdock.cxx#4 $)

>  <Rbt.Library>
libRbt.so (2013.1, Build901 2013/11/27)

>  <Rbt.Parameter_File>
/export/apps/rDock/src/rDock_2013.1_src/data/scripts/dock_solv.prm

>  <Rbt.Receptor>
prm/pocket_docking_2.prm

>  <SCORE>
-23.4901

>  <SCORE.INTER>
-17.5968

>  <SCORE.INTER.CONST>
1

>  <SCORE.INTER.POLAR>
-2.77063

>  <SCORE.INTER.ROT>
14

>  <SCORE.INTER.SOLV>
17.6656

>  <SCORE.INTER.VDW>
-21.3177

>  <SCORE.INTER.norm>
-0.488801

>  <SCORE.INTRA>
-7.0356

>  <SCORE.INTRA.DIHEDRAL>
-19.9172

>  <SCORE.INTRA.DIHEDRAL.0>
26.3805

>  <SCORE.INTRA.POLAR>
0

>  <SCORE.INTRA.POLAR.0>
0

>  <SCORE.INTRA.REPUL>
0

>  <SCORE.INTRA.REPUL.0>
0

>  <SCORE.INTRA.SOLV>
6.37637

>  <SCORE.INTRA.SOLV.lig_0>
-98.5587

>  <SCORE.INTRA.VDW>
-0.265175

>  <SCORE.INTRA.VDW.0>
-2.91167

>  <SCORE.INTRA.norm>
-0.195433

>  <SCORE.RESTR>
1.14238

>  <SCORE.RESTR.CAVITY>
1.14238

>  <SCORE.RESTR.norm>
0.0317328

>  <SCORE.SYSTEM>
0

>  <SCORE.SYSTEM.CONST>
0

>  <SCORE.SYSTEM.DIHEDRAL>
0

>  <SCORE.SYSTEM.SOLV>
0

>  <SCORE.SYSTEM.norm>
0

>  <SCORE.heavy>
36

>  <SCORE.norm>
-0.652502

>  <RMSD>
1.591

$$$$
2f4u_lig
 OpenBabel11021811433D
libRbt.so/2013.1/901 2013/11/27
 36 37  0  0  0  0  0  0  0  0999 V2000
   38.4937    8.7757    6.0245 C   0  0  2  0  0  0  0  0  0  0  0  0
   38.8009    7.5128    5.3256 O   0  0  0  0  0  0  0  0  0  0  0  0
   41.2697    4.0644    6.2789 C   0  0  2  0  0  0  0  0  0  0  0  0
   42.4794    3.2614    6.6055 N   0  0  0  0  0  0  0  0  0  0  0  0
   36.9442    8.9510    5.9729 C   0  0  2  0  0  0  0  0  0  0  0  0
   36.2241    7.8269    6.5990 N   0  0  0  0  0  0  0  0  0  0  0  0
   41.4163    4.8026    4.9017 C   0  0  0  0  0  0  0  0  0  0  0  0
   43.9466    4.2785    6.6073 C   0  0  0  0  0  0  0  0  0  0  0  0
   44.6716    2.9834    6.7988 C   0  0  1  0  0  0  0  0  0  0  0  0
   46.0410    3.1267    6.1252 C   0  0  0  0  0  0  0  0  0  0  0  0
   47.1186    3.8601    6.9450 C   0  0  0  0  0  0  0  0  0  0  0  0
   46.5188    5.0571    7.5377 N   0  0  0  0  0  0  0  0  0  0  0  0
   44.8919    2.7466    8.1626 O   0  0  0  0  0  0  0  0  0  0  0  0
   40.3656    3.6236    9.6664 C   0  0  0  0  0  0  0  0  0  0  0  0
   39.2142    4.4204   10.2613 C   0  0  0  0  0  0  0  0  0  0  0  0
   36.5033    9.1059    4.4795 C   0  0  1  0  0  0  0  0  0  0  0  0
   38.5587    3.7678   11.4126 N   0  0  0  0  0  0  0  0  0  0  0  0
   35.0899    9.2586    4.3766 O   0  0  0  0  0  0  0  0  0  0  0  0
   40.1812    5.6752    4.5990 C   0  0  2  0  0  0  0  0  0  0  0  0
   40.3374    6.3959    3.3418 N   0  0  0  0  0  0  0  0  0  0  0  0
   36.5787    2.9868   10.1205 C   0  0  0  0  0  0  0  0  0  0  0  0
   35.5321    4.0218   10.6322 C   0  0  0  0  0  0  0  0  0  0  0  0
   37.6462    2.6178   11.1835 C   0  0  0  0  0  0  0  0  0  0  0  0
   34.6841    3.4615   11.7268 N   0  0  0  0  0  0  0  0  0  0  0  0
   44.1686    5.3235    6.4656 O   0  0  0  0  0  0  0  0  0  0  0  0
   37.2455   10.3180    3.8819 C   0  0  2  0  0  0  0  0  0  0  0  0
   36.9162   10.5386    2.5128 O   0  0  0  0  0  0  0  0  0  0  0  0
   39.9671    6.6893    5.7048 C   0  0  2  0  0  0  0  0  0  0  0  0
   38.7696   10.1475    4.0139 C   0  0  2  0  0  0  0  0  0  0  0  0
   39.1421    9.9059    5.3751 O   0  0  0  0  0  0  0  0  0  0  0  0
   39.7718    5.9434    7.0868 C   0  0  2  0  0  0  0  0  0  0  0  0
   39.5858    6.9446    8.1361 O   0  0  0  0  0  0  0  0  0  0  0  0
   39.5141   11.3558    3.5119 C   0  0  0  0  0  0  0  0  0  0  0  0
   39.3510   11.4915    2.1517 O   0  0  0  0  0  0  0  0  0  0  0  0
   41.0464    5.0817    7.3804 C   0  0  1  0  0  0  0  0  0  0  0  0
   40.9467    4.3949    8.5939 O   0  0  0  0  0  0  0  0  0  0  0  0
  1  2  1  6  0  0  0
  1  5  1  0  0  0  0
  1 30  1  0  0  0  0
  3  4  1  1  0  0  0
  3  7  1  0  0  0  0
  3 35  1  0  0  0  0
  5  6  1  6  0  0  0
  5 16  1  0  0  0  0
  7 19  1  0  0  0  0
  8  4  1  0  0  0  0
  8 25  2  0  0  0  0
  9  8  1  1  0  0  0
  9 10  1  0  0  0  0
  9 13  1  0  0  0  0
 10 11  1  0  0  0  0
 11 12  1  0  0  0  0
 14 15  1  0  0  0  0
 14 36  1  0  0  0  0
 15 17  1  0  0  0  0
 16 18  1  1  0  0  0
 16 26  1  0  0  0  0
 17 23  1  0  0  0  0
 19 20  1  6  0  0  0
 19 28  1  0  0  0  0
 21 22  1  0  0  0  0
 21 23  1  0  0  0  0
 22 24  1  0  0  0  0
 26 27  1  6  0  0  0
 26 29  1  0  0  0  0
 28  2  1  6  0  0  0
 28 31  1  0  0  0  0
 29 30  1  0  0  0  0
 29 33  1  1  0  0  0
 31 32  1  1  0  0  0
 31 35  1  0  0  0  0
 33 34  1  0  0  0  0
 35 36  1  1  0  0  0
M  END
>  <CHROM.1>
-149.61992090,56.54896067,148.98517151,81.04356900,-44.74149684,-177.66833793
-61.43483628,-75.15381696,-51.84678703,-65.89935937,-70.47413841,-166.47634147
-66.75317809,-81.19247995,39.98845876,6.16837859,6.66789451,-2.26829275,-0.30060200
2.34472593

>  <Name>
2f4u_lig

>  <RI>
0

>  <Rbt.Current_Directory>
/home/itssahil/PROJECTS/Mol_Feturizer/New_Systems/rnas/2f4u

>  <Rbt.Executable>
rbdock ($Id: //depot/dev/client3/rdock/2013.1/src/exe/rbdock.cxx#4 $)

>  <Rbt.Library>
libRbt.so (2013.1, Build901 2013/11/27)

>  <Rbt.Parameter_File>
/export/apps/rDock/src/rDock_2013.1_src/data/scripts/dock_solv.prm

>  <Rbt.Receptor>
prm/pocket_docking_2.prm

>  <SCORE>
-10.6765

>  <SCORE.INTER>
-7.3569

>  <SCORE.INTER.CONST>
1

>  <SCORE.INTER.POLAR>
-1.60353

>  <SCORE.INTER.ROT>
14

>  <SCORE.INTER.SOLV>
15.5919

>  <SCORE.INTER.VDW>
-17.6901

>  <SCORE.INTER.norm>
-0.204358

>  <SCORE.INTRA>
-3.68412

>  <SCORE.INTRA.DIHEDRAL>
-15.0643

>  <SCORE.INTRA.DIHEDRAL.0>
26.3805

>  <SCORE.INTRA.POLAR>
0

>  <SCORE.INTRA.POLAR.0>
0

>  <SCORE.INTRA.REPUL>
0

>  <SCORE.INTRA.REPUL.0>
0

>  <SCORE.INTRA.SOLV>
6.04527

>  <SCORE.INTRA.SOLV.lig_0>
-98.5587

>  <SCORE.INTRA.VDW>
0.825373

>  <SCORE.INTRA.VDW.0>
-2.91167

>  <SCORE.INTRA.norm>
-0.102337

>  <SCORE.RESTR>
0.364562

>  <SCORE.RESTR.CAVITY>
0.364562

>  <SCORE.RESTR.norm>
0.0101267

>  <SCORE.SYSTEM>
0

>  <SCORE.SYSTEM.CONST>
0

>  <SCORE.SYSTEM.DIHEDRAL>
0

>  <SCORE.SYSTEM.SOLV>
0

>  <SCORE.SYSTEM.norm>
0

>  <SCORE.heavy>
36

>  <SCORE.norm>
-0.296569

>  <RMSD>
1.606

$$$$
2f4u_lig
 OpenBabel11021811433D
libRbt.so/2013.1/901 2013/11/27
 36 37  0  0  0  0  0  0  0  0999 V2000
   38.3156    8.8870    5.4844 C   0  0  2  0  0  0  0  0  0  0  0  0
   38.7360    7.6887    4.7326 O   0  0  0  0  0  0  0  0  0  0  0  0
   40.7513    4.1561    6.2670 C   0  0  2  0  0  0  0  0  0  0  0  0
   41.8526    3.2650    6.7229 N   0  0  0  0  0  0  0  0  0  0  0  0
   36.7628    8.9724    5.3596 C   0  0  2  0  0  0  0  0  0  0  0  0
   36.0840    7.7720    5.8816 N   0  0  0  0  0  0  0  0  0  0  0  0
   40.9525    4.6146    4.7796 C   0  0  0  0  0  0  0  0  0  0  0  0
   43.3955    4.1557    6.8393 C   0  0  0  0  0  0  0  0  0  0  0  0
   43.9860    2.8108    7.1265 C   0  0  1  0  0  0  0  0  0  0  0  0
   45.5061    2.9910    7.2064 C   0  0  0  0  0  0  0  0  0  0  0  0
   46.3134    1.7299    7.5656 C   0  0  0  0  0  0  0  0  0  0  0  0
   47.7333    2.0839    7.6143 N   0  0  0  0  0  0  0  0  0  0  0  0
   43.5477    2.3436    8.3731 O   0  0  0  0  0  0  0  0  0  0  0  0
   40.3863    4.9795    9.9218 C   0  0  0  0  0  0  0  0  0  0  0  0
   39.1191    5.7610   10.2351 C   0  0  0  0  0  0  0  0  0  0  0  0
   36.3884    9.1897    3.8559 C   0  0  1  0  0  0  0  0  0  0  0  0
   37.8782    5.1156    9.7611 N   0  0  0  0  0  0  0  0  0  0  0  0
   34.9752    9.2638    3.6861 O   0  0  0  0  0  0  0  0  0  0  0  0
   39.8360    5.5812    4.3348 C   0  0  2  0  0  0  0  0  0  0  0  0
   40.0481    6.0423    2.9685 N   0  0  0  0  0  0  0  0  0  0  0  0
   35.8538    6.2896   10.6116 C   0  0  0  0  0  0  0  0  0  0  0  0
   34.5267    7.0268   10.2600 C   0  0  0  0  0  0  0  0  0  0  0  0
   36.7175    5.9554    9.3674 C   0  0  0  0  0  0  0  0  0  0  0  0
   33.7777    7.4398   11.4847 N   0  0  0  0  0  0  0  0  0  0  0  0
   43.7185    5.1737    6.6958 O   0  0  0  0  0  0  0  0  0  0  0  0
   37.0822   10.4775    3.3686 C   0  0  2  0  0  0  0  0  0  0  0  0
   36.8088   10.7596    1.9985 O   0  0  0  0  0  0  0  0  0  0  0  0
   39.7931    6.7929    5.2443 C   0  0  2  0  0  0  0  0  0  0  0  0
   38.6055   10.3907    3.5724 C   0  0  2  0  0  0  0  0  0  0  0  0
   38.9237   10.0907    4.9358 O   0  0  0  0  0  0  0  0  0  0  0  0
   39.5428    6.3343    6.7381 C   0  0  2  0  0  0  0  0  0  0  0  0
   39.5244    7.5198    7.5940 O   0  0  0  0  0  0  0  0  0  0  0  0
   39.2970   11.6691    3.1803 C   0  0  0  0  0  0  0  0  0  0  0  0
   40.6635   11.5196    3.2528 O   0  0  0  0  0  0  0  0  0  0  0  0
   40.6996    5.3715    7.1716 C   0  0  1  0  0  0  0  0  0  0  0  0
   40.5467    4.9279    8.4885 O   0  0  0  0  0  0  0  0  0  0  0  0
  1  2  1  6  0  0  0
  1  5  1  0  0  0  0
  1 30  1  0  0  0  0
  3  4  1  1  0  0  0
  3  7  1  0  0  0  0
  3 35  1  0  0  0  0
  5  6  1  6  0  0  0
  5 16  1  0  0  0  0
  7 19  1  0  0  0  0
  8  4  1  0  0  0  0
  8 25  2  0  0  0  0
  9  8  1  1  0  0  0
  9 10  1  0  0  0  0
  9 13  1  0  0  0  0
 10 11  1  0  0  0  0
 11 12  1  0  0  0  0
 14 15  1  0  0  0  0
 14 36  1  0  0  0  0
 15 17  1  0  0  0  0
 16 18  1  1  0  0  0
 16 26  1  0  0  0  0
 17 23  1  0  0  0  0
 19 20  1  6  0  0  0
 19 28  1  0  0  0  0
 21 22  1  0  0  0  0
 21 23  1  0  0  0  0
 22 24  1  0  0  0  0
 26 27  1  6  0  0  0
 26 29  1  0  0  0  0
 28  2  1  6  0  0  0
 28 31  1  0  0  0  0
 29 30  1  0  0  0  0
 29 33  1  1  0  0  0
 31 32  1  1  0  0  0
 31 35  1  0  0  0  0
 33 34  1  0  0  0  0
 35 36  1  1  0  0  0
M  END
>  <CHROM.1>
-139.68175923,67.71977709,174.82307856,177.11568926,-179.30406106,64.69181050
58.66691307,-149.60597058,-86.21121629,-174.98866349,-173.23952174,172.34862775
-174.32860853,-178.57944662,39.68058580,6.56802846,6.45393306,-2.50918959
-0.46232635,2.19850641

>  <Name>
2f4u_lig

>  <RI>
0

>  <Rbt.Current_Directory>
/home/itssahil/PROJECTS/Mol_Feturizer/New_Systems/rnas/2f4u

>  <Rbt.Executable>
rbdock ($Id: //depot/dev/client3/rdock/2013.1/src/exe/rbdock.cxx#4 $)

>  <Rbt.Library>
libRbt.so (2013.1, Build901 2013/11/27)

>  <Rbt.Parameter_File>
/export/apps/rDock/src/rDock_2013.1_src/data/scripts/dock_solv.prm

>  <Rbt.Receptor>
prm/pocket_docking_3.prm

>  <SCORE>
-16.9145

>  <SCORE.INTER>
-7.59612

>  <SCORE.INTER.CONST>
1

>  <SCORE.INTER.POLAR>
-1.49933

>  <SCORE.INTER.ROT>
14

>  <SCORE.INTER.SOLV>
10.4666

>  <SCORE.INTER.VDW>
-16.4885

>  <SCORE.INTER.norm>
-0.211003

>  <SCORE.INTRA>
-9.3184

>  <SCORE.INTRA.DIHEDRAL>
-18.1472

>  <SCORE.INTRA.DIHEDRAL.0>
26.3805

>  <SCORE.INTRA.POLAR>
0

>  <SCORE.INTRA.POLAR.0>
0

>  <SCORE.INTRA.REPUL>
0

>  <SCORE.INTRA.REPUL.0>
0

>  <SCORE.INTRA.SOLV>
1.58022

>  <SCORE.INTRA.SOLV.lig_0>
-98.5587

>  <SCORE.INTRA.VDW>
-1.03491

>  <SCORE.INTRA.VDW.0>
-2.91167

>  <SCORE.INTRA.norm>
-0.258845

>  <SCORE.RESTR>
0

>  <SCORE.RESTR.CAVITY>
0

>  <SCORE.RESTR.norm>
0

>  <SCORE.SYSTEM>
0

>  <SCORE.SYSTEM.CONST>
0

>  <SCORE.SYSTEM.DIHEDRAL>
0

>  <SCORE.SYSTEM.SOLV>
0

>  <SCORE.SYSTEM.norm>
0

>  <SCORE.heavy>
36

>  <SCORE.norm>
-0.469848

>  <RMSD>
1.610

$$$$
2f4u_lig
 OpenBabel11021811433D
libRbt.so/2013.1/901 2013/11/27
 36 37  0  0  0  0  0  0  0  0999 V2000
   37.6191    8.7735    5.7906 C   0  0  2  0  0  0  0  0  0  0  0  0
   38.1490    7.5311    5.1960 O   0  0  0  0  0  0  0  0  0  0  0  0
   40.9703    4.5132    6.5480 C   0  0  2  0  0  0  0  0  0  0  0  0
   42.2462    3.9034    7.0115 N   0  0  0  0  0  0  0  0  0  0  0  0
   36.0760    8.7574    5.5613 C   0  0  2  0  0  0  0  0  0  0  0  0
   35.4244    7.5793    6.1628 N   0  0  0  0  0  0  0  0  0  0  0  0
   41.1255    5.1855    5.1384 C   0  0  0  0  0  0  0  0  0  0  0  0
   43.6555    4.7716    6.3424 C   0  0  0  0  0  0  0  0  0  0  0  0
   44.4525    3.6755    6.9774 C   0  0  1  0  0  0  0  0  0  0  0  0
   45.0301    2.8203    5.8440 C   0  0  0  0  0  0  0  0  0  0  0  0
   44.0147    2.3068    4.8064 C   0  0  0  0  0  0  0  0  0  0  0  0
   43.0432    1.4504    5.4895 N   0  0  0  0  0  0  0  0  0  0  0  0
   45.5297    4.2113    7.6963 O   0  0  0  0  0  0  0  0  0  0  0  0
   40.8183    4.2053    9.9939 C   0  0  0  0  0  0  0  0  0  0  0  0
   39.6205    4.1310   10.9290 C   0  0  0  0  0  0  0  0  0  0  0  0
   35.7939    8.7999    4.0227 C   0  0  1  0  0  0  0  0  0  0  0  0
   38.4073    3.5570   10.3128 N   0  0  0  0  0  0  0  0  0  0  0  0
   34.3935    8.7760    3.7586 O   0  0  0  0  0  0  0  0  0  0  0  0
   39.8134    5.8620    4.6921 C   0  0  2  0  0  0  0  0  0  0  0  0
   39.9710    6.5249    3.4037 N   0  0  0  0  0  0  0  0  0  0  0  0
   36.7397    5.1720   11.2133 C   0  0  0  0  0  0  0  0  0  0  0  0
   35.4230    5.3833   12.0195 C   0  0  0  0  0  0  0  0  0  0  0  0
   37.1014    3.6773   11.0112 C   0  0  0  0  0  0  0  0  0  0  0  0
   34.2588    4.7080   11.3716 N   0  0  0  0  0  0  0  0  0  0  0  0
   43.8118    5.6378    5.7206 O   0  0  0  0  0  0  0  0  0  0  0  0
   36.4537   10.0691    3.4475 C   0  0  2  0  0  0  0  0  0  0  0  0
   36.2599   10.1952    2.0410 O   0  0  0  0  0  0  0  0  0  0  0  0
   39.3806    6.8981    5.7101 C   0  0  2  0  0  0  0  0  0  0  0  0
   37.9621   10.0900    3.7535 C   0  0  2  0  0  0  0  0  0  0  0  0
   38.2019    9.9480    5.1580 O   0  0  0  0  0  0  0  0  0  0  0  0
   39.1778    6.2118    7.1217 C   0  0  2  0  0  0  0  0  0  0  0  0
   38.7791    7.2359    8.0862 O   0  0  0  0  0  0  0  0  0  0  0  0
   38.6137   11.3594    3.2735 C   0  0  0  0  0  0  0  0  0  0  0  0
   38.7406   12.2573    4.3093 O   0  0  0  0  0  0  0  0  0  0  0  0
   40.5283    5.5510    7.5608 C   0  0  1  0  0  0  0  0  0  0  0  0
   40.4255    4.9268    8.8074 O   0  0  0  0  0  0  0  0  0  0  0  0
  1  2  1  6  0  0  0
  1  5  1  0  0  0  0
  1 30  1  0  0  0  0
  3  4  1  1  0  0  0
  3  7  1  0  0  0  0
  3 35  1  0  0  0  0
  5  6  1  6  0  0  0
  5 16  1  0  0  0  0
  7 19  1  0  0  0  0
  8  4  1  0  0  0  0
  8 25  2  0  0  0  0
  9  8  1  6  0  0  0
  9 10  1  0  0  0  0
  9 13  1  0  0  0  0
 10 11  1  0  0  0  0
 11 12  1  0  0  0  0
 14 15  1  0  0  0  0
 14 36  1  0  0  0  0
 15 17  1  0  0  0  0
 16 18  1  1  0  0  0
 16 26  1  0  0  0  0
 17 23  1  0  0  0  0
 19 20  1  6  0  0  0
 19 28  1  0  0  0  0
 21 22  1  0  0  0  0
 21 23  1  0  0  0  0
 22 24  1  0  0  0  0
 26 27  1  6  0  0  0
 26 29  1  0  0  0  0
 28  2  1  6  0  0  0
 28 31  1  0  0  0  0
 29 30  1  0  0  0  0
 29 33  1  1  0  0  0
 31 32  1  1  0  0  0
 31 35  1  0  0  0  0
 33 34  1  0  0  0  0
 35 36  1  1  0  0  0
M  END
>  <CHROM.1>
-151.94638248,29.14361631,110.38294736,-52.65167040,-61.48897698,54.60721649
176.46205920,-167.59434496,60.04083540,-57.51694914,-176.41153583,-166.81689595
97.83346676,60.54386701,39.38163051,6.33718609,6.55376044,-2.39403923,-0.45193782
2.21851909

>  <Name>
2f4u_lig

>  <RI>
0

>  <Rbt.Current_Directory>
/home/itssahil/PROJECTS/Mol_Feturizer/New_Systems/rnas/2f4u

>  <Rbt.Executable>
rbdock ($Id: //depot/dev/client3/rdock/2013.1/src/exe/rbdock.cxx#4 $)

>  <Rbt.Library>
libRbt.so (2013.1, Build901 2013/11/27)

>  <Rbt.Parameter_File>
/export/apps/rDock/src/rDock_2013.1_src/data/scripts/dock_solv.prm

>  <Rbt.Receptor>
prm/pocket_docking_2.prm

>  <SCORE>
-12.6455

>  <SCORE.INTER>
-8.47768

>  <SCORE.INTER.CONST>
1

>  <SCORE.INTER.POLAR>
-1.87256

>  <SCORE.INTER.ROT>
14

>  <SCORE.INTER.SOLV>
10.8893

>  <SCORE.INTER.VDW>
-15.973

>  <SCORE.INTER.norm>
-0.235491

>  <SCORE.INTRA>
-4.49053

>  <SCORE.INTRA.DIHEDRAL>
-15.0194

>  <SCORE.INTRA.DIHEDRAL.0>
26.3805

>  <SCORE.INTRA.POLAR>
0

>  <SCORE.INTRA.POLAR.0>
0

>  <SCORE.INTRA.REPUL>
0

>  <SCORE.INTRA.REPUL.0>
0

>  <SCORE.INTRA.SOLV>
4.61554

>  <SCORE.INTRA.SOLV.lig_0>
-98.5587

>  <SCORE.INTRA.VDW>
0.711389

>  <SCORE.INTRA.VDW.0>
-2.91167

>  <SCORE.INTRA.norm>
-0.124737

>  <SCORE.RESTR>
0.322741

>  <SCORE.RESTR.CAVITY>
0.322741

>  <SCORE.RESTR.norm>
0.00896503

>  <SCORE.SYSTEM>
0

>  <SCORE.SYSTEM.CONST>
0

>  <SCORE.SYSTEM.DIHEDRAL>
0

>  <SCORE.SYSTEM.SOLV>
0

>  <SCORE.SYSTEM.norm>
0

>  <SCORE.heavy>
36

>  <SCORE.norm>
-0.351263

>  <RMSD>
1.618

$$$$
2f4u_lig
 OpenBabel11021811433D
libRbt.so/2013.1/901 2013/11/27
 36 37  0  0  0  0  0  0  0  0999 V2000
   38.6378    8.9130    5.7274 C   0  0  2  0  0  0  0  0  0  0  0  0
   39.0829    7.7974    4.8700 O   0  0  0  0  0  0  0  0  0  0  0  0
   41.0764    3.9852    5.4931 C   0  0  2  0  0  0  0  0  0  0  0  0
   42.0858    2.9988    5.9652 N   0  0  0  0  0  0  0  0  0  0  0  0
   37.0929    8.7660    5.8879 C   0  0  2  0  0  0  0  0  0  0  0  0
   36.7036    7.4732    6.4806 N   0  0  0  0  0  0  0  0  0  0  0  0
   41.7248    5.0941    4.5913 C   0  0  0  0  0  0  0  0  0  0  0  0
   43.3191    3.7805    6.9925 C   0  0  0  0  0  0  0  0  0  0  0  0
   43.9921    2.4443    6.9549 C   0  0  1  0  0  0  0  0  0  0  0  0
   45.4752    2.6750    7.2658 C   0  0  0  0  0  0  0  0  0  0  0  0
   46.3660    1.4190    7.2565 C   0  0  0  0  0  0  0  0  0  0  0  0
   47.7620    1.8369    7.3999 N   0  0  0  0  0  0  0  0  0  0  0  0
   43.4733    1.6104    7.9547 O   0  0  0  0  0  0  0  0  0  0  0  0
   39.8194    2.4796    8.3823 C   0  0  0  0  0  0  0  0  0  0  0  0
   40.2078    2.9437    9.7782 C   0  0  0  0  0  0  0  0  0  0  0  0
   36.4211    8.9375    4.4850 C   0  0  1  0  0  0  0  0  0  0  0  0
   39.5373    2.2068   10.8685 N   0  0  0  0  0  0  0  0  0  0  0  0
   35.0053    8.8006    4.5756 O   0  0  0  0  0  0  0  0  0  0  0  0
   40.6811    6.1416    4.1531 C   0  0  2  0  0  0  0  0  0  0  0  0
   41.2924    7.1956    3.3533 N   0  0  0  0  0  0  0  0  0  0  0  0
   38.1364    3.9324   11.9908 C   0  0  0  0  0  0  0  0  0  0  0  0
   36.7376    4.6193   11.9920 C   0  0  0  0  0  0  0  0  0  0  0  0
   38.1485    2.5679   11.2535 C   0  0  0  0  0  0  0  0  0  0  0  0
   35.6961    3.7607   12.6319 N   0  0  0  0  0  0  0  0  0  0  0  0
   43.4948    4.7709    7.3794 O   0  0  0  0  0  0  0  0  0  0  0  0
   36.8187   10.3186    3.9268 C   0  0  2  0  0  0  0  0  0  0  0  0
   36.2602   10.5681    2.6394 O   0  0  0  0  0  0  0  0  0  0  0  0
   40.0324    6.7799    5.3650 C   0  0  2  0  0  0  0  0  0  0  0  0
   38.3496   10.4590    3.8493 C   0  0  2  0  0  0  0  0  0  0  0  0
   38.9530   10.1986    5.1214 O   0  0  0  0  0  0  0  0  0  0  0  0
   39.3375    5.6674    6.2504 C   0  0  2  0  0  0  0  0  0  0  0  0
   38.7369    6.3082    7.4195 O   0  0  0  0  0  0  0  0  0  0  0  0
   38.7637   11.8297    3.3848 C   0  0  0  0  0  0  0  0  0  0  0  0
   40.1356   11.9209    3.3151 O   0  0  0  0  0  0  0  0  0  0  0  0
   40.4209    4.6290    6.6989 C   0  0  1  0  0  0  0  0  0  0  0  0
   39.8777    3.6145    7.4927 O   0  0  0  0  0  0  0  0  0  0  0  0
  1  2  1  6  0  0  0
  1  5  1  0  0  0  0
  1 30  1  0  0  0  0
  3  4  1  1  0  0  0
  3  7  1  0  0  0  0
  3 35  1  0  0  0  0
  5  6  1  6  0  0  0
  5 16  1  0  0  0  0
  7 19  1  0  0  0  0
  8  4  1  0  0  0  0
  8 25  2  0  0  0  0
  9  8  1  1  0  0  0
  9 10  1  0  0  0  0
  9 13  1  0  0  0  0
 10 11  1  0  0  0  0
 11 12  1  0  0  0  0
 14 15  1  0  0  0  0
 14 36  1  0  0  0  0
 15 17  1  0  0  0  0
 16 18  1  1  0  0  0
 16 26  1  0  0  0  0
 17 23  1  0  0  0  0
 19 20  1  1  0  0  0
 19 28  1  0  0  0  0
 21 22  1  0  0  0  0
 21 23  1  0  0  0  0
 22 24  1  0  0  0  0
 26 27  1  6  0  0  0
 26 29  1  0  0  0  0
 28  2  1  6  0  0  0
 28 31  1  0  0  0  0
 29 30  1  0  0  0  0
 29 33  1  1  0  0  0
 31 32  1  1  0  0  0
 31 35  1  0  0  0  0
 33 34  1  0  0  0  0
 35 36  1  1  0  0  0
M  END
>  <CHROM.1>
-118.29551175,62.66804493,157.56537174,-179.06800115,172.84982225,148.29953727
73.44408018,-80.63376471,-71.81540201,58.61293658,159.97898470,-158.24653305
-179.50805456,69.31684661,39.97210224,5.85175631,6.63464237,-2.16903014,-0.44209826
2.33423936

>  <Name>
2f4u_lig

>  <RI>
0

>  <Rbt.Current_Directory>
/home/itssahil/PROJECTS/Mol_Feturizer/New_Systems/rnas/2f4u

>  <Rbt.Executable>
rbdock ($Id: //depot/dev/client3/rdock/2013.1/src/exe/rbdock.cxx#4 $)

>  <Rbt.Library>
libRbt.so (2013.1, Build901 2013/11/27)

>  <Rbt.Parameter_File>
/export/apps/rDock/src/rDock_2013.1_src/data/scripts/dock_solv.prm

>  <Rbt.Receptor>
prm/pocket_docking_3.prm

>  <SCORE>
-16.682

>  <SCORE.INTER>
-12.2684

>  <SCORE.INTER.CONST>
1

>  <SCORE.INTER.POLAR>
-1.87368

>  <SCORE.INTER.ROT>
14

>  <SCORE.INTER.SOLV>
14.6312

>  <SCORE.INTER.VDW>
-19.7437

>  <SCORE.INTER.norm>
-0.340788

>  <SCORE.INTRA>
-4.41367

>  <SCORE.INTRA.DIHEDRAL>
-9.56467

>  <SCORE.INTRA.DIHEDRAL.0>
26.3805

>  <SCORE.INTRA.POLAR>
0

>  <SCORE.INTRA.POLAR.0>
0

>  <SCORE.INTRA.REPUL>
0

>  <SCORE.INTRA.REPUL.0>
0

>  <SCORE.INTRA.SOLV>
2.31643

>  <SCORE.INTRA.SOLV.lig_0>
-98.5587

>  <SCORE.INTRA.VDW>
-0.78955

>  <SCORE.INTRA.VDW.0>
-2.91167

>  <SCORE.INTRA.norm>
-0.122602

>  <SCORE.RESTR>
0

>  <SCORE.RESTR.CAVITY>
0

>  <SCORE.RESTR.norm>
0

>  <SCORE.SYSTEM>
0

>  <SCORE.SYSTEM.CONST>
0

>  <SCORE.SYSTEM.DIHEDRAL>
0

>  <SCORE.SYSTEM.SOLV>
0

>  <SCORE.SYSTEM.norm>
0

>  <SCORE.heavy>
36

>  <SCORE.norm>
-0.46339

>  <RMSD>
1.620

$$$$
2f4u_lig
 OpenBabel11021811433D
libRbt.so/2013.1/901 2013/11/27
 36 37  0  0  0  0  0  0  0  0999 V2000
   39.0499    8.8895    6.0455 C   0  0  2  0  0  0  0  0  0  0  0  0
   39.2669    7.5595    5.4439 O   0  0  0  0  0  0  0  0  0  0  0  0
   41.8964    4.1951    6.2575 C   0  0  2  0  0  0  0  0  0  0  0  0
   43.1501    3.4288    6.4936 N   0  0  0  0  0  0  0  0  0  0  0  0
   37.5093    9.0516    6.2307 C   0  0  2  0  0  0  0  0  0  0  0  0
   36.9255    7.9990    7.0825 N   0  0  0  0  0  0  0  0  0  0  0  0
   41.9002    4.8980    4.8543 C   0  0  0  0  0  0  0  0  0  0  0  0
   44.5618    4.5174    6.5909 C   0  0  0  0  0  0  0  0  0  0  0  0
   45.3559    3.2500    6.6452 C   0  0  1  0  0  0  0  0  0  0  0  0
   45.0135    2.5571    7.9688 C   0  0  0  0  0  0  0  0  0  0  0  0
   45.8661    1.3241    8.3210 C   0  0  0  0  0  0  0  0  0  0  0  0
   47.2248    1.7712    8.6339 N   0  0  0  0  0  0  0  0  0  0  0  0
   44.9735    2.3918    5.6052 O   0  0  0  0  0  0  0  0  0  0  0  0
   41.4907    3.5927    9.5942 C   0  0  0  0  0  0  0  0  0  0  0  0
   40.0319    3.7301   10.0038 C   0  0  0  0  0  0  0  0  0  0  0  0
   36.8278    9.0418    4.8221 C   0  0  1  0  0  0  0  0  0  0  0  0
   39.5766    2.7100   10.9698 N   0  0  0  0  0  0  0  0  0  0  0  0
   35.4136    9.1765    4.9371 O   0  0  0  0  0  0  0  0  0  0  0  0
   40.6215    5.7340    4.6424 C   0  0  2  0  0  0  0  0  0  0  0  0
   40.6461    6.4229    3.3582 N   0  0  0  0  0  0  0  0  0  0  0  0
   37.1576    2.1521   10.7773 C   0  0  0  0  0  0  0  0  0  0  0  0
   36.2037    3.1472   10.0507 C   0  0  0  0  0  0  0  0  0  0  0  0
   38.2502    2.8570   11.6229 C   0  0  0  0  0  0  0  0  0  0  0  0
   36.9257    3.9677    9.0324 N   0  0  0  0  0  0  0  0  0  0  0  0
   44.7270    5.5817    6.5552 O   0  0  0  0  0  0  0  0  0  0  0  0
   37.4360   10.1851    3.9854 C   0  0  2  0  0  0  0  0  0  0  0  0
   36.8835   10.2546    2.6734 O   0  0  0  0  0  0  0  0  0  0  0  0
   40.4826    6.7733    5.7368 C   0  0  2  0  0  0  0  0  0  0  0  0
   38.9647   10.0364    3.8827 C   0  0  2  0  0  0  0  0  0  0  0  0
   39.5590    9.9453    5.1822 O   0  0  0  0  0  0  0  0  0  0  0  0
   40.4310    6.0618    7.1495 C   0  0  2  0  0  0  0  0  0  0  0  0
   40.3154    7.0873    8.1853 O   0  0  0  0  0  0  0  0  0  0  0  0
   39.5908   11.1863    3.1398 C   0  0  0  0  0  0  0  0  0  0  0  0
   39.5011   12.3439    3.8794 O   0  0  0  0  0  0  0  0  0  0  0  0
   41.7478    5.2374    7.3483 C   0  0  1  0  0  0  0  0  0  0  0  0
   41.7748    4.5824    8.5830 O   0  0  0  0  0  0  0  0  0  0  0  0
  1  2  1  6  0  0  0
  1  5  1  0  0  0  0
  1 30  1  0  0  0  0
  3  4  1  1  0  0  0
  3  7  1  0  0  0  0
  3 35  1  0  0  0  0
  5  6  1  1  0  0  0
  5 16  1  0  0  0  0
  7 19  1  0  0  0  0
  8  4  1  0  0  0  0
  8 25  2  0  0  0  0
  9  8  1  6  0  0  0
  9 10  1  0  0  0  0
  9 13  1  0  0  0  0
 10 11  1  0  0  0  0
 11 12  1  0  0  0  0
 14 15  1  0  0  0  0
 14 36  1  0  0  0  0
 15 17  1  0  0  0  0
 16 18  1  1  0  0  0
 16 26  1  0  0  0  0
 17 23  1  0  0  0  0
 19 20  1  6  0  0  0
 19 28  1  0  0  0  0
 21 22  1  0  0  0  0
 21 23  1  0  0  0  0
 22 24  1  0  0  0  0
 26 27  1  6  0  0  0
 26 29  1  0  0  0  0
 28  2  1  6  0  0  0
 28 31  1  0  0  0  0
 29 30  1  0  0  0  0
 29 33  1  1  0  0  0
 31 32  1  1  0  0  0
 31 35  1  0  0  0  0
 33 34  1  0  0  0  0
 35 36  1  1  0  0  0
M  END
>  <CHROM.1>
-148.16415182,65.45227953,-66.62990992,-171.93701916,69.45505293,175.88467179
-69.17558688,169.94774913,90.30112750,64.58774545,-108.14858257,-161.02235564
68.96820647,-44.05016863,40.46547847,5.97444427,6.71592685,-2.21231311,-0.33579465
2.39890490

>  <Name>
2f4u_lig

>  <RI>
0

>  <Rbt.Current_Directory>
/home/itssahil/PROJECTS/Mol_Feturizer/New_Systems/rnas/2f4u

>  <Rbt.Executable>
rbdock ($Id: //depot/dev/client3/rdock/2013.1/src/exe/rbdock.cxx#4 $)

>  <Rbt.Library>
libRbt.so (2013.1, Build901 2013/11/27)

>  <Rbt.Parameter_File>
/export/apps/rDock/src/rDock_2013.1_src/data/scripts/dock_solv.prm

>  <Rbt.Receptor>
prm/pocket_docking_2.prm

>  <SCORE>
-5.38937

>  <SCORE.INTER>
-5.8304

>  <SCORE.INTER.CONST>
1

>  <SCORE.INTER.POLAR>
-0.505639

>  <SCORE.INTER.ROT>
14

>  <SCORE.INTER.SOLV>
15.1098

>  <SCORE.INTER.VDW>
-20.1714

>  <SCORE.INTER.norm>
-0.161956

>  <SCORE.INTRA>
-0.317506

>  <SCORE.INTRA.DIHEDRAL>
-11.6606

>  <SCORE.INTRA.DIHEDRAL.0>
26.3805

>  <SCORE.INTRA.POLAR>
0

>  <SCORE.INTRA.POLAR.0>
0

>  <SCORE.INTRA.REPUL>
0.0191431

>  <SCORE.INTRA.REPUL.0>
0

>  <SCORE.INTRA.SOLV>
4.88372

>  <SCORE.INTRA.SOLV.lig_0>
-98.5587

>  <SCORE.INTRA.VDW>
2.97523

>  <SCORE.INTRA.VDW.0>
-2.91167

>  <SCORE.INTRA.norm>
-0.00881962

>  <SCORE.RESTR>
0.758534

>  <SCORE.RESTR.CAVITY>
0.758534

>  <SCORE.RESTR.norm>
0.0210704

>  <SCORE.SYSTEM>
0

>  <SCORE.SYSTEM.CONST>
0

>  <SCORE.SYSTEM.DIHEDRAL>
0

>  <SCORE.SYSTEM.SOLV>
0

>  <SCORE.SYSTEM.norm>
0

>  <SCORE.heavy>
36

>  <SCORE.norm>
-0.149705

>  <RMSD>
1.625

$$$$
2f4u_lig
 OpenBabel11021811433D
libRbt.so/2013.1/901 2013/11/27
 36 37  0  0  0  0  0  0  0  0999 V2000
   37.6032    8.6663    5.7794 C   0  0  2  0  0  0  0  0  0  0  0  0
   38.1208    7.3955    5.2361 O   0  0  0  0  0  0  0  0  0  0  0  0
   41.3995    4.7285    6.2522 C   0  0  2  0  0  0  0  0  0  0  0  0
   42.7848    4.2652    6.5370 N   0  0  0  0  0  0  0  0  0  0  0  0
   36.0798    8.7090    5.4454 C   0  0  2  0  0  0  0  0  0  0  0  0
   35.3413    7.5664    6.0140 N   0  0  0  0  0  0  0  0  0  0  0  0
   41.2749    5.3373    4.8110 C   0  0  0  0  0  0  0  0  0  0  0  0
   43.9927    5.3651    5.8168 C   0  0  0  0  0  0  0  0  0  0  0  0
   44.9860    4.3433    6.2741 C   0  0  1  0  0  0  0  0  0  0  0  0
   46.1233    4.3255    5.2467 C   0  0  0  0  0  0  0  0  0  0  0  0
   47.1221    3.1600    5.3714 C   0  0  0  0  0  0  0  0  0  0  0  0
   46.3985    1.9030    5.1708 N   0  0  0  0  0  0  0  0  0  0  0  0
   45.5346    4.7170    7.5085 O   0  0  0  0  0  0  0  0  0  0  0  0
   41.0827    4.2352    9.6148 C   0  0  0  0  0  0  0  0  0  0  0  0
   39.6335    4.1305   10.0662 C   0  0  0  0  0  0  0  0  0  0  0  0
   35.9046    8.7415    3.8908 C   0  0  1  0  0  0  0  0  0  0  0  0
   39.1245    5.3370   10.7491 N   0  0  0  0  0  0  0  0  0  0  0  0
   34.5255    8.7700    3.5319 O   0  0  0  0  0  0  0  0  0  0  0  0
   39.8499    5.8644    4.5462 C   0  0  2  0  0  0  0  0  0  0  0  0
   39.7466    6.4706    3.2248 N   0  0  0  0  0  0  0  0  0  0  0  0
   36.6816    4.9545   11.0422 C   0  0  0  0  0  0  0  0  0  0  0  0
   36.7429    4.9087   12.5986 C   0  0  0  0  0  0  0  0  0  0  0  0
   37.7742    5.8572   10.4121 C   0  0  0  0  0  0  0  0  0  0  0  0
   38.0156    4.2986   13.0881 N   0  0  0  0  0  0  0  0  0  0  0  0
   43.9703    6.2887    5.2620 O   0  0  0  0  0  0  0  0  0  0  0  0
   36.6533    9.9751    3.3479 C   0  0  2  0  0  0  0  0  0  0  0  0
   36.5606   10.0893    1.9302 O   0  0  0  0  0  0  0  0  0  0  0  0
   39.4723    6.9078    5.5787 C   0  0  2  0  0  0  0  0  0  0  0  0
   38.1371    9.9397    3.7560 C   0  0  2  0  0  0  0  0  0  0  0  0
   38.2751    9.8077    5.1750 O   0  0  0  0  0  0  0  0  0  0  0  0
   39.5519    6.2807    7.0295 C   0  0  2  0  0  0  0  0  0  0  0  0
   39.2010    7.3124    8.0045 O   0  0  0  0  0  0  0  0  0  0  0  0
   38.8711   11.1752    3.3076 C   0  0  0  0  0  0  0  0  0  0  0  0
   38.9595   12.0838    4.3380 O   0  0  0  0  0  0  0  0  0  0  0  0
   41.0119    5.7724    7.2808 C   0  0  1  0  0  0  0  0  0  0  0  0
   41.1590    5.2076    8.5511 O   0  0  0  0  0  0  0  0  0  0  0  0
  1  2  1  6  0  0  0
  1  5  1  0  0  0  0
  1 30  1  0  0  0  0
  3  4  1  1  0  0  0
  3  7  1  0  0  0  0
  3 35  1  0  0  0  0
  5  6  1  6  0  0  0
  5 16  1  0  0  0  0
  7 19  1  0  0  0  0
  8  4  1  0  0  0  0
  8 25  2  0  0  0  0
  9  8  1  6  0  0  0
  9 10  1  0  0  0  0
  9 13  1  0  0  0  0
 10 11  1  0  0  0  0
 11 12  1  0  0  0  0
 14 15  1  0  0  0  0
 14 36  1  0  0  0  0
 15 17  1  0  0  0  0
 16 18  1  1  0  0  0
 16 26  1  0  0  0  0
 17 23  1  0  0  0  0
 19 20  1  6  0  0  0
 19 28  1  0  0  0  0
 21 22  1  0  0  0  0
 21 23  1  0  0  0  0
 22 24  1  0  0  0  0
 26 27  1  6  0  0  0
 26 29  1  0  0  0  0
 28  2  1  6  0  0  0
 28 31  1  0  0  0  0
 29 30  1  0  0  0  0
 29 33  1  1  0  0  0
 31 32  1  1  0  0  0
 31 35  1  0  0  0  0
 33 34  1  0  0  0  0
 35 36  1  1  0  0  0
M  END
>  <CHROM.1>
-168.83598561,37.27571304,146.52578024,-168.68232817,61.77888385,-68.27174591
-72.86301232,136.14614511,74.72192470,-63.77746902,61.71840662,-162.15189521
97.59283431,-43.47564410,39.92409001,6.56370282,6.43127905,2.59260906,0.42156900
-1.04449399

>  <Name>
2f4u_lig

>  <RI>
0

>  <Rbt.Current_Directory>
/home/itssahil/PROJECTS/Mol_Feturizer/New_Systems/rnas/2f4u

>  <Rbt.Executable>
rbdock ($Id: //depot/dev/client3/rdock/2013.1/src/exe/rbdock.cxx#4 $)

>  <Rbt.Library>
libRbt.so (2013.1, Build901 2013/11/27)

>  <Rbt.Parameter_File>
/export/apps/rDock/src/rDock_2013.1_src/data/scripts/dock_solv.prm

>  <Rbt.Receptor>
prm/pocket_docking_3.prm

>  <SCORE>
-19.076

>  <SCORE.INTER>
-13.7

>  <SCORE.INTER.CONST>
1

>  <SCORE.INTER.POLAR>
-2.51238

>  <SCORE.INTER.ROT>
14

>  <SCORE.INTER.SOLV>
14.6377

>  <SCORE.INTER.VDW>
-18.5713

>  <SCORE.INTER.norm>
-0.380554

>  <SCORE.INTRA>
-5.37602

>  <SCORE.INTRA.DIHEDRAL>
-14.618

>  <SCORE.INTRA.DIHEDRAL.0>
26.3805

>  <SCORE.INTRA.POLAR>
0

>  <SCORE.INTRA.POLAR.0>
0

>  <SCORE.INTRA.REPUL>
0

>  <SCORE.INTRA.REPUL.0>
0

>  <SCORE.INTRA.SOLV>
5.51264

>  <SCORE.INTRA.SOLV.lig_0>
-98.5587

>  <SCORE.INTRA.VDW>
-0.823328

>  <SCORE.INTRA.VDW.0>
-2.91167

>  <SCORE.INTRA.norm>
-0.149334

>  <SCORE.RESTR>
0

>  <SCORE.RESTR.CAVITY>
0

>  <SCORE.RESTR.norm>
0

>  <SCORE.SYSTEM>
0

>  <SCORE.SYSTEM.CONST>
0

>  <SCORE.SYSTEM.DIHEDRAL>
0

>  <SCORE.SYSTEM.SOLV>
0

>  <SCORE.SYSTEM.norm>
0

>  <SCORE.heavy>
36

>  <SCORE.norm>
-0.529888

>  <RMSD>
1.685

$$$$
2f4u_lig
 OpenBabel11021811433D
libRbt.so/2013.1/901 2013/11/27
 36 37  0  0  0  0  0  0  0  0999 V2000
   37.2714    8.9282    5.8717 C   0  0  2  0  0  0  0  0  0  0  0  0
   37.8049    7.6252    5.4296 O   0  0  0  0  0  0  0  0  0  0  0  0
   40.9672    5.0123    6.8674 C   0  0  2  0  0  0  0  0  0  0  0  0
   42.3279    4.5502    7.2544 N   0  0  0  0  0  0  0  0  0  0  0  0
   35.8143    9.0255    5.3225 C   0  0  2  0  0  0  0  0  0  0  0  0
   34.9531    7.9274    5.7987 N   0  0  0  0  0  0  0  0  0  0  0  0
   40.9087    5.4512    5.3617 C   0  0  0  0  0  0  0  0  0  0  0  0
   43.5815    5.3182    6.2414 C   0  0  0  0  0  0  0  0  0  0  0  0
   44.5205    4.3967    6.9547 C   0  0  1  0  0  0  0  0  0  0  0  0
   45.0099    3.3667    5.9306 C   0  0  0  0  0  0  0  0  0  0  0  0
   43.9980    2.2726    5.5430 C   0  0  0  0  0  0  0  0  0  0  0  0
   43.8387    1.3620    6.6785 N   0  0  0  0  0  0  0  0  0  0  0  0
   45.6400    5.1037    7.4142 O   0  0  0  0  0  0  0  0  0  0  0  0
   40.4186    4.9901   10.2782 C   0  0  0  0  0  0  0  0  0  0  0  0
   40.7929    3.5424    9.9977 C   0  0  0  0  0  0  0  0  0  0  0  0
   35.8636    9.0294    3.7585 C   0  0  1  0  0  0  0  0  0  0  0  0
   39.6363    2.6506    9.7788 N   0  0  0  0  0  0  0  0  0  0  0  0
   34.5522    9.1061    3.2055 O   0  0  0  0  0  0  0  0  0  0  0  0
   39.5096    5.9800    4.9857 C   0  0  2  0  0  0  0  0  0  0  0  0
   39.4684    6.4297    3.5999 N   0  0  0  0  0  0  0  0  0  0  0  0
   37.4572    2.1337   10.8671 C   0  0  0  0  0  0  0  0  0  0  0  0
   36.9868    3.6185   10.9149 C   0  0  0  0  0  0  0  0  0  0  0  0
   38.9986    1.9765   10.9392 C   0  0  0  0  0  0  0  0  0  0  0  0
   35.5028    3.7286   11.0449 N   0  0  0  0  0  0  0  0  0  0  0  0
   43.6015    6.0501    5.4506 O   0  0  0  0  0  0  0  0  0  0  0  0
   36.7352   10.2186    3.3076 C   0  0  2  0  0  0  0  0  0  0  0  0
   36.8502   10.3040    1.8894 O   0  0  0  0  0  0  0  0  0  0  0  0
   39.1292    7.1465    5.8756 C   0  0  2  0  0  0  0  0  0  0  0  0
   38.1429   10.1319    3.9243 C   0  0  2  0  0  0  0  0  0  0  0  0
   38.0717   10.0270    5.3505 O   0  0  0  0  0  0  0  0  0  0  0  0
   39.1418    6.6918    7.3913 C   0  0  2  0  0  0  0  0  0  0  0  0
   38.7896    7.8392    8.2264 O   0  0  0  0  0  0  0  0  0  0  0  0
   38.9865   11.3257    3.5648 C   0  0  0  0  0  0  0  0  0  0  0  0
   39.2116   11.3655    2.2073 O   0  0  0  0  0  0  0  0  0  0  0  0
   40.5770    6.1791    7.7531 C   0  0  1  0  0  0  0  0  0  0  0  0
   40.6649    5.7634    9.0849 O   0  0  0  0  0  0  0  0  0  0  0  0
  1  2  1  6  0  0  0
  1  5  1  0  0  0  0
  1 30  1  0  0  0  0
  3  4  1  1  0  0  0
  3  7  1  0  0  0  0
  3 35  1  0  0  0  0
  5  6  1  6  0  0  0
  5 16  1  0  0  0  0
  7 19  1  0  0  0  0
  8  4  1  0  0  0  0
  8 25  2  0  0  0  0
  9  8  1  6  0  0  0
  9 10  1  0  0  0  0
  9 13  1  0  0  0  0
 10 11  1  0  0  0  0
 11 12  1  0  0  0  0
 14 15  1  0  0  0  0
 14 36  1  0  0  0  0
 15 17  1  0  0  0  0
 16 18  1  6  0  0  0
 16 26  1  0  0  0  0
 17 23  1  0  0  0  0
 19 20  1  6  0  0  0
 19 28  1  0  0  0  0
 21 22  1  0  0  0  0
 21 23  1  0  0  0  0
 22 24  1  0  0  0  0
 26 27  1  6  0  0  0
 26 29  1  0  0  0  0
 28  2  1  6  0  0  0
 28 31  1  0  0  0  0
 29 30  1  0  0  0  0
 29 33  1  1  0  0  0
 31 32  1  1  0  0  0
 31 35  1  0  0  0  0
 33 34  1  0  0  0  0
 35 36  1  1  0  0  0
M  END
>  <CHROM.1>
-174.48077489,26.95963306,111.09685701,-74.92447014,-71.29318609,-103.73763964
58.79135219,-88.53705320,132.72714271,-171.66993356,-61.25057057,-166.05557449
-64.26537191,-57.92833674,39.59875485,6.33519739,6.48170817,2.16156456,0.31403567
-0.83337232

>  <Name>
2f4u_lig

>  <RI>
0

>  <Rbt.Current_Directory>
/home/itssahil/PROJECTS/Mol_Feturizer/New_Systems/rnas/2f4u

>  <Rbt.Executable>
rbdock ($Id: //depot/dev/client3/rdock/2013.1/src/exe/rbdock.cxx#4 $)

>  <Rbt.Library>
libRbt.so (2013.1, Build901 2013/11/27)

>  <Rbt.Parameter_File>
/export/apps/rDock/src/rDock_2013.1_src/data/scripts/dock_solv.prm

>  <Rbt.Receptor>
prm/pocket_docking_2.prm

>  <SCORE>
-17.6004

>  <SCORE.INTER>
-11.7662

>  <SCORE.INTER.CONST>
1

>  <SCORE.INTER.POLAR>
-1.21612

>  <SCORE.INTER.ROT>
14

>  <SCORE.INTER.SOLV>
13.6129

>  <SCORE.INTER.VDW>
-21.2614

>  <SCORE.INTER.norm>
-0.326839

>  <SCORE.INTRA>
-6.45403

>  <SCORE.INTRA.DIHEDRAL>
-14.3938

>  <SCORE.INTRA.DIHEDRAL.0>
26.3805

>  <SCORE.INTRA.POLAR>
0

>  <SCORE.INTRA.POLAR.0>
0

>  <SCORE.INTRA.REPUL>
0

>  <SCORE.INTRA.REPUL.0>
0

>  <SCORE.INTRA.SOLV>
2.08407

>  <SCORE.INTRA.SOLV.lig_0>
-98.5587

>  <SCORE.INTRA.VDW>
-0.299142

>  <SCORE.INTRA.VDW.0>
-2.91167

>  <SCORE.INTRA.norm>
-0.179279

>  <SCORE.RESTR>
0.619795

>  <SCORE.RESTR.CAVITY>
0.619795

>  <SCORE.RESTR.norm>
0.0172165

>  <SCORE.SYSTEM>
0

>  <SCORE.SYSTEM.CONST>
0

>  <SCORE.SYSTEM.DIHEDRAL>
0

>  <SCORE.SYSTEM.SOLV>
0

>  <SCORE.SYSTEM.norm>
0

>  <SCORE.heavy>
36

>  <SCORE.norm>
-0.488901

>  <RMSD>
1.693

$$$$
2f4u_lig
 OpenBabel11021811433D
libRbt.so/2013.1/901 2013/11/27
 36 37  0  0  0  0  0  0  0  0999 V2000
   38.2092    9.1355    5.6624 C   0  0  2  0  0  0  0  0  0  0  0  0
   38.7067    7.9007    5.0254 O   0  0  0  0  0  0  0  0  0  0  0  0
   40.5669    4.4357    6.8770 C   0  0  2  0  0  0  0  0  0  0  0  0
   41.6126    3.5782    7.4983 N   0  0  0  0  0  0  0  0  0  0  0  0
   36.6906    9.2362    5.3192 C   0  0  2  0  0  0  0  0  0  0  0  0
   35.9231    8.0683    5.7892 N   0  0  0  0  0  0  0  0  0  0  0  0
   40.9706    4.8879    5.4294 C   0  0  0  0  0  0  0  0  0  0  0  0
   43.2500    4.1583    7.0862 C   0  0  0  0  0  0  0  0  0  0  0  0
   43.7107    2.9170    7.7839 C   0  0  1  0  0  0  0  0  0  0  0  0
   45.0522    2.5175    7.1593 C   0  0  0  0  0  0  0  0  0  0  0  0
   44.9734    1.5609    5.9551 C   0  0  0  0  0  0  0  0  0  0  0  0
   44.0506    2.1274    4.9696 N   0  0  0  0  0  0  0  0  0  0  0  0
   43.9358    3.1780    9.1424 O   0  0  0  0  0  0  0  0  0  0  0  0
   39.7266    5.2734   10.4478 C   0  0  0  0  0  0  0  0  0  0  0  0
   39.1815    3.9193   10.8765 C   0  0  0  0  0  0  0  0  0  0  0  0
   36.5326    9.3945    3.7704 C   0  0  1  0  0  0  0  0  0  0  0  0
   37.7080    3.8242   10.8475 N   0  0  0  0  0  0  0  0  0  0  0  0
   35.1584    9.4802    3.4025 O   0  0  0  0  0  0  0  0  0  0  0  0
   39.9063    5.8206    4.8160 C   0  0  2  0  0  0  0  0  0  0  0  0
   40.3030    6.2766    3.4897 N   0  0  0  0  0  0  0  0  0  0  0  0
   35.4379    4.2611   11.7728 C   0  0  0  0  0  0  0  0  0  0  0  0
   35.1886    5.5688   10.9629 C   0  0  0  0  0  0  0  0  0  0  0  0
   36.9345    4.0193   12.1010 C   0  0  0  0  0  0  0  0  0  0  0  0
   35.5779    5.4184    9.5287 N   0  0  0  0  0  0  0  0  0  0  0  0
   43.6660    4.9847    6.5336 O   0  0  0  0  0  0  0  0  0  0  0  0
   37.3119   10.6510    3.3332 C   0  0  2  0  0  0  0  0  0  0  0  0
   37.2367   10.8783    1.9281 O   0  0  0  0  0  0  0  0  0  0  0  0
   39.7008    7.0377    5.6955 C   0  0  2  0  0  0  0  0  0  0  0  0
   38.7903   10.5525    3.7506 C   0  0  2  0  0  0  0  0  0  0  0  0
   38.9105   10.3064    5.1560 O   0  0  0  0  0  0  0  0  0  0  0  0
   39.2477    6.5843    7.1424 C   0  0  2  0  0  0  0  0  0  0  0  0
   39.0748    7.7754    7.9727 O   0  0  0  0  0  0  0  0  0  0  0  0
   39.5539   11.8036    3.4076 C   0  0  0  0  0  0  0  0  0  0  0  0
   39.0284   12.8870    4.0749 O   0  0  0  0  0  0  0  0  0  0  0  0
   40.3533    5.6563    7.7504 C   0  0  1  0  0  0  0  0  0  0  0  0
   40.0219    5.2191    9.0362 O   0  0  0  0  0  0  0  0  0  0  0  0
  1  2  1  6  0  0  0
  1  5  1  0  0  0  0
  1 30  1  0  0  0  0
  3  4  1  1  0  0  0
  3  7  1  0  0  0  0
  3 35  1  0  0  0  0
  5  6  1  6  0  0  0
  5 16  1  0  0  0  0
  7 19  1  0  0  0  0
  8  4  1  0  0  0  0
  8 25  2  0  0  0  0
  9  8  1  6  0  0  0
  9 10  1  0  0  0  0
  9 13  1  0  0  0  0
 10 11  1  0  0  0  0
 11 12  1  0  0  0  0
 14 15  1  0  0  0  0
 14 36  1  0  0  0  0
 15 17  1  0  0  0  0
 16 18  1  1  0  0  0
 16 26  1  0  0  0  0
 17 23  1  0  0  0  0
 19 20  1  6  0  0  0
 19 28  1  0  0  0  0
 21 22  1  0  0  0  0
 21 23  1  0  0  0  0
 22 24  1  0  0  0  0
 26 27  1  6  0  0  0
 26 29  1  0  0  0  0
 28  2  1  6  0  0  0
 28 31  1  0  0  0  0
 29 30  1  0  0  0  0
 29 33  1  1  0  0  0
 31 32  1  1  0  0  0
 31 35  1  0  0  0  0
 33 34  1  0  0  0  0
 35 36  1  1  0  0  0
M  END
>  <CHROM.1>
-141.82663556,38.70061375,152.05281353,-90.41083373,52.71802916,-93.53535549
169.17475878,-97.61291543,164.54200437,75.64330651,-63.78378532,175.92236104
61.42624413,172.90401137,39.49866041,6.47016941,6.69876041,2.13190292,0.49369906
-0.85566029

>  <Name>
2f4u_lig

>  <RI>
0

>  <Rbt.Current_Directory>
/home/itssahil/PROJECTS/Mol_Feturizer/New_Systems/rnas/2f4u

>  <Rbt.Executable>
rbdock ($Id: //depot/dev/client3/rdock/2013.1/src/exe/rbdock.cxx#4 $)

>  <Rbt.Library>
libRbt.so (2013.1, Build901 2013/11/27)

>  <Rbt.Parameter_File>
/export/apps/rDock/src/rDock_2013.1_src/data/scripts/dock_solv.prm

>  <Rbt.Receptor>
prm/pocket_docking_2.prm

>  <SCORE>
-9.06498

>  <SCORE.INTER>
-7.31798

>  <SCORE.INTER.CONST>
1

>  <SCORE.INTER.POLAR>
-1.20383

>  <SCORE.INTER.ROT>
14

>  <SCORE.INTER.SOLV>
12.524

>  <SCORE.INTER.VDW>
-17.9739

>  <SCORE.INTER.norm>
-0.203277

>  <SCORE.INTRA>
-2.94277

>  <SCORE.INTRA.DIHEDRAL>
-10.5503

>  <SCORE.INTRA.DIHEDRAL.0>
26.3805

>  <SCORE.INTRA.POLAR>
0

>  <SCORE.INTRA.POLAR.0>
0

>  <SCORE.INTRA.REPUL>
0

>  <SCORE.INTRA.REPUL.0>
0

>  <SCORE.INTRA.SOLV>
6.50074

>  <SCORE.INTRA.SOLV.lig_0>
-98.5587

>  <SCORE.INTRA.VDW>
-0.917995

>  <SCORE.INTRA.VDW.0>
-2.91167

>  <SCORE.INTRA.norm>
-0.0817436

>  <SCORE.RESTR>
1.19578

>  <SCORE.RESTR.CAVITY>
1.19578

>  <SCORE.RESTR.norm>
0.0332161

>  <SCORE.SYSTEM>
0

>  <SCORE.SYSTEM.CONST>
0

>  <SCORE.SYSTEM.DIHEDRAL>
0

>  <SCORE.SYSTEM.SOLV>
0

>  <SCORE.SYSTEM.norm>
0

>  <SCORE.heavy>
36

>  <SCORE.norm>
-0.251805

>  <RMSD>
1.693

$$$$
2f4u_lig
 OpenBabel11021811433D
libRbt.so/2013.1/901 2013/11/27
 36 37  0  0  0  0  0  0  0  0999 V2000
   37.5892    8.6527    5.7673 C   0  0  2  0  0  0  0  0  0  0  0  0
   38.0259    7.3497    5.2292 O   0  0  0  0  0  0  0  0  0  0  0  0
   40.3981    4.2732    7.1793 C   0  0  2  0  0  0  0  0  0  0  0  0
   41.5906    3.5494    7.6979 N   0  0  0  0  0  0  0  0  0  0  0  0
   36.0722    8.7911    5.4302 C   0  0  2  0  0  0  0  0  0  0  0  0
   35.2615    7.6997    6.0011 N   0  0  0  0  0  0  0  0  0  0  0  0
   40.4776    4.4868    5.6265 C   0  0  0  0  0  0  0  0  0  0  0  0
   43.1030    4.3155    7.1383 C   0  0  0  0  0  0  0  0  0  0  0  0
   43.7694    3.1422    7.7856 C   0  0  1  0  0  0  0  0  0  0  0  0
   45.2156    3.1062    7.2790 C   0  0  0  0  0  0  0  0  0  0  0  0
   46.0954    1.9741    7.8408 C   0  0  0  0  0  0  0  0  0  0  0  0
   47.4350    2.0944    7.2621 N   0  0  0  0  0  0  0  0  0  0  0  0
   43.8106    3.3128    9.1761 O   0  0  0  0  0  0  0  0  0  0  0  0
   40.6659    4.9394   10.5611 C   0  0  0  0  0  0  0  0  0  0  0  0
   39.6921    5.4996   11.5871 C   0  0  0  0  0  0  0  0  0  0  0  0
   35.9022    8.8293    3.8751 C   0  0  1  0  0  0  0  0  0  0  0  0
   38.3229    4.9566   11.4802 N   0  0  0  0  0  0  0  0  0  0  0  0
   34.5284    8.9444    3.5134 O   0  0  0  0  0  0  0  0  0  0  0  0
   39.2647    5.2856    5.1075 C   0  0  2  0  0  0  0  0  0  0  0  0
   39.3616    5.5229    3.6727 N   0  0  0  0  0  0  0  0  0  0  0  0
   36.1862    4.0853   12.4158 C   0  0  0  0  0  0  0  0  0  0  0  0
   35.8664    3.0844   11.2651 C   0  0  0  0  0  0  0  0  0  0  0  0
   37.7064    4.2824   12.6519 C   0  0  0  0  0  0  0  0  0  0  0  0
   36.2823    3.6164    9.9327 N   0  0  0  0  0  0  0  0  0  0  0  0
   43.3657    5.1813    6.5527 O   0  0  0  0  0  0  0  0  0  0  0  0
   36.7289   10.0110    3.3297 C   0  0  2  0  0  0  0  0  0  0  0  0
   36.6461   10.1261    1.9114 O   0  0  0  0  0  0  0  0  0  0  0  0
   39.1779    6.6277    5.8065 C   0  0  2  0  0  0  0  0  0  0  0  0
   38.2067    9.8826    3.7408 C   0  0  2  0  0  0  0  0  0  0  0  0
   38.3335    9.7469    5.1605 O   0  0  0  0  0  0  0  0  0  0  0  0
   39.0500    6.4118    7.3691 C   0  0  2  0  0  0  0  0  0  0  0  0
   38.9866    7.7206    8.0180 O   0  0  0  0  0  0  0  0  0  0  0  0
   39.0186   11.0673    3.2898 C   0  0  0  0  0  0  0  0  0  0  0  0
   40.3596   10.8426    3.5050 O   0  0  0  0  0  0  0  0  0  0  0  0
   40.3020    5.6174    7.8736 C   0  0  1  0  0  0  0  0  0  0  0  0
   40.2598    5.3932    9.2527 O   0  0  0  0  0  0  0  0  0  0  0  0
  1  2  1  6  0  0  0
  1  5  1  0  0  0  0
  1 30  1  0  0  0  0
  3  4  1  1  0  0  0
  3  7  1  0  0  0  0
  3 35  1  0  0  0  0
  5  6  1  6  0  0  0
  5 16  1  0  0  0  0
  7 19  1  0  0  0  0
  8  4  1  0  0  0  0
  8 25  2  0  0  0  0
  9  8  1  6  0  0  0
  9 10  1  0  0  0  0
  9 13  1  0  0  0  0
 10 11  1  0  0  0  0
 11 12  1  0  0  0  0
 14 15  1  0  0  0  0
 14 36  1  0  0  0  0
 15 17  1  0  0  0  0
 16 18  1  1  0  0  0
 16 26  1  0  0  0  0
 17 23  1  0  0  0  0
 19 20  1  6  0  0  0
 19 28  1  0  0  0  0
 21 22  1  0  0  0  0
 21 23  1  0  0  0  0
 22 24  1  0  0  0  0
 26 27  1  6  0  0  0
 26 29  1  0  0  0  0
 28  2  1  6  0  0  0
 28 31  1  0  0  0  0
 29 30  1  0  0  0  0
 29 33  1  1  0  0  0
 31 32  1  1  0  0  0
 31 35  1  0  0  0  0
 33 34  1  0  0  0  0
 35 36  1  1  0  0  0
M  END
>  <CHROM.1>
-154.22631368,51.00977802,165.51828004,179.22148394,-179.65445439,66.87572622
172.45958722,122.65627380,167.34329290,-67.24787916,66.64978117,174.84138007
-171.68297071,58.73236180,39.52615444,6.16256120,6.96544706,2.25365766,0.35884674
-0.97261629

>  <Name>
2f4u_lig

>  <RI>
0

>  <Rbt.Current_Directory>
/home/itssahil/PROJECTS/Mol_Feturizer/New_Systems/rnas/2f4u

>  <Rbt.Executable>
rbdock ($Id: //depot/dev/client3/rdock/2013.1/src/exe/rbdock.cxx#4 $)

>  <Rbt.Library>
libRbt.so (2013.1, Build901 2013/11/27)

>  <Rbt.Parameter_File>
/export/apps/rDock/src/rDock_2013.1_src/data/scripts/dock_solv.prm

>  <Rbt.Receptor>
prm/pocket_docking_3.prm

>  <SCORE>
-19.9674

>  <SCORE.INTER>
-10.2249

>  <SCORE.INTER.CONST>
1

>  <SCORE.INTER.POLAR>
-1.21822

>  <SCORE.INTER.ROT>
14

>  <SCORE.INTER.SOLV>
11.2331

>  <SCORE.INTER.VDW>
-19.4335

>  <SCORE.INTER.norm>
-0.284024

>  <SCORE.INTRA>
-9.74258

>  <SCORE.INTRA.DIHEDRAL>
-19.9897

>  <SCORE.INTRA.DIHEDRAL.0>
26.3805

>  <SCORE.INTRA.POLAR>
0

>  <SCORE.INTRA.POLAR.0>
0

>  <SCORE.INTRA.REPUL>
0.00108528

>  <SCORE.INTRA.REPUL.0>
0

>  <SCORE.INTRA.SOLV>
2.43941

>  <SCORE.INTRA.SOLV.lig_0>
-98.5587

>  <SCORE.INTRA.VDW>
-0.972844

>  <SCORE.INTRA.VDW.0>
-2.91167

>  <SCORE.INTRA.norm>
-0.270627

>  <SCORE.RESTR>
0

>  <SCORE.RESTR.CAVITY>
0

>  <SCORE.RESTR.norm>
0

>  <SCORE.SYSTEM>
0

>  <SCORE.SYSTEM.CONST>
0

>  <SCORE.SYSTEM.DIHEDRAL>
0

>  <SCORE.SYSTEM.SOLV>
0

>  <SCORE.SYSTEM.norm>
0

>  <SCORE.heavy>
36

>  <SCORE.norm>
-0.554651

>  <RMSD>
1.703

$$$$
2f4u_lig
 OpenBabel11021811433D
libRbt.so/2013.1/901 2013/11/27
 36 37  0  0  0  0  0  0  0  0999 V2000
   37.4323    8.6574    5.6167 C   0  0  2  0  0  0  0  0  0  0  0  0
   38.0771    7.5171    4.9371 O   0  0  0  0  0  0  0  0  0  0  0  0
   41.4479    5.0861    6.2111 C   0  0  2  0  0  0  0  0  0  0  0  0
   42.8545    4.6838    6.4839 N   0  0  0  0  0  0  0  0  0  0  0  0
   35.9029    8.5431    5.3303 C   0  0  2  0  0  0  0  0  0  0  0  0
   35.3298    7.2697    5.8036 N   0  0  0  0  0  0  0  0  0  0  0  0
   41.2212    5.4146    4.6932 C   0  0  0  0  0  0  0  0  0  0  0  0
   44.0072    5.8117    5.7181 C   0  0  0  0  0  0  0  0  0  0  0  0
   45.0467    4.8405    6.1829 C   0  0  1  0  0  0  0  0  0  0  0  0
   46.2746    5.0265    5.2845 C   0  0  0  0  0  0  0  0  0  0  0  0
   47.4691    4.1009    5.5807 C   0  0  0  0  0  0  0  0  0  0  0  0
   47.0572    2.7168    5.3383 N   0  0  0  0  0  0  0  0  0  0  0  0
   45.4338    5.1348    7.4974 O   0  0  0  0  0  0  0  0  0  0  0  0
   42.0689    5.5859    9.5787 C   0  0  0  0  0  0  0  0  0  0  0  0
   41.0984    5.5980   10.7503 C   0  0  0  0  0  0  0  0  0  0  0  0
   35.6644    8.7003    3.7918 C   0  0  1  0  0  0  0  0  0  0  0  0
   39.8741    4.8023   10.5294 N   0  0  0  0  0  0  0  0  0  0  0  0
   34.2789    8.5923    3.4753 O   0  0  0  0  0  0  0  0  0  0  0  0
   39.7755    5.8834    4.4308 C   0  0  2  0  0  0  0  0  0  0  0  0
   39.5780    6.2317    3.0294 N   0  0  0  0  0  0  0  0  0  0  0  0
   37.8867    4.5798   12.0129 C   0  0  0  0  0  0  0  0  0  0  0  0
   36.4128    5.0025   12.2910 C   0  0  0  0  0  0  0  0  0  0  0  0
   38.5489    5.3848   10.8644 C   0  0  0  0  0  0  0  0  0  0  0  0
   36.3187    6.4165   12.7635 N   0  0  0  0  0  0  0  0  0  0  0  0
   43.9401    6.7200    5.1420 O   0  0  0  0  0  0  0  0  0  0  0  0
   36.2377   10.0625    3.3527 C   0  0  2  0  0  0  0  0  0  0  0  0
   36.0766   10.2977    1.9562 O   0  0  0  0  0  0  0  0  0  0  0  0
   39.4541    7.1016    5.2734 C   0  0  2  0  0  0  0  0  0  0  0  0
   37.7298   10.1721    3.7147 C   0  0  2  0  0  0  0  0  0  0  0  0
   37.9381    9.9248    5.1095 O   0  0  0  0  0  0  0  0  0  0  0  0
   39.6368    6.7570    6.8071 C   0  0  2  0  0  0  0  0  0  0  0  0
   39.3384    7.9530    7.5936 O   0  0  0  0  0  0  0  0  0  0  0  0
   38.2920   11.5254    3.3702 C   0  0  0  0  0  0  0  0  0  0  0  0
   39.5694   11.6571    3.8662 O   0  0  0  0  0  0  0  0  0  0  0  0
   41.1163    6.3042    7.0504 C   0  0  1  0  0  0  0  0  0  0  0  0
   41.3537    5.9869    8.3911 O   0  0  0  0  0  0  0  0  0  0  0  0
  1  2  1  6  0  0  0
  1  5  1  0  0  0  0
  1 30  1  0  0  0  0
  3  4  1  6  0  0  0
  3  7  1  0  0  0  0
  3 35  1  0  0  0  0
  5  6  1  6  0  0  0
  5 16  1  0  0  0  0
  7 19  1  0  0  0  0
  8  4  1  0  0  0  0
  8 25  2  0  0  0  0
  9  8  1  6  0  0  0
  9 10  1  0  0  0  0
  9 13  1  0  0  0  0
 10 11  1  0  0  0  0
 11 12  1  0  0  0  0
 14 15  1  0  0  0  0
 14 36  1  0  0  0  0
 15 17  1  0  0  0  0
 16 18  1  1  0  0  0
 16 26  1  0  0  0  0
 17 23  1  0  0  0  0
 19 20  1  6  0  0  0
 19 28  1  0  0  0  0
 21 22  1  0  0  0  0
 21 23  1  0  0  0  0
 22 24  1  0  0  0  0
 26 27  1  6  0  0  0
 26 29  1  0  0  0  0
 28  2  1  1  0  0  0
 28 31  1  0  0  0  0
 29 30  1  0  0  0  0
 29 33  1  1  0  0  0
 31 32  1  1  0  0  0
 31 35  1  0  0  0  0
 33 34  1  0  0  0  0
 35 36  1  1  0  0  0
M  END
>  <CHROM.1>
-163.78606770,47.30024795,156.67798956,-179.18323317,63.43106421,53.63723177
179.64038666,-133.23972860,-115.59833899,-63.71552365,-172.01666107,178.01962434
171.88354247,59.81196977,39.98244513,6.87273675,6.37427953,-2.66908034,-0.36174866
2.01628656

>  <Name>
2f4u_lig

>  <RI>
0

>  <Rbt.Current_Directory>
/home/itssahil/PROJECTS/Mol_Feturizer/New_Systems/rnas/2f4u

>  <Rbt.Executable>
rbdock ($Id: //depot/dev/client3/rdock/2013.1/src/exe/rbdock.cxx#4 $)

>  <Rbt.Library>
libRbt.so (2013.1, Build901 2013/11/27)

>  <Rbt.Parameter_File>
/export/apps/rDock/src/rDock_2013.1_src/data/scripts/dock_solv.prm

>  <Rbt.Receptor>
prm/pocket_docking_3.prm

>  <SCORE>
-25.7766

>  <SCORE.INTER>
-15.2044

>  <SCORE.INTER.CONST>
1

>  <SCORE.INTER.POLAR>
-1.85158

>  <SCORE.INTER.ROT>
14

>  <SCORE.INTER.SOLV>
13.744

>  <SCORE.INTER.VDW>
-21.479

>  <SCORE.INTER.norm>
-0.422344

>  <SCORE.INTRA>
-10.5722

>  <SCORE.INTRA.DIHEDRAL>
-20.778

>  <SCORE.INTRA.DIHEDRAL.0>
26.3805

>  <SCORE.INTRA.POLAR>
0

>  <SCORE.INTRA.POLAR.0>
0

>  <SCORE.INTRA.REPUL>
0

>  <SCORE.INTRA.REPUL.0>
0

>  <SCORE.INTRA.SOLV>
1.56058

>  <SCORE.INTRA.SOLV.lig_0>
-98.5587

>  <SCORE.INTRA.VDW>
-0.963468

>  <SCORE.INTRA.VDW.0>
-2.91167

>  <SCORE.INTRA.norm>
-0.293672

>  <SCORE.RESTR>
0

>  <SCORE.RESTR.CAVITY>
0

>  <SCORE.RESTR.norm>
0

>  <SCORE.SYSTEM>
0

>  <SCORE.SYSTEM.CONST>
0

>  <SCORE.SYSTEM.DIHEDRAL>
0

>  <SCORE.SYSTEM.SOLV>
0

>  <SCORE.SYSTEM.norm>
0

>  <SCORE.heavy>
36

>  <SCORE.norm>
-0.716016

>  <RMSD>
1.711

$$$$
2f4u_lig
 OpenBabel11021811433D
libRbt.so/2013.1/901 2013/11/27
 36 37  0  0  0  0  0  0  0  0999 V2000
   37.2995    9.1307    5.5654 C   0  0  2  0  0  0  0  0  0  0  0  0
   38.0105    7.9292    5.0871 O   0  0  0  0  0  0  0  0  0  0  0  0
   41.8457    5.9559    5.6279 C   0  0  2  0  0  0  0  0  0  0  0  0
   43.1616    5.6031    6.2268 N   0  0  0  0  0  0  0  0  0  0  0  0
   35.8102    8.9741    5.1276 C   0  0  2  0  0  0  0  0  0  0  0  0
   35.1838    7.7544    5.6700 N   0  0  0  0  0  0  0  0  0  0  0  0
   41.7701    7.4760    5.2449 C   0  0  0  0  0  0  0  0  0  0  0  0
   43.7408    4.0251    5.6255 C   0  0  0  0  0  0  0  0  0  0  0  0
   44.8381    4.2067    6.6268 C   0  0  1  0  0  0  0  0  0  0  0  0
   45.6673    2.9176    6.6293 C   0  0  0  0  0  0  0  0  0  0  0  0
   45.4698    1.9951    7.8465 C   0  0  0  0  0  0  0  0  0  0  0  0
   44.0826    1.5266    7.8557 N   0  0  0  0  0  0  0  0  0  0  0  0
   45.6834    5.2545    6.2370 O   0  0  0  0  0  0  0  0  0  0  0  0
   40.9378    2.8435    6.8022 C   0  0  0  0  0  0  0  0  0  0  0  0
   40.9576    2.2053    8.1831 C   0  0  0  0  0  0  0  0  0  0  0  0
   35.7421    8.9630    3.5643 C   0  0  1  0  0  0  0  0  0  0  0  0
   39.9266    2.7250    9.1040 N   0  0  0  0  0  0  0  0  0  0  0  0
   34.3992    8.8104    3.1118 O   0  0  0  0  0  0  0  0  0  0  0  0
   40.3841    7.8429    4.6766 C   0  0  2  0  0  0  0  0  0  0  0  0
   40.2994    9.2638    4.3634 N   0  0  0  0  0  0  0  0  0  0  0  0
   39.4697    4.5359   10.7508 C   0  0  0  0  0  0  0  0  0  0  0  0
   39.6412    5.6967    9.7253 C   0  0  0  0  0  0  0  0  0  0  0  0
   40.3319    3.2907   10.4167 C   0  0  0  0  0  0  0  0  0  0  0  0
   38.8286    6.8934   10.0979 N   0  0  0  0  0  0  0  0  0  0  0  0
   43.3956    3.2876    4.9195 O   0  0  0  0  0  0  0  0  0  0  0  0
   36.3653   10.2746    3.0463 C   0  0  2  0  0  0  0  0  0  0  0  0
   36.3589   10.3570    1.6233 O   0  0  0  0  0  0  0  0  0  0  0  0
   39.2974    7.5116    5.6799 C   0  0  2  0  0  0  0  0  0  0  0  0
   37.8092   10.4344    3.5551 C   0  0  2  0  0  0  0  0  0  0  0  0
   37.8626   10.3402    4.9829 O   0  0  0  0  0  0  0  0  0  0  0  0
   39.3427    5.9691    6.0307 C   0  0  2  0  0  0  0  0  0  0  0  0
   38.2976    5.6822    7.0122 O   0  0  0  0  0  0  0  0  0  0  0  0
   38.4109   11.7473    3.1303 C   0  0  0  0  0  0  0  0  0  0  0  0
   39.7335   11.8153    3.5059 O   0  0  0  0  0  0  0  0  0  0  0  0
   40.7513    5.6272    6.6242 C   0  0  1  0  0  0  0  0  0  0  0  0
   40.8631    4.2757    6.9636 O   0  0  0  0  0  0  0  0  0  0  0  0
  1  2  1  6  0  0  0
  1  5  1  0  0  0  0
  1 30  1  0  0  0  0
  3  4  1  1  0  0  0
  3  7  1  0  0  0  0
  3 35  1  0  0  0  0
  5  6  1  1  0  0  0
  5 16  1  0  0  0  0
  7 19  1  0  0  0  0
  8  4  1  0  0  0  0
  8 25  2  0  0  0  0
  9  8  1  6  0  0  0
  9 10  1  0  0  0  0
  9 13  1  0  0  0  0
 10 11  1  0  0  0  0
 11 12  1  0  0  0  0
 14 15  1  0  0  0  0
 14 36  1  0  0  0  0
 15 17  1  0  0  0  0
 16 18  1  1  0  0  0
 16 26  1  0  0  0  0
 17 23  1  0  0  0  0
 19 20  1  1  0  0  0
 19 28  1  0  0  0  0
 21 22  1  0  0  0  0
 21 23  1  0  0  0  0
 22 24  1  0  0  0  0
 26 27  1  6  0  0  0
 26 29  1  0  0  0  0
 28  2  1  6  0  0  0
 28 31  1  0  0  0  0
 29 30  1  0  0  0  0
 29 33  1  1  0  0  0
 31 32  1  1  0  0  0
 31 35  1  0  0  0  0
 33 34  1  0  0  0  0
 35 36  1  6  0  0  0
M  END
>  <CHROM.1>
-159.52124689,-139.21072698,174.35063165,-105.74199632,63.40426073,47.56557113
-174.64090107,-123.99765343,141.05256081,-178.33945724,-62.07551162,-106.19430842
-175.14195568,-55.82564093,40.03927779,6.49571489,6.01400421,2.30431299,0.31504255
-0.79275989

>  <Name>
2f4u_lig

>  <RI>
0

>  <Rbt.Current_Directory>
/home/itssahil/PROJECTS/Mol_Feturizer/New_Systems/rnas/2f4u

>  <Rbt.Executable>
rbdock ($Id: //depot/dev/client3/rdock/2013.1/src/exe/rbdock.cxx#4 $)

>  <Rbt.Library>
libRbt.so (2013.1, Build901 2013/11/27)

>  <Rbt.Parameter_File>
/export/apps/rDock/src/rDock_2013.1_src/data/scripts/dock_solv.prm

>  <Rbt.Receptor>
prm/pocket_docking_3.prm

>  <SCORE>
-19.3899

>  <SCORE.INTER>
-16.7745

>  <SCORE.INTER.CONST>
1

>  <SCORE.INTER.POLAR>
-2.37054

>  <SCORE.INTER.ROT>
14

>  <SCORE.INTER.SOLV>
17.9122

>  <SCORE.INTER.VDW>
-22.1853

>  <SCORE.INTER.norm>
-0.465958

>  <SCORE.INTRA>
-2.6177

>  <SCORE.INTRA.DIHEDRAL>
-8.99616

>  <SCORE.INTRA.DIHEDRAL.0>
26.3805

>  <SCORE.INTRA.POLAR>
0

>  <SCORE.INTRA.POLAR.0>
0

>  <SCORE.INTRA.REPUL>
0

>  <SCORE.INTRA.REPUL.0>
0

>  <SCORE.INTRA.SOLV>
10.3351

>  <SCORE.INTRA.SOLV.lig_0>
-98.5587

>  <SCORE.INTRA.VDW>
-3.28718

>  <SCORE.INTRA.VDW.0>
-2.91167

>  <SCORE.INTRA.norm>
-0.0727139

>  <SCORE.RESTR>
0.00226958

>  <SCORE.RESTR.CAVITY>
0.00226958

>  <SCORE.RESTR.norm>
6.30438e-05

>  <SCORE.SYSTEM>
0

>  <SCORE.SYSTEM.CONST>
0

>  <SCORE.SYSTEM.DIHEDRAL>
0

>  <SCORE.SYSTEM.SOLV>
0

>  <SCORE.SYSTEM.norm>
0

>  <SCORE.heavy>
36

>  <SCORE.norm>
-0.538609

>  <RMSD>
1.751

$$$$
2f4u_lig
 OpenBabel11021811433D
libRbt.so/2013.1/901 2013/11/27
 36 37  0  0  0  0  0  0  0  0999 V2000
   38.7051    9.1212    5.2249 C   0  0  2  0  0  0  0  0  0  0  0  0
   39.2399    8.0307    4.3866 O   0  0  0  0  0  0  0  0  0  0  0  0
   40.9195    4.2417    5.6972 C   0  0  2  0  0  0  0  0  0  0  0  0
   41.9143    3.2549    6.1985 N   0  0  0  0  0  0  0  0  0  0  0  0
   37.1573    9.1192    5.0289 C   0  0  2  0  0  0  0  0  0  0  0  0
   36.5392    7.8330    5.4002 N   0  0  0  0  0  0  0  0  0  0  0  0
   41.3866    4.9073    4.3548 C   0  0  0  0  0  0  0  0  0  0  0  0
   43.3710    4.0723    6.8289 C   0  0  0  0  0  0  0  0  0  0  0  0
   43.9162    2.6853    6.9656 C   0  0  1  0  0  0  0  0  0  0  0  0
   45.4012    2.8152    7.3225 C   0  0  0  0  0  0  0  0  0  0  0  0
   46.2928    3.4755    6.2546 C   0  0  0  0  0  0  0  0  0  0  0  0
   47.6675    3.5181    6.7568 N   0  0  0  0  0  0  0  0  0  0  0  0
   43.2828    2.0158    8.0214 O   0  0  0  0  0  0  0  0  0  0  0  0
   39.5045    3.9637    8.8800 C   0  0  0  0  0  0  0  0  0  0  0  0
   38.2675    4.7996    9.1728 C   0  0  0  0  0  0  0  0  0  0  0  0
   36.8372    9.4572    3.5349 C   0  0  1  0  0  0  0  0  0  0  0  0
   37.2638    4.1191   10.0158 N   0  0  0  0  0  0  0  0  0  0  0  0
   35.4314    9.4572    3.3003 O   0  0  0  0  0  0  0  0  0  0  0  0
   40.3755    5.9675    3.8730 C   0  0  2  0  0  0  0  0  0  0  0  0
   40.8316    6.6174    2.6508 N   0  0  0  0  0  0  0  0  0  0  0  0
   34.8162    3.7368    9.7650 C   0  0  0  0  0  0  0  0  0  0  0  0
   34.6868    2.5059   10.7118 C   0  0  0  0  0  0  0  0  0  0  0  0
   35.9231    4.7319   10.2012 C   0  0  0  0  0  0  0  0  0  0  0  0
   34.2433    2.9017   12.0822 N   0  0  0  0  0  0  0  0  0  0  0  0
   43.6926    5.0916    6.9664 O   0  0  0  0  0  0  0  0  0  0  0  0
   37.4628   10.8277    3.2071 C   0  0  2  0  0  0  0  0  0  0  0  0
   37.2329   11.2236    1.8572 O   0  0  0  0  0  0  0  0  0  0  0  0
   40.1813    7.0326    4.9338 C   0  0  2  0  0  0  0  0  0  0  0  0
   38.9777   10.8187    3.4800 C   0  0  2  0  0  0  0  0  0  0  0  0
   39.2537   10.4086    4.8238 O   0  0  0  0  0  0  0  0  0  0  0  0
   39.6648    6.3678    6.2738 C   0  0  2  0  0  0  0  0  0  0  0  0
   39.5040    7.4139    7.2827 O   0  0  0  0  0  0  0  0  0  0  0  0
   39.5972   12.1706    3.2458 C   0  0  0  0  0  0  0  0  0  0  0  0
   39.5871   12.4794    1.9043 O   0  0  0  0  0  0  0  0  0  0  0  0
   40.7176    5.3114    6.7522 C   0  0  1  0  0  0  0  0  0  0  0  0
   40.3285    4.6842    7.9394 O   0  0  0  0  0  0  0  0  0  0  0  0
  1  2  1  6  0  0  0
  1  5  1  0  0  0  0
  1 30  1  0  0  0  0
  3  4  1  1  0  0  0
  3  7  1  0  0  0  0
  3 35  1  0  0  0  0
  5  6  1  6  0  0  0
  5 16  1  0  0  0  0
  7 19  1  0  0  0  0
  8  4  1  0  0  0  0
  8 25  2  0  0  0  0
  9  8  1  1  0  0  0
  9 10  1  0  0  0  0
  9 13  1  0  0  0  0
 10 11  1  0  0  0  0
 11 12  1  0  0  0  0
 14 15  1  0  0  0  0
 14 36  1  0  0  0  0
 15 17  1  0  0  0  0
 16 18  1  1  0  0  0
 16 26  1  0  0  0  0
 17 23  1  0  0  0  0
 19 20  1  6  0  0  0
 19 28  1  0  0  0  0
 21 22  1  0  0  0  0
 21 23  1  0  0  0  0
 22 24  1  0  0  0  0
 26 27  1  6  0  0  0
 26 29  1  0  0  0  0
 28  2  1  6  0  0  0
 28 31  1  0  0  0  0
 29 30  1  0  0  0  0
 29 33  1  1  0  0  0
 31 32  1  1  0  0  0
 31 35  1  0  0  0  0
 33 34  1  0  0  0  0
 35 36  1  1  0  0  0
M  END
>  <CHROM.1>
-130.24409449,71.93477805,171.09489352,-63.87202878,179.98944824,173.93836633
-62.81844237,-170.40421211,123.45581127,64.76233610,68.85419924,172.51157825
-69.00294962,-69.95565325,39.71680581,6.35116920,6.13492841,-2.03242205,-0.29988139
2.41803106

>  <Name>
2f4u_lig

>  <RI>
0

>  <Rbt.Current_Directory>
/home/itssahil/PROJECTS/Mol_Feturizer/New_Systems/rnas/2f4u

>  <Rbt.Executable>
rbdock ($Id: //depot/dev/client3/rdock/2013.1/src/exe/rbdock.cxx#4 $)

>  <Rbt.Library>
libRbt.so (2013.1, Build901 2013/11/27)

>  <Rbt.Parameter_File>
/export/apps/rDock/src/rDock_2013.1_src/data/scripts/dock_solv.prm

>  <Rbt.Receptor>
prm/pocket_docking_3.prm

>  <SCORE>
-14.5001

>  <SCORE.INTER>
-7.46055

>  <SCORE.INTER.CONST>
1

>  <SCORE.INTER.POLAR>
-1.72161

>  <SCORE.INTER.ROT>
14

>  <SCORE.INTER.SOLV>
12.1218

>  <SCORE.INTER.VDW>
-16.2089

>  <SCORE.INTER.norm>
-0.207237

>  <SCORE.INTRA>
-7.03951

>  <SCORE.INTRA.DIHEDRAL>
-15.8018

>  <SCORE.INTRA.DIHEDRAL.0>
26.3805

>  <SCORE.INTRA.POLAR>
0

>  <SCORE.INTRA.POLAR.0>
0

>  <SCORE.INTRA.REPUL>
0

>  <SCORE.INTRA.REPUL.0>
0

>  <SCORE.INTRA.SOLV>
2.43097

>  <SCORE.INTRA.SOLV.lig_0>
-98.5587

>  <SCORE.INTRA.VDW>
-0.354088

>  <SCORE.INTRA.VDW.0>
-2.91167

>  <SCORE.INTRA.norm>
-0.195542

>  <SCORE.RESTR>
0

>  <SCORE.RESTR.CAVITY>
0

>  <SCORE.RESTR.norm>
0

>  <SCORE.SYSTEM>
0

>  <SCORE.SYSTEM.CONST>
0

>  <SCORE.SYSTEM.DIHEDRAL>
0

>  <SCORE.SYSTEM.SOLV>
0

>  <SCORE.SYSTEM.norm>
0

>  <SCORE.heavy>
36

>  <SCORE.norm>
-0.402779

>  <RMSD>
1.754

$$$$
2f4u_lig
 OpenBabel11021811433D
libRbt.so/2013.1/901 2013/11/27
 36 37  0  0  0  0  0  0  0  0999 V2000
   37.9131    9.0298    5.2186 C   0  0  2  0  0  0  0  0  0  0  0  0
   38.6795    8.0509    4.4234 O   0  0  0  0  0  0  0  0  0  0  0  0
   40.6250    4.2657    5.3083 C   0  0  2  0  0  0  0  0  0  0  0  0
   41.5415    3.2838    5.9490 N   0  0  0  0  0  0  0  0  0  0  0  0
   36.4239    8.9029    4.7710 C   0  0  2  0  0  0  0  0  0  0  0  0
   35.8854    7.5444    4.9675 N   0  0  0  0  0  0  0  0  0  0  0  0
   41.4145    5.4342    4.6195 C   0  0  0  0  0  0  0  0  0  0  0  0
   42.6788    4.0946    7.0611 C   0  0  0  0  0  0  0  0  0  0  0  0
   43.3060    2.7409    7.1789 C   0  0  1  0  0  0  0  0  0  0  0  0
   44.7936    2.9553    7.4796 C   0  0  0  0  0  0  0  0  0  0  0  0
   45.6471    1.6782    7.5889 C   0  0  0  0  0  0  0  0  0  0  0  0
   45.5024    0.9137    6.3486 N   0  0  0  0  0  0  0  0  0  0  0  0
   42.7512    2.0404    8.2587 O   0  0  0  0  0  0  0  0  0  0  0  0
   38.1645    3.0579    7.8878 C   0  0  0  0  0  0  0  0  0  0  0  0
   38.7286    3.1977    9.2938 C   0  0  0  0  0  0  0  0  0  0  0  0
   36.3130    9.3117    3.2646 C   0  0  1  0  0  0  0  0  0  0  0  0
   37.9162    2.5428   10.3389 N   0  0  0  0  0  0  0  0  0  0  0  0
   34.9692    9.2021    2.8025 O   0  0  0  0  0  0  0  0  0  0  0  0
   40.4548    6.4746    4.0068 C   0  0  2  0  0  0  0  0  0  0  0  0
   41.1879    7.5824    3.4070 N   0  0  0  0  0  0  0  0  0  0  0  0
   37.8138    3.9409   12.3967 C   0  0  0  0  0  0  0  0  0  0  0  0
   36.2583    4.0281   12.4304 C   0  0  0  0  0  0  0  0  0  0  0  0
   38.3404    2.6282   11.7603 C   0  0  0  0  0  0  0  0  0  0  0  0
   35.7849    5.2743   13.1044 N   0  0  0  0  0  0  0  0  0  0  0  0
   42.8439    5.1021    7.4061 O   0  0  0  0  0  0  0  0  0  0  0  0
   36.8436   10.7517    3.1165 C   0  0  2  0  0  0  0  0  0  0  0  0
   36.7927   11.2162    1.7699 O   0  0  0  0  0  0  0  0  0  0  0  0
   39.5338    7.0352    5.0720 C   0  0  2  0  0  0  0  0  0  0  0  0
   38.2894   10.8595    3.6338 C   0  0  2  0  0  0  0  0  0  0  0  0
   38.3881   10.3853    4.9813 O   0  0  0  0  0  0  0  0  0  0  0  0
   38.7026    5.8627    5.7344 C   0  0  2  0  0  0  0  0  0  0  0  0
   37.8378    6.4291    6.7684 O   0  0  0  0  0  0  0  0  0  0  0  0
   38.8012   12.2740    3.5760 C   0  0  0  0  0  0  0  0  0  0  0  0
   39.0436   12.6459    2.2729 O   0  0  0  0  0  0  0  0  0  0  0  0
   39.6984    4.8319    6.3662 C   0  0  1  0  0  0  0  0  0  0  0  0
   39.0317    3.7657    6.9769 O   0  0  0  0  0  0  0  0  0  0  0  0
  1  2  1  6  0  0  0
  1  5  1  0  0  0  0
  1 30  1  0  0  0  0
  3  4  1  1  0  0  0
  3  7  1  0  0  0  0
  3 35  1  0  0  0  0
  5  6  1  6  0  0  0
  5 16  1  0  0  0  0
  7 19  1  0  0  0  0
  8  4  1  0  0  0  0
  8 25  2  0  0  0  0
  9  8  1  1  0  0  0
  9 10  1  0  0  0  0
  9 13  1  0  0  0  0
 10 11  1  0  0  0  0
 11 12  1  0  0  0  0
 14 15  1  0  0  0  0
 14 36  1  0  0  0  0
 15 17  1  0  0  0  0
 16 18  1  1  0  0  0
 16 26  1  0  0  0  0
 17 23  1  0  0  0  0
 19 20  1  1  0  0  0
 19 28  1  0  0  0  0
 21 22  1  0  0  0  0
 21 23  1  0  0  0  0
 22 24  1  0  0  0  0
 26 27  1  6  0  0  0
 26 29  1  0  0  0  0
 28  2  1  6  0  0  0
 28 31  1  0  0  0  0
 29 30  1  0  0  0  0
 29 33  1  1  0  0  0
 31 32  1  1  0  0  0
 31 35  1  0  0  0  0
 33 34  1  0  0  0  0
 35 36  1  6  0  0  0
M  END
>  <CHROM.1>
-125.29097985,53.20869976,151.02744911,-177.79026482,56.27275001,178.62291087
-65.42881318,-178.72168138,85.19623596,177.40983207,62.57819957,-164.26898601
-72.31937515,176.38534146,39.39471932,6.12931455,6.30529978,2.00670427,0.48516308
-0.84529351

>  <Name>
2f4u_lig

>  <RI>
0

>  <Rbt.Current_Directory>
/home/itssahil/PROJECTS/Mol_Feturizer/New_Systems/rnas/2f4u

>  <Rbt.Executable>
rbdock ($Id: //depot/dev/client3/rdock/2013.1/src/exe/rbdock.cxx#4 $)

>  <Rbt.Library>
libRbt.so (2013.1, Build901 2013/11/27)

>  <Rbt.Parameter_File>
/export/apps/rDock/src/rDock_2013.1_src/data/scripts/dock_solv.prm

>  <Rbt.Receptor>
prm/pocket_docking_3.prm

>  <SCORE>
-20.6096

>  <SCORE.INTER>
-13.1146

>  <SCORE.INTER.CONST>
1

>  <SCORE.INTER.POLAR>
-1.70957

>  <SCORE.INTER.ROT>
14

>  <SCORE.INTER.SOLV>
13.3761

>  <SCORE.INTER.VDW>
-20.4366

>  <SCORE.INTER.norm>
-0.364296

>  <SCORE.INTRA>
-7.50286

>  <SCORE.INTRA.DIHEDRAL>
-15.3196

>  <SCORE.INTRA.DIHEDRAL.0>
26.3805

>  <SCORE.INTRA.POLAR>
0

>  <SCORE.INTRA.POLAR.0>
0

>  <SCORE.INTRA.REPUL>
0

>  <SCORE.INTRA.REPUL.0>
0

>  <SCORE.INTRA.SOLV>
2.7484

>  <SCORE.INTRA.SOLV.lig_0>
-98.5587

>  <SCORE.INTRA.VDW>
-1.21725

>  <SCORE.INTRA.VDW.0>
-2.91167

>  <SCORE.INTRA.norm>
-0.208413

>  <SCORE.RESTR>
0.00794828

>  <SCORE.RESTR.CAVITY>
0.00794828

>  <SCORE.RESTR.norm>
0.000220786

>  <SCORE.SYSTEM>
0

>  <SCORE.SYSTEM.CONST>
0

>  <SCORE.SYSTEM.DIHEDRAL>
0

>  <SCORE.SYSTEM.SOLV>
0

>  <SCORE.SYSTEM.norm>
0

>  <SCORE.heavy>
36

>  <SCORE.norm>
-0.572488

>  <RMSD>
1.777

$$$$
2f4u_lig
 OpenBabel11021811433D
libRbt.so/2013.1/901 2013/11/27
 36 37  0  0  0  0  0  0  0  0999 V2000
   37.1971    8.8793    5.9190 C   0  0  2  0  0  0  0  0  0  0  0  0
   37.8556    7.6329    5.4821 O   0  0  0  0  0  0  0  0  0  0  0  0
   41.3062    5.3695    6.8479 C   0  0  2  0  0  0  0  0  0  0  0  0
   42.7138    5.0578    7.2172 N   0  0  0  0  0  0  0  0  0  0  0  0
   35.7283    8.8169    5.3969 C   0  0  2  0  0  0  0  0  0  0  0  0
   34.9949    7.6418    5.9025 N   0  0  0  0  0  0  0  0  0  0  0  0
   41.1857    5.8277    5.3517 C   0  0  0  0  0  0  0  0  0  0  0  0
   43.4135    3.8382    6.1171 C   0  0  0  0  0  0  0  0  0  0  0  0
   44.5840    3.8768    7.0489 C   0  0  1  0  0  0  0  0  0  0  0  0
   44.4800    2.6472    7.9582 C   0  0  0  0  0  0  0  0  0  0  0  0
   44.6684    1.2839    7.2674 C   0  0  0  0  0  0  0  0  0  0  0  0
   46.0876    1.1151    6.9493 N   0  0  0  0  0  0  0  0  0  0  0  0
   45.7821    3.7727    6.3292 O   0  0  0  0  0  0  0  0  0  0  0  0
   40.8198    6.0285   10.5199 C   0  0  0  0  0  0  0  0  0  0  0  0
   39.3536    5.8373   10.8785 C   0  0  0  0  0  0  0  0  0  0  0  0
   35.7489    8.8045    3.8322 C   0  0  1  0  0  0  0  0  0  0  0  0
   38.7852    4.5494   10.4321 N   0  0  0  0  0  0  0  0  0  0  0  0
   34.4270    8.7368    3.3037 O   0  0  0  0  0  0  0  0  0  0  0  0
   39.7324    6.2012    4.9949 C   0  0  2  0  0  0  0  0  0  0  0  0
   39.6288    6.6698    3.6187 N   0  0  0  0  0  0  0  0  0  0  0  0
   37.4308    2.4936   10.8054 C   0  0  0  0  0  0  0  0  0  0  0  0
   38.6534    1.6540   11.2835 C   0  0  0  0  0  0  0  0  0  0  0  0
   37.5742    4.0092   11.1023 C   0  0  0  0  0  0  0  0  0  0  0  0
   39.8867    1.9721   10.5031 N   0  0  0  0  0  0  0  0  0  0  0  0
   43.0861    3.3017    5.2416 O   0  0  0  0  0  0  0  0  0  0  0  0
   36.4835   10.0716    3.3507 C   0  0  2  0  0  0  0  0  0  0  0  0
   36.5636   10.1491    1.9297 O   0  0  0  0  0  0  0  0  0  0  0  0
   39.2294    7.2994    5.9103 C   0  0  2  0  0  0  0  0  0  0  0  0
   37.9034   10.1404    3.9412 C   0  0  2  0  0  0  0  0  0  0  0  0
   37.8691   10.0481    5.3697 O   0  0  0  0  0  0  0  0  0  0  0  0
   39.3063    6.8201    7.4165 C   0  0  2  0  0  0  0  0  0  0  0  0
   38.8330    7.9037    8.2766 O   0  0  0  0  0  0  0  0  0  0  0  0
   38.6114   11.4104    3.5515 C   0  0  0  0  0  0  0  0  0  0  0  0
   38.8919   11.4117    2.2038 O   0  0  0  0  0  0  0  0  0  0  0  0
   40.7934    6.4671    7.7591 C   0  0  1  0  0  0  0  0  0  0  0  0
   40.9391    6.0386    9.0817 O   0  0  0  0  0  0  0  0  0  0  0  0
  1  2  1  6  0  0  0
  1  5  1  0  0  0  0
  1 30  1  0  0  0  0
  3  4  1  1  0  0  0
  3  7  1  0  0  0  0
  3 35  1  0  0  0  0
  5  6  1  1  0  0  0
  5 16  1  0  0  0  0
  7 19  1  0  0  0  0
  8  4  1  0  0  0  0
  8 25  2  0  0  0  0
  9  8  1  6  0  0  0
  9 10  1  0  0  0  0
  9 13  1  0  0  0  0
 10 11  1  0  0  0  0
 11 12  1  0  0  0  0
 14 15  1  0  0  0  0
 14 36  1  0  0  0  0
 15 17  1  0  0  0  0
 16 18  1  6  0  0  0
 16 26  1  0  0  0  0
 17 23  1  0  0  0  0
 19 20  1  6  0  0  0
 19 28  1  0  0  0  0
 21 22  1  0  0  0  0
 21 23  1  0  0  0  0
 22 24  1  0  0  0  0
 26 27  1  6  0  0  0
 26 29  1  0  0  0  0
 28  2  1  6  0  0  0
 28 31  1  0  0  0  0
 29 30  1  0  0  0  0
 29 33  1  1  0  0  0
 31 32  1  1  0  0  0
 31 35  1  0  0  0  0
 33 34  1  0  0  0  0
 35 36  1  1  0  0  0
M  END
>  <CHROM.1>
-174.35821365,-55.43125626,101.15116571,67.04418913,73.61413395,63.04661511
66.22682817,157.95976487,-161.82533646,-67.09860321,59.22634854,-164.07810328
-68.55747513,-172.00566433,39.72763856,6.24798492,6.61582437,2.27699260,0.42861063
-0.93333679

>  <Name>
2f4u_lig

>  <RI>
0

>  <Rbt.Current_Directory>
/home/itssahil/PROJECTS/Mol_Feturizer/New_Systems/rnas/2f4u

>  <Rbt.Executable>
rbdock ($Id: //depot/dev/client3/rdock/2013.1/src/exe/rbdock.cxx#4 $)

>  <Rbt.Library>
libRbt.so (2013.1, Build901 2013/11/27)

>  <Rbt.Parameter_File>
/export/apps/rDock/src/rDock_2013.1_src/data/scripts/dock_solv.prm

>  <Rbt.Receptor>
prm/pocket_docking_3.prm

>  <SCORE>
-21.4886

>  <SCORE.INTER>
-13.2061

>  <SCORE.INTER.CONST>
1

>  <SCORE.INTER.POLAR>
-1.12489

>  <SCORE.INTER.ROT>
14

>  <SCORE.INTER.SOLV>
15.3284

>  <SCORE.INTER.VDW>
-23.0973

>  <SCORE.INTER.norm>
-0.366836

>  <SCORE.INTRA>
-8.28245

>  <SCORE.INTRA.DIHEDRAL>
-20.3928

>  <SCORE.INTRA.DIHEDRAL.0>
26.3805

>  <SCORE.INTRA.POLAR>
0

>  <SCORE.INTRA.POLAR.0>
0

>  <SCORE.INTRA.REPUL>
0.000316907

>  <SCORE.INTRA.REPUL.0>
0

>  <SCORE.INTRA.SOLV>
6.19965

>  <SCORE.INTRA.SOLV.lig_0>
-98.5587

>  <SCORE.INTRA.VDW>
-1.18747

>  <SCORE.INTRA.VDW.0>
-2.91167

>  <SCORE.INTRA.norm>
-0.230068

>  <SCORE.RESTR>
0

>  <SCORE.RESTR.CAVITY>
0

>  <SCORE.RESTR.norm>
0

>  <SCORE.SYSTEM>
0

>  <SCORE.SYSTEM.CONST>
0

>  <SCORE.SYSTEM.DIHEDRAL>
0

>  <SCORE.SYSTEM.SOLV>
0

>  <SCORE.SYSTEM.norm>
0

>  <SCORE.heavy>
36

>  <SCORE.norm>
-0.596904

>  <RMSD>
1.787

$$$$
2f4u_lig
 OpenBabel11021811433D
libRbt.so/2013.1/901 2013/11/27
 36 37  0  0  0  0  0  0  0  0999 V2000
   38.0537    9.1943    5.1173 C   0  0  2  0  0  0  0  0  0  0  0  0
   38.8692    8.1079    4.5406 O   0  0  0  0  0  0  0  0  0  0  0  0
   42.0620    5.6729    6.2056 C   0  0  2  0  0  0  0  0  0  0  0  0
   43.3948    5.3057    6.7564 N   0  0  0  0  0  0  0  0  0  0  0  0
   36.6595    9.1264    4.4203 C   0  0  2  0  0  0  0  0  0  0  0  0
   35.9925    7.8250    4.6094 N   0  0  0  0  0  0  0  0  0  0  0  0
   42.1751    6.2669    4.7573 C   0  0  0  0  0  0  0  0  0  0  0  0
   44.4137    4.5284    5.5133 C   0  0  0  0  0  0  0  0  0  0  0  0
   45.3707    4.3040    6.6418 C   0  0  1  0  0  0  0  0  0  0  0  0
   45.2452    2.8338    7.0568 C   0  0  0  0  0  0  0  0  0  0  0  0
   43.8147    2.3337    7.3309 C   0  0  0  0  0  0  0  0  0  0  0  0
   43.8938    0.9935    7.9154 N   0  0  0  0  0  0  0  0  0  0  0  0
   46.6880    4.5126    6.2110 O   0  0  0  0  0  0  0  0  0  0  0  0
   41.7511    5.3994    9.5809 C   0  0  0  0  0  0  0  0  0  0  0  0
   41.6548    3.9147    9.2629 C   0  0  0  0  0  0  0  0  0  0  0  0
   36.8434    9.4187    2.8941 C   0  0  1  0  0  0  0  0  0  0  0  0
   40.2750    3.3885    9.2456 N   0  0  0  0  0  0  0  0  0  0  0  0
   35.5959    9.3576    2.2075 O   0  0  0  0  0  0  0  0  0  0  0  0
   40.7953    6.6953    4.2175 C   0  0  2  0  0  0  0  0  0  0  0  0
   40.9066    7.2885    2.8909 N   0  0  0  0  0  0  0  0  0  0  0  0
   38.9621    3.8707    7.1855 C   0  0  0  0  0  0  0  0  0  0  0  0
   37.8185    4.5523    7.9953 C   0  0  0  0  0  0  0  0  0  0  0  0
   39.7308    2.7952    7.9968 C   0  0  0  0  0  0  0  0  0  0  0  0
   36.8102    3.5612    8.4772 N   0  0  0  0  0  0  0  0  0  0  0  0
   44.3182    4.2914    4.4664 O   0  0  0  0  0  0  0  0  0  0  0  0
   37.5005   10.8056    2.7456 C   0  0  2  0  0  0  0  0  0  0  0  0
   37.7199   11.1623    1.3831 O   0  0  0  0  0  0  0  0  0  0  0  0
   40.1595    7.7141    5.1421 C   0  0  2  0  0  0  0  0  0  0  0  0
   38.8385   10.8628    3.5046 C   0  0  2  0  0  0  0  0  0  0  0  0
   38.6650   10.4935    4.8771 O   0  0  0  0  0  0  0  0  0  0  0  0
   40.0017    7.0989    6.5916 C   0  0  2  0  0  0  0  0  0  0  0  0
   39.4038    8.1078    7.4650 O   0  0  0  0  0  0  0  0  0  0  0  0
   39.4593   12.2328    3.4430 C   0  0  0  0  0  0  0  0  0  0  0  0
   38.6693   13.1498    4.0989 O   0  0  0  0  0  0  0  0  0  0  0  0
   41.4171    6.6917    7.1245 C   0  0  1  0  0  0  0  0  0  0  0  0
   41.3557    6.1425    8.4086 O   0  0  0  0  0  0  0  0  0  0  0  0
  1  2  1  6  0  0  0
  1  5  1  0  0  0  0
  1 30  1  0  0  0  0
  3  4  1  1  0  0  0
  3  7  1  0  0  0  0
  3 35  1  0  0  0  0
  5  6  1  6  0  0  0
  5 16  1  0  0  0  0
  7 19  1  0  0  0  0
  8  4  1  0  0  0  0
  8 25  2  0  0  0  0
  9  8  1  6  0  0  0
  9 10  1  0  0  0  0
  9 13  1  0  0  0  0
 10 11  1  0  0  0  0
 11 12  1  0  0  0  0
 14 15  1  0  0  0  0
 14 36  1  0  0  0  0
 15 17  1  0  0  0  0
 16 18  1  6  0  0  0
 16 26  1  0  0  0  0
 17 23  1  0  0  0  0
 19 20  1  6  0  0  0
 19 28  1  0  0  0  0
 21 22  1  0  0  0  0
 21 23  1  0  0  0  0
 22 24  1  0  0  0  0
 26 27  1  6  0  0  0
 26 29  1  0  0  0  0
 28  2  1  6  0  0  0
 28 31  1  0  0  0  0
 29 30  1  0  0  0  0
 29 33  1  1  0  0  0
 31 32  1  1  0  0  0
 31 35  1  0  0  0  0
 33 34  1  0  0  0  0
 35 36  1  1  0  0  0
M  END
>  <CHROM.1>
-168.42842806,-41.13146434,102.77904579,-51.10469724,-171.05849380,-75.88373013
-72.31691772,119.13620248,-93.64726414,-58.79461845,-56.28864460,-173.58576094
64.85731798,38.26572439,40.41281943,6.70674385,5.77175236,2.20091809,0.21106142
-0.67949592

>  <Name>
2f4u_lig

>  <RI>
0

>  <Rbt.Current_Directory>
/home/itssahil/PROJECTS/Mol_Feturizer/New_Systems/rnas/2f4u

>  <Rbt.Executable>
rbdock ($Id: //depot/dev/client3/rdock/2013.1/src/exe/rbdock.cxx#4 $)

>  <Rbt.Library>
libRbt.so (2013.1, Build901 2013/11/27)

>  <Rbt.Parameter_File>
/export/apps/rDock/src/rDock_2013.1_src/data/scripts/dock_solv.prm

>  <Rbt.Receptor>
prm/pocket_docking_3.prm

>  <SCORE>
-20.6572

>  <SCORE.INTER>
-11.6598

>  <SCORE.INTER.CONST>
1

>  <SCORE.INTER.POLAR>
-1.85827

>  <SCORE.INTER.ROT>
14

>  <SCORE.INTER.SOLV>
18.7432

>  <SCORE.INTER.VDW>
-20.7601

>  <SCORE.INTER.norm>
-0.323885

>  <SCORE.INTRA>
-8.99731

>  <SCORE.INTRA.DIHEDRAL>
-16.6769

>  <SCORE.INTRA.DIHEDRAL.0>
26.3805

>  <SCORE.INTRA.POLAR>
0

>  <SCORE.INTRA.POLAR.0>
0

>  <SCORE.INTRA.REPUL>
0

>  <SCORE.INTRA.REPUL.0>
0

>  <SCORE.INTRA.SOLV>
3.13114

>  <SCORE.INTRA.SOLV.lig_0>
-98.5587

>  <SCORE.INTRA.VDW>
-2.22445

>  <SCORE.INTRA.VDW.0>
-2.91167

>  <SCORE.INTRA.norm>
-0.249925

>  <SCORE.RESTR>
0

>  <SCORE.RESTR.CAVITY>
0

>  <SCORE.RESTR.norm>
0

>  <SCORE.SYSTEM>
0

>  <SCORE.SYSTEM.CONST>
0

>  <SCORE.SYSTEM.DIHEDRAL>
0

>  <SCORE.SYSTEM.SOLV>
0

>  <SCORE.SYSTEM.norm>
0

>  <SCORE.heavy>
36

>  <SCORE.norm>
-0.57381

>  <RMSD>
1.797

$$$$
2f4u_lig
 OpenBabel11021811433D
libRbt.so/2013.1/901 2013/11/27
 36 37  0  0  0  0  0  0  0  0999 V2000
   38.1238    8.9819    5.3624 C   0  0  2  0  0  0  0  0  0  0  0  0
   38.6140    7.7805    4.6593 O   0  0  0  0  0  0  0  0  0  0  0  0
   41.2093    4.5833    6.0514 C   0  0  2  0  0  0  0  0  0  0  0  0
   42.4507    3.8711    6.4593 N   0  0  0  0  0  0  0  0  0  0  0  0
   36.6324    9.1684    4.9443 C   0  0  2  0  0  0  0  0  0  0  0  0
   35.7981    7.9993    5.2782 N   0  0  0  0  0  0  0  0  0  0  0  0
   41.2973    5.1051    4.5738 C   0  0  0  0  0  0  0  0  0  0  0  0
   43.8824    4.9244    6.2918 C   0  0  0  0  0  0  0  0  0  0  0  0
   44.6539    3.6911    6.6433 C   0  0  1  0  0  0  0  0  0  0  0  0
   45.5035    3.3245    5.4213 C   0  0  0  0  0  0  0  0  0  0  0  0
   46.5584    4.3646    5.0009 C   0  0  0  0  0  0  0  0  0  0  0  0
   47.6044    4.4072    6.0246 N   0  0  0  0  0  0  0  0  0  0  0  0
   45.5293    3.9519    7.7064 O   0  0  0  0  0  0  0  0  0  0  0  0
   41.2352    4.4256    9.4394 C   0  0  0  0  0  0  0  0  0  0  0  0
   40.7690    3.0094    9.1367 C   0  0  0  0  0  0  0  0  0  0  0  0
   36.5707    9.4503    3.4063 C   0  0  1  0  0  0  0  0  0  0  0  0
   40.3963    2.2271   10.3326 N   0  0  0  0  0  0  0  0  0  0  0  0
   35.2242    9.6180    2.9705 O   0  0  0  0  0  0  0  0  0  0  0  0
   40.0291    5.8891    4.1795 C   0  0  2  0  0  0  0  0  0  0  0  0
   40.1304    6.4122    2.8228 N   0  0  0  0  0  0  0  0  0  0  0  0
   38.2941    2.1180   11.6626 C   0  0  0  0  0  0  0  0  0  0  0  0
   38.0964    3.6637   11.6682 C   0  0  0  0  0  0  0  0  0  0  0  0
   39.0509    1.6015   10.4111 C   0  0  0  0  0  0  0  0  0  0  0  0
   37.4329    4.1357   12.9206 N   0  0  0  0  0  0  0  0  0  0  0  0
   44.0664    5.9465    6.0041 O   0  0  0  0  0  0  0  0  0  0  0  0
   37.4179   10.7046    3.1127 C   0  0  2  0  0  0  0  0  0  0  0  0
   37.4328   11.0410    1.7277 O   0  0  0  0  0  0  0  0  0  0  0  0
   39.8140    7.0551    5.1237 C   0  0  2  0  0  0  0  0  0  0  0  0
   38.8650   10.5162    3.6026 C   0  0  2  0  0  0  0  0  0  0  0  0
   38.8942   10.1593    4.9889 O   0  0  0  0  0  0  0  0  0  0  0  0
   39.6777    6.5252    6.6087 C   0  0  2  0  0  0  0  0  0  0  0  0
   39.4896    7.6704    7.4981 O   0  0  0  0  0  0  0  0  0  0  0  0
   39.6908   11.7587    3.4015 C   0  0  0  0  0  0  0  0  0  0  0  0
   39.8359   12.0290    2.0594 O   0  0  0  0  0  0  0  0  0  0  0  0
   40.9848    5.7516    6.9910 C   0  0  1  0  0  0  0  0  0  0  0  0
   40.9378    5.2566    8.2976 O   0  0  0  0  0  0  0  0  0  0  0  0
  1  2  1  6  0  0  0
  1  5  1  0  0  0  0
  1 30  1  0  0  0  0
  3  4  1  1  0  0  0
  3  7  1  0  0  0  0
  3 35  1  0  0  0  0
  5  6  1  6  0  0  0
  5 16  1  0  0  0  0
  7 19  1  0  0  0  0
  8  4  1  0  0  0  0
  8 25  2  0  0  0  0
  9  8  1  6  0  0  0
  9 10  1  0  0  0  0
  9 13  1  0  0  0  0
 10 11  1  0  0  0  0
 11 12  1  0  0  0  0
 14 15  1  0  0  0  0
 14 36  1  0  0  0  0
 15 17  1  0  0  0  0
 16 18  1  1  0  0  0
 16 26  1  0  0  0  0
 17 23  1  0  0  0  0
 19 20  1  6  0  0  0
 19 28  1  0  0  0  0
 21 22  1  0  0  0  0
 21 23  1  0  0  0  0
 22 24  1  0  0  0  0
 26 27  1  6  0  0  0
 26 29  1  0  0  0  0
 28  2  1  6  0  0  0
 28 31  1  0  0  0  0
 29 30  1  0  0  0  0
 29 33  1  1  0  0  0
 31 32  1  1  0  0  0
 31 35  1  0  0  0  0
 33 34  1  0  0  0  0
 35 36  1  1  0  0  0
M  END
>  <CHROM.1>
-160.28077324,57.68309134,115.28342479,62.54873389,68.90962065,-152.00908324
-64.86460323,125.14734857,-121.78856844,-176.82733767,59.42836235,-179.87298492
-65.14634111,34.30109344,40.33219010,6.40872413,6.17369718,2.09318702,0.33626361
-0.85069885

>  <Name>
2f4u_lig

>  <RI>
0

>  <Rbt.Current_Directory>
/home/itssahil/PROJECTS/Mol_Feturizer/New_Systems/rnas/2f4u

>  <Rbt.Executable>
rbdock ($Id: //depot/dev/client3/rdock/2013.1/src/exe/rbdock.cxx#4 $)

>  <Rbt.Library>
libRbt.so (2013.1, Build901 2013/11/27)

>  <Rbt.Parameter_File>
/export/apps/rDock/src/rDock_2013.1_src/data/scripts/dock_solv.prm

>  <Rbt.Receptor>
prm/pocket_docking_3.prm

>  <SCORE>
-20.7855

>  <SCORE.INTER>
-14.2243

>  <SCORE.INTER.CONST>
1

>  <SCORE.INTER.POLAR>
-1.78387

>  <SCORE.INTER.ROT>
14

>  <SCORE.INTER.SOLV>
18.2258

>  <SCORE.INTER.VDW>
-22.5453

>  <SCORE.INTER.norm>
-0.395121

>  <SCORE.INTRA>
-6.56114

>  <SCORE.INTRA.DIHEDRAL>
-13.9391

>  <SCORE.INTRA.DIHEDRAL.0>
26.3805

>  <SCORE.INTRA.POLAR>
0

>  <SCORE.INTRA.POLAR.0>
0

>  <SCORE.INTRA.REPUL>
0

>  <SCORE.INTRA.REPUL.0>
0

>  <SCORE.INTRA.SOLV>
2.69669

>  <SCORE.INTRA.SOLV.lig_0>
-98.5587

>  <SCORE.INTRA.VDW>
-0.939952

>  <SCORE.INTRA.VDW.0>
-2.91167

>  <SCORE.INTRA.norm>
-0.182254

>  <SCORE.RESTR>
0

>  <SCORE.RESTR.CAVITY>
0

>  <SCORE.RESTR.norm>
0

>  <SCORE.SYSTEM>
0

>  <SCORE.SYSTEM.CONST>
0

>  <SCORE.SYSTEM.DIHEDRAL>
0

>  <SCORE.SYSTEM.SOLV>
0

>  <SCORE.SYSTEM.norm>
0

>  <SCORE.heavy>
36

>  <SCORE.norm>
-0.577374

>  <RMSD>
1.815

$$$$
2f4u_lig
 OpenBabel11021811433D
libRbt.so/2013.1/901 2013/11/27
 36 37  0  0  0  0  0  0  0  0999 V2000
   37.4831    9.0919    5.8027 C   0  0  2  0  0  0  0  0  0  0  0  0
   37.8709    7.7368    5.3654 O   0  0  0  0  0  0  0  0  0  0  0  0
   40.5748    4.7050    6.9122 C   0  0  2  0  0  0  0  0  0  0  0  0
   41.8363    4.0646    7.3741 N   0  0  0  0  0  0  0  0  0  0  0  0
   36.0929    9.3894    5.1599 C   0  0  2  0  0  0  0  0  0  0  0  0
   35.0645    8.4076    5.5505 N   0  0  0  0  0  0  0  0  0  0  0  0
   40.6826    5.1960    5.4254 C   0  0  0  0  0  0  0  0  0  0  0  0
   43.2631    5.0039    6.8552 C   0  0  0  0  0  0  0  0  0  0  0  0
   44.0445    3.8592    7.4198 C   0  0  1  0  0  0  0  0  0  0  0  0
   43.8257    2.6595    6.4913 C   0  0  0  0  0  0  0  0  0  0  0  0
   44.0158    2.9313    4.9876 C   0  0  0  0  0  0  0  0  0  0  0  0
   43.6159    1.7351    4.2438 N   0  0  0  0  0  0  0  0  0  0  0  0
   45.4143    4.1561    7.4146 O   0  0  0  0  0  0  0  0  0  0  0  0
   40.6271    4.8251   10.3781 C   0  0  0  0  0  0  0  0  0  0  0  0
   39.4436    4.8173   11.3340 C   0  0  0  0  0  0  0  0  0  0  0  0
   36.2508    9.4110    3.6032 C   0  0  1  0  0  0  0  0  0  0  0  0
   38.2895    4.0267   10.8607 N   0  0  0  0  0  0  0  0  0  0  0  0
   35.0023    9.6689    2.9660 O   0  0  0  0  0  0  0  0  0  0  0  0
   39.3904    5.9070    4.9746 C   0  0  2  0  0  0  0  0  0  0  0  0
   39.5077    6.4027    3.6090 N   0  0  0  0  0  0  0  0  0  0  0  0
   35.8990    3.3299   10.8461 C   0  0  0  0  0  0  0  0  0  0  0  0
   34.5107    3.4044   11.5499 C   0  0  0  0  0  0  0  0  0  0  0  0
   37.0330    4.0139   11.6536 C   0  0  0  0  0  0  0  0  0  0  0  0
   33.9830    4.8011   11.5940 N   0  0  0  0  0  0  0  0  0  0  0  0
   43.4362    5.9264    6.3256 O   0  0  0  0  0  0  0  0  0  0  0  0
   37.2997   10.4814    3.2408 C   0  0  2  0  0  0  0  0  0  0  0  0
   37.5231   10.5728    1.8360 O   0  0  0  0  0  0  0  0  0  0  0  0
   39.0900    7.0825    5.8829 C   0  0  2  0  0  0  0  0  0  0  0  0
   38.6377   10.1999    3.9479 C   0  0  2  0  0  0  0  0  0  0  0  0
   38.4545   10.0832    5.3632 O   0  0  0  0  0  0  0  0  0  0  0  0
   38.9341    6.5813    7.3758 C   0  0  2  0  0  0  0  0  0  0  0  0
   38.6633    7.7363    8.2307 O   0  0  0  0  0  0  0  0  0  0  0  0
   39.6531   11.2771    3.6749 C   0  0  0  0  0  0  0  0  0  0  0  0
   40.1732   11.1392    2.4078 O   0  0  0  0  0  0  0  0  0  0  0  0
   40.2650    5.8823    7.8156 C   0  0  1  0  0  0  0  0  0  0  0  0
   40.2021    5.4162    9.1321 O   0  0  0  0  0  0  0  0  0  0  0  0
  1  2  1  6  0  0  0
  1  5  1  0  0  0  0
  1 30  1  0  0  0  0
  3  4  1  1  0  0  0
  3  7  1  0  0  0  0
  3 35  1  0  0  0  0
  5  6  1  6  0  0  0
  5 16  1  0  0  0  0
  7 19  1  0  0  0  0
  8  4  1  0  0  0  0
  8 25  2  0  0  0  0
  9  8  1  6  0  0  0
  9 10  1  0  0  0  0
  9 13  1  0  0  0  0
 10 11  1  0  0  0  0
 11 12  1  0  0  0  0
 14 15  1  0  0  0  0
 14 36  1  0  0  0  0
 15 17  1  0  0  0  0
 16 18  1  6  0  0  0
 16 26  1  0  0  0  0
 17 23  1  0  0  0  0
 19 20  1  6  0  0  0
 19 28  1  0  0  0  0
 21 22  1  0  0  0  0
 21 23  1  0  0  0  0
 22 24  1  0  0  0  0
 26 27  1  6  0  0  0
 26 29  1  0  0  0  0
 28  2  1  6  0  0  0
 28 31  1  0  0  0  0
 29 30  1  0  0  0  0
 29 33  1  1  0  0  0
 31 32  1  1  0  0  0
 31 35  1  0  0  0  0
 33 34  1  0  0  0  0
 35 36  1  1  0  0  0
M  END
>  <CHROM.1>
-174.73122080,43.49121058,70.22159885,48.67038008,-173.31690708,61.23125096
-179.23118095,-175.70826182,170.14300702,68.18987384,-174.15944360,-164.85548693
-76.26453817,62.22523132,39.33911998,6.48113711,6.57958334,2.03980553,0.41190680
-0.88021808

>  <Name>
2f4u_lig

>  <RI>
0

>  <Rbt.Current_Directory>
/home/itssahil/PROJECTS/Mol_Feturizer/New_Systems/rnas/2f4u

>  <Rbt.Executable>
rbdock ($Id: //depot/dev/client3/rdock/2013.1/src/exe/rbdock.cxx#4 $)

>  <Rbt.Library>
libRbt.so (2013.1, Build901 2013/11/27)

>  <Rbt.Parameter_File>
/export/apps/rDock/src/rDock_2013.1_src/data/scripts/dock_solv.prm

>  <Rbt.Receptor>
prm/pocket_docking_2.prm

>  <SCORE>
-15.3927

>  <SCORE.INTER>
-6.49854

>  <SCORE.INTER.CONST>
1

>  <SCORE.INTER.POLAR>
-1.161

>  <SCORE.INTER.ROT>
14

>  <SCORE.INTER.SOLV>
12.8802

>  <SCORE.INTER.VDW>
-17.6891

>  <SCORE.INTER.norm>
-0.180515

>  <SCORE.INTRA>
-9.46152

>  <SCORE.INTRA.DIHEDRAL>
-21.962

>  <SCORE.INTRA.DIHEDRAL.0>
26.3805

>  <SCORE.INTRA.POLAR>
0

>  <SCORE.INTRA.POLAR.0>
0

>  <SCORE.INTRA.REPUL>
0

>  <SCORE.INTRA.REPUL.0>
0

>  <SCORE.INTRA.SOLV>
1.0937

>  <SCORE.INTRA.SOLV.lig_0>
-98.5587

>  <SCORE.INTRA.VDW>
0.972642

>  <SCORE.INTRA.VDW.0>
-2.91167

>  <SCORE.INTRA.norm>
-0.26282

>  <SCORE.RESTR>
0.567366

>  <SCORE.RESTR.CAVITY>
0.567366

>  <SCORE.RESTR.norm>
0.0157602

>  <SCORE.SYSTEM>
0

>  <SCORE.SYSTEM.CONST>
0

>  <SCORE.SYSTEM.DIHEDRAL>
0

>  <SCORE.SYSTEM.SOLV>
0

>  <SCORE.SYSTEM.norm>
0

>  <SCORE.heavy>
36

>  <SCORE.norm>
-0.427575

>  <RMSD>
1.828

$$$$
2f4u_lig
 OpenBabel11021811433D
libRbt.so/2013.1/901 2013/11/27
 36 37  0  0  0  0  0  0  0  0999 V2000
   37.9306    8.8489    5.3701 C   0  0  2  0  0  0  0  0  0  0  0  0
   38.3856    7.6169    4.6970 O   0  0  0  0  0  0  0  0  0  0  0  0
   41.3148    4.6966    6.0339 C   0  0  2  0  0  0  0  0  0  0  0  0
   42.6369    4.0726    6.3122 N   0  0  0  0  0  0  0  0  0  0  0  0
   36.3991    8.9687    5.0980 C   0  0  2  0  0  0  0  0  0  0  0  0
   35.6417    7.8029    5.5896 N   0  0  0  0  0  0  0  0  0  0  0  0
   41.1292    5.0088    4.5071 C   0  0  0  0  0  0  0  0  0  0  0  0
   43.9726    5.1862    5.9081 C   0  0  0  0  0  0  0  0  0  0  0  0
   44.8524    4.0157    6.2174 C   0  0  1  0  0  0  0  0  0  0  0  0
   46.2000    4.2681    5.5321 C   0  0  0  0  0  0  0  0  0  0  0  0
   47.3859    4.5589    6.4703 C   0  0  0  0  0  0  0  0  0  0  0  0
   46.9624    5.5476    7.4638 N   0  0  0  0  0  0  0  0  0  0  0  0
   45.0862    3.9345    7.5970 O   0  0  0  0  0  0  0  0  0  0  0  0
   42.0585    5.2187    9.3831 C   0  0  0  0  0  0  0  0  0  0  0  0
   41.0552    5.2562   10.5261 C   0  0  0  0  0  0  0  0  0  0  0  0
   36.1720    9.1466    3.5601 C   0  0  1  0  0  0  0  0  0  0  0  0
   39.8699    4.3999   10.3184 N   0  0  0  0  0  0  0  0  0  0  0  0
   34.7833    9.2502    3.2566 O   0  0  0  0  0  0  0  0  0  0  0  0
   39.7798    5.7052    4.2371 C   0  0  2  0  0  0  0  0  0  0  0  0
   39.6277    6.0358    2.8258 N   0  0  0  0  0  0  0  0  0  0  0  0
   38.6743    2.2658   10.7834 C   0  0  0  0  0  0  0  0  0  0  0  0
   37.4813    2.6526    9.8585 C   0  0  0  0  0  0  0  0  0  0  0  0
   40.0149    2.9219   10.3612 C   0  0  0  0  0  0  0  0  0  0  0  0
   36.1824    2.1271   10.3760 N   0  0  0  0  0  0  0  0  0  0  0  0
   44.0593    6.1984    5.5484 O   0  0  0  0  0  0  0  0  0  0  0  0
   36.9435   10.4004    3.1017 C   0  0  2  0  0  0  0  0  0  0  0  0
   36.8064   10.6449    1.7042 O   0  0  0  0  0  0  0  0  0  0  0  0
   39.6770    6.9869    5.0394 C   0  0  2  0  0  0  0  0  0  0  0  0
   38.4383   10.2824    3.4497 C   0  0  2  0  0  0  0  0  0  0  0  0
   38.6201   10.0187    4.8453 O   0  0  0  0  0  0  0  0  0  0  0  0
   39.8167    6.6667    6.5829 C   0  0  2  0  0  0  0  0  0  0  0  0
   39.7322    7.9209    7.3299 O   0  0  0  0  0  0  0  0  0  0  0  0
   39.1983   11.5299    3.0862 C   0  0  0  0  0  0  0  0  0  0  0  0
   40.5497   11.3412    3.2685 O   0  0  0  0  0  0  0  0  0  0  0  0
   41.2019    5.9798    6.8331 C   0  0  1  0  0  0  0  0  0  0  0  0
   41.3978    5.6711    8.1824 O   0  0  0  0  0  0  0  0  0  0  0  0
  1  2  1  6  0  0  0
  1  5  1  0  0  0  0
  1 30  1  0  0  0  0
  3  4  1  6  0  0  0
  3  7  1  0  0  0  0
  3 35  1  0  0  0  0
  5  6  1  6  0  0  0
  5 16  1  0  0  0  0
  7 19  1  0  0  0  0
  8  4  1  0  0  0  0
  8 25  2  0  0  0  0
  9  8  1  1  0  0  0
  9 10  1  0  0  0  0
  9 13  1  0  0  0  0
 10 11  1  0  0  0  0
 11 12  1  0  0  0  0
 14 15  1  0  0  0  0
 14 36  1  0  0  0  0
 15 17  1  0  0  0  0
 16 18  1  1  0  0  0
 16 26  1  0  0  0  0
 17 23  1  0  0  0  0
 19 20  1  6  0  0  0
 19 28  1  0  0  0  0
 21 22  1  0  0  0  0
 21 23  1  0  0  0  0
 22 24  1  0  0  0  0
 26 27  1  6  0  0  0
 26 29  1  0  0  0  0
 28  2  1  1  0  0  0
 28 31  1  0  0  0  0
 29 30  1  0  0  0  0
 29 33  1  1  0  0  0
 31 32  1  1  0  0  0
 31 35  1  0  0  0  0
 33 34  1  0  0  0  0
 35 36  1  1  0  0  0
M  END
>  <CHROM.1>
-162.91253834,63.27865946,159.31796814,110.57363311,-46.70367626,60.08603227
-175.28080415,70.12833218,153.50275357,-173.78564057,56.60104670,176.16531908
-173.27410504,62.79241717,40.27314079,6.51649664,6.13617379,2.27900241,0.16461211
-0.81090310

>  <Name>
2f4u_lig

>  <RI>
0

>  <Rbt.Current_Directory>
/home/itssahil/PROJECTS/Mol_Feturizer/New_Systems/rnas/2f4u

>  <Rbt.Executable>
rbdock ($Id: //depot/dev/client3/rdock/2013.1/src/exe/rbdock.cxx#4 $)

>  <Rbt.Library>
libRbt.so (2013.1, Build901 2013/11/27)

>  <Rbt.Parameter_File>
/export/apps/rDock/src/rDock_2013.1_src/data/scripts/dock_solv.prm

>  <Rbt.Receptor>
prm/pocket_docking_3.prm

>  <SCORE>
-22.5236

>  <SCORE.INTER>
-16.8223

>  <SCORE.INTER.CONST>
1

>  <SCORE.INTER.POLAR>
-2.38119

>  <SCORE.INTER.ROT>
14

>  <SCORE.INTER.SOLV>
18.8577

>  <SCORE.INTER.VDW>
-22.4968

>  <SCORE.INTER.norm>
-0.467285

>  <SCORE.INTRA>
-5.72173

>  <SCORE.INTRA.DIHEDRAL>
-17.244

>  <SCORE.INTRA.DIHEDRAL.0>
26.3805

>  <SCORE.INTRA.POLAR>
0

>  <SCORE.INTRA.POLAR.0>
0

>  <SCORE.INTRA.REPUL>
0

>  <SCORE.INTRA.REPUL.0>
0

>  <SCORE.INTRA.SOLV>
3.74303

>  <SCORE.INTRA.SOLV.lig_0>
-98.5587

>  <SCORE.INTRA.VDW>
1.02874

>  <SCORE.INTRA.VDW.0>
-2.91167

>  <SCORE.INTRA.norm>
-0.158937

>  <SCORE.RESTR>
0.0204426

>  <SCORE.RESTR.CAVITY>
0.0204426

>  <SCORE.RESTR.norm>
0.000567851

>  <SCORE.SYSTEM>
0

>  <SCORE.SYSTEM.CONST>
0

>  <SCORE.SYSTEM.DIHEDRAL>
0

>  <SCORE.SYSTEM.SOLV>
0

>  <SCORE.SYSTEM.norm>
0

>  <SCORE.heavy>
36

>  <SCORE.norm>
-0.625654

>  <RMSD>
1.861

$$$$
2f4u_lig
 OpenBabel11021811433D
libRbt.so/2013.1/901 2013/11/27
 36 37  0  0  0  0  0  0  0  0999 V2000
   37.2081    8.7848    5.5691 C   0  0  2  0  0  0  0  0  0  0  0  0
   37.7894    7.5566    4.9934 O   0  0  0  0  0  0  0  0  0  0  0  0
   41.1143    5.0691    6.2789 C   0  0  2  0  0  0  0  0  0  0  0  0
   42.5126    4.6452    6.5614 N   0  0  0  0  0  0  0  0  0  0  0  0
   35.7152    8.8281    5.1181 C   0  0  2  0  0  0  0  0  0  0  0  0
   34.9546    7.6433    5.5564 N   0  0  0  0  0  0  0  0  0  0  0  0
   40.9062    5.4125    4.7617 C   0  0  0  0  0  0  0  0  0  0  0  0
   43.6878    5.7699    5.8256 C   0  0  0  0  0  0  0  0  0  0  0  0
   44.7098    4.7789    6.2874 C   0  0  1  0  0  0  0  0  0  0  0  0
   45.8576    4.8051    5.2719 C   0  0  0  0  0  0  0  0  0  0  0  0
   46.9706    3.7635    5.4902 C   0  0  0  0  0  0  0  0  0  0  0  0
   46.3788    2.4264    5.4138 N   0  0  0  0  0  0  0  0  0  0  0  0
   45.2329    5.1631    7.5296 O   0  0  0  0  0  0  0  0  0  0  0  0
   41.0360    6.0822    9.9023 C   0  0  0  0  0  0  0  0  0  0  0  0
   41.0257    4.6868   10.5086 C   0  0  0  0  0  0  0  0  0  0  0  0
   35.6622    8.9535    3.5592 C   0  0  1  0  0  0  0  0  0  0  0  0
   39.8253    3.8928   10.1774 N   0  0  0  0  0  0  0  0  0  0  0  0
   34.3154    8.9861    3.0940 O   0  0  0  0  0  0  0  0  0  0  0  0
   39.4696    5.9034    4.4898 C   0  0  2  0  0  0  0  0  0  0  0  0
   39.2899    6.2653    3.0894 N   0  0  0  0  0  0  0  0  0  0  0  0
   38.8058    1.8580   11.1875 C   0  0  0  0  0  0  0  0  0  0  0  0
   37.3622    1.9529   10.6084 C   0  0  0  0  0  0  0  0  0  0  0  0
   39.8898    2.4092   10.2249 C   0  0  0  0  0  0  0  0  0  0  0  0
   36.9504    3.3686   10.3684 N   0  0  0  0  0  0  0  0  0  0  0  0
   43.6385    6.6874    5.2625 O   0  0  0  0  0  0  0  0  0  0  0  0
   36.4293   10.2277    3.1527 C   0  0  2  0  0  0  0  0  0  0  0  0
   36.4464   10.4274    1.7415 O   0  0  0  0  0  0  0  0  0  0  0  0
   39.1573    7.1193    5.3389 C   0  0  2  0  0  0  0  0  0  0  0  0
   37.8768   10.1866    3.6747 C   0  0  2  0  0  0  0  0  0  0  0  0
   37.9051    9.9697    5.0898 O   0  0  0  0  0  0  0  0  0  0  0  0
   39.3210    6.7603    6.8715 C   0  0  2  0  0  0  0  0  0  0  0  0
   39.0319    7.9542    7.6646 O   0  0  0  0  0  0  0  0  0  0  0  0
   38.6217   11.4567    3.3612 C   0  0  0  0  0  0  0  0  0  0  0  0
   39.9053   11.3969    3.8549 O   0  0  0  0  0  0  0  0  0  0  0  0
   40.7918    6.2851    7.1248 C   0  0  1  0  0  0  0  0  0  0  0  0
   41.0123    5.9542    8.4650 O   0  0  0  0  0  0  0  0  0  0  0  0
  1  2  1  6  0  0  0
  1  5  1  0  0  0  0
  1 30  1  0  0  0  0
  3  4  1  6  0  0  0
  3  7  1  0  0  0  0
  3 35  1  0  0  0  0
  5  6  1  6  0  0  0
  5 16  1  0  0  0  0
  7 19  1  0  0  0  0
  8  4  1  0  0  0  0
  8 25  2  0  0  0  0
  9  8  1  6  0  0  0
  9 10  1  0  0  0  0
  9 13  1  0  0  0  0
 10 11  1  0  0  0  0
 11 12  1  0  0  0  0
 14 15  1  0  0  0  0
 14 36  1  0  0  0  0
 15 17  1  0  0  0  0
 16 18  1  1  0  0  0
 16 26  1  0  0  0  0
 17 23  1  0  0  0  0
 19 20  1  6  0  0  0
 19 28  1  0  0  0  0
 21 22  1  0  0  0  0
 21 23  1  0  0  0  0
 22 24  1  0  0  0  0
 26 27  1  6  0  0  0
 26 29  1  0  0  0  0
 28  2  1  1  0  0  0
 28 31  1  0  0  0  0
 29 30  1  0  0  0  0
 29 33  1  1  0  0  0
 31 32  1  1  0  0  0
 31 35  1  0  0  0  0
 33 34  1  0  0  0  0
 35 36  1  1  0  0  0
M  END
>  <CHROM.1>
-173.32369675,47.73426740,147.80204703,-174.85471829,60.33370889,-61.47401262
155.35100163,156.24012209,123.44363038,-62.68714733,73.22483170,-175.31207746
179.22046978,-173.95428095,39.90404364,6.52547321,6.19860184,2.33377262,0.24536052
-0.85122017

>  <Name>
2f4u_lig

>  <RI>
0

>  <Rbt.Current_Directory>
/home/itssahil/PROJECTS/Mol_Feturizer/New_Systems/rnas/2f4u

>  <Rbt.Executable>
rbdock ($Id: //depot/dev/client3/rdock/2013.1/src/exe/rbdock.cxx#4 $)

>  <Rbt.Library>
libRbt.so (2013.1, Build901 2013/11/27)

>  <Rbt.Parameter_File>
/export/apps/rDock/src/rDock_2013.1_src/data/scripts/dock_solv.prm

>  <Rbt.Receptor>
prm/pocket_docking_3.prm

>  <SCORE>
-25.2247

>  <SCORE.INTER>
-16.0455

>  <SCORE.INTER.CONST>
1

>  <SCORE.INTER.POLAR>
-1.87278

>  <SCORE.INTER.ROT>
14

>  <SCORE.INTER.SOLV>
14.4456

>  <SCORE.INTER.VDW>
-22.2029

>  <SCORE.INTER.norm>
-0.445707

>  <SCORE.INTRA>
-9.17929

>  <SCORE.INTRA.DIHEDRAL>
-19.1447

>  <SCORE.INTRA.DIHEDRAL.0>
26.3805

>  <SCORE.INTRA.POLAR>
0

>  <SCORE.INTRA.POLAR.0>
0

>  <SCORE.INTRA.REPUL>
0

>  <SCORE.INTRA.REPUL.0>
0

>  <SCORE.INTRA.SOLV>
3.4651

>  <SCORE.INTRA.SOLV.lig_0>
-98.5587

>  <SCORE.INTRA.VDW>
-1.33947

>  <SCORE.INTRA.VDW.0>
-2.91167

>  <SCORE.INTRA.norm>
-0.25498

>  <SCORE.RESTR>
0

>  <SCORE.RESTR.CAVITY>
0

>  <SCORE.RESTR.norm>
0

>  <SCORE.SYSTEM>
0

>  <SCORE.SYSTEM.CONST>
0

>  <SCORE.SYSTEM.DIHEDRAL>
0

>  <SCORE.SYSTEM.SOLV>
0

>  <SCORE.SYSTEM.norm>
0

>  <SCORE.heavy>
36

>  <SCORE.norm>
-0.700687

>  <RMSD>
1.869

$$$$
2f4u_lig
 OpenBabel11021811433D
libRbt.so/2013.1/901 2013/11/27
 36 37  0  0  0  0  0  0  0  0999 V2000
   37.6028    8.5740    5.8011 C   0  0  2  0  0  0  0  0  0  0  0  0
   37.9775    7.2568    5.2511 O   0  0  0  0  0  0  0  0  0  0  0  0
   40.9657    4.4507    6.6974 C   0  0  2  0  0  0  0  0  0  0  0  0
   42.2968    3.8304    6.9384 N   0  0  0  0  0  0  0  0  0  0  0  0
   36.1103    8.8128    5.4145 C   0  0  2  0  0  0  0  0  0  0  0  0
   35.2139    7.7635    5.9338 N   0  0  0  0  0  0  0  0  0  0  0  0
   40.6482    4.5688    5.1650 C   0  0  0  0  0  0  0  0  0  0  0  0
   43.6171    4.9268    6.4463 C   0  0  0  0  0  0  0  0  0  0  0  0
   44.5062    3.7627    6.7527 C   0  0  1  0  0  0  0  0  0  0  0  0
   45.2761    3.4304    5.4696 C   0  0  0  0  0  0  0  0  0  0  0  0
   46.4216    4.3932    5.1060 C   0  0  0  0  0  0  0  0  0  0  0  0
   45.8446    5.6002    4.5110 N   0  0  0  0  0  0  0  0  0  0  0  0
   45.4451    4.1127    7.7327 O   0  0  0  0  0  0  0  0  0  0  0  0
   41.1379    5.2874   10.0647 C   0  0  0  0  0  0  0  0  0  0  0  0
   39.8305    5.8395   10.6131 C   0  0  0  0  0  0  0  0  0  0  0  0
   35.9988    8.8910    3.8557 C   0  0  1  0  0  0  0  0  0  0  0  0
   38.6222    5.2095   10.0438 N   0  0  0  0  0  0  0  0  0  0  0  0
   34.6486    9.0981    3.4490 O   0  0  0  0  0  0  0  0  0  0  0  0
   39.2919    5.2628    4.9252 C   0  0  2  0  0  0  0  0  0  0  0  0
   39.0185    5.4131    3.5015 N   0  0  0  0  0  0  0  0  0  0  0  0
   36.9163    5.2976   11.8554 C   0  0  0  0  0  0  0  0  0  0  0  0
   35.8248    4.5267   12.6571 C   0  0  0  0  0  0  0  0  0  0  0  0
   37.7444    4.3848   10.9137 C   0  0  0  0  0  0  0  0  0  0  0  0
   34.7564    3.9856   11.7644 N   0  0  0  0  0  0  0  0  0  0  0  0
   43.6911    5.9278    6.0539 O   0  0  0  0  0  0  0  0  0  0  0  0
   36.9157   10.0290    3.3642 C   0  0  2  0  0  0  0  0  0  0  0  0
   36.8912   10.1757    1.9466 O   0  0  0  0  0  0  0  0  0  0  0  0
   39.2838    6.6396    5.5588 C   0  0  2  0  0  0  0  0  0  0  0  0
   38.3671    9.8012    3.8236 C   0  0  2  0  0  0  0  0  0  0  0  0
   38.4343    9.6311    5.2437 O   0  0  0  0  0  0  0  0  0  0  0  0
   39.5569    6.5171    7.1128 C   0  0  2  0  0  0  0  0  0  0  0  0
   39.5615    7.8589    7.6937 O   0  0  0  0  0  0  0  0  0  0  0  0
   39.2660   10.9414    3.4261 C   0  0  0  0  0  0  0  0  0  0  0  0
   39.0770   12.0183    4.2626 O   0  0  0  0  0  0  0  0  0  0  0  0
   40.9472    5.8289    7.3287 C   0  0  1  0  0  0  0  0  0  0  0  0
   41.2590    5.6911    8.6844 O   0  0  0  0  0  0  0  0  0  0  0  0
  1  2  1  6  0  0  0
  1  5  1  0  0  0  0
  1 30  1  0  0  0  0
  3  4  1  6  0  0  0
  3  7  1  0  0  0  0
  3 35  1  0  0  0  0
  5  6  1  6  0  0  0
  5 16  1  0  0  0  0
  7 19  1  0  0  0  0
  8  4  1  0  0  0  0
  8 25  2  0  0  0  0
  9  8  1  6  0  0  0
  9 10  1  0  0  0  0
  9 13  1  0  0  0  0
 10 11  1  0  0  0  0
 11 12  1  0  0  0  0
 14 15  1  0  0  0  0
 14 36  1  0  0  0  0
 15 17  1  0  0  0  0
 16 18  1  1  0  0  0
 16 26  1  0  0  0  0
 17 23  1  0  0  0  0
 19 20  1  6  0  0  0
 19 28  1  0  0  0  0
 21 22  1  0  0  0  0
 21 23  1  0  0  0  0
 22 24  1  0  0  0  0
 26 27  1  6  0  0  0
 26 29  1  0  0  0  0
 28  2  1  1  0  0  0
 28 31  1  0  0  0  0
 29 30  1  0  0  0  0
 29 33  1  1  0  0  0
 31 32  1  6  0  0  0
 31 35  1  0  0  0  0
 33 34  1  0  0  0  0
 35 36  1  1  0  0  0
M  END
>  <CHROM.1>
-173.05213201,69.78016043,121.51142184,75.06940529,-78.16057628,69.03260473
-58.67089254,113.40204936,74.46868678,-66.38218433,171.77915635,175.78617277
77.09778596,-63.90668413,39.69111297,6.59179106,6.52737417,-2.55470908,-0.35976209
2.15134398

>  <Name>
2f4u_lig

>  <RI>
0

>  <Rbt.Current_Directory>
/home/itssahil/PROJECTS/Mol_Feturizer/New_Systems/rnas/2f4u

>  <Rbt.Executable>
rbdock ($Id: //depot/dev/client3/rdock/2013.1/src/exe/rbdock.cxx#4 $)

>  <Rbt.Library>
libRbt.so (2013.1, Build901 2013/11/27)

>  <Rbt.Parameter_File>
/export/apps/rDock/src/rDock_2013.1_src/data/scripts/dock_solv.prm

>  <Rbt.Receptor>
prm/pocket_docking_3.prm

>  <SCORE>
-18.9999

>  <SCORE.INTER>
-11.2592

>  <SCORE.INTER.CONST>
1

>  <SCORE.INTER.POLAR>
-2.06628

>  <SCORE.INTER.ROT>
14

>  <SCORE.INTER.SOLV>
12.9337

>  <SCORE.INTER.VDW>
-17.8631

>  <SCORE.INTER.norm>
-0.312754

>  <SCORE.INTRA>
-7.74089

>  <SCORE.INTRA.DIHEDRAL>
-18.48

>  <SCORE.INTRA.DIHEDRAL.0>
26.3805

>  <SCORE.INTRA.POLAR>
0

>  <SCORE.INTRA.POLAR.0>
0

>  <SCORE.INTRA.REPUL>
0

>  <SCORE.INTRA.REPUL.0>
0

>  <SCORE.INTRA.SOLV>
4.80414

>  <SCORE.INTRA.SOLV.lig_0>
-98.5587

>  <SCORE.INTRA.VDW>
-0.902951

>  <SCORE.INTRA.VDW.0>
-2.91167

>  <SCORE.INTRA.norm>
-0.215025

>  <SCORE.RESTR>
0.000173391

>  <SCORE.RESTR.CAVITY>
0.000173391

>  <SCORE.RESTR.norm>
4.8164e-06

>  <SCORE.SYSTEM>
0

>  <SCORE.SYSTEM.CONST>
0

>  <SCORE.SYSTEM.DIHEDRAL>
0

>  <SCORE.SYSTEM.SOLV>
0

>  <SCORE.SYSTEM.norm>
0

>  <SCORE.heavy>
36

>  <SCORE.norm>
-0.527774

>  <RMSD>
1.905

$$$$
2f4u_lig
 OpenBabel11021811433D
libRbt.so/2013.1/901 2013/11/27
 36 37  0  0  0  0  0  0  0  0999 V2000
   37.4349    8.7630    5.6053 C   0  0  2  0  0  0  0  0  0  0  0  0
   37.8777    7.4738    5.0396 O   0  0  0  0  0  0  0  0  0  0  0  0
   41.0047    4.9339    6.6723 C   0  0  2  0  0  0  0  0  0  0  0  0
   42.3598    4.3668    6.9104 N   0  0  0  0  0  0  0  0  0  0  0  0
   35.9646    8.9793    5.1304 C   0  0  2  0  0  0  0  0  0  0  0  0
   35.0640    7.8925    5.5570 N   0  0  0  0  0  0  0  0  0  0  0  0
   40.5858    4.8251    5.1637 C   0  0  0  0  0  0  0  0  0  0  0  0
   43.5583    5.0690    5.7888 C   0  0  0  0  0  0  0  0  0  0  0  0
   44.4941    4.0655    6.3863 C   0  0  1  0  0  0  0  0  0  0  0  0
   45.5701    3.7678    5.3360 C   0  0  0  0  0  0  0  0  0  0  0  0
   46.5699    2.6536    5.6967 C   0  0  0  0  0  0  0  0  0  0  0  0
   47.5960    2.5929    4.6539 N   0  0  0  0  0  0  0  0  0  0  0  0
   45.1349    4.6066    7.5092 O   0  0  0  0  0  0  0  0  0  0  0  0
   41.3371    6.3476    9.8726 C   0  0  0  0  0  0  0  0  0  0  0  0
   41.0530    4.8975   10.2350 C   0  0  0  0  0  0  0  0  0  0  0  0
   35.9514    9.1063    3.5708 C   0  0  1  0  0  0  0  0  0  0  0  0
   40.0528    4.7275   11.3082 N   0  0  0  0  0  0  0  0  0  0  0  0
   34.6252    9.2950    3.0841 O   0  0  0  0  0  0  0  0  0  0  0  0
   39.2043    5.4651    4.9178 C   0  0  2  0  0  0  0  0  0  0  0  0
   38.8359    5.4042    3.5090 N   0  0  0  0  0  0  0  0  0  0  0  0
   38.5302    6.0836   12.7375 C   0  0  0  0  0  0  0  0  0  0  0  0
   37.6576    4.8649   13.1637 C   0  0  0  0  0  0  0  0  0  0  0  0
   40.0017    5.7048   12.4262 C   0  0  0  0  0  0  0  0  0  0  0  0
   36.1978    5.1740   13.0948 N   0  0  0  0  0  0  0  0  0  0  0  0
   43.5524    5.8172    5.0133 O   0  0  0  0  0  0  0  0  0  0  0  0
   36.8685   10.2812    3.1760 C   0  0  2  0  0  0  0  0  0  0  0  0
   36.9312   10.4742    1.7652 O   0  0  0  0  0  0  0  0  0  0  0  0
   39.2123    6.9193    5.3448 C   0  0  2  0  0  0  0  0  0  0  0  0
   38.2928   10.0726    3.7212 C   0  0  2  0  0  0  0  0  0  0  0  0
   38.2731    9.8572    5.1366 O   0  0  0  0  0  0  0  0  0  0  0  0
   39.5884    7.0265    6.8782 C   0  0  2  0  0  0  0  0  0  0  0  0
   39.6064    8.4386    7.2574 O   0  0  0  0  0  0  0  0  0  0  0  0
   39.1859   11.2461    3.4191 C   0  0  0  0  0  0  0  0  0  0  0  0
   39.3443   11.3937    2.0596 O   0  0  0  0  0  0  0  0  0  0  0  0
   41.0022    6.3891    7.0974 C   0  0  1  0  0  0  0  0  0  0  0  0
   41.4043    6.4527    8.4348 O   0  0  0  0  0  0  0  0  0  0  0  0
  1  2  1  6  0  0  0
  1  5  1  0  0  0  0
  1 30  1  0  0  0  0
  3  4  1  6  0  0  0
  3  7  1  0  0  0  0
  3 35  1  0  0  0  0
  5  6  1  6  0  0  0
  5 16  1  0  0  0  0
  7 19  1  0  0  0  0
  8  4  1  0  0  0  0
  8 25  2  0  0  0  0
  9  8  1  6  0  0  0
  9 10  1  0  0  0  0
  9 13  1  0  0  0  0
 10 11  1  0  0  0  0
 11 12  1  0  0  0  0
 14 15  1  0  0  0  0
 14 36  1  0  0  0  0
 15 17  1  0  0  0  0
 16 18  1  1  0  0  0
 16 26  1  0  0  0  0
 17 23  1  0  0  0  0
 19 20  1  6  0  0  0
 19 28  1  0  0  0  0
 21 22  1  0  0  0  0
 21 23  1  0  0  0  0
 22 24  1  0  0  0  0
 26 27  1  6  0  0  0
 26 29  1  0  0  0  0
 28  2  1  1  0  0  0
 28 31  1  0  0  0  0
 29 30  1  0  0  0  0
 29 33  1  1  0  0  0
 31 32  1  6  0  0  0
 31 35  1  0  0  0  0
 33 34  1  0  0  0  0
 35 36  1  1  0  0  0
M  END
>  <CHROM.1>
-176.97980655,52.18818395,153.80606313,-174.50555260,-174.47781024,-137.15332273
60.38383840,-35.75877852,136.30232111,-164.42973527,60.44991477,165.59620424
-63.48573432,-75.73740700,39.99295057,6.74903361,6.44063810,2.45143913,0.48394077
-1.19047215

>  <Name>
2f4u_lig

>  <RI>
0

>  <Rbt.Current_Directory>
/home/itssahil/PROJECTS/Mol_Feturizer/New_Systems/rnas/2f4u

>  <Rbt.Executable>
rbdock ($Id: //depot/dev/client3/rdock/2013.1/src/exe/rbdock.cxx#4 $)

>  <Rbt.Library>
libRbt.so (2013.1, Build901 2013/11/27)

>  <Rbt.Parameter_File>
/export/apps/rDock/src/rDock_2013.1_src/data/scripts/dock_solv.prm

>  <Rbt.Receptor>
prm/pocket_docking_4.prm

>  <SCORE>
-22.5409

>  <SCORE.INTER>
-15.2008

>  <SCORE.INTER.CONST>
1

>  <SCORE.INTER.POLAR>
-2.03574

>  <SCORE.INTER.ROT>
14

>  <SCORE.INTER.SOLV>
15.5148

>  <SCORE.INTER.VDW>
-21.453

>  <SCORE.INTER.norm>
-0.422243

>  <SCORE.INTRA>
-7.34015

>  <SCORE.INTRA.DIHEDRAL>
-15.7494

>  <SCORE.INTRA.DIHEDRAL.0>
26.3805

>  <SCORE.INTRA.POLAR>
0

>  <SCORE.INTRA.POLAR.0>
0

>  <SCORE.INTRA.REPUL>
0

>  <SCORE.INTRA.REPUL.0>
0

>  <SCORE.INTRA.SOLV>
-0.483308

>  <SCORE.INTRA.SOLV.lig_0>
-98.5587

>  <SCORE.INTRA.VDW>
0.77619

>  <SCORE.INTRA.VDW.0>
-2.91167

>  <SCORE.INTRA.norm>
-0.203893

>  <SCORE.RESTR>
0

>  <SCORE.RESTR.CAVITY>
0

>  <SCORE.RESTR.norm>
0

>  <SCORE.SYSTEM>
0

>  <SCORE.SYSTEM.CONST>
0

>  <SCORE.SYSTEM.DIHEDRAL>
0

>  <SCORE.SYSTEM.SOLV>
0

>  <SCORE.SYSTEM.norm>
0

>  <SCORE.heavy>
36

>  <SCORE.norm>
-0.626137

>  <RMSD>
1.912

$$$$
2f4u_lig
 OpenBabel11021811433D
libRbt.so/2013.1/901 2013/11/27
 36 37  0  0  0  0  0  0  0  0999 V2000
   37.3098    9.0468    5.7529 C   0  0  2  0  0  0  0  0  0  0  0  0
   38.0116    7.8282    5.3052 O   0  0  0  0  0  0  0  0  0  0  0  0
   41.9336    6.0029    5.7309 C   0  0  2  0  0  0  0  0  0  0  0  0
   43.2724    5.6883    6.2998 N   0  0  0  0  0  0  0  0  0  0  0  0
   35.7995    8.8422    5.4194 C   0  0  2  0  0  0  0  0  0  0  0  0
   35.2298    7.6495    6.0731 N   0  0  0  0  0  0  0  0  0  0  0  0
   41.7889    7.5291    5.3948 C   0  0  0  0  0  0  0  0  0  0  0  0
   44.5613    5.9376    5.0899 C   0  0  0  0  0  0  0  0  0  0  0  0
   45.4583    5.3495    6.1336 C   0  0  1  0  0  0  0  0  0  0  0  0
   45.4660    3.8315    5.9214 C   0  0  0  0  0  0  0  0  0  0  0  0
   46.1550    3.0036    7.0219 C   0  0  0  0  0  0  0  0  0  0  0  0
   46.1121    1.5912    6.6380 N   0  0  0  0  0  0  0  0  0  0  0  0
   46.7711    5.8090    5.9614 O   0  0  0  0  0  0  0  0  0  0  0  0
   41.6818    3.0296    7.4759 C   0  0  0  0  0  0  0  0  0  0  0  0
   42.0387    3.1875    8.9464 C   0  0  0  0  0  0  0  0  0  0  0  0
   35.6356    8.7333    3.8670 C   0  0  1  0  0  0  0  0  0  0  0  0
   40.8707    3.2746    9.8460 N   0  0  0  0  0  0  0  0  0  0  0  0
   34.2704    8.5339    3.5095 O   0  0  0  0  0  0  0  0  0  0  0  0
   40.3800    7.8539    4.8580 C   0  0  2  0  0  0  0  0  0  0  0  0
   40.2314    9.2786    4.5889 N   0  0  0  0  0  0  0  0  0  0  0  0
   38.8430    2.3830   10.9833 C   0  0  0  0  0  0  0  0  0  0  0  0
   37.6175    1.4234   10.9071 C   0  0  0  0  0  0  0  0  0  0  0  0
   39.8195    2.2261    9.7885 C   0  0  0  0  0  0  0  0  0  0  0  0
   36.7305    1.7438    9.7488 N   0  0  0  0  0  0  0  0  0  0  0  0
   44.6152    6.2872    4.0719 O   0  0  0  0  0  0  0  0  0  0  0  0
   36.2019   10.0191    3.2321 C   0  0  2  0  0  0  0  0  0  0  0  0
   36.1065   10.0131    1.8100 O   0  0  0  0  0  0  0  0  0  0  0  0
   39.3239    7.4479    5.8665 C   0  0  2  0  0  0  0  0  0  0  0  0
   37.6713   10.2307    3.6390 C   0  0  2  0  0  0  0  0  0  0  0  0
   37.8141   10.2258    5.0637 O   0  0  0  0  0  0  0  0  0  0  0  0
   39.4390    5.8990    6.1701 C   0  0  2  0  0  0  0  0  0  0  0  0
   38.4222    5.5396    7.1576 O   0  0  0  0  0  0  0  0  0  0  0  0
   38.2218   11.5232    3.0982 C   0  0  0  0  0  0  0  0  0  0  0  0
   39.5629   11.6346    3.3884 O   0  0  0  0  0  0  0  0  0  0  0  0
   40.8697    5.5993    6.7326 C   0  0  1  0  0  0  0  0  0  0  0  0
   41.0430    4.2443    7.0296 O   0  0  0  0  0  0  0  0  0  0  0  0
  1  2  1  6  0  0  0
  1  5  1  0  0  0  0
  1 30  1  0  0  0  0
  3  4  1  1  0  0  0
  3  7  1  0  0  0  0
  3 35  1  0  0  0  0
  5  6  1  1  0  0  0
  5 16  1  0  0  0  0
  7 19  1  0  0  0  0
  8  4  1  0  0  0  0
  8 25  2  0  0  0  0
  9  8  1  6  0  0  0
  9 10  1  0  0  0  0
  9 13  1  0  0  0  0
 10 11  1  0  0  0  0
 11 12  1  0  0  0  0
 14 15  1  0  0  0  0
 14 36  1  0  0  0  0
 15 17  1  0  0  0  0
 16 18  1  1  0  0  0
 16 26  1  0  0  0  0
 17 23  1  0  0  0  0
 19 20  1  1  0  0  0
 19 28  1  0  0  0  0
 21 22  1  0  0  0  0
 21 23  1  0  0  0  0
 22 24  1  0  0  0  0
 26 27  1  6  0  0  0
 26 29  1  0  0  0  0
 28  2  1  6  0  0  0
 28 31  1  0  0  0  0
 29 30  1  0  0  0  0
 29 33  1  1  0  0  0
 31 32  1  1  0  0  0
 31 35  1  0  0  0  0
 33 34  1  0  0  0  0
 35 36  1  6  0  0  0
M  END
>  <CHROM.1>
-157.90512973,-66.31779624,89.22794000,-170.90663436,-178.02926270,66.84883069
60.99441438,52.85031331,169.68279169,-65.82604202,173.40802017,-101.13393763
-175.28199574,58.57651733,40.13384937,6.36779571,6.04829732,2.32085825,0.17146304
-0.68736199

>  <Name>
2f4u_lig

>  <RI>
0

>  <Rbt.Current_Directory>
/home/itssahil/PROJECTS/Mol_Feturizer/New_Systems/rnas/2f4u

>  <Rbt.Executable>
rbdock ($Id: //depot/dev/client3/rdock/2013.1/src/exe/rbdock.cxx#4 $)

>  <Rbt.Library>
libRbt.so (2013.1, Build901 2013/11/27)

>  <Rbt.Parameter_File>
/export/apps/rDock/src/rDock_2013.1_src/data/scripts/dock_solv.prm

>  <Rbt.Receptor>
prm/pocket_docking_4.prm

>  <SCORE>
-23.6025

>  <SCORE.INTER>
-16.2757

>  <SCORE.INTER.CONST>
1

>  <SCORE.INTER.POLAR>
-0.979796

>  <SCORE.INTER.ROT>
14

>  <SCORE.INTER.SOLV>
16.3375

>  <SCORE.INTER.VDW>
-25.9637

>  <SCORE.INTER.norm>
-0.452104

>  <SCORE.INTRA>
-7.32672

>  <SCORE.INTRA.DIHEDRAL>
-15.8944

>  <SCORE.INTRA.DIHEDRAL.0>
26.3805

>  <SCORE.INTRA.POLAR>
0

>  <SCORE.INTRA.POLAR.0>
0

>  <SCORE.INTRA.REPUL>
0

>  <SCORE.INTRA.REPUL.0>
0

>  <SCORE.INTRA.SOLV>
3.91195

>  <SCORE.INTRA.SOLV.lig_0>
-98.5587

>  <SCORE.INTRA.VDW>
-1.33549

>  <SCORE.INTRA.VDW.0>
-2.91167

>  <SCORE.INTRA.norm>
-0.20352

>  <SCORE.RESTR>
0

>  <SCORE.RESTR.CAVITY>
0

>  <SCORE.RESTR.norm>
0

>  <SCORE.SYSTEM>
0

>  <SCORE.SYSTEM.CONST>
0

>  <SCORE.SYSTEM.DIHEDRAL>
0

>  <SCORE.SYSTEM.SOLV>
0

>  <SCORE.SYSTEM.norm>
0

>  <SCORE.heavy>
36

>  <SCORE.norm>
-0.655624

>  <RMSD>
1.921

$$$$
2f4u_lig
 OpenBabel11021811433D
libRbt.so/2013.1/901 2013/11/27
 36 37  0  0  0  0  0  0  0  0999 V2000
   37.2737    8.8320    5.7548 C   0  0  2  0  0  0  0  0  0  0  0  0
   37.8510    7.5455    5.3195 O   0  0  0  0  0  0  0  0  0  0  0  0
   40.9561    5.1153    7.1493 C   0  0  2  0  0  0  0  0  0  0  0  0
   42.3117    4.6663    7.5681 N   0  0  0  0  0  0  0  0  0  0  0  0
   35.8121    8.8742    5.2109 C   0  0  2  0  0  0  0  0  0  0  0  0
   34.9918    7.7499    5.6982 N   0  0  0  0  0  0  0  0  0  0  0  0
   40.8370    5.2267    5.5884 C   0  0  0  0  0  0  0  0  0  0  0  0
   42.9959    3.5049    6.3974 C   0  0  0  0  0  0  0  0  0  0  0  0
   44.1030    3.3693    7.3952 C   0  0  1  0  0  0  0  0  0  0  0  0
   45.0351    2.2623    6.8902 C   0  0  0  0  0  0  0  0  0  0  0  0
   44.5207    0.8211    7.0631 C   0  0  0  0  0  0  0  0  0  0  0  0
   43.4725    0.5784    6.0700 N   0  0  0  0  0  0  0  0  0  0  0  0
   44.8475    4.5550    7.4594 O   0  0  0  0  0  0  0  0  0  0  0  0
   41.4235    6.0527   10.4398 C   0  0  0  0  0  0  0  0  0  0  0  0
   40.5733    6.6856   11.5313 C   0  0  0  0  0  0  0  0  0  0  0  0
   35.8552    8.8689    3.6467 C   0  0  1  0  0  0  0  0  0  0  0  0
   39.8407    5.7131   12.3671 N   0  0  0  0  0  0  0  0  0  0  0  0
   34.5398    8.8956    3.0986 O   0  0  0  0  0  0  0  0  0  0  0  0
   39.4468    5.7454    5.1676 C   0  0  2  0  0  0  0  0  0  0  0  0
   39.3520    5.8918    3.7206 N   0  0  0  0  0  0  0  0  0  0  0  0
   38.1811    5.0048   14.0829 C   0  0  0  0  0  0  0  0  0  0  0  0
   37.3839    4.1289   13.0702 C   0  0  0  0  0  0  0  0  0  0  0  0
   38.9101    6.2012   13.4174 C   0  0  0  0  0  0  0  0  0  0  0  0
   36.2787    4.8955   12.4203 N   0  0  0  0  0  0  0  0  0  0  0  0
   42.6900    3.0779    5.4564 O   0  0  0  0  0  0  0  0  0  0  0  0
   36.6827   10.0847    3.1841 C   0  0  2  0  0  0  0  0  0  0  0  0
   36.7892   10.1642    1.7649 O   0  0  0  0  0  0  0  0  0  0  0  0
   39.1728    7.0949    5.8010 C   0  0  2  0  0  0  0  0  0  0  0  0
   38.0949   10.0519    3.7957 C   0  0  2  0  0  0  0  0  0  0  0  0
   38.0330    9.9545    5.2229 O   0  0  0  0  0  0  0  0  0  0  0  0
   39.2460    6.9730    7.3771 C   0  0  2  0  0  0  0  0  0  0  0  0
   38.9961    8.2906    7.9598 O   0  0  0  0  0  0  0  0  0  0  0  0
   38.8947   11.2721    3.4245 C   0  0  0  0  0  0  0  0  0  0  0  0
   39.1086   11.3129    2.0652 O   0  0  0  0  0  0  0  0  0  0  0  0
   40.6720    6.4648    7.7789 C   0  0  1  0  0  0  0  0  0  0  0  0
   40.8121    6.3374    9.1639 O   0  0  0  0  0  0  0  0  0  0  0  0
  1  2  1  6  0  0  0
  1  5  1  0  0  0  0
  1 30  1  0  0  0  0
  3  4  1  6  0  0  0
  3  7  1  0  0  0  0
  3 35  1  0  0  0  0
  5  6  1  1  0  0  0
  5 16  1  0  0  0  0
  7 19  1  0  0  0  0
  8  4  1  0  0  0  0
  8 25  2  0  0  0  0
  9  8  1  6  0  0  0
  9 10  1  0  0  0  0
  9 13  1  0  0  0  0
 10 11  1  0  0  0  0
 11 12  1  0  0  0  0
 14 15  1  0  0  0  0
 14 36  1  0  0  0  0
 15 17  1  0  0  0  0
 16 18  1  6  0  0  0
 16 26  1  0  0  0  0
 17 23  1  0  0  0  0
 19 20  1  6  0  0  0
 19 28  1  0  0  0  0
 21 22  1  0  0  0  0
 21 23  1  0  0  0  0
 22 24  1  0  0  0  0
 26 27  1  6  0  0  0
 26 29  1  0  0  0  0
 28  2  1  1  0  0  0
 28 31  1  0  0  0  0
 29 30  1  0  0  0  0
 29 33  1  1  0  0  0
 31 32  1  1  0  0  0
 31 35  1  0  0  0  0
 33 34  1  0  0  0  0
 35 36  1  1  0  0  0
M  END
>  <CHROM.1>
-172.30406045,-34.88738548,174.69939896,-75.43164389,74.30833391,109.63735728
164.83500868,-176.35867929,175.62645871,-63.36353122,-57.79380236,179.66645471
-64.03493777,57.44054042,39.60303905,6.48972786,6.90309207,2.28391074,0.65596206
-1.25976691

>  <Name>
2f4u_lig

>  <RI>
0

>  <Rbt.Current_Directory>
/home/itssahil/PROJECTS/Mol_Feturizer/New_Systems/rnas/2f4u

>  <Rbt.Executable>
rbdock ($Id: //depot/dev/client3/rdock/2013.1/src/exe/rbdock.cxx#4 $)

>  <Rbt.Library>
libRbt.so (2013.1, Build901 2013/11/27)

>  <Rbt.Parameter_File>
/export/apps/rDock/src/rDock_2013.1_src/data/scripts/dock_solv.prm

>  <Rbt.Receptor>
prm/pocket_docking_5.prm

>  <SCORE>
-23.8393

>  <SCORE.INTER>
-18.3795

>  <SCORE.INTER.CONST>
1

>  <SCORE.INTER.POLAR>
-1.74091

>  <SCORE.INTER.ROT>
14

>  <SCORE.INTER.SOLV>
15.0668

>  <SCORE.INTER.VDW>
-24.4055

>  <SCORE.INTER.norm>
-0.510541

>  <SCORE.INTRA>
-5.45986

>  <SCORE.INTRA.DIHEDRAL>
-16.8972

>  <SCORE.INTRA.DIHEDRAL.0>
26.3805

>  <SCORE.INTRA.POLAR>
0

>  <SCORE.INTRA.POLAR.0>
0

>  <SCORE.INTRA.REPUL>
0

>  <SCORE.INTRA.REPUL.0>
0

>  <SCORE.INTRA.SOLV>
3.68599

>  <SCORE.INTRA.SOLV.lig_0>
-98.5587

>  <SCORE.INTRA.VDW>
1.14573

>  <SCORE.INTRA.VDW.0>
-2.91167

>  <SCORE.INTRA.norm>
-0.151663

>  <SCORE.RESTR>
0

>  <SCORE.RESTR.CAVITY>
0

>  <SCORE.RESTR.norm>
0

>  <SCORE.SYSTEM>
0

>  <SCORE.SYSTEM.CONST>
0

>  <SCORE.SYSTEM.DIHEDRAL>
0

>  <SCORE.SYSTEM.SOLV>
0

>  <SCORE.SYSTEM.norm>
0

>  <SCORE.heavy>
36

>  <SCORE.norm>
-0.662204

>  <RMSD>
1.923

$$$$
2f4u_lig
 OpenBabel11021811433D
libRbt.so/2013.1/901 2013/11/27
 36 37  0  0  0  0  0  0  0  0999 V2000
   37.4368    8.9675    5.9611 C   0  0  2  0  0  0  0  0  0  0  0  0
   38.0568    7.6684    5.6361 O   0  0  0  0  0  0  0  0  0  0  0  0
   41.9472    5.7653    6.0084 C   0  0  2  0  0  0  0  0  0  0  0  0
   43.3113    5.4667    6.5231 N   0  0  0  0  0  0  0  0  0  0  0  0
   35.8962    8.7818    5.7995 C   0  0  2  0  0  0  0  0  0  0  0  0
   35.3573    7.7211    6.6705 N   0  0  0  0  0  0  0  0  0  0  0  0
   41.8223    7.2521    5.5214 C   0  0  0  0  0  0  0  0  0  0  0  0
   44.5524    5.7806    5.2787 C   0  0  0  0  0  0  0  0  0  0  0  0
   45.4974    5.1847    6.2744 C   0  0  1  0  0  0  0  0  0  0  0  0
   45.5232    3.6724    6.0259 C   0  0  0  0  0  0  0  0  0  0  0  0
   46.1341    3.2228    4.6858 C   0  0  0  0  0  0  0  0  0  0  0  0
   47.5875    3.3856    4.7585 N   0  0  0  0  0  0  0  0  0  0  0  0
   46.7949    5.6716    6.0650 O   0  0  0  0  0  0  0  0  0  0  0  0
   40.8040    2.9333    8.1994 C   0  0  0  0  0  0  0  0  0  0  0  0
   40.3631    3.2338    9.6241 C   0  0  0  0  0  0  0  0  0  0  0  0
   35.5813    8.4578    4.3013 C   0  0  1  0  0  0  0  0  0  0  0  0
   39.8524    2.0592   10.3593 N   0  0  0  0  0  0  0  0  0  0  0  0
   34.1829    8.2676    4.1021 O   0  0  0  0  0  0  0  0  0  0  0  0
   40.3906    7.5667    5.0419 C   0  0  2  0  0  0  0  0  0  0  0  0
   40.2635    8.9597    4.6324 N   0  0  0  0  0  0  0  0  0  0  0  0
   37.3930    1.8146   10.6619 C   0  0  0  0  0  0  0  0  0  0  0  0
   36.9942    2.7252    9.4619 C   0  0  0  0  0  0  0  0  0  0  0  0
   38.7344    2.2252   11.3236 C   0  0  0  0  0  0  0  0  0  0  0  0
   35.6312    2.3996    8.9447 N   0  0  0  0  0  0  0  0  0  0  0  0
   44.5637    6.1600    4.2700 O   0  0  0  0  0  0  0  0  0  0  0  0
   36.1213    9.6134    3.4353 C   0  0  2  0  0  0  0  0  0  0  0  0
   35.8900    9.4069    2.0441 O   0  0  0  0  0  0  0  0  0  0  0  0
   39.3923    7.3044    6.1517 C   0  0  2  0  0  0  0  0  0  0  0  0
   37.6285    9.8184    3.6720 C   0  0  2  0  0  0  0  0  0  0  0  0
   37.9068   10.0125    5.0630 O   0  0  0  0  0  0  0  0  0  0  0  0
   39.4848    5.7927    6.6108 C   0  0  2  0  0  0  0  0  0  0  0  0
   38.5255    5.5733    7.6924 O   0  0  0  0  0  0  0  0  0  0  0  0
   38.1621   10.9949    2.8991 C   0  0  0  0  0  0  0  0  0  0  0  0
   39.5286   11.0840    3.0397 O   0  0  0  0  0  0  0  0  0  0  0  0
   40.9407    5.5050    7.1117 C   0  0  1  0  0  0  0  0  0  0  0  0
   41.0961    4.1834    7.5400 O   0  0  0  0  0  0  0  0  0  0  0  0
  1  2  1  6  0  0  0
  1  5  1  0  0  0  0
  1 30  1  0  0  0  0
  3  4  1  1  0  0  0
  3  7  1  0  0  0  0
  3 35  1  0  0  0  0
  5  6  1  1  0  0  0
  5 16  1  0  0  0  0
  7 19  1  0  0  0  0
  8  4  1  0  0  0  0
  8 25  2  0  0  0  0
  9  8  1  6  0  0  0
  9 10  1  0  0  0  0
  9 13  1  0  0  0  0
 10 11  1  0  0  0  0
 11 12  1  0  0  0  0
 14 15  1  0  0  0  0
 14 36  1  0  0  0  0
 15 17  1  0  0  0  0
 16 18  1  1  0  0  0
 16 26  1  0  0  0  0
 17 23  1  0  0  0  0
 19 20  1  1  0  0  0
 19 28  1  0  0  0  0
 21 22  1  0  0  0  0
 21 23  1  0  0  0  0
 22 24  1  0  0  0  0
 26 27  1  6  0  0  0
 26 29  1  0  0  0  0
 28  2  1  6  0  0  0
 28 31  1  0  0  0  0
 29 30  1  0  0  0  0
 29 33  1  6  0  0  0
 31 32  1  1  0  0  0
 31 35  1  0  0  0  0
 33 34  1  0  0  0  0
 35 36  1  6  0  0  0
M  END
>  <CHROM.1>
-156.48138553,-57.83550670,88.74723474,66.63098692,73.68356636,171.93713135
-46.93491282,-144.49785339,98.95556217,-173.68854755,-64.00581007,-99.25124131
-174.87145167,-166.23776886,39.96974091,6.25991076,6.12908078,-2.52862423
-0.20780135,2.42168141

>  <Name>
2f4u_lig

>  <RI>
0

>  <Rbt.Current_Directory>
/home/itssahil/PROJECTS/Mol_Feturizer/New_Systems/rnas/2f4u

>  <Rbt.Executable>
rbdock ($Id: //depot/dev/client3/rdock/2013.1/src/exe/rbdock.cxx#4 $)

>  <Rbt.Library>
libRbt.so (2013.1, Build901 2013/11/27)

>  <Rbt.Parameter_File>
/export/apps/rDock/src/rDock_2013.1_src/data/scripts/dock_solv.prm

>  <Rbt.Receptor>
prm/pocket_docking_4.prm

>  <SCORE>
-18.6581

>  <SCORE.INTER>
-14.3397

>  <SCORE.INTER.CONST>
1

>  <SCORE.INTER.POLAR>
-0.979796

>  <SCORE.INTER.ROT>
14

>  <SCORE.INTER.SOLV>
12.8561

>  <SCORE.INTER.VDW>
-23.5125

>  <SCORE.INTER.norm>
-0.398326

>  <SCORE.INTRA>
-4.31834

>  <SCORE.INTRA.DIHEDRAL>
-12.2649

>  <SCORE.INTRA.DIHEDRAL.0>
26.3805

>  <SCORE.INTRA.POLAR>
0

>  <SCORE.INTRA.POLAR.0>
0

>  <SCORE.INTRA.REPUL>
0

>  <SCORE.INTRA.REPUL.0>
0

>  <SCORE.INTRA.SOLV>
5.76974

>  <SCORE.INTRA.SOLV.lig_0>
-98.5587

>  <SCORE.INTRA.VDW>
-1.07079

>  <SCORE.INTRA.VDW.0>
-2.91167

>  <SCORE.INTRA.norm>
-0.119954

>  <SCORE.RESTR>
0

>  <SCORE.RESTR.CAVITY>
0

>  <SCORE.RESTR.norm>
0

>  <SCORE.SYSTEM>
0

>  <SCORE.SYSTEM.CONST>
0

>  <SCORE.SYSTEM.DIHEDRAL>
0

>  <SCORE.SYSTEM.SOLV>
0

>  <SCORE.SYSTEM.norm>
0

>  <SCORE.heavy>
36

>  <SCORE.norm>
-0.51828

>  <RMSD>
1.930

$$$$
2f4u_lig
 OpenBabel11021811433D
libRbt.so/2013.1/901 2013/11/27
 36 37  0  0  0  0  0  0  0  0999 V2000
   38.9721    8.3275    6.0447 C   0  0  2  0  0  0  0  0  0  0  0  0
   39.3727    7.1858    5.1997 O   0  0  0  0  0  0  0  0  0  0  0  0
   41.6343    3.5652    6.0197 C   0  0  2  0  0  0  0  0  0  0  0  0
   42.7825    2.6868    6.3728 N   0  0  0  0  0  0  0  0  0  0  0  0
   37.5131    8.0438    6.5190 C   0  0  2  0  0  0  0  0  0  0  0  0
   37.3953    6.7803    7.2699 N   0  0  0  0  0  0  0  0  0  0  0  0
   41.9343    4.4296    4.7446 C   0  0  0  0  0  0  0  0  0  0  0  0
   44.0434    3.5962    7.2505 C   0  0  0  0  0  0  0  0  0  0  0  0
   44.8346    2.3310    7.1363 C   0  0  1  0  0  0  0  0  0  0  0  0
   46.2201    2.6078    7.7306 C   0  0  0  0  0  0  0  0  0  0  0  0
   47.1010    3.5980    6.9465 C   0  0  0  0  0  0  0  0  0  0  0  0
   47.4568    2.9896    5.6631 N   0  0  0  0  0  0  0  0  0  0  0  0
   44.2407    1.3158    7.8984 O   0  0  0  0  0  0  0  0  0  0  0  0
   40.7675    3.3194    9.6742 C   0  0  0  0  0  0  0  0  0  0  0  0
   39.3547    3.8032    9.9650 C   0  0  0  0  0  0  0  0  0  0  0  0
   36.5725    8.0149    5.2687 C   0  0  1  0  0  0  0  0  0  0  0  0
   38.8943    3.5320   11.3418 N   0  0  0  0  0  0  0  0  0  0  0  0
   35.2250    7.7474    5.6483 O   0  0  0  0  0  0  0  0  0  0  0  0
   40.7606    5.3760    4.4198 C   0  0  2  0  0  0  0  0  0  0  0  0
   41.0581    6.2107    3.2626 N   0  0  0  0  0  0  0  0  0  0  0  0
   37.0256    4.0551   12.9020 C   0  0  0  0  0  0  0  0  0  0  0  0
   35.8002    3.7548   11.9874 C   0  0  0  0  0  0  0  0  0  0  0  0
   38.2467    4.6148   12.1265 C   0  0  0  0  0  0  0  0  0  0  0  0
   35.2284    5.0013   11.3954 N   0  0  0  0  0  0  0  0  0  0  0  0
   44.1649    4.6034    7.6140 O   0  0  0  0  0  0  0  0  0  0  0  0
   36.6947    9.3699    4.5433 C   0  0  2  0  0  0  0  0  0  0  0  0
   35.8775    9.4405    3.3777 O   0  0  0  0  0  0  0  0  0  0  0  0
   40.4720    6.2835    5.5989 C   0  0  2  0  0  0  0  0  0  0  0  0
   38.1566    9.6536    4.1534 C   0  0  2  0  0  0  0  0  0  0  0  0
   39.0160    9.5752    5.2960 O   0  0  0  0  0  0  0  0  0  0  0  0
   40.1228    5.4129    6.8735 C   0  0  2  0  0  0  0  0  0  0  0  0
   39.8673    6.3121    7.9979 O   0  0  0  0  0  0  0  0  0  0  0  0
   38.3139   11.0087    3.5171 C   0  0  0  0  0  0  0  0  0  0  0  0
   38.3253   11.9941    4.4783 O   0  0  0  0  0  0  0  0  0  0  0  0
   41.3370    4.4768    7.1940 C   0  0  1  0  0  0  0  0  0  0  0  0
   41.1010    3.6778    8.3166 O   0  0  0  0  0  0  0  0  0  0  0  0
  1  2  1  6  0  0  0
  1  5  1  0  0  0  0
  1 30  1  0  0  0  0
  3  4  1  1  0  0  0
  3  7  1  0  0  0  0
  3 35  1  0  0  0  0
  5  6  1  6  0  0  0
  5 16  1  0  0  0  0
  7 19  1  0  0  0  0
  8  4  1  0  0  0  0
  8 25  2  0  0  0  0
  9  8  1  1  0  0  0
  9 10  1  0  0  0  0
  9 13  1  0  0  0  0
 10 11  1  0  0  0  0
 11 12  1  0  0  0  0
 14 15  1  0  0  0  0
 14 36  1  0  0  0  0
 15 17  1  0  0  0  0
 16 18  1  1  0  0  0
 16 26  1  0  0  0  0
 17 23  1  0  0  0  0
 19 20  1  6  0  0  0
 19 28  1  0  0  0  0
 21 22  1  0  0  0  0
 21 23  1  0  0  0  0
 22 24  1  0  0  0  0
 26 27  1  6  0  0  0
 26 29  1  0  0  0  0
 28  2  1  6  0  0  0
 28 31  1  0  0  0  0
 29 30  1  0  0  0  0
 29 33  1  1  0  0  0
 31 32  1  1  0  0  0
 31 35  1  0  0  0  0
 33 34  1  0  0  0  0
 35 36  1  1  0  0  0
M  END
>  <CHROM.1>
-115.59108622,80.04303904,176.30561056,-67.34848097,-66.96691268,-178.46715163
59.94885528,132.43712077,138.11653367,-66.10711672,-73.58794873,-171.09352029
78.90011071,-176.63668638,40.14077541,5.71943325,6.99033908,-2.52860784,-0.44375000
2.23474666

>  <Name>
2f4u_lig

>  <RI>
0

>  <Rbt.Current_Directory>
/home/itssahil/PROJECTS/Mol_Feturizer/New_Systems/rnas/2f4u

>  <Rbt.Executable>
rbdock ($Id: //depot/dev/client3/rdock/2013.1/src/exe/rbdock.cxx#4 $)

>  <Rbt.Library>
libRbt.so (2013.1, Build901 2013/11/27)

>  <Rbt.Parameter_File>
/export/apps/rDock/src/rDock_2013.1_src/data/scripts/dock_solv.prm

>  <Rbt.Receptor>
prm/pocket_docking_3.prm

>  <SCORE>
-19.5335

>  <SCORE.INTER>
-15.0392

>  <SCORE.INTER.CONST>
1

>  <SCORE.INTER.POLAR>
-2.66831

>  <SCORE.INTER.ROT>
14

>  <SCORE.INTER.SOLV>
10.4971

>  <SCORE.INTER.VDW>
-17.5641

>  <SCORE.INTER.norm>
-0.417755

>  <SCORE.INTRA>
-4.51491

>  <SCORE.INTRA.DIHEDRAL>
-13.2937

>  <SCORE.INTRA.DIHEDRAL.0>
26.3805

>  <SCORE.INTRA.POLAR>
0

>  <SCORE.INTRA.POLAR.0>
0

>  <SCORE.INTRA.REPUL>
0

>  <SCORE.INTRA.REPUL.0>
0

>  <SCORE.INTRA.SOLV>
4.90715

>  <SCORE.INTRA.SOLV.lig_0>
-98.5587

>  <SCORE.INTRA.VDW>
-0.321638

>  <SCORE.INTRA.VDW.0>
-2.91167

>  <SCORE.INTRA.norm>
-0.125414

>  <SCORE.RESTR>
0.0205652

>  <SCORE.RESTR.CAVITY>
0.0205652

>  <SCORE.RESTR.norm>
0.000571255

>  <SCORE.SYSTEM>
0

>  <SCORE.SYSTEM.CONST>
0

>  <SCORE.SYSTEM.DIHEDRAL>
0

>  <SCORE.SYSTEM.SOLV>
0

>  <SCORE.SYSTEM.norm>
0

>  <SCORE.heavy>
36

>  <SCORE.norm>
-0.542598

>  <RMSD>
1.932

$$$$
2f4u_lig
 OpenBabel11021811433D
libRbt.so/2013.1/901 2013/11/27
 36 37  0  0  0  0  0  0  0  0999 V2000
   39.0887    8.4676    5.9444 C   0  0  2  0  0  0  0  0  0  0  0  0
   39.4187    7.2855    5.1249 O   0  0  0  0  0  0  0  0  0  0  0  0
   41.6445    3.6494    5.9734 C   0  0  2  0  0  0  0  0  0  0  0  0
   42.7920    2.7591    6.2980 N   0  0  0  0  0  0  0  0  0  0  0  0
   37.6016    8.3048    6.3875 C   0  0  2  0  0  0  0  0  0  0  0  0
   37.3692    7.0659    7.1526 N   0  0  0  0  0  0  0  0  0  0  0  0
   41.8873    4.4498    4.6454 C   0  0  0  0  0  0  0  0  0  0  0  0
   44.0721    3.6492    7.1677 C   0  0  0  0  0  0  0  0  0  0  0  0
   44.8529    2.3804    7.0257 C   0  0  1  0  0  0  0  0  0  0  0  0
   46.1416    2.7235    6.2701 C   0  0  0  0  0  0  0  0  0  0  0  0
   47.0731    3.7385    6.9583 C   0  0  0  0  0  0  0  0  0  0  0  0
   48.0476    4.2170    5.9759 N   0  0  0  0  0  0  0  0  0  0  0  0
   45.2179    1.8904    8.2871 O   0  0  0  0  0  0  0  0  0  0  0  0
   41.5221    2.9369    9.3527 C   0  0  0  0  0  0  0  0  0  0  0  0
   40.4131    3.0510   10.3880 C   0  0  0  0  0  0  0  0  0  0  0  0
   36.6904    8.3292    5.1156 C   0  0  1  0  0  0  0  0  0  0  0  0
   39.1289    2.4560    9.9663 N   0  0  0  0  0  0  0  0  0  0  0  0
   35.3179    8.1724    5.4665 O   0  0  0  0  0  0  0  0  0  0  0  0
   40.7176    5.4098    4.3474 C   0  0  2  0  0  0  0  0  0  0  0  0
   40.9642    6.1857    3.1385 N   0  0  0  0  0  0  0  0  0  0  0  0
   36.8386    1.5735   10.3853 C   0  0  0  0  0  0  0  0  0  0  0  0
   36.1241    2.8921    9.9618 C   0  0  0  0  0  0  0  0  0  0  0  0
   38.2539    1.8057   10.9758 C   0  0  0  0  0  0  0  0  0  0  0  0
   35.9463    3.8244   11.1153 N   0  0  0  0  0  0  0  0  0  0  0  0
   44.2058    4.6509    7.5419 O   0  0  0  0  0  0  0  0  0  0  0  0
   36.9337    9.6594    4.3749 C   0  0  2  0  0  0  0  0  0  0  0  0
   36.1511    9.7747    3.1892 O   0  0  0  0  0  0  0  0  0  0  0  0
   40.5195    6.3746    5.4994 C   0  0  2  0  0  0  0  0  0  0  0  0
   38.4217    9.8233    4.0161 C   0  0  2  0  0  0  0  0  0  0  0  0
   39.2462    9.6965    5.1799 O   0  0  0  0  0  0  0  0  0  0  0  0
   40.2275    5.5692    6.8300 C   0  0  2  0  0  0  0  0  0  0  0  0
   40.0591    6.5225    7.9259 O   0  0  0  0  0  0  0  0  0  0  0  0
   38.6979   11.1522    3.3653 C   0  0  0  0  0  0  0  0  0  0  0  0
   38.6284   12.1669    4.2930 O   0  0  0  0  0  0  0  0  0  0  0  0
   41.4376    4.6182    7.1208 C   0  0  1  0  0  0  0  0  0  0  0  0
   41.2510    3.8750    8.2900 O   0  0  0  0  0  0  0  0  0  0  0  0
  1  2  1  6  0  0  0
  1  5  1  0  0  0  0
  1 30  1  0  0  0  0
  3  4  1  1  0  0  0
  3  7  1  0  0  0  0
  3 35  1  0  0  0  0
  5  6  1  6  0  0  0
  5 16  1  0  0  0  0
  7 19  1  0  0  0  0
  8  4  1  0  0  0  0
  8 25  2  0  0  0  0
  9  8  1  1  0  0  0
  9 10  1  0  0  0  0
  9 13  1  0  0  0  0
 10 11  1  0  0  0  0
 11 12  1  0  0  0  0
 14 15  1  0  0  0  0
 14 36  1  0  0  0  0
 15 17  1  0  0  0  0
 16 18  1  1  0  0  0
 16 26  1  0  0  0  0
 17 23  1  0  0  0  0
 19 20  1  6  0  0  0
 19 28  1  0  0  0  0
 21 22  1  0  0  0  0
 21 23  1  0  0  0  0
 22 24  1  0  0  0  0
 26 27  1  6  0  0  0
 26 29  1  0  0  0  0
 28  2  1  6  0  0  0
 28 31  1  0  0  0  0
 29 30  1  0  0  0  0
 29 33  1  1  0  0  0
 31 32  1  1  0  0  0
 31 35  1  0  0  0  0
 33 34  1  0  0  0  0
 35 36  1  1  0  0  0
M  END
>  <CHROM.1>
-121.26358640,84.26022794,121.88377002,61.18620321,-165.17531875,73.85343773
173.92992690,145.86367610,166.12832111,-60.00784158,-60.78191217,-171.48853230
72.75870412,58.27447481,40.34071155,5.62532373,6.69642000,-2.32949407,-0.29025716
2.43439330

>  <Name>
2f4u_lig

>  <RI>
0

>  <Rbt.Current_Directory>
/home/itssahil/PROJECTS/Mol_Feturizer/New_Systems/rnas/2f4u

>  <Rbt.Executable>
rbdock ($Id: //depot/dev/client3/rdock/2013.1/src/exe/rbdock.cxx#4 $)

>  <Rbt.Library>
libRbt.so (2013.1, Build901 2013/11/27)

>  <Rbt.Parameter_File>
/export/apps/rDock/src/rDock_2013.1_src/data/scripts/dock_solv.prm

>  <Rbt.Receptor>
prm/pocket_docking_3.prm

>  <SCORE>
-16.4034

>  <SCORE.INTER>
-11.4852

>  <SCORE.INTER.CONST>
1

>  <SCORE.INTER.POLAR>
-1.66532

>  <SCORE.INTER.ROT>
14

>  <SCORE.INTER.SOLV>
11.4895

>  <SCORE.INTER.VDW>
-18.8689

>  <SCORE.INTER.norm>
-0.319034

>  <SCORE.INTRA>
-4.91819

>  <SCORE.INTRA.DIHEDRAL>
-12.7989

>  <SCORE.INTRA.DIHEDRAL.0>
26.3805

>  <SCORE.INTRA.POLAR>
0

>  <SCORE.INTRA.POLAR.0>
0

>  <SCORE.INTRA.REPUL>
0

>  <SCORE.INTRA.REPUL.0>
0

>  <SCORE.INTRA.SOLV>
4.25872

>  <SCORE.INTRA.SOLV.lig_0>
-98.5587

>  <SCORE.INTRA.VDW>
-0.648096

>  <SCORE.INTRA.VDW.0>
-2.91167

>  <SCORE.INTRA.norm>
-0.136616

>  <SCORE.RESTR>
0

>  <SCORE.RESTR.CAVITY>
0

>  <SCORE.RESTR.norm>
0

>  <SCORE.SYSTEM>
0

>  <SCORE.SYSTEM.CONST>
0

>  <SCORE.SYSTEM.DIHEDRAL>
0

>  <SCORE.SYSTEM.SOLV>
0

>  <SCORE.SYSTEM.norm>
0

>  <SCORE.heavy>
36

>  <SCORE.norm>
-0.455651

>  <RMSD>
1.969

$$$$
2f4u_lig
 OpenBabel11021811433D
libRbt.so/2013.1/901 2013/11/27
 36 37  0  0  0  0  0  0  0  0999 V2000
   37.5757    8.7419    5.7444 C   0  0  2  0  0  0  0  0  0  0  0  0
   38.1164    7.4879    5.1850 O   0  0  0  0  0  0  0  0  0  0  0  0
   41.5050    4.9681    6.2162 C   0  0  2  0  0  0  0  0  0  0  0  0
   42.9149    4.5496    6.4438 N   0  0  0  0  0  0  0  0  0  0  0  0
   36.0995    8.8526    5.2516 C   0  0  2  0  0  0  0  0  0  0  0  0
   35.2738    7.7041    5.6679 N   0  0  0  0  0  0  0  0  0  0  0  0
   41.2676    5.4306    4.7354 C   0  0  0  0  0  0  0  0  0  0  0  0
   44.0581    5.7374    5.7583 C   0  0  0  0  0  0  0  0  0  0  0  0
   45.1038    4.7356    6.1360 C   0  0  1  0  0  0  0  0  0  0  0  0
   46.3139    4.9793    5.2273 C   0  0  0  0  0  0  0  0  0  0  0  0
   47.4998    4.0152    5.4160 C   0  0  0  0  0  0  0  0  0  0  0  0
   48.0110    4.1669    6.7797 N   0  0  0  0  0  0  0  0  0  0  0  0
   45.5181    4.9407    7.4591 O   0  0  0  0  0  0  0  0  0  0  0  0
   41.4193    5.6563    9.9119 C   0  0  0  0  0  0  0  0  0  0  0  0
   39.9757    5.6154   10.3905 C   0  0  0  0  0  0  0  0  0  0  0  0
   36.0963    8.9788    3.6919 C   0  0  1  0  0  0  0  0  0  0  0  0
   39.7968    4.9964   11.7194 N   0  0  0  0  0  0  0  0  0  0  0  0
   34.7660    9.0722    3.1890 O   0  0  0  0  0  0  0  0  0  0  0  0
   39.8184    5.9142    4.5244 C   0  0  2  0  0  0  0  0  0  0  0  0
   39.6109    6.3860    3.1610 N   0  0  0  0  0  0  0  0  0  0  0  0
   37.8040    3.5464   11.3641 C   0  0  0  0  0  0  0  0  0  0  0  0
   38.5432    2.1845   11.5290 C   0  0  0  0  0  0  0  0  0  0  0  0
   38.4278    4.6885   12.2080 C   0  0  0  0  0  0  0  0  0  0  0  0
   37.8675    1.0888   10.7712 N   0  0  0  0  0  0  0  0  0  0  0  0
   43.9837    6.6879    5.2559 O   0  0  0  0  0  0  0  0  0  0  0  0
   36.9317   10.2164    3.3075 C   0  0  2  0  0  0  0  0  0  0  0  0
   36.9976   10.4137    1.8974 O   0  0  0  0  0  0  0  0  0  0  0  0
   39.4971    7.0503    5.4747 C   0  0  2  0  0  0  0  0  0  0  0  0
   38.3606   10.1100    3.8701 C   0  0  2  0  0  0  0  0  0  0  0  0
   38.3391    9.8933    5.2853 O   0  0  0  0  0  0  0  0  0  0  0  0
   39.6906    6.5702    6.9702 C   0  0  2  0  0  0  0  0  0  0  0  0
   39.3920    7.6894    7.8626 O   0  0  0  0  0  0  0  0  0  0  0  0
   39.1710   11.3445    3.5781 C   0  0  0  0  0  0  0  0  0  0  0  0
   38.5782   12.4537    4.1379 O   0  0  0  0  0  0  0  0  0  0  0  0
   41.1735    6.1044    7.1635 C   0  0  1  0  0  0  0  0  0  0  0  0
   41.4203    5.6692    8.4688 O   0  0  0  0  0  0  0  0  0  0  0  0
  1  2  1  6  0  0  0
  1  5  1  0  0  0  0
  1 30  1  0  0  0  0
  3  4  1  6  0  0  0
  3  7  1  0  0  0  0
  3 35  1  0  0  0  0
  5  6  1  6  0  0  0
  5 16  1  0  0  0  0
  7 19  1  0  0  0  0
  8  4  1  0  0  0  0
  8 25  2  0  0  0  0
  9  8  1  6  0  0  0
  9 10  1  0  0  0  0
  9 13  1  0  0  0  0
 10 11  1  0  0  0  0
 11 12  1  0  0  0  0
 14 15  1  0  0  0  0
 14 36  1  0  0  0  0
 15 17  1  0  0  0  0
 16 18  1  1  0  0  0
 16 26  1  0  0  0  0
 17 23  1  0  0  0  0
 19 20  1  6  0  0  0
 19 28  1  0  0  0  0
 21 22  1  0  0  0  0
 21 23  1  0  0  0  0
 22 24  1  0  0  0  0
 26 27  1  6  0  0  0
 26 29  1  0  0  0  0
 28  2  1  1  0  0  0
 28 31  1  0  0  0  0
 29 30  1  0  0  0  0
 29 33  1  1  0  0  0
 31 32  1  1  0  0  0
 31 35  1  0  0  0  0
 33 34  1  0  0  0  0
 35 36  1  1  0  0  0
M  END
>  <CHROM.1>
-178.80642596,46.61177045,155.72426067,-177.93348343,-62.14896119,153.44529109
61.12857388,-169.93932563,68.24981842,176.44138892,65.53648567,-167.99675805
59.82225467,-168.29231644,40.17921985,6.67113286,6.42908602,2.36534538,0.27493026
-0.92040564

>  <Name>
2f4u_lig

>  <RI>
0

>  <Rbt.Current_Directory>
/home/itssahil/PROJECTS/Mol_Feturizer/New_Systems/rnas/2f4u

>  <Rbt.Executable>
rbdock ($Id: //depot/dev/client3/rdock/2013.1/src/exe/rbdock.cxx#4 $)

>  <Rbt.Library>
libRbt.so (2013.1, Build901 2013/11/27)

>  <Rbt.Parameter_File>
/export/apps/rDock/src/rDock_2013.1_src/data/scripts/dock_solv.prm

>  <Rbt.Receptor>
prm/pocket_docking_3.prm

>  <SCORE>
-26.825

>  <SCORE.INTER>
-16.7386

>  <SCORE.INTER.CONST>
1

>  <SCORE.INTER.POLAR>
-1.87015

>  <SCORE.INTER.ROT>
14

>  <SCORE.INTER.SOLV>
20.5343

>  <SCORE.INTER.VDW>
-24.7034

>  <SCORE.INTER.norm>
-0.464962

>  <SCORE.INTRA>
-10.1995

>  <SCORE.INTRA.DIHEDRAL>
-20.9784

>  <SCORE.INTRA.DIHEDRAL.0>
26.3805

>  <SCORE.INTRA.POLAR>
0

>  <SCORE.INTRA.POLAR.0>
0

>  <SCORE.INTRA.REPUL>
0

>  <SCORE.INTRA.REPUL.0>
0

>  <SCORE.INTRA.SOLV>
1.75879

>  <SCORE.INTRA.SOLV.lig_0>
-98.5587

>  <SCORE.INTRA.VDW>
-0.58974

>  <SCORE.INTRA.VDW.0>
-2.91167

>  <SCORE.INTRA.norm>
-0.28332

>  <SCORE.RESTR>
0.113152

>  <SCORE.RESTR.CAVITY>
0.113152

>  <SCORE.RESTR.norm>
0.00314312

>  <SCORE.SYSTEM>
0

>  <SCORE.SYSTEM.CONST>
0

>  <SCORE.SYSTEM.DIHEDRAL>
0

>  <SCORE.SYSTEM.SOLV>
0

>  <SCORE.SYSTEM.norm>
0

>  <SCORE.heavy>
36

>  <SCORE.norm>
-0.74514

>  <RMSD>
1.977

$$$$
2f4u_lig
 OpenBabel11021811433D
libRbt.so/2013.1/901 2013/11/27
 36 37  0  0  0  0  0  0  0  0999 V2000
   37.4603    8.8512    5.6357 C   0  0  2  0  0  0  0  0  0  0  0  0
   37.9830    7.5835    5.0903 O   0  0  0  0  0  0  0  0  0  0  0  0
   41.3513    5.1124    6.2920 C   0  0  2  0  0  0  0  0  0  0  0  0
   42.7593    4.6786    6.5021 N   0  0  0  0  0  0  0  0  0  0  0  0
   35.9975    8.9948    5.1124 C   0  0  2  0  0  0  0  0  0  0  0  0
   35.1370    7.8669    5.5144 N   0  0  0  0  0  0  0  0  0  0  0  0
   41.0419    5.3679    4.7747 C   0  0  0  0  0  0  0  0  0  0  0  0
   43.9070    5.8610    5.8149 C   0  0  0  0  0  0  0  0  0  0  0  0
   44.9467    4.8462    6.1740 C   0  0  1  0  0  0  0  0  0  0  0  0
   46.2587    5.2898    5.5172 C   0  0  0  0  0  0  0  0  0  0  0  0
   47.4450    4.3192    5.6654 C   0  0  0  0  0  0  0  0  0  0  0  0
   47.1534    3.1066    4.8984 N   0  0  0  0  0  0  0  0  0  0  0  0
   45.1506    4.8288    7.5605 O   0  0  0  0  0  0  0  0  0  0  0  0
   41.4901    6.3167    9.8504 C   0  0  0  0  0  0  0  0  0  0  0  0
   40.1308    5.9840   10.4473 C   0  0  0  0  0  0  0  0  0  0  0  0
   36.0291    9.1167    3.5526 C   0  0  1  0  0  0  0  0  0  0  0  0
   39.0315    6.8434    9.9636 N   0  0  0  0  0  0  0  0  0  0  0  0
   34.7118    9.2396    3.0224 O   0  0  0  0  0  0  0  0  0  0  0  0
   39.5975    5.8699    4.5737 C   0  0  2  0  0  0  0  0  0  0  0  0
   39.3250    6.1502    3.1696 N   0  0  0  0  0  0  0  0  0  0  0  0
   36.6394    7.1409   10.5875 C   0  0  0  0  0  0  0  0  0  0  0  0
   36.8573    7.1216   12.1304 C   0  0  0  0  0  0  0  0  0  0  0  0
   37.6669    6.2753    9.8125 C   0  0  0  0  0  0  0  0  0  0  0  0
   35.7800    7.8611   12.8542 N   0  0  0  0  0  0  0  0  0  0  0  0
   43.8368    6.8162    5.3209 O   0  0  0  0  0  0  0  0  0  0  0  0
   36.9007   10.3335    3.1827 C   0  0  2  0  0  0  0  0  0  0  0  0
   37.0000   10.5254    1.7738 O   0  0  0  0  0  0  0  0  0  0  0  0
   39.3650    7.1408    5.3661 C   0  0  2  0  0  0  0  0  0  0  0  0
   38.3149   10.1956    3.7747 C   0  0  2  0  0  0  0  0  0  0  0  0
   38.2595    9.9834    5.1897 O   0  0  0  0  0  0  0  0  0  0  0  0
   39.6309    6.8716    6.9027 C   0  0  2  0  0  0  0  0  0  0  0  0
   39.4172    8.1166    7.6391 O   0  0  0  0  0  0  0  0  0  0  0  0
   39.1596   11.4101    3.4965 C   0  0  0  0  0  0  0  0  0  0  0  0
   38.6257   12.5197    4.1120 O   0  0  0  0  0  0  0  0  0  0  0  0
   41.1084    6.3834    7.0818 C   0  0  1  0  0  0  0  0  0  0  0  0
   41.4178    6.1296    8.4213 O   0  0  0  0  0  0  0  0  0  0  0  0
  1  2  1  6  0  0  0
  1  5  1  0  0  0  0
  1 30  1  0  0  0  0
  3  4  1  6  0  0  0
  3  7  1  0  0  0  0
  3 35  1  0  0  0  0
  5  6  1  6  0  0  0
  5 16  1  0  0  0  0
  7 19  1  0  0  0  0
  8  4  1  0  0  0  0
  8 25  2  0  0  0  0
  9  8  1  1  0  0  0
  9 10  1  0  0  0  0
  9 13  1  0  0  0  0
 10 11  1  0  0  0  0
 11 12  1  0  0  0  0
 14 15  1  0  0  0  0
 14 36  1  0  0  0  0
 15 17  1  0  0  0  0
 16 18  1  1  0  0  0
 16 26  1  0  0  0  0
 17 23  1  0  0  0  0
 19 20  1  6  0  0  0
 19 28  1  0  0  0  0
 21 22  1  0  0  0  0
 21 23  1  0  0  0  0
 22 24  1  0  0  0  0
 26 27  1  6  0  0  0
 26 29  1  0  0  0  0
 28  2  1  1  0  0  0
 28 31  1  0  0  0  0
 29 30  1  0  0  0  0
 29 33  1  1  0  0  0
 31 32  1  1  0  0  0
 31 35  1  0  0  0  0
 33 34  1  0  0  0  0
 35 36  1  1  0  0  0
M  END
>  <CHROM.1>
178.76572582,55.80688181,169.42540089,-175.22579254,67.65962765,-61.33500542
76.54152490,146.57608849,126.37376203,-174.78357429,-65.30226275,-175.71804000
63.57288457,-166.98043331,39.90334670,7.28999908,6.29096245,-2.84491287,-0.44248626
1.91637815

>  <Name>
2f4u_lig

>  <RI>
0

>  <Rbt.Current_Directory>
/home/itssahil/PROJECTS/Mol_Feturizer/New_Systems/rnas/2f4u

>  <Rbt.Executable>
rbdock ($Id: //depot/dev/client3/rdock/2013.1/src/exe/rbdock.cxx#4 $)

>  <Rbt.Library>
libRbt.so (2013.1, Build901 2013/11/27)

>  <Rbt.Parameter_File>
/export/apps/rDock/src/rDock_2013.1_src/data/scripts/dock_solv.prm

>  <Rbt.Receptor>
prm/pocket_docking_4.prm

>  <SCORE>
-28.1876

>  <SCORE.INTER>
-17.3766

>  <SCORE.INTER.CONST>
1

>  <SCORE.INTER.POLAR>
-2.40513

>  <SCORE.INTER.ROT>
14

>  <SCORE.INTER.SOLV>
15.7017

>  <SCORE.INTER.VDW>
-21.7345

>  <SCORE.INTER.norm>
-0.482684

>  <SCORE.INTRA>
-10.811

>  <SCORE.INTRA.DIHEDRAL>
-20.8652

>  <SCORE.INTRA.DIHEDRAL.0>
26.3805

>  <SCORE.INTRA.POLAR>
0

>  <SCORE.INTRA.POLAR.0>
0

>  <SCORE.INTRA.REPUL>
0

>  <SCORE.INTRA.REPUL.0>
0

>  <SCORE.INTRA.SOLV>
2.82927

>  <SCORE.INTRA.SOLV.lig_0>
-98.5587

>  <SCORE.INTRA.VDW>
-1.79303

>  <SCORE.INTRA.VDW.0>
-2.91167

>  <SCORE.INTRA.norm>
-0.300306

>  <SCORE.RESTR>
0

>  <SCORE.RESTR.CAVITY>
0

>  <SCORE.RESTR.norm>
0

>  <SCORE.SYSTEM>
0

>  <SCORE.SYSTEM.CONST>
0

>  <SCORE.SYSTEM.DIHEDRAL>
0

>  <SCORE.SYSTEM.SOLV>
0

>  <SCORE.SYSTEM.norm>
0

>  <SCORE.heavy>
36

>  <SCORE.norm>
-0.78299

>  <RMSD>
1.989

$$$$
2f4u_lig
 OpenBabel11021811433D
libRbt.so/2013.1/901 2013/11/27
 36 37  0  0  0  0  0  0  0  0999 V2000
   38.0199    8.9774    5.3114 C   0  0  2  0  0  0  0  0  0  0  0  0
   38.4338    7.7170    4.6650 O   0  0  0  0  0  0  0  0  0  0  0  0
   41.1359    4.6970    6.2378 C   0  0  2  0  0  0  0  0  0  0  0  0
   42.4076    4.0000    6.5720 N   0  0  0  0  0  0  0  0  0  0  0  0
   36.5237    9.2051    4.9323 C   0  0  2  0  0  0  0  0  0  0  0  0
   35.6534    8.0952    5.3622 N   0  0  0  0  0  0  0  0  0  0  0  0
   40.9775    4.9073    4.6906 C   0  0  0  0  0  0  0  0  0  0  0  0
   43.8226    5.0010    6.1439 C   0  0  0  0  0  0  0  0  0  0  0  0
   44.6155    3.7904    6.5255 C   0  0  1  0  0  0  0  0  0  0  0  0
   45.5031    3.4340    5.3279 C   0  0  0  0  0  0  0  0  0  0  0  0
   46.5437    4.4951    4.9246 C   0  0  0  0  0  0  0  0  0  0  0  0
   45.9075    5.4490    4.0140 N   0  0  0  0  0  0  0  0  0  0  0  0
   45.4581    4.0821    7.6068 O   0  0  0  0  0  0  0  0  0  0  0  0
   41.8426    5.3027    9.5353 C   0  0  0  0  0  0  0  0  0  0  0  0
   41.1396    5.9774   10.7038 C   0  0  0  0  0  0  0  0  0  0  0  0
   36.4196    9.4000    3.3832 C   0  0  1  0  0  0  0  0  0  0  0  0
   39.6656    5.9047   10.6460 N   0  0  0  0  0  0  0  0  0  0  0  0
   35.0666    9.6015    2.9828 O   0  0  0  0  0  0  0  0  0  0  0  0
   39.6840    5.6789    4.3591 C   0  0  2  0  0  0  0  0  0  0  0  0
   39.5600    5.9137    2.9260 N   0  0  0  0  0  0  0  0  0  0  0  0
   38.4811    4.2197   12.0451 C   0  0  0  0  0  0  0  0  0  0  0  0
   37.4585    3.9727   13.1948 C   0  0  0  0  0  0  0  0  0  0  0  0
   38.8902    5.7085   11.8981 C   0  0  0  0  0  0  0  0  0  0  0  0
   36.1445    4.6287   12.9218 N   0  0  0  0  0  0  0  0  0  0  0  0
   43.9841    5.9867    5.7393 O   0  0  0  0  0  0  0  0  0  0  0  0
   37.3078   10.5967    2.9881 C   0  0  2  0  0  0  0  0  0  0  0  0
   37.2878   10.8515    1.5858 O   0  0  0  0  0  0  0  0  0  0  0  0
   39.6744    7.0210    5.0633 C   0  0  2  0  0  0  0  0  0  0  0  0
   38.7622   10.3733    3.4403 C   0  0  2  0  0  0  0  0  0  0  0  0
   38.8254   10.0962    4.8436 O   0  0  0  0  0  0  0  0  0  0  0  0
   39.7863    6.8075    6.6273 C   0  0  2  0  0  0  0  0  0  0  0  0
   39.7931    8.1167    7.2785 O   0  0  0  0  0  0  0  0  0  0  0  0
   39.6319   11.5645    3.1388 C   0  0  0  0  0  0  0  0  0  0  0  0
   39.2036   12.6651    3.8461 O   0  0  0  0  0  0  0  0  0  0  0  0
   41.1164    6.0411    6.9387 C   0  0  1  0  0  0  0  0  0  0  0  0
   41.2858    5.8203    8.3086 O   0  0  0  0  0  0  0  0  0  0  0  0
  1  2  1  6  0  0  0
  1  5  1  0  0  0  0
  1 30  1  0  0  0  0
  3  4  1  6  0  0  0
  3  7  1  0  0  0  0
  3 35  1  0  0  0  0
  5  6  1  6  0  0  0
  5 16  1  0  0  0  0
  7 19  1  0  0  0  0
  8  4  1  0  0  0  0
  8 25  2  0  0  0  0
  9  8  1  6  0  0  0
  9 10  1  0  0  0  0
  9 13  1  0  0  0  0
 10 11  1  0  0  0  0
 11 12  1  0  0  0  0
 14 15  1  0  0  0  0
 14 36  1  0  0  0  0
 15 17  1  0  0  0  0
 16 18  1  1  0  0  0
 16 26  1  0  0  0  0
 17 23  1  0  0  0  0
 19 20  1  6  0  0  0
 19 28  1  0  0  0  0
 21 22  1  0  0  0  0
 21 23  1  0  0  0  0
 22 24  1  0  0  0  0
 26 27  1  6  0  0  0
 26 29  1  0  0  0  0
 28  2  1  1  0  0  0
 28 31  1  0  0  0  0
 29 30  1  0  0  0  0
 29 33  1  1  0  0  0
 31 32  1  1  0  0  0
 31 35  1  0  0  0  0
 33 34  1  0  0  0  0
 35 36  1  1  0  0  0
M  END
>  <CHROM.1>
-164.99485790,65.06814426,124.89573665,62.65167129,-86.24873586,52.27808499
173.97242848,142.29691726,-99.63334883,65.44845363,-169.89560374,171.67241806
63.40011277,48.33355345,40.16164916,6.88094861,6.28648600,2.22373318,0.45084632
-1.05733750

>  <Name>
2f4u_lig

>  <RI>
0

>  <Rbt.Current_Directory>
/home/itssahil/PROJECTS/Mol_Feturizer/New_Systems/rnas/2f4u

>  <Rbt.Executable>
rbdock ($Id: //depot/dev/client3/rdock/2013.1/src/exe/rbdock.cxx#4 $)

>  <Rbt.Library>
libRbt.so (2013.1, Build901 2013/11/27)

>  <Rbt.Parameter_File>
/export/apps/rDock/src/rDock_2013.1_src/data/scripts/dock_solv.prm

>  <Rbt.Receptor>
prm/pocket_docking_4.prm

>  <SCORE>
-23.2907

>  <SCORE.INTER>
-16.0141

>  <SCORE.INTER.CONST>
1

>  <SCORE.INTER.POLAR>
-2.00698

>  <SCORE.INTER.ROT>
14

>  <SCORE.INTER.SOLV>
17.9105

>  <SCORE.INTER.VDW>
-22.8897

>  <SCORE.INTER.norm>
-0.444837

>  <SCORE.INTRA>
-7.27661

>  <SCORE.INTRA.DIHEDRAL>
-16.9809

>  <SCORE.INTRA.DIHEDRAL.0>
26.3805

>  <SCORE.INTRA.POLAR>
0

>  <SCORE.INTRA.POLAR.0>
0

>  <SCORE.INTRA.REPUL>
0

>  <SCORE.INTRA.REPUL.0>
0

>  <SCORE.INTRA.SOLV>
4.01277

>  <SCORE.INTRA.SOLV.lig_0>
-98.5587

>  <SCORE.INTRA.VDW>
-0.79256

>  <SCORE.INTRA.VDW.0>
-2.91167

>  <SCORE.INTRA.norm>
-0.202128

>  <SCORE.RESTR>
0

>  <SCORE.RESTR.CAVITY>
0

>  <SCORE.RESTR.norm>
0

>  <SCORE.SYSTEM>
0

>  <SCORE.SYSTEM.CONST>
0

>  <SCORE.SYSTEM.DIHEDRAL>
0

>  <SCORE.SYSTEM.SOLV>
0

>  <SCORE.SYSTEM.norm>
0

>  <SCORE.heavy>
36

>  <SCORE.norm>
-0.646965

>  <RMSD>
1.997

$$$$
2f4u_lig
 OpenBabel11021811433D
libRbt.so/2013.1/901 2013/11/27
 36 37  0  0  0  0  0  0  0  0999 V2000
   37.4671    8.7262    5.6712 C   0  0  2  0  0  0  0  0  0  0  0  0
   38.0365    7.4944    5.0911 O   0  0  0  0  0  0  0  0  0  0  0  0
   41.4836    5.0972    6.2163 C   0  0  2  0  0  0  0  0  0  0  0  0
   42.9048    4.7071    6.4229 N   0  0  0  0  0  0  0  0  0  0  0  0
   35.9931    8.8185    5.1684 C   0  0  2  0  0  0  0  0  0  0  0  0
   35.1865    7.6461    5.5547 N   0  0  0  0  0  0  0  0  0  0  0  0
   41.1805    5.4125    4.7090 C   0  0  0  0  0  0  0  0  0  0  0  0
   44.0135    5.9096    5.7074 C   0  0  0  0  0  0  0  0  0  0  0  0
   45.0842    4.9309    6.0755 C   0  0  1  0  0  0  0  0  0  0  0  0
   46.2904    5.2188    5.1746 C   0  0  0  0  0  0  0  0  0  0  0  0
   47.4439    4.2016    5.2523 C   0  0  0  0  0  0  0  0  0  0  0  0
   48.0182    4.2503    6.5983 N   0  0  0  0  0  0  0  0  0  0  0  0
   45.4885    5.1291    7.4027 O   0  0  0  0  0  0  0  0  0  0  0  0
   41.5572    6.1462    9.8271 C   0  0  0  0  0  0  0  0  0  0  0  0
   40.1386    6.2483   10.3674 C   0  0  0  0  0  0  0  0  0  0  0  0
   35.9997    8.9762    3.6116 C   0  0  1  0  0  0  0  0  0  0  0  0
   40.0601    6.6383   11.7897 N   0  0  0  0  0  0  0  0  0  0  0  0
   34.6718    9.0542    3.0996 O   0  0  0  0  0  0  0  0  0  0  0  0
   39.7203    5.8690    4.5142 C   0  0  2  0  0  0  0  0  0  0  0  0
   39.4519    6.2052    3.1217 N   0  0  0  0  0  0  0  0  0  0  0  0
   37.8391    5.9656   12.6924 C   0  0  0  0  0  0  0  0  0  0  0  0
   37.4041    7.4032   13.1073 C   0  0  0  0  0  0  0  0  0  0  0  0
   39.3731    5.7462   12.7591 C   0  0  0  0  0  0  0  0  0  0  0  0
   35.9341    7.6100   12.9411 N   0  0  0  0  0  0  0  0  0  0  0  0
   43.9127    6.8540    5.1981 O   0  0  0  0  0  0  0  0  0  0  0  0
   36.8140   10.2372    3.2592 C   0  0  2  0  0  0  0  0  0  0  0  0
   36.8872   10.4644    1.8540 O   0  0  0  0  0  0  0  0  0  0  0  0
   39.4313    7.0913    5.3626 C   0  0  2  0  0  0  0  0  0  0  0  0
   38.2401   10.1469    3.8314 C   0  0  2  0  0  0  0  0  0  0  0  0
   38.2116    9.9012    5.2417 O   0  0  0  0  0  0  0  0  0  0  0  0
   39.6913    6.7597    6.8880 C   0  0  2  0  0  0  0  0  0  0  0  0
   39.4227    7.9595    7.6794 O   0  0  0  0  0  0  0  0  0  0  0  0
   39.0287   11.4025    3.5711 C   0  0  0  0  0  0  0  0  0  0  0  0
   38.4960   12.4603    4.2728 O   0  0  0  0  0  0  0  0  0  0  0  0
   41.1843    6.3193    7.0620 C   0  0  1  0  0  0  0  0  0  0  0  0
   41.4892    6.0140    8.3917 O   0  0  0  0  0  0  0  0  0  0  0  0
  1  2  1  6  0  0  0
  1  5  1  0  0  0  0
  1 30  1  0  0  0  0
  3  4  1  6  0  0  0
  3  7  1  0  0  0  0
  3 35  1  0  0  0  0
  5  6  1  6  0  0  0
  5 16  1  0  0  0  0
  7 19  1  0  0  0  0
  8  4  1  0  0  0  0
  8 25  2  0  0  0  0
  9  8  1  6  0  0  0
  9 10  1  0  0  0  0
  9 13  1  0  0  0  0
 10 11  1  0  0  0  0
 11 12  1  0  0  0  0
 14 15  1  0  0  0  0
 14 36  1  0  0  0  0
 15 17  1  0  0  0  0
 16 18  1  1  0  0  0
 16 26  1  0  0  0  0
 17 23  1  0  0  0  0
 19 20  1  6  0  0  0
 19 28  1  0  0  0  0
 21 22  1  0  0  0  0
 21 23  1  0  0  0  0
 22 24  1  0  0  0  0
 26 27  1  6  0  0  0
 26 29  1  0  0  0  0
 28  2  1  1  0  0  0
 28 31  1  0  0  0  0
 29 30  1  0  0  0  0
 29 33  1  1  0  0  0
 31 32  1  1  0  0  0
 31 35  1  0  0  0  0
 33 34  1  0  0  0  0
 35 36  1  1  0  0  0
M  END
>  <CHROM.1>
-179.99312336,51.94767971,157.52932376,-172.00404601,-64.74623496,-169.20381385
58.17515991,-121.99121293,-81.42565043,176.02017226,-63.32681496,-174.69818747
66.66325335,-169.32033153,40.08627954,7.23357208,6.53141298,-2.74166070,-0.41987418
1.85335557

>  <Name>
2f4u_lig

>  <RI>
0

>  <Rbt.Current_Directory>
/home/itssahil/PROJECTS/Mol_Feturizer/New_Systems/rnas/2f4u

>  <Rbt.Executable>
rbdock ($Id: //depot/dev/client3/rdock/2013.1/src/exe/rbdock.cxx#4 $)

>  <Rbt.Library>
libRbt.so (2013.1, Build901 2013/11/27)

>  <Rbt.Parameter_File>
/export/apps/rDock/src/rDock_2013.1_src/data/scripts/dock_solv.prm

>  <Rbt.Receptor>
prm/pocket_docking_4.prm

>  <SCORE>
-29.3755

>  <SCORE.INTER>
-18.2405

>  <SCORE.INTER.CONST>
1

>  <SCORE.INTER.POLAR>
-1.85158

>  <SCORE.INTER.ROT>
14

>  <SCORE.INTER.SOLV>
16.5058

>  <SCORE.INTER.VDW>
-24.4237

>  <SCORE.INTER.norm>
-0.50668

>  <SCORE.INTRA>
-11.1423

>  <SCORE.INTRA.DIHEDRAL>
-21.8519

>  <SCORE.INTRA.DIHEDRAL.0>
26.3805

>  <SCORE.INTRA.POLAR>
0

>  <SCORE.INTRA.POLAR.0>
0

>  <SCORE.INTRA.REPUL>
0

>  <SCORE.INTRA.REPUL.0>
0

>  <SCORE.INTRA.SOLV>
1.48296

>  <SCORE.INTRA.SOLV.lig_0>
-98.5587

>  <SCORE.INTRA.VDW>
-0.957841

>  <SCORE.INTRA.VDW.0>
-2.91167

>  <SCORE.INTRA.norm>
-0.309509

>  <SCORE.RESTR>
0.00733442

>  <SCORE.RESTR.CAVITY>
0.00733442

>  <SCORE.RESTR.norm>
0.000203734

>  <SCORE.SYSTEM>
0

>  <SCORE.SYSTEM.CONST>
0

>  <SCORE.SYSTEM.DIHEDRAL>
0

>  <SCORE.SYSTEM.SOLV>
0

>  <SCORE.SYSTEM.norm>
0

>  <SCORE.heavy>
36

>  <SCORE.norm>
-0.815986

>  <RMSD>
2.044

$$$$
2f4u_lig
 OpenBabel11021811433D
libRbt.so/2013.1/901 2013/11/27
 36 37  0  0  0  0  0  0  0  0999 V2000
   38.1085    9.2121    5.2581 C   0  0  2  0  0  0  0  0  0  0  0  0
   38.5346    7.8007    5.3221 O   0  0  0  0  0  0  0  0  0  0  0  0
   41.9723    5.4073    6.4838 C   0  0  2  0  0  0  0  0  0  0  0  0
   43.3599    5.0682    6.9015 N   0  0  0  0  0  0  0  0  0  0  0  0
   36.9088    9.3631    6.2441 C   0  0  2  0  0  0  0  0  0  0  0  0
   37.2603    8.9930    7.6274 N   0  0  0  0  0  0  0  0  0  0  0  0
   41.9478    6.1664    5.1103 C   0  0  0  0  0  0  0  0  0  0  0  0
   43.9998    3.6954    5.9563 C   0  0  0  0  0  0  0  0  0  0  0  0
   45.1663    3.7809    6.8899 C   0  0  1  0  0  0  0  0  0  0  0  0
   45.9186    2.4485    6.7983 C   0  0  0  0  0  0  0  0  0  0  0  0
   45.5655    1.4032    7.8725 C   0  0  0  0  0  0  0  0  0  0  0  0
   44.1326    1.1142    7.7879 N   0  0  0  0  0  0  0  0  0  0  0  0
   46.0443    4.7933    6.4795 O   0  0  0  0  0  0  0  0  0  0  0  0
   41.2896    5.3207   10.1828 C   0  0  0  0  0  0  0  0  0  0  0  0
   39.8741    5.6607   10.6249 C   0  0  0  0  0  0  0  0  0  0  0  0
   35.7232    8.4772    5.7360 C   0  0  1  0  0  0  0  0  0  0  0  0
   38.8204    4.9243    9.8979 N   0  0  0  0  0  0  0  0  0  0  0  0
   34.6023    8.5718    6.6112 O   0  0  0  0  0  0  0  0  0  0  0  0
   40.5108    6.5618    4.7138 C   0  0  2  0  0  0  0  0  0  0  0  0
   40.4931    7.3063    3.4609 N   0  0  0  0  0  0  0  0  0  0  0  0
   36.6166    3.7663    9.8498 C   0  0  0  0  0  0  0  0  0  0  0  0
   35.6331    2.7874   10.5588 C   0  0  0  0  0  0  0  0  0  0  0  0
   37.9338    3.9893   10.6378 C   0  0  0  0  0  0  0  0  0  0  0  0
   36.1360    1.3810   10.5385 N   0  0  0  0  0  0  0  0  0  0  0  0
   43.6488    3.0791    5.1449 O   0  0  0  0  0  0  0  0  0  0  0  0
   35.3619    8.9304    4.3073 C   0  0  2  0  0  0  0  0  0  0  0  0
   34.2912    8.1729    3.7490 O   0  0  0  0  0  0  0  0  0  0  0  0
   39.8850    7.4268    5.7896 C   0  0  2  0  0  0  0  0  0  0  0  0
   36.5847    8.8385    3.3768 C   0  0  2  0  0  0  0  0  0  0  0  0
   37.6912    9.5736    3.9110 O   0  0  0  0  0  0  0  0  0  0  0  0
   39.8663    6.6436    7.1647 C   0  0  2  0  0  0  0  0  0  0  0  0
   39.2752    7.5069    8.1862 O   0  0  0  0  0  0  0  0  0  0  0  0
   36.2780    9.3538    1.9960 C   0  0  0  0  0  0  0  0  0  0  0  0
   35.9698   10.6948    2.0396 O   0  0  0  0  0  0  0  0  0  0  0  0
   41.3371    6.2722    7.5546 C   0  0  1  0  0  0  0  0  0  0  0  0
   41.3990    5.5795    8.7673 O   0  0  0  0  0  0  0  0  0  0  0  0
  1  2  1  6  0  0  0
  1  5  1  0  0  0  0
  1 30  1  0  0  0  0
  3  4  1  1  0  0  0
  3  7  1  0  0  0  0
  3 35  1  0  0  0  0
  5  6  1  1  0  0  0
  5 16  1  0  0  0  0
  7 19  1  0  0  0  0
  8  4  1  0  0  0  0
  8 25  2  0  0  0  0
  9  8  1  6  0  0  0
  9 10  1  0  0  0  0
  9 13  1  0  0  0  0
 10 11  1  0  0  0  0
 11 12  1  0  0  0  0
 14 15  1  0  0  0  0
 14 36  1  0  0  0  0
 15 17  1  0  0  0  0
 16 18  1  1  0  0  0
 16 26  1  0  0  0  0
 17 23  1  0  0  0  0
 19 20  1  6  0  0  0
 19 28  1  0  0  0  0
 21 22  1  0  0  0  0
 21 23  1  0  0  0  0
 22 24  1  0  0  0  0
 26 27  1  6  0  0  0
 26 29  1  0  0  0  0
 28  2  1  6  0  0  0
 28 31  1  0  0  0  0
 29 30  1  0  0  0  0
 29 33  1  6  0  0  0
 31 32  1  1  0  0  0
 31 35  1  0  0  0  0
 33 34  1  0  0  0  0
 35 36  1  1  0  0  0
M  END
>  <CHROM.1>
-117.52096836,-75.32586354,161.90277908,-95.93095880,58.65390815,57.24643446
54.12185642,116.74284147,158.15146546,-70.04168243,179.66605906,-126.02537979
63.68510833,172.40252712,39.64155164,6.13740425,6.63783338,-2.51689249,-0.32696154
2.23089603

>  <Name>
2f4u_lig

>  <RI>
0

>  <Rbt.Current_Directory>
/home/itssahil/PROJECTS/Mol_Feturizer/New_Systems/rnas/2f4u

>  <Rbt.Executable>
rbdock ($Id: //depot/dev/client3/rdock/2013.1/src/exe/rbdock.cxx#4 $)

>  <Rbt.Library>
libRbt.so (2013.1, Build901 2013/11/27)

>  <Rbt.Parameter_File>
/export/apps/rDock/src/rDock_2013.1_src/data/scripts/dock_solv.prm

>  <Rbt.Receptor>
prm/pocket_docking_4.prm

>  <SCORE>
-7.18577

>  <SCORE.INTER>
-6.14025

>  <SCORE.INTER.CONST>
1

>  <SCORE.INTER.POLAR>
-0.775645

>  <SCORE.INTER.ROT>
14

>  <SCORE.INTER.SOLV>
18.8083

>  <SCORE.INTER.VDW>
-20.7108

>  <SCORE.INTER.norm>
-0.170563

>  <SCORE.INTRA>
-1.04552

>  <SCORE.INTRA.DIHEDRAL>
-5.12002

>  <SCORE.INTRA.DIHEDRAL.0>
26.3805

>  <SCORE.INTRA.POLAR>
0

>  <SCORE.INTRA.POLAR.0>
0

>  <SCORE.INTRA.REPUL>
0.00134758

>  <SCORE.INTRA.REPUL.0>
0

>  <SCORE.INTRA.SOLV>
6.40946

>  <SCORE.INTRA.SOLV.lig_0>
-98.5587

>  <SCORE.INTRA.VDW>
-1.69698

>  <SCORE.INTRA.VDW.0>
-2.91167

>  <SCORE.INTRA.norm>
-0.0290422

>  <SCORE.RESTR>
0

>  <SCORE.RESTR.CAVITY>
0

>  <SCORE.RESTR.norm>
0

>  <SCORE.SYSTEM>
0

>  <SCORE.SYSTEM.CONST>
0

>  <SCORE.SYSTEM.DIHEDRAL>
0

>  <SCORE.SYSTEM.SOLV>
0

>  <SCORE.SYSTEM.norm>
0

>  <SCORE.heavy>
36

>  <SCORE.norm>
-0.199605

>  <RMSD>
2.046

$$$$
2f4u_lig
 OpenBabel11021811433D
libRbt.so/2013.1/901 2013/11/27
 36 37  0  0  0  0  0  0  0  0999 V2000
   38.0460    9.3903    5.1913 C   0  0  2  0  0  0  0  0  0  0  0  0
   38.8744    8.3547    4.5438 O   0  0  0  0  0  0  0  0  0  0  0  0
   40.7458    4.7966    6.1969 C   0  0  2  0  0  0  0  0  0  0  0  0
   41.7017    3.9488    6.9600 N   0  0  0  0  0  0  0  0  0  0  0  0
   36.5671    9.0963    4.7908 C   0  0  2  0  0  0  0  0  0  0  0  0
   36.1241    7.7510    5.2007 N   0  0  0  0  0  0  0  0  0  0  0  0
   41.4746    5.6545    5.1033 C   0  0  0  0  0  0  0  0  0  0  0  0
   43.3510    4.6303    6.9074 C   0  0  0  0  0  0  0  0  0  0  0  0
   43.7415    3.3678    7.6098 C   0  0  1  0  0  0  0  0  0  0  0  0
   43.7952    2.2591    6.5528 C   0  0  0  0  0  0  0  0  0  0  0  0
   44.8113    2.4659    5.4144 C   0  0  0  0  0  0  0  0  0  0  0  0
   44.2995    3.5025    4.5158 N   0  0  0  0  0  0  0  0  0  0  0  0
   45.0250    3.4939    8.1586 O   0  0  0  0  0  0  0  0  0  0  0  0
   38.3999    4.4428    9.0529 C   0  0  0  0  0  0  0  0  0  0  0  0
   38.2546    5.4550   10.1794 C   0  0  0  0  0  0  0  0  0  0  0  0
   36.4215    9.2605    3.2414 C   0  0  1  0  0  0  0  0  0  0  0  0
   37.0961    5.2138   11.0631 N   0  0  0  0  0  0  0  0  0  0  0  0
   35.0864    8.9911    2.8216 O   0  0  0  0  0  0  0  0  0  0  0  0
   40.4834    6.5698    4.3561 C   0  0  2  0  0  0  0  0  0  0  0  0
   41.1674    7.3991    3.3719 N   0  0  0  0  0  0  0  0  0  0  0  0
   37.0472    2.7280   11.1983 C   0  0  0  0  0  0  0  0  0  0  0  0
   38.3035    1.8281   11.3988 C   0  0  0  0  0  0  0  0  0  0  0  0
   37.1117    4.0570   11.9953 C   0  0  0  0  0  0  0  0  0  0  0  0
   39.5487    2.4934   10.9107 N   0  0  0  0  0  0  0  0  0  0  0  0
   43.8160    5.5101    6.4938 O   0  0  0  0  0  0  0  0  0  0  0  0
   36.8512   10.6931    2.8670 C   0  0  2  0  0  0  0  0  0  0  0  0
   36.7624   10.9408    1.4661 O   0  0  0  0  0  0  0  0  0  0  0  0
   39.7684    7.4825    5.3323 C   0  0  2  0  0  0  0  0  0  0  0  0
   38.2885   10.9760    3.3400 C   0  0  2  0  0  0  0  0  0  0  0  0
   38.4256   10.7222    4.7425 O   0  0  0  0  0  0  0  0  0  0  0  0
   38.9942    6.6172    6.4077 C   0  0  2  0  0  0  0  0  0  0  0  0
   38.3301    7.5218    7.3452 O   0  0  0  0  0  0  0  0  0  0  0  0
   38.7015   12.3961    3.0589 C   0  0  0  0  0  0  0  0  0  0  0  0
   40.0650   12.5359    3.1876 O   0  0  0  0  0  0  0  0  0  0  0  0
   40.0245    5.7130    7.1655 C   0  0  1  0  0  0  0  0  0  0  0  0
   39.4096    4.9205    8.1391 O   0  0  0  0  0  0  0  0  0  0  0  0
  1  2  1  6  0  0  0
  1  5  1  0  0  0  0
  1 30  1  0  0  0  0
  3  4  1  1  0  0  0
  3  7  1  0  0  0  0
  3 35  1  0  0  0  0
  5  6  1  6  0  0  0
  5 16  1  0  0  0  0
  7 19  1  0  0  0  0
  8  4  1  0  0  0  0
  8 25  2  0  0  0  0
  9  8  1  6  0  0  0
  9 10  1  0  0  0  0
  9 13  1  0  0  0  0
 10 11  1  0  0  0  0
 11 12  1  0  0  0  0
 14 15  1  0  0  0  0
 14 36  1  0  0  0  0
 15 17  1  0  0  0  0
 16 18  1  1  0  0  0
 16 26  1  0  0  0  0
 17 23  1  0  0  0  0
 19 20  1  6  0  0  0
 19 28  1  0  0  0  0
 21 22  1  0  0  0  0
 21 23  1  0  0  0  0
 22 24  1  0  0  0  0
 26 27  1  6  0  0  0
 26 29  1  0  0  0  0
 28  2  1  6  0  0  0
 28 31  1  0  0  0  0
 29 30  1  0  0  0  0
 29 33  1  1  0  0  0
 31 32  1  1  0  0  0
 31 35  1  0  0  0  0
 33 34  1  0  0  0  0
 35 36  1  1  0  0  0
M  END
>  <CHROM.1>
-123.38148273,23.92822067,78.14244709,60.99155417,-73.68206467,169.99203051
-69.82934421,71.10893167,-68.04399622,-62.34102882,117.83617513,-178.68783189
-165.53597311,-137.43731991,39.63011762,6.51659920,6.27051085,1.98676406
0.42347992,-0.83469129

>  <Name>
2f4u_lig

>  <RI>
0

>  <Rbt.Current_Directory>
/home/itssahil/PROJECTS/Mol_Feturizer/New_Systems/rnas/2f4u

>  <Rbt.Executable>
rbdock ($Id: //depot/dev/client3/rdock/2013.1/src/exe/rbdock.cxx#4 $)

>  <Rbt.Library>
libRbt.so (2013.1, Build901 2013/11/27)

>  <Rbt.Parameter_File>
/export/apps/rDock/src/rDock_2013.1_src/data/scripts/dock_solv.prm

>  <Rbt.Receptor>
prm/pocket_docking_2.prm

>  <SCORE>
-1.94652

>  <SCORE.INTER>
-8.82413

>  <SCORE.INTER.CONST>
1

>  <SCORE.INTER.POLAR>
-1.20802

>  <SCORE.INTER.ROT>
14

>  <SCORE.INTER.SOLV>
15.1874

>  <SCORE.INTER.VDW>
-19.8518

>  <SCORE.INTER.norm>
-0.245115

>  <SCORE.INTRA>
5.91894

>  <SCORE.INTRA.DIHEDRAL>
-3.47578

>  <SCORE.INTRA.DIHEDRAL.0>
26.3805

>  <SCORE.INTRA.POLAR>
0

>  <SCORE.INTRA.POLAR.0>
0

>  <SCORE.INTRA.REPUL>
0.000835142

>  <SCORE.INTRA.REPUL.0>
0

>  <SCORE.INTRA.SOLV>
9.79642

>  <SCORE.INTRA.SOLV.lig_0>
-98.5587

>  <SCORE.INTRA.VDW>
2.75445

>  <SCORE.INTRA.VDW.0>
-2.91167

>  <SCORE.INTRA.norm>
0.164415

>  <SCORE.RESTR>
0.958666

>  <SCORE.RESTR.CAVITY>
0.958666

>  <SCORE.RESTR.norm>
0.0266296

>  <SCORE.SYSTEM>
0

>  <SCORE.SYSTEM.CONST>
0

>  <SCORE.SYSTEM.DIHEDRAL>
0

>  <SCORE.SYSTEM.SOLV>
0

>  <SCORE.SYSTEM.norm>
0

>  <SCORE.heavy>
36

>  <SCORE.norm>
-0.0540701

>  <RMSD>
2.053

$$$$
2f4u_lig
 OpenBabel11021811433D
libRbt.so/2013.1/901 2013/11/27
 36 37  0  0  0  0  0  0  0  0999 V2000
   38.3605    8.8409    5.1641 C   0  0  2  0  0  0  0  0  0  0  0  0
   39.0362    7.7462    4.4410 O   0  0  0  0  0  0  0  0  0  0  0  0
   42.0996    4.9377    5.7152 C   0  0  2  0  0  0  0  0  0  0  0  0
   43.4317    4.4173    6.1269 N   0  0  0  0  0  0  0  0  0  0  0  0
   36.8860    8.8711    4.6549 C   0  0  2  0  0  0  0  0  0  0  0  0
   36.1819    7.5947    4.8770 N   0  0  0  0  0  0  0  0  0  0  0  0
   42.1439    5.5821    4.2849 C   0  0  0  0  0  0  0  0  0  0  0  0
   44.7367    5.5384    5.6502 C   0  0  0  0  0  0  0  0  0  0  0  0
   45.6495    4.4580    6.1394 C   0  0  1  0  0  0  0  0  0  0  0  0
   46.9766    4.6113    5.3880 C   0  0  0  0  0  0  0  0  0  0  0  0
   46.9099    4.4176    3.8618 C   0  0  0  0  0  0  0  0  0  0  0  0
   46.5506    3.0256    3.5842 N   0  0  0  0  0  0  0  0  0  0  0  0
   45.9132    4.6261    7.5057 O   0  0  0  0  0  0  0  0  0  0  0  0
   42.1281    4.6756    9.1548 C   0  0  0  0  0  0  0  0  0  0  0  0
   40.9682    4.4919   10.1221 C   0  0  0  0  0  0  0  0  0  0  0  0
   36.8855    9.2264    3.1310 C   0  0  1  0  0  0  0  0  0  0  0  0
   40.7099    5.6620   10.9853 N   0  0  0  0  0  0  0  0  0  0  0  0
   35.5580    9.2561    2.6131 O   0  0  0  0  0  0  0  0  0  0  0  0
   40.7725    6.1674    3.8908 C   0  0  2  0  0  0  0  0  0  0  0  0
   40.8257    6.8057    2.5816 N   0  0  0  0  0  0  0  0  0  0  0  0
   39.1155    6.8667   12.4708 C   0  0  0  0  0  0  0  0  0  0  0  0
   37.6454    7.3235   12.7125 C   0  0  0  0  0  0  0  0  0  0  0  0
   39.3343    6.2154   11.0802 C   0  0  0  0  0  0  0  0  0  0  0  0
   36.6835    6.1861   12.6020 N   0  0  0  0  0  0  0  0  0  0  0  0
   44.7977    6.5032    5.1738 O   0  0  0  0  0  0  0  0  0  0  0  0
   37.5895   10.5866    2.9538 C   0  0  2  0  0  0  0  0  0  0  0  0
   37.6487   10.9968    1.5900 O   0  0  0  0  0  0  0  0  0  0  0  0
   40.3280    7.2012    4.9060 C   0  0  2  0  0  0  0  0  0  0  0  0
   39.0158   10.5455    3.5314 C   0  0  2  0  0  0  0  0  0  0  0  0
   39.0027   10.1201    4.8985 O   0  0  0  0  0  0  0  0  0  0  0  0
   40.2373    6.5401    6.3410 C   0  0  2  0  0  0  0  0  0  0  0  0
   39.8248    7.5626    7.3014 O   0  0  0  0  0  0  0  0  0  0  0  0
   39.6943   11.8864    3.4444 C   0  0  0  0  0  0  0  0  0  0  0  0
   39.9698   12.2030    2.1333 O   0  0  0  0  0  0  0  0  0  0  0  0
   41.6456    5.9726    6.7257 C   0  0  1  0  0  0  0  0  0  0  0  0
   41.6426    5.3751    7.9895 O   0  0  0  0  0  0  0  0  0  0  0  0
  1  2  1  6  0  0  0
  1  5  1  0  0  0  0
  1 30  1  0  0  0  0
  3  4  1  1  0  0  0
  3  7  1  0  0  0  0
  3 35  1  0  0  0  0
  5  6  1  6  0  0  0
  5 16  1  0  0  0  0
  7 19  1  0  0  0  0
  8  4  1  0  0  0  0
  8 25  2  0  0  0  0
  9  8  1  6  0  0  0
  9 10  1  0  0  0  0
  9 13  1  0  0  0  0
 10 11  1  0  0  0  0
 11 12  1  0  0  0  0
 14 15  1  0  0  0  0
 14 36  1  0  0  0  0
 15 17  1  0  0  0  0
 16 18  1  1  0  0  0
 16 26  1  0  0  0  0
 17 23  1  0  0  0  0
 19 20  1  6  0  0  0
 19 28  1  0  0  0  0
 21 22  1  0  0  0  0
 21 23  1  0  0  0  0
 22 24  1  0  0  0  0
 26 27  1  6  0  0  0
 26 29  1  0  0  0  0
 28  2  1  6  0  0  0
 28 31  1  0  0  0  0
 29 30  1  0  0  0  0
 29 33  1  1  0  0  0
 31 32  1  1  0  0  0
 31 35  1  0  0  0  0
 33 34  1  0  0  0  0
 35 36  1  1  0  0  0
M  END
>  <CHROM.1>
-164.12198500,40.83083373,153.98211377,-63.14086613,-65.54683977,-83.36403611
-177.27311052,129.00092972,150.62525682,58.72390693,-173.26606653,-176.32608125
-69.22799561,56.28875442,40.73584733,7.06620526,5.97898316,2.53130653,0.50221253
-1.18303345

>  <Name>
2f4u_lig

>  <RI>
0

>  <Rbt.Current_Directory>
/home/itssahil/PROJECTS/Mol_Feturizer/New_Systems/rnas/2f4u

>  <Rbt.Executable>
rbdock ($Id: //depot/dev/client3/rdock/2013.1/src/exe/rbdock.cxx#4 $)

>  <Rbt.Library>
libRbt.so (2013.1, Build901 2013/11/27)

>  <Rbt.Parameter_File>
/export/apps/rDock/src/rDock_2013.1_src/data/scripts/dock_solv.prm

>  <Rbt.Receptor>
prm/pocket_docking_4.prm

>  <SCORE>
-24.4899

>  <SCORE.INTER>
-15.1818

>  <SCORE.INTER.CONST>
1

>  <SCORE.INTER.POLAR>
-1.85158

>  <SCORE.INTER.ROT>
14

>  <SCORE.INTER.SOLV>
13.9371

>  <SCORE.INTER.VDW>
-21.5283

>  <SCORE.INTER.norm>
-0.421715

>  <SCORE.INTRA>
-9.30819

>  <SCORE.INTRA.DIHEDRAL>
-19.2224

>  <SCORE.INTRA.DIHEDRAL.0>
26.3805

>  <SCORE.INTRA.POLAR>
0

>  <SCORE.INTRA.POLAR.0>
0

>  <SCORE.INTRA.REPUL>
0

>  <SCORE.INTRA.REPUL.0>
0

>  <SCORE.INTRA.SOLV>
1.8586

>  <SCORE.INTRA.SOLV.lig_0>
-98.5587

>  <SCORE.INTRA.VDW>
-0.626312

>  <SCORE.INTRA.VDW.0>
-2.91167

>  <SCORE.INTRA.norm>
-0.258561

>  <SCORE.RESTR>
0

>  <SCORE.RESTR.CAVITY>
0

>  <SCORE.RESTR.norm>
0

>  <SCORE.SYSTEM>
0

>  <SCORE.SYSTEM.CONST>
0

>  <SCORE.SYSTEM.DIHEDRAL>
0

>  <SCORE.SYSTEM.SOLV>
0

>  <SCORE.SYSTEM.norm>
0

>  <SCORE.heavy>
36

>  <SCORE.norm>
-0.680276

>  <RMSD>
2.106

$$$$
2f4u_lig
 OpenBabel11021811433D
libRbt.so/2013.1/901 2013/11/27
 36 37  0  0  0  0  0  0  0  0999 V2000
   37.3094    8.7085    5.7388 C   0  0  2  0  0  0  0  0  0  0  0  0
   37.8480    7.4330    5.2280 O   0  0  0  0  0  0  0  0  0  0  0  0
   41.3700    5.1900    6.4363 C   0  0  2  0  0  0  0  0  0  0  0  0
   42.8022    4.8132    6.5831 N   0  0  0  0  0  0  0  0  0  0  0  0
   35.8308    8.7985    5.2493 C   0  0  2  0  0  0  0  0  0  0  0  0
   35.0078    7.6676    5.7161 N   0  0  0  0  0  0  0  0  0  0  0  0
   40.9390    5.2601    4.9288 C   0  0  0  0  0  0  0  0  0  0  0  0
   43.8606    5.9474    5.6996 C   0  0  0  0  0  0  0  0  0  0  0  0
   44.9544    4.9989    6.0789 C   0  0  1  0  0  0  0  0  0  0  0  0
   46.1693    5.3364    5.2075 C   0  0  0  0  0  0  0  0  0  0  0  0
   47.3818    4.3986    5.3544 C   0  0  0  0  0  0  0  0  0  0  0  0
   47.0184    3.0814    4.8283 N   0  0  0  0  0  0  0  0  0  0  0  0
   45.3242    5.1934    7.4167 O   0  0  0  0  0  0  0  0  0  0  0  0
   41.7169    5.9282    9.7601 C   0  0  0  0  0  0  0  0  0  0  0  0
   40.3399    5.5488   10.2841 C   0  0  0  0  0  0  0  0  0  0  0  0
   35.8196    8.8612    3.6858 C   0  0  1  0  0  0  0  0  0  0  0  0
   39.7995    4.2984    9.7137 N   0  0  0  0  0  0  0  0  0  0  0  0
   34.4867    8.9337    3.1862 O   0  0  0  0  0  0  0  0  0  0  0  0
   39.4692    5.7049    4.7859 C   0  0  2  0  0  0  0  0  0  0  0  0
   39.0828    5.8137    3.3848 N   0  0  0  0  0  0  0  0  0  0  0  0
   39.4305    1.8513    9.9889 C   0  0  0  0  0  0  0  0  0  0  0  0
   38.4040    1.9194   11.1594 C   0  0  0  0  0  0  0  0  0  0  0  0
   40.4666    3.0053   10.0145 C   0  0  0  0  0  0  0  0  0  0  0  0
   37.5113    3.1119   11.0486 N   0  0  0  0  0  0  0  0  0  0  0  0
   43.7257    6.8461    5.1204 O   0  0  0  0  0  0  0  0  0  0  0  0
   36.6524   10.0825    3.2473 C   0  0  2  0  0  0  0  0  0  0  0  0
   36.7111   10.2224    1.8300 O   0  0  0  0  0  0  0  0  0  0  0  0
   39.2595    7.0545    5.4431 C   0  0  2  0  0  0  0  0  0  0  0  0
   38.0841    9.9996    3.8066 C   0  0  2  0  0  0  0  0  0  0  0  0
   38.0698    9.8406    5.2295 O   0  0  0  0  0  0  0  0  0  0  0  0
   39.6491    6.9720    6.9747 C   0  0  2  0  0  0  0  0  0  0  0  0
   39.4547    8.2898    7.5779 O   0  0  0  0  0  0  0  0  0  0  0  0
   38.8924   11.2215    3.4606 C   0  0  0  0  0  0  0  0  0  0  0  0
   39.0627   11.3167    2.0978 O   0  0  0  0  0  0  0  0  0  0  0  0
   41.1498    6.5391    7.0917 C   0  0  1  0  0  0  0  0  0  0  0  0
   41.5674    6.4498    8.4229 O   0  0  0  0  0  0  0  0  0  0  0  0
  1  2  1  6  0  0  0
  1  5  1  0  0  0  0
  1 30  1  0  0  0  0
  3  4  1  6  0  0  0
  3  7  1  0  0  0  0
  3 35  1  0  0  0  0
  5  6  1  6  0  0  0
  5 16  1  0  0  0  0
  7 19  1  0  0  0  0
  8  4  1  0  0  0  0
  8 25  2  0  0  0  0
  9  8  1  6  0  0  0
  9 10  1  0  0  0  0
  9 13  1  0  0  0  0
 10 11  1  0  0  0  0
 11 12  1  0  0  0  0
 14 15  1  0  0  0  0
 14 36  1  0  0  0  0
 15 17  1  0  0  0  0
 16 18  1  1  0  0  0
 16 26  1  0  0  0  0
 17 23  1  0  0  0  0
 19 20  1  6  0  0  0
 19 28  1  0  0  0  0
 21 22  1  0  0  0  0
 21 23  1  0  0  0  0
 22 24  1  0  0  0  0
 26 27  1  6  0  0  0
 26 29  1  0  0  0  0
 28  2  1  1  0  0  0
 28 31  1  0  0  0  0
 29 30  1  0  0  0  0
 29 33  1  1  0  0  0
 31 32  1  6  0  0  0
 31 35  1  0  0  0  0
 33 34  1  0  0  0  0
 35 36  1  1  0  0  0
M  END
>  <CHROM.1>
176.59241959,56.78089926,165.14012524,-175.16932273,67.30394663,75.35426275
-48.23609627,66.04600255,150.53244319,66.42919593,-68.38267925,-179.61887874
-64.18697454,-46.93832633,40.11807147,6.61469774,6.14432167,2.39323176,0.24038633
-0.88448355

>  <Name>
2f4u_lig

>  <RI>
0

>  <Rbt.Current_Directory>
/home/itssahil/PROJECTS/Mol_Feturizer/New_Systems/rnas/2f4u

>  <Rbt.Executable>
rbdock ($Id: //depot/dev/client3/rdock/2013.1/src/exe/rbdock.cxx#4 $)

>  <Rbt.Library>
libRbt.so (2013.1, Build901 2013/11/27)

>  <Rbt.Parameter_File>
/export/apps/rDock/src/rDock_2013.1_src/data/scripts/dock_solv.prm

>  <Rbt.Receptor>
prm/pocket_docking_4.prm

>  <SCORE>
-28.9727

>  <SCORE.INTER>
-19.3334

>  <SCORE.INTER.CONST>
1

>  <SCORE.INTER.POLAR>
-1.87052

>  <SCORE.INTER.ROT>
14

>  <SCORE.INTER.SOLV>
13.3259

>  <SCORE.INTER.VDW>
-24.0291

>  <SCORE.INTER.norm>
-0.537039

>  <SCORE.INTRA>
-9.63931

>  <SCORE.INTRA.DIHEDRAL>
-21.6396

>  <SCORE.INTRA.DIHEDRAL.0>
26.3805

>  <SCORE.INTRA.POLAR>
0

>  <SCORE.INTRA.POLAR.0>
0

>  <SCORE.INTRA.REPUL>
0

>  <SCORE.INTRA.REPUL.0>
0

>  <SCORE.INTRA.SOLV>
4.75548

>  <SCORE.INTRA.SOLV.lig_0>
-98.5587

>  <SCORE.INTRA.VDW>
-1.19726

>  <SCORE.INTRA.VDW.0>
-2.91167

>  <SCORE.INTRA.norm>
-0.267759

>  <SCORE.RESTR>
0

>  <SCORE.RESTR.CAVITY>
0

>  <SCORE.RESTR.norm>
0

>  <SCORE.SYSTEM>
0

>  <SCORE.SYSTEM.CONST>
0

>  <SCORE.SYSTEM.DIHEDRAL>
0

>  <SCORE.SYSTEM.SOLV>
0

>  <SCORE.SYSTEM.norm>
0

>  <SCORE.heavy>
36

>  <SCORE.norm>
-0.804797

>  <RMSD>
2.132

$$$$
2f4u_lig
 OpenBabel11021811433D
libRbt.so/2013.1/901 2013/11/27
 36 37  0  0  0  0  0  0  0  0999 V2000
   37.8107    9.0678    5.2228 C   0  0  2  0  0  0  0  0  0  0  0  0
   38.2785    7.7919    4.6474 O   0  0  0  0  0  0  0  0  0  0  0  0
   41.1276    4.9714    6.3276 C   0  0  2  0  0  0  0  0  0  0  0  0
   42.4325    4.3558    6.6922 N   0  0  0  0  0  0  0  0  0  0  0  0
   36.2876    9.1725    4.9014 C   0  0  2  0  0  0  0  0  0  0  0  0
   35.5123    8.0446    5.4499 N   0  0  0  0  0  0  0  0  0  0  0  0
   40.9736    5.1300    4.7738 C   0  0  0  0  0  0  0  0  0  0  0  0
   43.7791    5.1327    5.8144 C   0  0  0  0  0  0  0  0  0  0  0  0
   44.6157    4.0585    6.4355 C   0  0  1  0  0  0  0  0  0  0  0  0
   45.6983    3.6819    5.4179 C   0  0  0  0  0  0  0  0  0  0  0  0
   46.7532    4.7657    5.1282 C   0  0  0  0  0  0  0  0  0  0  0  0
   47.6944    4.2458    4.1343 N   0  0  0  0  0  0  0  0  0  0  0  0
   45.2604    4.5456    7.5807 O   0  0  0  0  0  0  0  0  0  0  0  0
   41.7101    5.6392    9.6112 C   0  0  0  0  0  0  0  0  0  0  0  0
   41.0215    4.3139    9.9012 C   0  0  0  0  0  0  0  0  0  0  0  0
   36.1031    9.2463    3.3493 C   0  0  1  0  0  0  0  0  0  0  0  0
   41.6157    3.1579    9.2000 N   0  0  0  0  0  0  0  0  0  0  0  0
   34.7236    9.3323    3.0016 O   0  0  0  0  0  0  0  0  0  0  0  0
   39.6427    5.8190    4.4096 C   0  0  2  0  0  0  0  0  0  0  0  0
   39.5206    6.0070    2.9694 N   0  0  0  0  0  0  0  0  0  0  0  0
   39.7582    2.3020    7.7797 C   0  0  0  0  0  0  0  0  0  0  0  0
   38.4842    3.0323    8.3010 C   0  0  0  0  0  0  0  0  0  0  0  0
   40.7761    1.9689    8.9016 C   0  0  0  0  0  0  0  0  0  0  0  0
   37.4649    3.2113    7.2238 N   0  0  0  0  0  0  0  0  0  0  0  0
   43.8858    5.9493    5.1192 O   0  0  0  0  0  0  0  0  0  0  0  0
   36.8920   10.4642    2.8284 C   0  0  2  0  0  0  0  0  0  0  0  0
   36.7939   10.6137    1.4142 O   0  0  0  0  0  0  0  0  0  0  0  0
   39.5516    7.1773    5.0758 C   0  0  2  0  0  0  0  0  0  0  0  0
   38.3763   10.3666    3.2243 C   0  0  2  0  0  0  0  0  0  0  0  0
   38.5191   10.1977    4.6389 O   0  0  0  0  0  0  0  0  0  0  0  0
   39.6592    7.0134    6.6461 C   0  0  2  0  0  0  0  0  0  0  0  0
   39.5867    8.3383    7.2604 O   0  0  0  0  0  0  0  0  0  0  0  0
   39.1512   11.5847    2.7980 C   0  0  0  0  0  0  0  0  0  0  0  0
   40.4831   11.4446    3.1168 O   0  0  0  0  0  0  0  0  0  0  0  0
   41.0264    6.3311    6.9903 C   0  0  1  0  0  0  0  0  0  0  0  0
   41.1938    6.1579    8.3674 O   0  0  0  0  0  0  0  0  0  0  0  0
  1  2  1  6  0  0  0
  1  5  1  0  0  0  0
  1 30  1  0  0  0  0
  3  4  1  6  0  0  0
  3  7  1  0  0  0  0
  3 35  1  0  0  0  0
  5  6  1  6  0  0  0
  5 16  1  0  0  0  0
  7 19  1  0  0  0  0
  8  4  1  0  0  0  0
  8 25  2  0  0  0  0
  9  8  1  6  0  0  0
  9 10  1  0  0  0  0
  9 13  1  0  0  0  0
 10 11  1  0  0  0  0
 11 12  1  0  0  0  0
 14 15  1  0  0  0  0
 14 36  1  0  0  0  0
 15 17  1  0  0  0  0
 16 18  1  1  0  0  0
 16 26  1  0  0  0  0
 17 23  1  0  0  0  0
 19 20  1  6  0  0  0
 19 28  1  0  0  0  0
 21 22  1  0  0  0  0
 21 23  1  0  0  0  0
 22 24  1  0  0  0  0
 26 27  1  6  0  0  0
 26 29  1  0  0  0  0
 28  2  1  1  0  0  0
 28 31  1  0  0  0  0
 29 30  1  0  0  0  0
 29 33  1  1  0  0  0
 31 32  1  1  0  0  0
 31 35  1  0  0  0  0
 33 34  1  0  0  0  0
 35 36  1  1  0  0  0
M  END
>  <CHROM.1>
-162.34944585,47.03424488,145.13003004,67.49656093,-179.51046827,82.49156932
-80.69802005,-153.89559187,71.50650253,-174.07665255,-82.25169248,173.72420747
-177.56129979,38.48876896,40.33243738,6.56058415,5.67505600,2.34383484,0.19612912
-0.73734580

>  <Name>
2f4u_lig

>  <RI>
0

>  <Rbt.Current_Directory>
/home/itssahil/PROJECTS/Mol_Feturizer/New_Systems/rnas/2f4u

>  <Rbt.Executable>
rbdock ($Id: //depot/dev/client3/rdock/2013.1/src/exe/rbdock.cxx#4 $)

>  <Rbt.Library>
libRbt.so (2013.1, Build901 2013/11/27)

>  <Rbt.Parameter_File>
/export/apps/rDock/src/rDock_2013.1_src/data/scripts/dock_solv.prm

>  <Rbt.Receptor>
prm/pocket_docking_6.prm

>  <SCORE>
-20.2095

>  <SCORE.INTER>
-12.3344

>  <SCORE.INTER.CONST>
1

>  <SCORE.INTER.POLAR>
-1.95217

>  <SCORE.INTER.ROT>
14

>  <SCORE.INTER.SOLV>
15.3691

>  <SCORE.INTER.VDW>
-19.7721

>  <SCORE.INTER.norm>
-0.342623

>  <SCORE.INTRA>
-7.87513

>  <SCORE.INTRA.DIHEDRAL>
-14.5969

>  <SCORE.INTRA.DIHEDRAL.0>
26.3805

>  <SCORE.INTRA.POLAR>
0

>  <SCORE.INTRA.POLAR.0>
0

>  <SCORE.INTRA.REPUL>
0.0325484

>  <SCORE.INTRA.REPUL.0>
0

>  <SCORE.INTRA.SOLV>
2.1674

>  <SCORE.INTRA.SOLV.lig_0>
-98.5587

>  <SCORE.INTRA.VDW>
-1.82311

>  <SCORE.INTRA.VDW.0>
-2.91167

>  <SCORE.INTRA.norm>
-0.218754

>  <SCORE.RESTR>
0

>  <SCORE.RESTR.CAVITY>
0

>  <SCORE.RESTR.norm>
0

>  <SCORE.SYSTEM>
0

>  <SCORE.SYSTEM.CONST>
0

>  <SCORE.SYSTEM.DIHEDRAL>
0

>  <SCORE.SYSTEM.SOLV>
0

>  <SCORE.SYSTEM.norm>
0

>  <SCORE.heavy>
36

>  <SCORE.norm>
-0.561376

>  <RMSD>
2.276

$$$$
2f4u_lig
 OpenBabel11021811433D
libRbt.so/2013.1/901 2013/11/27
 36 37  0  0  0  0  0  0  0  0999 V2000
   37.4411   10.1830    4.3071 C   0  0  2  0  0  0  0  0  0  0  0  0
   38.3662    9.0949    3.9359 O   0  0  0  0  0  0  0  0  0  0  0  0
   40.7853    6.2910    6.2123 C   0  0  2  0  0  0  0  0  0  0  0  0
   41.8200    5.7851    7.1547 N   0  0  0  0  0  0  0  0  0  0  0  0
   36.3346   10.2251    3.2080 C   0  0  2  0  0  0  0  0  0  0  0  0
   35.6066    8.9487    3.0855 N   0  0  0  0  0  0  0  0  0  0  0  0
   41.4179    7.1484    5.0600 C   0  0  0  0  0  0  0  0  0  0  0  0
   42.9302    4.6472    6.3424 C   0  0  0  0  0  0  0  0  0  0  0  0
   43.4936    4.4407    7.7134 C   0  0  1  0  0  0  0  0  0  0  0  0
   43.1946    2.9913    8.1126 C   0  0  0  0  0  0  0  0  0  0  0  0
   41.7106    2.6516    8.3444 C   0  0  0  0  0  0  0  0  0  0  0  0
   41.2260    3.4342    9.4830 N   0  0  0  0  0  0  0  0  0  0  0  0
   44.8862    4.5975    7.6954 O   0  0  0  0  0  0  0  0  0  0  0  0
   38.6218    5.2403    8.6789 C   0  0  0  0  0  0  0  0  0  0  0  0
   38.4610    5.5867   10.1516 C   0  0  0  0  0  0  0  0  0  0  0  0
   36.9960   10.5992    1.8401 C   0  0  1  0  0  0  0  0  0  0  0  0
   37.6841    4.5964   10.9241 N   0  0  0  0  0  0  0  0  0  0  0  0
   36.0257   10.6403    0.7969 O   0  0  0  0  0  0  0  0  0  0  0  0
   40.3329    7.7135    4.1209 C   0  0  2  0  0  0  0  0  0  0  0  0
   40.9172    8.5469    3.0777 N   0  0  0  0  0  0  0  0  0  0  0  0
   35.6789    3.9581   12.2551 C   0  0  0  0  0  0  0  0  0  0  0  0
   34.5334    4.4329   13.1989 C   0  0  0  0  0  0  0  0  0  0  0  0
   36.7302    5.0607   11.9643 C   0  0  0  0  0  0  0  0  0  0  0  0
   33.7234    5.5273   12.5846 N   0  0  0  0  0  0  0  0  0  0  0  0
   43.0574    4.2648    5.3429 O   0  0  0  0  0  0  0  0  0  0  0  0
   37.7043   11.9589    2.0040 C   0  0  2  0  0  0  0  0  0  0  0  0
   38.3498   12.3858    0.8070 O   0  0  0  0  0  0  0  0  0  0  0  0
   39.3435    8.5545    4.9027 C   0  0  2  0  0  0  0  0  0  0  0  0
   38.7377   11.9052    3.1437 C   0  0  2  0  0  0  0  0  0  0  0  0
   38.1323   11.4630    4.3636 O   0  0  0  0  0  0  0  0  0  0  0  0
   38.6701    7.6774    6.0348 C   0  0  2  0  0  0  0  0  0  0  0  0
   37.7359    8.5172    6.7831 O   0  0  0  0  0  0  0  0  0  0  0  0
   39.3838   13.2446    3.3776 C   0  0  0  0  0  0  0  0  0  0  0  0
   40.1989   13.5778    2.3194 O   0  0  0  0  0  0  0  0  0  0  0  0
   39.7897    7.1332    6.9854 C   0  0  1  0  0  0  0  0  0  0  0  0
   39.2657    6.3498    8.0179 O   0  0  0  0  0  0  0  0  0  0  0  0
  1  2  1  6  0  0  0
  1  5  1  0  0  0  0
  1 30  1  0  0  0  0
  3  4  1  1  0  0  0
  3  7  1  0  0  0  0
  3 35  1  0  0  0  0
  5  6  1  6  0  0  0
  5 16  1  0  0  0  0
  7 19  1  0  0  0  0
  8  4  1  0  0  0  0
  8 25  2  0  0  0  0
  9  8  1  6  0  0  0
  9 10  1  0  0  0  0
  9 13  1  0  0  0  0
 10 11  1  0  0  0  0
 11 12  1  0  0  0  0
 14 15  1  0  0  0  0
 14 36  1  0  0  0  0
 15 17  1  0  0  0  0
 16 18  1  6  0  0  0
 16 26  1  0  0  0  0
 17 23  1  0  0  0  0
 19 20  1  6  0  0  0
 19 28  1  0  0  0  0
 21 22  1  0  0  0  0
 21 23  1  0  0  0  0
 22 24  1  0  0  0  0
 26 27  1  6  0  0  0
 26 29  1  0  0  0  0
 28  2  1  6  0  0  0
 28 31  1  0  0  0  0
 29 30  1  0  0  0  0
 29 33  1  1  0  0  0
 31 32  1  1  0  0  0
 31 35  1  0  0  0  0
 33 34  1  0  0  0  0
 35 36  1  1  0  0  0
M  END
>  <CHROM.1>
-165.13865295,-64.70298252,114.27223784,-67.91445217,-63.78524312,173.79898769
-174.50292500,-140.76783473,158.84866067,63.69784535,-172.53418633,-166.64191172
-69.08515308,-54.81181028,39.14829836,7.51815433,6.20430989,1.67674484,0.40090175
-0.86496450

>  <Name>
2f4u_lig

>  <RI>
0

>  <Rbt.Current_Directory>
/home/itssahil/PROJECTS/Mol_Feturizer/New_Systems/rnas/2f4u

>  <Rbt.Executable>
rbdock ($Id: //depot/dev/client3/rdock/2013.1/src/exe/rbdock.cxx#4 $)

>  <Rbt.Library>
libRbt.so (2013.1, Build901 2013/11/27)

>  <Rbt.Parameter_File>
/export/apps/rDock/src/rDock_2013.1_src/data/scripts/dock_solv.prm

>  <Rbt.Receptor>
prm/pocket_docking_3.prm

>  <SCORE>
-23.707

>  <SCORE.INTER>
-14.2456

>  <SCORE.INTER.CONST>
1

>  <SCORE.INTER.POLAR>
-1.75551

>  <SCORE.INTER.ROT>
14

>  <SCORE.INTER.SOLV>
21.5227

>  <SCORE.INTER.VDW>
-23.7529

>  <SCORE.INTER.norm>
-0.39571

>  <SCORE.INTRA>
-9.46147

>  <SCORE.INTRA.DIHEDRAL>
-19.5461

>  <SCORE.INTRA.DIHEDRAL.0>
26.3805

>  <SCORE.INTRA.POLAR>
0

>  <SCORE.INTRA.POLAR.0>
0

>  <SCORE.INTRA.REPUL>
0

>  <SCORE.INTRA.REPUL.0>
0

>  <SCORE.INTRA.SOLV>
4.28538

>  <SCORE.INTRA.SOLV.lig_0>
-98.5587

>  <SCORE.INTRA.VDW>
-1.83111

>  <SCORE.INTRA.VDW.0>
-2.91167

>  <SCORE.INTRA.norm>
-0.262819

>  <SCORE.RESTR>
0

>  <SCORE.RESTR.CAVITY>
0

>  <SCORE.RESTR.norm>
0

>  <SCORE.SYSTEM>
0

>  <SCORE.SYSTEM.CONST>
0

>  <SCORE.SYSTEM.DIHEDRAL>
0

>  <SCORE.SYSTEM.SOLV>
0

>  <SCORE.SYSTEM.norm>
0

>  <SCORE.heavy>
36

>  <SCORE.norm>
-0.658529

>  <RMSD>
2.290

$$$$
2f4u_lig
 OpenBabel11021811433D
libRbt.so/2013.1/901 2013/11/27
 36 37  0  0  0  0  0  0  0  0999 V2000
   37.1683    8.7855    5.7658 C   0  0  2  0  0  0  0  0  0  0  0  0
   37.7164    7.4977    5.2977 O   0  0  0  0  0  0  0  0  0  0  0  0
   41.2149    5.1500    6.3673 C   0  0  2  0  0  0  0  0  0  0  0  0
   42.6443    4.7866    6.5665 N   0  0  0  0  0  0  0  0  0  0  0  0
   35.7113    8.8787    5.2159 C   0  0  2  0  0  0  0  0  0  0  0  0
   34.8609    7.7619    5.6675 N   0  0  0  0  0  0  0  0  0  0  0  0
   40.9071    5.4976    4.8681 C   0  0  0  0  0  0  0  0  0  0  0  0
   43.7265    6.0095    5.8450 C   0  0  0  0  0  0  0  0  0  0  0  0
   44.8173    5.0511    6.2078 C   0  0  1  0  0  0  0  0  0  0  0  0
   46.0278    5.3892    5.3304 C   0  0  0  0  0  0  0  0  0  0  0  0
   45.8588    5.1248    3.8229 C   0  0  0  0  0  0  0  0  0  0  0  0
   45.6266    3.6928    3.6243 N   0  0  0  0  0  0  0  0  0  0  0  0
   45.1980    5.2313    7.5445 O   0  0  0  0  0  0  0  0  0  0  0  0
   41.9781    5.6069    9.7103 C   0  0  0  0  0  0  0  0  0  0  0  0
   41.0442    5.4644   10.9029 C   0  0  0  0  0  0  0  0  0  0  0  0
   35.7632    8.9157    3.6523 C   0  0  1  0  0  0  0  0  0  0  0  0
   40.5036    6.7443   11.4036 N   0  0  0  0  0  0  0  0  0  0  0  0
   34.4521    8.9900    3.0985 O   0  0  0  0  0  0  0  0  0  0  0  0
   39.4372    5.9261    4.6822 C   0  0  2  0  0  0  0  0  0  0  0  0
   39.1634    6.2924    3.2983 N   0  0  0  0  0  0  0  0  0  0  0  0
   38.5379    6.0177   12.7482 C   0  0  0  0  0  0  0  0  0  0  0  0
   37.4913    6.5892   11.7451 C   0  0  0  0  0  0  0  0  0  0  0  0
   39.8768    6.8006   12.7495 C   0  0  0  0  0  0  0  0  0  0  0  0
   36.1722    5.8981   11.8624 N   0  0  0  0  0  0  0  0  0  0  0  0
   43.6054    6.9517    5.3360 O   0  0  0  0  0  0  0  0  0  0  0  0
   36.6230   10.1232    3.2280 C   0  0  2  0  0  0  0  0  0  0  0  0
   36.7395   10.2393    1.8121 O   0  0  0  0  0  0  0  0  0  0  0  0
   39.1196    7.1190    5.5615 C   0  0  2  0  0  0  0  0  0  0  0  0
   38.0304   10.0386    3.8456 C   0  0  2  0  0  0  0  0  0  0  0  0
   37.9579    9.9032    5.2692 O   0  0  0  0  0  0  0  0  0  0  0  0
   39.3847    6.7537    7.0783 C   0  0  2  0  0  0  0  0  0  0  0  0
   39.0880    7.9261    7.9002 O   0  0  0  0  0  0  0  0  0  0  0  0
   38.8620   11.2485    3.5126 C   0  0  0  0  0  0  0  0  0  0  0  0
   39.1371   11.2880    2.1643 O   0  0  0  0  0  0  0  0  0  0  0  0
   40.8870    6.3425    7.2439 C   0  0  1  0  0  0  0  0  0  0  0  0
   41.1967    6.0096    8.5658 O   0  0  0  0  0  0  0  0  0  0  0  0
  1  2  1  6  0  0  0
  1  5  1  0  0  0  0
  1 30  1  0  0  0  0
  3  4  1  6  0  0  0
  3  7  1  0  0  0  0
  3 35  1  0  0  0  0
  5  6  1  6  0  0  0
  5 16  1  0  0  0  0
  7 19  1  0  0  0  0
  8  4  1  0  0  0  0
  8 25  2  0  0  0  0
  9  8  1  6  0  0  0
  9 10  1  0  0  0  0
  9 13  1  0  0  0  0
 10 11  1  0  0  0  0
 11 12  1  0  0  0  0
 14 15  1  0  0  0  0
 14 36  1  0  0  0  0
 15 17  1  0  0  0  0
 16 18  1  6  0  0  0
 16 26  1  0  0  0  0
 17 23  1  0  0  0  0
 19 20  1  6  0  0  0
 19 28  1  0  0  0  0
 21 22  1  0  0  0  0
 21 23  1  0  0  0  0
 22 24  1  0  0  0  0
 26 27  1  6  0  0  0
 26 29  1  0  0  0  0
 28  2  1  1  0  0  0
 28 31  1  0  0  0  0
 29 30  1  0  0  0  0
 29 33  1  1  0  0  0
 31 32  1  1  0  0  0
 31 35  1  0  0  0  0
 33 34  1  0  0  0  0
 35 36  1  1  0  0  0
M  END
>  <CHROM.1>
175.85619328,50.37196274,159.22673896,-66.98486178,-61.89549442,-69.71069572
-175.71240806,-164.19887445,-69.03692793,-174.48957537,-60.71249370,-166.81501240
-66.83004759,59.41136823,39.89416584,7.14625426,6.35886678,2.54485327,0.40317495
-1.28026142

>  <Name>
2f4u_lig

>  <RI>
0

>  <Rbt.Current_Directory>
/home/itssahil/PROJECTS/Mol_Feturizer/New_Systems/rnas/2f4u

>  <Rbt.Executable>
rbdock ($Id: //depot/dev/client3/rdock/2013.1/src/exe/rbdock.cxx#4 $)

>  <Rbt.Library>
libRbt.so (2013.1, Build901 2013/11/27)

>  <Rbt.Parameter_File>
/export/apps/rDock/src/rDock_2013.1_src/data/scripts/dock_solv.prm

>  <Rbt.Receptor>
prm/pocket_docking_5.prm

>  <SCORE>
-28.3834

>  <SCORE.INTER>
-16.9348

>  <SCORE.INTER.CONST>
1

>  <SCORE.INTER.POLAR>
-1.93826

>  <SCORE.INTER.ROT>
14

>  <SCORE.INTER.SOLV>
15.0126

>  <SCORE.INTER.VDW>
-22.7665

>  <SCORE.INTER.norm>
-0.470411

>  <SCORE.INTRA>
-11.4616

>  <SCORE.INTRA.DIHEDRAL>
-23.0562

>  <SCORE.INTRA.DIHEDRAL.0>
26.3805

>  <SCORE.INTRA.POLAR>
0

>  <SCORE.INTRA.POLAR.0>
0

>  <SCORE.INTRA.REPUL>
0

>  <SCORE.INTRA.REPUL.0>
0

>  <SCORE.INTRA.SOLV>
2.0451

>  <SCORE.INTRA.SOLV.lig_0>
-98.5587

>  <SCORE.INTRA.VDW>
-0.956048

>  <SCORE.INTRA.VDW.0>
-2.91167

>  <SCORE.INTRA.norm>
-0.318378

>  <SCORE.RESTR>
0.013027

>  <SCORE.RESTR.CAVITY>
0.013027

>  <SCORE.RESTR.norm>
0.000361862

>  <SCORE.SYSTEM>
0

>  <SCORE.SYSTEM.CONST>
0

>  <SCORE.SYSTEM.DIHEDRAL>
0

>  <SCORE.SYSTEM.SOLV>
0

>  <SCORE.SYSTEM.norm>
0

>  <SCORE.heavy>
36

>  <SCORE.norm>
-0.788427

>  <RMSD>
2.296

$$$$
2f4u_lig
 OpenBabel11021811433D
libRbt.so/2013.1/901 2013/11/27
 36 37  0  0  0  0  0  0  0  0999 V2000
   37.8551    9.3381    5.3662 C   0  0  2  0  0  0  0  0  0  0  0  0
   38.6946    8.2589    4.8109 O   0  0  0  0  0  0  0  0  0  0  0  0
   42.3182    6.1181    5.8981 C   0  0  2  0  0  0  0  0  0  0  0  0
   43.6909    5.8713    6.4172 N   0  0  0  0  0  0  0  0  0  0  0  0
   36.4045    9.0886    4.8489 C   0  0  2  0  0  0  0  0  0  0  0  0
   35.8784    7.7698    5.2465 N   0  0  0  0  0  0  0  0  0  0  0  0
   42.3197    7.1563    4.7210 C   0  0  0  0  0  0  0  0  0  0  0  0
   44.6940    5.0228    5.2084 C   0  0  0  0  0  0  0  0  0  0  0  0
   45.7093    4.9579    6.3059 C   0  0  1  0  0  0  0  0  0  0  0  0
   46.2509    3.5244    6.3380 C   0  0  0  0  0  0  0  0  0  0  0  0
   47.1727    3.1816    7.5230 C   0  0  0  0  0  0  0  0  0  0  0  0
   47.6382    1.8021    7.3673 N   0  0  0  0  0  0  0  0  0  0  0  0
   46.7845    5.8119    6.0246 O   0  0  0  0  0  0  0  0  0  0  0  0
   42.0278    4.8930    9.1408 C   0  0  0  0  0  0  0  0  0  0  0  0
   40.8876    4.0925    9.7521 C   0  0  0  0  0  0  0  0  0  0  0  0
   36.3945    9.2227    3.2898 C   0  0  1  0  0  0  0  0  0  0  0  0
   40.2872    3.1004    8.8376 N   0  0  0  0  0  0  0  0  0  0  0  0
   35.0897    8.9922    2.7649 O   0  0  0  0  0  0  0  0  0  0  0  0
   40.8877    7.4465    4.2274 C   0  0  2  0  0  0  0  0  0  0  0  0
   40.8859    8.4444    3.1652 N   0  0  0  0  0  0  0  0  0  0  0  0
   38.6522    1.3140    8.2587 C   0  0  0  0  0  0  0  0  0  0  0  0
   39.5399    0.5105    7.2614 C   0  0  0  0  0  0  0  0  0  0  0  0
   39.4644    1.9942    9.3915 C   0  0  0  0  0  0  0  0  0  0  0  0
   40.2243   -0.6388    7.9264 N   0  0  0  0  0  0  0  0  0  0  0  0
   44.5657    4.6780    4.1954 O   0  0  0  0  0  0  0  0  0  0  0  0
   36.9078   10.6300    2.9247 C   0  0  2  0  0  0  0  0  0  0  0  0
   36.9451   10.8489    1.5168 O   0  0  0  0  0  0  0  0  0  0  0  0
   40.0310    7.9627    5.3662 C   0  0  2  0  0  0  0  0  0  0  0  0
   38.3104   10.8716    3.5110 C   0  0  2  0  0  0  0  0  0  0  0  0
   38.3207   10.6449    4.9248 O   0  0  0  0  0  0  0  0  0  0  0  0
   39.9904    6.8954    6.5340 C   0  0  2  0  0  0  0  0  0  0  0  0
   39.1736    7.4265    7.6243 O   0  0  0  0  0  0  0  0  0  0  0  0
   38.7987   12.2691    3.2378 C   0  0  0  0  0  0  0  0  0  0  0  0
   40.1445   12.3710    3.5092 O   0  0  0  0  0  0  0  0  0  0  0  0
   41.4527    6.6342    7.0307 C   0  0  1  0  0  0  0  0  0  0  0  0
   41.4943    5.7008    8.0706 O   0  0  0  0  0  0  0  0  0  0  0  0
  1  2  1  6  0  0  0
  1  5  1  0  0  0  0
  1 30  1  0  0  0  0
  3  4  1  1  0  0  0
  3  7  1  0  0  0  0
  3 35  1  0  0  0  0
  5  6  1  6  0  0  0
  5 16  1  0  0  0  0
  7 19  1  0  0  0  0
  8  4  1  0  0  0  0
  8 25  2  0  0  0  0
  9  8  1  6  0  0  0
  9 10  1  0  0  0  0
  9 13  1  0  0  0  0
 10 11  1  0  0  0  0
 11 12  1  0  0  0  0
 14 15  1  0  0  0  0
 14 36  1  0  0  0  0
 15 17  1  0  0  0  0
 16 18  1  1  0  0  0
 16 26  1  0  0  0  0
 17 23  1  0  0  0  0
 19 20  1  6  0  0  0
 19 28  1  0  0  0  0
 21 22  1  0  0  0  0
 21 23  1  0  0  0  0
 22 24  1  0  0  0  0
 26 27  1  6  0  0  0
 26 29  1  0  0  0  0
 28  2  1  6  0  0  0
 28 31  1  0  0  0  0
 29 30  1  0  0  0  0
 29 33  1  1  0  0  0
 31 32  1  1  0  0  0
 31 35  1  0  0  0  0
 33 34  1  0  0  0  0
 35 36  1  1  0  0  0
M  END
>  <CHROM.1>
-163.46575120,-67.78188867,133.68922211,-171.91153070,-177.70809453,65.24128688
176.83130762,161.99064005,165.34985337,63.90108739,69.20293785,-148.95604904
-167.01484389,65.32276367,40.70587618,6.53993275,5.77783554,2.23747901,0.07021088
-0.54746737

>  <Name>
2f4u_lig

>  <RI>
0

>  <Rbt.Current_Directory>
/home/itssahil/PROJECTS/Mol_Feturizer/New_Systems/rnas/2f4u

>  <Rbt.Executable>
rbdock ($Id: //depot/dev/client3/rdock/2013.1/src/exe/rbdock.cxx#4 $)

>  <Rbt.Library>
libRbt.so (2013.1, Build901 2013/11/27)

>  <Rbt.Parameter_File>
/export/apps/rDock/src/rDock_2013.1_src/data/scripts/dock_solv.prm

>  <Rbt.Receptor>
prm/pocket_docking_7.prm

>  <SCORE>
-23.9597

>  <SCORE.INTER>
-14.4349

>  <SCORE.INTER.CONST>
1

>  <SCORE.INTER.POLAR>
-0.979796

>  <SCORE.INTER.ROT>
14

>  <SCORE.INTER.SOLV>
19.6661

>  <SCORE.INTER.VDW>
-25.846

>  <SCORE.INTER.norm>
-0.400969

>  <SCORE.INTRA>
-9.5248

>  <SCORE.INTRA.DIHEDRAL>
-17.1441

>  <SCORE.INTRA.DIHEDRAL.0>
26.3805

>  <SCORE.INTRA.POLAR>
0

>  <SCORE.INTRA.POLAR.0>
0

>  <SCORE.INTRA.REPUL>
0

>  <SCORE.INTRA.REPUL.0>
0

>  <SCORE.INTRA.SOLV>
1.62465

>  <SCORE.INTRA.SOLV.lig_0>
-98.5587

>  <SCORE.INTRA.VDW>
-1.76507

>  <SCORE.INTRA.VDW.0>
-2.91167

>  <SCORE.INTRA.norm>
-0.264578

>  <SCORE.RESTR>
0

>  <SCORE.RESTR.CAVITY>
0

>  <SCORE.RESTR.norm>
0

>  <SCORE.SYSTEM>
0

>  <SCORE.SYSTEM.CONST>
0

>  <SCORE.SYSTEM.DIHEDRAL>
0

>  <SCORE.SYSTEM.SOLV>
0

>  <SCORE.SYSTEM.norm>
0

>  <SCORE.heavy>
36

>  <SCORE.norm>
-0.665547

>  <RMSD>
2.298

$$$$
2f4u_lig
 OpenBabel11021811433D
libRbt.so/2013.1/901 2013/11/27
 36 37  0  0  0  0  0  0  0  0999 V2000
   37.7810    9.0093    5.9760 C   0  0  2  0  0  0  0  0  0  0  0  0
   38.5325    7.8706    5.4134 O   0  0  0  0  0  0  0  0  0  0  0  0
   42.4942    6.0888    5.5741 C   0  0  2  0  0  0  0  0  0  0  0  0
   43.9446    5.9355    5.8696 N   0  0  0  0  0  0  0  0  0  0  0  0
   36.2701    8.7225    5.7136 C   0  0  2  0  0  0  0  0  0  0  0  0
   35.8183    7.4566    6.3200 N   0  0  0  0  0  0  0  0  0  0  0  0
   42.2132    7.3457    4.6772 C   0  0  0  0  0  0  0  0  0  0  0  0
   44.7603    4.9692    4.6093 C   0  0  0  0  0  0  0  0  0  0  0  0
   45.9506    5.0585    5.5122 C   0  0  1  0  0  0  0  0  0  0  0  0
   45.8246    3.9293    6.5410 C   0  0  0  0  0  0  0  0  0  0  0  0
   45.9056    2.4977    5.9795 C   0  0  0  0  0  0  0  0  0  0  0  0
   47.2841    2.2396    5.5588 N   0  0  0  0  0  0  0  0  0  0  0  0
   47.1293    4.8415    4.7856 O   0  0  0  0  0  0  0  0  0  0  0  0
   42.8043    4.1448    8.4260 C   0  0  0  0  0  0  0  0  0  0  0  0
   41.8653    3.0584    8.9286 C   0  0  0  0  0  0  0  0  0  0  0  0
   36.0221    8.6963    4.1688 C   0  0  1  0  0  0  0  0  0  0  0  0
   42.0093    1.7647    8.2309 N   0  0  0  0  0  0  0  0  0  0  0  0
   34.6540    8.4261    3.8747 O   0  0  0  0  0  0  0  0  0  0  0  0
   40.7029    7.5269    4.4229 C   0  0  2  0  0  0  0  0  0  0  0  0
   40.4392    8.7198    3.6280 N   0  0  0  0  0  0  0  0  0  0  0  0
   39.6915    0.8987    7.9510 C   0  0  0  0  0  0  0  0  0  0  0  0
   38.9131    2.0745    8.6141 C   0  0  0  0  0  0  0  0  0  0  0  0
   40.9896    1.3510    7.2326 C   0  0  0  0  0  0  0  0  0  0  0  0
   37.6150    1.6231    9.1994 N   0  0  0  0  0  0  0  0  0  0  0  0
   44.4749    4.5024    3.6809 O   0  0  0  0  0  0  0  0  0  0  0  0
   36.4656   10.0537    3.5873 C   0  0  2  0  0  0  0  0  0  0  0  0
   36.2870   10.1267    2.1750 O   0  0  0  0  0  0  0  0  0  0  0  0
   39.9579    7.6566    5.7364 C   0  0  2  0  0  0  0  0  0  0  0  0
   37.9397   10.3401    3.9256 C   0  0  2  0  0  0  0  0  0  0  0  0
   38.1664   10.2593    5.3370 O   0  0  0  0  0  0  0  0  0  0  0  0
   40.2025    6.3679    6.6218 C   0  0  2  0  0  0  0  0  0  0  0  0
   39.4884    6.5282    7.8877 O   0  0  0  0  0  0  0  0  0  0  0  0
   38.3726   11.6974    3.4391 C   0  0  0  0  0  0  0  0  0  0  0  0
   39.7375   11.8371    3.5522 O   0  0  0  0  0  0  0  0  0  0  0  0
   41.7397    6.2184    6.8826 C   0  0  1  0  0  0  0  0  0  0  0  0
   42.0319    5.0985    7.6665 O   0  0  0  0  0  0  0  0  0  0  0  0
  1  2  1  6  0  0  0
  1  5  1  0  0  0  0
  1 30  1  0  0  0  0
  3  4  1  1  0  0  0
  3  7  1  0  0  0  0
  3 35  1  0  0  0  0
  5  6  1  6  0  0  0
  5 16  1  0  0  0  0
  7 19  1  0  0  0  0
  8  4  1  0  0  0  0
  8 25  2  0  0  0  0
  9  8  1  6  0  0  0
  9 10  1  0  0  0  0
  9 13  1  0  0  0  0
 10 11  1  0  0  0  0
 11 12  1  0  0  0  0
 14 15  1  0  0  0  0
 14 36  1  0  0  0  0
 15 17  1  0  0  0  0
 16 18  1  1  0  0  0
 16 26  1  0  0  0  0
 17 23  1  0  0  0  0
 19 20  1  6  0  0  0
 19 28  1  0  0  0  0
 21 22  1  0  0  0  0
 21 23  1  0  0  0  0
 22 24  1  0  0  0  0
 26 27  1  6  0  0  0
 26 29  1  0  0  0  0
 28  2  1  6  0  0  0
 28 31  1  0  0  0  0
 29 30  1  0  0  0  0
 29 33  1  1  0  0  0
 31 32  1  1  0  0  0
 31 35  1  0  0  0  0
 33 34  1  0  0  0  0
 35 36  1  1  0  0  0
M  END
>  <CHROM.1>
-166.41831329,-88.56111291,84.89705506,65.06665721,70.91516382,107.01363800
-178.58069683,-104.46206908,-74.70881272,175.32941964,70.40467198,-127.11615797
-169.94796454,61.27665644,40.66559283,6.27133535,5.75517639,2.39349747,0.20774250
-0.56880392

>  <Name>
2f4u_lig

>  <RI>
0

>  <Rbt.Current_Directory>
/home/itssahil/PROJECTS/Mol_Feturizer/New_Systems/rnas/2f4u

>  <Rbt.Executable>
rbdock ($Id: //depot/dev/client3/rdock/2013.1/src/exe/rbdock.cxx#4 $)

>  <Rbt.Library>
libRbt.so (2013.1, Build901 2013/11/27)

>  <Rbt.Parameter_File>
/export/apps/rDock/src/rDock_2013.1_src/data/scripts/dock_solv.prm

>  <Rbt.Receptor>
prm/pocket_docking_4.prm

>  <SCORE>
-20.5297

>  <SCORE.INTER>
-17.2673

>  <SCORE.INTER.CONST>
1

>  <SCORE.INTER.POLAR>
-1.7117

>  <SCORE.INTER.ROT>
14

>  <SCORE.INTER.SOLV>
13.5447

>  <SCORE.INTER.VDW>
-23.2541

>  <SCORE.INTER.norm>
-0.479648

>  <SCORE.INTRA>
-3.2624

>  <SCORE.INTRA.DIHEDRAL>
-8.98202

>  <SCORE.INTRA.DIHEDRAL.0>
26.3805

>  <SCORE.INTRA.POLAR>
0

>  <SCORE.INTRA.POLAR.0>
0

>  <SCORE.INTRA.REPUL>
0

>  <SCORE.INTRA.REPUL.0>
0

>  <SCORE.INTRA.SOLV>
5.12835

>  <SCORE.INTRA.SOLV.lig_0>
-98.5587

>  <SCORE.INTRA.VDW>
-1.33557

>  <SCORE.INTRA.VDW.0>
-2.91167

>  <SCORE.INTRA.norm>
-0.0906223

>  <SCORE.RESTR>
0

>  <SCORE.RESTR.CAVITY>
0

>  <SCORE.RESTR.norm>
0

>  <SCORE.SYSTEM>
0

>  <SCORE.SYSTEM.CONST>
0

>  <SCORE.SYSTEM.DIHEDRAL>
0

>  <SCORE.SYSTEM.SOLV>
0

>  <SCORE.SYSTEM.norm>
0

>  <SCORE.heavy>
36

>  <SCORE.norm>
-0.570271

>  <RMSD>
2.346

$$$$
2f4u_lig
 OpenBabel11021811433D
libRbt.so/2013.1/901 2013/11/27
 36 37  0  0  0  0  0  0  0  0999 V2000
   38.5472    8.4923    5.3488 C   0  0  2  0  0  0  0  0  0  0  0  0
   39.2201    7.4585    4.5387 O   0  0  0  0  0  0  0  0  0  0  0  0
   42.5637    4.8495    5.4921 C   0  0  2  0  0  0  0  0  0  0  0  0
   43.9610    4.4126    5.7598 N   0  0  0  0  0  0  0  0  0  0  0  0
   37.0146    8.3182    5.1142 C   0  0  2  0  0  0  0  0  0  0  0  0
   36.5317    6.9758    5.4870 N   0  0  0  0  0  0  0  0  0  0  0  0
   42.4145    5.4754    4.0606 C   0  0  0  0  0  0  0  0  0  0  0  0
   45.1360    5.6388    5.2094 C   0  0  0  0  0  0  0  0  0  0  0  0
   46.1622    4.6113    5.5711 C   0  0  1  0  0  0  0  0  0  0  0  0
   46.4792    3.8196    4.2974 C   0  0  0  0  0  0  0  0  0  0  0  0
   47.0119    4.6434    3.1104 C   0  0  0  0  0  0  0  0  0  0  0  0
   47.3660    3.7241    2.0271 N   0  0  0  0  0  0  0  0  0  0  0  0
   47.3462    5.2332    5.9903 O   0  0  0  0  0  0  0  0  0  0  0  0
   42.1504    5.0494    9.2105 C   0  0  0  0  0  0  0  0  0  0  0  0
   40.6986    4.6619    9.4488 C   0  0  0  0  0  0  0  0  0  0  0  0
   36.6989    8.6033    3.6083 C   0  0  1  0  0  0  0  0  0  0  0  0
   40.3501    4.4686   10.8708 N   0  0  0  0  0  0  0  0  0  0  0  0
   35.3082    8.4464    3.3386 O   0  0  0  0  0  0  0  0  0  0  0  0
   40.9764    5.9750    3.8142 C   0  0  2  0  0  0  0  0  0  0  0  0
   40.8495    6.5971    2.5022 N   0  0  0  0  0  0  0  0  0  0  0  0
   39.0494    2.3470   10.7882 C   0  0  0  0  0  0  0  0  0  0  0  0
   37.6806    1.6405   11.0237 C   0  0  0  0  0  0  0  0  0  0  0  0
   39.0558    3.8337   11.2303 C   0  0  0  0  0  0  0  0  0  0  0  0
   36.5938    2.2409   10.1932 N   0  0  0  0  0  0  0  0  0  0  0  0
   45.0861    6.6203    4.7671 O   0  0  0  0  0  0  0  0  0  0  0  0
   37.1789   10.0308    3.2780 C   0  0  2  0  0  0  0  0  0  0  0  0
   36.9426   10.3847    1.9176 O   0  0  0  0  0  0  0  0  0  0  0  0
   40.5846    6.9955    4.8640 C   0  0  2  0  0  0  0  0  0  0  0  0
   38.6780   10.1911    3.5888 C   0  0  2  0  0  0  0  0  0  0  0  0
   38.9618    9.8280    4.9444 O   0  0  0  0  0  0  0  0  0  0  0  0
   40.6893    6.3503    6.3053 C   0  0  2  0  0  0  0  0  0  0  0  0
   40.3239    7.3605    7.2973 O   0  0  0  0  0  0  0  0  0  0  0  0
   39.1516   11.6003    3.3521 C   0  0  0  0  0  0  0  0  0  0  0  0
   38.7835   12.4146    4.3993 O   0  0  0  0  0  0  0  0  0  0  0  0
   42.1619    5.8704    6.5383 C   0  0  1  0  0  0  0  0  0  0  0  0
   42.3313    5.2914    7.7993 O   0  0  0  0  0  0  0  0  0  0  0  0
  1  2  1  6  0  0  0
  1  5  1  0  0  0  0
  1 30  1  0  0  0  0
  3  4  1  1  0  0  0
  3  7  1  0  0  0  0
  3 35  1  0  0  0  0
  5  6  1  6  0  0  0
  5 16  1  0  0  0  0
  7 19  1  0  0  0  0
  8  4  1  0  0  0  0
  8 25  2  0  0  0  0
  9  8  1  6  0  0  0
  9 10  1  0  0  0  0
  9 13  1  0  0  0  0
 10 11  1  0  0  0  0
 11 12  1  0  0  0  0
 14 15  1  0  0  0  0
 14 36  1  0  0  0  0
 15 17  1  0  0  0  0
 16 18  1  1  0  0  0
 16 26  1  0  0  0  0
 17 23  1  0  0  0  0
 19 20  1  6  0  0  0
 19 28  1  0  0  0  0
 21 22  1  0  0  0  0
 21 23  1  0  0  0  0
 22 24  1  0  0  0  0
 26 27  1  6  0  0  0
 26 29  1  0  0  0  0
 28  2  1  6  0  0  0
 28 31  1  0  0  0  0
 29 30  1  0  0  0  0
 29 33  1  1  0  0  0
 31 32  1  1  0  0  0
 31 35  1  0  0  0  0
 33 34  1  0  0  0  0
 35 36  1  1  0  0  0
M  END
>  <CHROM.1>
-157.54300508,43.71282592,93.95144550,58.81682475,175.28797117,-176.26607365
60.46280026,-167.96425537,67.04677404,64.19302874,-175.23199512,-178.27198214
78.35533581,-155.46438309,40.82064508,6.44511339,5.74752522,-2.57999380,-0.34196674
2.27639911

>  <Name>
2f4u_lig

>  <RI>
0

>  <Rbt.Current_Directory>
/home/itssahil/PROJECTS/Mol_Feturizer/New_Systems/rnas/2f4u

>  <Rbt.Executable>
rbdock ($Id: //depot/dev/client3/rdock/2013.1/src/exe/rbdock.cxx#4 $)

>  <Rbt.Library>
libRbt.so (2013.1, Build901 2013/11/27)

>  <Rbt.Parameter_File>
/export/apps/rDock/src/rDock_2013.1_src/data/scripts/dock_solv.prm

>  <Rbt.Receptor>
prm/pocket_docking_8.prm

>  <SCORE>
-22.0737

>  <SCORE.INTER>
-13.3848

>  <SCORE.INTER.CONST>
1

>  <SCORE.INTER.POLAR>
-1.29936

>  <SCORE.INTER.ROT>
14

>  <SCORE.INTER.SOLV>
15.3505

>  <SCORE.INTER.VDW>
-22.6422

>  <SCORE.INTER.norm>
-0.3718

>  <SCORE.INTRA>
-8.68884

>  <SCORE.INTRA.DIHEDRAL>
-17.8489

>  <SCORE.INTRA.DIHEDRAL.0>
26.3805

>  <SCORE.INTRA.POLAR>
0

>  <SCORE.INTRA.POLAR.0>
0

>  <SCORE.INTRA.REPUL>
0

>  <SCORE.INTRA.REPUL.0>
0

>  <SCORE.INTRA.SOLV>
0.29651

>  <SCORE.INTRA.SOLV.lig_0>
-98.5587

>  <SCORE.INTRA.VDW>
0.0873591

>  <SCORE.INTRA.VDW.0>
-2.91167

>  <SCORE.INTRA.norm>
-0.241357

>  <SCORE.RESTR>
0

>  <SCORE.RESTR.CAVITY>
0

>  <SCORE.RESTR.norm>
0

>  <SCORE.SYSTEM>
0

>  <SCORE.SYSTEM.CONST>
0

>  <SCORE.SYSTEM.DIHEDRAL>
0

>  <SCORE.SYSTEM.SOLV>
0

>  <SCORE.SYSTEM.norm>
0

>  <SCORE.heavy>
36

>  <SCORE.norm>
-0.613157

>  <RMSD>
2.355

$$$$
2f4u_lig
 OpenBabel11021811433D
libRbt.so/2013.1/901 2013/11/27
 36 37  0  0  0  0  0  0  0  0999 V2000
   38.9699    7.8070    4.2368 C   0  0  2  0  0  0  0  0  0  0  0  0
   39.8472    7.9710    5.4121 O   0  0  0  0  0  0  0  0  0  0  0  0
   41.7395    4.0778    5.8084 C   0  0  2  0  0  0  0  0  0  0  0  0
   42.7379    3.0441    6.1952 N   0  0  0  0  0  0  0  0  0  0  0  0
   38.4791    9.2342    3.8414 C   0  0  2  0  0  0  0  0  0  0  0  0
   39.5909   10.1516    3.5308 N   0  0  0  0  0  0  0  0  0  0  0  0
   42.3777    5.1945    4.9090 C   0  0  0  0  0  0  0  0  0  0  0  0
   44.0888    3.7648    7.1133 C   0  0  0  0  0  0  0  0  0  0  0  0
   44.6928    2.3987    7.0212 C   0  0  1  0  0  0  0  0  0  0  0  0
   46.1334    2.5046    7.5341 C   0  0  0  0  0  0  0  0  0  0  0  0
   46.9987    1.2414    7.3702 C   0  0  0  0  0  0  0  0  0  0  0  0
   48.2985    1.4822    7.9999 N   0  0  0  0  0  0  0  0  0  0  0  0
   44.0085    1.5071    7.8585 O   0  0  0  0  0  0  0  0  0  0  0  0
   39.9262    3.0367    8.9367 C   0  0  0  0  0  0  0  0  0  0  0  0
   40.4011    3.6426   10.2490 C   0  0  0  0  0  0  0  0  0  0  0  0
   37.6161    9.8134    5.0112 C   0  0  1  0  0  0  0  0  0  0  0  0
   39.8336    4.9746   10.5401 N   0  0  0  0  0  0  0  0  0  0  0  0
   37.1510   11.1249    4.7031 O   0  0  0  0  0  0  0  0  0  0  0  0
   41.3489    6.2892    4.5598 C   0  0  2  0  0  0  0  0  0  0  0  0
   41.9535    7.3490    3.7626 N   0  0  0  0  0  0  0  0  0  0  0  0
   37.4452    4.8521    9.8469 C   0  0  0  0  0  0  0  0  0  0  0  0
   35.9490    4.9317   10.2754 C   0  0  0  0  0  0  0  0  0  0  0  0
   38.4320    5.0871   11.0202 C   0  0  0  0  0  0  0  0  0  0  0  0
   35.5404    6.3279   10.6145 N   0  0  0  0  0  0  0  0  0  0  0  0
   44.3427    4.7450    7.4824 O   0  0  0  0  0  0  0  0  0  0  0  0
   36.4434    8.8461    5.2684 C   0  0  2  0  0  0  0  0  0  0  0  0
   35.5980    9.2835    6.3295 O   0  0  0  0  0  0  0  0  0  0  0  0
   40.7859    6.9075    5.8239 C   0  0  2  0  0  0  0  0  0  0  0  0
   36.9590    7.4305    5.5841 C   0  0  2  0  0  0  0  0  0  0  0  0
   37.8283    6.9592    4.5485 O   0  0  0  0  0  0  0  0  0  0  0  0
   40.1004    5.7891    6.7093 C   0  0  2  0  0  0  0  0  0  0  0  0
   39.5833    6.4097    7.9281 O   0  0  0  0  0  0  0  0  0  0  0  0
   35.8308    6.4491    5.7579 C   0  0  0  0  0  0  0  0  0  0  0  0
   35.0557    6.3997    4.6213 O   0  0  0  0  0  0  0  0  0  0  0  0
   41.1696    4.7019    7.0669 C   0  0  1  0  0  0  0  0  0  0  0  0
   40.6341    3.6796    7.8559 O   0  0  0  0  0  0  0  0  0  0  0  0
  1  2  1  1  0  0  0
  1  5  1  0  0  0  0
  1 30  1  0  0  0  0
  3  4  1  1  0  0  0
  3  7  1  0  0  0  0
  3 35  1  0  0  0  0
  5  6  1  1  0  0  0
  5 16  1  0  0  0  0
  7 19  1  0  0  0  0
  8  4  1  0  0  0  0
  8 25  2  0  0  0  0
  9  8  1  1  0  0  0
  9 10  1  0  0  0  0
  9 13  1  0  0  0  0
 10 11  1  0  0  0  0
 11 12  1  0  0  0  0
 14 15  1  0  0  0  0
 14 36  1  0  0  0  0
 15 17  1  0  0  0  0
 16 18  1  6  0  0  0
 16 26  1  0  0  0  0
 17 23  1  0  0  0  0
 19 20  1  6  0  0  0
 19 28  1  0  0  0  0
 21 22  1  0  0  0  0
 21 23  1  0  0  0  0
 22 24  1  0  0  0  0
 26 27  1  1  0  0  0
 26 29  1  0  0  0  0
 28  2  1  6  0  0  0
 28 31  1  0  0  0  0
 29 30  1  0  0  0  0
 29 33  1  6  0  0  0
 31 32  1  1  0  0  0
 31 35  1  0  0  0  0
 33 34  1  0  0  0  0
 35 36  1  1  0  0  0
M  END
>  <CHROM.1>
-162.38730361,59.94601050,170.93919976,-172.96682382,-175.71418775,76.99433455
-48.80133378,76.29386093,-74.98349070,70.35480907,179.10035022,37.94617724
58.42547434,-173.01461061,40.18106406,5.71874264,6.76828190,-2.61058328,-0.40110506
2.23321104

>  <Name>
2f4u_lig

>  <RI>
0

>  <Rbt.Current_Directory>
/home/itssahil/PROJECTS/Mol_Feturizer/New_Systems/rnas/2f4u

>  <Rbt.Executable>
rbdock ($Id: //depot/dev/client3/rdock/2013.1/src/exe/rbdock.cxx#4 $)

>  <Rbt.Library>
libRbt.so (2013.1, Build901 2013/11/27)

>  <Rbt.Parameter_File>
/export/apps/rDock/src/rDock_2013.1_src/data/scripts/dock_solv.prm

>  <Rbt.Receptor>
prm/pocket_docking_2.prm

>  <SCORE>
-5.97713

>  <SCORE.INTER>
1.2391

>  <SCORE.INTER.CONST>
1

>  <SCORE.INTER.POLAR>
-1.39128

>  <SCORE.INTER.ROT>
14

>  <SCORE.INTER.SOLV>
12.9281

>  <SCORE.INTER.VDW>
-11.779

>  <SCORE.INTER.norm>
0.0344193

>  <SCORE.INTRA>
-8.66674

>  <SCORE.INTRA.DIHEDRAL>
-19.0516

>  <SCORE.INTRA.DIHEDRAL.0>
26.3805

>  <SCORE.INTRA.POLAR>
0

>  <SCORE.INTRA.POLAR.0>
0

>  <SCORE.INTRA.REPUL>
0

>  <SCORE.INTRA.REPUL.0>
0

>  <SCORE.INTRA.SOLV>
3.62174

>  <SCORE.INTRA.SOLV.lig_0>
-98.5587

>  <SCORE.INTRA.VDW>
-0.951826

>  <SCORE.INTRA.VDW.0>
-2.91167

>  <SCORE.INTRA.norm>
-0.240743

>  <SCORE.RESTR>
1.45051

>  <SCORE.RESTR.CAVITY>
1.45051

>  <SCORE.RESTR.norm>
0.040292

>  <SCORE.SYSTEM>
0

>  <SCORE.SYSTEM.CONST>
0

>  <SCORE.SYSTEM.DIHEDRAL>
0

>  <SCORE.SYSTEM.SOLV>
0

>  <SCORE.SYSTEM.norm>
0

>  <SCORE.heavy>
36

>  <SCORE.norm>
-0.166031

>  <RMSD>
2.829

$$$$
2f4u_lig
 OpenBabel11021811433D
libRbt.so/2013.1/901 2013/11/27
 36 37  0  0  0  0  0  0  0  0999 V2000
   37.8038    9.1363    5.1533 C   0  0  2  0  0  0  0  0  0  0  0  0
   38.7711    8.2010    4.5472 O   0  0  0  0  0  0  0  0  0  0  0  0
   42.3742    6.1201    5.8055 C   0  0  2  0  0  0  0  0  0  0  0  0
   43.7115    5.8896    6.4163 N   0  0  0  0  0  0  0  0  0  0  0  0
   36.4454    8.9145    4.4187 C   0  0  2  0  0  0  0  0  0  0  0  0
   35.9595    7.5267    4.5294 N   0  0  0  0  0  0  0  0  0  0  0  0
   42.4286    7.2165    4.6838 C   0  0  0  0  0  0  0  0  0  0  0  0
   44.9354    5.5245    5.1688 C   0  0  0  0  0  0  0  0  0  0  0  0
   45.8393    5.2681    6.3336 C   0  0  1  0  0  0  0  0  0  0  0  0
   46.0594    3.7532    6.4114 C   0  0  0  0  0  0  0  0  0  0  0  0
   44.8337    2.9173    6.8243 C   0  0  0  0  0  0  0  0  0  0  0  0
   43.9174    2.8401    5.6849 N   0  0  0  0  0  0  0  0  0  0  0  0
   47.0879    5.8682    6.1214 O   0  0  0  0  0  0  0  0  0  0  0  0
   41.2270    4.2785    8.5099 C   0  0  0  0  0  0  0  0  0  0  0  0
   39.7419    3.9479    8.5169 C   0  0  0  0  0  0  0  0  0  0  0  0
   36.6162    9.3049    2.9130 C   0  0  1  0  0  0  0  0  0  0  0  0
   39.3961    2.7357    9.2863 N   0  0  0  0  0  0  0  0  0  0  0  0
   35.4019    9.1093    2.1928 O   0  0  0  0  0  0  0  0  0  0  0  0
   41.0288    7.4873    4.0959 C   0  0  2  0  0  0  0  0  0  0  0  0
   41.0726    8.5376    3.0863 N   0  0  0  0  0  0  0  0  0  0  0  0
   40.6169    0.8805    8.1603 C   0  0  0  0  0  0  0  0  0  0  0  0
   40.5305   -0.4884    7.4207 C   0  0  0  0  0  0  0  0  0  0  0  0
   39.2320    1.4391    8.5797 C   0  0  0  0  0  0  0  0  0  0  0  0
   41.8626   -0.9300    6.9092 N   0  0  0  0  0  0  0  0  0  0  0  0
   44.9548    5.4630    4.0930 O   0  0  0  0  0  0  0  0  0  0  0  0
   37.0798   10.7739    2.8465 C   0  0  2  0  0  0  0  0  0  0  0  0
   37.2738   11.2248    1.5083 O   0  0  0  0  0  0  0  0  0  0  0  0
   40.0711    7.9181    5.1889 C   0  0  2  0  0  0  0  0  0  0  0  0
   38.3828   10.9744    3.6412 C   0  0  2  0  0  0  0  0  0  0  0  0
   38.2358   10.5169    4.9900 O   0  0  0  0  0  0  0  0  0  0  0  0
   39.9795    6.7919    6.2969 C   0  0  2  0  0  0  0  0  0  0  0  0
   39.0649    7.2413    7.3455 O   0  0  0  0  0  0  0  0  0  0  0  0
   38.8112   12.4174    3.6598 C   0  0  0  0  0  0  0  0  0  0  0  0
   39.1322   12.8413    2.3900 O   0  0  0  0  0  0  0  0  0  0  0  0
   41.4083    6.5509    6.8916 C   0  0  1  0  0  0  0  0  0  0  0  0
   41.4035    5.5674    7.8851 O   0  0  0  0  0  0  0  0  0  0  0  0
  1  2  1  6  0  0  0
  1  5  1  0  0  0  0
  1 30  1  0  0  0  0
  3  4  1  1  0  0  0
  3  7  1  0  0  0  0
  3 35  1  0  0  0  0
  5  6  1  6  0  0  0
  5 16  1  0  0  0  0
  7 19  1  0  0  0  0
  8  4  1  0  0  0  0
  8 25  2  0  0  0  0
  9  8  1  6  0  0  0
  9 10  1  0  0  0  0
  9 13  1  0  0  0  0
 10 11  1  0  0  0  0
 11 12  1  0  0  0  0
 14 15  1  0  0  0  0
 14 36  1  0  0  0  0
 15 17  1  0  0  0  0
 16 18  1  6  0  0  0
 16 26  1  0  0  0  0
 17 23  1  0  0  0  0
 19 20  1  6  0  0  0
 19 28  1  0  0  0  0
 21 22  1  0  0  0  0
 21 23  1  0  0  0  0
 22 24  1  0  0  0  0
 26 27  1  6  0  0  0
 26 29  1  0  0  0  0
 28  2  1  6  0  0  0
 28 31  1  0  0  0  0
 29 30  1  0  0  0  0
 29 33  1  1  0  0  0
 31 32  1  1  0  0  0
 31 35  1  0  0  0  0
 33 34  1  0  0  0  0
 35 36  1  1  0  0  0
M  END
>  <CHROM.1>
-166.10431337,-53.60800372,107.94801073,-69.01840279,75.34552630,-172.36539575
-65.92106282,-96.72367438,74.02924459,174.18852657,179.53820604,-154.45824984
-64.88714809,-61.85400731,40.61596742,6.53052683,5.49618873,2.13149331,0.06018597
-0.50328043

>  <Name>
2f4u_lig

>  <RI>
0

>  <Rbt.Current_Directory>
/home/itssahil/PROJECTS/Mol_Feturizer/New_Systems/rnas/2f4u

>  <Rbt.Executable>
rbdock ($Id: //depot/dev/client3/rdock/2013.1/src/exe/rbdock.cxx#4 $)

>  <Rbt.Library>
libRbt.so (2013.1, Build901 2013/11/27)

>  <Rbt.Parameter_File>
/export/apps/rDock/src/rDock_2013.1_src/data/scripts/dock_solv.prm

>  <Rbt.Receptor>
prm/pocket_docking_8.prm

>  <SCORE>
-22.6596

>  <SCORE.INTER>
-14.343

>  <SCORE.INTER.CONST>
1

>  <SCORE.INTER.POLAR>
-0.979796

>  <SCORE.INTER.ROT>
14

>  <SCORE.INTER.SOLV>
18.0161

>  <SCORE.INTER.VDW>
-25.2347

>  <SCORE.INTER.norm>
-0.398417

>  <SCORE.INTRA>
-8.3166

>  <SCORE.INTRA.DIHEDRAL>
-17.5721

>  <SCORE.INTRA.DIHEDRAL.0>
26.3805

>  <SCORE.INTRA.POLAR>
0

>  <SCORE.INTRA.POLAR.0>
0

>  <SCORE.INTRA.REPUL>
0

>  <SCORE.INTRA.REPUL.0>
0

>  <SCORE.INTRA.SOLV>
4.28564

>  <SCORE.INTRA.SOLV.lig_0>
-98.5587

>  <SCORE.INTRA.VDW>
-1.67335

>  <SCORE.INTRA.VDW.0>
-2.91167

>  <SCORE.INTRA.norm>
-0.231017

>  <SCORE.RESTR>
0

>  <SCORE.RESTR.CAVITY>
0

>  <SCORE.RESTR.norm>
0

>  <SCORE.SYSTEM>
0

>  <SCORE.SYSTEM.CONST>
0

>  <SCORE.SYSTEM.DIHEDRAL>
0

>  <SCORE.SYSTEM.SOLV>
0

>  <SCORE.SYSTEM.norm>
0

>  <SCORE.heavy>
36

>  <SCORE.norm>
-0.629433

>  <RMSD>
2.873

$$$$
2f4u_lig
 OpenBabel11021811433D
libRbt.so/2013.1/901 2013/11/27
 36 37  0  0  0  0  0  0  0  0999 V2000
   37.7602    9.2552    5.6677 C   0  0  2  0  0  0  0  0  0  0  0  0
   38.5187    8.0730    5.2150 O   0  0  0  0  0  0  0  0  0  0  0  0
   42.2483    6.0011    6.0469 C   0  0  2  0  0  0  0  0  0  0  0  0
   43.6259    5.7563    6.5541 N   0  0  0  0  0  0  0  0  0  0  0  0
   36.2655    8.8185    5.7645 C   0  0  2  0  0  0  0  0  0  0  0  0
   36.0622    7.6897    6.6911 N   0  0  0  0  0  0  0  0  0  0  0  0
   42.2043    7.2061    5.0424 C   0  0  0  0  0  0  0  0  0  0  0  0
   44.5924    4.8305    5.3725 C   0  0  0  0  0  0  0  0  0  0  0  0
   45.6262    4.8027    6.4543 C   0  0  1  0  0  0  0  0  0  0  0  0
   46.2336    3.3954    6.4646 C   0  0  0  0  0  0  0  0  0  0  0  0
   47.3156    3.1393    7.5299 C   0  0  0  0  0  0  0  0  0  0  0  0
   48.4819    3.9676    7.2178 N   0  0  0  0  0  0  0  0  0  0  0  0
   46.6566    5.7078    6.1655 O   0  0  0  0  0  0  0  0  0  0  0  0
   41.1802    4.4009    9.2823 C   0  0  0  0  0  0  0  0  0  0  0  0
   41.8834    3.0646    9.0962 C   0  0  0  0  0  0  0  0  0  0  0  0
   35.7574    8.4374    4.3344 C   0  0  1  0  0  0  0  0  0  0  0  0
   41.3793    2.2697    7.9582 N   0  0  0  0  0  0  0  0  0  0  0  0
   34.3952    8.0194    4.3701 O   0  0  0  0  0  0  0  0  0  0  0  0
   40.7646    7.4864    4.5656 C   0  0  2  0  0  0  0  0  0  0  0  0
   40.7180    8.6340    3.6683 N   0  0  0  0  0  0  0  0  0  0  0  0
   40.1431    0.3442    6.9761 C   0  0  0  0  0  0  0  0  0  0  0  0
   41.3808   -0.5963    6.8670 C   0  0  0  0  0  0  0  0  0  0  0  0
   40.2350    1.3434    8.1588 C   0  0  0  0  0  0  0  0  0  0  0  0
   42.5457    0.0879    6.2298 N   0  0  0  0  0  0  0  0  0  0  0  0
   44.4400    4.4377    4.3806 O   0  0  0  0  0  0  0  0  0  0  0  0
   35.9472    9.6602    3.4147 C   0  0  2  0  0  0  0  0  0  0  0  0
   35.5194    9.4094    2.0783 O   0  0  0  0  0  0  0  0  0  0  0  0
   39.8623    7.7718    5.7495 C   0  0  2  0  0  0  0  0  0  0  0  0
   37.4190   10.1108    3.3979 C   0  0  2  0  0  0  0  0  0  0  0  0
   37.8945   10.3571    4.7258 O   0  0  0  0  0  0  0  0  0  0  0  0
   39.8693    6.5372    6.7397 C   0  0  2  0  0  0  0  0  0  0  0  0
   39.0066    6.8470    7.8789 O   0  0  0  0  0  0  0  0  0  0  0  0
   37.6150   11.3536    2.5715 C   0  0  0  0  0  0  0  0  0  0  0  0
   38.9403   11.7262    2.5683 O   0  0  0  0  0  0  0  0  0  0  0  0
   41.3374    6.2867    7.2245 C   0  0  1  0  0  0  0  0  0  0  0  0
   41.4201    5.2086    8.1106 O   0  0  0  0  0  0  0  0  0  0  0  0
  1  2  1  6  0  0  0
  1  5  1  0  0  0  0
  1 30  1  0  0  0  0
  3  4  1  1  0  0  0
  3  7  1  0  0  0  0
  3 35  1  0  0  0  0
  5  6  1  1  0  0  0
  5 16  1  0  0  0  0
  7 19  1  0  0  0  0
  8  4  1  0  0  0  0
  8 25  2  0  0  0  0
  9  8  1  6  0  0  0
  9 10  1  0  0  0  0
  9 13  1  0  0  0  0
 10 11  1  0  0  0  0
 11 12  1  0  0  0  0
 14 15  1  0  0  0  0
 14 36  1  0  0  0  0
 15 17  1  0  0  0  0
 16 18  1  1  0  0  0
 16 26  1  0  0  0  0
 17 23  1  0  0  0  0
 19 20  1  6  0  0  0
 19 28  1  0  0  0  0
 21 22  1  0  0  0  0
 21 23  1  0  0  0  0
 22 24  1  0  0  0  0
 26 27  1  6  0  0  0
 26 29  1  0  0  0  0
 28  2  1  6  0  0  0
 28 31  1  0  0  0  0
 29 30  1  0  0  0  0
 29 33  1  6  0  0  0
 31 32  1  1  0  0  0
 31 35  1  0  0  0  0
 33 34  1  0  0  0  0
 35 36  1  1  0  0  0
M  END
>  <CHROM.1>
-141.75409328,-80.43654440,138.67655456,-179.04597446,-66.23966370,-62.73134392
175.00920514,-88.03029090,-163.96971920,-78.95489525,63.79350272,-131.63521545
-179.60174785,178.46980293,40.67805458,6.18893796,5.83208949,-2.38170564
-0.03219965,2.67344901

>  <Name>
2f4u_lig

>  <RI>
0

>  <Rbt.Current_Directory>
/home/itssahil/PROJECTS/Mol_Feturizer/New_Systems/rnas/2f4u

>  <Rbt.Executable>
rbdock ($Id: //depot/dev/client3/rdock/2013.1/src/exe/rbdock.cxx#4 $)

>  <Rbt.Library>
libRbt.so (2013.1, Build901 2013/11/27)

>  <Rbt.Parameter_File>
/export/apps/rDock/src/rDock_2013.1_src/data/scripts/dock_solv.prm

>  <Rbt.Receptor>
prm/pocket_docking_5.prm

>  <SCORE>
-18.3833

>  <SCORE.INTER>
-14.5964

>  <SCORE.INTER.CONST>
1

>  <SCORE.INTER.POLAR>
-0.979796

>  <SCORE.INTER.ROT>
14

>  <SCORE.INTER.SOLV>
14.0142

>  <SCORE.INTER.VDW>
-24.0697

>  <SCORE.INTER.norm>
-0.405456

>  <SCORE.INTRA>
-3.78689

>  <SCORE.INTRA.DIHEDRAL>
-10.0306

>  <SCORE.INTRA.DIHEDRAL.0>
26.3805

>  <SCORE.INTRA.POLAR>
0

>  <SCORE.INTRA.POLAR.0>
0

>  <SCORE.INTRA.REPUL>
0

>  <SCORE.INTRA.REPUL.0>
0

>  <SCORE.INTRA.SOLV>
6.29777

>  <SCORE.INTRA.SOLV.lig_0>
-98.5587

>  <SCORE.INTRA.VDW>
-1.92045

>  <SCORE.INTRA.VDW.0>
-2.91167

>  <SCORE.INTRA.norm>
-0.105191

>  <SCORE.RESTR>
0

>  <SCORE.RESTR.CAVITY>
0

>  <SCORE.RESTR.norm>
0

>  <SCORE.SYSTEM>
0

>  <SCORE.SYSTEM.CONST>
0

>  <SCORE.SYSTEM.DIHEDRAL>
0

>  <SCORE.SYSTEM.SOLV>
0

>  <SCORE.SYSTEM.norm>
0

>  <SCORE.heavy>
36

>  <SCORE.norm>
-0.510647

>  <RMSD>
3.010

$$$$
2f4u_lig
 OpenBabel11021811433D
libRbt.so/2013.1/901 2013/11/27
 36 37  0  0  0  0  0  0  0  0999 V2000
   37.5805   10.1113    4.5924 C   0  0  2  0  0  0  0  0  0  0  0  0
   38.6056    9.1031    4.2597 O   0  0  0  0  0  0  0  0  0  0  0  0
   39.1345    5.3852    6.4490 C   0  0  2  0  0  0  0  0  0  0  0  0
   39.6728    4.4126    7.4384 N   0  0  0  0  0  0  0  0  0  0  0  0
   36.3332    9.7896    3.7121 C   0  0  2  0  0  0  0  0  0  0  0  0
   35.8119    8.4294    3.9410 N   0  0  0  0  0  0  0  0  0  0  0  0
   40.2563    5.9213    5.4912 C   0  0  0  0  0  0  0  0  0  0  0  0
   40.9696    5.1458    8.4225 C   0  0  0  0  0  0  0  0  0  0  0  0
   41.1339    3.7654    8.9769 C   0  0  1  0  0  0  0  0  0  0  0  0
   42.6108    3.3867    8.8195 C   0  0  0  0  0  0  0  0  0  0  0  0
   43.1610    3.4140    7.3814 C   0  0  0  0  0  0  0  0  0  0  0  0
   43.6434    4.7660    7.0928 N   0  0  0  0  0  0  0  0  0  0  0  0
   40.8360    3.7530   10.3464 O   0  0  0  0  0  0  0  0  0  0  0  0
   36.9490    5.2872    9.1475 C   0  0  0  0  0  0  0  0  0  0  0  0
   35.4866    5.6874    9.2741 C   0  0  0  0  0  0  0  0  0  0  0  0
   36.7179    9.9707    2.2062 C   0  0  1  0  0  0  0  0  0  0  0  0
   35.1797    6.4819   10.4806 N   0  0  0  0  0  0  0  0  0  0  0  0
   35.6118    9.6770    1.3567 O   0  0  0  0  0  0  0  0  0  0  0  0
   39.6991    6.9693    4.5063 C   0  0  2  0  0  0  0  0  0  0  0  0
   40.7502    7.5001    3.6474 N   0  0  0  0  0  0  0  0  0  0  0  0
   34.3817    5.0155   12.3280 C   0  0  0  0  0  0  0  0  0  0  0  0
   34.8674    3.5757   12.6736 C   0  0  0  0  0  0  0  0  0  0  0  0
   35.5189    5.9410   11.8222 C   0  0  0  0  0  0  0  0  0  0  0  0
   35.4798    2.8961   11.4926 N   0  0  0  0  0  0  0  0  0  0  0  0
   41.4320    6.1160    8.5010 O   0  0  0  0  0  0  0  0  0  0  0  0
   37.2125   11.4174    2.0067 C   0  0  2  0  0  0  0  0  0  0  0  0
   37.5981   11.6813    0.6600 O   0  0  0  0  0  0  0  0  0  0  0  0
   39.0741    8.1247    5.2623 C   0  0  2  0  0  0  0  0  0  0  0  0
   38.3963   11.7262    2.9409 C   0  0  2  0  0  0  0  0  0  0  0  0
   38.0557   11.4571    4.3054 O   0  0  0  0  0  0  0  0  0  0  0  0
   37.9109    7.5907    6.1930 C   0  0  2  0  0  0  0  0  0  0  0  0
   37.3394    8.7219    6.9223 O   0  0  0  0  0  0  0  0  0  0  0  0
   38.8438   13.1587    2.8235 C   0  0  0  0  0  0  0  0  0  0  0  0
   40.0807   13.3263    3.4040 O   0  0  0  0  0  0  0  0  0  0  0  0
   38.5059    6.5450    7.1958 C   0  0  1  0  0  0  0  0  0  0  0  0
   37.5319    6.0317    8.0572 O   0  0  0  0  0  0  0  0  0  0  0  0
  1  2  1  6  0  0  0
  1  5  1  0  0  0  0
  1 30  1  0  0  0  0
  3  4  1  1  0  0  0
  3  7  1  0  0  0  0
  3 35  1  0  0  0  0
  5  6  1  6  0  0  0
  5 16  1  0  0  0  0
  7 19  1  0  0  0  0
  8  4  1  0  0  0  0
  8 25  2  0  0  0  0
  9  8  1  1  0  0  0
  9 10  1  0  0  0  0
  9 13  1  0  0  0  0
 10 11  1  0  0  0  0
 11 12  1  0  0  0  0
 14 15  1  0  0  0  0
 14 36  1  0  0  0  0
 15 17  1  0  0  0  0
 16 18  1  6  0  0  0
 16 26  1  0  0  0  0
 17 23  1  0  0  0  0
 19 20  1  1  0  0  0
 19 28  1  0  0  0  0
 21 22  1  0  0  0  0
 21 23  1  0  0  0  0
 22 24  1  0  0  0  0
 26 27  1  6  0  0  0
 26 29  1  0  0  0  0
 28  2  1  6  0  0  0
 28 31  1  0  0  0  0
 29 30  1  0  0  0  0
 29 33  1  1  0  0  0
 31 32  1  1  0  0  0
 31 35  1  0  0  0  0
 33 34  1  0  0  0  0
 35 36  1  1  0  0  0
M  END
>  <CHROM.1>
-115.37298060,58.18254187,126.80815117,-58.29446030,88.04917639,-109.88720476
171.06982533,-56.09214232,-84.90821260,-59.37350550,123.15401594,159.73597239
-165.32275120,63.90888145,38.39624616,7.32754344,6.48894617,1.60517862,0.33206051
-0.84875982

>  <Name>
2f4u_lig

>  <RI>
0

>  <Rbt.Current_Directory>
/home/itssahil/PROJECTS/Mol_Feturizer/New_Systems/rnas/2f4u

>  <Rbt.Executable>
rbdock ($Id: //depot/dev/client3/rdock/2013.1/src/exe/rbdock.cxx#4 $)

>  <Rbt.Library>
libRbt.so (2013.1, Build901 2013/11/27)

>  <Rbt.Parameter_File>
/export/apps/rDock/src/rDock_2013.1_src/data/scripts/dock_solv.prm

>  <Rbt.Receptor>
prm/pocket_docking_2.prm

>  <SCORE>
-1.24274

>  <SCORE.INTER>
-6.24414

>  <SCORE.INTER.CONST>
1

>  <SCORE.INTER.POLAR>
-0.979796

>  <SCORE.INTER.ROT>
14

>  <SCORE.INTER.SOLV>
17.6804

>  <SCORE.INTER.VDW>
-19.7236

>  <SCORE.INTER.norm>
-0.173448

>  <SCORE.INTRA>
2.83552

>  <SCORE.INTRA.DIHEDRAL>
-0.264476

>  <SCORE.INTRA.DIHEDRAL.0>
26.3805

>  <SCORE.INTRA.POLAR>
0

>  <SCORE.INTRA.POLAR.0>
0

>  <SCORE.INTRA.REPUL>
0

>  <SCORE.INTRA.REPUL.0>
0

>  <SCORE.INTRA.SOLV>
7.48737

>  <SCORE.INTRA.SOLV.lig_0>
-98.5587

>  <SCORE.INTRA.VDW>
-0.775933

>  <SCORE.INTRA.VDW.0>
-2.91167

>  <SCORE.INTRA.norm>
0.0787643

>  <SCORE.RESTR>
2.16589

>  <SCORE.RESTR.CAVITY>
2.16589

>  <SCORE.RESTR.norm>
0.0601636

>  <SCORE.SYSTEM>
0

>  <SCORE.SYSTEM.CONST>
0

>  <SCORE.SYSTEM.DIHEDRAL>
0

>  <SCORE.SYSTEM.SOLV>
0

>  <SCORE.SYSTEM.norm>
0

>  <SCORE.heavy>
36

>  <SCORE.norm>
-0.0345204

>  <RMSD>
3.041

$$$$
2f4u_lig
 OpenBabel11021811433D
libRbt.so/2013.1/901 2013/11/27
 36 37  0  0  0  0  0  0  0  0999 V2000
   37.9869    8.5459    5.1590 C   0  0  2  0  0  0  0  0  0  0  0  0
   38.5719    7.5391    4.2524 O   0  0  0  0  0  0  0  0  0  0  0  0
   39.4153    4.0913    6.7617 C   0  0  2  0  0  0  0  0  0  0  0  0
   40.0383    2.8221    7.2261 N   0  0  0  0  0  0  0  0  0  0  0  0
   36.4611    8.6046    4.8386 C   0  0  2  0  0  0  0  0  0  0  0  0
   35.7930    7.3019    5.0149 N   0  0  0  0  0  0  0  0  0  0  0  0
   38.7162    3.9195    5.3672 C   0  0  0  0  0  0  0  0  0  0  0  0
   41.3597    2.3168    6.1370 C   0  0  0  0  0  0  0  0  0  0  0  0
   41.3905    1.0809    6.9804 C   0  0  1  0  0  0  0  0  0  0  0  0
   42.1365    0.0060    6.1820 C   0  0  0  0  0  0  0  0  0  0  0  0
   41.4420   -0.4772    4.8953 C   0  0  0  0  0  0  0  0  0  0  0  0
   42.3005   -1.4707    4.2474 N   0  0  0  0  0  0  0  0  0  0  0  0
   42.1141    1.3138    8.1579 O   0  0  0  0  0  0  0  0  0  0  0  0
   42.0284    4.9998    8.9933 C   0  0  0  0  0  0  0  0  0  0  0  0
   41.7108    5.9499   10.1383 C   0  0  0  0  0  0  0  0  0  0  0  0
   36.2728    9.1100    3.3697 C   0  0  1  0  0  0  0  0  0  0  0  0
   40.4810    5.6104   10.8821 N   0  0  0  0  0  0  0  0  0  0  0  0
   34.8917    9.1711    3.0228 O   0  0  0  0  0  0  0  0  0  0  0  0
   38.1220    5.2529    4.8696 C   0  0  2  0  0  0  0  0  0  0  0  0
   37.5127    5.1030    3.5542 N   0  0  0  0  0  0  0  0  0  0  0  0
   38.5890    6.9529   11.7867 C   0  0  0  0  0  0  0  0  0  0  0  0
   37.2875    7.7540   11.4827 C   0  0  0  0  0  0  0  0  0  0  0  0
   39.2017    6.2795   10.5309 C   0  0  0  0  0  0  0  0  0  0  0  0
   36.7280    8.3942   12.7108 N   0  0  0  0  0  0  0  0  0  0  0  0
   41.8359    2.7142    5.2557 O   0  0  0  0  0  0  0  0  0  0  0  0
   36.9460   10.4915    3.2462 C   0  0  2  0  0  0  0  0  0  0  0  0
   36.8365   11.0365    1.9337 O   0  0  0  0  0  0  0  0  0  0  0  0
   39.2037    6.3104    4.7748 C   0  0  2  0  0  0  0  0  0  0  0  0
   38.4324   10.4145    3.6389 C   0  0  2  0  0  0  0  0  0  0  0  0
   38.5882    9.8548    4.9476 O   0  0  0  0  0  0  0  0  0  0  0  0
   39.8772    6.5181    6.1918 C   0  0  2  0  0  0  0  0  0  0  0  0
   40.9269    7.5283    6.0667 O   0  0  0  0  0  0  0  0  0  0  0  0
   39.0915   11.7675    3.6056 C   0  0  0  0  0  0  0  0  0  0  0  0
   39.1917   12.2230    2.3104 O   0  0  0  0  0  0  0  0  0  0  0  0
   40.4898    5.1563    6.6645 C   0  0  1  0  0  0  0  0  0  0  0  0
   41.1091    5.2654    7.9130 O   0  0  0  0  0  0  0  0  0  0  0  0
  1  2  1  6  0  0  0
  1  5  1  0  0  0  0
  1 30  1  0  0  0  0
  3  4  1  6  0  0  0
  3  7  1  0  0  0  0
  3 35  1  0  0  0  0
  5  6  1  6  0  0  0
  5 16  1  0  0  0  0
  7 19  1  0  0  0  0
  8  4  1  0  0  0  0
  8 25  2  0  0  0  0
  9  8  1  6  0  0  0
  9 10  1  0  0  0  0
  9 13  1  0  0  0  0
 10 11  1  0  0  0  0
 11 12  1  0  0  0  0
 14 15  1  0  0  0  0
 14 36  1  0  0  0  0
 15 17  1  0  0  0  0
 16 18  1  1  0  0  0
 16 26  1  0  0  0  0
 17 23  1  0  0  0  0
 19 20  1  6  0  0  0
 19 28  1  0  0  0  0
 21 22  1  0  0  0  0
 21 23  1  0  0  0  0
 22 24  1  0  0  0  0
 26 27  1  6  0  0  0
 26 29  1  0  0  0  0
 28  2  1  1  0  0  0
 28 31  1  0  0  0  0
 29 30  1  0  0  0  0
 29 33  1  1  0  0  0
 31 32  1  6  0  0  0
 31 35  1  0  0  0  0
 33 34  1  0  0  0  0
 35 36  1  1  0  0  0
M  END
>  <CHROM.1>
-117.10907967,64.20402870,161.99919446,-65.98648110,178.66222606,73.89002179
179.49343534,-95.84415453,-124.88081349,-179.72555738,176.38747005,90.00617589
-68.64962967,86.99305787,39.26127823,6.13996669,6.17443863,-2.91771806,-1.13156536
1.42560444

>  <Name>
2f4u_lig

>  <RI>
0

>  <Rbt.Current_Directory>
/home/itssahil/PROJECTS/Mol_Feturizer/New_Systems/rnas/2f4u

>  <Rbt.Executable>
rbdock ($Id: //depot/dev/client3/rdock/2013.1/src/exe/rbdock.cxx#4 $)

>  <Rbt.Library>
libRbt.so (2013.1, Build901 2013/11/27)

>  <Rbt.Parameter_File>
/export/apps/rDock/src/rDock_2013.1_src/data/scripts/dock_solv.prm

>  <Rbt.Receptor>
prm/pocket_docking_8.prm

>  <SCORE>
-15.9904

>  <SCORE.INTER>
-12.1408

>  <SCORE.INTER.CONST>
1

>  <SCORE.INTER.POLAR>
-1.8703

>  <SCORE.INTER.ROT>
14

>  <SCORE.INTER.SOLV>
10.7681

>  <SCORE.INTER.VDW>
-18.3823

>  <SCORE.INTER.norm>
-0.337246

>  <SCORE.INTRA>
-3.84959

>  <SCORE.INTRA.DIHEDRAL>
-8.40223

>  <SCORE.INTRA.DIHEDRAL.0>
26.3805

>  <SCORE.INTRA.POLAR>
0

>  <SCORE.INTRA.POLAR.0>
0

>  <SCORE.INTRA.REPUL>
0

>  <SCORE.INTRA.REPUL.0>
0

>  <SCORE.INTRA.SOLV>
3.7141

>  <SCORE.INTRA.SOLV.lig_0>
-98.5587

>  <SCORE.INTRA.VDW>
-1.50552

>  <SCORE.INTRA.VDW.0>
-2.91167

>  <SCORE.INTRA.norm>
-0.106933

>  <SCORE.RESTR>
0

>  <SCORE.RESTR.CAVITY>
0

>  <SCORE.RESTR.norm>
0

>  <SCORE.SYSTEM>
0

>  <SCORE.SYSTEM.CONST>
0

>  <SCORE.SYSTEM.DIHEDRAL>
0

>  <SCORE.SYSTEM.SOLV>
0

>  <SCORE.SYSTEM.norm>
0

>  <SCORE.heavy>
36

>  <SCORE.norm>
-0.444179

>  <RMSD>
3.041

$$$$
2f4u_lig
 OpenBabel11021811433D
libRbt.so/2013.1/901 2013/11/27
 36 37  0  0  0  0  0  0  0  0999 V2000
   38.1077    7.0813    5.3488 C   0  0  2  0  0  0  0  0  0  0  0  0
   39.5268    7.4863    5.3606 O   0  0  0  0  0  0  0  0  0  0  0  0
   41.6853    3.7719    6.0237 C   0  0  2  0  0  0  0  0  0  0  0  0
   42.8027    2.8476    6.3583 N   0  0  0  0  0  0  0  0  0  0  0  0
   37.3090    8.2656    4.7213 C   0  0  2  0  0  0  0  0  0  0  0  0
   37.7619    8.5971    3.3578 N   0  0  0  0  0  0  0  0  0  0  0  0
   42.0466    4.7078    4.8167 C   0  0  0  0  0  0  0  0  0  0  0  0
   44.1131    3.7049    7.2157 C   0  0  0  0  0  0  0  0  0  0  0  0
   44.8508    2.4090    7.0887 C   0  0  1  0  0  0  0  0  0  0  0  0
   46.3101    2.6787    7.4722 C   0  0  0  0  0  0  0  0  0  0  0  0
   47.2790    1.4942    7.3008 C   0  0  0  0  0  0  0  0  0  0  0  0
   48.5235    1.8044    8.0071 N   0  0  0  0  0  0  0  0  0  0  0  0
   44.3407    1.4685    7.9941 O   0  0  0  0  0  0  0  0  0  0  0  0
   40.4770    2.6587    9.0320 C   0  0  0  0  0  0  0  0  0  0  0  0
   40.5178    2.9911   10.5161 C   0  0  0  0  0  0  0  0  0  0  0  0
   37.4466    9.5163    5.6516 C   0  0  1  0  0  0  0  0  0  0  0  0
   39.2076    3.3600   11.0892 N   0  0  0  0  0  0  0  0  0  0  0  0
   36.7413   10.6327    5.1155 O   0  0  0  0  0  0  0  0  0  0  0  0
   40.9042    5.6986    4.5138 C   0  0  2  0  0  0  0  0  0  0  0  0
   41.2583    6.5974    3.4225 N   0  0  0  0  0  0  0  0  0  0  0  0
   37.0740    4.6327   10.9219 C   0  0  0  0  0  0  0  0  0  0  0  0
   36.5991    4.4262   12.3916 C   0  0  0  0  0  0  0  0  0  0  0  0
   38.6174    4.6876   10.7785 C   0  0  0  0  0  0  0  0  0  0  0  0
   35.1146    4.5342   12.5175 N   0  0  0  0  0  0  0  0  0  0  0  0
   44.2809    4.7062    7.5773 O   0  0  0  0  0  0  0  0  0  0  0  0
   36.9197    9.1362    7.0499 C   0  0  2  0  0  0  0  0  0  0  0  0
   37.0113   10.2133    7.9789 O   0  0  0  0  0  0  0  0  0  0  0  0
   40.5932    6.5364    5.7380 C   0  0  2  0  0  0  0  0  0  0  0  0
   37.6788    7.9199    7.6101 C   0  0  2  0  0  0  0  0  0  0  0  0
   37.6260    6.8181    6.6972 O   0  0  0  0  0  0  0  0  0  0  0  0
   40.1828    5.5955    6.9424 C   0  0  2  0  0  0  0  0  0  0  0  0
   39.9067    6.4278    8.1125 O   0  0  0  0  0  0  0  0  0  0  0  0
   37.1267    7.4785    8.9393 C   0  0  0  0  0  0  0  0  0  0  0  0
   35.8158    7.0793    8.8080 O   0  0  0  0  0  0  0  0  0  0  0  0
   41.3660    4.6143    7.2430 C   0  0  1  0  0  0  0  0  0  0  0  0
   41.0752    3.7519    8.3041 O   0  0  0  0  0  0  0  0  0  0  0  0
  1  2  1  1  0  0  0
  1  5  1  0  0  0  0
  1 30  1  0  0  0  0
  3  4  1  1  0  0  0
  3  7  1  0  0  0  0
  3 35  1  0  0  0  0
  5  6  1  6  0  0  0
  5 16  1  0  0  0  0
  7 19  1  0  0  0  0
  8  4  1  0  0  0  0
  8 25  2  0  0  0  0
  9  8  1  1  0  0  0
  9 10  1  0  0  0  0
  9 13  1  0  0  0  0
 10 11  1  0  0  0  0
 11 12  1  0  0  0  0
 14 15  1  0  0  0  0
 14 36  1  0  0  0  0
 15 17  1  0  0  0  0
 16 18  1  6  0  0  0
 16 26  1  0  0  0  0
 17 23  1  0  0  0  0
 19 20  1  6  0  0  0
 19 28  1  0  0  0  0
 21 22  1  0  0  0  0
 21 23  1  0  0  0  0
 22 24  1  0  0  0  0
 26 27  1  1  0  0  0
 26 29  1  0  0  0  0
 28  2  1  6  0  0  0
 28 31  1  0  0  0  0
 29 30  1  0  0  0  0
 29 33  1  1  0  0  0
 31 32  1  1  0  0  0
 31 35  1  0  0  0  0
 33 34  1  0  0  0  0
 35 36  1  1  0  0  0
M  END
>  <CHROM.1>
-172.43339742,75.31572129,168.37644398,-175.24366492,-166.16863580,106.45234916
-156.18285441,-73.76012877,154.99834772,173.46224928,67.46026968,81.86777125
62.20583697,-48.82407937,40.20086233,5.47664391,7.46934296,-2.79405651,-0.50110562
2.18344712

>  <Name>
2f4u_lig

>  <RI>
0

>  <Rbt.Current_Directory>
/home/itssahil/PROJECTS/Mol_Feturizer/New_Systems/rnas/2f4u

>  <Rbt.Executable>
rbdock ($Id: //depot/dev/client3/rdock/2013.1/src/exe/rbdock.cxx#4 $)

>  <Rbt.Library>
libRbt.so (2013.1, Build901 2013/11/27)

>  <Rbt.Parameter_File>
/export/apps/rDock/src/rDock_2013.1_src/data/scripts/dock_solv.prm

>  <Rbt.Receptor>
prm/pocket_docking_2.prm

>  <SCORE>
-1.08988

>  <SCORE.INTER>
1.52327

>  <SCORE.INTER.CONST>
1

>  <SCORE.INTER.POLAR>
-1.44631

>  <SCORE.INTER.ROT>
14

>  <SCORE.INTER.SOLV>
12.7128

>  <SCORE.INTER.VDW>
-11.3344

>  <SCORE.INTER.norm>
0.0423131

>  <SCORE.INTRA>
-6.94585

>  <SCORE.INTRA.DIHEDRAL>
-13.2322

>  <SCORE.INTRA.DIHEDRAL.0>
26.3805

>  <SCORE.INTRA.POLAR>
0

>  <SCORE.INTRA.POLAR.0>
0

>  <SCORE.INTRA.REPUL>
0

>  <SCORE.INTRA.REPUL.0>
0

>  <SCORE.INTRA.SOLV>
1.73672

>  <SCORE.INTRA.SOLV.lig_0>
-98.5587

>  <SCORE.INTRA.VDW>
-1.19812

>  <SCORE.INTRA.VDW.0>
-2.91167

>  <SCORE.INTRA.norm>
-0.19294

>  <SCORE.RESTR>
4.33271

>  <SCORE.RESTR.CAVITY>
4.33271

>  <SCORE.RESTR.norm>
0.120353

>  <SCORE.SYSTEM>
0

>  <SCORE.SYSTEM.CONST>
0

>  <SCORE.SYSTEM.DIHEDRAL>
0

>  <SCORE.SYSTEM.SOLV>
0

>  <SCORE.SYSTEM.norm>
0

>  <SCORE.heavy>
36

>  <SCORE.norm>
-0.0302744

>  <RMSD>
3.067

$$$$
2f4u_lig
 OpenBabel11021811433D
libRbt.so/2013.1/901 2013/11/27
 36 37  0  0  0  0  0  0  0  0999 V2000
   39.2993    7.8132    4.6365 C   0  0  2  0  0  0  0  0  0  0  0  0
   40.2042    7.9247    5.7970 O   0  0  0  0  0  0  0  0  0  0  0  0
   42.0567    3.9966    5.9802 C   0  0  2  0  0  0  0  0  0  0  0  0
   43.0347    2.9295    6.3260 N   0  0  0  0  0  0  0  0  0  0  0  0
   38.3884    9.0797    4.6553 C   0  0  2  0  0  0  0  0  0  0  0  0
   39.1592   10.3350    4.5893 N   0  0  0  0  0  0  0  0  0  0  0  0
   42.7321    5.1682    5.1837 C   0  0  0  0  0  0  0  0  0  0  0  0
   44.3944    3.5859    7.2788 C   0  0  0  0  0  0  0  0  0  0  0  0
   44.9742    2.2142    7.1306 C   0  0  1  0  0  0  0  0  0  0  0  0
   46.3995    2.2616    7.6923 C   0  0  0  0  0  0  0  0  0  0  0  0
   47.2106    0.9578    7.5756 C   0  0  0  0  0  0  0  0  0  0  0  0
   48.5793    1.2187    8.0255 N   0  0  0  0  0  0  0  0  0  0  0  0
   44.2463    1.2934    7.8965 O   0  0  0  0  0  0  0  0  0  0  0  0
   40.3902    2.6820    9.0653 C   0  0  0  0  0  0  0  0  0  0  0  0
   39.5307    3.5789    9.9437 C   0  0  0  0  0  0  0  0  0  0  0  0
   37.5146    9.0538    5.9532 C   0  0  1  0  0  0  0  0  0  0  0  0
   38.9997    2.9134   11.1504 N   0  0  0  0  0  0  0  0  0  0  0  0
   36.6694   10.1993    6.0238 O   0  0  0  0  0  0  0  0  0  0  0  0
   41.7229    6.2938    4.8786 C   0  0  2  0  0  0  0  0  0  0  0  0
   42.3610    7.4017    4.1788 N   0  0  0  0  0  0  0  0  0  0  0  0
   37.3541    4.2389   12.4677 C   0  0  0  0  0  0  0  0  0  0  0  0
   35.8649    4.4498   12.8752 C   0  0  0  0  0  0  0  0  0  0  0  0
   37.5602    3.0511   11.4919 C   0  0  0  0  0  0  0  0  0  0  0  0
   35.0012    4.7485   11.6937 N   0  0  0  0  0  0  0  0  0  0  0  0
   44.6643    4.5447    7.6902 O   0  0  0  0  0  0  0  0  0  0  0  0
   36.6947    7.7481    5.9551 C   0  0  2  0  0  0  0  0  0  0  0  0
   35.8673    7.6251    7.1093 O   0  0  0  0  0  0  0  0  0  0  0  0
   41.1215    6.8266    6.1637 C   0  0  2  0  0  0  0  0  0  0  0  0
   37.6183    6.5202    5.8624 C   0  0  2  0  0  0  0  0  0  0  0  0
   38.4805    6.6126    4.7230 O   0  0  0  0  0  0  0  0  0  0  0  0
   40.3991    5.6548    6.9445 C   0  0  2  0  0  0  0  0  0  0  0  0
   39.8451    6.1926    8.1863 O   0  0  0  0  0  0  0  0  0  0  0  0
   36.8367    5.2363    5.7795 C   0  0  0  0  0  0  0  0  0  0  0  0
   36.0588    5.2181    4.6439 O   0  0  0  0  0  0  0  0  0  0  0  0
   41.4485    4.5357    7.2599 C   0  0  1  0  0  0  0  0  0  0  0  0
   40.8800    3.4652    7.9564 O   0  0  0  0  0  0  0  0  0  0  0  0
  1  2  1  1  0  0  0
  1  5  1  0  0  0  0
  1 30  1  0  0  0  0
  3  4  1  1  0  0  0
  3  7  1  0  0  0  0
  3 35  1  0  0  0  0
  5  6  1  1  0  0  0
  5 16  1  0  0  0  0
  7 19  1  0  0  0  0
  8  4  1  0  0  0  0
  8 25  2  0  0  0  0
  9  8  1  1  0  0  0
  9 10  1  0  0  0  0
  9 13  1  0  0  0  0
 10 11  1  0  0  0  0
 11 12  1  0  0  0  0
 14 15  1  0  0  0  0
 14 36  1  0  0  0  0
 15 17  1  0  0  0  0
 16 18  1  6  0  0  0
 16 26  1  0  0  0  0
 17 23  1  0  0  0  0
 19 20  1  1  0  0  0
 19 28  1  0  0  0  0
 21 22  1  0  0  0  0
 21 23  1  0  0  0  0
 22 24  1  0  0  0  0
 26 27  1  1  0  0  0
 26 29  1  0  0  0  0
 28  2  1  6  0  0  0
 28 31  1  0  0  0  0
 29 30  1  0  0  0  0
 29 33  1  6  0  0  0
 31 32  1  1  0  0  0
 31 35  1  0  0  0  0
 33 34  1  0  0  0  0
 35 36  1  6  0  0  0
M  END
>  <CHROM.1>
174.00246927,57.53324577,172.64756290,-177.15697343,174.08966707,-177.93969656
46.48278865,-132.15148507,-93.27029617,-60.86507080,179.99721811,42.17017343
61.92862675,154.13860849,40.34132713,5.21613524,7.25140507,-2.73541116,-0.39368685
2.26376821

>  <Name>
2f4u_lig

>  <RI>
0

>  <Rbt.Current_Directory>
/home/itssahil/PROJECTS/Mol_Feturizer/New_Systems/rnas/2f4u

>  <Rbt.Executable>
rbdock ($Id: //depot/dev/client3/rdock/2013.1/src/exe/rbdock.cxx#4 $)

>  <Rbt.Library>
libRbt.so (2013.1, Build901 2013/11/27)

>  <Rbt.Parameter_File>
/export/apps/rDock/src/rDock_2013.1_src/data/scripts/dock_solv.prm

>  <Rbt.Receptor>
prm/pocket_docking_3.prm

>  <SCORE>
-14.5635

>  <SCORE.INTER>
-5.33915

>  <SCORE.INTER.CONST>
1

>  <SCORE.INTER.POLAR>
-2.09759

>  <SCORE.INTER.ROT>
14

>  <SCORE.INTER.SOLV>
14.4263

>  <SCORE.INTER.VDW>
-14.3096

>  <SCORE.INTER.norm>
-0.14831

>  <SCORE.INTRA>
-9.39283

>  <SCORE.INTRA.DIHEDRAL>
-18.2344

>  <SCORE.INTRA.DIHEDRAL.0>
26.3805

>  <SCORE.INTRA.POLAR>
0

>  <SCORE.INTRA.POLAR.0>
0

>  <SCORE.INTRA.REPUL>
0

>  <SCORE.INTRA.REPUL.0>
0

>  <SCORE.INTRA.SOLV>
1.24774

>  <SCORE.INTRA.SOLV.lig_0>
-98.5587

>  <SCORE.INTRA.VDW>
-0.899484

>  <SCORE.INTRA.VDW.0>
-2.91167

>  <SCORE.INTRA.norm>
-0.260912

>  <SCORE.RESTR>
0.168488

>  <SCORE.RESTR.CAVITY>
0.168488

>  <SCORE.RESTR.norm>
0.00468022

>  <SCORE.SYSTEM>
0

>  <SCORE.SYSTEM.CONST>
0

>  <SCORE.SYSTEM.DIHEDRAL>
0

>  <SCORE.SYSTEM.SOLV>
0

>  <SCORE.SYSTEM.norm>
0

>  <SCORE.heavy>
36

>  <SCORE.norm>
-0.404542

>  <RMSD>
3.098

$$$$
2f4u_lig
 OpenBabel11021811433D
libRbt.so/2013.1/901 2013/11/27
 36 37  0  0  0  0  0  0  0  0999 V2000
   37.8585    9.3755    5.3253 C   0  0  2  0  0  0  0  0  0  0  0  0
   38.7037    8.3289    4.7185 O   0  0  0  0  0  0  0  0  0  0  0  0
   42.2634    6.0678    5.7728 C   0  0  2  0  0  0  0  0  0  0  0  0
   43.6185    5.7687    6.3104 N   0  0  0  0  0  0  0  0  0  0  0  0
   36.3985    9.1065    4.8456 C   0  0  2  0  0  0  0  0  0  0  0  0
   35.9131    7.7671    5.2259 N   0  0  0  0  0  0  0  0  0  0  0  0
   42.3113    7.1686    4.6551 C   0  0  0  0  0  0  0  0  0  0  0  0
   44.7249    5.2422    5.0119 C   0  0  0  0  0  0  0  0  0  0  0  0
   45.6844    4.9812    6.1303 C   0  0  1  0  0  0  0  0  0  0  0  0
   46.2330    3.5633    5.9351 C   0  0  0  0  0  0  0  0  0  0  0  0
   47.2022    3.0632    7.0223 C   0  0  0  0  0  0  0  0  0  0  0  0
   46.5089    3.0883    8.3117 N   0  0  0  0  0  0  0  0  0  0  0  0
   46.7667    5.8688    6.0594 O   0  0  0  0  0  0  0  0  0  0  0  0
   41.1181    4.8975    9.1606 C   0  0  0  0  0  0  0  0  0  0  0  0
   41.5565    3.4447    9.0521 C   0  0  0  0  0  0  0  0  0  0  0  0
   36.3382    9.2781    3.2914 C   0  0  1  0  0  0  0  0  0  0  0  0
   40.7645    2.6441    8.0966 N   0  0  0  0  0  0  0  0  0  0  0  0
   35.0232    9.0315    2.8001 O   0  0  0  0  0  0  0  0  0  0  0  0
   40.8970    7.5107    4.1440 C   0  0  2  0  0  0  0  0  0  0  0  0
   40.9380    8.5651    3.1385 N   0  0  0  0  0  0  0  0  0  0  0  0
   41.3410    0.2589    7.6741 C   0  0  0  0  0  0  0  0  0  0  0  0
   42.0898   -0.7698    6.7745 C   0  0  0  0  0  0  0  0  0  0  0  0
   41.4567    1.7187    7.1628 C   0  0  0  0  0  0  0  0  0  0  0  0
   43.5619   -0.5176    6.7468 N   0  0  0  0  0  0  0  0  0  0  0  0
   44.6668    5.1202    3.9427 O   0  0  0  0  0  0  0  0  0  0  0  0
   36.8099   10.7049    2.9462 C   0  0  2  0  0  0  0  0  0  0  0  0
   36.7997   10.9585    1.5437 O   0  0  0  0  0  0  0  0  0  0  0  0
   40.0207    7.9790    5.2885 C   0  0  2  0  0  0  0  0  0  0  0  0
   38.2242   10.9632    3.4961 C   0  0  2  0  0  0  0  0  0  0  0  0
   38.2824   10.7026    4.9028 O   0  0  0  0  0  0  0  0  0  0  0  0
   39.9335    6.8505    6.3945 C   0  0  2  0  0  0  0  0  0  0  0  0
   39.0986    7.3357    7.4925 O   0  0  0  0  0  0  0  0  0  0  0  0
   38.6740   12.3774    3.2433 C   0  0  0  0  0  0  0  0  0  0  0  0
   40.0233   12.5044    3.4848 O   0  0  0  0  0  0  0  0  0  0  0  0
   41.3785    6.5366    6.9110 C   0  0  1  0  0  0  0  0  0  0  0  0
   41.3788    5.5472    7.8986 O   0  0  0  0  0  0  0  0  0  0  0  0
  1  2  1  6  0  0  0
  1  5  1  0  0  0  0
  1 30  1  0  0  0  0
  3  4  1  1  0  0  0
  3  7  1  0  0  0  0
  3 35  1  0  0  0  0
  5  6  1  6  0  0  0
  5 16  1  0  0  0  0
  7 19  1  0  0  0  0
  8  4  1  0  0  0  0
  8 25  2  0  0  0  0
  9  8  1  6  0  0  0
  9 10  1  0  0  0  0
  9 13  1  0  0  0  0
 10 11  1  0  0  0  0
 11 12  1  0  0  0  0
 14 15  1  0  0  0  0
 14 36  1  0  0  0  0
 15 17  1  0  0  0  0
 16 18  1  1  0  0  0
 16 26  1  0  0  0  0
 17 23  1  0  0  0  0
 19 20  1  6  0  0  0
 19 28  1  0  0  0  0
 21 22  1  0  0  0  0
 21 23  1  0  0  0  0
 22 24  1  0  0  0  0
 26 27  1  6  0  0  0
 26 29  1  0  0  0  0
 28  2  1  6  0  0  0
 28 31  1  0  0  0  0
 29 30  1  0  0  0  0
 29 33  1  1  0  0  0
 31 32  1  1  0  0  0
 31 35  1  0  0  0  0
 33 34  1  0  0  0  0
 35 36  1  1  0  0  0
M  END
>  <CHROM.1>
-158.80613847,-57.63818335,130.31241418,-177.40269121,59.26379494,-65.87150204
172.32804231,136.10636507,101.78716262,63.08528398,-177.83820205,-149.98352170
-167.39033481,173.10654721,40.94356231,6.50890540,5.56786938,2.25006103,0.04791088
-0.46394972

>  <Name>
2f4u_lig

>  <RI>
0

>  <Rbt.Current_Directory>
/home/itssahil/PROJECTS/Mol_Feturizer/New_Systems/rnas/2f4u

>  <Rbt.Executable>
rbdock ($Id: //depot/dev/client3/rdock/2013.1/src/exe/rbdock.cxx#4 $)

>  <Rbt.Library>
libRbt.so (2013.1, Build901 2013/11/27)

>  <Rbt.Parameter_File>
/export/apps/rDock/src/rDock_2013.1_src/data/scripts/dock_solv.prm

>  <Rbt.Receptor>
prm/pocket_docking_5.prm

>  <SCORE>
-23.0295

>  <SCORE.INTER>
-14.7545

>  <SCORE.INTER.CONST>
1

>  <SCORE.INTER.POLAR>
-1.25432

>  <SCORE.INTER.ROT>
14

>  <SCORE.INTER.SOLV>
21.5112

>  <SCORE.INTER.VDW>
-25.759

>  <SCORE.INTER.norm>
-0.409847

>  <SCORE.INTRA>
-8.27496

>  <SCORE.INTRA.DIHEDRAL>
-15.2308

>  <SCORE.INTRA.DIHEDRAL.0>
26.3805

>  <SCORE.INTRA.POLAR>
0

>  <SCORE.INTRA.POLAR.0>
0

>  <SCORE.INTRA.REPUL>
0

>  <SCORE.INTRA.REPUL.0>
0

>  <SCORE.INTRA.SOLV>
2.33044

>  <SCORE.INTRA.SOLV.lig_0>
-98.5587

>  <SCORE.INTRA.VDW>
-1.8248

>  <SCORE.INTRA.VDW.0>
-2.91167

>  <SCORE.INTRA.norm>
-0.22986

>  <SCORE.RESTR>
0

>  <SCORE.RESTR.CAVITY>
0

>  <SCORE.RESTR.norm>
0

>  <SCORE.SYSTEM>
0

>  <SCORE.SYSTEM.CONST>
0

>  <SCORE.SYSTEM.DIHEDRAL>
0

>  <SCORE.SYSTEM.SOLV>
0

>  <SCORE.SYSTEM.norm>
0

>  <SCORE.heavy>
36

>  <SCORE.norm>
-0.639707

>  <RMSD>
3.158

$$$$
2f4u_lig
 OpenBabel11021811433D
libRbt.so/2013.1/901 2013/11/27
 36 37  0  0  0  0  0  0  0  0999 V2000
   37.7421   10.7453    4.0964 C   0  0  2  0  0  0  0  0  0  0  0  0
   38.8122    9.7567    3.8608 O   0  0  0  0  0  0  0  0  0  0  0  0
   40.1393    6.7251    6.6792 C   0  0  2  0  0  0  0  0  0  0  0  0
   40.9077    6.0847    7.7812 N   0  0  0  0  0  0  0  0  0  0  0  0
   36.3931   10.0308    3.7740 C   0  0  2  0  0  0  0  0  0  0  0  0
   36.1754    8.8287    4.5997 N   0  0  0  0  0  0  0  0  0  0  0  0
   41.0805    7.2155    5.5230 C   0  0  0  0  0  0  0  0  0  0  0  0
   41.4329    4.4394    7.3289 C   0  0  0  0  0  0  0  0  0  0  0  0
   41.9062    4.3548    8.7461 C   0  0  1  0  0  0  0  0  0  0  0  0
   41.5834    2.9429    9.2481 C   0  0  0  0  0  0  0  0  0  0  0  0
   40.0971    2.6538    9.5283 C   0  0  0  0  0  0  0  0  0  0  0  0
   39.4115    2.4580    8.2494 N   0  0  0  0  0  0  0  0  0  0  0  0
   43.2968    4.5188    8.8048 O   0  0  0  0  0  0  0  0  0  0  0  0
   37.6081    6.6169    8.9923 C   0  0  0  0  0  0  0  0  0  0  0  0
   37.2471    7.3164   10.2942 C   0  0  0  0  0  0  0  0  0  0  0  0
   36.3736    9.6503    2.2563 C   0  0  1  0  0  0  0  0  0  0  0  0
   38.4068    7.6329   11.1520 N   0  0  0  0  0  0  0  0  0  0  0  0
   35.1623    8.9827    1.9118 O   0  0  0  0  0  0  0  0  0  0  0  0
   40.2806    7.9266    4.4124 C   0  0  2  0  0  0  0  0  0  0  0  0
   41.1600    8.4218    3.3609 N   0  0  0  0  0  0  0  0  0  0  0  0
   39.1730    6.0402   12.9059 C   0  0  0  0  0  0  0  0  0  0  0  0
   38.5473    4.7507   12.2945 C   0  0  0  0  0  0  0  0  0  0  0  0
   38.3533    7.3218   12.6039 C   0  0  0  0  0  0  0  0  0  0  0  0
   37.1837    4.4802   12.8413 N   0  0  0  0  0  0  0  0  0  0  0  0
   41.3622    3.8134    6.4545 O   0  0  0  0  0  0  0  0  0  0  0  0
   36.5583   10.9415    1.4342 C   0  0  2  0  0  0  0  0  0  0  0  0
   36.5635   10.6981    0.0298 O   0  0  0  0  0  0  0  0  0  0  0  0
   39.5139    9.1024    4.9840 C   0  0  2  0  0  0  0  0  0  0  0  0
   37.8614   11.6604    1.8272 C   0  0  2  0  0  0  0  0  0  0  0  0
   37.9043   11.9089    3.2367 O   0  0  0  0  0  0  0  0  0  0  0  0
   38.5299    8.6017    6.1177 C   0  0  2  0  0  0  0  0  0  0  0  0
   37.8182    9.7570    6.6626 O   0  0  0  0  0  0  0  0  0  0  0  0
   38.0229   12.9667    1.0967 C   0  0  0  0  0  0  0  0  0  0  0  0
   38.0985   12.7533   -0.2612 O   0  0  0  0  0  0  0  0  0  0  0  0
   39.3678    7.9027    7.2414 C   0  0  1  0  0  0  0  0  0  0  0  0
   38.5611    7.4370    8.2839 O   0  0  0  0  0  0  0  0  0  0  0  0
  1  2  1  6  0  0  0
  1  5  1  0  0  0  0
  1 30  1  0  0  0  0
  3  4  1  1  0  0  0
  3  7  1  0  0  0  0
  3 35  1  0  0  0  0
  5  6  1  1  0  0  0
  5 16  1  0  0  0  0
  7 19  1  0  0  0  0
  8  4  1  0  0  0  0
  8 25  2  0  0  0  0
  9  8  1  6  0  0  0
  9 10  1  0  0  0  0
  9 13  1  0  0  0  0
 10 11  1  0  0  0  0
 11 12  1  0  0  0  0
 14 15  1  0  0  0  0
 14 36  1  0  0  0  0
 15 17  1  0  0  0  0
 16 18  1  6  0  0  0
 16 26  1  0  0  0  0
 17 23  1  0  0  0  0
 19 20  1  6  0  0  0
 19 28  1  0  0  0  0
 21 22  1  0  0  0  0
 21 23  1  0  0  0  0
 22 24  1  0  0  0  0
 26 27  1  6  0  0  0
 26 29  1  0  0  0  0
 28  2  1  6  0  0  0
 28 31  1  0  0  0  0
 29 30  1  0  0  0  0
 29 33  1  6  0  0  0
 31 32  1  1  0  0  0
 31 35  1  0  0  0  0
 33 34  1  0  0  0  0
 35 36  1  1  0  0  0
M  END
>  <CHROM.1>
-105.28300420,-76.06035430,140.32477357,-73.01651152,76.23813781,-55.98272342
-168.64646043,-133.51930309,102.79983379,-61.33794828,-67.38281658,166.22101897
-62.00930479,-49.85919686,38.83805031,7.73415659,6.30475294,1.86988967,0.71370992
-1.13568227

>  <Name>
2f4u_lig

>  <RI>
0

>  <Rbt.Current_Directory>
/home/itssahil/PROJECTS/Mol_Feturizer/New_Systems/rnas/2f4u

>  <Rbt.Executable>
rbdock ($Id: //depot/dev/client3/rdock/2013.1/src/exe/rbdock.cxx#4 $)

>  <Rbt.Library>
libRbt.so (2013.1, Build901 2013/11/27)

>  <Rbt.Parameter_File>
/export/apps/rDock/src/rDock_2013.1_src/data/scripts/dock_solv.prm

>  <Rbt.Receptor>
prm/pocket_docking_4.prm

>  <SCORE>
-17.9657

>  <SCORE.INTER>
-14.5424

>  <SCORE.INTER.CONST>
1

>  <SCORE.INTER.POLAR>
-1.01122

>  <SCORE.INTER.ROT>
14

>  <SCORE.INTER.SOLV>
21.6479

>  <SCORE.INTER.VDW>
-26.4735

>  <SCORE.INTER.norm>
-0.403957

>  <SCORE.INTRA>
-3.42715

>  <SCORE.INTRA.DIHEDRAL>
-12.1952

>  <SCORE.INTRA.DIHEDRAL.0>
26.3805

>  <SCORE.INTRA.POLAR>
0

>  <SCORE.INTRA.POLAR.0>
0

>  <SCORE.INTRA.REPUL>
0.00463747

>  <SCORE.INTRA.REPUL.0>
0

>  <SCORE.INTRA.SOLV>
7.55559

>  <SCORE.INTRA.SOLV.lig_0>
-98.5587

>  <SCORE.INTRA.VDW>
-1.13055

>  <SCORE.INTRA.VDW.0>
-2.91167

>  <SCORE.INTRA.norm>
-0.0951985

>  <SCORE.RESTR>
0.00387914

>  <SCORE.RESTR.CAVITY>
0.00387914

>  <SCORE.RESTR.norm>
0.000107754

>  <SCORE.SYSTEM>
0

>  <SCORE.SYSTEM.CONST>
0

>  <SCORE.SYSTEM.DIHEDRAL>
0

>  <SCORE.SYSTEM.SOLV>
0

>  <SCORE.SYSTEM.norm>
0

>  <SCORE.heavy>
36

>  <SCORE.norm>
-0.499047

>  <RMSD>
3.226

$$$$
2f4u_lig
 OpenBabel11021811433D
libRbt.so/2013.1/901 2013/11/27
 36 37  0  0  0  0  0  0  0  0999 V2000
   36.8131   10.0396    4.3054 C   0  0  2  0  0  0  0  0  0  0  0  0
   37.6765    8.8608    4.0984 O   0  0  0  0  0  0  0  0  0  0  0  0
   38.6453    6.2432    7.4308 C   0  0  2  0  0  0  0  0  0  0  0  0
   39.4336    5.6000    8.5170 N   0  0  0  0  0  0  0  0  0  0  0  0
   35.9385   10.1853    3.0216 C   0  0  2  0  0  0  0  0  0  0  0  0
   35.1208    8.9882    2.7523 N   0  0  0  0  0  0  0  0  0  0  0  0
   39.3168    6.0402    6.0268 C   0  0  0  0  0  0  0  0  0  0  0  0
   41.1666    6.0076    8.3834 C   0  0  0  0  0  0  0  0  0  0  0  0
   41.3369    5.0291    9.5029 C   0  0  1  0  0  0  0  0  0  0  0  0
   42.3417    3.9718    9.0317 C   0  0  0  0  0  0  0  0  0  0  0  0
   41.8464    3.0207    7.9265 C   0  0  0  0  0  0  0  0  0  0  0  0
   42.7400    1.8620    7.8742 N   0  0  0  0  0  0  0  0  0  0  0  0
   41.8846    5.6650   10.6253 O   0  0  0  0  0  0  0  0  0  0  0  0
   36.9956    7.7293   10.0683 C   0  0  0  0  0  0  0  0  0  0  0  0
   36.8691    6.2515   10.4070 C   0  0  0  0  0  0  0  0  0  0  0  0
   36.8753   10.4808    1.8035 C   0  0  1  0  0  0  0  0  0  0  0  0
   35.9500    5.9646   11.5268 N   0  0  0  0  0  0  0  0  0  0  0  0
   36.1233   10.6122    0.5999 O   0  0  0  0  0  0  0  0  0  0  0  0
   38.5222    6.7570    4.9163 C   0  0  2  0  0  0  0  0  0  0  0  0
   39.1707    6.6064    3.6197 N   0  0  0  0  0  0  0  0  0  0  0  0
   35.5108    3.5995   12.1700 C   0  0  0  0  0  0  0  0  0  0  0  0
   35.9697    2.9285   10.8406 C   0  0  0  0  0  0  0  0  0  0  0  0
   36.2918    4.8976   12.5027 C   0  0  0  0  0  0  0  0  0  0  0  0
   37.3624    2.3972   10.9367 N   0  0  0  0  0  0  0  0  0  0  0  0
   41.7733    6.6232    7.7397 O   0  0  0  0  0  0  0  0  0  0  0  0
   37.6743   11.7630    2.1110 C   0  0  2  0  0  0  0  0  0  0  0  0
   38.5693   12.1138    1.0585 O   0  0  0  0  0  0  0  0  0  0  0  0
   38.4066    8.2373    5.2209 C   0  0  2  0  0  0  0  0  0  0  0  0
   38.4688   11.6135    3.4209 C   0  0  2  0  0  0  0  0  0  0  0  0
   37.6073   11.2435    4.5031 O   0  0  0  0  0  0  0  0  0  0  0  0
   37.6868    8.4438    6.6151 C   0  0  2  0  0  0  0  0  0  0  0  0
   37.6055    9.8774    6.8911 O   0  0  0  0  0  0  0  0  0  0  0  0
   39.1922   12.8823    3.7854 C   0  0  0  0  0  0  0  0  0  0  0  0
   40.2498   13.0966    2.9306 O   0  0  0  0  0  0  0  0  0  0  0  0
   38.5233    7.7249    7.7271 C   0  0  1  0  0  0  0  0  0  0  0  0
   37.9473    7.8700    8.9925 O   0  0  0  0  0  0  0  0  0  0  0  0
  1  2  1  6  0  0  0
  1  5  1  0  0  0  0
  1 30  1  0  0  0  0
  3  4  1  1  0  0  0
  3  7  1  0  0  0  0
  3 35  1  0  0  0  0
  5  6  1  6  0  0  0
  5 16  1  0  0  0  0
  7 19  1  0  0  0  0
  8  4  1  0  0  0  0
  8 25  2  0  0  0  0
  9  8  1  6  0  0  0
  9 10  1  0  0  0  0
  9 13  1  0  0  0  0
 10 11  1  0  0  0  0
 11 12  1  0  0  0  0
 14 15  1  0  0  0  0
 14 36  1  0  0  0  0
 15 17  1  0  0  0  0
 16 18  1  6  0  0  0
 16 26  1  0  0  0  0
 17 23  1  0  0  0  0
 19 20  1  6  0  0  0
 19 28  1  0  0  0  0
 21 22  1  0  0  0  0
 21 23  1  0  0  0  0
 22 24  1  0  0  0  0
 26 27  1  6  0  0  0
 26 29  1  0  0  0  0
 28  2  1  6  0  0  0
 28 31  1  0  0  0  0
 29 30  1  0  0  0  0
 29 33  1  1  0  0  0
 31 32  1  1  0  0  0
 31 35  1  0  0  0  0
 33 34  1  0  0  0  0
 35 36  1  1  0  0  0
M  END
>  <CHROM.1>
-165.57778246,47.39971855,123.86181005,-69.68829960,-163.52478665,178.28051744
61.22467122,-141.69019696,-100.09816936,67.00865750,68.26151708,148.89290653
-71.40172698,-55.65716658,38.44408854,7.58399702,6.64197436,1.69177252,0.33976024
-0.88124974

>  <Name>
2f4u_lig

>  <RI>
0

>  <Rbt.Current_Directory>
/home/itssahil/PROJECTS/Mol_Feturizer/New_Systems/rnas/2f4u

>  <Rbt.Executable>
rbdock ($Id: //depot/dev/client3/rdock/2013.1/src/exe/rbdock.cxx#4 $)

>  <Rbt.Library>
libRbt.so (2013.1, Build901 2013/11/27)

>  <Rbt.Parameter_File>
/export/apps/rDock/src/rDock_2013.1_src/data/scripts/dock_solv.prm

>  <Rbt.Receptor>
prm/pocket_docking_6.prm

>  <SCORE>
-22.1875

>  <SCORE.INTER>
-14.8726

>  <SCORE.INTER.CONST>
1

>  <SCORE.INTER.POLAR>
-2.58971

>  <SCORE.INTER.ROT>
14

>  <SCORE.INTER.SOLV>
23.0538

>  <SCORE.INTER.VDW>
-21.9007

>  <SCORE.INTER.norm>
-0.413128

>  <SCORE.INTRA>
-7.31484

>  <SCORE.INTRA.DIHEDRAL>
-14.9833

>  <SCORE.INTRA.DIHEDRAL.0>
26.3805

>  <SCORE.INTRA.POLAR>
0

>  <SCORE.INTRA.POLAR.0>
0

>  <SCORE.INTRA.REPUL>
0

>  <SCORE.INTRA.REPUL.0>
0

>  <SCORE.INTRA.SOLV>
1.26407

>  <SCORE.INTRA.SOLV.lig_0>
-98.5587

>  <SCORE.INTRA.VDW>
-0.455215

>  <SCORE.INTRA.VDW.0>
-2.91167

>  <SCORE.INTRA.norm>
-0.20319

>  <SCORE.RESTR>
0

>  <SCORE.RESTR.CAVITY>
0

>  <SCORE.RESTR.norm>
0

>  <SCORE.SYSTEM>
0

>  <SCORE.SYSTEM.CONST>
0

>  <SCORE.SYSTEM.DIHEDRAL>
0

>  <SCORE.SYSTEM.SOLV>
0

>  <SCORE.SYSTEM.norm>
0

>  <SCORE.heavy>
36

>  <SCORE.norm>
-0.616318

>  <RMSD>
3.306

$$$$
2f4u_lig
 OpenBabel11021811433D
libRbt.so/2013.1/901 2013/11/27
 36 37  0  0  0  0  0  0  0  0999 V2000
   36.2102    7.6272    7.7248 C   0  0  2  0  0  0  0  0  0  0  0  0
   36.6730    6.2788    7.3435 O   0  0  0  0  0  0  0  0  0  0  0  0
   40.5308    4.3178    7.7522 C   0  0  2  0  0  0  0  0  0  0  0  0
   41.9692    4.0073    7.5298 N   0  0  0  0  0  0  0  0  0  0  0  0
   34.6644    7.6466    7.5141 C   0  0  2  0  0  0  0  0  0  0  0  0
   33.9695    6.6186    8.3107 N   0  0  0  0  0  0  0  0  0  0  0  0
   39.6958    4.1826    6.4303 C   0  0  0  0  0  0  0  0  0  0  0  0
   42.7136    5.1751    6.4030 C   0  0  0  0  0  0  0  0  0  0  0  0
   43.9109    4.2818    6.4930 C   0  0  1  0  0  0  0  0  0  0  0  0
   44.6111    4.3240    5.1301 C   0  0  0  0  0  0  0  0  0  0  0  0
   45.2553    5.6695    4.7480 C   0  0  0  0  0  0  0  0  0  0  0  0
   45.9946    5.4932    3.4964 N   0  0  0  0  0  0  0  0  0  0  0  0
   44.8118    4.7712    7.4486 O   0  0  0  0  0  0  0  0  0  0  0  0
   41.7238    6.3628   10.6734 C   0  0  0  0  0  0  0  0  0  0  0  0
   40.7904    5.9814   11.8128 C   0  0  0  0  0  0  0  0  0  0  0  0
   34.3598    7.4438    5.9927 C   0  0  1  0  0  0  0  0  0  0  0  0
   39.4178    6.5077   11.6716 N   0  0  0  0  0  0  0  0  0  0  0  0
   32.9557    7.4427    5.7479 O   0  0  0  0  0  0  0  0  0  0  0  0
   38.2180    4.5598    6.6594 C   0  0  2  0  0  0  0  0  0  0  0  0
   37.4526    4.4778    5.4218 N   0  0  0  0  0  0  0  0  0  0  0  0
   38.4292    5.5143   13.7298 C   0  0  0  0  0  0  0  0  0  0  0  0
   37.7548    4.3533   12.9388 C   0  0  0  0  0  0  0  0  0  0  0  0
   38.6157    6.8029   12.8870 C   0  0  0  0  0  0  0  0  0  0  0  0
   36.4140    4.7453   12.4097 N   0  0  0  0  0  0  0  0  0  0  0  0
   42.3938    6.0587    5.8754 O   0  0  0  0  0  0  0  0  0  0  0  0
   35.0676    8.5655    5.2066 C   0  0  2  0  0  0  0  0  0  0  0  0
   34.8571    8.4629    3.8006 O   0  0  0  0  0  0  0  0  0  0  0  0
   38.1106    5.9747    7.1921 C   0  0  2  0  0  0  0  0  0  0  0  0
   36.5801    8.5654    5.4924 C   0  0  2  0  0  0  0  0  0  0  0  0
   36.8357    8.6498    6.8987 O   0  0  0  0  0  0  0  0  0  0  0  0
   38.9134    6.0995    8.5501 C   0  0  2  0  0  0  0  0  0  0  0  0
   38.8078    7.4764    9.0307 O   0  0  0  0  0  0  0  0  0  0  0  0
   37.2811    9.7037    4.8003 C   0  0  0  0  0  0  0  0  0  0  0  0
   38.6285    9.6823    5.0817 O   0  0  0  0  0  0  0  0  0  0  0  0
   40.4128    5.7317    8.2863 C   0  0  1  0  0  0  0  0  0  0  0  0
   41.1875    5.8251    9.4462 O   0  0  0  0  0  0  0  0  0  0  0  0
  1  2  1  6  0  0  0
  1  5  1  0  0  0  0
  1 30  1  0  0  0  0
  3  4  1  6  0  0  0
  3  7  1  0  0  0  0
  3 35  1  0  0  0  0
  5  6  1  1  0  0  0
  5 16  1  0  0  0  0
  7 19  1  0  0  0  0
  8  4  1  0  0  0  0
  8 25  2  0  0  0  0
  9  8  1  6  0  0  0
  9 10  1  0  0  0  0
  9 13  1  0  0  0  0
 10 11  1  0  0  0  0
 11 12  1  0  0  0  0
 14 15  1  0  0  0  0
 14 36  1  0  0  0  0
 15 17  1  0  0  0  0
 16 18  1  1  0  0  0
 16 26  1  0  0  0  0
 17 23  1  0  0  0  0
 19 20  1  6  0  0  0
 19 28  1  0  0  0  0
 21 22  1  0  0  0  0
 21 23  1  0  0  0  0
 22 24  1  0  0  0  0
 26 27  1  6  0  0  0
 26 29  1  0  0  0  0
 28  2  1  1  0  0  0
 28 31  1  0  0  0  0
 29 30  1  0  0  0  0
 29 33  1  6  0  0  0
 31 32  1  6  0  0  0
 31 35  1  0  0  0  0
 33 34  1  0  0  0  0
 35 36  1  1  0  0  0
M  END
>  <CHROM.1>
169.13875995,63.45921617,147.00738307,67.38930866,174.04179791,-60.75650933
84.72429756,-150.69369616,-60.12604395,-58.14417236,-57.32406892,-174.21475211
179.59543917,-168.19707249,39.05520659,6.29340793,7.65217289,-3.11284210
-0.29146256,1.79497621

>  <Name>
2f4u_lig

>  <RI>
0

>  <Rbt.Current_Directory>
/home/itssahil/PROJECTS/Mol_Feturizer/New_Systems/rnas/2f4u

>  <Rbt.Executable>
rbdock ($Id: //depot/dev/client3/rdock/2013.1/src/exe/rbdock.cxx#4 $)

>  <Rbt.Library>
libRbt.so (2013.1, Build901 2013/11/27)

>  <Rbt.Parameter_File>
/export/apps/rDock/src/rDock_2013.1_src/data/scripts/dock_solv.prm

>  <Rbt.Receptor>
prm/pocket_docking_5.prm

>  <SCORE>
-20.236

>  <SCORE.INTER>
-10.8887

>  <SCORE.INTER.CONST>
1

>  <SCORE.INTER.POLAR>
-1.31863

>  <SCORE.INTER.ROT>
14

>  <SCORE.INTER.SOLV>
11.7734

>  <SCORE.INTER.VDW>
-19.7215

>  <SCORE.INTER.norm>
-0.302463

>  <SCORE.INTRA>
-9.34734

>  <SCORE.INTRA.DIHEDRAL>
-19.7372

>  <SCORE.INTRA.DIHEDRAL.0>
26.3805

>  <SCORE.INTRA.POLAR>
0

>  <SCORE.INTRA.POLAR.0>
0

>  <SCORE.INTRA.REPUL>
0

>  <SCORE.INTRA.REPUL.0>
0

>  <SCORE.INTRA.SOLV>
3.2453

>  <SCORE.INTRA.SOLV.lig_0>
-98.5587

>  <SCORE.INTRA.VDW>
-1.10141

>  <SCORE.INTRA.VDW.0>
-2.91167

>  <SCORE.INTRA.norm>
-0.259648

>  <SCORE.RESTR>
0

>  <SCORE.RESTR.CAVITY>
0

>  <SCORE.RESTR.norm>
0

>  <SCORE.SYSTEM>
0

>  <SCORE.SYSTEM.CONST>
0

>  <SCORE.SYSTEM.DIHEDRAL>
0

>  <SCORE.SYSTEM.SOLV>
0

>  <SCORE.SYSTEM.norm>
0

>  <SCORE.heavy>
36

>  <SCORE.norm>
-0.562111

>  <RMSD>
3.345

$$$$
2f4u_lig
 OpenBabel11021811433D
libRbt.so/2013.1/901 2013/11/27
 36 37  0  0  0  0  0  0  0  0999 V2000
   39.3998    8.0120    4.3293 C   0  0  2  0  0  0  0  0  0  0  0  0
   39.5993    8.0108    5.7915 O   0  0  0  0  0  0  0  0  0  0  0  0
   41.4731    4.1559    6.5157 C   0  0  2  0  0  0  0  0  0  0  0  0
   42.2341    3.0827    7.2113 N   0  0  0  0  0  0  0  0  0  0  0  0
   38.6065    9.3109    3.9863 C   0  0  2  0  0  0  0  0  0  0  0  0
   39.3097   10.5351    4.4116 N   0  0  0  0  0  0  0  0  0  0  0  0
   42.3418    5.4474    6.3142 C   0  0  0  0  0  0  0  0  0  0  0  0
   43.7620    2.7218    6.3611 C   0  0  0  0  0  0  0  0  0  0  0  0
   43.8868    1.6102    7.3553 C   0  0  1  0  0  0  0  0  0  0  0  0
   43.7345    0.2939    6.5848 C   0  0  0  0  0  0  0  0  0  0  0  0
   42.3332    0.0090    6.0135 C   0  0  0  0  0  0  0  0  0  0  0  0
   42.3546   -1.3003    5.3583 N   0  0  0  0  0  0  0  0  0  0  0  0
   45.1628    1.6176    7.9351 O   0  0  0  0  0  0  0  0  0  0  0  0
   39.2055    1.9561    7.8862 C   0  0  0  0  0  0  0  0  0  0  0  0
   39.4820    1.7878    9.3728 C   0  0  0  0  0  0  0  0  0  0  0  0
   37.1988    9.2368    4.6657 C   0  0  1  0  0  0  0  0  0  0  0  0
   38.4243    2.3297   10.2495 N   0  0  0  0  0  0  0  0  0  0  0  0
   36.4359   10.4090    4.3911 O   0  0  0  0  0  0  0  0  0  0  0  0
   41.5274    6.5719    5.6427 C   0  0  2  0  0  0  0  0  0  0  0  0
   42.3209    7.7857    5.4969 N   0  0  0  0  0  0  0  0  0  0  0  0
   37.5315    3.6549   12.1592 C   0  0  0  0  0  0  0  0  0  0  0  0
   37.8441    4.6136   13.3472 C   0  0  0  0  0  0  0  0  0  0  0  0
   38.7733    3.3346   11.2868 C   0  0  0  0  0  0  0  0  0  0  0  0
   38.2457    5.9727   12.8751 N   0  0  0  0  0  0  0  0  0  0  0  0
   44.2812    3.1057    5.4983 O   0  0  0  0  0  0  0  0  0  0  0  0
   36.4851    7.9685    4.1567 C   0  0  2  0  0  0  0  0  0  0  0  0
   35.1895    7.8050    4.7280 O   0  0  0  0  0  0  0  0  0  0  0  0
   40.3010    6.9020    6.4699 C   0  0  2  0  0  0  0  0  0  0  0  0
   37.3266    6.7123    4.4452 C   0  0  2  0  0  0  0  0  0  0  0  0
   38.6449    6.8429    3.9018 O   0  0  0  0  0  0  0  0  0  0  0  0
   39.4004    5.6111    6.6336 C   0  0  2  0  0  0  0  0  0  0  0  0
   38.2363    5.9538    7.4493 O   0  0  0  0  0  0  0  0  0  0  0  0
   36.6888    5.4695    3.8840 C   0  0  0  0  0  0  0  0  0  0  0  0
   37.5295    4.3891    4.0285 O   0  0  0  0  0  0  0  0  0  0  0  0
   40.2431    4.4928    7.3354 C   0  0  1  0  0  0  0  0  0  0  0  0
   39.5068    3.3187    7.5186 O   0  0  0  0  0  0  0  0  0  0  0  0
  1  2  1  1  0  0  0
  1  5  1  0  0  0  0
  1 30  1  0  0  0  0
  3  4  1  1  0  0  0
  3  7  1  0  0  0  0
  3 35  1  0  0  0  0
  5  6  1  1  0  0  0
  5 16  1  0  0  0  0
  7 19  1  0  0  0  0
  8  4  1  0  0  0  0
  8 25  2  0  0  0  0
  9  8  1  6  0  0  0
  9 10  1  0  0  0  0
  9 13  1  0  0  0  0
 10 11  1  0  0  0  0
 11 12  1  0  0  0  0
 14 15  1  0  0  0  0
 14 36  1  0  0  0  0
 15 17  1  0  0  0  0
 16 18  1  6  0  0  0
 16 26  1  0  0  0  0
 17 23  1  0  0  0  0
 19 20  1  1  0  0  0
 19 28  1  0  0  0  0
 21 22  1  0  0  0  0
 21 23  1  0  0  0  0
 22 24  1  0  0  0  0
 26 27  1  1  0  0  0
 26 29  1  0  0  0  0
 28  2  1  6  0  0  0
 28 31  1  0  0  0  0
 29 30  1  0  0  0  0
 29 33  1  6  0  0  0
 31 32  1  1  0  0  0
 31 35  1  0  0  0  0
 33 34  1  0  0  0  0
 35 36  1  6  0  0  0
M  END
>  <CHROM.1>
178.90780302,-54.57308200,111.98159595,-68.59827646,-177.89745373,78.35421119
59.27029948,-124.36599099,-174.89819668,65.57490436,175.21078021,44.10477553
173.46219702,54.36494458,39.83517591,4.99583521,6.70087050,-2.30001655,-0.69052687
2.17580227

>  <Name>
2f4u_lig

>  <RI>
0

>  <Rbt.Current_Directory>
/home/itssahil/PROJECTS/Mol_Feturizer/New_Systems/rnas/2f4u

>  <Rbt.Executable>
rbdock ($Id: //depot/dev/client3/rdock/2013.1/src/exe/rbdock.cxx#4 $)

>  <Rbt.Library>
libRbt.so (2013.1, Build901 2013/11/27)

>  <Rbt.Parameter_File>
/export/apps/rDock/src/rDock_2013.1_src/data/scripts/dock_solv.prm

>  <Rbt.Receptor>
prm/pocket_docking_5.prm

>  <SCORE>
-12.2026

>  <SCORE.INTER>
-1.25347

>  <SCORE.INTER.CONST>
1

>  <SCORE.INTER.POLAR>
-0.974126

>  <SCORE.INTER.ROT>
14

>  <SCORE.INTER.SOLV>
15.7673

>  <SCORE.INTER.VDW>
-15.7776

>  <SCORE.INTER.norm>
-0.0348186

>  <SCORE.INTRA>
-10.9491

>  <SCORE.INTRA.DIHEDRAL>
-19.5456

>  <SCORE.INTRA.DIHEDRAL.0>
26.3805

>  <SCORE.INTRA.POLAR>
0

>  <SCORE.INTRA.POLAR.0>
0

>  <SCORE.INTRA.REPUL>
0.0430495

>  <SCORE.INTRA.REPUL.0>
0

>  <SCORE.INTRA.SOLV>
1.32352

>  <SCORE.INTRA.SOLV.lig_0>
-98.5587

>  <SCORE.INTRA.VDW>
-2.05336

>  <SCORE.INTRA.VDW.0>
-2.91167

>  <SCORE.INTRA.norm>
-0.304143

>  <SCORE.RESTR>
0

>  <SCORE.RESTR.CAVITY>
0

>  <SCORE.RESTR.norm>
0

>  <SCORE.SYSTEM>
0

>  <SCORE.SYSTEM.CONST>
0

>  <SCORE.SYSTEM.DIHEDRAL>
0

>  <SCORE.SYSTEM.SOLV>
0

>  <SCORE.SYSTEM.norm>
0

>  <SCORE.heavy>
36

>  <SCORE.norm>
-0.338962

>  <RMSD>
3.348

$$$$
2f4u_lig
 OpenBabel11021811433D
libRbt.so/2013.1/901 2013/11/27
 36 37  0  0  0  0  0  0  0  0999 V2000
   35.6990    6.7228    6.7377 C   0  0  2  0  0  0  0  0  0  0  0  0
   36.1929    5.5487    5.9925 O   0  0  0  0  0  0  0  0  0  0  0  0
   39.4220    2.7188    6.6708 C   0  0  2  0  0  0  0  0  0  0  0  0
   40.8025    2.1944    6.8552 N   0  0  0  0  0  0  0  0  0  0  0  0
   34.2168    6.9394    6.3015 C   0  0  2  0  0  0  0  0  0  0  0  0
   33.3679    5.7640    6.5699 N   0  0  0  0  0  0  0  0  0  0  0  0
   39.2489    3.4233    5.2791 C   0  0  0  0  0  0  0  0  0  0  0  0
   41.9600    3.5196    7.1575 C   0  0  0  0  0  0  0  0  0  0  0  0
   42.9958    2.4425    7.0753 C   0  0  1  0  0  0  0  0  0  0  0  0
   44.3637    3.1322    7.0254 C   0  0  0  0  0  0  0  0  0  0  0  0
   44.7547    3.7500    5.6701 C   0  0  0  0  0  0  0  0  0  0  0  0
   43.8194    4.8345    5.3653 N   0  0  0  0  0  0  0  0  0  0  0  0
   42.9630    1.6474    8.2290 O   0  0  0  0  0  0  0  0  0  0  0  0
   39.1398    2.0864   10.0603 C   0  0  0  0  0  0  0  0  0  0  0  0
   37.7432    2.2504   10.6413 C   0  0  0  0  0  0  0  0  0  0  0  0
   34.1853    7.2873    4.7762 C   0  0  1  0  0  0  0  0  0  0  0  0
   37.5141    3.5487   11.3069 N   0  0  0  0  0  0  0  0  0  0  0  0
   32.8481    7.4847    4.3240 O   0  0  0  0  0  0  0  0  0  0  0  0
   37.8319    4.0114    5.1206 C   0  0  2  0  0  0  0  0  0  0  0  0
   37.6859    4.7049    3.8470 N   0  0  0  0  0  0  0  0  0  0  0  0
   37.9354    5.0921   13.2148 C   0  0  0  0  0  0  0  0  0  0  0  0
   39.2922    5.6022   12.6429 C   0  0  0  0  0  0  0  0  0  0  0  0
   37.5972    3.6399   12.7875 C   0  0  0  0  0  0  0  0  0  0  0  0
   39.5622    7.0193   13.0303 N   0  0  0  0  0  0  0  0  0  0  0  0
   41.9043    4.5898    7.2718 O   0  0  0  0  0  0  0  0  0  0  0  0
   35.0470    8.5460    4.5519 C   0  0  2  0  0  0  0  0  0  0  0  0
   35.0896    8.9413    3.1830 O   0  0  0  0  0  0  0  0  0  0  0  0
   37.5416    4.9972    6.2347 C   0  0  2  0  0  0  0  0  0  0  0  0
   36.4835    8.3249    5.0589 C   0  0  2  0  0  0  0  0  0  0  0  0
   36.4848    7.9088    6.4289 O   0  0  0  0  0  0  0  0  0  0  0  0
   37.6696    4.2752    7.6372 C   0  0  2  0  0  0  0  0  0  0  0  0
   37.4027    5.2523    8.6918 O   0  0  0  0  0  0  0  0  0  0  0  0
   37.3221    9.5680    4.9261 C   0  0  0  0  0  0  0  0  0  0  0  0
   38.6277    9.3083    5.2769 O   0  0  0  0  0  0  0  0  0  0  0  0
   39.1215    3.7057    7.7816 C   0  0  1  0  0  0  0  0  0  0  0  0
   39.3103    3.0555    9.0046 O   0  0  0  0  0  0  0  0  0  0  0  0
  1  2  1  6  0  0  0
  1  5  1  0  0  0  0
  1 30  1  0  0  0  0
  3  4  1  1  0  0  0
  3  7  1  0  0  0  0
  3 35  1  0  0  0  0
  5  6  1  6  0  0  0
  5 16  1  0  0  0  0
  7 19  1  0  0  0  0
  8  4  1  0  0  0  0
  8 25  2  0  0  0  0
  9  8  1  1  0  0  0
  9 10  1  0  0  0  0
  9 13  1  0  0  0  0
 10 11  1  0  0  0  0
 11 12  1  0  0  0  0
 14 15  1  0  0  0  0
 14 36  1  0  0  0  0
 15 17  1  0  0  0  0
 16 18  1  1  0  0  0
 16 26  1  0  0  0  0
 17 23  1  0  0  0  0
 19 20  1  6  0  0  0
 19 28  1  0  0  0  0
 21 22  1  0  0  0  0
 21 23  1  0  0  0  0
 22 24  1  0  0  0  0
 26 27  1  6  0  0  0
 26 29  1  0  0  0  0
 28  2  1  6  0  0  0
 28 31  1  0  0  0  0
 29 30  1  0  0  0  0
 29 33  1  1  0  0  0
 31 32  1  1  0  0  0
 31 35  1  0  0  0  0
 33 34  1  0  0  0  0
 35 36  1  1  0  0  0
M  END
>  <CHROM.1>
-175.56892028,73.55739098,169.51510676,-76.99612179,64.40061401,-64.59918153
-66.01780493,-99.68490875,155.59778140,177.83592935,-59.86779560,-168.13540401
-174.76347586,-59.48242799,38.41197968,5.13559059,7.29464997,2.54200595,0.45568037
-1.25797708

>  <Name>
2f4u_lig

>  <RI>
0

>  <Rbt.Current_Directory>
/home/itssahil/PROJECTS/Mol_Feturizer/New_Systems/rnas/2f4u

>  <Rbt.Executable>
rbdock ($Id: //depot/dev/client3/rdock/2013.1/src/exe/rbdock.cxx#4 $)

>  <Rbt.Library>
libRbt.so (2013.1, Build901 2013/11/27)

>  <Rbt.Parameter_File>
/export/apps/rDock/src/rDock_2013.1_src/data/scripts/dock_solv.prm

>  <Rbt.Receptor>
prm/pocket_docking_5.prm

>  <SCORE>
-16.5186

>  <SCORE.INTER>
-5.94142

>  <SCORE.INTER.CONST>
1

>  <SCORE.INTER.POLAR>
-0.894427

>  <SCORE.INTER.ROT>
14

>  <SCORE.INTER.SOLV>
8.5181

>  <SCORE.INTER.VDW>
-16.7522

>  <SCORE.INTER.norm>
-0.165039

>  <SCORE.INTRA>
-10.5823

>  <SCORE.INTRA.DIHEDRAL>
-21.8435

>  <SCORE.INTRA.DIHEDRAL.0>
26.3805

>  <SCORE.INTRA.POLAR>
0

>  <SCORE.INTRA.POLAR.0>
0

>  <SCORE.INTRA.REPUL>
0

>  <SCORE.INTRA.REPUL.0>
0

>  <SCORE.INTRA.SOLV>
4.31564

>  <SCORE.INTRA.SOLV.lig_0>
-98.5587

>  <SCORE.INTRA.VDW>
-1.8184

>  <SCORE.INTRA.VDW.0>
-2.91167

>  <SCORE.INTRA.norm>
-0.293953

>  <SCORE.RESTR>
0.00516432

>  <SCORE.RESTR.CAVITY>
0.00516432

>  <SCORE.RESTR.norm>
0.000143453

>  <SCORE.SYSTEM>
0

>  <SCORE.SYSTEM.CONST>
0

>  <SCORE.SYSTEM.DIHEDRAL>
0

>  <SCORE.SYSTEM.SOLV>
0

>  <SCORE.SYSTEM.norm>
0

>  <SCORE.heavy>
36

>  <SCORE.norm>
-0.458849

>  <RMSD>
3.517

$$$$
2f4u_lig
 OpenBabel11021811433D
libRbt.so/2013.1/901 2013/11/27
 36 37  0  0  0  0  0  0  0  0999 V2000
   38.4297    7.7656    5.1134 C   0  0  2  0  0  0  0  0  0  0  0  0
   39.6020    8.2374    5.8756 O   0  0  0  0  0  0  0  0  0  0  0  0
   42.3081    4.8399    5.7053 C   0  0  2  0  0  0  0  0  0  0  0  0
   43.5707    4.0560    5.7831 N   0  0  0  0  0  0  0  0  0  0  0  0
   37.2727    8.7713    5.4029 C   0  0  2  0  0  0  0  0  0  0  0  0
   37.6132   10.1543    5.0213 N   0  0  0  0  0  0  0  0  0  0  0  0
   42.4093    6.0023    4.6556 C   0  0  0  0  0  0  0  0  0  0  0  0
   43.7574    2.9924    4.3614 C   0  0  0  0  0  0  0  0  0  0  0  0
   44.9524    2.4644    5.0913 C   0  0  1  0  0  0  0  0  0  0  0  0
   44.4667    1.3200    5.9878 C   0  0  0  0  0  0  0  0  0  0  0  0
   43.8766    0.0995    5.2573 C   0  0  0  0  0  0  0  0  0  0  0  0
   43.4070   -0.8603    6.2584 N   0  0  0  0  0  0  0  0  0  0  0  0
   45.8787    1.9303    4.1852 O   0  0  0  0  0  0  0  0  0  0  0  0
   42.3610    3.1977    8.7387 C   0  0  0  0  0  0  0  0  0  0  0  0
   41.2403    2.8217    9.6965 C   0  0  0  0  0  0  0  0  0  0  0  0
   36.9167    8.7067    6.9253 C   0  0  1  0  0  0  0  0  0  0  0  0
   39.9754    2.4505    9.0307 N   0  0  0  0  0  0  0  0  0  0  0  0
   35.8686    9.6181    7.2447 O   0  0  0  0  0  0  0  0  0  0  0  0
   41.1162    6.8421    4.6225 C   0  0  2  0  0  0  0  0  0  0  0  0
   41.2275    7.9486    3.6805 N   0  0  0  0  0  0  0  0  0  0  0  0
   38.3943    1.8319   10.8521 C   0  0  0  0  0  0  0  0  0  0  0  0
   37.2870    2.8841   10.5442 C   0  0  0  0  0  0  0  0  0  0  0  0
   39.1489    1.3479    9.5864 C   0  0  0  0  0  0  0  0  0  0  0  0
   36.6674    3.4220   11.7925 N   0  0  0  0  0  0  0  0  0  0  0  0
   43.2069    2.8028    3.4545 O   0  0  0  0  0  0  0  0  0  0  0  0
   36.5240    7.2552    7.2663 C   0  0  2  0  0  0  0  0  0  0  0  0
   36.1886    7.0895    8.6417 O   0  0  0  0  0  0  0  0  0  0  0  0
   40.8225    7.4139    5.9951 C   0  0  2  0  0  0  0  0  0  0  0  0
   37.6579    6.2801    6.9017 C   0  0  2  0  0  0  0  0  0  0  0  0
   38.0379    6.4265    5.5290 O   0  0  0  0  0  0  0  0  0  0  0  0
   40.6732    6.2395    7.0453 C   0  0  2  0  0  0  0  0  0  0  0  0
   40.4089    6.8199    8.3611 O   0  0  0  0  0  0  0  0  0  0  0  0
   37.2662    4.8477    7.1490 C   0  0  0  0  0  0  0  0  0  0  0  0
   36.1949    4.4977    6.3584 O   0  0  0  0  0  0  0  0  0  0  0  0
   42.0050    5.4156    7.0745 C   0  0  1  0  0  0  0  0  0  0  0  0
   41.9480    4.3592    7.9883 O   0  0  0  0  0  0  0  0  0  0  0  0
  1  2  1  1  0  0  0
  1  5  1  0  0  0  0
  1 30  1  0  0  0  0
  3  4  1  1  0  0  0
  3  7  1  0  0  0  0
  3 35  1  0  0  0  0
  5  6  1  1  0  0  0
  5 16  1  0  0  0  0
  7 19  1  0  0  0  0
  8  4  1  0  0  0  0
  8 25  2  0  0  0  0
  9  8  1  6  0  0  0
  9 10  1  0  0  0  0
  9 13  1  0  0  0  0
 10 11  1  0  0  0  0
 11 12  1  0  0  0  0
 14 15  1  0  0  0  0
 14 36  1  0  0  0  0
 15 17  1  0  0  0  0
 16 18  1  6  0  0  0
 16 26  1  0  0  0  0
 17 23  1  0  0  0  0
 19 20  1  6  0  0  0
 19 28  1  0  0  0  0
 21 22  1  0  0  0  0
 21 23  1  0  0  0  0
 22 24  1  0  0  0  0
 26 27  1  1  0  0  0
 26 29  1  0  0  0  0
 28  2  1  6  0  0  0
 28 31  1  0  0  0  0
 29 30  1  0  0  0  0
 29 33  1  6  0  0  0
 31 32  1  1  0  0  0
 31 35  1  0  0  0  0
 33 34  1  0  0  0  0
 35 36  1  1  0  0  0
M  END
>  <CHROM.1>
170.84384824,-74.48070028,88.42927296,63.28243376,-177.26595004,62.00629783
178.73188046,142.15470975,75.82634159,-174.71462742,68.52552217,43.77559973
62.13273229,56.33560219,40.21635080,4.95366829,6.76631183,-2.70254035,-0.58990780
2.49466067

>  <Name>
2f4u_lig

>  <RI>
0

>  <Rbt.Current_Directory>
/home/itssahil/PROJECTS/Mol_Feturizer/New_Systems/rnas/2f4u

>  <Rbt.Executable>
rbdock ($Id: //depot/dev/client3/rdock/2013.1/src/exe/rbdock.cxx#4 $)

>  <Rbt.Library>
libRbt.so (2013.1, Build901 2013/11/27)

>  <Rbt.Parameter_File>
/export/apps/rDock/src/rDock_2013.1_src/data/scripts/dock_solv.prm

>  <Rbt.Receptor>
prm/pocket_docking_6.prm

>  <SCORE>
-10.7116

>  <SCORE.INTER>
0.546583

>  <SCORE.INTER.CONST>
1

>  <SCORE.INTER.POLAR>
-0.979796

>  <SCORE.INTER.ROT>
14

>  <SCORE.INTER.SOLV>
13.988

>  <SCORE.INTER.VDW>
-13.9656

>  <SCORE.INTER.norm>
0.0151829

>  <SCORE.INTRA>
-11.2581

>  <SCORE.INTRA.DIHEDRAL>
-21.3035

>  <SCORE.INTRA.DIHEDRAL.0>
26.3805

>  <SCORE.INTRA.POLAR>
0

>  <SCORE.INTRA.POLAR.0>
0

>  <SCORE.INTRA.REPUL>
0

>  <SCORE.INTRA.REPUL.0>
0

>  <SCORE.INTRA.SOLV>
1.25421

>  <SCORE.INTRA.SOLV.lig_0>
-98.5587

>  <SCORE.INTRA.VDW>
-1.23351

>  <SCORE.INTRA.VDW.0>
-2.91167

>  <SCORE.INTRA.norm>
-0.312726

>  <SCORE.RESTR>
0

>  <SCORE.RESTR.CAVITY>
0

>  <SCORE.RESTR.norm>
0

>  <SCORE.SYSTEM>
0

>  <SCORE.SYSTEM.CONST>
0

>  <SCORE.SYSTEM.DIHEDRAL>
0

>  <SCORE.SYSTEM.SOLV>
0

>  <SCORE.SYSTEM.norm>
0

>  <SCORE.heavy>
36

>  <SCORE.norm>
-0.297543

>  <RMSD>
3.663

$$$$
2f4u_lig
 OpenBabel11021811433D
libRbt.so/2013.1/901 2013/11/27
 36 37  0  0  0  0  0  0  0  0999 V2000
   40.7295    7.2100    4.5062 C   0  0  2  0  0  0  0  0  0  0  0  0
   41.8782    7.7056    5.2889 O   0  0  0  0  0  0  0  0  0  0  0  0
   44.1057    4.0738    6.1513 C   0  0  2  0  0  0  0  0  0  0  0  0
   45.1548    3.1802    6.7131 N   0  0  0  0  0  0  0  0  0  0  0  0
   39.8718    8.4577    4.1300 C   0  0  2  0  0  0  0  0  0  0  0  0
   40.6310    9.4565    3.3552 N   0  0  0  0  0  0  0  0  0  0  0  0
   44.7236    5.2021    5.2522 C   0  0  0  0  0  0  0  0  0  0  0  0
   45.3062    1.6821    5.7538 C   0  0  0  0  0  0  0  0  0  0  0  0
   46.2550    1.2576    6.8306 C   0  0  1  0  0  0  0  0  0  0  0  0
   46.6979   -0.1734    6.5059 C   0  0  0  0  0  0  0  0  0  0  0  0
   47.6424   -0.8319    7.5285 C   0  0  0  0  0  0  0  0  0  0  0  0
   46.8833   -1.1167    8.7477 N   0  0  0  0  0  0  0  0  0  0  0  0
   47.3978    2.0688    6.8192 O   0  0  0  0  0  0  0  0  0  0  0  0
   42.1459    3.0184    9.1862 C   0  0  0  0  0  0  0  0  0  0  0  0
   40.7343    3.5776    9.2831 C   0  0  0  0  0  0  0  0  0  0  0  0
   39.3185    9.1044    5.4432 C   0  0  1  0  0  0  0  0  0  0  0  0
   39.9490    3.0437   10.4141 N   0  0  0  0  0  0  0  0  0  0  0  0
   38.5343   10.2589    5.1538 O   0  0  0  0  0  0  0  0  0  0  0  0
   43.6339    6.1550    4.7203 C   0  0  2  0  0  0  0  0  0  0  0  0
   44.2129    7.2288    3.9227 N   0  0  0  0  0  0  0  0  0  0  0  0
   39.1695    5.0890   11.6011 C   0  0  0  0  0  0  0  0  0  0  0  0
   37.9598    5.9486   12.0765 C   0  0  0  0  0  0  0  0  0  0  0  0
   38.7473    3.7790   10.8861 C   0  0  0  0  0  0  0  0  0  0  0  0
   37.0824    5.1988   13.0249 N   0  0  0  0  0  0  0  0  0  0  0  0
   44.8562    1.2822    4.8600 O   0  0  0  0  0  0  0  0  0  0  0  0
   38.4958    8.0388    6.1946 C   0  0  2  0  0  0  0  0  0  0  0  0
   37.9528    8.5308    7.4173 O   0  0  0  0  0  0  0  0  0  0  0  0
   42.8686    6.7771    5.8711 C   0  0  2  0  0  0  0  0  0  0  0  0
   39.3496    6.7917    6.4866 C   0  0  2  0  0  0  0  0  0  0  0  0
   39.9293    6.2748    5.2837 O   0  0  0  0  0  0  0  0  0  0  0  0
   42.2056    5.6413    6.7513 C   0  0  2  0  0  0  0  0  0  0  0  0
   41.4906    6.2682    7.8621 O   0  0  0  0  0  0  0  0  0  0  0  0
   38.5452    5.7040    7.1468 C   0  0  0  0  0  0  0  0  0  0  0  0
   37.4289    5.4078    6.3976 O   0  0  0  0  0  0  0  0  0  0  0  0
   43.3336    4.7007    7.2955 C   0  0  1  0  0  0  0  0  0  0  0  0
   42.8199    3.6713    8.0897 O   0  0  0  0  0  0  0  0  0  0  0  0
  1  2  1  1  0  0  0
  1  5  1  0  0  0  0
  1 30  1  0  0  0  0
  3  4  1  1  0  0  0
  3  7  1  0  0  0  0
  3 35  1  0  0  0  0
  5  6  1  1  0  0  0
  5 16  1  0  0  0  0
  7 19  1  0  0  0  0
  8  4  1  0  0  0  0
  8 25  2  0  0  0  0
  9  8  1  6  0  0  0
  9 10  1  0  0  0  0
  9 13  1  0  0  0  0
 10 11  1  0  0  0  0
 11 12  1  0  0  0  0
 14 15  1  0  0  0  0
 14 36  1  0  0  0  0
 15 17  1  0  0  0  0
 16 18  1  6  0  0  0
 16 26  1  0  0  0  0
 17 23  1  0  0  0  0
 19 20  1  1  0  0  0
 19 28  1  0  0  0  0
 21 22  1  0  0  0  0
 21 23  1  0  0  0  0
 22 24  1  0  0  0  0
 26 27  1  1  0  0  0
 26 29  1  0  0  0  0
 28  2  1  6  0  0  0
 28 31  1  0  0  0  0
 29 30  1  0  0  0  0
 29 33  1  6  0  0  0
 31 32  1  1  0  0  0
 31 35  1  0  0  0  0
 33 34  1  0  0  0  0
 35 36  1  6  0  0  0
M  END
>  <CHROM.1>
176.86146349,-98.51946113,177.05434088,-177.59532293,70.60974242,-177.02273727
55.45255610,161.07341033,-70.88033261,59.04475387,177.67195420,68.26746711
54.16792750,175.58636646,41.85935536,5.00289177,7.03334780,-2.69842522,-0.59399520
2.28490689

>  <Name>
2f4u_lig

>  <RI>
0

>  <Rbt.Current_Directory>
/home/itssahil/PROJECTS/Mol_Feturizer/New_Systems/rnas/2f4u

>  <Rbt.Executable>
rbdock ($Id: //depot/dev/client3/rdock/2013.1/src/exe/rbdock.cxx#4 $)

>  <Rbt.Library>
libRbt.so (2013.1, Build901 2013/11/27)

>  <Rbt.Parameter_File>
/export/apps/rDock/src/rDock_2013.1_src/data/scripts/dock_solv.prm

>  <Rbt.Receptor>
prm/pocket_docking_3.prm

>  <SCORE>
-7.63557

>  <SCORE.INTER>
2.35436

>  <SCORE.INTER.CONST>
1

>  <SCORE.INTER.POLAR>
-0.733256

>  <SCORE.INTER.ROT>
14

>  <SCORE.INTER.SOLV>
22.2966

>  <SCORE.INTER.VDW>
-16.3518

>  <SCORE.INTER.norm>
0.0653988

>  <SCORE.INTRA>
-10.0483

>  <SCORE.INTRA.DIHEDRAL>
-23.1451

>  <SCORE.INTRA.DIHEDRAL.0>
26.3805

>  <SCORE.INTRA.POLAR>
0

>  <SCORE.INTRA.POLAR.0>
0

>  <SCORE.INTRA.REPUL>
0

>  <SCORE.INTRA.REPUL.0>
0

>  <SCORE.INTRA.SOLV>
1.85989

>  <SCORE.INTRA.SOLV.lig_0>
-98.5587

>  <SCORE.INTRA.VDW>
0.594353

>  <SCORE.INTRA.VDW.0>
-2.91167

>  <SCORE.INTRA.norm>
-0.279118

>  <SCORE.RESTR>
0.0583369

>  <SCORE.RESTR.CAVITY>
0.0583369

>  <SCORE.RESTR.norm>
0.00162047

>  <SCORE.SYSTEM>
0

>  <SCORE.SYSTEM.CONST>
0

>  <SCORE.SYSTEM.DIHEDRAL>
0

>  <SCORE.SYSTEM.SOLV>
0

>  <SCORE.SYSTEM.norm>
0

>  <SCORE.heavy>
36

>  <SCORE.norm>
-0.212099

>  <RMSD>
3.683

$$$$
2f4u_lig
 OpenBabel11021811433D
libRbt.so/2013.1/901 2013/11/27
 36 37  0  0  0  0  0  0  0  0999 V2000
   36.9569   10.3296    4.3253 C   0  0  2  0  0  0  0  0  0  0  0  0
   37.7604    9.0921    4.2968 O   0  0  0  0  0  0  0  0  0  0  0  0
   38.3056    6.4516    7.7064 C   0  0  2  0  0  0  0  0  0  0  0  0
   38.9182    5.8503    8.9221 N   0  0  0  0  0  0  0  0  0  0  0  0
   36.1270   10.3557    3.0045 C   0  0  2  0  0  0  0  0  0  0  0  0
   35.2531    9.1769    2.8592 N   0  0  0  0  0  0  0  0  0  0  0  0
   39.2737    6.3831    6.4731 C   0  0  0  0  0  0  0  0  0  0  0  0
   40.6200    6.3582    9.1044 C   0  0  0  0  0  0  0  0  0  0  0  0
   40.6394    5.3862   10.2422 C   0  0  1  0  0  0  0  0  0  0  0  0
   41.2861    4.0963    9.7253 C   0  0  0  0  0  0  0  0  0  0  0  0
   40.4901    3.3294    8.6532 C   0  0  0  0  0  0  0  0  0  0  0  0
   39.2733    2.7963    9.2689 N   0  0  0  0  0  0  0  0  0  0  0  0
   41.4392    5.8740   11.2847 O   0  0  0  0  0  0  0  0  0  0  0  0
   36.6908    7.8076   10.4905 C   0  0  0  0  0  0  0  0  0  0  0  0
   36.8412    6.3551   10.9174 C   0  0  0  0  0  0  0  0  0  0  0  0
   37.1113   10.4469    1.7915 C   0  0  1  0  0  0  0  0  0  0  0  0
   36.5064    6.1035   12.3336 N   0  0  0  0  0  0  0  0  0  0  0  0
   36.4008   10.4627    0.5561 O   0  0  0  0  0  0  0  0  0  0  0  0
   38.6515    7.0578    5.2336 C   0  0  2  0  0  0  0  0  0  0  0  0
   39.5690    7.0341    4.1014 N   0  0  0  0  0  0  0  0  0  0  0  0
   35.1854    4.0805   12.9357 C   0  0  0  0  0  0  0  0  0  0  0  0
   33.7757    3.4643   13.1829 C   0  0  0  0  0  0  0  0  0  0  0  0
   35.1509    5.6119   12.6919 C   0  0  0  0  0  0  0  0  0  0  0  0
   33.0414    4.1733   14.2735 N   0  0  0  0  0  0  0  0  0  0  0  0
   41.2974    7.0108    8.5783 O   0  0  0  0  0  0  0  0  0  0  0  0
   37.9702   11.7158    1.9633 C   0  0  2  0  0  0  0  0  0  0  0  0
   38.9113   11.8849    0.9062 O   0  0  0  0  0  0  0  0  0  0  0  0
   38.3067    8.5025    5.5360 C   0  0  2  0  0  0  0  0  0  0  0  0
   38.7193   11.6933    3.3079 C   0  0  2  0  0  0  0  0  0  0  0  0
   37.8098   11.5073    4.3980 O   0  0  0  0  0  0  0  0  0  0  0  0
   37.2932    8.5698    6.7496 C   0  0  2  0  0  0  0  0  0  0  0  0
   36.9930    9.9730    7.0304 O   0  0  0  0  0  0  0  0  0  0  0  0
   39.5004   12.9599    3.5353 C   0  0  0  0  0  0  0  0  0  0  0  0
   38.9471   14.0013    2.8251 O   0  0  0  0  0  0  0  0  0  0  0  0
   37.9561    7.8974    7.9993 C   0  0  1  0  0  0  0  0  0  0  0  0
   37.1161    7.9246    9.1164 O   0  0  0  0  0  0  0  0  0  0  0  0
  1  2  1  6  0  0  0
  1  5  1  0  0  0  0
  1 30  1  0  0  0  0
  3  4  1  1  0  0  0
  3  7  1  0  0  0  0
  3 35  1  0  0  0  0
  5  6  1  6  0  0  0
  5 16  1  0  0  0  0
  7 19  1  0  0  0  0
  8  4  1  0  0  0  0
  8 25  2  0  0  0  0
  9  8  1  6  0  0  0
  9 10  1  0  0  0  0
  9 13  1  0  0  0  0
 10 11  1  0  0  0  0
 11 12  1  0  0  0  0
 14 15  1  0  0  0  0
 14 36  1  0  0  0  0
 15 17  1  0  0  0  0
 16 18  1  6  0  0  0
 16 26  1  0  0  0  0
 17 23  1  0  0  0  0
 19 20  1  6  0  0  0
 19 28  1  0  0  0  0
 21 22  1  0  0  0  0
 21 23  1  0  0  0  0
 22 24  1  0  0  0  0
 26 27  1  6  0  0  0
 26 29  1  0  0  0  0
 28  2  1  6  0  0  0
 28 31  1  0  0  0  0
 29 30  1  0  0  0  0
 29 33  1  1  0  0  0
 31 32  1  1  0  0  0
 31 35  1  0  0  0  0
 33 34  1  0  0  0  0
 35 36  1  1  0  0  0
M  END
>  <CHROM.1>
-159.09199845,43.43923536,99.46452098,-66.60359829,-67.63573983,176.92333466
-63.39899782,96.59352578,100.13779097,-53.06960248,-174.46991327,161.27661154
25.06623706,69.44099149,37.95523416,7.87437913,7.09385283,1.50379146,0.29731835
-0.93151788

>  <Name>
2f4u_lig

>  <RI>
0

>  <Rbt.Current_Directory>
/home/itssahil/PROJECTS/Mol_Feturizer/New_Systems/rnas/2f4u

>  <Rbt.Executable>
rbdock ($Id: //depot/dev/client3/rdock/2013.1/src/exe/rbdock.cxx#4 $)

>  <Rbt.Library>
libRbt.so (2013.1, Build901 2013/11/27)

>  <Rbt.Parameter_File>
/export/apps/rDock/src/rDock_2013.1_src/data/scripts/dock_solv.prm

>  <Rbt.Receptor>
prm/pocket_docking_6.prm

>  <SCORE>
-13.9462

>  <SCORE.INTER>
-8.81269

>  <SCORE.INTER.CONST>
1

>  <SCORE.INTER.POLAR>
-0.961272

>  <SCORE.INTER.ROT>
14

>  <SCORE.INTER.SOLV>
20.4559

>  <SCORE.INTER.VDW>
-22.4228

>  <SCORE.INTER.norm>
-0.244797

>  <SCORE.INTRA>
-5.13351

>  <SCORE.INTRA.DIHEDRAL>
-14.3084

>  <SCORE.INTRA.DIHEDRAL.0>
26.3805

>  <SCORE.INTRA.POLAR>
0

>  <SCORE.INTRA.POLAR.0>
0

>  <SCORE.INTRA.REPUL>
0

>  <SCORE.INTRA.REPUL.0>
0

>  <SCORE.INTRA.SOLV>
3.01858

>  <SCORE.INTRA.SOLV.lig_0>
-98.5587

>  <SCORE.INTRA.VDW>
0.511383

>  <SCORE.INTRA.VDW.0>
-2.91167

>  <SCORE.INTRA.norm>
-0.142597

>  <SCORE.RESTR>
0

>  <SCORE.RESTR.CAVITY>
0

>  <SCORE.RESTR.norm>
0

>  <SCORE.SYSTEM>
0

>  <SCORE.SYSTEM.CONST>
0

>  <SCORE.SYSTEM.DIHEDRAL>
0

>  <SCORE.SYSTEM.SOLV>
0

>  <SCORE.SYSTEM.norm>
0

>  <SCORE.heavy>
36

>  <SCORE.norm>
-0.387394

>  <RMSD>
3.928

$$$$
2f4u_lig
 OpenBabel11021811433D
libRbt.so/2013.1/901 2013/11/27
 36 37  0  0  0  0  0  0  0  0999 V2000
   39.1978    4.6122    3.3584 C   0  0  2  0  0  0  0  0  0  0  0  0
   40.1797    5.7137    3.3389 O   0  0  0  0  0  0  0  0  0  0  0  0
   43.5501    4.0254    5.5035 C   0  0  2  0  0  0  0  0  0  0  0  0
   44.8981    3.9202    6.1253 N   0  0  0  0  0  0  0  0  0  0  0  0
   38.1775    4.9011    2.2140 C   0  0  2  0  0  0  0  0  0  0  0  0
   38.8202    4.9955    0.8902 N   0  0  0  0  0  0  0  0  0  0  0  0
   43.6413    4.3013    3.9611 C   0  0  0  0  0  0  0  0  0  0  0  0
   45.9514    5.2670    5.6116 C   0  0  0  0  0  0  0  0  0  0  0  0
   47.0189    4.5280    6.3560 C   0  0  1  0  0  0  0  0  0  0  0  0
   48.3228    5.3136    6.1770 C   0  0  0  0  0  0  0  0  0  0  0  0
   49.5997    4.6195    6.6860 C   0  0  0  0  0  0  0  0  0  0  0  0
   49.4778    4.4218    8.1317 N   0  0  0  0  0  0  0  0  0  0  0  0
   46.7251    4.4993    7.7261 O   0  0  0  0  0  0  0  0  0  0  0  0
   42.4169    4.2278    8.7904 C   0  0  0  0  0  0  0  0  0  0  0  0
   40.9642    4.5330    9.1237 C   0  0  0  0  0  0  0  0  0  0  0  0
   37.4184    6.2304    2.5382 C   0  0  1  0  0  0  0  0  0  0  0  0
   40.7513    5.8566    9.7432 N   0  0  0  0  0  0  0  0  0  0  0  0
   36.4788    6.5459    1.5140 O   0  0  0  0  0  0  0  0  0  0  0  0
   42.2405    4.4636    3.3367 C   0  0  2  0  0  0  0  0  0  0  0  0
   42.3270    4.7647    1.9133 N   0  0  0  0  0  0  0  0  0  0  0  0
   39.9690    6.5576   12.0007 C   0  0  0  0  0  0  0  0  0  0  0  0
   38.8418    5.4878   12.1156 C   0  0  0  0  0  0  0  0  0  0  0  0
   41.1762    6.0870   11.1481 C   0  0  0  0  0  0  0  0  0  0  0  0
   37.6867    5.9805   12.9243 N   0  0  0  0  0  0  0  0  0  0  0  0
   45.8459    6.1459    4.9969 O   0  0  0  0  0  0  0  0  0  0  0  0
   36.7264    6.0679    3.9064 C   0  0  2  0  0  0  0  0  0  0  0  0
   36.0107    7.2366    4.2982 O   0  0  0  0  0  0  0  0  0  0  0  0
   41.4866    5.5894    4.0159 C   0  0  2  0  0  0  0  0  0  0  0  0
   37.7497    5.7118    4.9999 C   0  0  2  0  0  0  0  0  0  0  0  0
   38.5041    4.5502    4.6368 O   0  0  0  0  0  0  0  0  0  0  0  0
   41.3529    5.2888    5.5638 C   0  0  2  0  0  0  0  0  0  0  0  0
   40.6390    6.3977    6.1953 O   0  0  0  0  0  0  0  0  0  0  0  0
   37.0868    5.4668    6.3291 C   0  0  0  0  0  0  0  0  0  0  0  0
   38.0112    5.0456    7.2581 O   0  0  0  0  0  0  0  0  0  0  0  0
   42.7874    5.1491    6.1771 C   0  0  1  0  0  0  0  0  0  0  0  0
   42.7474    4.8866    7.5496 O   0  0  0  0  0  0  0  0  0  0  0  0
  1  2  1  1  0  0  0
  1  5  1  0  0  0  0
  1 30  1  0  0  0  0
  3  4  1  1  0  0  0
  3  7  1  0  0  0  0
  3 35  1  0  0  0  0
  5  6  1  6  0  0  0
  5 16  1  0  0  0  0
  7 19  1  0  0  0  0
  8  4  1  0  0  0  0
  8 25  2  0  0  0  0
  9  8  1  6  0  0  0
  9 10  1  0  0  0  0
  9 13  1  0  0  0  0
 10 11  1  0  0  0  0
 11 12  1  0  0  0  0
 14 15  1  0  0  0  0
 14 36  1  0  0  0  0
 15 17  1  0  0  0  0
 16 18  1  6  0  0  0
 16 26  1  0  0  0  0
 17 23  1  0  0  0  0
 19 20  1  6  0  0  0
 19 28  1  0  0  0  0
 21 22  1  0  0  0  0
 21 23  1  0  0  0  0
 22 24  1  0  0  0  0
 26 27  1  1  0  0  0
 26 29  1  0  0  0  0
 28  2  1  6  0  0  0
 28 31  1  0  0  0  0
 29 30  1  0  0  0  0
 29 33  1  1  0  0  0
 31 32  1  1  0  0  0
 31 35  1  0  0  0  0
 33 34  1  0  0  0  0
 35 36  1  1  0  0  0
M  END
>  <CHROM.1>
-162.65726215,47.67322304,177.61478610,-171.15395792,-62.50671476,-80.38474685
-74.21235877,-72.60380871,-122.99941700,-179.11249197,63.88677676,62.85408016
175.11286873,-66.54232984,41.48867382,5.27767302,6.04374280,-2.85919530,-0.12147221
1.53331965

>  <Name>
2f4u_lig

>  <RI>
0

>  <Rbt.Current_Directory>
/home/itssahil/PROJECTS/Mol_Feturizer/New_Systems/rnas/2f4u

>  <Rbt.Executable>
rbdock ($Id: //depot/dev/client3/rdock/2013.1/src/exe/rbdock.cxx#4 $)

>  <Rbt.Library>
libRbt.so (2013.1, Build901 2013/11/27)

>  <Rbt.Parameter_File>
/export/apps/rDock/src/rDock_2013.1_src/data/scripts/dock_solv.prm

>  <Rbt.Receptor>
prm/pocket_docking_5.prm

>  <SCORE>
-11.8139

>  <SCORE.INTER>
-3.15495

>  <SCORE.INTER.CONST>
1

>  <SCORE.INTER.POLAR>
-0.816025

>  <SCORE.INTER.ROT>
14

>  <SCORE.INTER.SOLV>
13.1413

>  <SCORE.INTER.VDW>
-16.697

>  <SCORE.INTER.norm>
-0.0876375

>  <SCORE.INTRA>
-8.82833

>  <SCORE.INTRA.DIHEDRAL>
-19.6705

>  <SCORE.INTRA.DIHEDRAL.0>
26.3805

>  <SCORE.INTRA.POLAR>
0

>  <SCORE.INTRA.POLAR.0>
0

>  <SCORE.INTRA.REPUL>
0

>  <SCORE.INTRA.REPUL.0>
0

>  <SCORE.INTRA.SOLV>
4.69858

>  <SCORE.INTRA.SOLV.lig_0>
-98.5587

>  <SCORE.INTRA.VDW>
-1.34236

>  <SCORE.INTRA.VDW.0>
-2.91167

>  <SCORE.INTRA.norm>
-0.245232

>  <SCORE.RESTR>
0.169359

>  <SCORE.RESTR.CAVITY>
0.169359

>  <SCORE.RESTR.norm>
0.00470441

>  <SCORE.SYSTEM>
0

>  <SCORE.SYSTEM.CONST>
0

>  <SCORE.SYSTEM.DIHEDRAL>
0

>  <SCORE.SYSTEM.SOLV>
0

>  <SCORE.SYSTEM.norm>
0

>  <SCORE.heavy>
36

>  <SCORE.norm>
-0.328165

>  <RMSD>
3.987

$$$$
2f4u_lig
 OpenBabel11021811433D
libRbt.so/2013.1/901 2013/11/27
 36 37  0  0  0  0  0  0  0  0999 V2000
   36.1746    9.2626    7.0688 C   0  0  2  0  0  0  0  0  0  0  0  0
   36.8804    7.9889    6.8294 O   0  0  0  0  0  0  0  0  0  0  0  0
   40.8388    7.0921    5.2730 C   0  0  2  0  0  0  0  0  0  0  0  0
   42.3199    7.1135    5.1296 N   0  0  0  0  0  0  0  0  0  0  0  0
   36.4428    9.6509    8.5559 C   0  0  2  0  0  0  0  0  0  0  0  0
   37.8795    9.7934    8.8557 N   0  0  0  0  0  0  0  0  0  0  0  0
   40.2189    8.5254    5.1171 C   0  0  0  0  0  0  0  0  0  0  0  0
   42.8969    5.7074    4.1930 C   0  0  0  0  0  0  0  0  0  0  0  0
   44.2608    6.2087    4.5509 C   0  0  1  0  0  0  0  0  0  0  0  0
   44.8099    5.2864    5.6451 C   0  0  0  0  0  0  0  0  0  0  0  0
   46.2862    5.5023    6.0262 C   0  0  0  0  0  0  0  0  0  0  0  0
   46.6000    4.6506    7.1752 N   0  0  0  0  0  0  0  0  0  0  0  0
   45.1186    6.1148    3.4464 O   0  0  0  0  0  0  0  0  0  0  0  0
   41.4133    3.9813    7.3117 C   0  0  0  0  0  0  0  0  0  0  0  0
   41.9016    4.1897    8.7375 C   0  0  0  0  0  0  0  0  0  0  0  0
   35.8058    8.5640    9.4841 C   0  0  1  0  0  0  0  0  0  0  0  0
   40.8578    4.6581    9.6715 N   0  0  0  0  0  0  0  0  0  0  0  0
   36.0332    8.8676   10.8580 O   0  0  0  0  0  0  0  0  0  0  0  0
   38.6905    8.5008    5.3222 C   0  0  2  0  0  0  0  0  0  0  0  0
   38.1212    9.8387    5.2223 N   0  0  0  0  0  0  0  0  0  0  0  0
   40.4435    5.6872   11.9006 C   0  0  0  0  0  0  0  0  0  0  0  0
   40.6510    6.9146   12.8381 C   0  0  0  0  0  0  0  0  0  0  0  0
   41.1074    5.8594   10.5095 C   0  0  0  0  0  0  0  0  0  0  0  0
   42.0985    7.2260   13.0356 N   0  0  0  0  0  0  0  0  0  0  0  0
   42.4430    4.8739    3.6825 O   0  0  0  0  0  0  0  0  0  0  0  0
   34.2991    8.4836    9.1671 C   0  0  2  0  0  0  0  0  0  0  0  0
   33.6261    7.5087    9.9597 O   0  0  0  0  0  0  0  0  0  0  0  0
   38.3500    7.9400    6.6886 C   0  0  2  0  0  0  0  0  0  0  0  0
   34.0678    8.1712    7.6777 C   0  0  2  0  0  0  0  0  0  0  0  0
   34.7433    9.1196    6.8444 O   0  0  0  0  0  0  0  0  0  0  0  0
   38.9343    6.4760    6.8289 C   0  0  2  0  0  0  0  0  0  0  0  0
   38.6072    5.9679    8.1604 O   0  0  0  0  0  0  0  0  0  0  0  0
   32.6040    8.1692    7.3264 C   0  0  0  0  0  0  0  0  0  0  0  0
   31.9668    7.1045    7.9228 O   0  0  0  0  0  0  0  0  0  0  0  0
   40.4878    6.5316    6.6372 C   0  0  1  0  0  0  0  0  0  0  0  0
   41.0758    5.2686    6.7534 O   0  0  0  0  0  0  0  0  0  0  0  0
  1  2  1  1  0  0  0
  1  5  1  0  0  0  0
  1 30  1  0  0  0  0
  3  4  1  1  0  0  0
  3  7  1  0  0  0  0
  3 35  1  0  0  0  0
  5  6  1  6  0  0  0
  5 16  1  0  0  0  0
  7 19  1  0  0  0  0
  8  4  1  0  0  0  0
  8 25  2  0  0  0  0
  9  8  1  6  0  0  0
  9 10  1  0  0  0  0
  9 13  1  0  0  0  0
 10 11  1  0  0  0  0
 11 12  1  0  0  0  0
 14 15  1  0  0  0  0
 14 36  1  0  0  0  0
 15 17  1  0  0  0  0
 16 18  1  1  0  0  0
 16 26  1  0  0  0  0
 17 23  1  0  0  0  0
 19 20  1  1  0  0  0
 19 28  1  0  0  0  0
 21 22  1  0  0  0  0
 21 23  1  0  0  0  0
 22 24  1  0  0  0  0
 26 27  1  1  0  0  0
 26 29  1  0  0  0  0
 28  2  1  6  0  0  0
 28 31  1  0  0  0  0
 29 30  1  0  0  0  0
 29 33  1  1  0  0  0
 31 32  1  1  0  0  0
 31 35  1  0  0  0  0
 33 34  1  0  0  0  0
 35 36  1  6  0  0  0
M  END
>  <CHROM.1>
-74.31599829,-139.74878818,104.81528420,171.80057793,173.79410849,67.40795153
-51.75870400,-128.23380394,-144.49083557,-56.81226466,-179.53985684,-74.34240030
-68.19809251,-174.70205170,39.37892696,7.00680610,7.52271633,2.93073214,-0.33164481
1.70947983

>  <Name>
2f4u_lig

>  <RI>
0

>  <Rbt.Current_Directory>
/home/itssahil/PROJECTS/Mol_Feturizer/New_Systems/rnas/2f4u

>  <Rbt.Executable>
rbdock ($Id: //depot/dev/client3/rdock/2013.1/src/exe/rbdock.cxx#4 $)

>  <Rbt.Library>
libRbt.so (2013.1, Build901 2013/11/27)

>  <Rbt.Parameter_File>
/export/apps/rDock/src/rDock_2013.1_src/data/scripts/dock_solv.prm

>  <Rbt.Receptor>
prm/pocket_docking_5.prm

>  <SCORE>
-21.3894

>  <SCORE.INTER>
-13.3191

>  <SCORE.INTER.CONST>
1

>  <SCORE.INTER.POLAR>
-2.42287

>  <SCORE.INTER.ROT>
14

>  <SCORE.INTER.SOLV>
22.73

>  <SCORE.INTER.VDW>
-21.3132

>  <SCORE.INTER.norm>
-0.369975

>  <SCORE.INTRA>
-8.07028

>  <SCORE.INTRA.DIHEDRAL>
-17.985

>  <SCORE.INTRA.DIHEDRAL.0>
26.3805

>  <SCORE.INTRA.POLAR>
0

>  <SCORE.INTRA.POLAR.0>
0

>  <SCORE.INTRA.REPUL>
0

>  <SCORE.INTRA.REPUL.0>
0

>  <SCORE.INTRA.SOLV>
5.39133

>  <SCORE.INTRA.SOLV.lig_0>
-98.5587

>  <SCORE.INTRA.VDW>
-1.77342

>  <SCORE.INTRA.VDW.0>
-2.91167

>  <SCORE.INTRA.norm>
-0.224174

>  <SCORE.RESTR>
0

>  <SCORE.RESTR.CAVITY>
0

>  <SCORE.RESTR.norm>
0

>  <SCORE.SYSTEM>
0

>  <SCORE.SYSTEM.CONST>
0

>  <SCORE.SYSTEM.DIHEDRAL>
0

>  <SCORE.SYSTEM.SOLV>
0

>  <SCORE.SYSTEM.norm>
0

>  <SCORE.heavy>
36

>  <SCORE.norm>
-0.59415

>  <RMSD>
4.754

$$$$
2f4u_lig
 OpenBabel11021811433D
libRbt.so/2013.1/901 2013/11/27
 36 37  0  0  0  0  0  0  0  0999 V2000
   37.4908    6.5026    4.4763 C   0  0  2  0  0  0  0  0  0  0  0  0
   38.8372    6.5295    3.8727 O   0  0  0  0  0  0  0  0  0  0  0  0
   42.8018    4.9990    4.7866 C   0  0  2  0  0  0  0  0  0  0  0  0
   44.0042    4.6227    5.5786 N   0  0  0  0  0  0  0  0  0  0  0  0
   36.5491    7.2806    3.5058 C   0  0  2  0  0  0  0  0  0  0  0  0
   36.5192    6.6958    2.1525 N   0  0  0  0  0  0  0  0  0  0  0  0
   42.4843    6.5315    4.9044 C   0  0  0  0  0  0  0  0  0  0  0  0
   45.4221    5.5959    5.0989 C   0  0  0  0  0  0  0  0  0  0  0  0
   46.1758    4.6944    6.0258 C   0  0  1  0  0  0  0  0  0  0  0  0
   47.6555    4.7770    5.6344 C   0  0  0  0  0  0  0  0  0  0  0  0
   48.5976    3.8004    6.3624 C   0  0  0  0  0  0  0  0  0  0  0  0
   48.6490    4.1708    7.7781 N   0  0  0  0  0  0  0  0  0  0  0  0
   46.0599    5.1485    7.3466 O   0  0  0  0  0  0  0  0  0  0  0  0
   42.6405    1.5963    5.4232 C   0  0  0  0  0  0  0  0  0  0  0  0
   42.3057    1.1130    6.8264 C   0  0  0  0  0  0  0  0  0  0  0  0
   37.0172    8.7721    3.4358 C   0  0  1  0  0  0  0  0  0  0  0  0
   42.9511    1.8903    7.9035 N   0  0  0  0  0  0  0  0  0  0  0  0
   36.1930    9.5260    2.5505 O   0  0  0  0  0  0  0  0  0  0  0  0
   41.2054    6.9006    4.1254 C   0  0  2  0  0  0  0  0  0  0  0  0
   40.8857    8.3150    4.2723 N   0  0  0  0  0  0  0  0  0  0  0  0
   45.3902    1.4073    8.0358 C   0  0  0  0  0  0  0  0  0  0  0  0
   45.4210    0.2044    7.0457 C   0  0  0  0  0  0  0  0  0  0  0  0
   44.3061    2.4603    7.6874 C   0  0  0  0  0  0  0  0  0  0  0  0
   46.5345   -0.7423    7.3540 N   0  0  0  0  0  0  0  0  0  0  0  0
   45.6149    6.4020    4.4101 O   0  0  0  0  0  0  0  0  0  0  0  0
   36.9882    9.3529    4.8638 C   0  0  2  0  0  0  0  0  0  0  0  0
   37.4093   10.7140    4.9079 O   0  0  0  0  0  0  0  0  0  0  0  0
   40.0273    6.0920    4.6305 C   0  0  2  0  0  0  0  0  0  0  0  0
   37.8693    8.5204    5.8126 C   0  0  2  0  0  0  0  0  0  0  0  0
   37.4897    7.1401    5.7851 O   0  0  0  0  0  0  0  0  0  0  0  0
   40.3277    4.5467    4.4681 C   0  0  2  0  0  0  0  0  0  0  0  0
   39.1842    3.7921    4.9791 O   0  0  0  0  0  0  0  0  0  0  0  0
   37.7921    9.0192    7.2308 C   0  0  0  0  0  0  0  0  0  0  0  0
   38.6080    8.2716    8.0496 O   0  0  0  0  0  0  0  0  0  0  0  0
   41.6173    4.1942    5.2841 C   0  0  1  0  0  0  0  0  0  0  0  0
   41.9423    2.8378    5.1906 O   0  0  0  0  0  0  0  0  0  0  0  0
  1  2  1  6  0  0  0
  1  5  1  0  0  0  0
  1 30  1  0  0  0  0
  3  4  1  1  0  0  0
  3  7  1  0  0  0  0
  3 35  1  0  0  0  0
  5  6  1  6  0  0  0
  5 16  1  0  0  0  0
  7 19  1  0  0  0  0
  8  4  1  0  0  0  0
  8 25  2  0  0  0  0
  9  8  1  6  0  0  0
  9 10  1  0  0  0  0
  9 13  1  0  0  0  0
 10 11  1  0  0  0  0
 11 12  1  0  0  0  0
 14 15  1  0  0  0  0
 14 36  1  0  0  0  0
 15 17  1  0  0  0  0
 16 18  1  6  0  0  0
 16 26  1  0  0  0  0
 17 23  1  0  0  0  0
 19 20  1  1  0  0  0
 19 28  1  0  0  0  0
 21 22  1  0  0  0  0
 21 23  1  0  0  0  0
 22 24  1  0  0  0  0
 26 27  1  6  0  0  0
 26 29  1  0  0  0  0
 28  2  1  6  0  0  0
 28 31  1  0  0  0  0
 29 30  1  0  0  0  0
 29 33  1  1  0  0  0
 31 32  1  1  0  0  0
 31 35  1  0  0  0  0
 33 34  1  0  0  0  0
 35 36  1  6  0  0  0
M  END
>  <CHROM.1>
169.22334167,-55.94709064,159.81759904,-173.36849078,-66.66741418,-73.01618517
72.53811610,-33.79420020,-85.90575045,176.09895107,68.09251545,-149.21605294
-178.89857279,61.30777507,41.66525374,5.40045256,5.50451982,2.54460898,-0.15153429
-0.17644153

>  <Name>
2f4u_lig

>  <RI>
0

>  <Rbt.Current_Directory>
/home/itssahil/PROJECTS/Mol_Feturizer/New_Systems/rnas/2f4u

>  <Rbt.Executable>
rbdock ($Id: //depot/dev/client3/rdock/2013.1/src/exe/rbdock.cxx#4 $)

>  <Rbt.Library>
libRbt.so (2013.1, Build901 2013/11/27)

>  <Rbt.Parameter_File>
/export/apps/rDock/src/rDock_2013.1_src/data/scripts/dock_solv.prm

>  <Rbt.Receptor>
prm/pocket_docking_6.prm

>  <SCORE>
-19.7266

>  <SCORE.INTER>
-11.6782

>  <SCORE.INTER.CONST>
1

>  <SCORE.INTER.POLAR>
-2.50687

>  <SCORE.INTER.ROT>
14

>  <SCORE.INTER.SOLV>
17.248

>  <SCORE.INTER.VDW>
-18.1119

>  <SCORE.INTER.norm>
-0.324394

>  <SCORE.INTRA>
-8.04838

>  <SCORE.INTRA.DIHEDRAL>
-17.9563

>  <SCORE.INTRA.DIHEDRAL.0>
26.3805

>  <SCORE.INTRA.POLAR>
0

>  <SCORE.INTRA.POLAR.0>
0

>  <SCORE.INTRA.REPUL>
0

>  <SCORE.INTRA.REPUL.0>
0

>  <SCORE.INTRA.SOLV>
4.29582

>  <SCORE.INTRA.SOLV.lig_0>
-98.5587

>  <SCORE.INTRA.VDW>
-1.21814

>  <SCORE.INTRA.VDW.0>
-2.91167

>  <SCORE.INTRA.norm>
-0.223566

>  <SCORE.RESTR>
0

>  <SCORE.RESTR.CAVITY>
0

>  <SCORE.RESTR.norm>
0

>  <SCORE.SYSTEM>
0

>  <SCORE.SYSTEM.CONST>
0

>  <SCORE.SYSTEM.DIHEDRAL>
0

>  <SCORE.SYSTEM.SOLV>
0

>  <SCORE.SYSTEM.norm>
0

>  <SCORE.heavy>
36

>  <SCORE.norm>
-0.54796

>  <RMSD>
4.756

$$$$
2f4u_lig
 OpenBabel11021811433D
libRbt.so/2013.1/901 2013/11/27
 36 37  0  0  0  0  0  0  0  0999 V2000
   38.6177    5.6639    5.3116 C   0  0  2  0  0  0  0  0  0  0  0  0
   39.9334    5.9380    4.7019 O   0  0  0  0  0  0  0  0  0  0  0  0
   44.0027    5.1933    6.0367 C   0  0  2  0  0  0  0  0  0  0  0  0
   45.2448    5.2924    6.8505 N   0  0  0  0  0  0  0  0  0  0  0  0
   37.5574    5.8186    4.1776 C   0  0  2  0  0  0  0  0  0  0  0  0
   37.8004    4.9070    3.0443 N   0  0  0  0  0  0  0  0  0  0  0  0
   43.5990    6.5794    5.4211 C   0  0  0  0  0  0  0  0  0  0  0  0
   46.6983    5.0771    5.8364 C   0  0  0  0  0  0  0  0  0  0  0  0
   47.4368    5.1106    7.1375 C   0  0  1  0  0  0  0  0  0  0  0  0
   47.7763    3.6613    7.5033 C   0  0  0  0  0  0  0  0  0  0  0  0
   48.4846    3.4588    8.8556 C   0  0  0  0  0  0  0  0  0  0  0  0
   49.8450    3.9906    8.7532 N   0  0  0  0  0  0  0  0  0  0  0  0
   48.6449    5.8062    6.9930 O   0  0  0  0  0  0  0  0  0  0  0  0
   43.7465    2.0972    7.5387 C   0  0  0  0  0  0  0  0  0  0  0  0
   42.7764    1.2203    6.7612 C   0  0  0  0  0  0  0  0  0  0  0  0
   37.5605    7.3031    3.6827 C   0  0  1  0  0  0  0  0  0  0  0  0
   42.6338    1.5905    5.3387 N   0  0  0  0  0  0  0  0  0  0  0  0
   36.6132    7.4951    2.6352 O   0  0  0  0  0  0  0  0  0  0  0  0
   42.2814    6.4775    4.6260 C   0  0  2  0  0  0  0  0  0  0  0  0
   41.8832    7.7742    4.0927 N   0  0  0  0  0  0  0  0  0  0  0  0
   43.5514    0.0086    3.6489 C   0  0  0  0  0  0  0  0  0  0  0  0
   43.4369   -1.2197    4.6010 C   0  0  0  0  0  0  0  0  0  0  0  0
   43.7603    1.3492    4.4003 C   0  0  0  0  0  0  0  0  0  0  0  0
   43.2091   -2.4891    3.8474 N   0  0  0  0  0  0  0  0  0  0  0  0
   46.9001    4.9283    4.7882 O   0  0  0  0  0  0  0  0  0  0  0  0
   37.2574    8.2132    4.8897 C   0  0  2  0  0  0  0  0  0  0  0  0
   37.2468    9.5954    4.5418 O   0  0  0  0  0  0  0  0  0  0  0  0
   41.1658    5.9664    5.5157 C   0  0  2  0  0  0  0  0  0  0  0  0
   38.2779    7.9843    6.0193 C   0  0  2  0  0  0  0  0  0  0  0  0
   38.3325    6.6018    6.3878 O   0  0  0  0  0  0  0  0  0  0  0  0
   41.5521    4.5469    6.0991 C   0  0  2  0  0  0  0  0  0  0  0  0
   40.4681    4.0873    6.9662 O   0  0  0  0  0  0  0  0  0  0  0  0
   37.9542    8.8022    7.2409 C   0  0  0  0  0  0  0  0  0  0  0  0
   36.7215    8.4510    7.7432 O   0  0  0  0  0  0  0  0  0  0  0  0
   42.8804    4.6817    6.9181 C   0  0  1  0  0  0  0  0  0  0  0  0
   43.2819    3.4618    7.4702 O   0  0  0  0  0  0  0  0  0  0  0  0
  1  2  1  6  0  0  0
  1  5  1  0  0  0  0
  1 30  1  0  0  0  0
  3  4  1  1  0  0  0
  3  7  1  0  0  0  0
  3 35  1  0  0  0  0
  5  6  1  6  0  0  0
  5 16  1  0  0  0  0
  7 19  1  0  0  0  0
  8  4  1  0  0  0  0
  8 25  2  0  0  0  0
  9  8  1  6  0  0  0
  9 10  1  0  0  0  0
  9 13  1  0  0  0  0
 10 11  1  0  0  0  0
 11 12  1  0  0  0  0
 14 15  1  0  0  0  0
 14 36  1  0  0  0  0
 15 17  1  0  0  0  0
 16 18  1  6  0  0  0
 16 26  1  0  0  0  0
 17 23  1  0  0  0  0
 19 20  1  1  0  0  0
 19 28  1  0  0  0  0
 21 22  1  0  0  0  0
 21 23  1  0  0  0  0
 22 24  1  0  0  0  0
 26 27  1  6  0  0  0
 26 29  1  0  0  0  0
 28  2  1  6  0  0  0
 28 31  1  0  0  0  0
 29 30  1  0  0  0  0
 29 33  1  1  0  0  0
 31 32  1  1  0  0  0
 31 35  1  0  0  0  0
 33 34  1  0  0  0  0
 35 36  1  6  0  0  0
M  END
>  <CHROM.1>
175.96265465,-87.31832432,101.32800128,-177.10723102,-69.91958845,59.22675149
-57.82923994,70.13806711,96.52589602,178.85030276,-58.57954856,-171.55356195
61.24888591,-56.65830087,42.16579907,4.89442355,5.74003489,2.74027528,-0.30407934
0.26266761

>  <Name>
2f4u_lig

>  <RI>
0

>  <Rbt.Current_Directory>
/home/itssahil/PROJECTS/Mol_Feturizer/New_Systems/rnas/2f4u

>  <Rbt.Executable>
rbdock ($Id: //depot/dev/client3/rdock/2013.1/src/exe/rbdock.cxx#4 $)

>  <Rbt.Library>
libRbt.so (2013.1, Build901 2013/11/27)

>  <Rbt.Parameter_File>
/export/apps/rDock/src/rDock_2013.1_src/data/scripts/dock_solv.prm

>  <Rbt.Receptor>
prm/pocket_docking_6.prm

>  <SCORE>
-11.8674

>  <SCORE.INTER>
-0.217176

>  <SCORE.INTER.CONST>
1

>  <SCORE.INTER.POLAR>
-0.525379

>  <SCORE.INTER.ROT>
14

>  <SCORE.INTER.SOLV>
11.2097

>  <SCORE.INTER.VDW>
-15.0634

>  <SCORE.INTER.norm>
-0.00603266

>  <SCORE.INTRA>
-11.6502

>  <SCORE.INTRA.DIHEDRAL>
-21.8472

>  <SCORE.INTRA.DIHEDRAL.0>
26.3805

>  <SCORE.INTRA.POLAR>
0

>  <SCORE.INTRA.POLAR.0>
0

>  <SCORE.INTRA.REPUL>
0

>  <SCORE.INTRA.REPUL.0>
0

>  <SCORE.INTRA.SOLV>
2.74395

>  <SCORE.INTRA.SOLV.lig_0>
-98.5587

>  <SCORE.INTRA.VDW>
-2.09856

>  <SCORE.INTRA.VDW.0>
-2.91167

>  <SCORE.INTRA.norm>
-0.323616

>  <SCORE.RESTR>
0

>  <SCORE.RESTR.CAVITY>
0

>  <SCORE.RESTR.norm>
0

>  <SCORE.SYSTEM>
0

>  <SCORE.SYSTEM.CONST>
0

>  <SCORE.SYSTEM.DIHEDRAL>
0

>  <SCORE.SYSTEM.SOLV>
0

>  <SCORE.SYSTEM.norm>
0

>  <SCORE.heavy>
36

>  <SCORE.norm>
-0.329649

>  <RMSD>
5.056

$$$$
2f4u_lig
 OpenBabel11021811433D
libRbt.so/2013.1/901 2013/11/27
 36 37  0  0  0  0  0  0  0  0999 V2000
   37.5298    9.4121    4.9066 C   0  0  2  0  0  0  0  0  0  0  0  0
   38.5397    8.4411    4.4427 O   0  0  0  0  0  0  0  0  0  0  0  0
   41.1751    5.8689    6.7522 C   0  0  2  0  0  0  0  0  0  0  0  0
   41.6109    4.7940    7.6846 N   0  0  0  0  0  0  0  0  0  0  0  0
   36.2022    9.0677    4.1629 C   0  0  2  0  0  0  0  0  0  0  0  0
   35.7480    7.6887    4.4205 N   0  0  0  0  0  0  0  0  0  0  0  0
   40.2444    6.9134    7.4635 C   0  0  0  0  0  0  0  0  0  0  0  0
   40.3778    3.5088    7.8077 C   0  0  0  0  0  0  0  0  0  0  0  0
   41.2675    2.9544    8.8757 C   0  0  1  0  0  0  0  0  0  0  0  0
   40.3623    2.4750   10.0159 C   0  0  0  0  0  0  0  0  0  0  0  0
   39.4573    3.5472   10.6504 C   0  0  0  0  0  0  0  0  0  0  0  0
   38.6297    2.9104   11.6767 N   0  0  0  0  0  0  0  0  0  0  0  0
   41.9696    1.8411    8.3941 O   0  0  0  0  0  0  0  0  0  0  0  0
   41.7485    3.2955    4.0660 C   0  0  0  0  0  0  0  0  0  0  0  0
   43.0203    2.6766    4.6266 C   0  0  0  0  0  0  0  0  0  0  0  0
   36.4124    9.2858    2.6277 C   0  0  1  0  0  0  0  0  0  0  0  0
   44.1847    3.5850    4.6285 N   0  0  0  0  0  0  0  0  0  0  0  0
   35.2277    8.9732    1.8997 O   0  0  0  0  0  0  0  0  0  0  0  0
   39.7539    7.9916    6.4758 C   0  0  2  0  0  0  0  0  0  0  0  0
   38.8536    8.9353    7.1263 N   0  0  0  0  0  0  0  0  0  0  0  0
   45.4524    5.5724    5.4305 C   0  0  0  0  0  0  0  0  0  0  0  0
   44.9150    6.5953    4.3851 C   0  0  0  0  0  0  0  0  0  0  0  0
   44.4227    4.4718    5.7966 C   0  0  0  0  0  0  0  0  0  0  0  0
   44.4498    5.9221    3.1354 N   0  0  0  0  0  0  0  0  0  0  0  0
   39.4218    3.3025    7.3550 O   0  0  0  0  0  0  0  0  0  0  0  0
   36.8409   10.7499    2.4040 C   0  0  2  0  0  0  0  0  0  0  0  0
   37.0672   11.0480    1.0287 O   0  0  0  0  0  0  0  0  0  0  0  0
   39.0152    7.3504    5.3181 C   0  0  2  0  0  0  0  0  0  0  0  0
   38.1117   11.0785    3.2081 C   0  0  2  0  0  0  0  0  0  0  0  0
   37.9321   10.7763    4.5961 O   0  0  0  0  0  0  0  0  0  0  0  0
   39.9685    6.3318    4.5711 C   0  0  2  0  0  0  0  0  0  0  0  0
   39.2255    5.7160    3.4725 O   0  0  0  0  0  0  0  0  0  0  0  0
   38.5029   12.5257    3.0708 C   0  0  0  0  0  0  0  0  0  0  0  0
   39.7672   12.7330    3.5744 O   0  0  0  0  0  0  0  0  0  0  0  0
   40.4354    5.2371    5.5895 C   0  0  1  0  0  0  0  0  0  0  0  0
   41.2808    4.2953    4.9957 O   0  0  0  0  0  0  0  0  0  0  0  0
  1  2  1  6  0  0  0
  1  5  1  0  0  0  0
  1 30  1  0  0  0  0
  3  4  1  1  0  0  0
  3  7  1  0  0  0  0
  3 35  1  0  0  0  0
  5  6  1  6  0  0  0
  5 16  1  0  0  0  0
  7 19  1  0  0  0  0
  8  4  1  0  0  0  0
  8 25  2  0  0  0  0
  9  8  1  6  0  0  0
  9 10  1  0  0  0  0
  9 13  1  0  0  0  0
 10 11  1  0  0  0  0
 11 12  1  0  0  0  0
 14 15  1  0  0  0  0
 14 36  1  0  0  0  0
 15 17  1  0  0  0  0
 16 18  1  6  0  0  0
 16 26  1  0  0  0  0
 17 23  1  0  0  0  0
 19 20  1  1  0  0  0
 19 28  1  0  0  0  0
 21 22  1  0  0  0  0
 21 23  1  0  0  0  0
 22 24  1  0  0  0  0
 26 27  1  6  0  0  0
 26 29  1  0  0  0  0
 28  2  1  6  0  0  0
 28 31  1  0  0  0  0
 29 30  1  0  0  0  0
 29 33  1  1  0  0  0
 31 32  1  6  0  0  0
 31 35  1  0  0  0  0
 33 34  1  0  0  0  0
 35 36  1  6  0  0  0
M  END
>  <CHROM.1>
-107.35628104,83.67873602,138.51102269,-59.05233238,177.79262982,-69.69010116
-169.70435588,88.44039319,-165.31293024,-56.01874281,67.72216643,-65.41090813
-168.23805133,-176.67654478,39.96349934,6.62468090,5.42646101,2.11564856
0.41697250,-0.79993487

>  <Name>
2f4u_lig

>  <RI>
0

>  <Rbt.Current_Directory>
/home/itssahil/PROJECTS/Mol_Feturizer/New_Systems/rnas/2f4u

>  <Rbt.Executable>
rbdock ($Id: //depot/dev/client3/rdock/2013.1/src/exe/rbdock.cxx#4 $)

>  <Rbt.Library>
libRbt.so (2013.1, Build901 2013/11/27)

>  <Rbt.Parameter_File>
/export/apps/rDock/src/rDock_2013.1_src/data/scripts/dock_solv.prm

>  <Rbt.Receptor>
prm/pocket_docking_4.prm

>  <SCORE>
-17.7731

>  <SCORE.INTER>
-12.7809

>  <SCORE.INTER.CONST>
1

>  <SCORE.INTER.POLAR>
-1.62628

>  <SCORE.INTER.ROT>
14

>  <SCORE.INTER.SOLV>
20.0658

>  <SCORE.INTER.VDW>
-22.7216

>  <SCORE.INTER.norm>
-0.355025

>  <SCORE.INTRA>
-4.99225

>  <SCORE.INTRA.DIHEDRAL>
-14.9264

>  <SCORE.INTRA.DIHEDRAL.0>
26.3805

>  <SCORE.INTRA.POLAR>
0

>  <SCORE.INTRA.POLAR.0>
0

>  <SCORE.INTRA.REPUL>
0

>  <SCORE.INTRA.REPUL.0>
0

>  <SCORE.INTRA.SOLV>
6.86348

>  <SCORE.INTRA.SOLV.lig_0>
-98.5587

>  <SCORE.INTRA.VDW>
-0.960782

>  <SCORE.INTRA.VDW.0>
-2.91167

>  <SCORE.INTRA.norm>
-0.138674

>  <SCORE.RESTR>
0

>  <SCORE.RESTR.CAVITY>
0

>  <SCORE.RESTR.norm>
0

>  <SCORE.SYSTEM>
0

>  <SCORE.SYSTEM.CONST>
0

>  <SCORE.SYSTEM.DIHEDRAL>
0

>  <SCORE.SYSTEM.SOLV>
0

>  <SCORE.SYSTEM.norm>
0

>  <SCORE.heavy>
36

>  <SCORE.norm>
-0.493698

>  <RMSD>
5.158

$$$$
2f4u_lig
 OpenBabel11021811433D
libRbt.so/2013.1/901 2013/11/27
 36 37  0  0  0  0  0  0  0  0999 V2000
   37.0306    9.7806    4.3602 C   0  0  2  0  0  0  0  0  0  0  0  0
   37.9935    8.7105    4.0353 O   0  0  0  0  0  0  0  0  0  0  0  0
   40.5512    7.0473    7.1317 C   0  0  2  0  0  0  0  0  0  0  0  0
   41.0208    6.1465    8.2193 N   0  0  0  0  0  0  0  0  0  0  0  0
   36.0346    9.8660    3.1624 C   0  0  2  0  0  0  0  0  0  0  0  0
   35.3291    8.5945    2.9183 N   0  0  0  0  0  0  0  0  0  0  0  0
   39.1920    7.7413    7.4979 C   0  0  0  0  0  0  0  0  0  0  0  0
   39.8914    4.7850    8.4608 C   0  0  0  0  0  0  0  0  0  0  0  0
   40.7629    4.4560    9.6321 C   0  0  1  0  0  0  0  0  0  0  0  0
   39.8454    3.9547   10.7529 C   0  0  0  0  0  0  0  0  0  0  0  0
   39.1341    2.6146   10.4890 C   0  0  0  0  0  0  0  0  0  0  0  0
   38.1259    2.4092   11.5308 N   0  0  0  0  0  0  0  0  0  0  0  0
   41.6428    3.4149    9.3061 O   0  0  0  0  0  0  0  0  0  0  0  0
   42.7265    4.7188    5.7206 C   0  0  0  0  0  0  0  0  0  0  0  0
   43.3815    4.9815    7.0684 C   0  0  0  0  0  0  0  0  0  0  0  0
   36.8220   10.2977    1.8809 C   0  0  1  0  0  0  0  0  0  0  0  0
   44.7211    4.3781    7.2174 N   0  0  0  0  0  0  0  0  0  0  0  0
   35.9561   10.3801    0.7519 O   0  0  0  0  0  0  0  0  0  0  0  0
   38.6864    8.6290    6.3425 C   0  0  2  0  0  0  0  0  0  0  0  0
   37.4019    9.2374    6.6652 N   0  0  0  0  0  0  0  0  0  0  0  0
   45.4073    2.2542    8.3212 C   0  0  0  0  0  0  0  0  0  0  0  0
   45.7718    0.7493    8.1465 C   0  0  0  0  0  0  0  0  0  0  0  0
   44.8950    2.9164    7.0155 C   0  0  0  0  0  0  0  0  0  0  0  0
   46.9776    0.5648    7.2843 N   0  0  0  0  0  0  0  0  0  0  0  0
   38.9819    4.4377    7.9986 O   0  0  0  0  0  0  0  0  0  0  0  0
   37.5033   11.6507    2.1679 C   0  0  2  0  0  0  0  0  0  0  0  0
   38.2582   12.1280    1.0569 O   0  0  0  0  0  0  0  0  0  0  0  0
   38.5196    7.8079    5.0795 C   0  0  2  0  0  0  0  0  0  0  0  0
   38.4228   11.5519    3.3984 C   0  0  2  0  0  0  0  0  0  0  0  0
   37.7058   11.0585    4.5353 O   0  0  0  0  0  0  0  0  0  0  0  0
   39.9014    7.1460    4.6831 C   0  0  2  0  0  0  0  0  0  0  0  0
   39.7070    6.3468    3.4742 O   0  0  0  0  0  0  0  0  0  0  0  0
   39.0357   12.8816    3.7481 C   0  0  0  0  0  0  0  0  0  0  0  0
   40.0114   13.2172    2.8366 O   0  0  0  0  0  0  0  0  0  0  0  0
   40.3821    6.2349    5.8630 C   0  0  1  0  0  0  0  0  0  0  0  0
   41.6003    5.6103    5.5802 O   0  0  0  0  0  0  0  0  0  0  0  0
  1  2  1  6  0  0  0
  1  5  1  0  0  0  0
  1 30  1  0  0  0  0
  3  4  1  1  0  0  0
  3  7  1  0  0  0  0
  3 35  1  0  0  0  0
  5  6  1  6  0  0  0
  5 16  1  0  0  0  0
  7 19  1  0  0  0  0
  8  4  1  0  0  0  0
  8 25  2  0  0  0  0
  9  8  1  6  0  0  0
  9 10  1  0  0  0  0
  9 13  1  0  0  0  0
 10 11  1  0  0  0  0
 11 12  1  0  0  0  0
 14 15  1  0  0  0  0
 14 36  1  0  0  0  0
 15 17  1  0  0  0  0
 16 18  1  6  0  0  0
 16 26  1  0  0  0  0
 17 23  1  0  0  0  0
 19 20  1  1  0  0  0
 19 28  1  0  0  0  0
 21 22  1  0  0  0  0
 21 23  1  0  0  0  0
 22 24  1  0  0  0  0
 26 27  1  6  0  0  0
 26 29  1  0  0  0  0
 28  2  1  6  0  0  0
 28 31  1  0  0  0  0
 29 30  1  0  0  0  0
 29 33  1  1  0  0  0
 31 32  1  6  0  0  0
 31 35  1  0  0  0  0
 33 34  1  0  0  0  0
 35 36  1  6  0  0  0
M  END
>  <CHROM.1>
-143.09280139,64.28773039,142.55624461,66.66407817,-169.74805598,-166.24347036
-57.99008947,-56.11028340,-118.44666101,68.39487486,-173.36636762,-36.09781012
-73.16110324,67.23263774,39.98077582,6.93142068,5.91253837,2.12033005,0.36986688
-0.83172752

>  <Name>
2f4u_lig

>  <RI>
0

>  <Rbt.Current_Directory>
/home/itssahil/PROJECTS/Mol_Feturizer/New_Systems/rnas/2f4u

>  <Rbt.Executable>
rbdock ($Id: //depot/dev/client3/rdock/2013.1/src/exe/rbdock.cxx#4 $)

>  <Rbt.Library>
libRbt.so (2013.1, Build901 2013/11/27)

>  <Rbt.Parameter_File>
/export/apps/rDock/src/rDock_2013.1_src/data/scripts/dock_solv.prm

>  <Rbt.Receptor>
prm/pocket_docking_2.prm

>  <SCORE>
-15.7787

>  <SCORE.INTER>
-16.3247

>  <SCORE.INTER.CONST>
1

>  <SCORE.INTER.POLAR>
-1.76963

>  <SCORE.INTER.ROT>
14

>  <SCORE.INTER.SOLV>
21.9408

>  <SCORE.INTER.VDW>
-25.2313

>  <SCORE.INTER.norm>
-0.453464

>  <SCORE.INTRA>
-0.51031

>  <SCORE.INTRA.DIHEDRAL>
-13.4284

>  <SCORE.INTRA.DIHEDRAL.0>
26.3805

>  <SCORE.INTRA.POLAR>
0

>  <SCORE.INTRA.POLAR.0>
0

>  <SCORE.INTRA.REPUL>
0

>  <SCORE.INTRA.REPUL.0>
0

>  <SCORE.INTRA.SOLV>
3.77956

>  <SCORE.INTRA.SOLV.lig_0>
-98.5587

>  <SCORE.INTRA.VDW>
4.3141

>  <SCORE.INTRA.VDW.0>
-2.91167

>  <SCORE.INTRA.norm>
-0.0141753

>  <SCORE.RESTR>
1.05634

>  <SCORE.RESTR.CAVITY>
1.05634

>  <SCORE.RESTR.norm>
0.0293428

>  <SCORE.SYSTEM>
0

>  <SCORE.SYSTEM.CONST>
0

>  <SCORE.SYSTEM.DIHEDRAL>
0

>  <SCORE.SYSTEM.SOLV>
0

>  <SCORE.SYSTEM.norm>
0

>  <SCORE.heavy>
36

>  <SCORE.norm>
-0.438297

>  <RMSD>
5.283

$$$$
2f4u_lig
 OpenBabel11021811433D
libRbt.so/2013.1/901 2013/11/27
 36 37  0  0  0  0  0  0  0  0999 V2000
   37.5165   10.6764    4.0544 C   0  0  2  0  0  0  0  0  0  0  0  0
   37.9202    9.2767    3.8182 O   0  0  0  0  0  0  0  0  0  0  0  0
   38.4022    7.5468    7.7768 C   0  0  2  0  0  0  0  0  0  0  0  0
   38.3751    6.5406    8.8730 N   0  0  0  0  0  0  0  0  0  0  0  0
   36.6541   11.1071    2.8277 C   0  0  2  0  0  0  0  0  0  0  0  0
   35.4670   10.2529    2.6397 N   0  0  0  0  0  0  0  0  0  0  0  0
   36.9739    7.7862    7.1720 C   0  0  0  0  0  0  0  0  0  0  0  0
   38.7287    4.9038    8.2539 C   0  0  0  0  0  0  0  0  0  0  0  0
   38.4015    4.4614    9.6456 C   0  0  1  0  0  0  0  0  0  0  0  0
   38.4668    2.9301    9.6615 C   0  0  0  0  0  0  0  0  0  0  0  0
   38.5699    2.2772   11.0523 C   0  0  0  0  0  0  0  0  0  0  0  0
   38.4501    0.8263   10.8959 N   0  0  0  0  0  0  0  0  0  0  0  0
   39.3646    4.9369   10.5459 O   0  0  0  0  0  0  0  0  0  0  0  0
   41.6641    6.1394    7.9412 C   0  0  0  0  0  0  0  0  0  0  0  0
   42.3117    5.1788    6.9550 C   0  0  0  0  0  0  0  0  0  0  0  0
   37.5490   11.0726    1.5445 C   0  0  1  0  0  0  0  0  0  0  0  0
   43.2003    4.1786    7.5802 N   0  0  0  0  0  0  0  0  0  0  0  0
   36.8026   11.4487    0.3900 O   0  0  0  0  0  0  0  0  0  0  0  0
   37.0216    8.7886    6.0009 C   0  0  2  0  0  0  0  0  0  0  0  0
   35.7023    8.9760    5.4103 N   0  0  0  0  0  0  0  0  0  0  0  0
   44.3404    4.1409    5.3668 C   0  0  0  0  0  0  0  0  0  0  0  0
   43.2346    3.3832    4.5723 C   0  0  0  0  0  0  0  0  0  0  0  0
   44.4174    3.7245    6.8589 C   0  0  0  0  0  0  0  0  0  0  0  0
   43.5015    1.9148    4.5091 N   0  0  0  0  0  0  0  0  0  0  0  0
   38.9869    4.4718    7.3009 O   0  0  0  0  0  0  0  0  0  0  0  0
   38.7496   12.0132    1.7698 C   0  0  2  0  0  0  0  0  0  0  0  0
   39.6351   12.0448    0.6533 O   0  0  0  0  0  0  0  0  0  0  0  0
   37.9606    8.2929    4.9194 C   0  0  2  0  0  0  0  0  0  0  0  0
   39.5373   11.6057    3.0280 C   0  0  2  0  0  0  0  0  0  0  0  0
   38.6789   11.5449    4.1724 O   0  0  0  0  0  0  0  0  0  0  0  0
   39.4125    8.0966    5.5176 C   0  0  2  0  0  0  0  0  0  0  0  0
   40.2912    7.6016    4.4588 O   0  0  0  0  0  0  0  0  0  0  0  0
   40.6663   12.5590    3.3155 C   0  0  0  0  0  0  0  0  0  0  0  0
   40.1870   13.8397    3.4744 O   0  0  0  0  0  0  0  0  0  0  0  0
   39.3401    7.0602    6.6897 C   0  0  1  0  0  0  0  0  0  0  0  0
   40.5932    6.8320    7.2658 O   0  0  0  0  0  0  0  0  0  0  0  0
  1  2  1  6  0  0  0
  1  5  1  0  0  0  0
  1 30  1  0  0  0  0
  3  4  1  1  0  0  0
  3  7  1  0  0  0  0
  3 35  1  0  0  0  0
  5  6  1  6  0  0  0
  5 16  1  0  0  0  0
  7 19  1  0  0  0  0
  8  4  1  0  0  0  0
  8 25  2  0  0  0  0
  9  8  1  6  0  0  0
  9 10  1  0  0  0  0
  9 13  1  0  0  0  0
 10 11  1  0  0  0  0
 11 12  1  0  0  0  0
 14 15  1  0  0  0  0
 14 36  1  0  0  0  0
 15 17  1  0  0  0  0
 16 18  1  6  0  0  0
 16 26  1  0  0  0  0
 17 23  1  0  0  0  0
 19 20  1  6  0  0  0
 19 28  1  0  0  0  0
 21 22  1  0  0  0  0
 21 23  1  0  0  0  0
 22 24  1  0  0  0  0
 26 27  1  6  0  0  0
 26 29  1  0  0  0  0
 28  2  1  6  0  0  0
 28 31  1  0  0  0  0
 29 30  1  0  0  0  0
 29 33  1  1  0  0  0
 31 32  1  6  0  0  0
 31 35  1  0  0  0  0
 33 34  1  0  0  0  0
 35 36  1  1  0  0  0
M  END
>  <CHROM.1>
-140.98814539,93.49059820,176.09109973,162.89382836,172.88189167,-166.13250502
76.47770644,-145.54109933,-14.76357922,-63.57268943,-68.13589550,23.44032808
58.02701665,87.56319768,39.38338310,7.48764985,5.71874455,1.83050638,0.43538720
-0.75305748

>  <Name>
2f4u_lig

>  <RI>
0

>  <Rbt.Current_Directory>
/home/itssahil/PROJECTS/Mol_Feturizer/New_Systems/rnas/2f4u

>  <Rbt.Executable>
rbdock ($Id: //depot/dev/client3/rdock/2013.1/src/exe/rbdock.cxx#4 $)

>  <Rbt.Library>
libRbt.so (2013.1, Build901 2013/11/27)

>  <Rbt.Parameter_File>
/export/apps/rDock/src/rDock_2013.1_src/data/scripts/dock_solv.prm

>  <Rbt.Receptor>
prm/pocket_docking_2.prm

>  <SCORE>
8.80747

>  <SCORE.INTER>
-0.271237

>  <SCORE.INTER.CONST>
1

>  <SCORE.INTER.POLAR>
-0.972064

>  <SCORE.INTER.ROT>
14

>  <SCORE.INTER.SOLV>
24.735

>  <SCORE.INTER.VDW>
-18.1189

>  <SCORE.INTER.norm>
-0.00753437

>  <SCORE.INTRA>
5.4959

>  <SCORE.INTRA.DIHEDRAL>
-6.4858

>  <SCORE.INTRA.DIHEDRAL.0>
26.3805

>  <SCORE.INTRA.POLAR>
0

>  <SCORE.INTRA.POLAR.0>
0

>  <SCORE.INTRA.REPUL>
0

>  <SCORE.INTRA.REPUL.0>
0

>  <SCORE.INTRA.SOLV>
5.51289

>  <SCORE.INTRA.SOLV.lig_0>
-98.5587

>  <SCORE.INTRA.VDW>
5.98235

>  <SCORE.INTRA.VDW.0>
-2.91167

>  <SCORE.INTRA.norm>
0.152664

>  <SCORE.RESTR>
3.58281

>  <SCORE.RESTR.CAVITY>
3.58281

>  <SCORE.RESTR.norm>
0.0995224

>  <SCORE.SYSTEM>
0

>  <SCORE.SYSTEM.CONST>
0

>  <SCORE.SYSTEM.DIHEDRAL>
0

>  <SCORE.SYSTEM.SOLV>
0

>  <SCORE.SYSTEM.norm>
0

>  <SCORE.heavy>
36

>  <SCORE.norm>
0.244652

>  <RMSD>
5.449

$$$$
2f4u_lig
 OpenBabel11021811433D
libRbt.so/2013.1/901 2013/11/27
 36 37  0  0  0  0  0  0  0  0999 V2000
   37.1290    9.8926    4.4603 C   0  0  2  0  0  0  0  0  0  0  0  0
   38.1094    8.8235    4.1890 O   0  0  0  0  0  0  0  0  0  0  0  0
   39.7340    6.2500    7.2927 C   0  0  2  0  0  0  0  0  0  0  0  0
   39.8418    5.1169    8.2515 N   0  0  0  0  0  0  0  0  0  0  0  0
   36.1085    9.8748    3.2803 C   0  0  2  0  0  0  0  0  0  0  0  0
   35.4275    8.5747    3.1376 N   0  0  0  0  0  0  0  0  0  0  0  0
   38.4486    7.1120    7.5536 C   0  0  0  0  0  0  0  0  0  0  0  0
   39.6872    5.6827    9.9377 C   0  0  0  0  0  0  0  0  0  0  0  0
   40.0232    4.2683   10.2929 C   0  0  1  0  0  0  0  0  0  0  0  0
   38.8700    3.3899    9.7951 C   0  0  0  0  0  0  0  0  0  0  0  0
   38.8445    1.9473   10.3332 C   0  0  0  0  0  0  0  0  0  0  0  0
   38.2927    1.9656   11.6894 N   0  0  0  0  0  0  0  0  0  0  0  0
   41.1858    3.8621    9.6240 O   0  0  0  0  0  0  0  0  0  0  0  0
   42.2356    4.5663    5.5721 C   0  0  0  0  0  0  0  0  0  0  0  0
   42.8474    4.5497    6.9650 C   0  0  0  0  0  0  0  0  0  0  0  0
   36.8613   10.2345    1.9564 C   0  0  1  0  0  0  0  0  0  0  0  0
   43.5515    3.2957    7.3010 N   0  0  0  0  0  0  0  0  0  0  0  0
   35.9723   10.2211    0.8425 O   0  0  0  0  0  0  0  0  0  0  0  0
   38.3174    8.2498    6.5209 C   0  0  2  0  0  0  0  0  0  0  0  0
   37.1001    9.0221    6.7358 N   0  0  0  0  0  0  0  0  0  0  0  0
   45.5482    1.8503    7.6528 C   0  0  0  0  0  0  0  0  0  0  0  0
   47.0902    1.8325    7.8771 C   0  0  0  0  0  0  0  0  0  0  0  0
   45.0228    3.2067    7.1143 C   0  0  0  0  0  0  0  0  0  0  0  0
   47.5774    0.4820    8.2896 N   0  0  0  0  0  0  0  0  0  0  0  0
   39.5039    6.6247   10.4281 O   0  0  0  0  0  0  0  0  0  0  0  0
   37.5172   11.6182    2.1368 C   0  0  2  0  0  0  0  0  0  0  0  0
   38.2397   12.0344    0.9807 O   0  0  0  0  0  0  0  0  0  0  0  0
   38.2802    7.6853    5.1148 C   0  0  2  0  0  0  0  0  0  0  0  0
   38.4620   11.6233    3.3520 C   0  0  2  0  0  0  0  0  0  0  0  0
   37.7782   11.1935    4.5343 O   0  0  0  0  0  0  0  0  0  0  0  0
   39.5981    6.8552    4.8346 C   0  0  2  0  0  0  0  0  0  0  0  0
   39.5269    6.3083    3.4804 O   0  0  0  0  0  0  0  0  0  0  0  0
   39.0512   12.9866    3.5978 C   0  0  0  0  0  0  0  0  0  0  0  0
   40.0770   13.2347    2.7139 O   0  0  0  0  0  0  0  0  0  0  0  0
   39.6970    5.6952    5.8824 C   0  0  1  0  0  0  0  0  0  0  0  0
   40.8398    4.9129    5.6921 O   0  0  0  0  0  0  0  0  0  0  0  0
  1  2  1  6  0  0  0
  1  5  1  0  0  0  0
  1 30  1  0  0  0  0
  3  4  1  1  0  0  0
  3  7  1  0  0  0  0
  3 35  1  0  0  0  0
  5  6  1  6  0  0  0
  5 16  1  0  0  0  0
  7 19  1  0  0  0  0
  8  4  1  0  0  0  0
  8 25  2  0  0  0  0
  9  8  1  6  0  0  0
  9 10  1  0  0  0  0
  9 13  1  0  0  0  0
 10 11  1  0  0  0  0
 11 12  1  0  0  0  0
 14 15  1  0  0  0  0
 14 36  1  0  0  0  0
 15 17  1  0  0  0  0
 16 18  1  6  0  0  0
 16 26  1  0  0  0  0
 17 23  1  0  0  0  0
 19 20  1  1  0  0  0
 19 28  1  0  0  0  0
 21 22  1  0  0  0  0
 21 23  1  0  0  0  0
 22 24  1  0  0  0  0
 26 27  1  6  0  0  0
 26 29  1  0  0  0  0
 28  2  1  6  0  0  0
 28 31  1  0  0  0  0
 29 30  1  0  0  0  0
 29 33  1  1  0  0  0
 31 32  1  6  0  0  0
 31 35  1  0  0  0  0
 33 34  1  0  0  0  0
 35 36  1  6  0  0  0
M  END
>  <CHROM.1>
-118.58876781,-51.80615880,-65.44191132,-166.42873020,78.97965925,126.66337720
75.19127324,95.90127507,174.84579849,-175.40145227,-163.38390305,-44.81451541
-78.10676209,-63.26943931,39.79407323,6.83910461,6.05492680,2.11028665,0.39979402
-0.85296018

>  <Name>
2f4u_lig

>  <RI>
0

>  <Rbt.Current_Directory>
/home/itssahil/PROJECTS/Mol_Feturizer/New_Systems/rnas/2f4u

>  <Rbt.Executable>
rbdock ($Id: //depot/dev/client3/rdock/2013.1/src/exe/rbdock.cxx#4 $)

>  <Rbt.Library>
libRbt.so (2013.1, Build901 2013/11/27)

>  <Rbt.Parameter_File>
/export/apps/rDock/src/rDock_2013.1_src/data/scripts/dock_solv.prm

>  <Rbt.Receptor>
prm/pocket_docking_2.prm

>  <SCORE>
-3.99146

>  <SCORE.INTER>
-11.6498

>  <SCORE.INTER.CONST>
1

>  <SCORE.INTER.POLAR>
-1.14292

>  <SCORE.INTER.ROT>
14

>  <SCORE.INTER.SOLV>
21.8307

>  <SCORE.INTER.VDW>
-24.167

>  <SCORE.INTER.norm>
-0.323604

>  <SCORE.INTRA>
6.22978

>  <SCORE.INTRA.DIHEDRAL>
-5.92681

>  <SCORE.INTRA.DIHEDRAL.0>
26.3805

>  <SCORE.INTRA.POLAR>
0

>  <SCORE.INTRA.POLAR.0>
0

>  <SCORE.INTRA.REPUL>
0

>  <SCORE.INTRA.REPUL.0>
0

>  <SCORE.INTRA.SOLV>
3.42065

>  <SCORE.INTRA.SOLV.lig_0>
-98.5587

>  <SCORE.INTRA.VDW>
7.48286

>  <SCORE.INTRA.VDW.0>
-2.91167

>  <SCORE.INTRA.norm>
0.173049

>  <SCORE.RESTR>
1.42852

>  <SCORE.RESTR.CAVITY>
1.42852

>  <SCORE.RESTR.norm>
0.0396811

>  <SCORE.SYSTEM>
0

>  <SCORE.SYSTEM.CONST>
0

>  <SCORE.SYSTEM.DIHEDRAL>
0

>  <SCORE.SYSTEM.SOLV>
0

>  <SCORE.SYSTEM.norm>
0

>  <SCORE.heavy>
36

>  <SCORE.norm>
-0.110874

>  <RMSD>
5.534

$$$$
2f4u_lig
 OpenBabel11021811433D
libRbt.so/2013.1/901 2013/11/27
 36 37  0  0  0  0  0  0  0  0999 V2000
   37.2679    9.8707    5.0740 C   0  0  2  0  0  0  0  0  0  0  0  0
   38.3572    8.8920    4.8914 O   0  0  0  0  0  0  0  0  0  0  0  0
   40.0410    6.3467    7.9869 C   0  0  2  0  0  0  0  0  0  0  0  0
   40.1640    5.2262    8.9586 N   0  0  0  0  0  0  0  0  0  0  0  0
   36.0538    9.3501    4.2439 C   0  0  2  0  0  0  0  0  0  0  0  0
   35.6145    8.0059    4.6616 N   0  0  0  0  0  0  0  0  0  0  0  0
   38.7714    7.2249    8.2700 C   0  0  0  0  0  0  0  0  0  0  0  0
   38.5629    4.7224    9.5670 C   0  0  0  0  0  0  0  0  0  0  0  0
   39.3478    3.8342   10.4806 C   0  0  1  0  0  0  0  0  0  0  0  0
   38.3387    3.0361   11.3138 C   0  0  0  0  0  0  0  0  0  0  0  0
   37.2473    2.2965   10.5181 C   0  0  0  0  0  0  0  0  0  0  0  0
   37.8907    1.5161    9.4594 N   0  0  0  0  0  0  0  0  0  0  0  0
   40.1035    2.9177    9.7368 O   0  0  0  0  0  0  0  0  0  0  0  0
   42.0439    3.9086    6.5591 C   0  0  0  0  0  0  0  0  0  0  0  0
   43.1326    4.0523    5.5062 C   0  0  0  0  0  0  0  0  0  0  0  0
   36.4453    9.3403    2.7289 C   0  0  1  0  0  0  0  0  0  0  0  0
   43.8364    2.7934    5.1886 N   0  0  0  0  0  0  0  0  0  0  0  0
   35.3700    8.8606    1.9258 O   0  0  0  0  0  0  0  0  0  0  0  0
   38.6229    8.3493    7.2249 C   0  0  2  0  0  0  0  0  0  0  0  0
   37.4193    9.1365    7.4614 N   0  0  0  0  0  0  0  0  0  0  0  0
   45.6609    2.6427    6.8764 C   0  0  0  0  0  0  0  0  0  0  0  0
   46.2481    1.8878    8.1067 C   0  0  0  0  0  0  0  0  0  0  0  0
   44.3946    1.9661    6.2893 C   0  0  0  0  0  0  0  0  0  0  0  0
   47.5710    2.4437    8.5216 N   0  0  0  0  0  0  0  0  0  0  0  0
   37.5383    5.0014    9.3834 O   0  0  0  0  0  0  0  0  0  0  0  0
   36.8522   10.7723    2.3279 C   0  0  2  0  0  0  0  0  0  0  0  0
   37.2374   10.8669    0.9588 O   0  0  0  0  0  0  0  0  0  0  0  0
   38.5422    7.7653    5.8286 C   0  0  2  0  0  0  0  0  0  0  0  0
   38.0030   11.2839    3.2130 C   0  0  2  0  0  0  0  0  0  0  0  0
   37.6627   11.1896    4.6007 O   0  0  0  0  0  0  0  0  0  0  0  0
   39.8441    6.9184    5.5248 C   0  0  2  0  0  0  0  0  0  0  0  0
   39.7309    6.3531    4.1811 O   0  0  0  0  0  0  0  0  0  0  0  0
   38.3627   12.7106    2.8951 C   0  0  0  0  0  0  0  0  0  0  0  0
   39.4851   13.0921    3.5951 O   0  0  0  0  0  0  0  0  0  0  0  0
   39.9604    5.7724    6.5862 C   0  0  1  0  0  0  0  0  0  0  0  0
   41.0901    4.9762    6.3764 O   0  0  0  0  0  0  0  0  0  0  0  0
  1  2  1  6  0  0  0
  1  5  1  0  0  0  0
  1 30  1  0  0  0  0
  3  4  1  1  0  0  0
  3  7  1  0  0  0  0
  3 35  1  0  0  0  0
  5  6  1  1  0  0  0
  5 16  1  0  0  0  0
  7 19  1  0  0  0  0
  8  4  1  0  0  0  0
  8 25  2  0  0  0  0
  9  8  1  6  0  0  0
  9 10  1  0  0  0  0
  9 13  1  0  0  0  0
 10 11  1  0  0  0  0
 11 12  1  0  0  0  0
 14 15  1  0  0  0  0
 14 36  1  0  0  0  0
 15 17  1  0  0  0  0
 16 18  1  6  0  0  0
 16 26  1  0  0  0  0
 17 23  1  0  0  0  0
 19 20  1  1  0  0  0
 19 28  1  0  0  0  0
 21 22  1  0  0  0  0
 21 23  1  0  0  0  0
 22 24  1  0  0  0  0
 26 27  1  6  0  0  0
 26 29  1  0  0  0  0
 28  2  1  6  0  0  0
 28 31  1  0  0  0  0
 29 30  1  0  0  0  0
 29 33  1  6  0  0  0
 31 32  1  6  0  0  0
 31 35  1  0  0  0  0
 33 34  1  0  0  0  0
 35 36  1  6  0  0  0
M  END
>  <CHROM.1>
-92.18590255,28.31439657,-178.30497848,51.86510435,50.43883028,-155.71582591
179.45321911,-51.03399594,-73.30627153,171.56020938,175.81106687,-53.53655346
-173.40759588,60.64403639,39.51811111,6.56088670,6.26612642,2.13007143,0.37022808
-0.79561431

>  <Name>
2f4u_lig

>  <RI>
0

>  <Rbt.Current_Directory>
/home/itssahil/PROJECTS/Mol_Feturizer/New_Systems/rnas/2f4u

>  <Rbt.Executable>
rbdock ($Id: //depot/dev/client3/rdock/2013.1/src/exe/rbdock.cxx#4 $)

>  <Rbt.Library>
libRbt.so (2013.1, Build901 2013/11/27)

>  <Rbt.Parameter_File>
/export/apps/rDock/src/rDock_2013.1_src/data/scripts/dock_solv.prm

>  <Rbt.Receptor>
prm/pocket_docking_2.prm

>  <SCORE>
-4.75438

>  <SCORE.INTER>
-6.10722

>  <SCORE.INTER.CONST>
1

>  <SCORE.INTER.POLAR>
-0.979796

>  <SCORE.INTER.ROT>
14

>  <SCORE.INTER.SOLV>
17.0731

>  <SCORE.INTER.VDW>
-19.4299

>  <SCORE.INTER.norm>
-0.169645

>  <SCORE.INTRA>
0.140869

>  <SCORE.INTRA.DIHEDRAL>
-17.4482

>  <SCORE.INTRA.DIHEDRAL.0>
26.3805

>  <SCORE.INTRA.POLAR>
0

>  <SCORE.INTRA.POLAR.0>
0

>  <SCORE.INTRA.REPUL>
0

>  <SCORE.INTRA.REPUL.0>
0

>  <SCORE.INTRA.SOLV>
6.37571

>  <SCORE.INTRA.SOLV.lig_0>
-98.5587

>  <SCORE.INTRA.VDW>
5.67714

>  <SCORE.INTRA.VDW.0>
-2.91167

>  <SCORE.INTRA.norm>
0.00391302

>  <SCORE.RESTR>
1.21198

>  <SCORE.RESTR.CAVITY>
1.21198

>  <SCORE.RESTR.norm>
0.033666

>  <SCORE.SYSTEM>
0

>  <SCORE.SYSTEM.CONST>
0

>  <SCORE.SYSTEM.DIHEDRAL>
0

>  <SCORE.SYSTEM.SOLV>
0

>  <SCORE.SYSTEM.norm>
0

>  <SCORE.heavy>
36

>  <SCORE.norm>
-0.132066

>  <RMSD>
5.612

$$$$
2f4u_lig
 OpenBabel11021811433D
libRbt.so/2013.1/901 2013/11/27
 36 37  0  0  0  0  0  0  0  0999 V2000
   36.9177    7.6507    4.8351 C   0  0  2  0  0  0  0  0  0  0  0  0
   37.9604    8.1365    5.7597 O   0  0  0  0  0  0  0  0  0  0  0  0
   42.0045    6.5990    6.1794 C   0  0  2  0  0  0  0  0  0  0  0  0
   43.1323    5.7462    6.6440 N   0  0  0  0  0  0  0  0  0  0  0  0
   35.9443    8.8451    4.5902 C   0  0  2  0  0  0  0  0  0  0  0  0
   36.6242   10.0257    4.0261 N   0  0  0  0  0  0  0  0  0  0  0  0
   41.2900    7.3205    7.3761 C   0  0  0  0  0  0  0  0  0  0  0  0
   42.7022    4.8663    8.1367 C   0  0  0  0  0  0  0  0  0  0  0  0
   44.1339    4.4308    8.1228 C   0  0  1  0  0  0  0  0  0  0  0  0
   44.4857    3.9848    9.5464 C   0  0  0  0  0  0  0  0  0  0  0  0
   43.6887    2.7845   10.0899 C   0  0  0  0  0  0  0  0  0  0  0  0
   44.1109    2.5308   11.4687 N   0  0  0  0  0  0  0  0  0  0  0  0
   44.2972    3.3240    7.2785 O   0  0  0  0  0  0  0  0  0  0  0  0
   42.5254    4.8999    3.2449 C   0  0  0  0  0  0  0  0  0  0  0  0
   42.0945    5.8899    2.1730 C   0  0  0  0  0  0  0  0  0  0  0  0
   35.2535    9.2191    5.9436 C   0  0  1  0  0  0  0  0  0  0  0  0
   42.7216    7.2215    2.2928 N   0  0  0  0  0  0  0  0  0  0  0  0
   34.3592   10.3160    5.7755 O   0  0  0  0  0  0  0  0  0  0  0  0
   40.0892    8.1573    6.8900 C   0  0  2  0  0  0  0  0  0  0  0  0
   39.3986    8.7906    8.0064 N   0  0  0  0  0  0  0  0  0  0  0  0
   41.5651    9.4075    2.5826 C   0  0  0  0  0  0  0  0  0  0  0  0
   41.2470   10.5888    3.5478 C   0  0  0  0  0  0  0  0  0  0  0  0
   42.2062    8.1886    3.2961 C   0  0  0  0  0  0  0  0  0  0  0  0
   40.6579   11.7556    2.8247 N   0  0  0  0  0  0  0  0  0  0  0  0
   41.8281    4.7735    8.7601 O   0  0  0  0  0  0  0  0  0  0  0  0
   34.5195    7.9697    6.4703 C   0  0  2  0  0  0  0  0  0  0  0  0
   33.8613    8.2068    7.7122 O   0  0  0  0  0  0  0  0  0  0  0  0
   39.0971    7.2794    6.1537 C   0  0  2  0  0  0  0  0  0  0  0  0
   35.4933    6.7887    6.6320 C   0  0  2  0  0  0  0  0  0  0  0  0
   36.1898    6.5279    5.4085 O   0  0  0  0  0  0  0  0  0  0  0  0
   39.8052    6.5884    4.9185 C   0  0  2  0  0  0  0  0  0  0  0  0
   38.8315    5.7352    4.2388 O   0  0  0  0  0  0  0  0  0  0  0  0
   34.7847    5.5337    7.0667 C   0  0  0  0  0  0  0  0  0  0  0  0
   35.6914    4.5242    7.2993 O   0  0  0  0  0  0  0  0  0  0  0  0
   41.0065    5.7295    5.4403 C   0  0  1  0  0  0  0  0  0  0  0  0
   41.6794    5.0825    4.3997 O   0  0  0  0  0  0  0  0  0  0  0  0
  1  2  1  1  0  0  0
  1  5  1  0  0  0  0
  1 30  1  0  0  0  0
  3  4  1  1  0  0  0
  3  7  1  0  0  0  0
  3 35  1  0  0  0  0
  5  6  1  1  0  0  0
  5 16  1  0  0  0  0
  7 19  1  0  0  0  0
  8  4  1  0  0  0  0
  8 25  2  0  0  0  0
  9  8  1  1  0  0  0
  9 10  1  0  0  0  0
  9 13  1  0  0  0  0
 10 11  1  0  0  0  0
 11 12  1  0  0  0  0
 14 15  1  0  0  0  0
 14 36  1  0  0  0  0
 15 17  1  0  0  0  0
 16 18  1  6  0  0  0
 16 26  1  0  0  0  0
 17 23  1  0  0  0  0
 19 20  1  1  0  0  0
 19 28  1  0  0  0  0
 21 22  1  0  0  0  0
 21 23  1  0  0  0  0
 22 24  1  0  0  0  0
 26 27  1  1  0  0  0
 26 29  1  0  0  0  0
 28  2  1  6  0  0  0
 28 31  1  0  0  0  0
 29 30  1  0  0  0  0
 29 33  1  6  0  0  0
 31 32  1  1  0  0  0
 31 35  1  0  0  0  0
 33 34  1  0  0  0  0
 35 36  1  6  0  0  0
M  END
>  <CHROM.1>
-176.67906953,40.95126463,159.83313583,62.24659652,-177.72685161,86.08045963
-51.26600046,-78.63142119,-113.50869291,178.79783830,-168.94723231,169.88331543
-175.50463321,-49.88189663,39.74612885,6.79796847,5.97750547,2.64530018,0.24930468
-0.90893287

>  <Name>
2f4u_lig

>  <RI>
0

>  <Rbt.Current_Directory>
/home/itssahil/PROJECTS/Mol_Feturizer/New_Systems/rnas/2f4u

>  <Rbt.Executable>
rbdock ($Id: //depot/dev/client3/rdock/2013.1/src/exe/rbdock.cxx#4 $)

>  <Rbt.Library>
libRbt.so (2013.1, Build901 2013/11/27)

>  <Rbt.Parameter_File>
/export/apps/rDock/src/rDock_2013.1_src/data/scripts/dock_solv.prm

>  <Rbt.Receptor>
prm/pocket_docking_8.prm

>  <SCORE>
621.375

>  <SCORE.INTER>
628.192

>  <SCORE.INTER.CONST>
1

>  <SCORE.INTER.POLAR>
-0.0307163

>  <SCORE.INTER.ROT>
14

>  <SCORE.INTER.SOLV>
42.5249

>  <SCORE.INTER.VDW>
391.789

>  <SCORE.INTER.norm>
17.4498

>  <SCORE.INTRA>
-10.7264

>  <SCORE.INTRA.DIHEDRAL>
-19.3451

>  <SCORE.INTRA.DIHEDRAL.0>
26.3805

>  <SCORE.INTRA.POLAR>
0

>  <SCORE.INTRA.POLAR.0>
0

>  <SCORE.INTRA.REPUL>
0

>  <SCORE.INTRA.REPUL.0>
0

>  <SCORE.INTRA.SOLV>
0.290319

>  <SCORE.INTRA.SOLV.lig_0>
-98.5587

>  <SCORE.INTRA.VDW>
-1.19894

>  <SCORE.INTRA.VDW.0>
-2.91167

>  <SCORE.INTRA.norm>
-0.297954

>  <SCORE.RESTR>
3.90921

>  <SCORE.RESTR.CAVITY>
3.90921

>  <SCORE.RESTR.norm>
0.108589

>  <SCORE.SYSTEM>
0

>  <SCORE.SYSTEM.CONST>
0

>  <SCORE.SYSTEM.DIHEDRAL>
0

>  <SCORE.SYSTEM.SOLV>
0

>  <SCORE.SYSTEM.norm>
0

>  <SCORE.heavy>
36

>  <SCORE.norm>
17.2604

>  <RMSD>
5.688

$$$$
2f4u_lig
 OpenBabel11021811433D
libRbt.so/2013.1/901 2013/11/27
 36 37  0  0  0  0  0  0  0  0999 V2000
   37.0622    9.4306    5.2234 C   0  0  2  0  0  0  0  0  0  0  0  0
   38.1256    8.4229    5.0454 O   0  0  0  0  0  0  0  0  0  0  0  0
   39.7468    6.4360    8.5552 C   0  0  2  0  0  0  0  0  0  0  0  0
   39.9452    5.4014    9.6064 N   0  0  0  0  0  0  0  0  0  0  0  0
   35.9703    9.1238    4.1521 C   0  0  2  0  0  0  0  0  0  0  0  0
   35.4171    7.7628    4.2781 N   0  0  0  0  0  0  0  0  0  0  0  0
   38.2757    6.9829    8.5481 C   0  0  0  0  0  0  0  0  0  0  0  0
   38.9821    3.9385    9.2604 C   0  0  0  0  0  0  0  0  0  0  0  0
   39.4565    3.4815   10.6042 C   0  0  1  0  0  0  0  0  0  0  0  0
   38.4232    3.9523   11.6338 C   0  0  0  0  0  0  0  0  0  0  0  0
   37.0074    3.3665   11.4798 C   0  0  0  0  0  0  0  0  0  0  0  0
   36.1191    4.0391   12.4297 N   0  0  0  0  0  0  0  0  0  0  0  0
   39.4987    2.0814   10.6546 O   0  0  0  0  0  0  0  0  0  0  0  0
   42.5375    4.6318    7.7487 C   0  0  0  0  0  0  0  0  0  0  0  0
   43.5317    4.4841    6.6066 C   0  0  0  0  0  0  0  0  0  0  0  0
   36.5898    9.3218    2.7288 C   0  0  1  0  0  0  0  0  0  0  0  0
   43.0977    3.5552    5.5437 N   0  0  0  0  0  0  0  0  0  0  0  0
   35.6324    9.0422    1.7107 O   0  0  0  0  0  0  0  0  0  0  0  0
   38.0661    8.0134    7.4200 C   0  0  2  0  0  0  0  0  0  0  0  0
   36.6882    8.4872    7.3850 N   0  0  0  0  0  0  0  0  0  0  0  0
   44.6145    1.6135    5.9036 C   0  0  0  0  0  0  0  0  0  0  0  0
   45.6474    2.1904    6.9178 C   0  0  0  0  0  0  0  0  0  0  0  0
   44.0949    2.6677    4.8914 C   0  0  0  0  0  0  0  0  0  0  0  0
   46.2720    1.1169    7.7478 N   0  0  0  0  0  0  0  0  0  0  0  0
   38.3261    3.6079    8.4719 O   0  0  0  0  0  0  0  0  0  0  0  0
   37.1120   10.7691    2.6285 C   0  0  2  0  0  0  0  0  0  0  0  0
   37.7071   11.0479    1.3637 O   0  0  0  0  0  0  0  0  0  0  0  0
   38.3911    7.3968    6.0741 C   0  0  2  0  0  0  0  0  0  0  0  0
   38.1326   11.0625    3.7429 C   0  0  2  0  0  0  0  0  0  0  0  0
   37.5790   10.7781    5.0324 O   0  0  0  0  0  0  0  0  0  0  0  0
   39.8895    6.8877    6.0647 C   0  0  2  0  0  0  0  0  0  0  0  0
   40.1692    6.2824    4.7633 O   0  0  0  0  0  0  0  0  0  0  0  0
   38.5952   12.4947    3.7159 C   0  0  0  0  0  0  0  0  0  0  0  0
   39.3746   12.7286    2.6055 O   0  0  0  0  0  0  0  0  0  0  0  0
   40.0705    5.8287    7.2045 C   0  0  1  0  0  0  0  0  0  0  0  0
   41.3751    5.3288    7.2531 O   0  0  0  0  0  0  0  0  0  0  0  0
  1  2  1  6  0  0  0
  1  5  1  0  0  0  0
  1 30  1  0  0  0  0
  3  4  1  1  0  0  0
  3  7  1  0  0  0  0
  3 35  1  0  0  0  0
  5  6  1  6  0  0  0
  5 16  1  0  0  0  0
  7 19  1  0  0  0  0
  8  4  1  0  0  0  0
  8 25  2  0  0  0  0
  9  8  1  6  0  0  0
  9 10  1  0  0  0  0
  9 13  1  0  0  0  0
 10 11  1  0  0  0  0
 11 12  1  0  0  0  0
 14 15  1  0  0  0  0
 14 36  1  0  0  0  0
 15 17  1  0  0  0  0
 16 18  1  6  0  0  0
 16 26  1  0  0  0  0
 17 23  1  0  0  0  0
 19 20  1  6  0  0  0
 19 28  1  0  0  0  0
 21 22  1  0  0  0  0
 21 23  1  0  0  0  0
 22 24  1  0  0  0  0
 26 27  1  6  0  0  0
 26 29  1  0  0  0  0
 28  2  1  6  0  0  0
 28 31  1  0  0  0  0
 29 30  1  0  0  0  0
 29 33  1  1  0  0  0
 31 32  1  6  0  0  0
 31 35  1  0  0  0  0
 33 34  1  0  0  0  0
 35 36  1  1  0  0  0
M  END
>  <CHROM.1>
-112.87765067,65.83407641,90.59092380,62.73230407,-173.17291599,-69.07675638
165.88656742,-141.86557506,67.61654765,-171.84081756,-76.72733237,-31.69965859
-69.36299327,45.87755380,39.37665271,6.51353687,6.48531704,2.10041966,0.50232463
-0.88555605

>  <Name>
2f4u_lig

>  <RI>
0

>  <Rbt.Current_Directory>
/home/itssahil/PROJECTS/Mol_Feturizer/New_Systems/rnas/2f4u

>  <Rbt.Executable>
rbdock ($Id: //depot/dev/client3/rdock/2013.1/src/exe/rbdock.cxx#4 $)

>  <Rbt.Library>
libRbt.so (2013.1, Build901 2013/11/27)

>  <Rbt.Parameter_File>
/export/apps/rDock/src/rDock_2013.1_src/data/scripts/dock_solv.prm

>  <Rbt.Receptor>
prm/pocket_docking_2.prm

>  <SCORE>
-6.04719

>  <SCORE.INTER>
-9.80773

>  <SCORE.INTER.CONST>
1

>  <SCORE.INTER.POLAR>
-0.979796

>  <SCORE.INTER.ROT>
14

>  <SCORE.INTER.SOLV>
13.3318

>  <SCORE.INTER.VDW>
-20.6498

>  <SCORE.INTER.norm>
-0.272437

>  <SCORE.INTRA>
2.45125

>  <SCORE.INTRA.DIHEDRAL>
-9.51066

>  <SCORE.INTRA.DIHEDRAL.0>
26.3805

>  <SCORE.INTRA.POLAR>
0

>  <SCORE.INTRA.POLAR.0>
0

>  <SCORE.INTRA.REPUL>
0

>  <SCORE.INTRA.REPUL.0>
0

>  <SCORE.INTRA.SOLV>
4.21362

>  <SCORE.INTRA.SOLV.lig_0>
-98.5587

>  <SCORE.INTRA.VDW>
5.09977

>  <SCORE.INTRA.VDW.0>
-2.91167

>  <SCORE.INTRA.norm>
0.0680903

>  <SCORE.RESTR>
1.30928

>  <SCORE.RESTR.CAVITY>
1.30928

>  <SCORE.RESTR.norm>
0.0363689

>  <SCORE.SYSTEM>
0

>  <SCORE.SYSTEM.CONST>
0

>  <SCORE.SYSTEM.DIHEDRAL>
0

>  <SCORE.SYSTEM.SOLV>
0

>  <SCORE.SYSTEM.norm>
0

>  <SCORE.heavy>
36

>  <SCORE.norm>
-0.167978

>  <RMSD>
5.726

$$$$
2f4u_lig
 OpenBabel11021811433D
libRbt.so/2013.1/901 2013/11/27
 36 37  0  0  0  0  0  0  0  0999 V2000
   35.6646    3.9261    5.6670 C   0  0  2  0  0  0  0  0  0  0  0  0
   36.7017    4.0983    4.6313 O   0  0  0  0  0  0  0  0  0  0  0  0
   40.9746    4.8168    4.9801 C   0  0  2  0  0  0  0  0  0  0  0  0
   42.2526    5.5318    5.2452 N   0  0  0  0  0  0  0  0  0  0  0  0
   34.6889    2.8261    5.1455 C   0  0  2  0  0  0  0  0  0  0  0  0
   35.3679    1.5448    4.8777 N   0  0  0  0  0  0  0  0  0  0  0  0
   40.1260    5.5345    3.8719 C   0  0  0  0  0  0  0  0  0  0  0  0
   43.3777    5.3723    3.8682 C   0  0  0  0  0  0  0  0  0  0  0  0
   44.3520    6.0658    4.7679 C   0  0  1  0  0  0  0  0  0  0  0  0
   45.5424    5.1197    4.9618 C   0  0  0  0  0  0  0  0  0  0  0  0
   46.4999    5.4735    6.1148 C   0  0  0  0  0  0  0  0  0  0  0  0
   47.6059    4.5140    6.1128 N   0  0  0  0  0  0  0  0  0  0  0  0
   44.8320    7.2325    4.1575 O   0  0  0  0  0  0  0  0  0  0  0  0
   41.3508    3.5549    8.5061 C   0  0  0  0  0  0  0  0  0  0  0  0
   42.8319    3.2115    8.4509 C   0  0  0  0  0  0  0  0  0  0  0  0
   33.9909    3.3458    3.8449 C   0  0  1  0  0  0  0  0  0  0  0  0
   43.1224    1.8764    7.8904 N   0  0  0  0  0  0  0  0  0  0  0  0
   33.0942    2.3699    3.3206 O   0  0  0  0  0  0  0  0  0  0  0  0
   38.7798    4.8173    3.6441 C   0  0  2  0  0  0  0  0  0  0  0  0
   37.9728    5.5099    2.6474 N   0  0  0  0  0  0  0  0  0  0  0  0
   45.0150    0.3019    7.5179 C   0  0  0  0  0  0  0  0  0  0  0  0
   46.3394   -0.0004    6.7543 C   0  0  0  0  0  0  0  0  0  0  0  0
   44.3758    1.6588    7.1229 C   0  0  0  0  0  0  0  0  0  0  0  0
   46.8989   -1.3370    7.1175 N   0  0  0  0  0  0  0  0  0  0  0  0
   43.3505    4.9208    2.8901 O   0  0  0  0  0  0  0  0  0  0  0  0
   33.2581    4.6592    4.1842 C   0  0  2  0  0  0  0  0  0  0  0  0
   32.5937    5.2207    3.0550 O   0  0  0  0  0  0  0  0  0  0  0  0
   37.9894    4.7548    4.9358 C   0  0  2  0  0  0  0  0  0  0  0  0
   34.2347    5.6983    4.7640 C   0  0  2  0  0  0  0  0  0  0  0  0
   34.9374    5.1669    5.8927 O   0  0  0  0  0  0  0  0  0  0  0  0
   38.8255    3.9894    6.0402 C   0  0  2  0  0  0  0  0  0  0  0  0
   38.0480    3.9602    7.2782 O   0  0  0  0  0  0  0  0  0  0  0  0
   33.5277    6.9606    5.1799 C   0  0  0  0  0  0  0  0  0  0  0  0
   33.0220    7.6147    4.0792 O   0  0  0  0  0  0  0  0  0  0  0  0
   40.1767    4.7483    6.2673 C   0  0  1  0  0  0  0  0  0  0  0  0
   40.9690    4.1289    7.2383 O   0  0  0  0  0  0  0  0  0  0  0  0
  1  2  1  6  0  0  0
  1  5  1  0  0  0  0
  1 30  1  0  0  0  0
  3  4  1  1  0  0  0
  3  7  1  0  0  0  0
  3 35  1  0  0  0  0
  5  6  1  6  0  0  0
  5 16  1  0  0  0  0
  7 19  1  0  0  0  0
  8  4  1  0  0  0  0
  8 25  2  0  0  0  0
  9  8  1  6  0  0  0
  9 10  1  0  0  0  0
  9 13  1  0  0  0  0
 10 11  1  0  0  0  0
 11 12  1  0  0  0  0
 14 15  1  0  0  0  0
 14 36  1  0  0  0  0
 15 17  1  0  0  0  0
 16 18  1  1  0  0  0
 16 26  1  0  0  0  0
 17 23  1  0  0  0  0
 19 20  1  6  0  0  0
 19 28  1  0  0  0  0
 21 22  1  0  0  0  0
 21 23  1  0  0  0  0
 22 24  1  0  0  0  0
 26 27  1  6  0  0  0
 26 29  1  0  0  0  0
 28  2  1  6  0  0  0
 28 31  1  0  0  0  0
 29 30  1  0  0  0  0
 29 33  1  1  0  0  0
 31 32  1  1  0  0  0
 31 35  1  0  0  0  0
 33 34  1  0  0  0  0
 35 36  1  1  0  0  0
M  END
>  <CHROM.1>
-161.98631860,-69.97447774,119.96753682,-165.53504844,-177.15779699,-86.62582124
-173.94943996,147.75056273,137.85024941,-177.71781417,-179.95071339,-177.50719062
-66.71083128,-176.86074279,39.75149553,4.16022073,5.35486362,2.93627416,-0.08263352
-0.48764759

>  <Name>
2f4u_lig

>  <RI>
0

>  <Rbt.Current_Directory>
/home/itssahil/PROJECTS/Mol_Feturizer/New_Systems/rnas/2f4u

>  <Rbt.Executable>
rbdock ($Id: //depot/dev/client3/rdock/2013.1/src/exe/rbdock.cxx#4 $)

>  <Rbt.Library>
libRbt.so (2013.1, Build901 2013/11/27)

>  <Rbt.Parameter_File>
/export/apps/rDock/src/rDock_2013.1_src/data/scripts/dock_solv.prm

>  <Rbt.Receptor>
prm/pocket_docking_8.prm

>  <SCORE>
-11.9604

>  <SCORE.INTER>
-1.15763

>  <SCORE.INTER.CONST>
1

>  <SCORE.INTER.POLAR>
-0.884232

>  <SCORE.INTER.ROT>
14

>  <SCORE.INTER.SOLV>
9.30474

>  <SCORE.INTER.VDW>
-13.8592

>  <SCORE.INTER.norm>
-0.0321564

>  <SCORE.INTRA>
-10.8028

>  <SCORE.INTRA.DIHEDRAL>
-17.2665

>  <SCORE.INTRA.DIHEDRAL.0>
26.3805

>  <SCORE.INTRA.POLAR>
0

>  <SCORE.INTRA.POLAR.0>
0

>  <SCORE.INTRA.REPUL>
0

>  <SCORE.INTRA.REPUL.0>
0

>  <SCORE.INTRA.SOLV>
-1.00923

>  <SCORE.INTRA.SOLV.lig_0>
-98.5587

>  <SCORE.INTRA.VDW>
-1.66487

>  <SCORE.INTRA.VDW.0>
-2.91167

>  <SCORE.INTRA.norm>
-0.300077

>  <SCORE.RESTR>
0

>  <SCORE.RESTR.CAVITY>
0

>  <SCORE.RESTR.norm>
0

>  <SCORE.SYSTEM>
0

>  <SCORE.SYSTEM.CONST>
0

>  <SCORE.SYSTEM.DIHEDRAL>
0

>  <SCORE.SYSTEM.SOLV>
0

>  <SCORE.SYSTEM.norm>
0

>  <SCORE.heavy>
36

>  <SCORE.norm>
-0.332233

>  <RMSD>
5.915

$$$$
2f4u_lig
 OpenBabel11021811433D
libRbt.so/2013.1/901 2013/11/27
 36 37  0  0  0  0  0  0  0  0999 V2000
   36.5231    7.5257    7.3988 C   0  0  2  0  0  0  0  0  0  0  0  0
   37.5025    8.6256    7.3051 O   0  0  0  0  0  0  0  0  0  0  0  0
   41.1489    6.8007    5.7989 C   0  0  2  0  0  0  0  0  0  0  0  0
   42.5971    6.5986    5.5218 N   0  0  0  0  0  0  0  0  0  0  0  0
   35.1145    8.1602    7.1812 C   0  0  2  0  0  0  0  0  0  0  0  0
   34.9954    8.8472    5.8819 N   0  0  0  0  0  0  0  0  0  0  0  0
   40.6297    8.1616    5.2145 C   0  0  0  0  0  0  0  0  0  0  0  0
   42.8519    5.9151    3.8923 C   0  0  0  0  0  0  0  0  0  0  0  0
   44.2862    5.8246    4.3099 C   0  0  1  0  0  0  0  0  0  0  0  0
   44.9114    4.6599    3.5342 C   0  0  0  0  0  0  0  0  0  0  0  0
   44.8844    4.7844    1.9995 C   0  0  0  0  0  0  0  0  0  0  0  0
   45.6378    3.6664    1.4282 N   0  0  0  0  0  0  0  0  0  0  0  0
   44.9722    6.9922    3.9489 O   0  0  0  0  0  0  0  0  0  0  0  0
   41.7893    4.5363    8.7366 C   0  0  0  0  0  0  0  0  0  0  0  0
   42.1697    3.2830    7.9625 C   0  0  0  0  0  0  0  0  0  0  0  0
   34.8271    9.1635    8.3472 C   0  0  1  0  0  0  0  0  0  0  0  0
   43.6250    3.0518    7.8640 N   0  0  0  0  0  0  0  0  0  0  0  0
   33.5522    9.7805    8.1886 O   0  0  0  0  0  0  0  0  0  0  0  0
   39.1424    8.3869    5.5547 C   0  0  2  0  0  0  0  0  0  0  0  0
   38.6727    9.6715    5.0509 N   0  0  0  0  0  0  0  0  0  0  0  0
   45.7390    3.0849    6.5487 C   0  0  0  0  0  0  0  0  0  0  0  0
   46.7076    2.9402    7.7607 C   0  0  0  0  0  0  0  0  0  0  0  0
   44.4304    3.8414    6.8968 C   0  0  0  0  0  0  0  0  0  0  0  0
   47.9345    2.1664    7.4038 N   0  0  0  0  0  0  0  0  0  0  0  0
   42.2283    5.6465    3.0554 O   0  0  0  0  0  0  0  0  0  0  0  0
   34.9174    8.3918    9.6790 C   0  0  2  0  0  0  0  0  0  0  0  0
   34.6784    9.2257   10.8100 O   0  0  0  0  0  0  0  0  0  0  0  0
   38.9340    8.3600    7.0557 C   0  0  2  0  0  0  0  0  0  0  0  0
   36.2929    7.7175    9.8301 C   0  0  2  0  0  0  0  0  0  0  0  0
   36.5803    6.8820    8.7033 O   0  0  0  0  0  0  0  0  0  0  0  0
   39.4136    6.9694    7.6394 C   0  0  2  0  0  0  0  0  0  0  0  0
   39.2182    6.9784    9.0885 O   0  0  0  0  0  0  0  0  0  0  0  0
   36.3762    6.8897   11.0847 C   0  0  0  0  0  0  0  0  0  0  0  0
   36.2680    7.6911   12.1988 O   0  0  0  0  0  0  0  0  0  0  0  0
   40.9299    6.7744    7.2987 C   0  0  1  0  0  0  0  0  0  0  0  0
   41.4261    5.5634    7.7901 O   0  0  0  0  0  0  0  0  0  0  0  0
  1  2  1  1  0  0  0
  1  5  1  0  0  0  0
  1 30  1  0  0  0  0
  3  4  1  1  0  0  0
  3  7  1  0  0  0  0
  3 35  1  0  0  0  0
  5  6  1  6  0  0  0
  5 16  1  0  0  0  0
  7 19  1  0  0  0  0
  8  4  1  0  0  0  0
  8 25  2  0  0  0  0
  9  8  1  6  0  0  0
  9 10  1  0  0  0  0
  9 13  1  0  0  0  0
 10 11  1  0  0  0  0
 11 12  1  0  0  0  0
 14 15  1  0  0  0  0
 14 36  1  0  0  0  0
 15 17  1  0  0  0  0
 16 18  1  6  0  0  0
 16 26  1  0  0  0  0
 17 23  1  0  0  0  0
 19 20  1  1  0  0  0
 19 28  1  0  0  0  0
 21 22  1  0  0  0  0
 21 23  1  0  0  0  0
 22 24  1  0  0  0  0
 26 27  1  1  0  0  0
 26 29  1  0  0  0  0
 28  2  1  6  0  0  0
 28 31  1  0  0  0  0
 29 30  1  0  0  0  0
 29 33  1  1  0  0  0
 31 32  1  1  0  0  0
 31 35  1  0  0  0  0
 33 34  1  0  0  0  0
 35 36  1  6  0  0  0
M  END
>  <CHROM.1>
-161.33599992,-83.74590287,151.92401286,60.09763843,174.22619098,102.44576749
170.16121239,-77.37516879,-157.22738321,177.99702214,-65.71360373,90.90935271
-64.37263587,177.54027221,40.30000596,6.49989188,6.92671118,2.95726226,-0.51818456
1.94973723

>  <Name>
2f4u_lig

>  <RI>
0

>  <Rbt.Current_Directory>
/home/itssahil/PROJECTS/Mol_Feturizer/New_Systems/rnas/2f4u

>  <Rbt.Executable>
rbdock ($Id: //depot/dev/client3/rdock/2013.1/src/exe/rbdock.cxx#4 $)

>  <Rbt.Library>
libRbt.so (2013.1, Build901 2013/11/27)

>  <Rbt.Parameter_File>
/export/apps/rDock/src/rDock_2013.1_src/data/scripts/dock_solv.prm

>  <Rbt.Receptor>
prm/pocket_docking_6.prm

>  <SCORE>
-9.86912

>  <SCORE.INTER>
-2.87763

>  <SCORE.INTER.CONST>
1

>  <SCORE.INTER.POLAR>
-1.05793

>  <SCORE.INTER.ROT>
14

>  <SCORE.INTER.SOLV>
15.4431

>  <SCORE.INTER.VDW>
-16.473

>  <SCORE.INTER.norm>
-0.0799343

>  <SCORE.INTRA>
-6.99149

>  <SCORE.INTRA.DIHEDRAL>
-13.284

>  <SCORE.INTRA.DIHEDRAL.0>
26.3805

>  <SCORE.INTRA.POLAR>
0

>  <SCORE.INTRA.POLAR.0>
0

>  <SCORE.INTRA.REPUL>
0

>  <SCORE.INTRA.REPUL.0>
0

>  <SCORE.INTRA.SOLV>
1.34798

>  <SCORE.INTRA.SOLV.lig_0>
-98.5587

>  <SCORE.INTRA.VDW>
-1.02347

>  <SCORE.INTRA.VDW.0>
-2.91167

>  <SCORE.INTRA.norm>
-0.194208

>  <SCORE.RESTR>
0

>  <SCORE.RESTR.CAVITY>
0

>  <SCORE.RESTR.norm>
0

>  <SCORE.SYSTEM>
0

>  <SCORE.SYSTEM.CONST>
0

>  <SCORE.SYSTEM.DIHEDRAL>
0

>  <SCORE.SYSTEM.SOLV>
0

>  <SCORE.SYSTEM.norm>
0

>  <SCORE.heavy>
36

>  <SCORE.norm>
-0.274142

>  <RMSD>
5.961

$$$$
2f4u_lig
 OpenBabel11021811433D
libRbt.so/2013.1/901 2013/11/27
 36 37  0  0  0  0  0  0  0  0999 V2000
   38.8413    5.9815   10.6712 C   0  0  2  0  0  0  0  0  0  0  0  0
   38.8220    4.8013    9.7854 O   0  0  0  0  0  0  0  0  0  0  0  0
   42.5263    5.2115    7.5483 C   0  0  2  0  0  0  0  0  0  0  0  0
   43.5976    4.9208    6.5569 N   0  0  0  0  0  0  0  0  0  0  0  0
   37.7235    5.7603   11.7369 C   0  0  2  0  0  0  0  0  0  0  0  0
   37.9200    4.5257   12.5187 N   0  0  0  0  0  0  0  0  0  0  0  0
   42.3160    4.0167    8.5440 C   0  0  0  0  0  0  0  0  0  0  0  0
   43.2201    3.4538    5.6120 C   0  0  0  0  0  0  0  0  0  0  0  0
   44.5909    3.6412    5.0415 C   0  0  1  0  0  0  0  0  0  0  0  0
   45.4947    2.5777    5.6753 C   0  0  0  0  0  0  0  0  0  0  0  0
   45.7251    2.7102    7.1921 C   0  0  0  0  0  0  0  0  0  0  0  0
   46.6385    1.6484    7.6189 N   0  0  0  0  0  0  0  0  0  0  0  0
   44.5767    3.4167    3.6581 O   0  0  0  0  0  0  0  0  0  0  0  0
   41.2279    7.4736    4.8372 C   0  0  0  0  0  0  0  0  0  0  0  0
   40.0801    8.3871    5.2408 C   0  0  0  0  0  0  0  0  0  0  0  0
   36.3366    5.7224   11.0132 C   0  0  1  0  0  0  0  0  0  0  0  0
   38.7578    7.7295    5.2475 N   0  0  0  0  0  0  0  0  0  0  0  0
   35.2790    5.5108   11.9449 O   0  0  0  0  0  0  0  0  0  0  0  0
   41.1671    4.3054    9.5315 C   0  0  2  0  0  0  0  0  0  0  0  0
   40.9422    3.1772   10.4266 N   0  0  0  0  0  0  0  0  0  0  0  0
   36.8337    9.0856    4.4360 C   0  0  0  0  0  0  0  0  0  0  0  0
   35.8077    9.3558    3.2946 C   0  0  0  0  0  0  0  0  0  0  0  0
   37.8269    7.9401    4.1088 C   0  0  0  0  0  0  0  0  0  0  0  0
   36.4826    9.7399    2.0186 N   0  0  0  0  0  0  0  0  0  0  0  0
   42.4034    2.7527    5.5574 O   0  0  0  0  0  0  0  0  0  0  0  0
   36.1564    7.0492   10.2487 C   0  0  2  0  0  0  0  0  0  0  0  0
   34.9187    7.1092    9.5443 O   0  0  0  0  0  0  0  0  0  0  0  0
   39.8802    4.5791    8.7791 C   0  0  2  0  0  0  0  0  0  0  0  0
   37.3130    7.2729    9.2579 C   0  0  2  0  0  0  0  0  0  0  0  0
   38.5787    7.2029    9.9238 O   0  0  0  0  0  0  0  0  0  0  0  0
   40.0776    5.8140    7.8093 C   0  0  2  0  0  0  0  0  0  0  0  0
   38.8286    6.0434    7.0845 O   0  0  0  0  0  0  0  0  0  0  0  0
   37.2027    8.6015    8.5587 C   0  0  0  0  0  0  0  0  0  0  0  0
   38.3098    8.8251    7.7716 O   0  0  0  0  0  0  0  0  0  0  0  0
   41.2343    5.4877    6.8049 C   0  0  1  0  0  0  0  0  0  0  0  0
   41.4628    6.5368    5.9097 O   0  0  0  0  0  0  0  0  0  0  0  0
  1  2  1  6  0  0  0
  1  5  1  0  0  0  0
  1 30  1  0  0  0  0
  3  4  1  6  0  0  0
  3  7  1  0  0  0  0
  3 35  1  0  0  0  0
  5  6  1  6  0  0  0
  5 16  1  0  0  0  0
  7 19  1  0  0  0  0
  8  4  1  0  0  0  0
  8 25  2  0  0  0  0
  9  8  1  1  0  0  0
  9 10  1  0  0  0  0
  9 13  1  0  0  0  0
 10 11  1  0  0  0  0
 11 12  1  0  0  0  0
 14 15  1  0  0  0  0
 14 36  1  0  0  0  0
 15 17  1  0  0  0  0
 16 18  1  1  0  0  0
 16 26  1  0  0  0  0
 17 23  1  0  0  0  0
 19 20  1  1  0  0  0
 19 28  1  0  0  0  0
 21 22  1  0  0  0  0
 21 23  1  0  0  0  0
 22 24  1  0  0  0  0
 26 27  1  6  0  0  0
 26 29  1  0  0  0  0
 28  2  1  1  0  0  0
 28 31  1  0  0  0  0
 29 30  1  0  0  0  0
 29 33  1  1  0  0  0
 31 32  1  6  0  0  0
 31 35  1  0  0  0  0
 33 34  1  0  0  0  0
 35 36  1  6  0  0  0
M  END
>  <CHROM.1>
-170.91271886,58.57754684,105.52914192,-65.50896200,-178.17349845,-71.42692413
65.55377208,-101.06112250,-95.28992698,-59.94606425,-179.21123623,66.96286509
174.61446848,171.32810127,39.94412015,5.80338377,7.53174540,-3.09738822,0.54484481
-1.13706062

>  <Name>
2f4u_lig

>  <RI>
0

>  <Rbt.Current_Directory>
/home/itssahil/PROJECTS/Mol_Feturizer/New_Systems/rnas/2f4u

>  <Rbt.Executable>
rbdock ($Id: //depot/dev/client3/rdock/2013.1/src/exe/rbdock.cxx#4 $)

>  <Rbt.Library>
libRbt.so (2013.1, Build901 2013/11/27)

>  <Rbt.Parameter_File>
/export/apps/rDock/src/rDock_2013.1_src/data/scripts/dock_solv.prm

>  <Rbt.Receptor>
prm/pocket_docking_3.prm

>  <SCORE>
-9.65269

>  <SCORE.INTER>
0.716458

>  <SCORE.INTER.CONST>
1

>  <SCORE.INTER.POLAR>
-0.748331

>  <SCORE.INTER.ROT>
14

>  <SCORE.INTER.SOLV>
15.3965

>  <SCORE.INTER.VDW>
-15.0934

>  <SCORE.INTER.norm>
0.0199016

>  <SCORE.INTRA>
-10.3861

>  <SCORE.INTRA.DIHEDRAL>
-20.4956

>  <SCORE.INTRA.DIHEDRAL.0>
26.3805

>  <SCORE.INTRA.POLAR>
0

>  <SCORE.INTRA.POLAR.0>
0

>  <SCORE.INTRA.REPUL>
0.00391014

>  <SCORE.INTRA.REPUL.0>
0

>  <SCORE.INTRA.SOLV>
4.98164

>  <SCORE.INTRA.SOLV.lig_0>
-98.5587

>  <SCORE.INTRA.VDW>
-2.64866

>  <SCORE.INTRA.VDW.0>
-2.91167

>  <SCORE.INTRA.norm>
-0.288503

>  <SCORE.RESTR>
0.0169612

>  <SCORE.RESTR.CAVITY>
0.0169612

>  <SCORE.RESTR.norm>
0.000471143

>  <SCORE.SYSTEM>
0

>  <SCORE.SYSTEM.CONST>
0

>  <SCORE.SYSTEM.DIHEDRAL>
0

>  <SCORE.SYSTEM.SOLV>
0

>  <SCORE.SYSTEM.norm>
0

>  <SCORE.heavy>
36

>  <SCORE.norm>
-0.26813

>  <RMSD>
5.963

$$$$
2f4u_lig
 OpenBabel11021811433D
libRbt.so/2013.1/901 2013/11/27
 36 37  0  0  0  0  0  0  0  0999 V2000
   39.5350    9.1995    4.4658 C   0  0  2  0  0  0  0  0  0  0  0  0
   39.2114    9.2413    5.9051 O   0  0  0  0  0  0  0  0  0  0  0  0
   38.7506    6.2700    9.0442 C   0  0  2  0  0  0  0  0  0  0  0  0
   38.2510    5.0682    9.7660 N   0  0  0  0  0  0  0  0  0  0  0  0
   38.4800   10.0934    3.7432 C   0  0  2  0  0  0  0  0  0  0  0  0
   38.4834   11.4845    4.2322 N   0  0  0  0  0  0  0  0  0  0  0  0
   37.5888    7.2696    8.7059 C   0  0  0  0  0  0  0  0  0  0  0  0
   39.2052    4.7611   11.2433 C   0  0  0  0  0  0  0  0  0  0  0  0
   38.3908    3.5091   11.3377 C   0  0  1  0  0  0  0  0  0  0  0  0
   39.2886    2.3498   10.8910 C   0  0  0  0  0  0  0  0  0  0  0  0
   39.0024    1.7813    9.4887 C   0  0  0  0  0  0  0  0  0  0  0  0
   37.5878    1.4106    9.4161 N   0  0  0  0  0  0  0  0  0  0  0  0
   38.0190    3.2701   12.6677 O   0  0  0  0  0  0  0  0  0  0  0  0
   41.6562    4.4040    8.6750 C   0  0  0  0  0  0  0  0  0  0  0  0
   41.9491    3.0475    8.0514 C   0  0  0  0  0  0  0  0  0  0  0  0
   37.0627    9.4593    3.9382 C   0  0  1  0  0  0  0  0  0  0  0  0
   43.2773    2.4995    8.3927 N   0  0  0  0  0  0  0  0  0  0  0  0
   36.0583   10.2468    3.3038 O   0  0  0  0  0  0  0  0  0  0  0  0
   38.1082    8.4842    7.9099 C   0  0  2  0  0  0  0  0  0  0  0  0
   37.0219    9.3895    7.5568 N   0  0  0  0  0  0  0  0  0  0  0  0
   44.6235    2.7901    6.3182 C   0  0  0  0  0  0  0  0  0  0  0  0
   45.8601    3.5848    6.8353 C   0  0  0  0  0  0  0  0  0  0  0  0
   44.0645    1.7825    7.3565 C   0  0  0  0  0  0  0  0  0  0  0  0
   47.0787    2.7251    6.9204 N   0  0  0  0  0  0  0  0  0  0  0  0
   40.0223    5.2424   11.7554 O   0  0  0  0  0  0  0  0  0  0  0  0
   37.0951    8.0256    3.3721 C   0  0  2  0  0  0  0  0  0  0  0  0
   35.8448    7.3556    3.5114 O   0  0  0  0  0  0  0  0  0  0  0  0
   38.7822    8.0287    6.6311 C   0  0  2  0  0  0  0  0  0  0  0  0
   38.1942    7.1912    4.0542 C   0  0  2  0  0  0  0  0  0  0  0  0
   39.4670    7.8391    3.9520 O   0  0  0  0  0  0  0  0  0  0  0  0
   39.9840    7.0579    6.9741 C   0  0  2  0  0  0  0  0  0  0  0  0
   40.6030    6.6206    5.7236 O   0  0  0  0  0  0  0  0  0  0  0  0
   38.3002    5.8119    3.4604 C   0  0  0  0  0  0  0  0  0  0  0  0
   39.3814    5.1422    3.9873 O   0  0  0  0  0  0  0  0  0  0  0  0
   39.4277    5.8244    7.7631 C   0  0  1  0  0  0  0  0  0  0  0  0
   40.4374    4.9171    8.0971 O   0  0  0  0  0  0  0  0  0  0  0  0
  1  2  1  1  0  0  0
  1  5  1  0  0  0  0
  1 30  1  0  0  0  0
  3  4  1  6  0  0  0
  3  7  1  0  0  0  0
  3 35  1  0  0  0  0
  5  6  1  1  0  0  0
  5 16  1  0  0  0  0
  7 19  1  0  0  0  0
  8  4  1  0  0  0  0
  8 25  2  0  0  0  0
  9  8  1  1  0  0  0
  9 10  1  0  0  0  0
  9 13  1  0  0  0  0
 10 11  1  0  0  0  0
 11 12  1  0  0  0  0
 14 15  1  0  0  0  0
 14 36  1  0  0  0  0
 15 17  1  0  0  0  0
 16 18  1  6  0  0  0
 16 26  1  0  0  0  0
 17 23  1  0  0  0  0
 19 20  1  6  0  0  0
 19 28  1  0  0  0  0
 21 22  1  0  0  0  0
 21 23  1  0  0  0  0
 22 24  1  0  0  0  0
 26 27  1  1  0  0  0
 26 29  1  0  0  0  0
 28  2  1  1  0  0  0
 28 31  1  0  0  0  0
 29 30  1  0  0  0  0
 29 33  1  6  0  0  0
 31 32  1  6  0  0  0
 31 35  1  0  0  0  0
 33 34  1  0  0  0  0
 35 36  1  1  0  0  0
M  END
>  <CHROM.1>
115.49548381,-129.40216192,103.99477867,-105.08267909,-54.24639623,170.90140976
-166.95915515,-140.93770700,72.75967467,71.86093850,77.05922332,-161.69198753
173.47291793,-63.58724036,39.60983735,5.91620173,7.07744219,-2.11351584,-0.49608942
2.18321131

>  <Name>
2f4u_lig

>  <RI>
0

>  <Rbt.Current_Directory>
/home/itssahil/PROJECTS/Mol_Feturizer/New_Systems/rnas/2f4u

>  <Rbt.Executable>
rbdock ($Id: //depot/dev/client3/rdock/2013.1/src/exe/rbdock.cxx#4 $)

>  <Rbt.Library>
libRbt.so (2013.1, Build901 2013/11/27)

>  <Rbt.Parameter_File>
/export/apps/rDock/src/rDock_2013.1_src/data/scripts/dock_solv.prm

>  <Rbt.Receptor>
prm/pocket_docking_3.prm

>  <SCORE>
-7.97301

>  <SCORE.INTER>
-6.48655

>  <SCORE.INTER.CONST>
1

>  <SCORE.INTER.POLAR>
-1.36627

>  <SCORE.INTER.ROT>
14

>  <SCORE.INTER.SOLV>
18.4629

>  <SCORE.INTER.VDW>
-18.8578

>  <SCORE.INTER.norm>
-0.180182

>  <SCORE.INTRA>
-1.59767

>  <SCORE.INTRA.DIHEDRAL>
-5.94408

>  <SCORE.INTRA.DIHEDRAL.0>
26.3805

>  <SCORE.INTRA.POLAR>
0

>  <SCORE.INTRA.POLAR.0>
0

>  <SCORE.INTRA.REPUL>
0.00204986

>  <SCORE.INTRA.REPUL.0>
0

>  <SCORE.INTRA.SOLV>
4.84275

>  <SCORE.INTRA.SOLV.lig_0>
-98.5587

>  <SCORE.INTRA.VDW>
-1.05726

>  <SCORE.INTRA.VDW.0>
-2.91167

>  <SCORE.INTRA.norm>
-0.0443797

>  <SCORE.RESTR>
0.111208

>  <SCORE.RESTR.CAVITY>
0.111208

>  <SCORE.RESTR.norm>
0.00308912

>  <SCORE.SYSTEM>
0

>  <SCORE.SYSTEM.CONST>
0

>  <SCORE.SYSTEM.DIHEDRAL>
0

>  <SCORE.SYSTEM.SOLV>
0

>  <SCORE.SYSTEM.norm>
0

>  <SCORE.heavy>
36

>  <SCORE.norm>
-0.221473

>  <RMSD>
5.985

$$$$
2f4u_lig
 OpenBabel11021811433D
libRbt.so/2013.1/901 2013/11/27
 36 37  0  0  0  0  0  0  0  0999 V2000
   37.8500    8.4906    6.9244 C   0  0  2  0  0  0  0  0  0  0  0  0
   38.1183    7.0413    6.9974 O   0  0  0  0  0  0  0  0  0  0  0  0
   40.0266    6.2339    3.1761 C   0  0  2  0  0  0  0  0  0  0  0  0
   40.7728    5.5041    2.1153 N   0  0  0  0  0  0  0  0  0  0  0  0
   36.9839    8.8493    8.1715 C   0  0  2  0  0  0  0  0  0  0  0  0
   37.6508    8.5118    9.4426 N   0  0  0  0  0  0  0  0  0  0  0  0
   40.8797    6.3902    4.4841 C   0  0  0  0  0  0  0  0  0  0  0  0
   41.4212    3.9587    2.7307 C   0  0  0  0  0  0  0  0  0  0  0  0
   42.0932    3.8732    1.3963 C   0  0  1  0  0  0  0  0  0  0  0  0
   43.4526    4.5690    1.5281 C   0  0  0  0  0  0  0  0  0  0  0  0
   44.2097    4.8177    0.2104 C   0  0  0  0  0  0  0  0  0  0  0  0
   44.5231    3.5233   -0.3982 N   0  0  0  0  0  0  0  0  0  0  0  0
   42.3325    2.5344    1.0575 O   0  0  0  0  0  0  0  0  0  0  0  0
   37.3279    5.6933    1.0919 C   0  0  0  0  0  0  0  0  0  0  0  0
   36.7935    4.4233    0.4469 C   0  0  0  0  0  0  0  0  0  0  0  0
   35.6147    8.0989    8.0679 C   0  0  1  0  0  0  0  0  0  0  0  0
   35.8111    3.6930    1.2731 N   0  0  0  0  0  0  0  0  0  0  0  0
   34.7878    8.3855    9.1929 O   0  0  0  0  0  0  0  0  0  0  0  0
   40.0780    7.0985    5.5951 C   0  0  2  0  0  0  0  0  0  0  0  0
   40.8548    7.2029    6.8240 N   0  0  0  0  0  0  0  0  0  0  0  0
   36.9874    2.4667    3.0932 C   0  0  0  0  0  0  0  0  0  0  0  0
   37.3911    1.0889    3.6989 C   0  0  0  0  0  0  0  0  0  0  0  0
   36.1486    2.3432    1.7943 C   0  0  0  0  0  0  0  0  0  0  0  0
   38.1400    1.2426    4.9821 N   0  0  0  0  0  0  0  0  0  0  0  0
   41.3795    3.4125    3.6588 O   0  0  0  0  0  0  0  0  0  0  0  0
   34.9353    8.5175    6.7487 C   0  0  2  0  0  0  0  0  0  0  0  0
   33.6768    7.8767    6.5558 O   0  0  0  0  0  0  0  0  0  0  0  0
   38.8068    6.3316    5.9000 C   0  0  2  0  0  0  0  0  0  0  0  0
   35.8451    8.2173    5.5438 C   0  0  2  0  0  0  0  0  0  0  0  0
   37.1290    8.8300    5.7061 O   0  0  0  0  0  0  0  0  0  0  0  0
   37.9237    6.2147    4.5919 C   0  0  2  0  0  0  0  0  0  0  0  0
   36.7148    5.4561    4.9105 O   0  0  0  0  0  0  0  0  0  0  0  0
   35.2378    8.6929    4.2510 C   0  0  0  0  0  0  0  0  0  0  0  0
   34.0940    7.9820    3.9656 O   0  0  0  0  0  0  0  0  0  0  0  0
   38.7519    5.4746    3.4876 C   0  0  1  0  0  0  0  0  0  0  0  0
   38.0298    5.3300    2.2994 O   0  0  0  0  0  0  0  0  0  0  0  0
  1  2  1  6  0  0  0
  1  5  1  0  0  0  0
  1 30  1  0  0  0  0
  3  4  1  6  0  0  0
  3  7  1  0  0  0  0
  3 35  1  0  0  0  0
  5  6  1  1  0  0  0
  5 16  1  0  0  0  0
  7 19  1  0  0  0  0
  8  4  1  0  0  0  0
  8 25  2  0  0  0  0
  9  8  1  1  0  0  0
  9 10  1  0  0  0  0
  9 13  1  0  0  0  0
 10 11  1  0  0  0  0
 11 12  1  0  0  0  0
 14 15  1  0  0  0  0
 14 36  1  0  0  0  0
 15 17  1  0  0  0  0
 16 18  1  1  0  0  0
 16 26  1  0  0  0  0
 17 23  1  0  0  0  0
 19 20  1  1  0  0  0
 19 28  1  0  0  0  0
 21 22  1  0  0  0  0
 21 23  1  0  0  0  0
 22 24  1  0  0  0  0
 26 27  1  6  0  0  0
 26 29  1  0  0  0  0
 28  2  1  1  0  0  0
 28 31  1  0  0  0  0
 29 30  1  0  0  0  0
 29 33  1  6  0  0  0
 31 32  1  1  0  0  0
 31 35  1  0  0  0  0
 33 34  1  0  0  0  0
 35 36  1  6  0  0  0
M  END
>  <CHROM.1>
173.97860073,52.09754451,89.20626861,-169.60233790,-63.11479097,62.61868160
-177.69957194,-114.38924291,82.90388399,-177.23977717,-179.61030343,51.39889770
-65.65639215,-57.17974624,38.36879945,5.78675100,4.21336208,-2.24758254,-0.06556942
-2.29968062

>  <Name>
2f4u_lig

>  <RI>
0

>  <Rbt.Current_Directory>
/home/itssahil/PROJECTS/Mol_Feturizer/New_Systems/rnas/2f4u

>  <Rbt.Executable>
rbdock ($Id: //depot/dev/client3/rdock/2013.1/src/exe/rbdock.cxx#4 $)

>  <Rbt.Library>
libRbt.so (2013.1, Build901 2013/11/27)

>  <Rbt.Parameter_File>
/export/apps/rDock/src/rDock_2013.1_src/data/scripts/dock_solv.prm

>  <Rbt.Receptor>
prm/pocket_docking_7.prm

>  <SCORE>
-13.2921

>  <SCORE.INTER>
-1.71232

>  <SCORE.INTER.CONST>
1

>  <SCORE.INTER.POLAR>
-0.748331

>  <SCORE.INTER.ROT>
14

>  <SCORE.INTER.SOLV>
11.0105

>  <SCORE.INTER.VDW>
-15.2506

>  <SCORE.INTER.norm>
-0.0475645

>  <SCORE.INTRA>
-11.5798

>  <SCORE.INTRA.DIHEDRAL>
-21.8678

>  <SCORE.INTRA.DIHEDRAL.0>
26.3805

>  <SCORE.INTRA.POLAR>
0

>  <SCORE.INTRA.POLAR.0>
0

>  <SCORE.INTRA.REPUL>
0

>  <SCORE.INTRA.REPUL.0>
0

>  <SCORE.INTRA.SOLV>
3.20732

>  <SCORE.INTRA.SOLV.lig_0>
-98.5587

>  <SCORE.INTRA.VDW>
-2.24952

>  <SCORE.INTRA.VDW.0>
-2.91167

>  <SCORE.INTRA.norm>
-0.321661

>  <SCORE.RESTR>
0

>  <SCORE.RESTR.CAVITY>
0

>  <SCORE.RESTR.norm>
0

>  <SCORE.SYSTEM>
0

>  <SCORE.SYSTEM.CONST>
0

>  <SCORE.SYSTEM.DIHEDRAL>
0

>  <SCORE.SYSTEM.SOLV>
0

>  <SCORE.SYSTEM.norm>
0

>  <SCORE.heavy>
36

>  <SCORE.norm>
-0.369225

>  <RMSD>
6.061

$$$$
2f4u_lig
 OpenBabel11021811433D
libRbt.so/2013.1/901 2013/11/27
 36 37  0  0  0  0  0  0  0  0999 V2000
   40.5867    7.5908    4.3798 C   0  0  2  0  0  0  0  0  0  0  0  0
   40.6771    7.0537    5.7514 O   0  0  0  0  0  0  0  0  0  0  0  0
   43.5346    4.4677    7.7621 C   0  0  2  0  0  0  0  0  0  0  0  0
   44.3360    3.2549    8.0805 N   0  0  0  0  0  0  0  0  0  0  0  0
   39.3673    8.5638    4.3590 C   0  0  2  0  0  0  0  0  0  0  0  0
   39.4996    9.6614    5.3348 N   0  0  0  0  0  0  0  0  0  0  0  0
   41.9932    4.1858    7.8509 C   0  0  0  0  0  0  0  0  0  0  0  0
   44.1621    2.0152    6.8075 C   0  0  0  0  0  0  0  0  0  0  0  0
   44.9613    1.1548    7.7352 C   0  0  1  0  0  0  0  0  0  0  0  0
   44.5082   -0.2927    7.5139 C   0  0  0  0  0  0  0  0  0  0  0  0
   44.8292   -0.8927    6.1325 C   0  0  0  0  0  0  0  0  0  0  0  0
   46.2729   -1.1220    6.0484 N   0  0  0  0  0  0  0  0  0  0  0  0
   46.3234    1.2272    7.4131 O   0  0  0  0  0  0  0  0  0  0  0  0
   46.5639    5.4778    5.7693 C   0  0  0  0  0  0  0  0  0  0  0  0
   47.6116    5.2163    6.8411 C   0  0  0  0  0  0  0  0  0  0  0  0
   38.0641    7.7461    4.6444 C   0  0  1  0  0  0  0  0  0  0  0  0
   47.5704    3.8528    7.4068 N   0  0  0  0  0  0  0  0  0  0  0  0
   36.9184    8.5940    4.6472 O   0  0  0  0  0  0  0  0  0  0  0  0
   41.1719    5.4330    7.4656 C   0  0  2  0  0  0  0  0  0  0  0  0
   39.7412    5.1575    7.5043 N   0  0  0  0  0  0  0  0  0  0  0  0
   48.5677    3.0230    9.5321 C   0  0  0  0  0  0  0  0  0  0  0  0
   49.7274    2.2292   10.2053 C   0  0  0  0  0  0  0  0  0  0  0  0
   48.7945    3.2739    8.0184 C   0  0  0  0  0  0  0  0  0  0  0  0
   49.6146    0.7606    9.9570 N   0  0  0  0  0  0  0  0  0  0  0  0
   43.6540    1.9395    5.8602 O   0  0  0  0  0  0  0  0  0  0  0  0
   37.9449    6.6422    3.5746 C   0  0  2  0  0  0  0  0  0  0  0  0
   36.7866    5.8312    3.7542 O   0  0  0  0  0  0  0  0  0  0  0  0
   41.5304    5.8896    6.0655 C   0  0  2  0  0  0  0  0  0  0  0  0
   39.1950    5.7440    3.5716 C   0  0  2  0  0  0  0  0  0  0  0  0
   40.3853    6.5233    3.4106 O   0  0  0  0  0  0  0  0  0  0  0  0
   43.0762    6.2196    5.9878 C   0  0  2  0  0  0  0  0  0  0  0  0
   43.3966    6.6391    4.6242 O   0  0  0  0  0  0  0  0  0  0  0  0
   39.1385    4.7089    2.4800 C   0  0  0  0  0  0  0  0  0  0  0  0
   39.2034    5.3093    1.2428 O   0  0  0  0  0  0  0  0  0  0  0  0
   43.8869    4.9330    6.3630 C   0  0  1  0  0  0  0  0  0  0  0  0
   45.2671    5.1493    6.3107 O   0  0  0  0  0  0  0  0  0  0  0  0
  1  2  1  1  0  0  0
  1  5  1  0  0  0  0
  1 30  1  0  0  0  0
  3  4  1  6  0  0  0
  3  7  1  0  0  0  0
  3 35  1  0  0  0  0
  5  6  1  1  0  0  0
  5 16  1  0  0  0  0
  7 19  1  0  0  0  0
  8  4  1  0  0  0  0
  8 25  2  0  0  0  0
  9  8  1  6  0  0  0
  9 10  1  0  0  0  0
  9 13  1  0  0  0  0
 10 11  1  0  0  0  0
 11 12  1  0  0  0  0
 14 15  1  0  0  0  0
 14 36  1  0  0  0  0
 15 17  1  0  0  0  0
 16 18  1  6  0  0  0
 16 26  1  0  0  0  0
 17 23  1  0  0  0  0
 19 20  1  6  0  0  0
 19 28  1  0  0  0  0
 21 22  1  0  0  0  0
 21 23  1  0  0  0  0
 22 24  1  0  0  0  0
 26 27  1  1  0  0  0
 26 29  1  0  0  0  0
 28  2  1  1  0  0  0
 28 31  1  0  0  0  0
 29 30  1  0  0  0  0
 29 33  1  6  0  0  0
 31 32  1  6  0  0  0
 31 35  1  0  0  0  0
 33 34  1  0  0  0  0
 35 36  1  1  0  0  0
M  END
>  <CHROM.1>
166.75986460,68.76927417,149.02911742,66.01384486,71.27459550,54.07168282
-174.55570294,155.53872368,115.94845061,-80.58445491,171.69352177,-168.45643135
66.64434103,177.80560018,43.00199754,4.54264222,6.08332153,-2.68286166,0.48136181
-3.04584738

>  <Name>
2f4u_lig

>  <RI>
0

>  <Rbt.Current_Directory>
/home/itssahil/PROJECTS/Mol_Feturizer/New_Systems/rnas/2f4u

>  <Rbt.Executable>
rbdock ($Id: //depot/dev/client3/rdock/2013.1/src/exe/rbdock.cxx#4 $)

>  <Rbt.Library>
libRbt.so (2013.1, Build901 2013/11/27)

>  <Rbt.Parameter_File>
/export/apps/rDock/src/rDock_2013.1_src/data/scripts/dock_solv.prm

>  <Rbt.Receptor>
prm/pocket_docking_5.prm

>  <SCORE>
-17.1906

>  <SCORE.INTER>
-8.30572

>  <SCORE.INTER.CONST>
1

>  <SCORE.INTER.POLAR>
-1.47337

>  <SCORE.INTER.ROT>
14

>  <SCORE.INTER.SOLV>
14.276

>  <SCORE.INTER.VDW>
-18.3179

>  <SCORE.INTER.norm>
-0.230714

>  <SCORE.INTRA>
-8.89298

>  <SCORE.INTRA.DIHEDRAL>
-18.8764

>  <SCORE.INTRA.DIHEDRAL.0>
26.3805

>  <SCORE.INTRA.POLAR>
0

>  <SCORE.INTRA.POLAR.0>
0

>  <SCORE.INTRA.REPUL>
0

>  <SCORE.INTRA.REPUL.0>
0

>  <SCORE.INTRA.SOLV>
5.60606

>  <SCORE.INTRA.SOLV.lig_0>
-98.5587

>  <SCORE.INTRA.VDW>
-2.25782

>  <SCORE.INTRA.VDW.0>
-2.91167

>  <SCORE.INTRA.norm>
-0.247027

>  <SCORE.RESTR>
0.00808791

>  <SCORE.RESTR.CAVITY>
0.00808791

>  <SCORE.RESTR.norm>
0.000224664

>  <SCORE.SYSTEM>
0

>  <SCORE.SYSTEM.CONST>
0

>  <SCORE.SYSTEM.DIHEDRAL>
0

>  <SCORE.SYSTEM.SOLV>
0

>  <SCORE.SYSTEM.norm>
0

>  <SCORE.heavy>
36

>  <SCORE.norm>
-0.477517

>  <RMSD>
6.225

$$$$
2f4u_lig
 OpenBabel11021811433D
libRbt.so/2013.1/901 2013/11/27
 36 37  0  0  0  0  0  0  0  0999 V2000
   38.0286    5.8995    3.8786 C   0  0  2  0  0  0  0  0  0  0  0  0
   39.0555    6.2716    2.8862 O   0  0  0  0  0  0  0  0  0  0  0  0
   42.1670    3.3147    3.5729 C   0  0  2  0  0  0  0  0  0  0  0  0
   43.4523    2.5801    3.4208 N   0  0  0  0  0  0  0  0  0  0  0  0
   36.7380    6.6935    3.5072 C   0  0  2  0  0  0  0  0  0  0  0  0
   36.2648    6.4019    2.1414 N   0  0  0  0  0  0  0  0  0  0  0  0
   41.3356    3.3133    2.2417 C   0  0  0  0  0  0  0  0  0  0  0  0
   44.5179    3.3848    2.2357 C   0  0  0  0  0  0  0  0  0  0  0  0
   45.3984    2.1903    2.4302 C   0  0  1  0  0  0  0  0  0  0  0  0
   44.9958    1.1540    1.3750 C   0  0  0  0  0  0  0  0  0  0  0  0
   45.0921    1.6165   -0.0907 C   0  0  0  0  0  0  0  0  0  0  0  0
   46.5066    1.7362   -0.4494 N   0  0  0  0  0  0  0  0  0  0  0  0
   46.7383    2.5316    2.2008 O   0  0  0  0  0  0  0  0  0  0  0  0
   43.8548    5.1609    6.3745 C   0  0  0  0  0  0  0  0  0  0  0  0
   44.8463    4.0996    6.8275 C   0  0  0  0  0  0  0  0  0  0  0  0
   37.0254    8.2241    3.6604 C   0  0  1  0  0  0  0  0  0  0  0  0
   46.0866    4.0503    6.0273 N   0  0  0  0  0  0  0  0  0  0  0  0
   35.8769    8.9968    3.3209 O   0  0  0  0  0  0  0  0  0  0  0  0
   40.0322    4.1236    2.3938 C   0  0  2  0  0  0  0  0  0  0  0  0
   39.2825    4.1600    1.1444 N   0  0  0  0  0  0  0  0  0  0  0  0
   47.9485    5.2371    7.1783 C   0  0  0  0  0  0  0  0  0  0  0  0
   49.0154    4.1038    7.1034 C   0  0  0  0  0  0  0  0  0  0  0  0
   46.9731    5.2413    5.9723 C   0  0  0  0  0  0  0  0  0  0  0  0
   49.7985    3.9917    8.3705 N   0  0  0  0  0  0  0  0  0  0  0  0
   44.4773    4.2781    1.6343 O   0  0  0  0  0  0  0  0  0  0  0  0
   37.4717    8.4868    5.1126 C   0  0  2  0  0  0  0  0  0  0  0  0
   37.7677    9.8603    5.3524 O   0  0  0  0  0  0  0  0  0  0  0  0
   40.3415    5.5494    2.8043 C   0  0  2  0  0  0  0  0  0  0  0  0
   38.7025    7.6347    5.4710 C   0  0  2  0  0  0  0  0  0  0  0  0
   38.4526    6.2460    5.2275 O   0  0  0  0  0  0  0  0  0  0  0  0
   41.1389    5.5535    4.1713 C   0  0  2  0  0  0  0  0  0  0  0  0
   41.4391    6.9381    4.5331 O   0  0  0  0  0  0  0  0  0  0  0  0
   39.1071    7.8123    6.9101 C   0  0  0  0  0  0  0  0  0  0  0  0
   39.4038    9.1316    7.1679 O   0  0  0  0  0  0  0  0  0  0  0  0
   42.4659    4.7428    3.9846 C   0  0  1  0  0  0  0  0  0  0  0  0
   43.2281    4.7078    5.1559 O   0  0  0  0  0  0  0  0  0  0  0  0
  1  2  1  6  0  0  0
  1  5  1  0  0  0  0
  1 30  1  0  0  0  0
  3  4  1  6  0  0  0
  3  7  1  0  0  0  0
  3 35  1  0  0  0  0
  5  6  1  6  0  0  0
  5 16  1  0  0  0  0
  7 19  1  0  0  0  0
  8  4  1  0  0  0  0
  8 25  2  0  0  0  0
  9  8  1  6  0  0  0
  9 10  1  0  0  0  0
  9 13  1  0  0  0  0
 10 11  1  0  0  0  0
 11 12  1  0  0  0  0
 14 15  1  0  0  0  0
 14 36  1  0  0  0  0
 15 17  1  0  0  0  0
 16 18  1  1  0  0  0
 16 26  1  0  0  0  0
 17 23  1  0  0  0  0
 19 20  1  6  0  0  0
 19 28  1  0  0  0  0
 21 22  1  0  0  0  0
 21 23  1  0  0  0  0
 22 24  1  0  0  0  0
 26 27  1  6  0  0  0
 26 29  1  0  0  0  0
 28  2  1  1  0  0  0
 28 31  1  0  0  0  0
 29 30  1  0  0  0  0
 29 33  1  1  0  0  0
 31 32  1  6  0  0  0
 31 35  1  0  0  0  0
 33 34  1  0  0  0  0
 35 36  1  1  0  0  0
M  END
>  <CHROM.1>
-170.26031561,63.97969872,91.41599869,58.01985620,70.91347465,74.42977222
-168.97548673,61.06792342,85.55199828,-171.08826399,69.02371628,64.46607145
-59.22608177,-163.00007945,42.07274796,5.19525458,4.05318369,2.89382853,-0.38232645
0.97895198

>  <Name>
2f4u_lig

>  <RI>
0

>  <Rbt.Current_Directory>
/home/itssahil/PROJECTS/Mol_Feturizer/New_Systems/rnas/2f4u

>  <Rbt.Executable>
rbdock ($Id: //depot/dev/client3/rdock/2013.1/src/exe/rbdock.cxx#4 $)

>  <Rbt.Library>
libRbt.so (2013.1, Build901 2013/11/27)

>  <Rbt.Parameter_File>
/export/apps/rDock/src/rDock_2013.1_src/data/scripts/dock_solv.prm

>  <Rbt.Receptor>
prm/pocket_docking_8.prm

>  <SCORE>
-6.50088

>  <SCORE.INTER>
1.73604

>  <SCORE.INTER.CONST>
1

>  <SCORE.INTER.POLAR>
-1.08411

>  <SCORE.INTER.ROT>
14

>  <SCORE.INTER.SOLV>
10.128

>  <SCORE.INTER.VDW>
-11.5383

>  <SCORE.INTER.norm>
0.0482234

>  <SCORE.INTRA>
-8.23692

>  <SCORE.INTRA.DIHEDRAL>
-19.7992

>  <SCORE.INTRA.DIHEDRAL.0>
26.3805

>  <SCORE.INTRA.POLAR>
0

>  <SCORE.INTRA.POLAR.0>
0

>  <SCORE.INTRA.REPUL>
0

>  <SCORE.INTRA.REPUL.0>
0

>  <SCORE.INTRA.SOLV>
5.03026

>  <SCORE.INTRA.SOLV.lig_0>
-98.5587

>  <SCORE.INTRA.VDW>
-0.852469

>  <SCORE.INTRA.VDW.0>
-2.91167

>  <SCORE.INTRA.norm>
-0.228803

>  <SCORE.RESTR>
0

>  <SCORE.RESTR.CAVITY>
0

>  <SCORE.RESTR.norm>
0

>  <SCORE.SYSTEM>
0

>  <SCORE.SYSTEM.CONST>
0

>  <SCORE.SYSTEM.DIHEDRAL>
0

>  <SCORE.SYSTEM.SOLV>
0

>  <SCORE.SYSTEM.norm>
0

>  <SCORE.heavy>
36

>  <SCORE.norm>
-0.18058

>  <RMSD>
6.231

$$$$
2f4u_lig
 OpenBabel11021811433D
libRbt.so/2013.1/901 2013/11/27
 36 37  0  0  0  0  0  0  0  0999 V2000
   37.2047    7.9294    9.3564 C   0  0  2  0  0  0  0  0  0  0  0  0
   38.4537    7.3823    9.9207 O   0  0  0  0  0  0  0  0  0  0  0  0
   41.2455    4.7742    7.8474 C   0  0  2  0  0  0  0  0  0  0  0  0
   41.8806    3.5238    7.3492 N   0  0  0  0  0  0  0  0  0  0  0  0
   36.7246    9.0483   10.3319 C   0  0  2  0  0  0  0  0  0  0  0  0
   37.7242   10.1184   10.5052 N   0  0  0  0  0  0  0  0  0  0  0  0
   41.1976    4.8169    9.4155 C   0  0  0  0  0  0  0  0  0  0  0  0
   43.6568    3.5926    7.5163 C   0  0  0  0  0  0  0  0  0  0  0  0
   43.6345    2.2951    6.7709 C   0  0  1  0  0  0  0  0  0  0  0  0
   45.0763    1.9897    6.3497 C   0  0  0  0  0  0  0  0  0  0  0  0
   45.2901    0.6595    5.6039 C   0  0  0  0  0  0  0  0  0  0  0  0
   46.7292    0.4388    5.4484 N   0  0  0  0  0  0  0  0  0  0  0  0
   43.2094    1.2581    7.6126 O   0  0  0  0  0  0  0  0  0  0  0  0
   40.2395    4.2914    4.5856 C   0  0  0  0  0  0  0  0  0  0  0  0
   39.0836    4.6099    3.6491 C   0  0  0  0  0  0  0  0  0  0  0  0
   36.3863    8.4006   11.7156 C   0  0  1  0  0  0  0  0  0  0  0  0
   38.6883    6.0328    3.6389 N   0  0  0  0  0  0  0  0  0  0  0  0
   35.9517    9.3859   12.6492 O   0  0  0  0  0  0  0  0  0  0  0  0
   40.4884    6.0901    9.9203 C   0  0  2  0  0  0  0  0  0  0  0  0
   40.4039    6.1074   11.3753 N   0  0  0  0  0  0  0  0  0  0  0  0
   37.1048    7.9432    3.8464 C   0  0  0  0  0  0  0  0  0  0  0  0
   37.7868    8.6181    5.0744 C   0  0  0  0  0  0  0  0  0  0  0  0
   37.2613    6.4002    3.8297 C   0  0  0  0  0  0  0  0  0  0  0  0
   37.6424   10.1045    5.0443 N   0  0  0  0  0  0  0  0  0  0  0  0
   44.3739    4.2918    7.9142 O   0  0  0  0  0  0  0  0  0  0  0  0
   35.3069    7.3227   11.4912 C   0  0  2  0  0  0  0  0  0  0  0  0
   34.9345    6.6637   12.6990 O   0  0  0  0  0  0  0  0  0  0  0  0
   39.0818    6.1679    9.3614 C   0  0  2  0  0  0  0  0  0  0  0  0
   35.7826    6.2743   10.4695 C   0  0  2  0  0  0  0  0  0  0  0  0
   36.1835    6.8979    9.2445 O   0  0  0  0  0  0  0  0  0  0  0  0
   39.1321    6.1727    7.7797 C   0  0  2  0  0  0  0  0  0  0  0  0
   37.7632    6.2299    7.2688 O   0  0  0  0  0  0  0  0  0  0  0  0
   34.7137    5.2569   10.1717 C   0  0  0  0  0  0  0  0  0  0  0  0
   35.2110    4.2571    9.3666 O   0  0  0  0  0  0  0  0  0  0  0  0
   39.8374    4.8617    7.2927 C   0  0  1  0  0  0  0  0  0  0  0  0
   39.9136    4.7944    5.8984 O   0  0  0  0  0  0  0  0  0  0  0  0
  1  2  1  1  0  0  0
  1  5  1  0  0  0  0
  1 30  1  0  0  0  0
  3  4  1  1  0  0  0
  3  7  1  0  0  0  0
  3 35  1  0  0  0  0
  5  6  1  1  0  0  0
  5 16  1  0  0  0  0
  7 19  1  0  0  0  0
  8  4  1  0  0  0  0
  8 25  2  0  0  0  0
  9  8  1  1  0  0  0
  9 10  1  0  0  0  0
  9 13  1  0  0  0  0
 10 11  1  0  0  0  0
 11 12  1  0  0  0  0
 14 15  1  0  0  0  0
 14 36  1  0  0  0  0
 15 17  1  0  0  0  0
 16 18  1  1  0  0  0
 16 26  1  0  0  0  0
 17 23  1  0  0  0  0
 19 20  1  1  0  0  0
 19 28  1  0  0  0  0
 21 22  1  0  0  0  0
 21 23  1  0  0  0  0
 22 24  1  0  0  0  0
 26 27  1  1  0  0  0
 26 29  1  0  0  0  0
 28  2  1  1  0  0  0
 28 31  1  0  0  0  0
 29 30  1  0  0  0  0
 29 33  1  6  0  0  0
 31 32  1  6  0  0  0
 31 35  1  0  0  0  0
 33 34  1  0  0  0  0
 35 36  1  6  0  0  0
M  END
>  <CHROM.1>
170.85884699,-76.79572294,168.05779069,177.92496412,-172.04527331,53.16312665
143.30184277,-129.08870380,177.37608436,178.78235571,-66.19859026,165.89486527
-173.72224104,55.53944112,39.28114061,5.68913926,8.02334553,-2.76450204,0.63111720
-1.51637279

>  <Name>
2f4u_lig

>  <RI>
0

>  <Rbt.Current_Directory>
/home/itssahil/PROJECTS/Mol_Feturizer/New_Systems/rnas/2f4u

>  <Rbt.Executable>
rbdock ($Id: //depot/dev/client3/rdock/2013.1/src/exe/rbdock.cxx#4 $)

>  <Rbt.Library>
libRbt.so (2013.1, Build901 2013/11/27)

>  <Rbt.Parameter_File>
/export/apps/rDock/src/rDock_2013.1_src/data/scripts/dock_solv.prm

>  <Rbt.Receptor>
prm/pocket_docking_7.prm

>  <SCORE>
-13.237

>  <SCORE.INTER>
-3.38383

>  <SCORE.INTER.CONST>
1

>  <SCORE.INTER.POLAR>
-3.11493

>  <SCORE.INTER.ROT>
14

>  <SCORE.INTER.SOLV>
14.7099

>  <SCORE.INTER.VDW>
-9.70942

>  <SCORE.INTER.norm>
-0.0939953

>  <SCORE.INTRA>
-9.85317

>  <SCORE.INTRA.DIHEDRAL>
-17.0995

>  <SCORE.INTRA.DIHEDRAL.0>
26.3805

>  <SCORE.INTRA.POLAR>
0

>  <SCORE.INTRA.POLAR.0>
0

>  <SCORE.INTRA.REPUL>
0

>  <SCORE.INTRA.REPUL.0>
0

>  <SCORE.INTRA.SOLV>
0.0954723

>  <SCORE.INTRA.SOLV.lig_0>
-98.5587

>  <SCORE.INTRA.VDW>
-1.35117

>  <SCORE.INTRA.VDW.0>
-2.91167

>  <SCORE.INTRA.norm>
-0.273699

>  <SCORE.RESTR>
0

>  <SCORE.RESTR.CAVITY>
0

>  <SCORE.RESTR.norm>
0

>  <SCORE.SYSTEM>
0

>  <SCORE.SYSTEM.CONST>
0

>  <SCORE.SYSTEM.DIHEDRAL>
0

>  <SCORE.SYSTEM.SOLV>
0

>  <SCORE.SYSTEM.norm>
0

>  <SCORE.heavy>
36

>  <SCORE.norm>
-0.367695

>  <RMSD>
6.307

$$$$
2f4u_lig
 OpenBabel11021811433D
libRbt.so/2013.1/901 2013/11/27
 36 37  0  0  0  0  0  0  0  0999 V2000
   37.4035    8.0379    8.3676 C   0  0  2  0  0  0  0  0  0  0  0  0
   38.3714    7.4692    9.3256 O   0  0  0  0  0  0  0  0  0  0  0  0
   41.9686    5.0714    8.8718 C   0  0  2  0  0  0  0  0  0  0  0  0
   42.8437    3.9214    8.5162 N   0  0  0  0  0  0  0  0  0  0  0  0
   36.7477    9.2672    9.0696 C   0  0  2  0  0  0  0  0  0  0  0  0
   37.7352   10.2860    9.4709 N   0  0  0  0  0  0  0  0  0  0  0  0
   40.8482    4.6563    9.8896 C   0  0  0  0  0  0  0  0  0  0  0  0
   42.0551    2.8580    7.3184 C   0  0  0  0  0  0  0  0  0  0  0  0
   43.2400    1.9705    7.5377 C   0  0  1  0  0  0  0  0  0  0  0  0
   42.9551    0.6480    6.8171 C   0  0  0  0  0  0  0  0  0  0  0  0
   41.8263   -0.2122    7.4148 C   0  0  0  0  0  0  0  0  0  0  0  0
   41.6844   -1.4232    6.6041 N   0  0  0  0  0  0  0  0  0  0  0  0
   44.3836    2.5337    6.9551 O   0  0  0  0  0  0  0  0  0  0  0  0
   43.5573    5.8172    5.9269 C   0  0  0  0  0  0  0  0  0  0  0  0
   43.5612    6.9143    4.8729 C   0  0  0  0  0  0  0  0  0  0  0  0
   35.9520    8.7685   10.3214 C   0  0  1  0  0  0  0  0  0  0  0  0
   42.3514    6.9435    4.0263 N   0  0  0  0  0  0  0  0  0  0  0  0
   35.3407    9.8585   11.0065 O   0  0  0  0  0  0  0  0  0  0  0  0
   39.9137    5.8410   10.2088 C   0  0  2  0  0  0  0  0  0  0  0  0
   38.8467    5.4434   11.1185 N   0  0  0  0  0  0  0  0  0  0  0  0
   40.5236    5.8260    2.7574 C   0  0  0  0  0  0  0  0  0  0  0  0
   40.1011    4.6458    1.8318 C   0  0  0  0  0  0  0  0  0  0  0  0
   42.0120    5.7639    3.1891 C   0  0  0  0  0  0  0  0  0  0  0  0
   40.1810    3.3303    2.5351 N   0  0  0  0  0  0  0  0  0  0  0  0
   41.1277    2.8585    6.7695 O   0  0  0  0  0  0  0  0  0  0  0  0
   34.9035    7.7422    9.8474 C   0  0  2  0  0  0  0  0  0  0  0  0
   34.1279    7.2185   10.9225 O   0  0  0  0  0  0  0  0  0  0  0  0
   39.2816    6.3724    8.9379 C   0  0  2  0  0  0  0  0  0  0  0  0
   35.5752    6.5790    9.0956 C   0  0  2  0  0  0  0  0  0  0  0  0
   36.3801    7.0642    8.0153 O   0  0  0  0  0  0  0  0  0  0  0  0
   40.4102    6.8353    7.9298 C   0  0  2  0  0  0  0  0  0  0  0  0
   39.7734    7.3253    6.7081 O   0  0  0  0  0  0  0  0  0  0  0  0
   34.5641    5.6056    8.5512 C   0  0  0  0  0  0  0  0  0  0  0  0
   33.9036    4.9715    9.5792 O   0  0  0  0  0  0  0  0  0  0  0  0
   41.3318    5.6108    7.6062 C   0  0  1  0  0  0  0  0  0  0  0  0
   42.3539    5.9456    6.7132 O   0  0  0  0  0  0  0  0  0  0  0  0
  1  2  1  1  0  0  0
  1  5  1  0  0  0  0
  1 30  1  0  0  0  0
  3  4  1  6  0  0  0
  3  7  1  0  0  0  0
  3 35  1  0  0  0  0
  5  6  1  1  0  0  0
  5 16  1  0  0  0  0
  7 19  1  0  0  0  0
  8  4  1  0  0  0  0
  8 25  2  0  0  0  0
  9  8  1  6  0  0  0
  9 10  1  0  0  0  0
  9 13  1  0  0  0  0
 10 11  1  0  0  0  0
 11 12  1  0  0  0  0
 14 15  1  0  0  0  0
 14 36  1  0  0  0  0
 15 17  1  0  0  0  0
 16 18  1  6  0  0  0
 16 26  1  0  0  0  0
 17 23  1  0  0  0  0
 19 20  1  1  0  0  0
 19 28  1  0  0  0  0
 21 22  1  0  0  0  0
 21 23  1  0  0  0  0
 22 24  1  0  0  0  0
 26 27  1  1  0  0  0
 26 29  1  0  0  0  0
 28  2  1  1  0  0  0
 28 31  1  0  0  0  0
 29 30  1  0  0  0  0
 29 33  1  6  0  0  0
 31 32  1  6  0  0  0
 31 35  1  0  0  0  0
 33 34  1  0  0  0  0
 35 36  1  6  0  0  0
M  END
>  <CHROM.1>
-173.44464488,78.58287588,171.05849550,-68.07339903,179.60198112,-54.59559939
165.03787624,-60.95001056,162.02189190,64.64743409,177.96723060,-168.21384692
-65.80420643,49.02461304,39.63623963,5.51999047,7.63090475,-2.97807075,-0.73635932
2.52014320

>  <Name>
2f4u_lig

>  <RI>
0

>  <Rbt.Current_Directory>
/home/itssahil/PROJECTS/Mol_Feturizer/New_Systems/rnas/2f4u

>  <Rbt.Executable>
rbdock ($Id: //depot/dev/client3/rdock/2013.1/src/exe/rbdock.cxx#4 $)

>  <Rbt.Library>
libRbt.so (2013.1, Build901 2013/11/27)

>  <Rbt.Parameter_File>
/export/apps/rDock/src/rDock_2013.1_src/data/scripts/dock_solv.prm

>  <Rbt.Receptor>
prm/pocket_docking_8.prm

>  <SCORE>
-15.5557

>  <SCORE.INTER>
-4.71178

>  <SCORE.INTER.CONST>
1

>  <SCORE.INTER.POLAR>
-1.73936

>  <SCORE.INTER.ROT>
14

>  <SCORE.INTER.SOLV>
16.0787

>  <SCORE.INTER.VDW>
-15.6362

>  <SCORE.INTER.norm>
-0.130883

>  <SCORE.INTRA>
-10.844

>  <SCORE.INTRA.DIHEDRAL>
-21.9484

>  <SCORE.INTRA.DIHEDRAL.0>
26.3805

>  <SCORE.INTRA.POLAR>
0

>  <SCORE.INTRA.POLAR.0>
0

>  <SCORE.INTRA.REPUL>
0.00621106

>  <SCORE.INTRA.REPUL.0>
0

>  <SCORE.INTRA.SOLV>
1.78917

>  <SCORE.INTRA.SOLV.lig_0>
-98.5587

>  <SCORE.INTRA.VDW>
-0.795391

>  <SCORE.INTRA.VDW.0>
-2.91167

>  <SCORE.INTRA.norm>
-0.301221

>  <SCORE.RESTR>
0

>  <SCORE.RESTR.CAVITY>
0

>  <SCORE.RESTR.norm>
0

>  <SCORE.SYSTEM>
0

>  <SCORE.SYSTEM.CONST>
0

>  <SCORE.SYSTEM.DIHEDRAL>
0

>  <SCORE.SYSTEM.SOLV>
0

>  <SCORE.SYSTEM.norm>
0

>  <SCORE.heavy>
36

>  <SCORE.norm>
-0.432104

>  <RMSD>
6.343

$$$$
2f4u_lig
 OpenBabel11021811433D
libRbt.so/2013.1/901 2013/11/27
 36 37  0  0  0  0  0  0  0  0999 V2000
   40.2433   11.1283    3.3199 C   0  0  2  0  0  0  0  0  0  0  0  0
   39.3171   10.0118    3.0488 O   0  0  0  0  0  0  0  0  0  0  0  0
   38.3793    8.4494    6.9953 C   0  0  2  0  0  0  0  0  0  0  0  0
   37.8772    7.5235    8.0467 N   0  0  0  0  0  0  0  0  0  0  0  0
   39.3818   12.4288    3.3458 C   0  0  2  0  0  0  0  0  0  0  0  0
   38.3161   12.3843    4.3639 N   0  0  0  0  0  0  0  0  0  0  0  0
   37.2375    8.8839    6.0100 C   0  0  0  0  0  0  0  0  0  0  0  0
   36.9601    8.4066    9.2983 C   0  0  0  0  0  0  0  0  0  0  0  0
   36.9269    7.0867   10.0029 C   0  0  1  0  0  0  0  0  0  0  0  0
   37.3765    7.3328   11.4475 C   0  0  0  0  0  0  0  0  0  0  0  0
   37.5780    6.0740   12.3113 C   0  0  0  0  0  0  0  0  0  0  0  0
   36.2671    5.4810   12.5832 N   0  0  0  0  0  0  0  0  0  0  0  0
   35.6168    6.5907   10.0446 O   0  0  0  0  0  0  0  0  0  0  0  0
   41.0877    6.6756    8.2389 C   0  0  0  0  0  0  0  0  0  0  0  0
   40.9858    5.1773    7.9954 C   0  0  0  0  0  0  0  0  0  0  0  0
   38.7600   12.6508    1.9271 C   0  0  1  0  0  0  0  0  0  0  0  0
   41.6498    4.7195    6.7582 N   0  0  0  0  0  0  0  0  0  0  0  0
   37.9520   13.8246    1.9006 O   0  0  0  0  0  0  0  0  0  0  0  0
   37.7792    9.7985    4.8925 C   0  0  2  0  0  0  0  0  0  0  0  0
   36.7277   10.1650    3.9521 N   0  0  0  0  0  0  0  0  0  0  0  0
   42.1715    3.1109    4.9305 C   0  0  0  0  0  0  0  0  0  0  0  0
   41.9642    1.6828    4.3425 C   0  0  0  0  0  0  0  0  0  0  0  0
   41.3418    3.3713    6.2149 C   0  0  0  0  0  0  0  0  0  0  0  0
   42.4165    0.6197    5.2893 N   0  0  0  0  0  0  0  0  0  0  0  0
   36.6540    9.4266    9.4635 O   0  0  0  0  0  0  0  0  0  0  0  0
   39.9114   12.7366    0.9052 C   0  0  2  0  0  0  0  0  0  0  0  0
   39.4447   12.9305   -0.4275 O   0  0  0  0  0  0  0  0  0  0  0  0
   38.8813    9.0973    4.1239 C   0  0  2  0  0  0  0  0  0  0  0  0
   40.7850   11.4702    0.9555 C   0  0  2  0  0  0  0  0  0  0  0  0
   41.2613   11.2288    2.2840 O   0  0  0  0  0  0  0  0  0  0  0  0
   40.0545    8.7009    5.1092 C   0  0  2  0  0  0  0  0  0  0  0  0
   41.0934    8.0115    4.3454 O   0  0  0  0  0  0  0  0  0  0  0  0
   41.9642   11.5658    0.0246 C   0  0  0  0  0  0  0  0  0  0  0  0
   42.8153   12.5703    0.4266 O   0  0  0  0  0  0  0  0  0  0  0  0
   39.4834    7.7570    6.2209 C   0  0  1  0  0  0  0  0  0  0  0  0
   40.4694    7.3602    7.1291 O   0  0  0  0  0  0  0  0  0  0  0  0
  1  2  1  6  0  0  0
  1  5  1  0  0  0  0
  1 30  1  0  0  0  0
  3  4  1  1  0  0  0
  3  7  1  0  0  0  0
  3 35  1  0  0  0  0
  5  6  1  1  0  0  0
  5 16  1  0  0  0  0
  7 19  1  0  0  0  0
  8  4  1  0  0  0  0
  8 25  2  0  0  0  0
  9  8  1  6  0  0  0
  9 10  1  0  0  0  0
  9 13  1  0  0  0  0
 10 11  1  0  0  0  0
 11 12  1  0  0  0  0
 14 15  1  0  0  0  0
 14 36  1  0  0  0  0
 15 17  1  0  0  0  0
 16 18  1  1  0  0  0
 16 26  1  0  0  0  0
 17 23  1  0  0  0  0
 19 20  1  6  0  0  0
 19 28  1  0  0  0  0
 21 22  1  0  0  0  0
 21 23  1  0  0  0  0
 22 24  1  0  0  0  0
 26 27  1  6  0  0  0
 26 29  1  0  0  0  0
 28  2  1  6  0  0  0
 28 31  1  0  0  0  0
 29 30  1  0  0  0  0
 29 33  1  6  0  0  0
 31 32  1  6  0  0  0
 31 35  1  0  0  0  0
 33 34  1  0  0  0  0
 35 36  1  1  0  0  0
M  END
>  <CHROM.1>
-103.55237362,-76.36675422,130.48748707,-172.95395745,-70.04571413,59.94157999
59.89498192,-164.34229219,-179.17875427,-62.71454849,176.77669833,80.02149055
64.79938689,62.15749662,39.38052284,8.53732923,5.46114978,1.36596932,0.85178718
-0.70395757

>  <Name>
2f4u_lig

>  <RI>
0

>  <Rbt.Current_Directory>
/home/itssahil/PROJECTS/Mol_Feturizer/New_Systems/rnas/2f4u

>  <Rbt.Executable>
rbdock ($Id: //depot/dev/client3/rdock/2013.1/src/exe/rbdock.cxx#4 $)

>  <Rbt.Library>
libRbt.so (2013.1, Build901 2013/11/27)

>  <Rbt.Parameter_File>
/export/apps/rDock/src/rDock_2013.1_src/data/scripts/dock_solv.prm

>  <Rbt.Receptor>
prm/pocket_docking_6.prm

>  <SCORE>
-10.6769

>  <SCORE.INTER>
-5.44961

>  <SCORE.INTER.CONST>
1

>  <SCORE.INTER.POLAR>
-0.676749

>  <SCORE.INTER.ROT>
14

>  <SCORE.INTER.SOLV>
19.1604

>  <SCORE.INTER.VDW>
-20.6974

>  <SCORE.INTER.norm>
-0.151378

>  <SCORE.INTRA>
-5.2273

>  <SCORE.INTRA.DIHEDRAL>
-15.2061

>  <SCORE.INTRA.DIHEDRAL.0>
26.3805

>  <SCORE.INTRA.POLAR>
0

>  <SCORE.INTRA.POLAR.0>
0

>  <SCORE.INTRA.REPUL>
0

>  <SCORE.INTRA.REPUL.0>
0

>  <SCORE.INTRA.SOLV>
6.92972

>  <SCORE.INTRA.SOLV.lig_0>
-98.5587

>  <SCORE.INTRA.VDW>
-1.08908

>  <SCORE.INTRA.VDW.0>
-2.91167

>  <SCORE.INTRA.norm>
-0.145203

>  <SCORE.RESTR>
0

>  <SCORE.RESTR.CAVITY>
0

>  <SCORE.RESTR.norm>
0

>  <SCORE.SYSTEM>
0

>  <SCORE.SYSTEM.CONST>
0

>  <SCORE.SYSTEM.DIHEDRAL>
0

>  <SCORE.SYSTEM.SOLV>
0

>  <SCORE.SYSTEM.norm>
0

>  <SCORE.heavy>
36

>  <SCORE.norm>
-0.296581

>  <RMSD>
6.517

$$$$
2f4u_lig
 OpenBabel11021811433D
libRbt.so/2013.1/901 2013/11/27
 36 37  0  0  0  0  0  0  0  0999 V2000
   38.3315    8.8279    4.7045 C   0  0  2  0  0  0  0  0  0  0  0  0
   37.3458    9.0988    5.7688 O   0  0  0  0  0  0  0  0  0  0  0  0
   36.9284    7.4971    9.7882 C   0  0  2  0  0  0  0  0  0  0  0  0
   36.6554    6.5258   10.8822 N   0  0  0  0  0  0  0  0  0  0  0  0
   38.3566   10.0884    3.7855 C   0  0  2  0  0  0  0  0  0  0  0  0
   38.7127   11.3181    4.5171 N   0  0  0  0  0  0  0  0  0  0  0  0
   35.6717    7.7097    8.8725 C   0  0  0  0  0  0  0  0  0  0  0  0
   36.0763    4.9678   10.2307 C   0  0  0  0  0  0  0  0  0  0  0  0
   35.8653    4.6078   11.6679 C   0  0  1  0  0  0  0  0  0  0  0  0
   35.0230    3.3274   11.6954 C   0  0  0  0  0  0  0  0  0  0  0  0
   33.5169    3.5092   11.4313 C   0  0  0  0  0  0  0  0  0  0  0  0
   33.3344    3.9193   10.0377 N   0  0  0  0  0  0  0  0  0  0  0  0
   37.0920    4.3224   12.2827 O   0  0  0  0  0  0  0  0  0  0  0  0
   40.4417    6.2727   10.2793 C   0  0  0  0  0  0  0  0  0  0  0  0
   40.2950    4.7808   10.5389 C   0  0  0  0  0  0  0  0  0  0  0  0
   36.9528   10.2511    3.1134 C   0  0  1  0  0  0  0  0  0  0  0  0
   40.1747    3.9633    9.3148 N   0  0  0  0  0  0  0  0  0  0  0  0
   36.9198   11.3989    2.2691 O   0  0  0  0  0  0  0  0  0  0  0  0
   35.9815    8.6750    7.7102 C   0  0  2  0  0  0  0  0  0  0  0  0
   34.8278    8.8367    6.8344 N   0  0  0  0  0  0  0  0  0  0  0  0
   40.9220    2.1510    7.7795 C   0  0  0  0  0  0  0  0  0  0  0  0
   42.1188    1.3847    7.1401 C   0  0  0  0  0  0  0  0  0  0  0  0
   41.3620    3.2342    8.7987 C   0  0  0  0  0  0  0  0  0  0  0  0
   41.6620    0.3725    6.1411 N   0  0  0  0  0  0  0  0  0  0  0  0
   35.9087    4.5481    9.2523 O   0  0  0  0  0  0  0  0  0  0  0  0
   36.6449    8.9627    2.3245 C   0  0  2  0  0  0  0  0  0  0  0  0
   35.3750    9.0087    1.6788 O   0  0  0  0  0  0  0  0  0  0  0  0
   37.1374    8.1505    6.8819 C   0  0  2  0  0  0  0  0  0  0  0  0
   36.6995    7.7298    3.2445 C   0  0  2  0  0  0  0  0  0  0  0  0
   37.9559    7.6555    3.9274 O   0  0  0  0  0  0  0  0  0  0  0  0
   38.4187    7.9808    7.7951 C   0  0  2  0  0  0  0  0  0  0  0  0
   39.5107    7.4574    6.9756 O   0  0  0  0  0  0  0  0  0  0  0  0
   36.4835    6.4507    2.4806 C   0  0  0  0  0  0  0  0  0  0  0  0
   36.4297    5.3782    3.3420 O   0  0  0  0  0  0  0  0  0  0  0  0
   38.0845    6.9815    8.9540 C   0  0  1  0  0  0  0  0  0  0  0  0
   39.1769    6.7782    9.8022 O   0  0  0  0  0  0  0  0  0  0  0  0
  1  2  1  1  0  0  0
  1  5  1  0  0  0  0
  1 30  1  0  0  0  0
  3  4  1  1  0  0  0
  3  7  1  0  0  0  0
  3 35  1  0  0  0  0
  5  6  1  1  0  0  0
  5 16  1  0  0  0  0
  7 19  1  0  0  0  0
  8  4  1  0  0  0  0
  8 25  2  0  0  0  0
  9  8  1  6  0  0  0
  9 10  1  0  0  0  0
  9 13  1  0  0  0  0
 10 11  1  0  0  0  0
 11 12  1  0  0  0  0
 14 15  1  0  0  0  0
 14 36  1  0  0  0  0
 15 17  1  0  0  0  0
 16 18  1  6  0  0  0
 16 26  1  0  0  0  0
 17 23  1  0  0  0  0
 19 20  1  6  0  0  0
 19 28  1  0  0  0  0
 21 22  1  0  0  0  0
 21 23  1  0  0  0  0
 22 24  1  0  0  0  0
 26 27  1  1  0  0  0
 26 29  1  0  0  0  0
 28  2  1  6  0  0  0
 28 31  1  0  0  0  0
 29 30  1  0  0  0  0
 29 33  1  6  0  0  0
 31 32  1  6  0  0  0
 31 35  1  0  0  0  0
 33 34  1  0  0  0  0
 35 36  1  1  0  0  0
M  END
>  <CHROM.1>
-175.35188448,55.70639117,167.56656480,-77.64556229,67.88459602,71.08903875
-68.04475553,100.35644957,163.91174628,-178.66078273,177.29162465,-174.99910121
-175.13372600,160.21421259,37.57072549,6.50117074,7.25307184,-1.69387332
-0.61391056,2.16694502

>  <Name>
2f4u_lig

>  <RI>
0

>  <Rbt.Current_Directory>
/home/itssahil/PROJECTS/Mol_Feturizer/New_Systems/rnas/2f4u

>  <Rbt.Executable>
rbdock ($Id: //depot/dev/client3/rdock/2013.1/src/exe/rbdock.cxx#4 $)

>  <Rbt.Library>
libRbt.so (2013.1, Build901 2013/11/27)

>  <Rbt.Parameter_File>
/export/apps/rDock/src/rDock_2013.1_src/data/scripts/dock_solv.prm

>  <Rbt.Receptor>
prm/pocket_docking_4.prm

>  <SCORE>
-17.111

>  <SCORE.INTER>
-6.72364

>  <SCORE.INTER.CONST>
1

>  <SCORE.INTER.POLAR>
-1.45948

>  <SCORE.INTER.ROT>
14

>  <SCORE.INTER.SOLV>
15.7781

>  <SCORE.INTER.VDW>
-17.8102

>  <SCORE.INTER.norm>
-0.186768

>  <SCORE.INTRA>
-10.3874

>  <SCORE.INTRA.DIHEDRAL>
-20.1854

>  <SCORE.INTRA.DIHEDRAL.0>
26.3805

>  <SCORE.INTRA.POLAR>
0

>  <SCORE.INTRA.POLAR.0>
0

>  <SCORE.INTRA.REPUL>
0

>  <SCORE.INTRA.REPUL.0>
0

>  <SCORE.INTRA.SOLV>
2.98983

>  <SCORE.INTRA.SOLV.lig_0>
-98.5587

>  <SCORE.INTRA.VDW>
-1.78958

>  <SCORE.INTRA.VDW.0>
-2.91167

>  <SCORE.INTRA.norm>
-0.288538

>  <SCORE.RESTR>
0

>  <SCORE.RESTR.CAVITY>
0

>  <SCORE.RESTR.norm>
0

>  <SCORE.SYSTEM>
0

>  <SCORE.SYSTEM.CONST>
0

>  <SCORE.SYSTEM.DIHEDRAL>
0

>  <SCORE.SYSTEM.SOLV>
0

>  <SCORE.SYSTEM.norm>
0

>  <SCORE.heavy>
36

>  <SCORE.norm>
-0.475305

>  <RMSD>
6.624

$$$$
2f4u_lig
 OpenBabel11021811433D
libRbt.so/2013.1/901 2013/11/27
 36 37  0  0  0  0  0  0  0  0999 V2000
   36.8446    6.8227   10.1344 C   0  0  2  0  0  0  0  0  0  0  0  0
   37.8540    7.6754    9.4773 O   0  0  0  0  0  0  0  0  0  0  0  0
   39.2659    5.1919    6.2010 C   0  0  2  0  0  0  0  0  0  0  0  0
   40.0840    4.7439    5.0414 N   0  0  0  0  0  0  0  0  0  0  0  0
   35.9794    7.7620   11.0306 C   0  0  2  0  0  0  0  0  0  0  0  0
   35.3249    8.8365   10.2617 N   0  0  0  0  0  0  0  0  0  0  0  0
   38.5693    6.5705    5.9230 C   0  0  0  0  0  0  0  0  0  0  0  0
   39.1742    4.8982    3.5130 C   0  0  0  0  0  0  0  0  0  0  0  0
   40.3556    4.2089    2.9058 C   0  0  1  0  0  0  0  0  0  0  0  0
   40.0193    3.9455    1.4337 C   0  0  0  0  0  0  0  0  0  0  0  0
   41.0276    3.0758    0.6603 C   0  0  0  0  0  0  0  0  0  0  0  0
   42.2805    3.8218    0.5273 N   0  0  0  0  0  0  0  0  0  0  0  0
   41.4786    5.0468    2.9415 O   0  0  0  0  0  0  0  0  0  0  0  0
   41.6357    3.0737    8.2176 C   0  0  0  0  0  0  0  0  0  0  0  0
   41.1070    2.7675    9.6110 C   0  0  0  0  0  0  0  0  0  0  0  0
   36.8906    8.3771   12.1442 C   0  0  1  0  0  0  0  0  0  0  0  0
   39.7568    2.1694    9.6272 N   0  0  0  0  0  0  0  0  0  0  0  0
   36.1475    9.2547   12.9863 O   0  0  0  0  0  0  0  0  0  0  0  0
   37.7692    7.0521    7.1504 C   0  0  2  0  0  0  0  0  0  0  0  0
   37.1598    8.3537    6.9078 N   0  0  0  0  0  0  0  0  0  0  0  0
   37.5786    1.6149   10.6986 C   0  0  0  0  0  0  0  0  0  0  0  0
   36.8322    2.7642    9.9568 C   0  0  0  0  0  0  0  0  0  0  0  0
   39.0844    1.9088   10.9263 C   0  0  0  0  0  0  0  0  0  0  0  0
   35.3842    2.4532    9.7620 N   0  0  0  0  0  0  0  0  0  0  0  0
   38.2031    5.2620    3.2195 O   0  0  0  0  0  0  0  0  0  0  0  0
   37.5153    7.2196   12.9486 C   0  0  2  0  0  0  0  0  0  0  0  0
   38.3752    7.6794   13.9882 O   0  0  0  0  0  0  0  0  0  0  0  0
   38.6761    7.1697    8.3591 C   0  0  2  0  0  0  0  0  0  0  0  0
   38.3011    6.2713   12.0252 C   0  0  2  0  0  0  0  0  0  0  0  0
   37.4763    5.7989   10.9544 O   0  0  0  0  0  0  0  0  0  0  0  0
   39.3423    5.7680    8.6687 C   0  0  2  0  0  0  0  0  0  0  0  0
   40.2241    5.9150    9.8258 O   0  0  0  0  0  0  0  0  0  0  0  0
   38.8515    5.0878   12.7752 C   0  0  0  0  0  0  0  0  0  0  0  0
   37.8295    4.3512   13.3302 O   0  0  0  0  0  0  0  0  0  0  0  0
   40.1645    5.3117    7.4160 C   0  0  1  0  0  0  0  0  0  0  0  0
   40.7883    4.0773    7.6197 O   0  0  0  0  0  0  0  0  0  0  0  0
  1  2  1  1  0  0  0
  1  5  1  0  0  0  0
  1 30  1  0  0  0  0
  3  4  1  6  0  0  0
  3  7  1  0  0  0  0
  3 35  1  0  0  0  0
  5  6  1  6  0  0  0
  5 16  1  0  0  0  0
  7 19  1  0  0  0  0
  8  4  1  0  0  0  0
  8 25  2  0  0  0  0
  9  8  1  6  0  0  0
  9 10  1  0  0  0  0
  9 13  1  0  0  0  0
 10 11  1  0  0  0  0
 11 12  1  0  0  0  0
 14 15  1  0  0  0  0
 14 36  1  0  0  0  0
 15 17  1  0  0  0  0
 16 18  1  1  0  0  0
 16 26  1  0  0  0  0
 17 23  1  0  0  0  0
 19 20  1  6  0  0  0
 19 28  1  0  0  0  0
 21 22  1  0  0  0  0
 21 23  1  0  0  0  0
 22 24  1  0  0  0  0
 26 27  1  1  0  0  0
 26 29  1  0  0  0  0
 28  2  1  1  0  0  0
 28 31  1  0  0  0  0
 29 30  1  0  0  0  0
 29 33  1  1  0  0  0
 31 32  1  1  0  0  0
 31 35  1  0  0  0  0
 33 34  1  0  0  0  0
 35 36  1  1  0  0  0
M  END
>  <CHROM.1>
-167.98198561,-47.30744806,174.81337547,-172.27305547,-67.48645961,63.98614701
65.28554098,-175.76609250,166.19270448,-179.62473368,-57.38232161,71.89264524
60.99958016,179.62808776,38.71176230,5.34604119,8.35156000,2.34236831,-1.09977665
2.04023409

>  <Name>
2f4u_lig

>  <RI>
0

>  <Rbt.Current_Directory>
/home/itssahil/PROJECTS/Mol_Feturizer/New_Systems/rnas/2f4u

>  <Rbt.Executable>
rbdock ($Id: //depot/dev/client3/rdock/2013.1/src/exe/rbdock.cxx#4 $)

>  <Rbt.Library>
libRbt.so (2013.1, Build901 2013/11/27)

>  <Rbt.Parameter_File>
/export/apps/rDock/src/rDock_2013.1_src/data/scripts/dock_solv.prm

>  <Rbt.Receptor>
prm/pocket_docking_6.prm

>  <SCORE>
-13.971

>  <SCORE.INTER>
-2.27201

>  <SCORE.INTER.CONST>
1

>  <SCORE.INTER.POLAR>
-0.740654

>  <SCORE.INTER.ROT>
14

>  <SCORE.INTER.SOLV>
6.22576

>  <SCORE.INTER.VDW>
-14.0544

>  <SCORE.INTER.norm>
-0.0631113

>  <SCORE.INTRA>
-11.699

>  <SCORE.INTRA.DIHEDRAL>
-23.2472

>  <SCORE.INTRA.DIHEDRAL.0>
26.3805

>  <SCORE.INTRA.POLAR>
0

>  <SCORE.INTRA.POLAR.0>
0

>  <SCORE.INTRA.REPUL>
0

>  <SCORE.INTRA.REPUL.0>
0

>  <SCORE.INTRA.SOLV>
4.55667

>  <SCORE.INTRA.SOLV.lig_0>
-98.5587

>  <SCORE.INTRA.VDW>
-2.35373

>  <SCORE.INTRA.VDW.0>
-2.91167

>  <SCORE.INTRA.norm>
-0.324972

>  <SCORE.RESTR>
0

>  <SCORE.RESTR.CAVITY>
0

>  <SCORE.RESTR.norm>
0

>  <SCORE.SYSTEM>
0

>  <SCORE.SYSTEM.CONST>
0

>  <SCORE.SYSTEM.DIHEDRAL>
0

>  <SCORE.SYSTEM.SOLV>
0

>  <SCORE.SYSTEM.norm>
0

>  <SCORE.heavy>
36

>  <SCORE.norm>
-0.388084

>  <RMSD>
6.626

$$$$
2f4u_lig
 OpenBabel11021811433D
libRbt.so/2013.1/901 2013/11/27
 36 37  0  0  0  0  0  0  0  0999 V2000
   38.3706    8.9516    4.6743 C   0  0  2  0  0  0  0  0  0  0  0  0
   37.3965    9.1945    5.7559 O   0  0  0  0  0  0  0  0  0  0  0  0
   37.0714    7.3212    9.6649 C   0  0  2  0  0  0  0  0  0  0  0  0
   36.7574    6.3011   10.7019 N   0  0  0  0  0  0  0  0  0  0  0  0
   38.3473   10.2144    3.7583 C   0  0  2  0  0  0  0  0  0  0  0  0
   38.6838   11.4513    4.4871 N   0  0  0  0  0  0  0  0  0  0  0  0
   35.7888    7.7603    8.8742 C   0  0  0  0  0  0  0  0  0  0  0  0
   36.0970    4.8152    9.9647 C   0  0  0  0  0  0  0  0  0  0  0  0
   35.8776    4.3809   11.3800 C   0  0  1  0  0  0  0  0  0  0  0  0
   34.6752    3.4304   11.3811 C   0  0  0  0  0  0  0  0  0  0  0  0
   34.9457    2.0055   10.8635 C   0  0  0  0  0  0  0  0  0  0  0  0
   34.9057    2.0261    9.4000 N   0  0  0  0  0  0  0  0  0  0  0  0
   36.9873    3.6625   11.8456 O   0  0  0  0  0  0  0  0  0  0  0  0
   39.9988    5.6111   10.4022 C   0  0  0  0  0  0  0  0  0  0  0  0
   41.4619    5.9677   10.1854 C   0  0  0  0  0  0  0  0  0  0  0  0
   36.9285   10.3420    3.1107 C   0  0  1  0  0  0  0  0  0  0  0  0
   41.9535    5.6990    8.8190 N   0  0  0  0  0  0  0  0  0  0  0  0
   36.8513   11.4903    2.2700 O   0  0  0  0  0  0  0  0  0  0  0  0
   36.1336    8.7758    7.7658 C   0  0  2  0  0  0  0  0  0  0  0  0
   34.9493    9.1487    7.0024 N   0  0  0  0  0  0  0  0  0  0  0  0
   43.1165    4.3911    7.0479 C   0  0  0  0  0  0  0  0  0  0  0  0
   44.2287    3.3438    6.7406 C   0  0  0  0  0  0  0  0  0  0  0  0
   42.7524    4.4747    8.5533 C   0  0  0  0  0  0  0  0  0  0  0  0
   45.5480    3.7484    7.3125 N   0  0  0  0  0  0  0  0  0  0  0  0
   35.9023    4.4635    8.9648 O   0  0  0  0  0  0  0  0  0  0  0  0
   36.6407    9.0477    2.3237 C   0  0  2  0  0  0  0  0  0  0  0  0
   35.3593    9.0621    1.6998 O   0  0  0  0  0  0  0  0  0  0  0  0
   37.1507    8.1876    6.8084 C   0  0  2  0  0  0  0  0  0  0  0  0
   36.7431    7.8147    3.2394 C   0  0  2  0  0  0  0  0  0  0  0  0
   38.0123    7.7716    3.9007 O   0  0  0  0  0  0  0  0  0  0  0  0
   38.4629    7.7883    7.5978 C   0  0  2  0  0  0  0  0  0  0  0  0
   39.4175    7.2081    6.6544 O   0  0  0  0  0  0  0  0  0  0  0  0
   36.5473    6.5321    2.4760 C   0  0  0  0  0  0  0  0  0  0  0  0
   36.3853    5.4751    3.3430 O   0  0  0  0  0  0  0  0  0  0  0  0
   38.0894    6.7423    8.7022 C   0  0  1  0  0  0  0  0  0  0  0  0
   39.2058    6.3380    9.4401 O   0  0  0  0  0  0  0  0  0  0  0  0
  1  2  1  1  0  0  0
  1  5  1  0  0  0  0
  1 30  1  0  0  0  0
  3  4  1  1  0  0  0
  3  7  1  0  0  0  0
  3 35  1  0  0  0  0
  5  6  1  1  0  0  0
  5 16  1  0  0  0  0
  7 19  1  0  0  0  0
  8  4  1  0  0  0  0
  8 25  2  0  0  0  0
  9  8  1  6  0  0  0
  9 10  1  0  0  0  0
  9 13  1  0  0  0  0
 10 11  1  0  0  0  0
 11 12  1  0  0  0  0
 14 15  1  0  0  0  0
 14 36  1  0  0  0  0
 15 17  1  0  0  0  0
 16 18  1  6  0  0  0
 16 26  1  0  0  0  0
 17 23  1  0  0  0  0
 19 20  1  6  0  0  0
 19 28  1  0  0  0  0
 21 22  1  0  0  0  0
 21 23  1  0  0  0  0
 22 24  1  0  0  0  0
 26 27  1  1  0  0  0
 26 29  1  0  0  0  0
 28  2  1  6  0  0  0
 28 31  1  0  0  0  0
 29 30  1  0  0  0  0
 29 33  1  6  0  0  0
 31 32  1  6  0  0  0
 31 35  1  0  0  0  0
 33 34  1  0  0  0  0
 35 36  1  1  0  0  0
M  END
>  <CHROM.1>
179.47454940,61.66444614,151.28125148,76.27869398,-81.46113644,-57.01926007
171.69724787,-100.68905392,178.34936703,-67.50309322,165.98314331,178.39808355
-168.37158164,62.56423946,37.99136371,6.68585432,7.10921075,-1.75635790,-0.16462015
2.20020556

>  <Name>
2f4u_lig

>  <RI>
0

>  <Rbt.Current_Directory>
/home/itssahil/PROJECTS/Mol_Feturizer/New_Systems/rnas/2f4u

>  <Rbt.Executable>
rbdock ($Id: //depot/dev/client3/rdock/2013.1/src/exe/rbdock.cxx#4 $)

>  <Rbt.Library>
libRbt.so (2013.1, Build901 2013/11/27)

>  <Rbt.Parameter_File>
/export/apps/rDock/src/rDock_2013.1_src/data/scripts/dock_solv.prm

>  <Rbt.Receptor>
prm/pocket_docking_4.prm

>  <SCORE>
-18.4288

>  <SCORE.INTER>
-9.50438

>  <SCORE.INTER.CONST>
1

>  <SCORE.INTER.POLAR>
-1.81758

>  <SCORE.INTER.ROT>
14

>  <SCORE.INTER.SOLV>
20.7908

>  <SCORE.INTER.VDW>
-20.1413

>  <SCORE.INTER.norm>
-0.264011

>  <SCORE.INTRA>
-8.92439

>  <SCORE.INTRA.DIHEDRAL>
-19.7085

>  <SCORE.INTRA.DIHEDRAL.0>
26.3805

>  <SCORE.INTRA.POLAR>
0

>  <SCORE.INTRA.POLAR.0>
0

>  <SCORE.INTRA.REPUL>
0

>  <SCORE.INTRA.REPUL.0>
0

>  <SCORE.INTRA.SOLV>
4.0993

>  <SCORE.INTRA.SOLV.lig_0>
-98.5587

>  <SCORE.INTRA.VDW>
-1.11977

>  <SCORE.INTRA.VDW.0>
-2.91167

>  <SCORE.INTRA.norm>
-0.2479

>  <SCORE.RESTR>
0

>  <SCORE.RESTR.CAVITY>
0

>  <SCORE.RESTR.norm>
0

>  <SCORE.SYSTEM>
0

>  <SCORE.SYSTEM.CONST>
0

>  <SCORE.SYSTEM.DIHEDRAL>
0

>  <SCORE.SYSTEM.SOLV>
0

>  <SCORE.SYSTEM.norm>
0

>  <SCORE.heavy>
36

>  <SCORE.norm>
-0.51191

>  <RMSD>
6.631

$$$$
2f4u_lig
 OpenBabel11021811433D
libRbt.so/2013.1/901 2013/11/27
 36 37  0  0  0  0  0  0  0  0999 V2000
   43.9449    5.1521    4.3238 C   0  0  2  0  0  0  0  0  0  0  0  0
   43.1657    4.1420    5.0656 O   0  0  0  0  0  0  0  0  0  0  0  0
   41.2490    3.6898    8.9408 C   0  0  2  0  0  0  0  0  0  0  0  0
   40.6445    4.0569   10.2503 N   0  0  0  0  0  0  0  0  0  0  0  0
   42.9243    6.2098    3.8006 C   0  0  2  0  0  0  0  0  0  0  0  0
   42.1579    6.8462    4.8878 N   0  0  0  0  0  0  0  0  0  0  0  0
   42.7376    4.1747    8.8314 C   0  0  0  0  0  0  0  0  0  0  0  0
   40.7831    5.8106   10.5547 C   0  0  0  0  0  0  0  0  0  0  0  0
   40.2242    5.4765   11.9022 C   0  0  1  0  0  0  0  0  0  0  0  0
   40.7318    6.5419   12.8803 C   0  0  0  0  0  0  0  0  0  0  0  0
   40.2117    6.4286   14.3253 C   0  0  0  0  0  0  0  0  0  0  0  0
   40.7995    7.5103   15.1180 N   0  0  0  0  0  0  0  0  0  0  0  0
   38.8249    5.5522   11.8805 O   0  0  0  0  0  0  0  0  0  0  0  0
   37.6857    3.7769    7.7336 C   0  0  0  0  0  0  0  0  0  0  0  0
   37.0349    5.1013    8.1039 C   0  0  0  0  0  0  0  0  0  0  0  0
   41.9499    5.5154    2.7922 C   0  0  1  0  0  0  0  0  0  0  0  0
   37.4769    6.2435    7.2787 N   0  0  0  0  0  0  0  0  0  0  0  0
   40.9874    6.4398    2.2917 O   0  0  0  0  0  0  0  0  0  0  0  0
   43.3369    3.8384    7.4507 C   0  0  2  0  0  0  0  0  0  0  0  0
   44.7043    4.3290    7.3332 N   0  0  0  0  0  0  0  0  0  0  0  0
   36.6292    8.2283    8.5205 C   0  0  0  0  0  0  0  0  0  0  0  0
   36.9581    9.6011    9.1805 C   0  0  0  0  0  0  0  0  0  0  0  0
   37.8763    7.5143    7.9369 C   0  0  0  0  0  0  0  0  0  0  0  0
   35.7714   10.1828    9.8766 N   0  0  0  0  0  0  0  0  0  0  0  0
   41.1611    6.6655   10.0183 O   0  0  0  0  0  0  0  0  0  0  0  0
   42.7909    4.9060    1.6527 C   0  0  2  0  0  0  0  0  0  0  0  0
   41.9903    4.2384    0.6805 O   0  0  0  0  0  0  0  0  0  0  0  0
   42.5094    4.4682    6.3481 C   0  0  2  0  0  0  0  0  0  0  0  0
   43.8364    3.9221    2.2081 C   0  0  2  0  0  0  0  0  0  0  0  0
   44.6525    4.5497    3.2032 O   0  0  0  0  0  0  0  0  0  0  0  0
   41.0187    3.9430    6.4289 C   0  0  2  0  0  0  0  0  0  0  0  0
   40.2407    4.5797    5.3671 O   0  0  0  0  0  0  0  0  0  0  0  0
   44.7246    3.3764    1.1222 C   0  0  0  0  0  0  0  0  0  0  0  0
   45.4309    4.3935    0.5207 O   0  0  0  0  0  0  0  0  0  0  0  0
   40.4273    4.3148    7.8307 C   0  0  1  0  0  0  0  0  0  0  0  0
   39.1048    3.8844    7.9726 O   0  0  0  0  0  0  0  0  0  0  0  0
  1  2  1  6  0  0  0
  1  5  1  0  0  0  0
  1 30  1  0  0  0  0
  3  4  1  1  0  0  0
  3  7  1  0  0  0  0
  3 35  1  0  0  0  0
  5  6  1  1  0  0  0
  5 16  1  0  0  0  0
  7 19  1  0  0  0  0
  8  4  1  0  0  0  0
  8 25  2  0  0  0  0
  9  8  1  6  0  0  0
  9 10  1  0  0  0  0
  9 13  1  0  0  0  0
 10 11  1  0  0  0  0
 11 12  1  0  0  0  0
 14 15  1  0  0  0  0
 14 36  1  0  0  0  0
 15 17  1  0  0  0  0
 16 18  1  6  0  0  0
 16 26  1  0  0  0  0
 17 23  1  0  0  0  0
 19 20  1  1  0  0  0
 19 28  1  0  0  0  0
 21 22  1  0  0  0  0
 21 23  1  0  0  0  0
 22 24  1  0  0  0  0
 26 27  1  6  0  0  0
 26 29  1  0  0  0  0
 28  2  1  6  0  0  0
 28 31  1  0  0  0  0
 29 30  1  0  0  0  0
 29 33  1  6  0  0  0
 31 32  1  6  0  0  0
 31 35  1  0  0  0  0
 33 34  1  0  0  0  0
 35 36  1  6  0  0  0
M  END
>  <CHROM.1>
-68.60025627,54.83454322,152.73664210,176.94768347,179.60789485,63.34360627
-66.26567355,-132.42621330,-71.04798484,-173.03370085,-177.71796043,-104.72791670
61.73437654,174.39058824,41.01949225,5.43092477,7.02176326,-1.05072926,-0.47938768
1.58958974

>  <Name>
2f4u_lig

>  <RI>
0

>  <Rbt.Current_Directory>
/home/itssahil/PROJECTS/Mol_Feturizer/New_Systems/rnas/2f4u

>  <Rbt.Executable>
rbdock ($Id: //depot/dev/client3/rdock/2013.1/src/exe/rbdock.cxx#4 $)

>  <Rbt.Library>
libRbt.so (2013.1, Build901 2013/11/27)

>  <Rbt.Parameter_File>
/export/apps/rDock/src/rDock_2013.1_src/data/scripts/dock_solv.prm

>  <Rbt.Receptor>
prm/pocket_docking_7.prm

>  <SCORE>
-12.8723

>  <SCORE.INTER>
-4.6311

>  <SCORE.INTER.CONST>
1

>  <SCORE.INTER.POLAR>
-0.703528

>  <SCORE.INTER.ROT>
14

>  <SCORE.INTER.SOLV>
16.709

>  <SCORE.INTER.VDW>
-19.2453

>  <SCORE.INTER.norm>
-0.128642

>  <SCORE.INTRA>
-8.24116

>  <SCORE.INTRA.DIHEDRAL>
-16.6526

>  <SCORE.INTRA.DIHEDRAL.0>
26.3805

>  <SCORE.INTRA.POLAR>
0

>  <SCORE.INTRA.POLAR.0>
0

>  <SCORE.INTRA.REPUL>
0

>  <SCORE.INTRA.REPUL.0>
0

>  <SCORE.INTRA.SOLV>
3.96515

>  <SCORE.INTRA.SOLV.lig_0>
-98.5587

>  <SCORE.INTRA.VDW>
-1.89744

>  <SCORE.INTRA.VDW.0>
-2.91167

>  <SCORE.INTRA.norm>
-0.228921

>  <SCORE.RESTR>
0

>  <SCORE.RESTR.CAVITY>
0

>  <SCORE.RESTR.norm>
0

>  <SCORE.SYSTEM>
0

>  <SCORE.SYSTEM.CONST>
0

>  <SCORE.SYSTEM.DIHEDRAL>
0

>  <SCORE.SYSTEM.SOLV>
0

>  <SCORE.SYSTEM.norm>
0

>  <SCORE.heavy>
36

>  <SCORE.norm>
-0.357563

>  <RMSD>
6.641

$$$$
2f4u_lig
 OpenBabel11021811433D
libRbt.so/2013.1/901 2013/11/27
 36 37  0  0  0  0  0  0  0  0999 V2000
   38.7578    5.5770   12.5519 C   0  0  2  0  0  0  0  0  0  0  0  0
   38.8663    4.7299   11.3483 O   0  0  0  0  0  0  0  0  0  0  0  0
   42.0737    3.8198    8.5592 C   0  0  2  0  0  0  0  0  0  0  0  0
   43.4279    3.4575    8.0596 N   0  0  0  0  0  0  0  0  0  0  0  0
   37.5191    5.0648   13.3502 C   0  0  2  0  0  0  0  0  0  0  0  0
   37.6346    3.6443   13.7283 N   0  0  0  0  0  0  0  0  0  0  0  0
   42.1031    5.1329    9.4182 C   0  0  0  0  0  0  0  0  0  0  0  0
   43.7488    4.2032    6.4695 C   0  0  0  0  0  0  0  0  0  0  0  0
   45.0039    3.3887    6.5001 C   0  0  1  0  0  0  0  0  0  0  0  0
   45.6451    3.4922    5.1117 C   0  0  0  0  0  0  0  0  0  0  0  0
   46.0445    4.9095    4.6609 C   0  0  0  0  0  0  0  0  0  0  0  0
   46.5677    4.8339    3.2955 N   0  0  0  0  0  0  0  0  0  0  0  0
   45.9087    3.9245    7.4267 O   0  0  0  0  0  0  0  0  0  0  0  0
   41.4079    0.6694    7.4547 C   0  0  0  0  0  0  0  0  0  0  0  0
   40.0096    0.8639    6.8876 C   0  0  0  0  0  0  0  0  0  0  0  0
   36.2340    5.2875   12.4856 C   0  0  1  0  0  0  0  0  0  0  0  0
   39.9683    1.6477    5.6366 N   0  0  0  0  0  0  0  0  0  0  0  0
   35.0717    4.8244   13.1681 O   0  0  0  0  0  0  0  0  0  0  0  0
   40.7054    5.4690    9.9768 C   0  0  2  0  0  0  0  0  0  0  0  0
   40.7420    6.6632   10.8116 N   0  0  0  0  0  0  0  0  0  0  0  0
   38.2789    3.4097    5.1456 C   0  0  0  0  0  0  0  0  0  0  0  0
   38.0551    4.9154    4.8121 C   0  0  0  0  0  0  0  0  0  0  0  0
   39.6983    3.1077    5.6931 C   0  0  0  0  0  0  0  0  0  0  0  0
   39.0390    5.4150    3.8052 N   0  0  0  0  0  0  0  0  0  0  0  0
   43.2259    4.8700    5.8036 O   0  0  0  0  0  0  0  0  0  0  0  0
   36.1314    6.7898   12.1544 C   0  0  2  0  0  0  0  0  0  0  0  0
   34.9905    7.0959   11.3567 O   0  0  0  0  0  0  0  0  0  0  0  0
   40.1808    4.3196   10.8140 C   0  0  2  0  0  0  0  0  0  0  0  0
   37.3992    7.2803   11.4322 C   0  0  2  0  0  0  0  0  0  0  0  0
   38.5728    6.9759   12.1939 O   0  0  0  0  0  0  0  0  0  0  0  0
   40.1061    3.0057    9.9351 C   0  0  2  0  0  0  0  0  0  0  0  0
   39.6151    1.9114   10.7713 O   0  0  0  0  0  0  0  0  0  0  0  0
   37.3577    8.7623   11.1717 C   0  0  0  0  0  0  0  0  0  0  0  0
   36.4253    9.0553   10.2022 O   0  0  0  0  0  0  0  0  0  0  0  0
   41.5396    2.6752    9.3976 C   0  0  1  0  0  0  0  0  0  0  0  0
   41.5515    1.5182    8.6130 O   0  0  0  0  0  0  0  0  0  0  0  0
  1  2  1  6  0  0  0
  1  5  1  0  0  0  0
  1 30  1  0  0  0  0
  3  4  1  1  0  0  0
  3  7  1  0  0  0  0
  3 35  1  0  0  0  0
  5  6  1  6  0  0  0
  5 16  1  0  0  0  0
  7 19  1  0  0  0  0
  8  4  1  0  0  0  0
  8 25  2  0  0  0  0
  9  8  1  6  0  0  0
  9 10  1  0  0  0  0
  9 13  1  0  0  0  0
 10 11  1  0  0  0  0
 11 12  1  0  0  0  0
 14 15  1  0  0  0  0
 14 36  1  0  0  0  0
 15 17  1  0  0  0  0
 16 18  1  1  0  0  0
 16 26  1  0  0  0  0
 17 23  1  0  0  0  0
 19 20  1  1  0  0  0
 19 28  1  0  0  0  0
 21 22  1  0  0  0  0
 21 23  1  0  0  0  0
 22 24  1  0  0  0  0
 26 27  1  6  0  0  0
 26 29  1  0  0  0  0
 28  2  1  6  0  0  0
 28 31  1  0  0  0  0
 29 30  1  0  0  0  0
 29 33  1  1  0  0  0
 31 32  1  1  0  0  0
 31 35  1  0  0  0  0
 33 34  1  0  0  0  0
 35 36  1  6  0  0  0
M  END
>  <CHROM.1>
-142.73425028,-90.05978060,170.55717652,60.89764187,-176.90362797,106.18799750
-53.15531336,-95.50661768,-108.41072880,58.36895613,-164.56362747,-81.97074809
-70.52488032,-39.75376504,40.23561882,4.53156800,8.90817207,-2.46699916,0.42031336
-1.48059791

>  <Name>
2f4u_lig

>  <RI>
0

>  <Rbt.Current_Directory>
/home/itssahil/PROJECTS/Mol_Feturizer/New_Systems/rnas/2f4u

>  <Rbt.Executable>
rbdock ($Id: //depot/dev/client3/rdock/2013.1/src/exe/rbdock.cxx#4 $)

>  <Rbt.Library>
libRbt.so (2013.1, Build901 2013/11/27)

>  <Rbt.Parameter_File>
/export/apps/rDock/src/rDock_2013.1_src/data/scripts/dock_solv.prm

>  <Rbt.Receptor>
prm/pocket_docking_5.prm

>  <SCORE>
-7.88087

>  <SCORE.INTER>
-4.98715

>  <SCORE.INTER.CONST>
1

>  <SCORE.INTER.POLAR>
-1.37822

>  <SCORE.INTER.ROT>
14

>  <SCORE.INTER.SOLV>
17.0102

>  <SCORE.INTER.VDW>
-17.3341

>  <SCORE.INTER.norm>
-0.138532

>  <SCORE.INTRA>
-2.89372

>  <SCORE.INTRA.DIHEDRAL>
-7.80013

>  <SCORE.INTRA.DIHEDRAL.0>
26.3805

>  <SCORE.INTRA.POLAR>
0

>  <SCORE.INTRA.POLAR.0>
0

>  <SCORE.INTRA.REPUL>
0

>  <SCORE.INTRA.REPUL.0>
0

>  <SCORE.INTRA.SOLV>
3.72368

>  <SCORE.INTRA.SOLV.lig_0>
-98.5587

>  <SCORE.INTRA.VDW>
-0.8555

>  <SCORE.INTRA.VDW.0>
-2.91167

>  <SCORE.INTRA.norm>
-0.0803812

>  <SCORE.RESTR>
0

>  <SCORE.RESTR.CAVITY>
0

>  <SCORE.RESTR.norm>
0

>  <SCORE.SYSTEM>
0

>  <SCORE.SYSTEM.CONST>
0

>  <SCORE.SYSTEM.DIHEDRAL>
0

>  <SCORE.SYSTEM.SOLV>
0

>  <SCORE.SYSTEM.norm>
0

>  <SCORE.heavy>
36

>  <SCORE.norm>
-0.218913

>  <RMSD>
6.653

$$$$
2f4u_lig
 OpenBabel11021811433D
libRbt.so/2013.1/901 2013/11/27
 36 37  0  0  0  0  0  0  0  0999 V2000
   36.0114    6.7650    9.5597 C   0  0  2  0  0  0  0  0  0  0  0  0
   37.0443    6.8921    8.5134 O   0  0  0  0  0  0  0  0  0  0  0  0
   40.6663    4.6890    7.5529 C   0  0  2  0  0  0  0  0  0  0  0  0
   41.5732    3.5364    7.2999 N   0  0  0  0  0  0  0  0  0  0  0  0
   34.7420    7.4997    9.0279 C   0  0  2  0  0  0  0  0  0  0  0  0
   34.2552    6.9421    7.7526 N   0  0  0  0  0  0  0  0  0  0  0  0
   40.0554    4.6418    8.9978 C   0  0  0  0  0  0  0  0  0  0  0  0
   43.2654    3.9504    7.6902 C   0  0  0  0  0  0  0  0  0  0  0  0
   43.5779    2.6054    7.1131 C   0  0  1  0  0  0  0  0  0  0  0  0
   45.0865    2.5668    6.8449 C   0  0  0  0  0  0  0  0  0  0  0  0
   45.6095    1.3053    6.1332 C   0  0  0  0  0  0  0  0  0  0  0  0
   47.0642    1.4119    6.0053 N   0  0  0  0  0  0  0  0  0  0  0  0
   43.2860    1.5979    8.0427 O   0  0  0  0  0  0  0  0  0  0  0  0
   40.9211    4.2615    4.1251 C   0  0  0  0  0  0  0  0  0  0  0  0
   40.6991    5.2476    2.9879 C   0  0  0  0  0  0  0  0  0  0  0  0
   35.0726    9.0197    8.8578 C   0  0  1  0  0  0  0  0  0  0  0  0
   41.4679    4.9423    1.7645 N   0  0  0  0  0  0  0  0  0  0  0  0
   33.9447    9.7362    8.3620 O   0  0  0  0  0  0  0  0  0  0  0  0
   39.0749    5.8093    9.2304 C   0  0  2  0  0  0  0  0  0  0  0  0
   38.4734    5.7394   10.5562 N   0  0  0  0  0  0  0  0  0  0  0  0
   43.5416    4.2216    0.5896 C   0  0  0  0  0  0  0  0  0  0  0  0
   43.1375    2.7168    0.5672 C   0  0  0  0  0  0  0  0  0  0  0  0
   42.9523    4.9966    1.7970 C   0  0  0  0  0  0  0  0  0  0  0  0
   43.7250    1.9998   -0.6041 N   0  0  0  0  0  0  0  0  0  0  0  0
   43.7842    4.8060    8.0905 O   0  0  0  0  0  0  0  0  0  0  0  0
   35.5318    9.5679   10.2237 C   0  0  2  0  0  0  0  0  0  0  0  0
   35.8670   10.9523   10.1713 O   0  0  0  0  0  0  0  0  0  0  0  0
   37.9625    5.7779    8.2014 C   0  0  2  0  0  0  0  0  0  0  0  0
   36.7399    8.7754   10.7549 C   0  0  2  0  0  0  0  0  0  0  0  0
   36.4504    7.3741   10.8070 O   0  0  0  0  0  0  0  0  0  0  0  0
   38.5752    5.8733    6.7454 C   0  0  2  0  0  0  0  0  0  0  0  0
   37.4830    5.8225    5.7745 O   0  0  0  0  0  0  0  0  0  0  0  0
   37.1551    9.2388   12.1256 C   0  0  0  0  0  0  0  0  0  0  0  0
   37.5246   10.5646   12.0947 O   0  0  0  0  0  0  0  0  0  0  0  0
   39.5500    4.6669    6.5274 C   0  0  1  0  0  0  0  0  0  0  0  0
   40.1276    4.6830    5.2545 O   0  0  0  0  0  0  0  0  0  0  0  0
  1  2  1  6  0  0  0
  1  5  1  0  0  0  0
  1 30  1  0  0  0  0
  3  4  1  6  0  0  0
  3  7  1  0  0  0  0
  3 35  1  0  0  0  0
  5  6  1  6  0  0  0
  5 16  1  0  0  0  0
  7 19  1  0  0  0  0
  8  4  1  0  0  0  0
  8 25  2  0  0  0  0
  9  8  1  1  0  0  0
  9 10  1  0  0  0  0
  9 13  1  0  0  0  0
 10 11  1  0  0  0  0
 11 12  1  0  0  0  0
 14 15  1  0  0  0  0
 14 36  1  0  0  0  0
 15 17  1  0  0  0  0
 16 18  1  1  0  0  0
 16 26  1  0  0  0  0
 17 23  1  0  0  0  0
 19 20  1  1  0  0  0
 19 28  1  0  0  0  0
 21 22  1  0  0  0  0
 21 23  1  0  0  0  0
 22 24  1  0  0  0  0
 26 27  1  6  0  0  0
 26 29  1  0  0  0  0
 28  2  1  1  0  0  0
 28 31  1  0  0  0  0
 29 30  1  0  0  0  0
 29 33  1  1  0  0  0
 31 32  1  6  0  0  0
 31 35  1  0  0  0  0
 33 34  1  0  0  0  0
 35 36  1  6  0  0  0
M  END
>  <CHROM.1>
-141.42356816,-92.71408412,164.59655829,-174.97769834,-177.82360002,179.38607604
176.52165857,-64.55012396,161.90582996,-179.79550422,-60.03418140,-81.51030723
-60.87234552,60.76249956,39.75494177,5.62368413,7.11645908,2.52034196,-0.58147324
1.47812896

>  <Name>
2f4u_lig

>  <RI>
0

>  <Rbt.Current_Directory>
/home/itssahil/PROJECTS/Mol_Feturizer/New_Systems/rnas/2f4u

>  <Rbt.Executable>
rbdock ($Id: //depot/dev/client3/rdock/2013.1/src/exe/rbdock.cxx#4 $)

>  <Rbt.Library>
libRbt.so (2013.1, Build901 2013/11/27)

>  <Rbt.Parameter_File>
/export/apps/rDock/src/rDock_2013.1_src/data/scripts/dock_solv.prm

>  <Rbt.Receptor>
prm/pocket_docking_7.prm

>  <SCORE>
-4.50517

>  <SCORE.INTER>
3.00652

>  <SCORE.INTER.CONST>
1

>  <SCORE.INTER.POLAR>
-1.12711

>  <SCORE.INTER.ROT>
14

>  <SCORE.INTER.SOLV>
6.53108

>  <SCORE.INTER.VDW>
-9.34898

>  <SCORE.INTER.norm>
0.0835145

>  <SCORE.INTRA>
-7.51583

>  <SCORE.INTRA.DIHEDRAL>
-17.0384

>  <SCORE.INTRA.DIHEDRAL.0>
26.3805

>  <SCORE.INTRA.POLAR>
0

>  <SCORE.INTRA.POLAR.0>
0

>  <SCORE.INTRA.REPUL>
0

>  <SCORE.INTRA.REPUL.0>
0

>  <SCORE.INTRA.SOLV>
1.82415

>  <SCORE.INTRA.SOLV.lig_0>
-98.5587

>  <SCORE.INTRA.VDW>
0.0912834

>  <SCORE.INTRA.VDW.0>
-2.91167

>  <SCORE.INTRA.norm>
-0.208773

>  <SCORE.RESTR>
0.0041334

>  <SCORE.RESTR.CAVITY>
0.0041334

>  <SCORE.RESTR.norm>
0.000114817

>  <SCORE.SYSTEM>
0

>  <SCORE.SYSTEM.CONST>
0

>  <SCORE.SYSTEM.DIHEDRAL>
0

>  <SCORE.SYSTEM.SOLV>
0

>  <SCORE.SYSTEM.norm>
0

>  <SCORE.heavy>
36

>  <SCORE.norm>
-0.125144

>  <RMSD>
6.656

$$$$
2f4u_lig
 OpenBabel11021811433D
libRbt.so/2013.1/901 2013/11/27
 36 37  0  0  0  0  0  0  0  0999 V2000
   37.4545    6.8902   10.6452 C   0  0  2  0  0  0  0  0  0  0  0  0
   38.6413    7.2525    9.8464 O   0  0  0  0  0  0  0  0  0  0  0  0
   41.8235    4.8324    8.1399 C   0  0  2  0  0  0  0  0  0  0  0  0
   42.4945    3.7726    7.3392 N   0  0  0  0  0  0  0  0  0  0  0  0
   36.2507    6.8247    9.6549 C   0  0  2  0  0  0  0  0  0  0  0  0
   36.4598    5.8481    8.5701 N   0  0  0  0  0  0  0  0  0  0  0  0
   40.8241    4.2251    9.1866 C   0  0  0  0  0  0  0  0  0  0  0  0
   43.7194    2.9099    8.3103 C   0  0  0  0  0  0  0  0  0  0  0  0
   44.0566    2.2302    7.0203 C   0  0  1  0  0  0  0  0  0  0  0  0
   45.3803    1.4870    7.2322 C   0  0  0  0  0  0  0  0  0  0  0  0
   45.9655    0.7910    5.9894 C   0  0  0  0  0  0  0  0  0  0  0  0
   46.3725    1.8182    5.0286 N   0  0  0  0  0  0  0  0  0  0  0  0
   43.0799    1.2761    6.7037 O   0  0  0  0  0  0  0  0  0  0  0  0
   42.5070    7.0404    5.1698 C   0  0  0  0  0  0  0  0  0  0  0  0
   41.7135    6.6986    3.9175 C   0  0  0  0  0  0  0  0  0  0  0  0
   36.0123    8.2503    9.0553 C   0  0  1  0  0  0  0  0  0  0  0  0
   41.8434    5.2926    3.4847 N   0  0  0  0  0  0  0  0  0  0  0  0
   34.9260    8.2421    8.1326 O   0  0  0  0  0  0  0  0  0  0  0  0
   40.0935    5.3329    9.9726 C   0  0  2  0  0  0  0  0  0  0  0  0
   39.1326    4.7694   10.9125 N   0  0  0  0  0  0  0  0  0  0  0  0
   42.9160    4.8594    1.2797 C   0  0  0  0  0  0  0  0  0  0  0  0
   44.2260    4.5250    0.5049 C   0  0  0  0  0  0  0  0  0  0  0  0
   43.0934    4.8409    2.8204 C   0  0  0  0  0  0  0  0  0  0  0  0
   44.7462    3.1680    0.8501 N   0  0  0  0  0  0  0  0  0  0  0  0
   44.0672    2.9420    9.3298 O   0  0  0  0  0  0  0  0  0  0  0  0
   35.7534    9.2255   10.2211 C   0  0  2  0  0  0  0  0  0  0  0  0
   35.5322   10.5614    9.7760 O   0  0  0  0  0  0  0  0  0  0  0  0
   39.3483    6.2501    9.0236 C   0  0  2  0  0  0  0  0  0  0  0  0
   36.9264    9.2127   11.2178 C   0  0  2  0  0  0  0  0  0  0  0  0
   37.1936    7.8832   11.6774 O   0  0  0  0  0  0  0  0  0  0  0  0
   40.3630    6.8998    7.9975 C   0  0  2  0  0  0  0  0  0  0  0  0
   39.6156    7.7637    7.0847 O   0  0  0  0  0  0  0  0  0  0  0  0
   36.6602   10.0956   12.4076 C   0  0  0  0  0  0  0  0  0  0  0  0
   35.6265    9.5885   13.1623 O   0  0  0  0  0  0  0  0  0  0  0  0
   41.0756    5.7562    7.1989 C   0  0  1  0  0  0  0  0  0  0  0  0
   41.9874    6.2581    6.2656 O   0  0  0  0  0  0  0  0  0  0  0  0
  1  2  1  6  0  0  0
  1  5  1  0  0  0  0
  1 30  1  0  0  0  0
  3  4  1  6  0  0  0
  3  7  1  0  0  0  0
  3 35  1  0  0  0  0
  5  6  1  6  0  0  0
  5 16  1  0  0  0  0
  7 19  1  0  0  0  0
  8  4  1  0  0  0  0
  8 25  2  0  0  0  0
  9  8  1  1  0  0  0
  9 10  1  0  0  0  0
  9 13  1  0  0  0  0
 10 11  1  0  0  0  0
 11 12  1  0  0  0  0
 14 15  1  0  0  0  0
 14 36  1  0  0  0  0
 15 17  1  0  0  0  0
 16 18  1  6  0  0  0
 16 26  1  0  0  0  0
 17 23  1  0  0  0  0
 19 20  1  1  0  0  0
 19 28  1  0  0  0  0
 21 22  1  0  0  0  0
 21 23  1  0  0  0  0
 22 24  1  0  0  0  0
 26 27  1  6  0  0  0
 26 29  1  0  0  0  0
 28  2  1  1  0  0  0
 28 31  1  0  0  0  0
 29 30  1  0  0  0  0
 29 33  1  1  0  0  0
 31 32  1  6  0  0  0
 31 35  1  0  0  0  0
 33 34  1  0  0  0  0
 35 36  1  6  0  0  0
M  END
>  <CHROM.1>
-78.57843157,-73.46937832,167.93129808,-175.96020276,67.29059844,-63.15683180
-59.98295365,-75.03671714,-97.00351357,59.89447127,174.65483027,-72.39613199
66.66150060,-175.19311303,40.46246566,5.74553792,7.65950046,-2.75046573,0.73097157
-1.26576369

>  <Name>
2f4u_lig

>  <RI>
0

>  <Rbt.Current_Directory>
/home/itssahil/PROJECTS/Mol_Feturizer/New_Systems/rnas/2f4u

>  <Rbt.Executable>
rbdock ($Id: //depot/dev/client3/rdock/2013.1/src/exe/rbdock.cxx#4 $)

>  <Rbt.Library>
libRbt.so (2013.1, Build901 2013/11/27)

>  <Rbt.Parameter_File>
/export/apps/rDock/src/rDock_2013.1_src/data/scripts/dock_solv.prm

>  <Rbt.Receptor>
prm/pocket_docking_6.prm

>  <SCORE>
-10.9097

>  <SCORE.INTER>
-2.55545

>  <SCORE.INTER.CONST>
1

>  <SCORE.INTER.POLAR>
-0.860448

>  <SCORE.INTER.ROT>
14

>  <SCORE.INTER.SOLV>
8.44681

>  <SCORE.INTER.VDW>
-14.5844

>  <SCORE.INTER.norm>
-0.0709848

>  <SCORE.INTRA>
-8.35426

>  <SCORE.INTRA.DIHEDRAL>
-21.3365

>  <SCORE.INTRA.DIHEDRAL.0>
26.3805

>  <SCORE.INTRA.POLAR>
0

>  <SCORE.INTRA.POLAR.0>
0

>  <SCORE.INTRA.REPUL>
0

>  <SCORE.INTRA.REPUL.0>
0

>  <SCORE.INTRA.SOLV>
4.96501

>  <SCORE.INTRA.SOLV.lig_0>
-98.5587

>  <SCORE.INTRA.VDW>
-0.1685

>  <SCORE.INTRA.VDW.0>
-2.91167

>  <SCORE.INTRA.norm>
-0.232063

>  <SCORE.RESTR>
0

>  <SCORE.RESTR.CAVITY>
0

>  <SCORE.RESTR.norm>
0

>  <SCORE.SYSTEM>
0

>  <SCORE.SYSTEM.CONST>
0

>  <SCORE.SYSTEM.DIHEDRAL>
0

>  <SCORE.SYSTEM.SOLV>
0

>  <SCORE.SYSTEM.norm>
0

>  <SCORE.heavy>
36

>  <SCORE.norm>
-0.303048

>  <RMSD>
6.674

$$$$
2f4u_lig
 OpenBabel11021811433D
libRbt.so/2013.1/901 2013/11/27
 36 37  0  0  0  0  0  0  0  0999 V2000
   37.5635    6.3483    9.5481 C   0  0  2  0  0  0  0  0  0  0  0  0
   38.4103    7.4048    8.9610 O   0  0  0  0  0  0  0  0  0  0  0  0
   41.1283    5.1864    6.3946 C   0  0  2  0  0  0  0  0  0  0  0  0
   42.2701    4.9061    5.4822 N   0  0  0  0  0  0  0  0  0  0  0  0
   36.3180    7.0610   10.1603 C   0  0  2  0  0  0  0  0  0  0  0  0
   35.5581    7.8349    9.1614 N   0  0  0  0  0  0  0  0  0  0  0  0
   40.1575    6.2649    5.7966 C   0  0  0  0  0  0  0  0  0  0  0  0
   41.8050    3.7486    4.2050 C   0  0  0  0  0  0  0  0  0  0  0  0
   43.2550    3.7909    3.8369 C   0  0  1  0  0  0  0  0  0  0  0  0
   43.5747    2.4834    3.1037 C   0  0  0  0  0  0  0  0  0  0  0  0
   45.0677    2.1217    2.9968 C   0  0  0  0  0  0  0  0  0  0  0  0
   45.7793    3.2527    2.3981 N   0  0  0  0  0  0  0  0  0  0  0  0
   43.5004    4.8469    2.9486 O   0  0  0  0  0  0  0  0  0  0  0  0
   43.0441    3.4118    8.6308 C   0  0  0  0  0  0  0  0  0  0  0  0
   43.0241    2.4803    7.4281 C   0  0  0  0  0  0  0  0  0  0  0  0
   36.7922    7.9995   11.3192 C   0  0  1  0  0  0  0  0  0  0  0  0
   43.4195    1.0905    7.7333 N   0  0  0  0  0  0  0  0  0  0  0  0
   35.6891    8.6846   11.9066 O   0  0  0  0  0  0  0  0  0  0  0  0
   39.0087    6.5884    6.7734 C   0  0  2  0  0  0  0  0  0  0  0  0
   38.1331    7.6227    6.2370 N   0  0  0  0  0  0  0  0  0  0  0  0
   43.9850    0.0008    5.5670 C   0  0  0  0  0  0  0  0  0  0  0  0
   42.9308   -1.1438    5.6487 C   0  0  0  0  0  0  0  0  0  0  0  0
   44.5112    0.4497    6.9553 C   0  0  0  0  0  0  0  0  0  0  0  0
   42.4821   -1.5853    4.2940 N   0  0  0  0  0  0  0  0  0  0  0  0
   40.9047    3.2334    3.9128 O   0  0  0  0  0  0  0  0  0  0  0  0
   37.5396    7.1404   12.3587 C   0  0  2  0  0  0  0  0  0  0  0  0
   38.0223    7.9101   13.4570 O   0  0  0  0  0  0  0  0  0  0  0  0
   39.5626    7.0743    8.0979 C   0  0  2  0  0  0  0  0  0  0  0  0
   38.7181    6.3939   11.7081 C   0  0  2  0  0  0  0  0  0  0  0  0
   38.2780    5.6201   10.5867 O   0  0  0  0  0  0  0  0  0  0  0  0
   40.5044    5.9675    8.7244 C   0  0  2  0  0  0  0  0  0  0  0  0
   41.0379    6.4695    9.9899 O   0  0  0  0  0  0  0  0  0  0  0  0
   39.4132    5.4841   12.6856 C   0  0  0  0  0  0  0  0  0  0  0  0
   40.0692    6.2202   13.6463 O   0  0  0  0  0  0  0  0  0  0  0  0
   41.6725    5.6725    7.7235 C   0  0  1  0  0  0  0  0  0  0  0  0
   42.5516    4.7030    8.2149 O   0  0  0  0  0  0  0  0  0  0  0  0
  1  2  1  1  0  0  0
  1  5  1  0  0  0  0
  1 30  1  0  0  0  0
  3  4  1  6  0  0  0
  3  7  1  0  0  0  0
  3 35  1  0  0  0  0
  5  6  1  6  0  0  0
  5 16  1  0  0  0  0
  7 19  1  0  0  0  0
  8  4  1  0  0  0  0
  8 25  2  0  0  0  0
  9  8  1  6  0  0  0
  9 10  1  0  0  0  0
  9 13  1  0  0  0  0
 10 11  1  0  0  0  0
 11 12  1  0  0  0  0
 14 15  1  0  0  0  0
 14 36  1  0  0  0  0
 15 17  1  0  0  0  0
 16 18  1  1  0  0  0
 16 26  1  0  0  0  0
 17 23  1  0  0  0  0
 19 20  1  6  0  0  0
 19 28  1  0  0  0  0
 21 22  1  0  0  0  0
 21 23  1  0  0  0  0
 22 24  1  0  0  0  0
 26 27  1  1  0  0  0
 26 29  1  0  0  0  0
 28  2  1  1  0  0  0
 28 31  1  0  0  0  0
 29 30  1  0  0  0  0
 29 33  1  1  0  0  0
 31 32  1  1  0  0  0
 31 35  1  0  0  0  0
 33 34  1  0  0  0  0
 35 36  1  1  0  0  0
M  END
>  <CHROM.1>
-169.66216627,-81.91488737,156.02367214,-162.70691710,-54.08132174,-176.07666086
61.89184137,-125.98398999,-77.71401255,-177.94261603,-66.51240439,72.44657289
-68.42772312,-52.41860419,40.70934249,4.81624963,7.78443115,2.63477069,-0.86651529
1.83761554

>  <Name>
2f4u_lig

>  <RI>
0

>  <Rbt.Current_Directory>
/home/itssahil/PROJECTS/Mol_Feturizer/New_Systems/rnas/2f4u

>  <Rbt.Executable>
rbdock ($Id: //depot/dev/client3/rdock/2013.1/src/exe/rbdock.cxx#4 $)

>  <Rbt.Library>
libRbt.so (2013.1, Build901 2013/11/27)

>  <Rbt.Parameter_File>
/export/apps/rDock/src/rDock_2013.1_src/data/scripts/dock_solv.prm

>  <Rbt.Receptor>
prm/pocket_docking_5.prm

>  <SCORE>
-11.6525

>  <SCORE.INTER>
-0.927625

>  <SCORE.INTER.CONST>
1

>  <SCORE.INTER.POLAR>
-1.51883

>  <SCORE.INTER.ROT>
14

>  <SCORE.INTER.SOLV>
7.29986

>  <SCORE.INTER.VDW>
-10.9223

>  <SCORE.INTER.norm>
-0.0257673

>  <SCORE.INTRA>
-10.7267

>  <SCORE.INTRA.DIHEDRAL>
-20.1876

>  <SCORE.INTRA.DIHEDRAL.0>
26.3805

>  <SCORE.INTRA.POLAR>
0

>  <SCORE.INTRA.POLAR.0>
0

>  <SCORE.INTRA.REPUL>
0

>  <SCORE.INTRA.REPUL.0>
0

>  <SCORE.INTRA.SOLV>
3.10078

>  <SCORE.INTRA.SOLV.lig_0>
-98.5587

>  <SCORE.INTRA.VDW>
-2.18334

>  <SCORE.INTRA.VDW.0>
-2.91167

>  <SCORE.INTRA.norm>
-0.297965

>  <SCORE.RESTR>
0.0019017

>  <SCORE.RESTR.CAVITY>
0.0019017

>  <SCORE.RESTR.norm>
5.28249e-05

>  <SCORE.SYSTEM>
0

>  <SCORE.SYSTEM.CONST>
0

>  <SCORE.SYSTEM.DIHEDRAL>
0

>  <SCORE.SYSTEM.SOLV>
0

>  <SCORE.SYSTEM.norm>
0

>  <SCORE.heavy>
36

>  <SCORE.norm>
-0.32368

>  <RMSD>
6.706

$$$$
2f4u_lig
 OpenBabel11021811433D
libRbt.so/2013.1/901 2013/11/27
 36 37  0  0  0  0  0  0  0  0999 V2000
   42.6928    3.9159    4.7863 C   0  0  2  0  0  0  0  0  0  0  0  0
   43.1386    5.2264    5.2978 O   0  0  0  0  0  0  0  0  0  0  0  0
   40.9541    5.5869    9.0386 C   0  0  2  0  0  0  0  0  0  0  0  0
   40.5553    6.0978   10.3782 N   0  0  0  0  0  0  0  0  0  0  0  0
   43.2128    3.8070    3.3193 C   0  0  2  0  0  0  0  0  0  0  0  0
   44.6797    3.9248    3.2263 N   0  0  0  0  0  0  0  0  0  0  0  0
   42.4466    5.1018    9.0221 C   0  0  0  0  0  0  0  0  0  0  0  0
   39.7263    4.8343   11.3289 C   0  0  0  0  0  0  0  0  0  0  0  0
   39.4914    5.9328   12.3177 C   0  0  1  0  0  0  0  0  0  0  0  0
   38.0330    6.3782   12.1623 C   0  0  0  0  0  0  0  0  0  0  0  0
   37.5775    7.5200   13.0897 C   0  0  0  0  0  0  0  0  0  0  0  0
   36.2089    7.8951   12.7292 N   0  0  0  0  0  0  0  0  0  0  0  0
   39.6519    5.4530   13.6247 O   0  0  0  0  0  0  0  0  0  0  0  0
   38.2350    7.8453    7.7455 C   0  0  0  0  0  0  0  0  0  0  0  0
   37.0825    7.2566    8.5454 C   0  0  0  0  0  0  0  0  0  0  0  0
   42.5291    4.9198    2.4575 C   0  0  1  0  0  0  0  0  0  0  0  0
   36.8070    5.8356    8.2523 N   0  0  0  0  0  0  0  0  0  0  0  0
   42.9803    4.8700    1.1064 O   0  0  0  0  0  0  0  0  0  0  0  0
   42.8663    4.6262    7.6163 C   0  0  2  0  0  0  0  0  0  0  0  0
   44.2654    4.2186    7.5910 N   0  0  0  0  0  0  0  0  0  0  0  0
   35.4001    3.7856    8.1178 C   0  0  0  0  0  0  0  0  0  0  0  0
   36.4278    2.8446    8.8153 C   0  0  0  0  0  0  0  0  0  0  0  0
   35.4856    5.2554    8.6055 C   0  0  0  0  0  0  0  0  0  0  0  0
   36.3384    1.4445    8.3024 N   0  0  0  0  0  0  0  0  0  0  0  0
   39.4749    3.7956   11.1896 O   0  0  0  0  0  0  0  0  0  0  0  0
   41.0019    4.7284    2.5484 C   0  0  2  0  0  0  0  0  0  0  0  0
   40.2840    5.7054    1.7990 O   0  0  0  0  0  0  0  0  0  0  0  0
   42.6767    5.7383    6.6041 C   0  0  2  0  0  0  0  0  0  0  0  0
   40.5303    4.7682    4.0131 C   0  0  2  0  0  0  0  0  0  0  0  0
   41.2409    3.8112    4.8063 O   0  0  0  0  0  0  0  0  0  0  0  0
   41.1618    6.1956    6.5863 C   0  0  2  0  0  0  0  0  0  0  0  0
   41.0121    7.2794    5.6162 O   0  0  0  0  0  0  0  0  0  0  0  0
   39.0537    4.5013    4.1337 C   0  0  0  0  0  0  0  0  0  0  0  0
   38.7438    3.2638    3.6161 O   0  0  0  0  0  0  0  0  0  0  0  0
   40.7672    6.6925    8.0183 C   0  0  1  0  0  0  0  0  0  0  0  0
   39.4372    7.1190    8.0772 O   0  0  0  0  0  0  0  0  0  0  0  0
  1  2  1  6  0  0  0
  1  5  1  0  0  0  0
  1 30  1  0  0  0  0
  3  4  1  1  0  0  0
  3  7  1  0  0  0  0
  3 35  1  0  0  0  0
  5  6  1  1  0  0  0
  5 16  1  0  0  0  0
  7 19  1  0  0  0  0
  8  4  1  0  0  0  0
  8 25  2  0  0  0  0
  9  8  1  6  0  0  0
  9 10  1  0  0  0  0
  9 13  1  0  0  0  0
 10 11  1  0  0  0  0
 11 12  1  0  0  0  0
 14 15  1  0  0  0  0
 14 36  1  0  0  0  0
 15 17  1  0  0  0  0
 16 18  1  6  0  0  0
 16 26  1  0  0  0  0
 17 23  1  0  0  0  0
 19 20  1  1  0  0  0
 19 28  1  0  0  0  0
 21 22  1  0  0  0  0
 21 23  1  0  0  0  0
 22 24  1  0  0  0  0
 26 27  1  6  0  0  0
 26 29  1  0  0  0  0
 28  2  1  6  0  0  0
 28 31  1  0  0  0  0
 29 30  1  0  0  0  0
 29 33  1  6  0  0  0
 31 32  1  6  0  0  0
 31 35  1  0  0  0  0
 33 34  1  0  0  0  0
 35 36  1  6  0  0  0
M  END
>  <CHROM.1>
172.16517747,-96.27933330,102.77064435,-179.59930753,175.07973782,-61.55669296
171.50889951,-160.46833918,176.22221812,-178.79054533,63.82697906,48.83965164
59.41554639,-176.12737202,40.04860056,5.22785060,7.31497104,-1.07405322,0.09366303
1.36496419

>  <Name>
2f4u_lig

>  <RI>
0

>  <Rbt.Current_Directory>
/home/itssahil/PROJECTS/Mol_Feturizer/New_Systems/rnas/2f4u

>  <Rbt.Executable>
rbdock ($Id: //depot/dev/client3/rdock/2013.1/src/exe/rbdock.cxx#4 $)

>  <Rbt.Library>
libRbt.so (2013.1, Build901 2013/11/27)

>  <Rbt.Parameter_File>
/export/apps/rDock/src/rDock_2013.1_src/data/scripts/dock_solv.prm

>  <Rbt.Receptor>
prm/pocket_docking_7.prm

>  <SCORE>
-10.9476

>  <SCORE.INTER>
1.73969

>  <SCORE.INTER.CONST>
1

>  <SCORE.INTER.POLAR>
-0.526335

>  <SCORE.INTER.ROT>
14

>  <SCORE.INTER.SOLV>
12.1215

>  <SCORE.INTER.VDW>
-14.0596

>  <SCORE.INTER.norm>
0.0483247

>  <SCORE.INTRA>
-12.6873

>  <SCORE.INTRA.DIHEDRAL>
-21.5459

>  <SCORE.INTRA.DIHEDRAL.0>
26.3805

>  <SCORE.INTRA.POLAR>
0

>  <SCORE.INTRA.POLAR.0>
0

>  <SCORE.INTRA.REPUL>
0

>  <SCORE.INTRA.REPUL.0>
0

>  <SCORE.INTRA.SOLV>
1.17996

>  <SCORE.INTRA.SOLV.lig_0>
-98.5587

>  <SCORE.INTRA.VDW>
-2.50433

>  <SCORE.INTRA.VDW.0>
-2.91167

>  <SCORE.INTRA.norm>
-0.352425

>  <SCORE.RESTR>
0

>  <SCORE.RESTR.CAVITY>
0

>  <SCORE.RESTR.norm>
0

>  <SCORE.SYSTEM>
0

>  <SCORE.SYSTEM.CONST>
0

>  <SCORE.SYSTEM.DIHEDRAL>
0

>  <SCORE.SYSTEM.SOLV>
0

>  <SCORE.SYSTEM.norm>
0

>  <SCORE.heavy>
36

>  <SCORE.norm>
-0.3041

>  <RMSD>
6.730

$$$$
2f4u_lig
 OpenBabel11021811433D
libRbt.so/2013.1/901 2013/11/27
 36 37  0  0  0  0  0  0  0  0999 V2000
   40.9052    5.9621    3.8810 C   0  0  2  0  0  0  0  0  0  0  0  0
   40.8270    5.0517    5.0398 O   0  0  0  0  0  0  0  0  0  0  0  0
   39.6413    5.6808    9.1743 C   0  0  2  0  0  0  0  0  0  0  0  0
   39.6766    6.1800   10.5758 N   0  0  0  0  0  0  0  0  0  0  0  0
   41.1669    5.0706    2.6276 C   0  0  2  0  0  0  0  0  0  0  0  0
   40.1136    4.0601    2.4192 N   0  0  0  0  0  0  0  0  0  0  0  0
   40.9215    4.8435    8.8231 C   0  0  0  0  0  0  0  0  0  0  0  0
   39.2600    4.8848   11.7317 C   0  0  0  0  0  0  0  0  0  0  0  0
   39.3093    5.9767   12.7540 C   0  0  1  0  0  0  0  0  0  0  0  0
   38.2365    5.6640   13.8031 C   0  0  0  0  0  0  0  0  0  0  0  0
   36.7788    5.7210   13.3100 C   0  0  0  0  0  0  0  0  0  0  0  0
   36.5070    7.0719   12.8148 N   0  0  0  0  0  0  0  0  0  0  0  0
   40.5511    5.9785   13.4039 O   0  0  0  0  0  0  0  0  0  0  0  0
   37.0119    7.9270    8.8032 C   0  0  0  0  0  0  0  0  0  0  0  0
   36.2968    7.8721    7.4614 C   0  0  0  0  0  0  0  0  0  0  0  0
   42.5577    4.3714    2.7870 C   0  0  1  0  0  0  0  0  0  0  0  0
   34.8470    8.1429    7.5376 N   0  0  0  0  0  0  0  0  0  0  0  0
   42.8403    3.5338    1.6690 O   0  0  0  0  0  0  0  0  0  0  0  0
   40.9010    4.3778    7.3529 C   0  0  2  0  0  0  0  0  0  0  0  0
   42.1111    3.6391    7.0147 N   0  0  0  0  0  0  0  0  0  0  0  0
   33.3981    6.3414    6.6128 C   0  0  0  0  0  0  0  0  0  0  0  0
   32.6765    5.7722    5.3544 C   0  0  0  0  0  0  0  0  0  0  0  0
   33.9689    7.7677    6.3994 C   0  0  0  0  0  0  0  0  0  0  0  0
   33.6424    5.4164    4.2719 N   0  0  0  0  0  0  0  0  0  0  0  0
   39.0246    3.8348   11.6715 O   0  0  0  0  0  0  0  0  0  0  0  0
   43.6301    5.4662    2.9557 C   0  0  2  0  0  0  0  0  0  0  0  0
   44.9395    4.9270    3.1183 O   0  0  0  0  0  0  0  0  0  0  0  0
   40.7961    5.5698    6.4227 C   0  0  2  0  0  0  0  0  0  0  0  0
   43.3044    6.3729    4.1563 C   0  0  2  0  0  0  0  0  0  0  0  0
   41.9874    6.9227    4.0405 O   0  0  0  0  0  0  0  0  0  0  0  0
   39.4805    6.3882    6.7451 C   0  0  2  0  0  0  0  0  0  0  0  0
   39.4147    7.5400    5.8467 O   0  0  0  0  0  0  0  0  0  0  0  0
   44.2931    7.5000    4.2916 C   0  0  0  0  0  0  0  0  0  0  0  0
   45.5563    7.0070    4.5289 O   0  0  0  0  0  0  0  0  0  0  0  0
   39.5354    6.8664    8.2355 C   0  0  1  0  0  0  0  0  0  0  0  0
   38.4024    7.6039    8.5915 O   0  0  0  0  0  0  0  0  0  0  0  0
  1  2  1  1  0  0  0
  1  5  1  0  0  0  0
  1 30  1  0  0  0  0
  3  4  1  1  0  0  0
  3  7  1  0  0  0  0
  3 35  1  0  0  0  0
  5  6  1  1  0  0  0
  5 16  1  0  0  0  0
  7 19  1  0  0  0  0
  8  4  1  0  0  0  0
  8 25  2  0  0  0  0
  9  8  1  6  0  0  0
  9 10  1  0  0  0  0
  9 13  1  0  0  0  0
 10 11  1  0  0  0  0
 11 12  1  0  0  0  0
 14 15  1  0  0  0  0
 14 36  1  0  0  0  0
 15 17  1  0  0  0  0
 16 18  1  6  0  0  0
 16 26  1  0  0  0  0
 17 23  1  0  0  0  0
 19 20  1  6  0  0  0
 19 28  1  0  0  0  0
 21 22  1  0  0  0  0
 21 23  1  0  0  0  0
 22 24  1  0  0  0  0
 26 27  1  1  0  0  0
 26 29  1  0  0  0  0
 28  2  1  6  0  0  0
 28 31  1  0  0  0  0
 29 30  1  0  0  0  0
 29 33  1  6  0  0  0
 31 32  1  6  0  0  0
 31 35  1  0  0  0  0
 33 34  1  0  0  0  0
 35 36  1  1  0  0  0
M  END
>  <CHROM.1>
170.37938534,-77.63493861,145.36877001,-65.85255729,-59.86187512,178.18250655
-61.66854329,-163.44157883,92.07432997,71.81777682,-169.69535450,-172.64186448
-62.53572447,-65.17117049,39.60724886,5.93183640,7.09744111,0.87854625,0.14711447
-1.57393370

>  <Name>
2f4u_lig

>  <RI>
0

>  <Rbt.Current_Directory>
/home/itssahil/PROJECTS/Mol_Feturizer/New_Systems/rnas/2f4u

>  <Rbt.Executable>
rbdock ($Id: //depot/dev/client3/rdock/2013.1/src/exe/rbdock.cxx#4 $)

>  <Rbt.Library>
libRbt.so (2013.1, Build901 2013/11/27)

>  <Rbt.Parameter_File>
/export/apps/rDock/src/rDock_2013.1_src/data/scripts/dock_solv.prm

>  <Rbt.Receptor>
prm/pocket_docking_8.prm

>  <SCORE>
-18.2301

>  <SCORE.INTER>
-7.20009

>  <SCORE.INTER.CONST>
1

>  <SCORE.INTER.POLAR>
-0.5069

>  <SCORE.INTER.ROT>
14

>  <SCORE.INTER.SOLV>
9.50583

>  <SCORE.INTER.VDW>
-19.2123

>  <SCORE.INTER.norm>
-0.200003

>  <SCORE.INTRA>
-11.03

>  <SCORE.INTRA.DIHEDRAL>
-21.5984

>  <SCORE.INTRA.DIHEDRAL.0>
26.3805

>  <SCORE.INTRA.POLAR>
0

>  <SCORE.INTRA.POLAR.0>
0

>  <SCORE.INTRA.REPUL>
0

>  <SCORE.INTRA.REPUL.0>
0

>  <SCORE.INTRA.SOLV>
1.78045

>  <SCORE.INTRA.SOLV.lig_0>
-98.5587

>  <SCORE.INTRA.VDW>
-1.12099

>  <SCORE.INTRA.VDW.0>
-2.91167

>  <SCORE.INTRA.norm>
-0.306388

>  <SCORE.RESTR>
0

>  <SCORE.RESTR.CAVITY>
0

>  <SCORE.RESTR.norm>
0

>  <SCORE.SYSTEM>
0

>  <SCORE.SYSTEM.CONST>
0

>  <SCORE.SYSTEM.DIHEDRAL>
0

>  <SCORE.SYSTEM.SOLV>
0

>  <SCORE.SYSTEM.norm>
0

>  <SCORE.heavy>
36

>  <SCORE.norm>
-0.506391

>  <RMSD>
6.912

$$$$
2f4u_lig
 OpenBabel11021811433D
libRbt.so/2013.1/901 2013/11/27
 36 37  0  0  0  0  0  0  0  0999 V2000
   37.1563    6.2548    9.2812 C   0  0  2  0  0  0  0  0  0  0  0  0
   38.5871    6.0651    9.5891 O   0  0  0  0  0  0  0  0  0  0  0  0
   41.7584    3.6504    7.8549 C   0  0  2  0  0  0  0  0  0  0  0  0
   42.5055    2.4470    7.3983 N   0  0  0  0  0  0  0  0  0  0  0  0
   36.6659    7.4535   10.1509 C   0  0  2  0  0  0  0  0  0  0  0  0
   37.4189    8.6933    9.8861 N   0  0  0  0  0  0  0  0  0  0  0  0
   41.4588    3.5992    9.3946 C   0  0  0  0  0  0  0  0  0  0  0  0
   44.2684    2.7236    7.4539 C   0  0  0  0  0  0  0  0  0  0  0  0
   44.3558    1.3835    6.7935 C   0  0  1  0  0  0  0  0  0  0  0  0
   45.8391    1.1077    6.5226 C   0  0  0  0  0  0  0  0  0  0  0  0
   46.1450   -0.1335    5.6640 C   0  0  0  0  0  0  0  0  0  0  0  0
   47.5923   -0.2111    5.4565 N   0  0  0  0  0  0  0  0  0  0  0  0
   43.8891    0.3840    7.6582 O   0  0  0  0  0  0  0  0  0  0  0  0
   40.5528    3.8109    4.2926 C   0  0  0  0  0  0  0  0  0  0  0  0
   40.0313    5.1950    3.9361 C   0  0  0  0  0  0  0  0  0  0  0  0
   36.7873    7.0641   11.6616 C   0  0  1  0  0  0  0  0  0  0  0  0
   41.0864    6.2159    3.7765 N   0  0  0  0  0  0  0  0  0  0  0  0
   36.3603    8.1335   12.5015 O   0  0  0  0  0  0  0  0  0  0  0  0
   40.6368    4.8232    9.8470 C   0  0  2  0  0  0  0  0  0  0  0  0
   40.3200    4.7525   11.2679 N   0  0  0  0  0  0  0  0  0  0  0  0
   42.6847    6.9430    5.5419 C   0  0  0  0  0  0  0  0  0  0  0  0
   43.8953    7.0702    4.5690 C   0  0  0  0  0  0  0  0  0  0  0  0
   41.3181    7.2081    4.8578 C   0  0  0  0  0  0  0  0  0  0  0  0
   43.9007    5.9855    3.5421 N   0  0  0  0  0  0  0  0  0  0  0  0
   44.9206    3.5237    7.7637 O   0  0  0  0  0  0  0  0  0  0  0  0
   35.9489    5.7922   11.8994 C   0  0  2  0  0  0  0  0  0  0  0  0
   36.0021    5.3487   13.2530 O   0  0  0  0  0  0  0  0  0  0  0  0
   39.3359    4.9011    9.0731 C   0  0  2  0  0  0  0  0  0  0  0  0
   36.4097    4.6506   10.9753 C   0  0  2  0  0  0  0  0  0  0  0  0
   36.3876    5.0613    9.6038 O   0  0  0  0  0  0  0  0  0  0  0  0
   39.6385    5.0006    7.5230 C   0  0  2  0  0  0  0  0  0  0  0  0
   38.3679    5.0558    6.8014 O   0  0  0  0  0  0  0  0  0  0  0  0
   35.5521    3.4232   11.1306 C   0  0  0  0  0  0  0  0  0  0  0  0
   36.0536    2.3864   10.3766 O   0  0  0  0  0  0  0  0  0  0  0  0
   40.4551    3.7376    7.0855 C   0  0  1  0  0  0  0  0  0  0  0  0
   40.7556    3.7547    5.7204 O   0  0  0  0  0  0  0  0  0  0  0  0
  1  2  1  1  0  0  0
  1  5  1  0  0  0  0
  1 30  1  0  0  0  0
  3  4  1  6  0  0  0
  3  7  1  0  0  0  0
  3 35  1  0  0  0  0
  5  6  1  1  0  0  0
  5 16  1  0  0  0  0
  7 19  1  0  0  0  0
  8  4  1  0  0  0  0
  8 25  2  0  0  0  0
  9  8  1  1  0  0  0
  9 10  1  0  0  0  0
  9 13  1  0  0  0  0
 10 11  1  0  0  0  0
 11 12  1  0  0  0  0
 14 15  1  0  0  0  0
 14 36  1  0  0  0  0
 15 17  1  0  0  0  0
 16 18  1  1  0  0  0
 16 26  1  0  0  0  0
 17 23  1  0  0  0  0
 19 20  1  1  0  0  0
 19 28  1  0  0  0  0
 21 22  1  0  0  0  0
 21 23  1  0  0  0  0
 22 24  1  0  0  0  0
 26 27  1  1  0  0  0
 26 29  1  0  0  0  0
 28  2  1  1  0  0  0
 28 31  1  0  0  0  0
 29 30  1  0  0  0  0
 29 33  1  6  0  0  0
 31 32  1  6  0  0  0
 31 35  1  0  0  0  0
 33 34  1  0  0  0  0
 35 36  1  6  0  0  0
M  END
>  <CHROM.1>
171.99418911,-91.94133338,177.58967415,-171.59115111,177.50947056,83.65856518
67.19486269,-103.20580639,111.07369526,-67.71334722,61.25517845,-165.80569679
-175.01752493,-178.74529013,40.38458532,4.52820135,8.07598438,3.00814858
-0.65917177,2.35931722

>  <Name>
2f4u_lig

>  <RI>
0

>  <Rbt.Current_Directory>
/home/itssahil/PROJECTS/Mol_Feturizer/New_Systems/rnas/2f4u

>  <Rbt.Executable>
rbdock ($Id: //depot/dev/client3/rdock/2013.1/src/exe/rbdock.cxx#4 $)

>  <Rbt.Library>
libRbt.so (2013.1, Build901 2013/11/27)

>  <Rbt.Parameter_File>
/export/apps/rDock/src/rDock_2013.1_src/data/scripts/dock_solv.prm

>  <Rbt.Receptor>
prm/pocket_docking_4.prm

>  <SCORE>
-14.3349

>  <SCORE.INTER>
-4.42409

>  <SCORE.INTER.CONST>
1

>  <SCORE.INTER.POLAR>
-2.15898

>  <SCORE.INTER.ROT>
14

>  <SCORE.INTER.SOLV>
11.9409

>  <SCORE.INTER.VDW>
-12.6664

>  <SCORE.INTER.norm>
-0.122892

>  <SCORE.INTRA>
-9.93591

>  <SCORE.INTRA.DIHEDRAL>
-18.8091

>  <SCORE.INTRA.DIHEDRAL.0>
26.3805

>  <SCORE.INTRA.POLAR>
0

>  <SCORE.INTRA.POLAR.0>
0

>  <SCORE.INTRA.REPUL>
0

>  <SCORE.INTRA.REPUL.0>
0

>  <SCORE.INTRA.SOLV>
3.1912

>  <SCORE.INTRA.SOLV.lig_0>
-98.5587

>  <SCORE.INTRA.VDW>
-2.12698

>  <SCORE.INTRA.VDW.0>
-2.91167

>  <SCORE.INTRA.norm>
-0.275998

>  <SCORE.RESTR>
0.0250572

>  <SCORE.RESTR.CAVITY>
0.0250572

>  <SCORE.RESTR.norm>
0.000696032

>  <SCORE.SYSTEM>
0

>  <SCORE.SYSTEM.CONST>
0

>  <SCORE.SYSTEM.DIHEDRAL>
0

>  <SCORE.SYSTEM.SOLV>
0

>  <SCORE.SYSTEM.norm>
0

>  <SCORE.heavy>
36

>  <SCORE.norm>
-0.398193

>  <RMSD>
7.025

$$$$
2f4u_lig
 OpenBabel11021811433D
libRbt.so/2013.1/901 2013/11/27
 36 37  0  0  0  0  0  0  0  0999 V2000
   38.5243   12.8850    0.8906 C   0  0  2  0  0  0  0  0  0  0  0  0
   37.8659   12.5293    2.1626 O   0  0  0  0  0  0  0  0  0  0  0  0
   35.7695    9.0222    3.6458 C   0  0  2  0  0  0  0  0  0  0  0  0
   35.4592    7.5919    3.9155 N   0  0  0  0  0  0  0  0  0  0  0  0
   40.0478   12.6082    1.0818 C   0  0  2  0  0  0  0  0  0  0  0  0
   40.3305   11.2045    1.4338 N   0  0  0  0  0  0  0  0  0  0  0  0
   35.8520    9.3190    2.1069 C   0  0  0  0  0  0  0  0  0  0  0  0
   36.4524    6.5139    2.8962 C   0  0  0  0  0  0  0  0  0  0  0  0
   35.6101    5.4224    3.4783 C   0  0  1  0  0  0  0  0  0  0  0  0
   35.3685    4.3948    2.3669 C   0  0  0  0  0  0  0  0  0  0  0  0
   36.6172    3.6520    1.8568 C   0  0  0  0  0  0  0  0  0  0  0  0
   36.9995    2.6466    2.8503 N   0  0  0  0  0  0  0  0  0  0  0  0
   36.2999    4.7751    4.5125 O   0  0  0  0  0  0  0  0  0  0  0  0
   36.5326    9.1244    7.0306 C   0  0  0  0  0  0  0  0  0  0  0  0
   37.4389    8.2454    7.8795 C   0  0  0  0  0  0  0  0  0  0  0  0
   40.5983   13.5619    2.1937 C   0  0  1  0  0  0  0  0  0  0  0  0
   37.4590    8.6035    9.3121 N   0  0  0  0  0  0  0  0  0  0  0  0
   41.9888   13.3405    2.4150 O   0  0  0  0  0  0  0  0  0  0  0  0
   36.2284   10.7904    1.8390 C   0  0  2  0  0  0  0  0  0  0  0  0
   36.3494   11.0544    0.4108 N   0  0  0  0  0  0  0  0  0  0  0  0
   35.4228    7.5950   10.3305 C   0  0  0  0  0  0  0  0  0  0  0  0
   34.8163    6.7556    9.1661 C   0  0  0  0  0  0  0  0  0  0  0  0
   36.9735    7.6262   10.3205 C   0  0  0  0  0  0  0  0  0  0  0  0
   33.3229    6.7553    9.1991 N   0  0  0  0  0  0  0  0  0  0  0  0
   37.2357    6.6377    2.1664 O   0  0  0  0  0  0  0  0  0  0  0  0
   40.3215   15.0156    1.7610 C   0  0  2  0  0  0  0  0  0  0  0  0
   40.7808   15.9666    2.7182 O   0  0  0  0  0  0  0  0  0  0  0  0
   37.5514   11.1257    2.4982 C   0  0  2  0  0  0  0  0  0  0  0  0
   38.8190   15.2366    1.5099 C   0  0  2  0  0  0  0  0  0  0  0  0
   38.3126   14.2879    0.5646 O   0  0  0  0  0  0  0  0  0  0  0  0
   37.4540   10.8716    4.0572 C   0  0  2  0  0  0  0  0  0  0  0  0
   38.7472   11.1851    4.6634 O   0  0  0  0  0  0  0  0  0  0  0  0
   38.5336   16.6264    1.0067 C   0  0  0  0  0  0  0  0  0  0  0  0
   37.1770   16.8243    0.8812 O   0  0  0  0  0  0  0  0  0  0  0  0
   37.0916    9.3677    4.3023 C   0  0  1  0  0  0  0  0  0  0  0  0
   36.9931    9.0674    5.6641 O   0  0  0  0  0  0  0  0  0  0  0  0
  1  2  1  1  0  0  0
  1  5  1  0  0  0  0
  1 30  1  0  0  0  0
  3  4  1  6  0  0  0
  3  7  1  0  0  0  0
  3 35  1  0  0  0  0
  5  6  1  1  0  0  0
  5 16  1  0  0  0  0
  7 19  1  0  0  0  0
  8  4  1  0  0  0  0
  8 25  2  0  0  0  0
  9  8  1  6  0  0  0
  9 10  1  0  0  0  0
  9 13  1  0  0  0  0
 10 11  1  0  0  0  0
 11 12  1  0  0  0  0
 14 15  1  0  0  0  0
 14 36  1  0  0  0  0
 15 17  1  0  0  0  0
 16 18  1  6  0  0  0
 16 26  1  0  0  0  0
 17 23  1  0  0  0  0
 19 20  1  6  0  0  0
 19 28  1  0  0  0  0
 21 22  1  0  0  0  0
 21 23  1  0  0  0  0
 22 24  1  0  0  0  0
 26 27  1  1  0  0  0
 26 29  1  0  0  0  0
 28  2  1  1  0  0  0
 28 31  1  0  0  0  0
 29 30  1  0  0  0  0
 29 33  1  6  0  0  0
 31 32  1  1  0  0  0
 31 35  1  0  0  0  0
 33 34  1  0  0  0  0
 35 36  1  1  0  0  0
M  END
>  <CHROM.1>
-80.30644647,45.37475760,142.95754549,65.08468456,75.65136776,156.60985586
-172.62128131,117.13414069,-77.07958518,-179.55594633,79.19851682,-83.90042105
-175.78423477,-63.10042810,37.45094567,9.99066349,3.75232044,0.14535292,-1.23188080
-1.93285499

>  <Name>
2f4u_lig

>  <RI>
0

>  <Rbt.Current_Directory>
/home/itssahil/PROJECTS/Mol_Feturizer/New_Systems/rnas/2f4u

>  <Rbt.Executable>
rbdock ($Id: //depot/dev/client3/rdock/2013.1/src/exe/rbdock.cxx#4 $)

>  <Rbt.Library>
libRbt.so (2013.1, Build901 2013/11/27)

>  <Rbt.Parameter_File>
/export/apps/rDock/src/rDock_2013.1_src/data/scripts/dock_solv.prm

>  <Rbt.Receptor>
prm/pocket_docking_7.prm

>  <SCORE>
-20.235

>  <SCORE.INTER>
-15.3575

>  <SCORE.INTER.CONST>
1

>  <SCORE.INTER.POLAR>
-1.63222

>  <SCORE.INTER.ROT>
14

>  <SCORE.INTER.SOLV>
17.5345

>  <SCORE.INTER.VDW>
-23.5758

>  <SCORE.INTER.norm>
-0.426598

>  <SCORE.INTRA>
-4.87751

>  <SCORE.INTRA.DIHEDRAL>
-14.1717

>  <SCORE.INTRA.DIHEDRAL.0>
26.3805

>  <SCORE.INTRA.POLAR>
0

>  <SCORE.INTRA.POLAR.0>
0

>  <SCORE.INTRA.REPUL>
0

>  <SCORE.INTRA.REPUL.0>
0

>  <SCORE.INTRA.SOLV>
5.00298

>  <SCORE.INTRA.SOLV.lig_0>
-98.5587

>  <SCORE.INTRA.VDW>
-0.293152

>  <SCORE.INTRA.VDW.0>
-2.91167

>  <SCORE.INTRA.norm>
-0.135486

>  <SCORE.RESTR>
0

>  <SCORE.RESTR.CAVITY>
0

>  <SCORE.RESTR.norm>
0

>  <SCORE.SYSTEM>
0

>  <SCORE.SYSTEM.CONST>
0

>  <SCORE.SYSTEM.DIHEDRAL>
0

>  <SCORE.SYSTEM.SOLV>
0

>  <SCORE.SYSTEM.norm>
0

>  <SCORE.heavy>
36

>  <SCORE.norm>
-0.562085

>  <RMSD>
7.065

$$$$
2f4u_lig
 OpenBabel11021811433D
libRbt.so/2013.1/901 2013/11/27
 36 37  0  0  0  0  0  0  0  0999 V2000
   38.9537   13.3031    2.2751 C   0  0  2  0  0  0  0  0  0  0  0  0
   37.7597   12.5537    1.8385 O   0  0  0  0  0  0  0  0  0  0  0  0
   35.7988    9.0437    3.4909 C   0  0  2  0  0  0  0  0  0  0  0  0
   35.5690    7.6243    3.8747 N   0  0  0  0  0  0  0  0  0  0  0  0
   39.0154   14.5952    1.4029 C   0  0  2  0  0  0  0  0  0  0  0  0
   37.8064   15.4288    1.5359 N   0  0  0  0  0  0  0  0  0  0  0  0
   35.9908    9.2032    1.9414 C   0  0  0  0  0  0  0  0  0  0  0  0
   37.0865    6.6858    3.8109 C   0  0  0  0  0  0  0  0  0  0  0  0
   36.2043    5.5101    4.0923 C   0  0  1  0  0  0  0  0  0  0  0  0
   36.4407    4.4884    2.9744 C   0  0  0  0  0  0  0  0  0  0  0  0
   36.1909    4.9923    1.5409 C   0  0  0  0  0  0  0  0  0  0  0  0
   36.4757    3.9010    0.6072 N   0  0  0  0  0  0  0  0  0  0  0  0
   36.5700    4.9068    5.3033 O   0  0  0  0  0  0  0  0  0  0  0  0
   36.5652    8.7036    6.8341 C   0  0  0  0  0  0  0  0  0  0  0  0
   36.6877    9.7213    7.9584 C   0  0  0  0  0  0  0  0  0  0  0  0
   39.2229   14.1851   -0.0929 C   0  0  1  0  0  0  0  0  0  0  0  0
   36.1248    9.2693    9.2468 N   0  0  0  0  0  0  0  0  0  0  0  0
   39.2753   15.3333   -0.9356 O   0  0  0  0  0  0  0  0  0  0  0  0
   36.2832   10.6688    1.5606 C   0  0  2  0  0  0  0  0  0  0  0  0
   36.5063   10.8089    0.1271 N   0  0  0  0  0  0  0  0  0  0  0  0
   36.5583    8.8847   11.6684 C   0  0  0  0  0  0  0  0  0  0  0  0
   37.4502    8.2030   12.7491 C   0  0  0  0  0  0  0  0  0  0  0  0
   36.9930    8.5532   10.2169 C   0  0  0  0  0  0  0  0  0  0  0  0
   37.4245    6.7139   12.6340 N   0  0  0  0  0  0  0  0  0  0  0  0
   38.1220    6.8954    3.5987 O   0  0  0  0  0  0  0  0  0  0  0  0
   40.5196   13.3564   -0.1891 C   0  0  2  0  0  0  0  0  0  0  0  0
   40.7937   12.9247   -1.5196 O   0  0  0  0  0  0  0  0  0  0  0  0
   37.5181   11.1664    2.2848 C   0  0  2  0  0  0  0  0  0  0  0  0
   40.4561   12.1288    0.7374 C   0  0  2  0  0  0  0  0  0  0  0  0
   40.1647   12.5180    2.0842 O   0  0  0  0  0  0  0  0  0  0  0  0
   37.3067   11.0500    3.8488 C   0  0  2  0  0  0  0  0  0  0  0  0
   38.5180   11.5190    4.5204 O   0  0  0  0  0  0  0  0  0  0  0  0
   41.7436   11.3489    0.7230 C   0  0  0  0  0  0  0  0  0  0  0  0
   41.6280   10.2137    1.4931 O   0  0  0  0  0  0  0  0  0  0  0  0
   37.0323    9.5512    4.2114 C   0  0  1  0  0  0  0  0  0  0  0  0
   36.8399    9.3707    5.5842 O   0  0  0  0  0  0  0  0  0  0  0  0
  1  2  1  6  0  0  0
  1  5  1  0  0  0  0
  1 30  1  0  0  0  0
  3  4  1  6  0  0  0
  3  7  1  0  0  0  0
  3 35  1  0  0  0  0
  5  6  1  6  0  0  0
  5 16  1  0  0  0  0
  7 19  1  0  0  0  0
  8  4  1  0  0  0  0
  8 25  2  0  0  0  0
  9  8  1  6  0  0  0
  9 10  1  0  0  0  0
  9 13  1  0  0  0  0
 10 11  1  0  0  0  0
 11 12  1  0  0  0  0
 14 15  1  0  0  0  0
 14 36  1  0  0  0  0
 15 17  1  0  0  0  0
 16 18  1  6  0  0  0
 16 26  1  0  0  0  0
 17 23  1  0  0  0  0
 19 20  1  6  0  0  0
 19 28  1  0  0  0  0
 21 22  1  0  0  0  0
 21 23  1  0  0  0  0
 22 24  1  0  0  0  0
 26 27  1  6  0  0  0
 26 29  1  0  0  0  0
 28  2  1  1  0  0  0
 28 31  1  0  0  0  0
 29 30  1  0  0  0  0
 29 33  1  1  0  0  0
 31 32  1  1  0  0  0
 31 35  1  0  0  0  0
 33 34  1  0  0  0  0
 35 36  1  1  0  0  0
M  END
>  <CHROM.1>
169.22822314,75.32436938,124.27245304,-57.23483660,179.41677659,166.09827005
178.08066998,90.34249325,147.41134652,-59.88319831,-178.28233874,-175.20642364
-176.20677356,55.33864821,37.80165836,9.87999510,3.71215658,-0.65290352,1.23180590
1.28615346

>  <Name>
2f4u_lig

>  <RI>
0

>  <Rbt.Current_Directory>
/home/itssahil/PROJECTS/Mol_Feturizer/New_Systems/rnas/2f4u

>  <Rbt.Executable>
rbdock ($Id: //depot/dev/client3/rdock/2013.1/src/exe/rbdock.cxx#4 $)

>  <Rbt.Library>
libRbt.so (2013.1, Build901 2013/11/27)

>  <Rbt.Parameter_File>
/export/apps/rDock/src/rDock_2013.1_src/data/scripts/dock_solv.prm

>  <Rbt.Receptor>
prm/pocket_docking_6.prm

>  <SCORE>
-31.7351

>  <SCORE.INTER>
-20.2095

>  <SCORE.INTER.CONST>
1

>  <SCORE.INTER.POLAR>
-1.64649

>  <SCORE.INTER.ROT>
14

>  <SCORE.INTER.SOLV>
18.8866

>  <SCORE.INTER.VDW>
-27.2135

>  <SCORE.INTER.norm>
-0.561375

>  <SCORE.INTRA>
-11.5256

>  <SCORE.INTRA.DIHEDRAL>
-20.8739

>  <SCORE.INTRA.DIHEDRAL.0>
26.3805

>  <SCORE.INTRA.POLAR>
0

>  <SCORE.INTRA.POLAR.0>
0

>  <SCORE.INTRA.REPUL>
0

>  <SCORE.INTRA.REPUL.0>
0

>  <SCORE.INTRA.SOLV>
0.363522

>  <SCORE.INTRA.SOLV.lig_0>
-98.5587

>  <SCORE.INTRA.VDW>
-1.27042

>  <SCORE.INTRA.VDW.0>
-2.91167

>  <SCORE.INTRA.norm>
-0.320155

>  <SCORE.RESTR>
0

>  <SCORE.RESTR.CAVITY>
0

>  <SCORE.RESTR.norm>
0

>  <SCORE.SYSTEM>
0

>  <SCORE.SYSTEM.CONST>
0

>  <SCORE.SYSTEM.DIHEDRAL>
0

>  <SCORE.SYSTEM.SOLV>
0

>  <SCORE.SYSTEM.norm>
0

>  <SCORE.heavy>
36

>  <SCORE.norm>
-0.881531

>  <RMSD>
7.121

$$$$
2f4u_lig
 OpenBabel11021811433D
libRbt.so/2013.1/901 2013/11/27
 36 37  0  0  0  0  0  0  0  0999 V2000
   39.6519    3.1526    8.1560 C   0  0  2  0  0  0  0  0  0  0  0  0
   40.5791    3.6456    7.1192 O   0  0  0  0  0  0  0  0  0  0  0  0
   44.8982    3.9577    6.7403 C   0  0  2  0  0  0  0  0  0  0  0  0
   46.3049    4.3214    7.0626 N   0  0  0  0  0  0  0  0  0  0  0  0
   38.2370    3.6970    7.7873 C   0  0  2  0  0  0  0  0  0  0  0  0
   37.7923    3.2638    6.4498 N   0  0  0  0  0  0  0  0  0  0  0  0
   43.9853    5.2274    6.6080 C   0  0  0  0  0  0  0  0  0  0  0  0
   47.1956    4.8127    5.5954 C   0  0  0  0  0  0  0  0  0  0  0  0
   48.3849    4.8516    6.5030 C   0  0  1  0  0  0  0  0  0  0  0  0
   49.6338    4.8156    5.6152 C   0  0  0  0  0  0  0  0  0  0  0  0
   50.9750    4.6371    6.3505 C   0  0  0  0  0  0  0  0  0  0  0  0
   52.0556    4.6698    5.3631 N   0  0  0  0  0  0  0  0  0  0  0  0
   48.4090    6.0548    7.2213 O   0  0  0  0  0  0  0  0  0  0  0  0
   45.7262    0.6841    8.4030 C   0  0  0  0  0  0  0  0  0  0  0  0
   44.7943   -0.4156    7.9163 C   0  0  0  0  0  0  0  0  0  0  0  0
   38.2615    5.2597    7.8648 C   0  0  1  0  0  0  0  0  0  0  0  0
   44.7423   -0.5576    6.4472 N   0  0  0  0  0  0  0  0  0  0  0  0
   36.9909    5.8087    7.5249 O   0  0  0  0  0  0  0  0  0  0  0  0
   42.5194    4.8375    6.3289 C   0  0  2  0  0  0  0  0  0  0  0  0
   41.6639    6.0150    6.2512 N   0  0  0  0  0  0  0  0  0  0  0  0
   45.0401   -1.8139    4.3182 C   0  0  0  0  0  0  0  0  0  0  0  0
   45.4447   -0.6211    3.4008 C   0  0  0  0  0  0  0  0  0  0  0  0
   45.5099   -1.6447    5.7866 C   0  0  0  0  0  0  0  0  0  0  0  0
   44.7632    0.6462    3.8020 N   0  0  0  0  0  0  0  0  0  0  0  0
   46.9627    4.9424    4.5512 O   0  0  0  0  0  0  0  0  0  0  0  0
   38.6863    5.6640    9.2907 C   0  0  2  0  0  0  0  0  0  0  0  0
   38.7478    7.0778    9.4614 O   0  0  0  0  0  0  0  0  0  0  0  0
   41.9930    3.9392    7.4303 C   0  0  2  0  0  0  0  0  0  0  0  0
   40.0519    5.0517    9.6507 C   0  0  2  0  0  0  0  0  0  0  0  0
   40.0383    3.6307    9.4757 O   0  0  0  0  0  0  0  0  0  0  0  0
   42.8851    2.6361    7.5326 C   0  0  2  0  0  0  0  0  0  0  0  0
   42.3663    1.7982    8.6129 O   0  0  0  0  0  0  0  0  0  0  0  0
   40.4500    5.3645   11.0684 C   0  0  0  0  0  0  0  0  0  0  0  0
   39.5190    4.8661   11.9515 O   0  0  0  0  0  0  0  0  0  0  0  0
   44.3626    3.0579    7.8365 C   0  0  1  0  0  0  0  0  0  0  0  0
   45.2113    1.9525    7.9460 O   0  0  0  0  0  0  0  0  0  0  0  0
  1  2  1  6  0  0  0
  1  5  1  0  0  0  0
  1 30  1  0  0  0  0
  3  4  1  1  0  0  0
  3  7  1  0  0  0  0
  3 35  1  0  0  0  0
  5  6  1  6  0  0  0
  5 16  1  0  0  0  0
  7 19  1  0  0  0  0
  8  4  1  0  0  0  0
  8 25  2  0  0  0  0
  9  8  1  6  0  0  0
  9 10  1  0  0  0  0
  9 13  1  0  0  0  0
 10 11  1  0  0  0  0
 11 12  1  0  0  0  0
 14 15  1  0  0  0  0
 14 36  1  0  0  0  0
 15 17  1  0  0  0  0
 16 18  1  1  0  0  0
 16 26  1  0  0  0  0
 17 23  1  0  0  0  0
 19 20  1  1  0  0  0
 19 28  1  0  0  0  0
 21 22  1  0  0  0  0
 21 23  1  0  0  0  0
 22 24  1  0  0  0  0
 26 27  1  6  0  0  0
 26 29  1  0  0  0  0
 28  2  1  6  0  0  0
 28 31  1  0  0  0  0
 29 30  1  0  0  0  0
 29 33  1  1  0  0  0
 31 32  1  1  0  0  0
 31 35  1  0  0  0  0
 33 34  1  0  0  0  0
 35 36  1  6  0  0  0
M  END
>  <CHROM.1>
148.69108927,-81.01041252,161.92827843,-171.27832309,-178.12549743,64.54051858
68.74617357,101.07209328,166.25480125,-65.31441050,69.62670649,-161.22953330
59.88718409,-176.53636801,43.44065680,3.49226855,7.23618064,2.86164335,0.24564744
0.31677887

>  <Name>
2f4u_lig

>  <RI>
0

>  <Rbt.Current_Directory>
/home/itssahil/PROJECTS/Mol_Feturizer/New_Systems/rnas/2f4u

>  <Rbt.Executable>
rbdock ($Id: //depot/dev/client3/rdock/2013.1/src/exe/rbdock.cxx#4 $)

>  <Rbt.Library>
libRbt.so (2013.1, Build901 2013/11/27)

>  <Rbt.Parameter_File>
/export/apps/rDock/src/rDock_2013.1_src/data/scripts/dock_solv.prm

>  <Rbt.Receptor>
prm/pocket_docking_7.prm

>  <SCORE>
-14.2991

>  <SCORE.INTER>
-5.70009

>  <SCORE.INTER.CONST>
1

>  <SCORE.INTER.POLAR>
-1.91118

>  <SCORE.INTER.ROT>
14

>  <SCORE.INTER.SOLV>
8.519

>  <SCORE.INTER.VDW>
-13.2025

>  <SCORE.INTER.norm>
-0.158336

>  <SCORE.INTRA>
-8.59905

>  <SCORE.INTRA.DIHEDRAL>
-17.2106

>  <SCORE.INTRA.DIHEDRAL.0>
26.3805

>  <SCORE.INTRA.POLAR>
0

>  <SCORE.INTRA.POLAR.0>
0

>  <SCORE.INTRA.REPUL>
0

>  <SCORE.INTRA.REPUL.0>
0

>  <SCORE.INTRA.SOLV>
3.67077

>  <SCORE.INTRA.SOLV.lig_0>
-98.5587

>  <SCORE.INTRA.VDW>
-1.82911

>  <SCORE.INTRA.VDW.0>
-2.91167

>  <SCORE.INTRA.norm>
-0.238862

>  <SCORE.RESTR>
0

>  <SCORE.RESTR.CAVITY>
0

>  <SCORE.RESTR.norm>
0

>  <SCORE.SYSTEM>
0

>  <SCORE.SYSTEM.CONST>
0

>  <SCORE.SYSTEM.DIHEDRAL>
0

>  <SCORE.SYSTEM.SOLV>
0

>  <SCORE.SYSTEM.norm>
0

>  <SCORE.heavy>
36

>  <SCORE.norm>
-0.397198

>  <RMSD>
7.185

$$$$
2f4u_lig
 OpenBabel11021811433D
libRbt.so/2013.1/901 2013/11/27
 36 37  0  0  0  0  0  0  0  0999 V2000
   39.0708   13.2664    2.0330 C   0  0  2  0  0  0  0  0  0  0  0  0
   37.9187   12.4303    1.6436 O   0  0  0  0  0  0  0  0  0  0  0  0
   35.9721    9.4045    4.0830 C   0  0  2  0  0  0  0  0  0  0  0  0
   35.6879    8.0813    4.7019 N   0  0  0  0  0  0  0  0  0  0  0  0
   39.0142   14.5485    1.1458 C   0  0  2  0  0  0  0  0  0  0  0  0
   37.7547   15.2977    1.3096 N   0  0  0  0  0  0  0  0  0  0  0  0
   35.9056    9.3398    2.5163 C   0  0  0  0  0  0  0  0  0  0  0  0
   36.7608    6.8169    4.0404 C   0  0  0  0  0  0  0  0  0  0  0  0
   35.9204    5.8803    4.8504 C   0  0  1  0  0  0  0  0  0  0  0  0
   34.8723    5.2803    3.9064 C   0  0  0  0  0  0  0  0  0  0  0  0
   33.7605    4.4526    4.5772 C   0  0  0  0  0  0  0  0  0  0  0  0
   32.8358    3.9884    3.5412 N   0  0  0  0  0  0  0  0  0  0  0  0
   36.7027    4.8261    5.3413 O   0  0  0  0  0  0  0  0  0  0  0  0
   37.2579    9.4214    7.2747 C   0  0  0  0  0  0  0  0  0  0  0  0
   38.0804    8.1511    7.4312 C   0  0  0  0  0  0  0  0  0  0  0  0
   39.2019   14.1349   -0.3516 C   0  0  1  0  0  0  0  0  0  0  0  0
   38.1692    7.6558    8.8197 N   0  0  0  0  0  0  0  0  0  0  0  0
   39.1470   15.2732   -1.2076 O   0  0  0  0  0  0  0  0  0  0  0  0
   36.2558   10.7020    1.8835 C   0  0  2  0  0  0  0  0  0  0  0  0
   36.2382   10.6297    0.4279 N   0  0  0  0  0  0  0  0  0  0  0  0
   37.5807    5.2365    8.8433 C   0  0  0  0  0  0  0  0  0  0  0  0
   38.0169    3.7866    9.2119 C   0  0  0  0  0  0  0  0  0  0  0  0
   38.6938    6.2903    9.0804 C   0  0  0  0  0  0  0  0  0  0  0  0
   36.9154    2.8014    8.9942 N   0  0  0  0  0  0  0  0  0  0  0  0
   37.5765    6.7790    3.3371 O   0  0  0  0  0  0  0  0  0  0  0  0
   40.5496   13.3972   -0.4817 C   0  0  2  0  0  0  0  0  0  0  0  0
   40.8105   12.9688   -1.8158 O   0  0  0  0  0  0  0  0  0  0  0  0
   37.6367   11.1482    2.3207 C   0  0  2  0  0  0  0  0  0  0  0  0
   40.6017   12.1800    0.4592 C   0  0  2  0  0  0  0  0  0  0  0  0
   40.3270   12.5650    1.8107 O   0  0  0  0  0  0  0  0  0  0  0  0
   37.6905   11.2594    3.8984 C   0  0  2  0  0  0  0  0  0  0  0  0
   39.0365   11.6731    4.2921 O   0  0  0  0  0  0  0  0  0  0  0  0
   41.9394   11.4913    0.4107 C   0  0  0  0  0  0  0  0  0  0  0  0
   42.9308   12.3317    0.8647 O   0  0  0  0  0  0  0  0  0  0  0  0
   37.3519    9.8601    4.5153 C   0  0  1  0  0  0  0  0  0  0  0  0
   37.3855    9.8814    5.9127 O   0  0  0  0  0  0  0  0  0  0  0  0
  1  2  1  6  0  0  0
  1  5  1  0  0  0  0
  1 30  1  0  0  0  0
  3  4  1  1  0  0  0
  3  7  1  0  0  0  0
  3 35  1  0  0  0  0
  5  6  1  6  0  0  0
  5 16  1  0  0  0  0
  7 19  1  0  0  0  0
  8  4  1  0  0  0  0
  8 25  2  0  0  0  0
  9  8  1  6  0  0  0
  9 10  1  0  0  0  0
  9 13  1  0  0  0  0
 10 11  1  0  0  0  0
 11 12  1  0  0  0  0
 14 15  1  0  0  0  0
 14 36  1  0  0  0  0
 15 17  1  0  0  0  0
 16 18  1  6  0  0  0
 16 26  1  0  0  0  0
 17 23  1  0  0  0  0
 19 20  1  6  0  0  0
 19 28  1  0  0  0  0
 21 22  1  0  0  0  0
 21 23  1  0  0  0  0
 22 24  1  0  0  0  0
 26 27  1  6  0  0  0
 26 29  1  0  0  0  0
 28  2  1  6  0  0  0
 28 31  1  0  0  0  0
 29 30  1  0  0  0  0
 29 33  1  1  0  0  0
 31 32  1  6  0  0  0
 31 35  1  0  0  0  0
 33 34  1  0  0  0  0
 35 36  1  1  0  0  0
M  END
>  <CHROM.1>
-177.94179682,54.15937290,97.40195722,-170.82553648,178.57259622,173.19358825
54.74917224,167.36829160,-80.89245437,179.01571584,-175.13840094,168.62622121
63.56535463,53.42542535,37.86388018,9.55396075,3.58144441,-1.17761572,0.67599675
2.20745799

>  <Name>
2f4u_lig

>  <RI>
0

>  <Rbt.Current_Directory>
/home/itssahil/PROJECTS/Mol_Feturizer/New_Systems/rnas/2f4u

>  <Rbt.Executable>
rbdock ($Id: //depot/dev/client3/rdock/2013.1/src/exe/rbdock.cxx#4 $)

>  <Rbt.Library>
libRbt.so (2013.1, Build901 2013/11/27)

>  <Rbt.Parameter_File>
/export/apps/rDock/src/rDock_2013.1_src/data/scripts/dock_solv.prm

>  <Rbt.Receptor>
prm/pocket_docking_8.prm

>  <SCORE>
-30.6324

>  <SCORE.INTER>
-17.7274

>  <SCORE.INTER.CONST>
1

>  <SCORE.INTER.POLAR>
-1.94538

>  <SCORE.INTER.ROT>
14

>  <SCORE.INTER.SOLV>
18.4649

>  <SCORE.INTER.VDW>
-24.422

>  <SCORE.INTER.norm>
-0.492427

>  <SCORE.INTRA>
-12.905

>  <SCORE.INTRA.DIHEDRAL>
-22.2302

>  <SCORE.INTRA.DIHEDRAL.0>
26.3805

>  <SCORE.INTRA.POLAR>
0

>  <SCORE.INTRA.POLAR.0>
0

>  <SCORE.INTRA.REPUL>
0

>  <SCORE.INTRA.REPUL.0>
0

>  <SCORE.INTRA.SOLV>
-0.579913

>  <SCORE.INTRA.SOLV.lig_0>
-98.5587

>  <SCORE.INTRA.VDW>
-1.49994

>  <SCORE.INTRA.VDW.0>
-2.91167

>  <SCORE.INTRA.norm>
-0.358472

>  <SCORE.RESTR>
0

>  <SCORE.RESTR.CAVITY>
0

>  <SCORE.RESTR.norm>
0

>  <SCORE.SYSTEM>
0

>  <SCORE.SYSTEM.CONST>
0

>  <SCORE.SYSTEM.DIHEDRAL>
0

>  <SCORE.SYSTEM.SOLV>
0

>  <SCORE.SYSTEM.norm>
0

>  <SCORE.heavy>
36

>  <SCORE.norm>
-0.850899

>  <RMSD>
7.227

$$$$
2f4u_lig
 OpenBabel11021811433D
libRbt.so/2013.1/901 2013/11/27
 36 37  0  0  0  0  0  0  0  0999 V2000
   38.9372   13.1886    2.1613 C   0  0  2  0  0  0  0  0  0  0  0  0
   37.7598   12.4250    1.7047 O   0  0  0  0  0  0  0  0  0  0  0  0
   35.5859    9.1626    3.5826 C   0  0  2  0  0  0  0  0  0  0  0  0
   35.2809    7.7952    4.0846 N   0  0  0  0  0  0  0  0  0  0  0  0
   38.9837   14.4936    1.3075 C   0  0  2  0  0  0  0  0  0  0  0  0
   37.7594   15.3044    1.4419 N   0  0  0  0  0  0  0  0  0  0  0  0
   35.8491    9.1684    2.0353 C   0  0  0  0  0  0  0  0  0  0  0  0
   36.4376    6.5987    3.4384 C   0  0  0  0  0  0  0  0  0  0  0  0
   35.5526    5.5938    4.1068 C   0  0  1  0  0  0  0  0  0  0  0  0
   35.7061    4.2747    3.3414 C   0  0  0  0  0  0  0  0  0  0  0  0
   35.1442    4.2614    1.9077 C   0  0  0  0  0  0  0  0  0  0  0  0
   35.3806    2.9382    1.3270 N   0  0  0  0  0  0  0  0  0  0  0  0
   35.9769    5.3723    5.4240 O   0  0  0  0  0  0  0  0  0  0  0  0
   36.2625    9.0990    6.9863 C   0  0  0  0  0  0  0  0  0  0  0  0
   37.4625    8.2816    7.4407 C   0  0  0  0  0  0  0  0  0  0  0  0
   39.2101   14.1078   -0.1921 C   0  0  1  0  0  0  0  0  0  0  0  0
   37.2863    7.6274    8.7530 N   0  0  0  0  0  0  0  0  0  0  0  0
   39.2494   15.2684   -1.0185 O   0  0  0  0  0  0  0  0  0  0  0  0
   36.2185   10.5796    1.5347 C   0  0  2  0  0  0  0  0  0  0  0  0
   36.5071   10.5759    0.1060 N   0  0  0  0  0  0  0  0  0  0  0  0
   37.4605    7.6958   11.2359 C   0  0  0  0  0  0  0  0  0  0  0  0
   37.3204    8.5441   12.5355 C   0  0  0  0  0  0  0  0  0  0  0  0
   37.0215    8.4563    9.9573 C   0  0  0  0  0  0  0  0  0  0  0  0
   35.9055    8.9538   12.7833 N   0  0  0  0  0  0  0  0  0  0  0  0
   37.3121    6.6237    2.8091 O   0  0  0  0  0  0  0  0  0  0  0  0
   40.5215   13.3029   -0.2890 C   0  0  2  0  0  0  0  0  0  0  0  0
   40.8137   12.8945   -1.6230 O   0  0  0  0  0  0  0  0  0  0  0  0
   37.4418   11.0960    2.2655 C   0  0  2  0  0  0  0  0  0  0  0  0
   40.4718   12.0617    0.6200 C   0  0  2  0  0  0  0  0  0  0  0  0
   40.1631   12.4271    1.9695 O   0  0  0  0  0  0  0  0  0  0  0  0
   37.1603   11.1351    3.8223 C   0  0  2  0  0  0  0  0  0  0  0  0
   38.3611   11.6189    4.5022 O   0  0  0  0  0  0  0  0  0  0  0  0
   41.7727   11.3041    0.6054 C   0  0  0  0  0  0  0  0  0  0  0  0
   41.6802   10.1727    1.3842 O   0  0  0  0  0  0  0  0  0  0  0  0
   36.8084    9.6885    4.3086 C   0  0  1  0  0  0  0  0  0  0  0  0
   36.5513    9.6452    5.6821 O   0  0  0  0  0  0  0  0  0  0  0  0
  1  2  1  6  0  0  0
  1  5  1  0  0  0  0
  1 30  1  0  0  0  0
  3  4  1  1  0  0  0
  3  7  1  0  0  0  0
  3 35  1  0  0  0  0
  5  6  1  6  0  0  0
  5 16  1  0  0  0  0
  7 19  1  0  0  0  0
  8  4  1  0  0  0  0
  8 25  2  0  0  0  0
  9  8  1  6  0  0  0
  9 10  1  0  0  0  0
  9 13  1  0  0  0  0
 10 11  1  0  0  0  0
 11 12  1  0  0  0  0
 14 15  1  0  0  0  0
 14 36  1  0  0  0  0
 15 17  1  0  0  0  0
 16 18  1  6  0  0  0
 16 26  1  0  0  0  0
 17 23  1  0  0  0  0
 19 20  1  6  0  0  0
 19 28  1  0  0  0  0
 21 22  1  0  0  0  0
 21 23  1  0  0  0  0
 22 24  1  0  0  0  0
 26 27  1  6  0  0  0
 26 29  1  0  0  0  0
 28  2  1  6  0  0  0
 28 31  1  0  0  0  0
 29 30  1  0  0  0  0
 29 33  1  1  0  0  0
 31 32  1  1  0  0  0
 31 35  1  0  0  0  0
 33 34  1  0  0  0  0
 35 36  1  1  0  0  0
M  END
>  <CHROM.1>
177.41207281,46.46679464,153.41434318,-67.93048944,179.68626772,-178.28760099
66.95168910,-59.66750637,-156.02331459,61.00561356,175.41332002,-177.53791968
-177.60795081,62.98830528,37.62722930,9.78269945,3.65520486,-0.72640434,1.15307399
1.42558017

>  <Name>
2f4u_lig

>  <RI>
0

>  <Rbt.Current_Directory>
/home/itssahil/PROJECTS/Mol_Feturizer/New_Systems/rnas/2f4u

>  <Rbt.Executable>
rbdock ($Id: //depot/dev/client3/rdock/2013.1/src/exe/rbdock.cxx#4 $)

>  <Rbt.Library>
libRbt.so (2013.1, Build901 2013/11/27)

>  <Rbt.Parameter_File>
/export/apps/rDock/src/rDock_2013.1_src/data/scripts/dock_solv.prm

>  <Rbt.Receptor>
prm/pocket_docking_7.prm

>  <SCORE>
-31.9531

>  <SCORE.INTER>
-19.432

>  <SCORE.INTER.CONST>
1

>  <SCORE.INTER.POLAR>
-1.70859

>  <SCORE.INTER.ROT>
14

>  <SCORE.INTER.SOLV>
20.2819

>  <SCORE.INTER.VDW>
-26.9533

>  <SCORE.INTER.norm>
-0.539777

>  <SCORE.INTRA>
-12.5211

>  <SCORE.INTRA.DIHEDRAL>
-23.7351

>  <SCORE.INTRA.DIHEDRAL.0>
26.3805

>  <SCORE.INTRA.POLAR>
0

>  <SCORE.INTRA.POLAR.0>
0

>  <SCORE.INTRA.REPUL>
0

>  <SCORE.INTRA.REPUL.0>
0

>  <SCORE.INTRA.SOLV>
0.0191282

>  <SCORE.INTRA.SOLV.lig_0>
-98.5587

>  <SCORE.INTRA.VDW>
-0.663175

>  <SCORE.INTRA.VDW.0>
-2.91167

>  <SCORE.INTRA.norm>
-0.347809

>  <SCORE.RESTR>
0

>  <SCORE.RESTR.CAVITY>
0

>  <SCORE.RESTR.norm>
0

>  <SCORE.SYSTEM>
0

>  <SCORE.SYSTEM.CONST>
0

>  <SCORE.SYSTEM.DIHEDRAL>
0

>  <SCORE.SYSTEM.SOLV>
0

>  <SCORE.SYSTEM.norm>
0

>  <SCORE.heavy>
36

>  <SCORE.norm>
-0.887586

>  <RMSD>
7.243

$$$$
2f4u_lig
 OpenBabel11021811433D
libRbt.so/2013.1/901 2013/11/27
 36 37  0  0  0  0  0  0  0  0999 V2000
   39.1112   13.4153    2.0703 C   0  0  2  0  0  0  0  0  0  0  0  0
   37.9721   12.5916    1.6210 O   0  0  0  0  0  0  0  0  0  0  0  0
   36.0457    9.4304    3.8994 C   0  0  2  0  0  0  0  0  0  0  0  0
   35.7644    8.0732    4.4413 N   0  0  0  0  0  0  0  0  0  0  0  0
   39.0555   14.7419    1.2510 C   0  0  2  0  0  0  0  0  0  0  0  0
   37.7874   15.4711    1.4360 N   0  0  0  0  0  0  0  0  0  0  0  0
   35.9587    9.4603    2.3327 C   0  0  0  0  0  0  0  0  0  0  0  0
   36.5805    6.8123    3.4762 C   0  0  0  0  0  0  0  0  0  0  0  0
   35.8243    5.8578    4.3462 C   0  0  1  0  0  0  0  0  0  0  0  0
   36.3896    5.9923    5.7645 C   0  0  0  0  0  0  0  0  0  0  0  0
   35.8718    4.9699    6.7930 C   0  0  0  0  0  0  0  0  0  0  0  0
   36.6027    5.1601    8.0475 N   0  0  0  0  0  0  0  0  0  0  0  0
   34.4692    6.2125    4.3937 O   0  0  0  0  0  0  0  0  0  0  0  0
   37.3271    9.2692    7.0717 C   0  0  0  0  0  0  0  0  0  0  0  0
   35.8403    9.1922    7.3852 C   0  0  0  0  0  0  0  0  0  0  0  0
   39.2676   14.4093   -0.2632 C   0  0  1  0  0  0  0  0  0  0  0  0
   35.5354    8.8277    8.7835 N   0  0  0  0  0  0  0  0  0  0  0  0
   39.2144   15.5907   -1.0588 O   0  0  0  0  0  0  0  0  0  0  0  0
   36.3059   10.8570    1.7783 C   0  0  2  0  0  0  0  0  0  0  0  0
   36.2693   10.8724    0.3213 N   0  0  0  0  0  0  0  0  0  0  0  0
   33.1224    8.2734    8.5186 C   0  0  0  0  0  0  0  0  0  0  0  0
   31.6721    8.4347    9.0654 C   0  0  0  0  0  0  0  0  0  0  0  0
   34.1751    9.0755    9.3273 C   0  0  0  0  0  0  0  0  0  0  0  0
   31.5690    8.0278   10.4990 N   0  0  0  0  0  0  0  0  0  0  0  0
   37.2457    6.7906    2.6285 O   0  0  0  0  0  0  0  0  0  0  0  0
   40.6234   13.6905   -0.4126 C   0  0  2  0  0  0  0  0  0  0  0  0
   40.9066   13.3351   -1.7636 O   0  0  0  0  0  0  0  0  0  0  0  0
   37.6940   11.2719    2.2234 C   0  0  2  0  0  0  0  0  0  0  0  0
   40.6733   12.4258    0.4635 C   0  0  2  0  0  0  0  0  0  0  0  0
   40.3766   12.7369    1.8293 O   0  0  0  0  0  0  0  0  0  0  0  0
   37.7685   11.2879    3.8042 C   0  0  2  0  0  0  0  0  0  0  0  0
   39.1211   11.6731    4.2044 O   0  0  0  0  0  0  0  0  0  0  0  0
   42.0176   11.7516    0.3980 C   0  0  0  0  0  0  0  0  0  0  0  0
   42.0096   10.5883    1.1340 O   0  0  0  0  0  0  0  0  0  0  0  0
   37.4326    9.8550    4.3403 C   0  0  1  0  0  0  0  0  0  0  0  0
   37.4842    9.7921    5.7359 O   0  0  0  0  0  0  0  0  0  0  0  0
  1  2  1  6  0  0  0
  1  5  1  0  0  0  0
  1 30  1  0  0  0  0
  3  4  1  6  0  0  0
  3  7  1  0  0  0  0
  3 35  1  0  0  0  0
  5  6  1  6  0  0  0
  5 16  1  0  0  0  0
  7 19  1  0  0  0  0
  8  4  1  0  0  0  0
  8 25  2  0  0  0  0
  9  8  1  6  0  0  0
  9 10  1  0  0  0  0
  9 13  1  0  0  0  0
 10 11  1  0  0  0  0
 11 12  1  0  0  0  0
 14 15  1  0  0  0  0
 14 36  1  0  0  0  0
 15 17  1  0  0  0  0
 16 18  1  6  0  0  0
 16 26  1  0  0  0  0
 17 23  1  0  0  0  0
 19 20  1  6  0  0  0
 19 28  1  0  0  0  0
 21 22  1  0  0  0  0
 21 23  1  0  0  0  0
 22 24  1  0  0  0  0
 26 27  1  6  0  0  0
 26 29  1  0  0  0  0
 28  2  1  1  0  0  0
 28 31  1  0  0  0  0
 29 30  1  0  0  0  0
 29 33  1  1  0  0  0
 31 32  1  6  0  0  0
 31 35  1  0  0  0  0
 33 34  1  0  0  0  0
 35 36  1  1  0  0  0
M  END
>  <CHROM.1>
-178.08583789,42.90027190,-67.38782727,-172.67087808,174.68708840,-172.92802225
-68.23244238,163.21382882,60.96227669,-57.34101672,177.64240893,166.95965521
-176.84154022,47.90464675,37.28795533,10.18586928,3.75198576,0.66212397,0.90062197
-0.09760543

>  <Name>
2f4u_lig

>  <RI>
0

>  <Rbt.Current_Directory>
/home/itssahil/PROJECTS/Mol_Feturizer/New_Systems/rnas/2f4u

>  <Rbt.Executable>
rbdock ($Id: //depot/dev/client3/rdock/2013.1/src/exe/rbdock.cxx#4 $)

>  <Rbt.Library>
libRbt.so (2013.1, Build901 2013/11/27)

>  <Rbt.Parameter_File>
/export/apps/rDock/src/rDock_2013.1_src/data/scripts/dock_solv.prm

>  <Rbt.Receptor>
prm/pocket_docking_6.prm

>  <SCORE>
-23.4459

>  <SCORE.INTER>
-17.2113

>  <SCORE.INTER.CONST>
1

>  <SCORE.INTER.POLAR>
-1.32433

>  <SCORE.INTER.ROT>
14

>  <SCORE.INTER.SOLV>
19.2905

>  <SCORE.INTER.VDW>
-26.4233

>  <SCORE.INTER.norm>
-0.478092

>  <SCORE.INTRA>
-6.39825

>  <SCORE.INTRA.DIHEDRAL>
-22.6727

>  <SCORE.INTRA.DIHEDRAL.0>
26.3805

>  <SCORE.INTRA.POLAR>
0

>  <SCORE.INTRA.POLAR.0>
0

>  <SCORE.INTRA.REPUL>
0

>  <SCORE.INTRA.REPUL.0>
0

>  <SCORE.INTRA.SOLV>
1.47545

>  <SCORE.INTRA.SOLV.lig_0>
-98.5587

>  <SCORE.INTRA.VDW>
4.20036

>  <SCORE.INTRA.VDW.0>
-2.91167

>  <SCORE.INTRA.norm>
-0.177729

>  <SCORE.RESTR>
0.163647

>  <SCORE.RESTR.CAVITY>
0.163647

>  <SCORE.RESTR.norm>
0.00454576

>  <SCORE.SYSTEM>
0

>  <SCORE.SYSTEM.CONST>
0

>  <SCORE.SYSTEM.DIHEDRAL>
0

>  <SCORE.SYSTEM.SOLV>
0

>  <SCORE.SYSTEM.norm>
0

>  <SCORE.heavy>
36

>  <SCORE.norm>
-0.651276

>  <RMSD>
7.252

$$$$
2f4u_lig
 OpenBabel11021811433D
libRbt.so/2013.1/901 2013/11/27
 36 37  0  0  0  0  0  0  0  0999 V2000
   37.6912    6.2995    9.6043 C   0  0  2  0  0  0  0  0  0  0  0  0
   39.1482    6.0949    9.7185 O   0  0  0  0  0  0  0  0  0  0  0  0
   42.3162    5.3438    6.8383 C   0  0  2  0  0  0  0  0  0  0  0  0
   43.0994    4.6649    5.7704 N   0  0  0  0  0  0  0  0  0  0  0  0
   37.2389    7.0356   10.9033 C   0  0  2  0  0  0  0  0  0  0  0  0
   37.9272    8.3256   11.0944 N   0  0  0  0  0  0  0  0  0  0  0  0
   42.1471    4.4316    8.1042 C   0  0  0  0  0  0  0  0  0  0  0  0
   44.8248    4.5459    6.2136 C   0  0  0  0  0  0  0  0  0  0  0  0
   44.9974    4.0111    4.8266 C   0  0  1  0  0  0  0  0  0  0  0  0
   46.1269    4.8121    4.1694 C   0  0  0  0  0  0  0  0  0  0  0  0
   46.4214    4.4726    2.6965 C   0  0  0  0  0  0  0  0  0  0  0  0
   47.5119    5.3309    2.2296 N   0  0  0  0  0  0  0  0  0  0  0  0
   45.3981    2.6687    4.8695 O   0  0  0  0  0  0  0  0  0  0  0  0
   41.5873    6.8864    3.8335 C   0  0  0  0  0  0  0  0  0  0  0  0
   41.0520    5.8804    2.8254 C   0  0  0  0  0  0  0  0  0  0  0  0
   37.5005    6.1006   12.1305 C   0  0  1  0  0  0  0  0  0  0  0  0
   41.4953    4.4919    3.0634 N   0  0  0  0  0  0  0  0  0  0  0  0
   37.1129    6.7332   13.3474 O   0  0  0  0  0  0  0  0  0  0  0  0
   41.2877    5.1226    9.1825 C   0  0  2  0  0  0  0  0  0  0  0  0
   41.0930    4.2573   10.3391 N   0  0  0  0  0  0  0  0  0  0  0  0
   41.4769    2.3328    4.3034 C   0  0  0  0  0  0  0  0  0  0  0  0
   41.9388    1.4749    3.0873 C   0  0  0  0  0  0  0  0  0  0  0  0
   40.6604    3.5865    3.8943 C   0  0  0  0  0  0  0  0  0  0  0  0
   40.7801    0.9227    2.3232 N   0  0  0  0  0  0  0  0  0  0  0  0
   45.4286    4.8099    7.0663 O   0  0  0  0  0  0  0  0  0  0  0  0
   36.7259    4.7863   11.9076 C   0  0  2  0  0  0  0  0  0  0  0  0
   36.9080    3.8581   12.9740 O   0  0  0  0  0  0  0  0  0  0  0  0
   39.9257    5.4813    8.6226 C   0  0  2  0  0  0  0  0  0  0  0  0
   37.1422    4.1220   10.5829 C   0  0  2  0  0  0  0  0  0  0  0  0
   36.9907    5.0288    9.4853 O   0  0  0  0  0  0  0  0  0  0  0  0
   40.0939    6.4397    7.3745 C   0  0  2  0  0  0  0  0  0  0  0  0
   38.7678    6.7541    6.8447 O   0  0  0  0  0  0  0  0  0  0  0  0
   36.3401    2.8793   10.3030 C   0  0  0  0  0  0  0  0  0  0  0  0
   36.8475    1.8097   11.0056 O   0  0  0  0  0  0  0  0  0  0  0  0
   40.9516    5.7077    6.2874 C   0  0  1  0  0  0  0  0  0  0  0  0
   41.1381    6.4963    5.1483 O   0  0  0  0  0  0  0  0  0  0  0  0
  1  2  1  1  0  0  0
  1  5  1  0  0  0  0
  1 30  1  0  0  0  0
  3  4  1  6  0  0  0
  3  7  1  0  0  0  0
  3 35  1  0  0  0  0
  5  6  1  1  0  0  0
  5 16  1  0  0  0  0
  7 19  1  0  0  0  0
  8  4  1  0  0  0  0
  8 25  2  0  0  0  0
  9  8  1  1  0  0  0
  9 10  1  0  0  0  0
  9 13  1  0  0  0  0
 10 11  1  0  0  0  0
 11 12  1  0  0  0  0
 14 15  1  0  0  0  0
 14 36  1  0  0  0  0
 15 17  1  0  0  0  0
 16 18  1  1  0  0  0
 16 26  1  0  0  0  0
 17 23  1  0  0  0  0
 19 20  1  1  0  0  0
 19 28  1  0  0  0  0
 21 22  1  0  0  0  0
 21 23  1  0  0  0  0
 22 24  1  0  0  0  0
 26 27  1  1  0  0  0
 26 29  1  0  0  0  0
 28  2  1  1  0  0  0
 28 31  1  0  0  0  0
 29 30  1  0  0  0  0
 29 33  1  6  0  0  0
 31 32  1  6  0  0  0
 31 35  1  0  0  0  0
 33 34  1  0  0  0  0
 35 36  1  6  0  0  0
M  END
>  <CHROM.1>
-176.84690033,-71.94518478,129.03275376,-176.80241709,179.59227252,-59.71834130
58.22354521,92.00534643,-165.53782257,-62.63782951,-62.09920168,-166.79997686
-81.10164061,58.17624783,40.75328484,4.82301640,7.33097499,-2.43042394,-0.47792376
-2.20489357

>  <Name>
2f4u_lig

>  <RI>
0

>  <Rbt.Current_Directory>
/home/itssahil/PROJECTS/Mol_Feturizer/New_Systems/rnas/2f4u

>  <Rbt.Executable>
rbdock ($Id: //depot/dev/client3/rdock/2013.1/src/exe/rbdock.cxx#4 $)

>  <Rbt.Library>
libRbt.so (2013.1, Build901 2013/11/27)

>  <Rbt.Parameter_File>
/export/apps/rDock/src/rDock_2013.1_src/data/scripts/dock_solv.prm

>  <Rbt.Receptor>
prm/pocket_docking_8.prm

>  <SCORE>
-12.7688

>  <SCORE.INTER>
-0.502615

>  <SCORE.INTER.CONST>
1

>  <SCORE.INTER.POLAR>
-1.62011

>  <SCORE.INTER.ROT>
14

>  <SCORE.INTER.SOLV>
12.9992

>  <SCORE.INTER.VDW>
-12.2011

>  <SCORE.INTER.norm>
-0.0139615

>  <SCORE.INTRA>
-12.2661

>  <SCORE.INTRA.DIHEDRAL>
-20.6823

>  <SCORE.INTRA.DIHEDRAL.0>
26.3805

>  <SCORE.INTRA.POLAR>
0

>  <SCORE.INTRA.POLAR.0>
0

>  <SCORE.INTRA.REPUL>
0

>  <SCORE.INTRA.REPUL.0>
0

>  <SCORE.INTRA.SOLV>
2.72292

>  <SCORE.INTRA.SOLV.lig_0>
-98.5587

>  <SCORE.INTRA.VDW>
-3.28646

>  <SCORE.INTRA.VDW.0>
-2.91167

>  <SCORE.INTRA.norm>
-0.340726

>  <SCORE.RESTR>
0

>  <SCORE.RESTR.CAVITY>
0

>  <SCORE.RESTR.norm>
0

>  <SCORE.SYSTEM>
0

>  <SCORE.SYSTEM.CONST>
0

>  <SCORE.SYSTEM.DIHEDRAL>
0

>  <SCORE.SYSTEM.SOLV>
0

>  <SCORE.SYSTEM.norm>
0

>  <SCORE.heavy>
36

>  <SCORE.norm>
-0.354688

>  <RMSD>
7.252

$$$$
2f4u_lig
 OpenBabel11021811433D
libRbt.so/2013.1/901 2013/11/27
 36 37  0  0  0  0  0  0  0  0999 V2000
   38.8168   12.7740    0.8535 C   0  0  2  0  0  0  0  0  0  0  0  0
   38.0579   12.4804    2.0846 O   0  0  0  0  0  0  0  0  0  0  0  0
   35.7506    9.0844    3.5126 C   0  0  2  0  0  0  0  0  0  0  0  0
   35.3788    7.6732    3.8043 N   0  0  0  0  0  0  0  0  0  0  0  0
   40.3177   12.4948    1.1749 C   0  0  2  0  0  0  0  0  0  0  0  0
   40.5570   11.1061    1.6091 N   0  0  0  0  0  0  0  0  0  0  0  0
   35.9627    9.3239    1.9761 C   0  0  0  0  0  0  0  0  0  0  0  0
   36.7602    6.5744    3.5363 C   0  0  0  0  0  0  0  0  0  0  0  0
   35.7650    5.4888    3.8021 C   0  0  1  0  0  0  0  0  0  0  0  0
   36.3773    4.1785    3.2945 C   0  0  0  0  0  0  0  0  0  0  0  0
   36.5701    4.0740    1.7703 C   0  0  0  0  0  0  0  0  0  0  0  0
   35.2514    4.0591    1.1339 N   0  0  0  0  0  0  0  0  0  0  0  0
   35.5515    5.3518    5.1805 O   0  0  0  0  0  0  0  0  0  0  0  0
   36.1558    9.1605    6.9045 C   0  0  0  0  0  0  0  0  0  0  0  0
   37.1249    8.5998    7.9345 C   0  0  0  0  0  0  0  0  0  0  0  0
   40.7907   13.4929    2.2833 C   0  0  1  0  0  0  0  0  0  0  0  0
   37.6727    7.2724    7.5893 N   0  0  0  0  0  0  0  0  0  0  0  0
   42.1573   13.2713    2.6220 O   0  0  0  0  0  0  0  0  0  0  0  0
   36.4013   10.7745    1.6899 C   0  0  2  0  0  0  0  0  0  0  0  0
   36.6420   10.9841    0.2678 N   0  0  0  0  0  0  0  0  0  0  0  0
   39.3140    5.4179    7.8475 C   0  0  0  0  0  0  0  0  0  0  0  0
   40.2194    4.5923    8.8102 C   0  0  0  0  0  0  0  0  0  0  0  0
   38.5492    6.5649    8.5582 C   0  0  0  0  0  0  0  0  0  0  0  0
   41.0001    3.5477    8.0817 N   0  0  0  0  0  0  0  0  0  0  0  0
   37.7942    6.6803    3.2514 O   0  0  0  0  0  0  0  0  0  0  0  0
   40.5641   14.9279    1.7670 C   0  0  2  0  0  0  0  0  0  0  0  0
   40.9580   15.9173    2.7145 O   0  0  0  0  0  0  0  0  0  0  0  0
   37.6774   11.0983    2.4409 C   0  0  2  0  0  0  0  0  0  0  0  0
   39.0881   15.1487    1.3901 C   0  0  2  0  0  0  0  0  0  0  0  0
   38.6463   14.1626    0.4507 O   0  0  0  0  0  0  0  0  0  0  0  0
   37.4503   10.9026    3.9948 C   0  0  2  0  0  0  0  0  0  0  0  0
   38.7002   11.2036    4.6914 O   0  0  0  0  0  0  0  0  0  0  0  0
   38.8577   16.5167    0.8056 C   0  0  0  0  0  0  0  0  0  0  0  0
   37.5518   16.6497    0.3905 O   0  0  0  0  0  0  0  0  0  0  0  0
   37.0263    9.4183    4.2604 C   0  0  1  0  0  0  0  0  0  0  0  0
   36.8123    9.1695    5.6193 O   0  0  0  0  0  0  0  0  0  0  0  0
  1  2  1  1  0  0  0
  1  5  1  0  0  0  0
  1 30  1  0  0  0  0
  3  4  1  6  0  0  0
  3  7  1  0  0  0  0
  3 35  1  0  0  0  0
  5  6  1  1  0  0  0
  5 16  1  0  0  0  0
  7 19  1  0  0  0  0
  8  4  1  0  0  0  0
  8 25  2  0  0  0  0
  9  8  1  1  0  0  0
  9 10  1  0  0  0  0
  9 13  1  0  0  0  0
 10 11  1  0  0  0  0
 11 12  1  0  0  0  0
 14 15  1  0  0  0  0
 14 36  1  0  0  0  0
 15 17  1  0  0  0  0
 16 18  1  6  0  0  0
 16 26  1  0  0  0  0
 17 23  1  0  0  0  0
 19 20  1  6  0  0  0
 19 28  1  0  0  0  0
 21 22  1  0  0  0  0
 21 23  1  0  0  0  0
 22 24  1  0  0  0  0
 26 27  1  1  0  0  0
 26 29  1  0  0  0  0
 28  2  1  1  0  0  0
 28 31  1  0  0  0  0
 29 30  1  0  0  0  0
 29 33  1  6  0  0  0
 31 32  1  1  0  0  0
 31 35  1  0  0  0  0
 33 34  1  0  0  0  0
 35 36  1  1  0  0  0
M  END
>  <CHROM.1>
-81.66087493,70.35465952,163.73453829,-66.80372295,-66.09683566,-54.69541090
-173.35475819,-175.30573785,-163.99135846,-176.73254354,-177.93676524,-83.49539015
175.67867059,-44.82856511,38.02554414,9.76940199,3.56257373,1.28793299,-0.86148597
-0.66907695

>  <Name>
2f4u_lig

>  <RI>
0

>  <Rbt.Current_Directory>
/home/itssahil/PROJECTS/Mol_Feturizer/New_Systems/rnas/2f4u

>  <Rbt.Executable>
rbdock ($Id: //depot/dev/client3/rdock/2013.1/src/exe/rbdock.cxx#4 $)

>  <Rbt.Library>
libRbt.so (2013.1, Build901 2013/11/27)

>  <Rbt.Parameter_File>
/export/apps/rDock/src/rDock_2013.1_src/data/scripts/dock_solv.prm

>  <Rbt.Receptor>
prm/pocket_docking_6.prm

>  <SCORE>
-21.4206

>  <SCORE.INTER>
-12.8103

>  <SCORE.INTER.CONST>
1

>  <SCORE.INTER.POLAR>
-0.976154

>  <SCORE.INTER.ROT>
14

>  <SCORE.INTER.SOLV>
17.325

>  <SCORE.INTER.VDW>
-23.9947

>  <SCORE.INTER.norm>
-0.355843

>  <SCORE.INTRA>
-8.65998

>  <SCORE.INTRA.DIHEDRAL>
-18.7557

>  <SCORE.INTRA.DIHEDRAL.0>
26.3805

>  <SCORE.INTRA.POLAR>
0

>  <SCORE.INTRA.POLAR.0>
0

>  <SCORE.INTRA.REPUL>
0

>  <SCORE.INTRA.REPUL.0>
0

>  <SCORE.INTRA.SOLV>
4.51983

>  <SCORE.INTRA.SOLV.lig_0>
-98.5587

>  <SCORE.INTRA.VDW>
-1.54203

>  <SCORE.INTRA.VDW.0>
-2.91167

>  <SCORE.INTRA.norm>
-0.240555

>  <SCORE.RESTR>
0.0496974

>  <SCORE.RESTR.CAVITY>
0.0496974

>  <SCORE.RESTR.norm>
0.00138048

>  <SCORE.SYSTEM>
0

>  <SCORE.SYSTEM.CONST>
0

>  <SCORE.SYSTEM.DIHEDRAL>
0

>  <SCORE.SYSTEM.SOLV>
0

>  <SCORE.SYSTEM.norm>
0

>  <SCORE.heavy>
36

>  <SCORE.norm>
-0.595017

>  <RMSD>
7.271

$$$$
2f4u_lig
 OpenBabel11021811433D
libRbt.so/2013.1/901 2013/11/27
 36 37  0  0  0  0  0  0  0  0999 V2000
   43.0292    6.1652    5.2172 C   0  0  2  0  0  0  0  0  0  0  0  0
   42.2868    5.0474    5.8314 O   0  0  0  0  0  0  0  0  0  0  0  0
   39.7854    4.2768    9.3019 C   0  0  2  0  0  0  0  0  0  0  0  0
   39.2257    4.4044   10.6750 N   0  0  0  0  0  0  0  0  0  0  0  0
   43.0378    5.9057    3.6788 C   0  0  2  0  0  0  0  0  0  0  0  0
   41.6802    5.8143    3.1104 N   0  0  0  0  0  0  0  0  0  0  0  0
   41.3200    3.9492    9.3278 C   0  0  0  0  0  0  0  0  0  0  0  0
   40.0167    5.7296   11.5725 C   0  0  0  0  0  0  0  0  0  0  0  0
   39.2133    5.2320   12.7330 C   0  0  1  0  0  0  0  0  0  0  0  0
   39.7584    5.9199   13.9897 C   0  0  0  0  0  0  0  0  0  0  0  0
   39.6383    7.4548   14.0201 C   0  0  0  0  0  0  0  0  0  0  0  0
   40.4848    7.9670   15.0995 N   0  0  0  0  0  0  0  0  0  0  0  0
   37.8706    5.6081   12.5916 O   0  0  0  0  0  0  0  0  0  0  0  0
   36.9441    6.5538    8.3476 C   0  0  0  0  0  0  0  0  0  0  0  0
   36.9943    7.8753    9.0998 C   0  0  0  0  0  0  0  0  0  0  0  0
   43.8290    4.5861    3.3938 C   0  0  1  0  0  0  0  0  0  0  0  0
   35.6790    8.5255    9.2679 N   0  0  0  0  0  0  0  0  0  0  0  0
   43.8568    4.2974    1.9984 O   0  0  0  0  0  0  0  0  0  0  0  0
   41.9015    3.8739    7.9013 C   0  0  2  0  0  0  0  0  0  0  0  0
   43.3355    3.6146    7.9271 N   0  0  0  0  0  0  0  0  0  0  0  0
   33.5893    9.6400    8.4990 C   0  0  0  0  0  0  0  0  0  0  0  0
   32.5620    8.6323    9.0969 C   0  0  0  0  0  0  0  0  0  0  0  0
   34.9228    8.9739    8.0701 C   0  0  0  0  0  0  0  0  0  0  0  0
   33.0440    8.0421   10.3817 N   0  0  0  0  0  0  0  0  0  0  0  0
   40.7666    6.4738   11.3597 O   0  0  0  0  0  0  0  0  0  0  0  0
   45.2525    4.7460    3.9642 C   0  0  2  0  0  0  0  0  0  0  0  0
   46.0550    3.5855    3.7616 O   0  0  0  0  0  0  0  0  0  0  0  0
   41.6673    5.1783    7.1659 C   0  0  2  0  0  0  0  0  0  0  0  0
   45.2076    5.0731    5.4677 C   0  0  2  0  0  0  0  0  0  0  0  0
   44.3951    6.2254    5.7171 O   0  0  0  0  0  0  0  0  0  0  0  0
   40.1163    5.4854    7.0981 C   0  0  2  0  0  0  0  0  0  0  0  0
   39.9216    6.7559    6.4008 O   0  0  0  0  0  0  0  0  0  0  0  0
   46.5829    5.3153    6.0297 C   0  0  0  0  0  0  0  0  0  0  0  0
   46.5235    5.4788    7.3953 O   0  0  0  0  0  0  0  0  0  0  0  0
   39.5551    5.5772    8.5575 C   0  0  1  0  0  0  0  0  0  0  0  0
   38.1847    5.8527    8.5758 O   0  0  0  0  0  0  0  0  0  0  0  0
  1  2  1  1  0  0  0
  1  5  1  0  0  0  0
  1 30  1  0  0  0  0
  3  4  1  1  0  0  0
  3  7  1  0  0  0  0
  3 35  1  0  0  0  0
  5  6  1  1  0  0  0
  5 16  1  0  0  0  0
  7 19  1  0  0  0  0
  8  4  1  0  0  0  0
  8 25  2  0  0  0  0
  9  8  1  6  0  0  0
  9 10  1  0  0  0  0
  9 13  1  0  0  0  0
 10 11  1  0  0  0  0
 11 12  1  0  0  0  0
 14 15  1  0  0  0  0
 14 36  1  0  0  0  0
 15 17  1  0  0  0  0
 16 18  1  6  0  0  0
 16 26  1  0  0  0  0
 17 23  1  0  0  0  0
 19 20  1  1  0  0  0
 19 28  1  0  0  0  0
 21 22  1  0  0  0  0
 21 23  1  0  0  0  0
 22 24  1  0  0  0  0
 26 27  1  1  0  0  0
 26 29  1  0  0  0  0
 28  2  1  6  0  0  0
 28 31  1  0  0  0  0
 29 30  1  0  0  0  0
 29 33  1  6  0  0  0
 31 32  1  1  0  0  0
 31 35  1  0  0  0  0
 33 34  1  0  0  0  0
 35 36  1  6  0  0  0
M  END
>  <CHROM.1>
-157.98594156,60.98141487,168.18288062,62.04845125,-166.09772495,-164.02808434
-63.22007563,-63.36468460,-179.23307735,65.27186064,-69.28968946,-139.65065094
-174.28614142,177.63535470,40.53438851,5.94289911,8.10722609,0.60876676,0.33731896
-1.53153207

>  <Name>
2f4u_lig

>  <RI>
0

>  <Rbt.Current_Directory>
/home/itssahil/PROJECTS/Mol_Feturizer/New_Systems/rnas/2f4u

>  <Rbt.Executable>
rbdock ($Id: //depot/dev/client3/rdock/2013.1/src/exe/rbdock.cxx#4 $)

>  <Rbt.Library>
libRbt.so (2013.1, Build901 2013/11/27)

>  <Rbt.Parameter_File>
/export/apps/rDock/src/rDock_2013.1_src/data/scripts/dock_solv.prm

>  <Rbt.Receptor>
prm/pocket_docking_6.prm

>  <SCORE>
-14.2302

>  <SCORE.INTER>
-7.91381

>  <SCORE.INTER.CONST>
1

>  <SCORE.INTER.POLAR>
-0.87178

>  <SCORE.INTER.ROT>
14

>  <SCORE.INTER.SOLV>
14.0627

>  <SCORE.INTER.VDW>
-19.9908

>  <SCORE.INTER.norm>
-0.219828

>  <SCORE.INTRA>
-6.3164

>  <SCORE.INTRA.DIHEDRAL>
-15.6095

>  <SCORE.INTRA.DIHEDRAL.0>
26.3805

>  <SCORE.INTRA.POLAR>
0

>  <SCORE.INTRA.POLAR.0>
0

>  <SCORE.INTRA.REPUL>
0

>  <SCORE.INTRA.REPUL.0>
0

>  <SCORE.INTRA.SOLV>
4.99534

>  <SCORE.INTRA.SOLV.lig_0>
-98.5587

>  <SCORE.INTRA.VDW>
-1.00932

>  <SCORE.INTRA.VDW.0>
-2.91167

>  <SCORE.INTRA.norm>
-0.175456

>  <SCORE.RESTR>
0

>  <SCORE.RESTR.CAVITY>
0

>  <SCORE.RESTR.norm>
0

>  <SCORE.SYSTEM>
0

>  <SCORE.SYSTEM.CONST>
0

>  <SCORE.SYSTEM.DIHEDRAL>
0

>  <SCORE.SYSTEM.SOLV>
0

>  <SCORE.SYSTEM.norm>
0

>  <SCORE.heavy>
36

>  <SCORE.norm>
-0.395284

>  <RMSD>
7.311

$$$$
2f4u_lig
 OpenBabel11021811433D
libRbt.so/2013.1/901 2013/11/27
 36 37  0  0  0  0  0  0  0  0999 V2000
   37.1220    7.8930    9.5501 C   0  0  2  0  0  0  0  0  0  0  0  0
   38.5309    7.5300    9.7976 O   0  0  0  0  0  0  0  0  0  0  0  0
   41.2741    4.6794    7.9965 C   0  0  2  0  0  0  0  0  0  0  0  0
   41.8385    3.3772    7.5487 N   0  0  0  0  0  0  0  0  0  0  0  0
   36.9206    9.3276   10.1293 C   0  0  2  0  0  0  0  0  0  0  0  0
   37.8237   10.3195    9.5172 N   0  0  0  0  0  0  0  0  0  0  0  0
   41.0572    4.7153    9.5504 C   0  0  0  0  0  0  0  0  0  0  0  0
   43.6218    3.3844    7.6344 C   0  0  0  0  0  0  0  0  0  0  0  0
   43.5170    2.0468    6.9714 C   0  0  1  0  0  0  0  0  0  0  0  0
   44.9131    1.6892    6.4494 C   0  0  0  0  0  0  0  0  0  0  0  0
   45.0084    0.3949    5.6206 C   0  0  0  0  0  0  0  0  0  0  0  0
   46.4118    0.1690    5.2692 N   0  0  0  0  0  0  0  0  0  0  0  0
   43.1496    1.0686    7.9055 O   0  0  0  0  0  0  0  0  0  0  0  0
   40.5688    4.3086    4.6325 C   0  0  0  0  0  0  0  0  0  0  0  0
   40.5509    5.4400    3.6156 C   0  0  0  0  0  0  0  0  0  0  0  0
   37.1428    9.2826   11.6776 C   0  0  1  0  0  0  0  0  0  0  0  0
   41.0881    5.0704    2.2905 N   0  0  0  0  0  0  0  0  0  0  0  0
   36.9804   10.5753   12.2555 O   0  0  0  0  0  0  0  0  0  0  0  0
   40.4208    6.0473    9.9971 C   0  0  2  0  0  0  0  0  0  0  0  0
   40.1778    6.0624   11.4341 N   0  0  0  0  0  0  0  0  0  0  0  0
   43.0918    3.9316    1.3480 C   0  0  0  0  0  0  0  0  0  0  0  0
   44.6352    3.9604    1.1350 C   0  0  0  0  0  0  0  0  0  0  0  0
   42.5418    5.2166    2.0203 C   0  0  0  0  0  0  0  0  0  0  0  0
   45.1375    2.6908    0.5290 N   0  0  0  0  0  0  0  0  0  0  0  0
   44.3820    4.0766    7.9574 O   0  0  0  0  0  0  0  0  0  0  0  0
   36.1480    8.2688   12.2772 C   0  0  2  0  0  0  0  0  0  0  0  0
   36.2780    8.1480   13.6915 O   0  0  0  0  0  0  0  0  0  0  0  0
   39.0985    6.2647    9.2890 C   0  0  2  0  0  0  0  0  0  0  0  0
   36.3233    6.8817   11.6334 C   0  0  2  0  0  0  0  0  0  0  0  0
   36.2169    6.9615   10.2077 O   0  0  0  0  0  0  0  0  0  0  0  0
   39.3239    6.2759    7.7226 C   0  0  2  0  0  0  0  0  0  0  0  0
   38.0317    6.4686    7.0659 O   0  0  0  0  0  0  0  0  0  0  0  0
   35.3075    5.8947   12.1436 C   0  0  0  0  0  0  0  0  0  0  0  0
   34.0389    6.2671   11.7601 O   0  0  0  0  0  0  0  0  0  0  0  0
   39.9508    4.9065    7.2925 C   0  0  1  0  0  0  0  0  0  0  0  0
   40.1742    4.8421    5.9141 O   0  0  0  0  0  0  0  0  0  0  0  0
  1  2  1  1  0  0  0
  1  5  1  0  0  0  0
  1 30  1  0  0  0  0
  3  4  1  6  0  0  0
  3  7  1  0  0  0  0
  3 35  1  0  0  0  0
  5  6  1  6  0  0  0
  5 16  1  0  0  0  0
  7 19  1  0  0  0  0
  8  4  1  0  0  0  0
  8 25  2  0  0  0  0
  9  8  1  1  0  0  0
  9 10  1  0  0  0  0
  9 13  1  0  0  0  0
 10 11  1  0  0  0  0
 11 12  1  0  0  0  0
 14 15  1  0  0  0  0
 14 36  1  0  0  0  0
 15 17  1  0  0  0  0
 16 18  1  1  0  0  0
 16 26  1  0  0  0  0
 17 23  1  0  0  0  0
 19 20  1  1  0  0  0
 19 28  1  0  0  0  0
 21 22  1  0  0  0  0
 21 23  1  0  0  0  0
 22 24  1  0  0  0  0
 26 27  1  1  0  0  0
 26 29  1  0  0  0  0
 28  2  1  1  0  0  0
 28 31  1  0  0  0  0
 29 30  1  0  0  0  0
 29 33  1  1  0  0  0
 31 32  1  6  0  0  0
 31 35  1  0  0  0  0
 33 34  1  0  0  0  0
 35 36  1  6  0  0  0
M  END
>  <CHROM.1>
-175.54458254,-87.14129062,165.44726635,-174.97386908,-176.90000278,173.15537872
-169.59996110,-88.61555249,132.85539890,178.05469254,-175.39863775,-166.16488594
65.36246589,58.67508304,40.20533040,5.41291397,7.85569774,2.60952792,-0.75457913
1.81892556

>  <Name>
2f4u_lig

>  <RI>
0

>  <Rbt.Current_Directory>
/home/itssahil/PROJECTS/Mol_Feturizer/New_Systems/rnas/2f4u

>  <Rbt.Executable>
rbdock ($Id: //depot/dev/client3/rdock/2013.1/src/exe/rbdock.cxx#4 $)

>  <Rbt.Library>
libRbt.so (2013.1, Build901 2013/11/27)

>  <Rbt.Parameter_File>
/export/apps/rDock/src/rDock_2013.1_src/data/scripts/dock_solv.prm

>  <Rbt.Receptor>
prm/pocket_docking_6.prm

>  <SCORE>
-19.0922

>  <SCORE.INTER>
-6.92132

>  <SCORE.INTER.CONST>
1

>  <SCORE.INTER.POLAR>
-3.03641

>  <SCORE.INTER.ROT>
14

>  <SCORE.INTER.SOLV>
13.1771

>  <SCORE.INTER.VDW>
-11.8186

>  <SCORE.INTER.norm>
-0.192259

>  <SCORE.INTRA>
-12.1709

>  <SCORE.INTRA.DIHEDRAL>
-21.2287

>  <SCORE.INTRA.DIHEDRAL.0>
26.3805

>  <SCORE.INTRA.POLAR>
0

>  <SCORE.INTRA.POLAR.0>
0

>  <SCORE.INTRA.REPUL>
0

>  <SCORE.INTRA.REPUL.0>
0

>  <SCORE.INTRA.SOLV>
-1.15537

>  <SCORE.INTRA.SOLV.lig_0>
-98.5587

>  <SCORE.INTRA.VDW>
-0.978872

>  <SCORE.INTRA.VDW.0>
-2.91167

>  <SCORE.INTRA.norm>
-0.338081

>  <SCORE.RESTR>
0

>  <SCORE.RESTR.CAVITY>
0

>  <SCORE.RESTR.norm>
0

>  <SCORE.SYSTEM>
0

>  <SCORE.SYSTEM.CONST>
0

>  <SCORE.SYSTEM.DIHEDRAL>
0

>  <SCORE.SYSTEM.SOLV>
0

>  <SCORE.SYSTEM.norm>
0

>  <SCORE.heavy>
36

>  <SCORE.norm>
-0.53034

>  <RMSD>
7.323

$$$$
2f4u_lig
 OpenBabel11021811433D
libRbt.so/2013.1/901 2013/11/27
 36 37  0  0  0  0  0  0  0  0999 V2000
   43.6193    3.6786    4.3046 C   0  0  2  0  0  0  0  0  0  0  0  0
   43.9855    4.9731    4.9114 O   0  0  0  0  0  0  0  0  0  0  0  0
   41.0843    5.3667    8.1244 C   0  0  2  0  0  0  0  0  0  0  0  0
   40.3998    5.9131    9.3276 N   0  0  0  0  0  0  0  0  0  0  0  0
   44.7959    3.2766    3.3623 C   0  0  2  0  0  0  0  0  0  0  0  0
   46.0823    3.1665    4.0747 N   0  0  0  0  0  0  0  0  0  0  0  0
   42.5743    4.9792    8.4290 C   0  0  0  0  0  0  0  0  0  0  0  0
   40.2504    4.6725   10.6028 C   0  0  0  0  0  0  0  0  0  0  0  0
   39.4378    5.7074   11.3158 C   0  0  1  0  0  0  0  0  0  0  0  0
   38.6492    4.9863   12.4147 C   0  0  0  0  0  0  0  0  0  0  0  0
   37.4863    4.0988   11.9337 C   0  0  0  0  0  0  0  0  0  0  0  0
   36.6845    3.7113   13.0960 N   0  0  0  0  0  0  0  0  0  0  0  0
   40.2777    6.6407   11.9387 O   0  0  0  0  0  0  0  0  0  0  0  0
   38.3724    7.2304    7.0576 C   0  0  0  0  0  0  0  0  0  0  0  0
   38.4206    8.7471    7.1665 C   0  0  0  0  0  0  0  0  0  0  0  0
   44.9069    4.3339    2.2141 C   0  0  1  0  0  0  0  0  0  0  0  0
   38.1956    9.4523    5.8885 N   0  0  0  0  0  0  0  0  0  0  0  0
   45.9779    4.0171    1.3287 O   0  0  0  0  0  0  0  0  0  0  0  0
   43.2904    4.4662    7.1631 C   0  0  2  0  0  0  0  0  0  0  0  0
   44.6866    4.1494    7.4361 N   0  0  0  0  0  0  0  0  0  0  0  0
   36.3188    8.1557    4.8903 C   0  0  0  0  0  0  0  0  0  0  0  0
   34.7973    8.1246    4.5552 C   0  0  0  0  0  0  0  0  0  0  0  0
   36.8194    9.5538    5.3379 C   0  0  0  0  0  0  0  0  0  0  0  0
   34.2955    6.7294    4.3733 N   0  0  0  0  0  0  0  0  0  0  0  0
   40.5584    3.6477   10.7306 O   0  0  0  0  0  0  0  0  0  0  0  0
   43.5569    4.3804    1.4708 C   0  0  2  0  0  0  0  0  0  0  0  0
   43.5532    5.3268    0.4050 O   0  0  0  0  0  0  0  0  0  0  0  0
   43.2459    5.5148    6.0696 C   0  0  2  0  0  0  0  0  0  0  0  0
   42.4075    4.7076    2.4410 C   0  0  2  0  0  0  0  0  0  0  0  0
   42.3862    3.7884    3.5386 O   0  0  0  0  0  0  0  0  0  0  0  0
   41.7423    5.8715    5.7287 C   0  0  2  0  0  0  0  0  0  0  0  0
   41.7299    6.8964    4.6859 O   0  0  0  0  0  0  0  0  0  0  0  0
   41.0685    4.6773    1.7537 C   0  0  0  0  0  0  0  0  0  0  0  0
   40.0763    5.0923    2.6130 O   0  0  0  0  0  0  0  0  0  0  0  0
   41.0443    6.4086    7.0239 C   0  0  1  0  0  0  0  0  0  0  0  0
   39.7080    6.7501    6.7961 O   0  0  0  0  0  0  0  0  0  0  0  0
  1  2  1  6  0  0  0
  1  5  1  0  0  0  0
  1 30  1  0  0  0  0
  3  4  1  1  0  0  0
  3  7  1  0  0  0  0
  3 35  1  0  0  0  0
  5  6  1  1  0  0  0
  5 16  1  0  0  0  0
  7 19  1  0  0  0  0
  8  4  1  0  0  0  0
  8 25  2  0  0  0  0
  9  8  1  1  0  0  0
  9 10  1  0  0  0  0
  9 13  1  0  0  0  0
 10 11  1  0  0  0  0
 11 12  1  0  0  0  0
 14 15  1  0  0  0  0
 14 36  1  0  0  0  0
 15 17  1  0  0  0  0
 16 18  1  6  0  0  0
 16 26  1  0  0  0  0
 17 23  1  0  0  0  0
 19 20  1  1  0  0  0
 19 28  1  0  0  0  0
 21 22  1  0  0  0  0
 21 23  1  0  0  0  0
 22 24  1  0  0  0  0
 26 27  1  6  0  0  0
 26 29  1  0  0  0  0
 28  2  1  6  0  0  0
 28 31  1  0  0  0  0
 29 30  1  0  0  0  0
 29 33  1  6  0  0  0
 31 32  1  6  0  0  0
 31 35  1  0  0  0  0
 33 34  1  0  0  0  0
 35 36  1  6  0  0  0
M  END
>  <CHROM.1>
-166.72423664,-65.12296954,163.11527372,-71.96549770,-168.67604110,90.91902371
73.66773332,76.13809528,-68.30141527,-169.51317773,169.03098803,55.88566602
-174.48729845,59.33399496,40.90641060,5.54035903,6.20168520,-0.80870491,-0.46807204
1.76052914

>  <Name>
2f4u_lig

>  <RI>
0

>  <Rbt.Current_Directory>
/home/itssahil/PROJECTS/Mol_Feturizer/New_Systems/rnas/2f4u

>  <Rbt.Executable>
rbdock ($Id: //depot/dev/client3/rdock/2013.1/src/exe/rbdock.cxx#4 $)

>  <Rbt.Library>
libRbt.so (2013.1, Build901 2013/11/27)

>  <Rbt.Parameter_File>
/export/apps/rDock/src/rDock_2013.1_src/data/scripts/dock_solv.prm

>  <Rbt.Receptor>
prm/pocket_docking_7.prm

>  <SCORE>
-16.2401

>  <SCORE.INTER>
-6.89132

>  <SCORE.INTER.CONST>
1

>  <SCORE.INTER.POLAR>
-1.29281

>  <SCORE.INTER.ROT>
14

>  <SCORE.INTER.SOLV>
17.2119

>  <SCORE.INTER.VDW>
-18.9555

>  <SCORE.INTER.norm>
-0.191426

>  <SCORE.INTRA>
-9.34874

>  <SCORE.INTRA.DIHEDRAL>
-18.4283

>  <SCORE.INTRA.DIHEDRAL.0>
26.3805

>  <SCORE.INTRA.POLAR>
0

>  <SCORE.INTRA.POLAR.0>
0

>  <SCORE.INTRA.REPUL>
0

>  <SCORE.INTRA.REPUL.0>
0

>  <SCORE.INTRA.SOLV>
0.960914

>  <SCORE.INTRA.SOLV.lig_0>
-98.5587

>  <SCORE.INTRA.VDW>
-0.61507

>  <SCORE.INTRA.VDW.0>
-2.91167

>  <SCORE.INTRA.norm>
-0.259687

>  <SCORE.RESTR>
0

>  <SCORE.RESTR.CAVITY>
0

>  <SCORE.RESTR.norm>
0

>  <SCORE.SYSTEM>
0

>  <SCORE.SYSTEM.CONST>
0

>  <SCORE.SYSTEM.DIHEDRAL>
0

>  <SCORE.SYSTEM.SOLV>
0

>  <SCORE.SYSTEM.norm>
0

>  <SCORE.heavy>
36

>  <SCORE.norm>
-0.451113

>  <RMSD>
7.350

$$$$
2f4u_lig
 OpenBabel11021811433D
libRbt.so/2013.1/901 2013/11/27
 36 37  0  0  0  0  0  0  0  0999 V2000
   35.6522    9.1185   10.2644 C   0  0  2  0  0  0  0  0  0  0  0  0
   36.8587    8.6053   10.9418 O   0  0  0  0  0  0  0  0  0  0  0  0
   39.7576    5.6799    9.5512 C   0  0  2  0  0  0  0  0  0  0  0  0
   40.3600    4.3595    9.2222 N   0  0  0  0  0  0  0  0  0  0  0  0
   35.9692   10.5842    9.8340 C   0  0  2  0  0  0  0  0  0  0  0  0
   37.1393   10.6738    8.9411 N   0  0  0  0  0  0  0  0  0  0  0  0
   39.3914    5.7886   11.0735 C   0  0  0  0  0  0  0  0  0  0  0  0
   39.4234    3.0248    9.9493 C   0  0  0  0  0  0  0  0  0  0  0  0
   40.5321    2.1586    9.4393 C   0  0  1  0  0  0  0  0  0  0  0  0
   40.4227    2.1357    7.9106 C   0  0  0  0  0  0  0  0  0  0  0  0
   41.1505    0.9778    7.2030 C   0  0  0  0  0  0  0  0  0  0  0  0
   42.5578    0.9960    7.6068 N   0  0  0  0  0  0  0  0  0  0  0  0
   41.7752    2.7164    9.7678 O   0  0  0  0  0  0  0  0  0  0  0  0
   39.2701    6.1185    6.0341 C   0  0  0  0  0  0  0  0  0  0  0  0
   40.3589    7.1754    6.1448 C   0  0  0  0  0  0  0  0  0  0  0  0
   36.2062   11.4472   11.1176 C   0  0  1  0  0  0  0  0  0  0  0  0
   41.6216    6.6832    6.7316 N   0  0  0  0  0  0  0  0  0  0  0  0
   36.5113   12.7972   10.7773 O   0  0  0  0  0  0  0  0  0  0  0  0
   38.7175    7.1386   11.3930 C   0  0  2  0  0  0  0  0  0  0  0  0
   38.3366    7.2209   12.7975 N   0  0  0  0  0  0  0  0  0  0  0  0
   43.3939    7.0012    5.0118 C   0  0  0  0  0  0  0  0  0  0  0  0
   44.5553    6.3565    4.1971 C   0  0  0  0  0  0  0  0  0  0  0  0
   42.6059    5.9779    5.8707 C   0  0  0  0  0  0  0  0  0  0  0  0
   44.0495    5.3969    3.1702 N   0  0  0  0  0  0  0  0  0  0  0  0
   38.5216    2.9353   10.5327 O   0  0  0  0  0  0  0  0  0  0  0  0
   34.9421   11.3599   11.9961 C   0  0  2  0  0  0  0  0  0  0  0  0
   35.0627   12.1106   13.2018 O   0  0  0  0  0  0  0  0  0  0  0  0
   37.4704    7.3189   10.5508 C   0  0  2  0  0  0  0  0  0  0  0  0
   34.6150    9.8963   12.3428 C   0  0  2  0  0  0  0  0  0  0  0  0
   34.5022    9.1018   11.1569 O   0  0  0  0  0  0  0  0  0  0  0  0
   37.8463    7.2567    9.0148 C   0  0  2  0  0  0  0  0  0  0  0  0
   36.6241    7.4149    8.2279 O   0  0  0  0  0  0  0  0  0  0  0  0
   33.3379    9.7792   13.1313 C   0  0  0  0  0  0  0  0  0  0  0  0
   33.5124   10.2679   14.4064 O   0  0  0  0  0  0  0  0  0  0  0  0
   38.5091    5.8701    8.7126 C   0  0  1  0  0  0  0  0  0  0  0  0
   38.8646    5.7413    7.3668 O   0  0  0  0  0  0  0  0  0  0  0  0
  1  2  1  1  0  0  0
  1  5  1  0  0  0  0
  1 30  1  0  0  0  0
  3  4  1  1  0  0  0
  3  7  1  0  0  0  0
  3 35  1  0  0  0  0
  5  6  1  6  0  0  0
  5 16  1  0  0  0  0
  7 19  1  0  0  0  0
  8  4  1  0  0  0  0
  8 25  2  0  0  0  0
  9  8  1  1  0  0  0
  9 10  1  0  0  0  0
  9 13  1  0  0  0  0
 10 11  1  0  0  0  0
 11 12  1  0  0  0  0
 14 15  1  0  0  0  0
 14 36  1  0  0  0  0
 15 17  1  0  0  0  0
 16 18  1  6  0  0  0
 16 26  1  0  0  0  0
 17 23  1  0  0  0  0
 19 20  1  1  0  0  0
 19 28  1  0  0  0  0
 21 22  1  0  0  0  0
 21 23  1  0  0  0  0
 22 24  1  0  0  0  0
 26 27  1  1  0  0  0
 26 29  1  0  0  0  0
 28  2  1  6  0  0  0
 28 31  1  0  0  0  0
 29 30  1  0  0  0  0
 29 33  1  6  0  0  0
 31 32  1  6  0  0  0
 31 35  1  0  0  0  0
 33 34  1  0  0  0  0
 35 36  1  6  0  0  0
M  END
>  <CHROM.1>
-128.70923902,46.22611505,-69.72099421,-161.03638124,-55.56755452,66.66631516
42.03125686,82.74636294,77.56290928,64.83483967,173.58987765,177.13739682
-70.78678862,-93.53774178,38.58869473,6.95072383,9.34503644,-2.78535243,-0.82928661
2.72182473

>  <Name>
2f4u_lig

>  <RI>
0

>  <Rbt.Current_Directory>
/home/itssahil/PROJECTS/Mol_Feturizer/New_Systems/rnas/2f4u

>  <Rbt.Executable>
rbdock ($Id: //depot/dev/client3/rdock/2013.1/src/exe/rbdock.cxx#4 $)

>  <Rbt.Library>
libRbt.so (2013.1, Build901 2013/11/27)

>  <Rbt.Parameter_File>
/export/apps/rDock/src/rDock_2013.1_src/data/scripts/dock_solv.prm

>  <Rbt.Receptor>
prm/pocket_docking_7.prm

>  <SCORE>
-4.05652

>  <SCORE.INTER>
-5.31851

>  <SCORE.INTER.CONST>
1

>  <SCORE.INTER.POLAR>
-2.12202

>  <SCORE.INTER.ROT>
14

>  <SCORE.INTER.SOLV>
16.4606

>  <SCORE.INTER.VDW>
-14.8925

>  <SCORE.INTER.norm>
-0.147736

>  <SCORE.INTRA>
1.17746

>  <SCORE.INTRA.DIHEDRAL>
-10.1025

>  <SCORE.INTRA.DIHEDRAL.0>
26.3805

>  <SCORE.INTRA.POLAR>
0

>  <SCORE.INTRA.POLAR.0>
0

>  <SCORE.INTRA.REPUL>
0.00940675

>  <SCORE.INTRA.REPUL.0>
0

>  <SCORE.INTRA.SOLV>
4.72542

>  <SCORE.INTRA.SOLV.lig_0>
-98.5587

>  <SCORE.INTRA.VDW>
3.81894

>  <SCORE.INTRA.VDW.0>
-2.91167

>  <SCORE.INTRA.norm>
0.0327072

>  <SCORE.RESTR>
0.0845308

>  <SCORE.RESTR.CAVITY>
0.0845308

>  <SCORE.RESTR.norm>
0.00234808

>  <SCORE.SYSTEM>
0

>  <SCORE.SYSTEM.CONST>
0

>  <SCORE.SYSTEM.DIHEDRAL>
0

>  <SCORE.SYSTEM.SOLV>
0

>  <SCORE.SYSTEM.norm>
0

>  <SCORE.heavy>
36

>  <SCORE.norm>
-0.112681

>  <RMSD>
7.356

$$$$
2f4u_lig
 OpenBabel11021811433D
libRbt.so/2013.1/901 2013/11/27
 36 37  0  0  0  0  0  0  0  0999 V2000
   38.9984   13.1505    2.3845 C   0  0  2  0  0  0  0  0  0  0  0  0
   37.8068   12.4327    1.8916 O   0  0  0  0  0  0  0  0  0  0  0  0
   35.7478    8.9908    3.5676 C   0  0  2  0  0  0  0  0  0  0  0  0
   35.4607    7.5760    3.9293 N   0  0  0  0  0  0  0  0  0  0  0  0
   39.1163   14.4565    1.5392 C   0  0  2  0  0  0  0  0  0  0  0  0
   37.9194   15.3113    1.6443 N   0  0  0  0  0  0  0  0  0  0  0  0
   35.8618    9.1820    2.0140 C   0  0  0  0  0  0  0  0  0  0  0  0
   36.4589    6.4501    2.9684 C   0  0  0  0  0  0  0  0  0  0  0  0
   35.6382    5.3857    3.6266 C   0  0  1  0  0  0  0  0  0  0  0  0
   35.4010    4.2870    2.5845 C   0  0  0  0  0  0  0  0  0  0  0  0
   34.4035    3.1849    2.9864 C   0  0  0  0  0  0  0  0  0  0  0  0
   34.3524    2.1892    1.9141 N   0  0  0  0  0  0  0  0  0  0  0  0
   36.3472    4.8144    4.6921 O   0  0  0  0  0  0  0  0  0  0  0  0
   36.3910    9.3029    6.9442 C   0  0  0  0  0  0  0  0  0  0  0  0
   34.9965    8.6947    6.9553 C   0  0  0  0  0  0  0  0  0  0  0  0
   39.3698   14.0692    0.0445 C   0  0  1  0  0  0  0  0  0  0  0  0
   34.2999    8.8035    8.2530 N   0  0  0  0  0  0  0  0  0  0  0  0
   39.4746   15.2310   -0.7744 O   0  0  0  0  0  0  0  0  0  0  0  0
   36.2141   10.6394    1.6527 C   0  0  2  0  0  0  0  0  0  0  0  0
   36.3645   10.8063    0.2127 N   0  0  0  0  0  0  0  0  0  0  0  0
   33.8994    6.6960    9.5172 C   0  0  0  0  0  0  0  0  0  0  0  0
   34.0962    5.7169    8.3210 C   0  0  0  0  0  0  0  0  0  0  0  0
   34.7580    7.9827    9.4037 C   0  0  0  0  0  0  0  0  0  0  0  0
   33.2189    4.5134    8.4362 N   0  0  0  0  0  0  0  0  0  0  0  0
   37.2330    6.5388    2.2239 O   0  0  0  0  0  0  0  0  0  0  0  0
   40.6531   13.2170   -0.0206 C   0  0  2  0  0  0  0  0  0  0  0  0
   40.9669   12.8038   -1.3482 O   0  0  0  0  0  0  0  0  0  0  0  0
   37.5133   11.0490    2.3171 C   0  0  2  0  0  0  0  0  0  0  0  0
   40.5327   11.9745    0.8801 C   0  0  2  0  0  0  0  0  0  0  0  0
   40.2003   12.3452    2.2225 O   0  0  0  0  0  0  0  0  0  0  0  0
   37.3831   10.9015    3.8874 C   0  0  2  0  0  0  0  0  0  0  0  0
   38.6542   11.2852    4.4999 O   0  0  0  0  0  0  0  0  0  0  0  0
   41.8048   11.1697    0.8973 C   0  0  0  0  0  0  0  0  0  0  0  0
   42.0615   10.6474   -0.3503 O   0  0  0  0  0  0  0  0  0  0  0  0
   37.0459    9.4105    4.2286 C   0  0  1  0  0  0  0  0  0  0  0  0
   36.9204    9.2032    5.6054 O   0  0  0  0  0  0  0  0  0  0  0  0
  1  2  1  6  0  0  0
  1  5  1  0  0  0  0
  1 30  1  0  0  0  0
  3  4  1  6  0  0  0
  3  7  1  0  0  0  0
  3 35  1  0  0  0  0
  5  6  1  6  0  0  0
  5 16  1  0  0  0  0
  7 19  1  0  0  0  0
  8  4  1  0  0  0  0
  8 25  2  0  0  0  0
  9  8  1  6  0  0  0
  9 10  1  0  0  0  0
  9 13  1  0  0  0  0
 10 11  1  0  0  0  0
 11 12  1  0  0  0  0
 14 15  1  0  0  0  0
 14 36  1  0  0  0  0
 15 17  1  0  0  0  0
 16 18  1  6  0  0  0
 16 26  1  0  0  0  0
 17 23  1  0  0  0  0
 19 20  1  6  0  0  0
 19 28  1  0  0  0  0
 21 22  1  0  0  0  0
 21 23  1  0  0  0  0
 22 24  1  0  0  0  0
 26 27  1  6  0  0  0
 26 29  1  0  0  0  0
 28  2  1  1  0  0  0
 28 31  1  0  0  0  0
 29 30  1  0  0  0  0
 29 33  1  1  0  0  0
 31 32  1  1  0  0  0
 31 35  1  0  0  0  0
 33 34  1  0  0  0  0
 35 36  1  1  0  0  0
M  END
>  <CHROM.1>
170.05112523,43.32486768,142.99605430,-171.43848205,-177.00934015,-176.48145144
63.88319817,-70.97951028,-96.61722718,-177.90180242,66.45467526,178.71203208
-64.89456760,-56.88629483,37.19809521,9.46954848,3.30871534,0.21721545,1.05208098
0.66802750

>  <Name>
2f4u_lig

>  <RI>
0

>  <Rbt.Current_Directory>
/home/itssahil/PROJECTS/Mol_Feturizer/New_Systems/rnas/2f4u

>  <Rbt.Executable>
rbdock ($Id: //depot/dev/client3/rdock/2013.1/src/exe/rbdock.cxx#4 $)

>  <Rbt.Library>
libRbt.so (2013.1, Build901 2013/11/27)

>  <Rbt.Parameter_File>
/export/apps/rDock/src/rDock_2013.1_src/data/scripts/dock_solv.prm

>  <Rbt.Receptor>
prm/pocket_docking_7.prm

>  <SCORE>
-30.2127

>  <SCORE.INTER>
-18.3704

>  <SCORE.INTER.CONST>
1

>  <SCORE.INTER.POLAR>
-1.60158

>  <SCORE.INTER.ROT>
14

>  <SCORE.INTER.SOLV>
19.1481

>  <SCORE.INTER.VDW>
-26.2244

>  <SCORE.INTER.norm>
-0.510289

>  <SCORE.INTRA>
-11.8423

>  <SCORE.INTRA.DIHEDRAL>
-22.2195

>  <SCORE.INTRA.DIHEDRAL.0>
26.3805

>  <SCORE.INTRA.POLAR>
0

>  <SCORE.INTRA.POLAR.0>
0

>  <SCORE.INTRA.REPUL>
0

>  <SCORE.INTRA.REPUL.0>
0

>  <SCORE.INTRA.SOLV>
-0.5108

>  <SCORE.INTRA.SOLV.lig_0>
-98.5587

>  <SCORE.INTRA.VDW>
-0.477141

>  <SCORE.INTRA.VDW.0>
-2.91167

>  <SCORE.INTRA.norm>
-0.328953

>  <SCORE.RESTR>
0

>  <SCORE.RESTR.CAVITY>
0

>  <SCORE.RESTR.norm>
0

>  <SCORE.SYSTEM>
0

>  <SCORE.SYSTEM.CONST>
0

>  <SCORE.SYSTEM.DIHEDRAL>
0

>  <SCORE.SYSTEM.SOLV>
0

>  <SCORE.SYSTEM.norm>
0

>  <SCORE.heavy>
36

>  <SCORE.norm>
-0.839242

>  <RMSD>
7.360

$$$$
2f4u_lig
 OpenBabel11021811433D
libRbt.so/2013.1/901 2013/11/27
 36 37  0  0  0  0  0  0  0  0999 V2000
   38.9344   13.4600    1.7647 C   0  0  2  0  0  0  0  0  0  0  0  0
   37.7882   12.5729    1.4868 O   0  0  0  0  0  0  0  0  0  0  0  0
   36.2291    9.2456    3.8091 C   0  0  2  0  0  0  0  0  0  0  0  0
   36.1167    7.8795    4.3888 N   0  0  0  0  0  0  0  0  0  0  0  0
   38.7038   14.7626    0.9376 C   0  0  2  0  0  0  0  0  0  0  0  0
   37.4367   15.4353    1.2786 N   0  0  0  0  0  0  0  0  0  0  0  0
   36.1988    9.2156    2.2402 C   0  0  0  0  0  0  0  0  0  0  0  0
   35.0446    7.8717    5.8163 C   0  0  0  0  0  0  0  0  0  0  0  0
   35.4801    6.4469    5.9581 C   0  0  1  0  0  0  0  0  0  0  0  0
   35.0094    5.9641    7.3347 C   0  0  0  0  0  0  0  0  0  0  0  0
   35.4354    4.5373    7.7271 C   0  0  0  0  0  0  0  0  0  0  0  0
   34.7721    3.5896    6.8294 N   0  0  0  0  0  0  0  0  0  0  0  0
   34.8538    5.6486    4.9912 O   0  0  0  0  0  0  0  0  0  0  0  0
   37.5154    9.3402    7.0257 C   0  0  0  0  0  0  0  0  0  0  0  0
   38.7642    8.4959    7.2314 C   0  0  0  0  0  0  0  0  0  0  0  0
   38.7285   14.4045   -0.5855 C   0  0  1  0  0  0  0  0  0  0  0  0
   38.6498    7.1139    6.7236 N   0  0  0  0  0  0  0  0  0  0  0  0
   38.5107   15.5628   -1.3869 O   0  0  0  0  0  0  0  0  0  0  0  0
   36.3715   10.6296    1.6490 C   0  0  2  0  0  0  0  0  0  0  0  0
   36.3889   10.5957    0.1920 N   0  0  0  0  0  0  0  0  0  0  0  0
   40.2214    5.9907    8.2948 C   0  0  0  0  0  0  0  0  0  0  0  0
   40.4241    4.8927    9.3818 C   0  0  0  0  0  0  0  0  0  0  0  0
   38.8060    5.9716    7.6608 C   0  0  0  0  0  0  0  0  0  0  0  0
   40.3357    3.5168    8.8068 N   0  0  0  0  0  0  0  0  0  0  0  0
   34.4386    8.5944    6.3377 O   0  0  0  0  0  0  0  0  0  0  0  0
   40.0864   13.7472   -0.9032 C   0  0  2  0  0  0  0  0  0  0  0  0
   40.2044   13.3735   -2.2737 O   0  0  0  0  0  0  0  0  0  0  0  0
   37.6714   11.2463    2.1257 C   0  0  2  0  0  0  0  0  0  0  0  0
   40.3159   12.5075   -0.0200 C   0  0  2  0  0  0  0  0  0  0  0  0
   40.1887   12.8366    1.3677 O   0  0  0  0  0  0  0  0  0  0  0  0
   37.6825   11.3202    3.7065 C   0  0  2  0  0  0  0  0  0  0  0  0
   38.9530   11.9012    4.1382 O   0  0  0  0  0  0  0  0  0  0  0  0
   41.6715   11.8961   -0.2538 C   0  0  0  0  0  0  0  0  0  0  0  0
   41.7860   10.7039    0.4249 O   0  0  0  0  0  0  0  0  0  0  0  0
   37.5266    9.8716    4.2812 C   0  0  1  0  0  0  0  0  0  0  0  0
   37.5331    9.8587    5.6790 O   0  0  0  0  0  0  0  0  0  0  0  0
  1  2  1  6  0  0  0
  1  5  1  0  0  0  0
  1 30  1  0  0  0  0
  3  4  1  1  0  0  0
  3  7  1  0  0  0  0
  3 35  1  0  0  0  0
  5  6  1  1  0  0  0
  5 16  1  0  0  0  0
  7 19  1  0  0  0  0
  8  4  1  0  0  0  0
  8 25  2  0  0  0  0
  9  8  1  6  0  0  0
  9 10  1  0  0  0  0
  9 13  1  0  0  0  0
 10 11  1  0  0  0  0
 11 12  1  0  0  0  0
 14 15  1  0  0  0  0
 14 36  1  0  0  0  0
 15 17  1  0  0  0  0
 16 18  1  6  0  0  0
 16 26  1  0  0  0  0
 17 23  1  0  0  0  0
 19 20  1  6  0  0  0
 19 28  1  0  0  0  0
 21 22  1  0  0  0  0
 21 23  1  0  0  0  0
 22 24  1  0  0  0  0
 26 27  1  6  0  0  0
 26 29  1  0  0  0  0
 28  2  1  6  0  0  0
 28 31  1  0  0  0  0
 29 30  1  0  0  0  0
 29 33  1  1  0  0  0
 31 32  1  6  0  0  0
 31 35  1  0  0  0  0
 33 34  1  0  0  0  0
 35 36  1  1  0  0  0
M  END
>  <CHROM.1>
-179.17683515,-139.01811383,168.49013263,-176.19787451,-66.05839325,-82.51154406
62.98465237,-119.93884368,-61.21782052,64.27591887,175.14138723,178.53739326
-172.73148204,61.34536026,37.93241992,9.76903761,3.70501789,-1.37816032,0.07851365
2.36399503

>  <Name>
2f4u_lig

>  <RI>
0

>  <Rbt.Current_Directory>
/home/itssahil/PROJECTS/Mol_Feturizer/New_Systems/rnas/2f4u

>  <Rbt.Executable>
rbdock ($Id: //depot/dev/client3/rdock/2013.1/src/exe/rbdock.cxx#4 $)

>  <Rbt.Library>
libRbt.so (2013.1, Build901 2013/11/27)

>  <Rbt.Parameter_File>
/export/apps/rDock/src/rDock_2013.1_src/data/scripts/dock_solv.prm

>  <Rbt.Receptor>
prm/pocket_docking_7.prm

>  <SCORE>
-25.6578

>  <SCORE.INTER>
-15.2221

>  <SCORE.INTER.CONST>
1

>  <SCORE.INTER.POLAR>
-1.66425

>  <SCORE.INTER.ROT>
14

>  <SCORE.INTER.SOLV>
18.5612

>  <SCORE.INTER.VDW>
-23.721

>  <SCORE.INTER.norm>
-0.422836

>  <SCORE.INTRA>
-10.4357

>  <SCORE.INTRA.DIHEDRAL>
-21.0258

>  <SCORE.INTRA.DIHEDRAL.0>
26.3805

>  <SCORE.INTRA.POLAR>
0

>  <SCORE.INTRA.POLAR.0>
0

>  <SCORE.INTRA.REPUL>
0

>  <SCORE.INTRA.REPUL.0>
0

>  <SCORE.INTRA.SOLV>
3.68329

>  <SCORE.INTRA.SOLV.lig_0>
-98.5587

>  <SCORE.INTRA.VDW>
-1.76449

>  <SCORE.INTRA.VDW.0>
-2.91167

>  <SCORE.INTRA.norm>
-0.289882

>  <SCORE.RESTR>
0

>  <SCORE.RESTR.CAVITY>
0

>  <SCORE.RESTR.norm>
0

>  <SCORE.SYSTEM>
0

>  <SCORE.SYSTEM.CONST>
0

>  <SCORE.SYSTEM.DIHEDRAL>
0

>  <SCORE.SYSTEM.SOLV>
0

>  <SCORE.SYSTEM.norm>
0

>  <SCORE.heavy>
36

>  <SCORE.norm>
-0.712718

>  <RMSD>
7.384

$$$$
2f4u_lig
 OpenBabel11021811433D
libRbt.so/2013.1/901 2013/11/27
 36 37  0  0  0  0  0  0  0  0999 V2000
   41.9675    1.8984    4.6633 C   0  0  2  0  0  0  0  0  0  0  0  0
   43.1129    2.6548    5.2054 O   0  0  0  0  0  0  0  0  0  0  0  0
   41.2610    5.0963    8.2884 C   0  0  2  0  0  0  0  0  0  0  0  0
   41.1323    6.0489    9.4245 N   0  0  0  0  0  0  0  0  0  0  0  0
   42.5119    1.0562    3.4682 C   0  0  2  0  0  0  0  0  0  0  0  0
   43.5941    0.1375    3.8668 N   0  0  0  0  0  0  0  0  0  0  0  0
   42.1444    3.8556    8.6674 C   0  0  0  0  0  0  0  0  0  0  0  0
   40.5716    5.2178   10.9018 C   0  0  0  0  0  0  0  0  0  0  0  0
   40.5063    6.5962   11.4810 C   0  0  1  0  0  0  0  0  0  0  0  0
   39.9122    6.4687   12.8882 C   0  0  0  0  0  0  0  0  0  0  0  0
   38.4320    6.0498   12.9563 C   0  0  0  0  0  0  0  0  0  0  0  0
   37.6180    7.1187   12.3743 N   0  0  0  0  0  0  0  0  0  0  0  0
   41.7954    7.1305   11.6111 O   0  0  0  0  0  0  0  0  0  0  0  0
   39.9373    7.7008    6.3991 C   0  0  0  0  0  0  0  0  0  0  0  0
   38.8179    7.4737    7.4040 C   0  0  0  0  0  0  0  0  0  0  0  0
   43.0183    2.0306    2.3533 C   0  0  1  0  0  0  0  0  0  0  0  0
   37.4632    7.7001    6.8612 N   0  0  0  0  0  0  0  0  0  0  0  0
   43.5377    1.3083    1.2398 O   0  0  0  0  0  0  0  0  0  0  0  0
   42.3171    2.9027    7.4671 C   0  0  2  0  0  0  0  0  0  0  0  0
   43.1747    1.7740    7.8063 N   0  0  0  0  0  0  0  0  0  0  0  0
   36.0368    8.5053    4.9859 C   0  0  0  0  0  0  0  0  0  0  0  0
   35.9067    9.4983    3.7920 C   0  0  0  0  0  0  0  0  0  0  0  0
   37.2256    8.8310    5.9274 C   0  0  0  0  0  0  0  0  0  0  0  0
   37.1001    9.4499    2.8949 N   0  0  0  0  0  0  0  0  0  0  0  0
   40.3377    4.2040   11.1824 O   0  0  0  0  0  0  0  0  0  0  0  0
   41.8433    2.9380    1.9373 C   0  0  2  0  0  0  0  0  0  0  0  0
   42.2080    3.8736    0.9258 O   0  0  0  0  0  0  0  0  0  0  0  0
   42.9382    3.6364    6.2953 C   0  0  2  0  0  0  0  0  0  0  0  0
   41.2818    3.6997    3.1514 C   0  0  2  0  0  0  0  0  0  0  0  0
   40.9184    2.7953    4.2003 O   0  0  0  0  0  0  0  0  0  0  0  0
   42.0234    4.8599    5.8822 C   0  0  2  0  0  0  0  0  0  0  0  0
   42.6548    5.5587    4.7637 O   0  0  0  0  0  0  0  0  0  0  0  0
   40.0806    4.5299    2.7854 C   0  0  0  0  0  0  0  0  0  0  0  0
   40.4655    5.6550    2.0918 O   0  0  0  0  0  0  0  0  0  0  0  0
   41.8809    5.8215    7.1103 C   0  0  1  0  0  0  0  0  0  0  0  0
   41.0861    6.9332    6.8161 O   0  0  0  0  0  0  0  0  0  0  0  0
  1  2  1  6  0  0  0
  1  5  1  0  0  0  0
  1 30  1  0  0  0  0
  3  4  1  1  0  0  0
  3  7  1  0  0  0  0
  3 35  1  0  0  0  0
  5  6  1  1  0  0  0
  5 16  1  0  0  0  0
  7 19  1  0  0  0  0
  8  4  1  0  0  0  0
  8 25  2  0  0  0  0
  9  8  1  1  0  0  0
  9 10  1  0  0  0  0
  9 13  1  0  0  0  0
 10 11  1  0  0  0  0
 11 12  1  0  0  0  0
 14 15  1  0  0  0  0
 14 36  1  0  0  0  0
 15 17  1  0  0  0  0
 16 18  1  6  0  0  0
 16 26  1  0  0  0  0
 17 23  1  0  0  0  0
 19 20  1  1  0  0  0
 19 28  1  0  0  0  0
 21 22  1  0  0  0  0
 21 23  1  0  0  0  0
 22 24  1  0  0  0  0
 26 27  1  6  0  0  0
 26 29  1  0  0  0  0
 28  2  1  6  0  0  0
 28 31  1  0  0  0  0
 29 30  1  0  0  0  0
 29 33  1  6  0  0  0
 31 32  1  6  0  0  0
 31 35  1  0  0  0  0
 33 34  1  0  0  0  0
 35 36  1  6  0  0  0
M  END
>  <CHROM.1>
175.64202262,-52.72327919,175.54441396,-68.12685029,-65.86545934,-155.64756376
66.13588634,-39.32677833,152.47860937,62.90214597,-168.09171200,57.63421584
-74.98778618,-65.52773653,40.75571592,5.03652824,6.35230068,-1.03721873,-0.85039803
1.48196290

>  <Name>
2f4u_lig

>  <RI>
0

>  <Rbt.Current_Directory>
/home/itssahil/PROJECTS/Mol_Feturizer/New_Systems/rnas/2f4u

>  <Rbt.Executable>
rbdock ($Id: //depot/dev/client3/rdock/2013.1/src/exe/rbdock.cxx#4 $)

>  <Rbt.Library>
libRbt.so (2013.1, Build901 2013/11/27)

>  <Rbt.Parameter_File>
/export/apps/rDock/src/rDock_2013.1_src/data/scripts/dock_solv.prm

>  <Rbt.Receptor>
prm/pocket_docking_5.prm

>  <SCORE>
-13.5433

>  <SCORE.INTER>
-5.05044

>  <SCORE.INTER.CONST>
1

>  <SCORE.INTER.POLAR>
-0.894427

>  <SCORE.INTER.ROT>
14

>  <SCORE.INTER.SOLV>
11.0776

>  <SCORE.INTER.VDW>
-17.0114

>  <SCORE.INTER.norm>
-0.14029

>  <SCORE.INTRA>
-8.50476

>  <SCORE.INTRA.DIHEDRAL>
-20.5909

>  <SCORE.INTRA.DIHEDRAL.0>
26.3805

>  <SCORE.INTRA.POLAR>
0

>  <SCORE.INTRA.POLAR.0>
0

>  <SCORE.INTRA.REPUL>
0

>  <SCORE.INTRA.REPUL.0>
0

>  <SCORE.INTRA.SOLV>
2.40652

>  <SCORE.INTRA.SOLV.lig_0>
-98.5587

>  <SCORE.INTRA.VDW>
0.587419

>  <SCORE.INTRA.VDW.0>
-2.91167

>  <SCORE.INTRA.norm>
-0.236243

>  <SCORE.RESTR>
0.0118536

>  <SCORE.RESTR.CAVITY>
0.0118536

>  <SCORE.RESTR.norm>
0.000329266

>  <SCORE.SYSTEM>
0

>  <SCORE.SYSTEM.CONST>
0

>  <SCORE.SYSTEM.DIHEDRAL>
0

>  <SCORE.SYSTEM.SOLV>
0

>  <SCORE.SYSTEM.norm>
0

>  <SCORE.heavy>
36

>  <SCORE.norm>
-0.376204

>  <RMSD>
7.437

$$$$
2f4u_lig
 OpenBabel11021811433D
libRbt.so/2013.1/901 2013/11/27
 36 37  0  0  0  0  0  0  0  0999 V2000
   39.9735    6.6885   11.2601 C   0  0  2  0  0  0  0  0  0  0  0  0
   40.1450    5.2547   10.9557 O   0  0  0  0  0  0  0  0  0  0  0  0
   39.7296    5.1431    6.6301 C   0  0  2  0  0  0  0  0  0  0  0  0
   39.7715    4.6213    5.2370 N   0  0  0  0  0  0  0  0  0  0  0  0
   40.0154    6.8248   12.8138 C   0  0  2  0  0  0  0  0  0  0  0  0
   41.2738    6.3214   13.3945 N   0  0  0  0  0  0  0  0  0  0  0  0
   41.1473    5.1183    7.3030 C   0  0  0  0  0  0  0  0  0  0  0  0
   39.9884    5.9455    4.0594 C   0  0  0  0  0  0  0  0  0  0  0  0
   39.7868    4.8749    3.0334 C   0  0  1  0  0  0  0  0  0  0  0  0
   38.5173    5.2301    2.2512 C   0  0  0  0  0  0  0  0  0  0  0  0
   37.2050    5.2093    3.0566 C   0  0  0  0  0  0  0  0  0  0  0  0
   36.0866    5.3934    2.1297 N   0  0  0  0  0  0  0  0  0  0  0  0
   40.8552    4.8634    2.1263 O   0  0  0  0  0  0  0  0  0  0  0  0
   36.2040    3.8971    6.3980 C   0  0  0  0  0  0  0  0  0  0  0  0
   35.4827    3.3465    7.6192 C   0  0  0  0  0  0  0  0  0  0  0  0
   38.7973    6.0531   13.4213 C   0  0  1  0  0  0  0  0  0  0  0  0
   36.1043    2.1363    8.1938 N   0  0  0  0  0  0  0  0  0  0  0  0
   38.7959    6.1379   14.8440 O   0  0  0  0  0  0  0  0  0  0  0  0
   41.0833    5.6087    8.7638 C   0  0  2  0  0  0  0  0  0  0  0  0
   42.3918    5.5427    9.4023 N   0  0  0  0  0  0  0  0  0  0  0  0
   35.1173    1.4843   10.3848 C   0  0  0  0  0  0  0  0  0  0  0  0
   34.2376    0.4720   11.1783 C   0  0  0  0  0  0  0  0  0  0  0  0
   35.2546    1.1298    8.8811 C   0  0  0  0  0  0  0  0  0  0  0  0
   32.8489    0.3944   10.6335 N   0  0  0  0  0  0  0  0  0  0  0  0
   40.1286    7.0130    4.1067 O   0  0  0  0  0  0  0  0  0  0  0  0
   37.5057    6.6434   12.8208 C   0  0  2  0  0  0  0  0  0  0  0  0
   36.3324    5.9972   13.3080 O   0  0  0  0  0  0  0  0  0  0  0  0
   40.1197    4.7565    9.5653 C   0  0  2  0  0  0  0  0  0  0  0  0
   37.5273    6.5600   11.2839 C   0  0  2  0  0  0  0  0  0  0  0  0
   38.7018    7.1840   10.7534 O   0  0  0  0  0  0  0  0  0  0  0  0
   38.6786    4.8190    8.9143 C   0  0  2  0  0  0  0  0  0  0  0  0
   37.7757    3.9751    9.6959 O   0  0  0  0  0  0  0  0  0  0  0  0
   36.3133    7.2051   10.6707 C   0  0  0  0  0  0  0  0  0  0  0  0
   35.1747    6.5098   11.0102 O   0  0  0  0  0  0  0  0  0  0  0  0
   38.7671    4.2972    7.4402 C   0  0  1  0  0  0  0  0  0  0  0  0
   37.5240    4.3190    6.8009 O   0  0  0  0  0  0  0  0  0  0  0  0
  1  2  1  1  0  0  0
  1  5  1  0  0  0  0
  1 30  1  0  0  0  0
  3  4  1  6  0  0  0
  3  7  1  0  0  0  0
  3 35  1  0  0  0  0
  5  6  1  1  0  0  0
  5 16  1  0  0  0  0
  7 19  1  0  0  0  0
  8  4  1  0  0  0  0
  8 25  2  0  0  0  0
  9  8  1  1  0  0  0
  9 10  1  0  0  0  0
  9 13  1  0  0  0  0
 10 11  1  0  0  0  0
 11 12  1  0  0  0  0
 14 15  1  0  0  0  0
 14 36  1  0  0  0  0
 15 17  1  0  0  0  0
 16 18  1  1  0  0  0
 16 26  1  0  0  0  0
 17 23  1  0  0  0  0
 19 20  1  1  0  0  0
 19 28  1  0  0  0  0
 21 22  1  0  0  0  0
 21 23  1  0  0  0  0
 22 24  1  0  0  0  0
 26 27  1  1  0  0  0
 26 29  1  0  0  0  0
 28  2  1  1  0  0  0
 28 31  1  0  0  0  0
 29 30  1  0  0  0  0
 29 33  1  6  0  0  0
 31 32  1  1  0  0  0
 31 35  1  0  0  0  0
 33 34  1  0  0  0  0
 35 36  1  6  0  0  0
M  END
>  <CHROM.1>
178.38859596,-93.37987010,117.27958398,-65.03141920,-172.57301361,-63.73573838
42.26626506,-149.77472648,-88.76908960,-59.66178438,-179.98744648,50.59111297
-65.48411649,155.31569814,38.18042419,4.92291513,8.64003743,-1.73279163,-0.60985454
-1.69579195

>  <Name>
2f4u_lig

>  <RI>
0

>  <Rbt.Current_Directory>
/home/itssahil/PROJECTS/Mol_Feturizer/New_Systems/rnas/2f4u

>  <Rbt.Executable>
rbdock ($Id: //depot/dev/client3/rdock/2013.1/src/exe/rbdock.cxx#4 $)

>  <Rbt.Library>
libRbt.so (2013.1, Build901 2013/11/27)

>  <Rbt.Parameter_File>
/export/apps/rDock/src/rDock_2013.1_src/data/scripts/dock_solv.prm

>  <Rbt.Receptor>
prm/pocket_docking_7.prm

>  <SCORE>
-7.55291

>  <SCORE.INTER>
1.86634

>  <SCORE.INTER.CONST>
1

>  <SCORE.INTER.POLAR>
-0.691277

>  <SCORE.INTER.ROT>
14

>  <SCORE.INTER.SOLV>
16.9302

>  <SCORE.INTER.VDW>
-15.0282

>  <SCORE.INTER.norm>
0.0518428

>  <SCORE.INTRA>
-9.41925

>  <SCORE.INTRA.DIHEDRAL>
-17.0754

>  <SCORE.INTRA.DIHEDRAL.0>
26.3805

>  <SCORE.INTRA.POLAR>
0

>  <SCORE.INTRA.POLAR.0>
0

>  <SCORE.INTRA.REPUL>
0

>  <SCORE.INTRA.REPUL.0>
0

>  <SCORE.INTRA.SOLV>
2.71648

>  <SCORE.INTRA.SOLV.lig_0>
-98.5587

>  <SCORE.INTRA.VDW>
-2.2398

>  <SCORE.INTRA.VDW.0>
-2.91167

>  <SCORE.INTRA.norm>
-0.261646

>  <SCORE.RESTR>
0

>  <SCORE.RESTR.CAVITY>
0

>  <SCORE.RESTR.norm>
0

>  <SCORE.SYSTEM>
0

>  <SCORE.SYSTEM.CONST>
0

>  <SCORE.SYSTEM.DIHEDRAL>
0

>  <SCORE.SYSTEM.SOLV>
0

>  <SCORE.SYSTEM.norm>
0

>  <SCORE.heavy>
36

>  <SCORE.norm>
-0.209803

>  <RMSD>
7.470

$$$$
2f4u_lig
 OpenBabel11021811433D
libRbt.so/2013.1/901 2013/11/27
 36 37  0  0  0  0  0  0  0  0999 V2000
   38.9338   13.0039    0.9305 C   0  0  2  0  0  0  0  0  0  0  0  0
   38.2097   12.6395    2.1637 O   0  0  0  0  0  0  0  0  0  0  0  0
   35.8478    9.1986    3.3789 C   0  0  2  0  0  0  0  0  0  0  0  0
   35.4536    7.7781    3.5831 N   0  0  0  0  0  0  0  0  0  0  0  0
   40.4343   12.6502    1.1707 C   0  0  2  0  0  0  0  0  0  0  0  0
   40.6385   11.2244    1.4863 N   0  0  0  0  0  0  0  0  0  0  0  0
   36.0656    9.5289    1.8602 C   0  0  0  0  0  0  0  0  0  0  0  0
   34.5165    7.5798    5.0897 C   0  0  0  0  0  0  0  0  0  0  0  0
   34.6072    6.1173    4.7855 C   0  0  1  0  0  0  0  0  0  0  0  0
   34.7063    5.3809    6.1262 C   0  0  0  0  0  0  0  0  0  0  0  0
   34.8524    3.8503    6.0419 C   0  0  0  0  0  0  0  0  0  0  0  0
   34.8642    3.3078    7.4018 N   0  0  0  0  0  0  0  0  0  0  0  0
   33.4390    5.6803    4.1463 O   0  0  0  0  0  0  0  0  0  0  0  0
   37.1716    8.9528    6.8941 C   0  0  0  0  0  0  0  0  0  0  0  0
   38.3028    7.9462    7.0424 C   0  0  0  0  0  0  0  0  0  0  0  0
   40.9829   13.5415    2.3340 C   0  0  1  0  0  0  0  0  0  0  0  0
   38.5601    7.5270    8.4349 N   0  0  0  0  0  0  0  0  0  0  0  0
   42.3519   13.2484    2.6011 O   0  0  0  0  0  0  0  0  0  0  0  0
   36.5273   10.9873    1.6641 C   0  0  2  0  0  0  0  0  0  0  0  0
   36.7731   11.2803    0.2577 N   0  0  0  0  0  0  0  0  0  0  0  0
   39.5484    6.0912   10.2131 C   0  0  0  0  0  0  0  0  0  0  0  0
   40.2950    4.7704   10.5687 C   0  0  0  0  0  0  0  0  0  0  0  0
   39.2478    6.2365    8.6984 C   0  0  0  0  0  0  0  0  0  0  0  0
   39.5262    3.5635   10.1402 N   0  0  0  0  0  0  0  0  0  0  0  0
   34.1403    8.2296    5.8628 O   0  0  0  0  0  0  0  0  0  0  0  0
   40.7901   15.0195    1.9397 C   0  0  2  0  0  0  0  0  0  0  0  0
   41.2536   15.9174    2.9451 O   0  0  0  0  0  0  0  0  0  0  0  0
   37.8073   11.2442    2.4340 C   0  0  2  0  0  0  0  0  0  0  0  0
   39.3103   15.3184    1.6387 C   0  0  2  0  0  0  0  0  0  0  0  0
   38.7994   14.4248    0.6435 O   0  0  0  0  0  0  0  0  0  0  0  0
   37.5750   10.9568    3.9728 C   0  0  2  0  0  0  0  0  0  0  0  0
   38.8286   11.1947    4.6871 O   0  0  0  0  0  0  0  0  0  0  0  0
   39.1088   16.7352    1.1715 C   0  0  0  0  0  0  0  0  0  0  0  0
   39.7991   16.9597    0.0017 O   0  0  0  0  0  0  0  0  0  0  0  0
   37.1276    9.4659    4.1464 C   0  0  1  0  0  0  0  0  0  0  0  0
   36.9079    9.1372    5.4873 O   0  0  0  0  0  0  0  0  0  0  0  0
  1  2  1  1  0  0  0
  1  5  1  0  0  0  0
  1 30  1  0  0  0  0
  3  4  1  6  0  0  0
  3  7  1  0  0  0  0
  3 35  1  0  0  0  0
  5  6  1  1  0  0  0
  5 16  1  0  0  0  0
  7 19  1  0  0  0  0
  8  4  1  0  0  0  0
  8 25  2  0  0  0  0
  9  8  1  1  0  0  0
  9 10  1  0  0  0  0
  9 13  1  0  0  0  0
 10 11  1  0  0  0  0
 11 12  1  0  0  0  0
 14 15  1  0  0  0  0
 14 36  1  0  0  0  0
 15 17  1  0  0  0  0
 16 18  1  6  0  0  0
 16 26  1  0  0  0  0
 17 23  1  0  0  0  0
 19 20  1  6  0  0  0
 19 28  1  0  0  0  0
 21 22  1  0  0  0  0
 21 23  1  0  0  0  0
 22 24  1  0  0  0  0
 26 27  1  1  0  0  0
 26 29  1  0  0  0  0
 28  2  1  1  0  0  0
 28 31  1  0  0  0  0
 29 30  1  0  0  0  0
 29 33  1  6  0  0  0
 31 32  1  1  0  0  0
 31 35  1  0  0  0  0
 33 34  1  0  0  0  0
 35 36  1  1  0  0  0
M  END
>  <CHROM.1>
-80.89086741,-154.08668765,145.69486970,-178.23399894,-177.16619544,-172.37613438
-60.66609421,157.67839712,173.56183107,-58.01665055,-178.94531226,-81.34054163
61.52959916,-179.97498857,37.88742528,9.95189156,4.21608886,1.25031591,-0.54333765
-0.76578588

>  <Name>
2f4u_lig

>  <RI>
0

>  <Rbt.Current_Directory>
/home/itssahil/PROJECTS/Mol_Feturizer/New_Systems/rnas/2f4u

>  <Rbt.Executable>
rbdock ($Id: //depot/dev/client3/rdock/2013.1/src/exe/rbdock.cxx#4 $)

>  <Rbt.Library>
libRbt.so (2013.1, Build901 2013/11/27)

>  <Rbt.Parameter_File>
/export/apps/rDock/src/rDock_2013.1_src/data/scripts/dock_solv.prm

>  <Rbt.Receptor>
prm/pocket_docking_7.prm

>  <SCORE>
-26.5625

>  <SCORE.INTER>
-16.9628

>  <SCORE.INTER.CONST>
1

>  <SCORE.INTER.POLAR>
-1.40408

>  <SCORE.INTER.ROT>
14

>  <SCORE.INTER.SOLV>
18.0778

>  <SCORE.INTER.VDW>
-25.5875

>  <SCORE.INTER.norm>
-0.471189

>  <SCORE.INTRA>
-9.59976

>  <SCORE.INTRA.DIHEDRAL>
-19.5135

>  <SCORE.INTRA.DIHEDRAL.0>
26.3805

>  <SCORE.INTRA.POLAR>
0

>  <SCORE.INTRA.POLAR.0>
0

>  <SCORE.INTRA.REPUL>
0

>  <SCORE.INTRA.REPUL.0>
0

>  <SCORE.INTRA.SOLV>
3.36992

>  <SCORE.INTRA.SOLV.lig_0>
-98.5587

>  <SCORE.INTRA.VDW>
-1.52796

>  <SCORE.INTRA.VDW.0>
-2.91167

>  <SCORE.INTRA.norm>
-0.26666

>  <SCORE.RESTR>
0

>  <SCORE.RESTR.CAVITY>
0

>  <SCORE.RESTR.norm>
0

>  <SCORE.SYSTEM>
0

>  <SCORE.SYSTEM.CONST>
0

>  <SCORE.SYSTEM.DIHEDRAL>
0

>  <SCORE.SYSTEM.SOLV>
0

>  <SCORE.SYSTEM.norm>
0

>  <SCORE.heavy>
36

>  <SCORE.norm>
-0.737849

>  <RMSD>
7.498

$$$$
2f4u_lig
 OpenBabel11021811433D
libRbt.so/2013.1/901 2013/11/27
 36 37  0  0  0  0  0  0  0  0999 V2000
   39.0682   13.1919    2.3050 C   0  0  2  0  0  0  0  0  0  0  0  0
   37.8757   12.4783    1.8086 O   0  0  0  0  0  0  0  0  0  0  0  0
   35.7021    9.1388    3.5460 C   0  0  2  0  0  0  0  0  0  0  0  0
   35.3787    7.7444    3.9531 N   0  0  0  0  0  0  0  0  0  0  0  0
   39.1650   14.5212    1.4941 C   0  0  2  0  0  0  0  0  0  0  0  0
   37.9632   15.3633    1.6380 N   0  0  0  0  0  0  0  0  0  0  0  0
   35.8729    9.2656    1.9911 C   0  0  0  0  0  0  0  0  0  0  0  0
   36.6877    6.6197    3.4956 C   0  0  0  0  0  0  0  0  0  0  0  0
   35.7474    5.5570    3.9713 C   0  0  1  0  0  0  0  0  0  0  0  0
   35.4904    4.6168    2.7884 C   0  0  0  0  0  0  0  0  0  0  0  0
   34.3689    3.5803    2.9864 C   0  0  0  0  0  0  0  0  0  0  0  0
   34.2777    2.7564    1.7794 N   0  0  0  0  0  0  0  0  0  0  0  0
   36.3424    4.8028    4.9918 O   0  0  0  0  0  0  0  0  0  0  0  0
   37.1138    9.4205    7.0240 C   0  0  0  0  0  0  0  0  0  0  0  0
   35.8468    9.0750    7.7922 C   0  0  0  0  0  0  0  0  0  0  0  0
   39.4015   14.1764   -0.0139 C   0  0  1  0  0  0  0  0  0  0  0  0
   36.0277    9.0055    9.2562 N   0  0  0  0  0  0  0  0  0  0  0  0
   39.4865   15.3608   -0.8022 O   0  0  0  0  0  0  0  0  0  0  0  0
   36.2620   10.7017    1.5850 C   0  0  2  0  0  0  0  0  0  0  0  0
   36.4650   10.8083    0.1456 N   0  0  0  0  0  0  0  0  0  0  0  0
   35.4234   11.1478   10.3721 C   0  0  0  0  0  0  0  0  0  0  0  0
   36.8580   11.3331   10.9516 C   0  0  0  0  0  0  0  0  0  0  0  0
   35.0390    9.6616   10.1505 C   0  0  0  0  0  0  0  0  0  0  0  0
   37.9117   10.9842    9.9519 N   0  0  0  0  0  0  0  0  0  0  0  0
   37.6577    6.7023    3.0333 O   0  0  0  0  0  0  0  0  0  0  0  0
   40.6901   13.3364   -0.1190 C   0  0  2  0  0  0  0  0  0  0  0  0
   40.9892   12.9618   -1.4613 O   0  0  0  0  0  0  0  0  0  0  0  0
   37.5443   11.1175    2.2780 C   0  0  2  0  0  0  0  0  0  0  0  0
   40.5912   12.0691    0.7492 C   0  0  2  0  0  0  0  0  0  0  0  0
   40.2739   12.4008    2.1055 O   0  0  0  0  0  0  0  0  0  0  0  0
   37.3574   11.0352    3.8473 C   0  0  2  0  0  0  0  0  0  0  0  0
   38.6129   11.4235    4.4884 O   0  0  0  0  0  0  0  0  0  0  0  0
   41.8694   11.2742    0.7278 C   0  0  0  0  0  0  0  0  0  0  0  0
   42.9135   12.0275    1.2151 O   0  0  0  0  0  0  0  0  0  0  0  0
   36.9835    9.5645    4.2352 C   0  0  1  0  0  0  0  0  0  0  0  0
   36.8070    9.4147    5.6138 O   0  0  0  0  0  0  0  0  0  0  0  0
  1  2  1  6  0  0  0
  1  5  1  0  0  0  0
  1 30  1  0  0  0  0
  3  4  1  6  0  0  0
  3  7  1  0  0  0  0
  3 35  1  0  0  0  0
  5  6  1  6  0  0  0
  5 16  1  0  0  0  0
  7 19  1  0  0  0  0
  8  4  1  0  0  0  0
  8 25  2  0  0  0  0
  9  8  1  6  0  0  0
  9 10  1  0  0  0  0
  9 13  1  0  0  0  0
 10 11  1  0  0  0  0
 11 12  1  0  0  0  0
 14 15  1  0  0  0  0
 14 36  1  0  0  0  0
 15 17  1  0  0  0  0
 16 18  1  6  0  0  0
 16 26  1  0  0  0  0
 17 23  1  0  0  0  0
 19 20  1  6  0  0  0
 19 28  1  0  0  0  0
 21 22  1  0  0  0  0
 21 23  1  0  0  0  0
 22 24  1  0  0  0  0
 26 27  1  6  0  0  0
 26 29  1  0  0  0  0
 28  2  1  1  0  0  0
 28 31  1  0  0  0  0
 29 30  1  0  0  0  0
 29 33  1  1  0  0  0
 31 32  1  1  0  0  0
 31 35  1  0  0  0  0
 33 34  1  0  0  0  0
 35 36  1  1  0  0  0
M  END
>  <CHROM.1>
174.65557364,61.26621705,120.96327364,-170.31433140,-178.93251986,178.26545038
175.50730267,134.44806132,-86.95702692,69.97258804,-56.79315735,179.27806326
60.36917612,177.96953061,37.60058481,10.14203965,3.59471946,-0.26277880,1.08442459
1.07652832

>  <Name>
2f4u_lig

>  <RI>
0

>  <Rbt.Current_Directory>
/home/itssahil/PROJECTS/Mol_Feturizer/New_Systems/rnas/2f4u

>  <Rbt.Executable>
rbdock ($Id: //depot/dev/client3/rdock/2013.1/src/exe/rbdock.cxx#4 $)

>  <Rbt.Library>
libRbt.so (2013.1, Build901 2013/11/27)

>  <Rbt.Parameter_File>
/export/apps/rDock/src/rDock_2013.1_src/data/scripts/dock_solv.prm

>  <Rbt.Receptor>
prm/pocket_docking_7.prm

>  <SCORE>
-33.8935

>  <SCORE.INTER>
-23.4267

>  <SCORE.INTER.CONST>
1

>  <SCORE.INTER.POLAR>
-2.57472

>  <SCORE.INTER.ROT>
14

>  <SCORE.INTER.SOLV>
23.885

>  <SCORE.INTER.VDW>
-27.9304

>  <SCORE.INTER.norm>
-0.650741

>  <SCORE.INTRA>
-10.4668

>  <SCORE.INTRA.DIHEDRAL>
-21.3514

>  <SCORE.INTRA.DIHEDRAL.0>
26.3805

>  <SCORE.INTRA.POLAR>
0

>  <SCORE.INTRA.POLAR.0>
0

>  <SCORE.INTRA.REPUL>
0

>  <SCORE.INTRA.REPUL.0>
0

>  <SCORE.INTRA.SOLV>
3.41213

>  <SCORE.INTRA.SOLV.lig_0>
-98.5587

>  <SCORE.INTRA.VDW>
-1.49717

>  <SCORE.INTRA.VDW.0>
-2.91167

>  <SCORE.INTRA.norm>
-0.290744

>  <SCORE.RESTR>
0

>  <SCORE.RESTR.CAVITY>
0

>  <SCORE.RESTR.norm>
0

>  <SCORE.SYSTEM>
0

>  <SCORE.SYSTEM.CONST>
0

>  <SCORE.SYSTEM.DIHEDRAL>
0

>  <SCORE.SYSTEM.SOLV>
0

>  <SCORE.SYSTEM.norm>
0

>  <SCORE.heavy>
36

>  <SCORE.norm>
-0.941485

>  <RMSD>
7.515

$$$$
2f4u_lig
 OpenBabel11021811433D
libRbt.so/2013.1/901 2013/11/27
 36 37  0  0  0  0  0  0  0  0999 V2000
   37.2797   13.1756   -0.4907 C   0  0  2  0  0  0  0  0  0  0  0  0
   38.4360   12.5851    0.2108 O   0  0  0  0  0  0  0  0  0  0  0  0
   38.6165   10.0313    3.7237 C   0  0  2  0  0  0  0  0  0  0  0  0
   38.5537    9.6147    5.1511 N   0  0  0  0  0  0  0  0  0  0  0  0
   37.6520   13.2256   -2.0050 C   0  0  2  0  0  0  0  0  0  0  0  0
   37.9655   11.8949   -2.5573 N   0  0  0  0  0  0  0  0  0  0  0  0
   39.6828   11.1597    3.4939 C   0  0  0  0  0  0  0  0  0  0  0  0
   38.3716    7.8447    5.2981 C   0  0  0  0  0  0  0  0  0  0  0  0
   38.2178    8.1251    6.7601 C   0  0  1  0  0  0  0  0  0  0  0  0
   37.5054    6.9180    7.3805 C   0  0  0  0  0  0  0  0  0  0  0  0
   38.2443    5.5717    7.2673 C   0  0  0  0  0  0  0  0  0  0  0  0
   39.3809    5.5851    8.1904 N   0  0  0  0  0  0  0  0  0  0  0  0
   39.4753    8.2351    7.3690 O   0  0  0  0  0  0  0  0  0  0  0  0
   35.0759    8.7833    3.5080 C   0  0  0  0  0  0  0  0  0  0  0  0
   35.1534    7.6548    4.5255 C   0  0  0  0  0  0  0  0  0  0  0  0
   38.8729   14.1862   -2.1931 C   0  0  1  0  0  0  0  0  0  0  0  0
   34.9424    6.3097    3.9535 N   0  0  0  0  0  0  0  0  0  0  0  0
   39.2606   14.2585   -3.5627 O   0  0  0  0  0  0  0  0  0  0  0  0
   39.7010   11.6229    2.0229 C   0  0  2  0  0  0  0  0  0  0  0  0
   40.6593   12.7020    1.8194 N   0  0  0  0  0  0  0  0  0  0  0  0
   32.7591    5.4262    4.7614 C   0  0  0  0  0  0  0  0  0  0  0  0
   32.1206    5.1269    3.3718 C   0  0  0  0  0  0  0  0  0  0  0  0
   34.3004    5.2533    4.7778 C   0  0  0  0  0  0  0  0  0  0  0  0
   32.2344    3.6830    3.0061 N   0  0  0  0  0  0  0  0  0  0  0  0
   38.3298    7.0083    4.6198 O   0  0  0  0  0  0  0  0  0  0  0  0
   38.4828   15.5732   -1.6444 C   0  0  2  0  0  0  0  0  0  0  0  0
   39.5386   16.5234   -1.7626 O   0  0  0  0  0  0  0  0  0  0  0  0
   38.3303   12.1198    1.6087 C   0  0  2  0  0  0  0  0  0  0  0  0
   38.0511   15.4783   -0.1699 C   0  0  2  0  0  0  0  0  0  0  0  0
   37.0010   14.5191   -0.0043 O   0  0  0  0  0  0  0  0  0  0  0  0
   37.2623   10.9670    1.7955 C   0  0  2  0  0  0  0  0  0  0  0  0
   35.9491   11.4790    1.4064 O   0  0  0  0  0  0  0  0  0  0  0  0
   37.5867   16.8068    0.3645 C   0  0  0  0  0  0  0  0  0  0  0  0
   36.4572   17.2260   -0.3016 O   0  0  0  0  0  0  0  0  0  0  0  0
   37.2490   10.5294    3.2994 C   0  0  1  0  0  0  0  0  0  0  0  0
   36.3208    9.5125    3.5413 O   0  0  0  0  0  0  0  0  0  0  0  0
  1  2  1  1  0  0  0
  1  5  1  0  0  0  0
  1 30  1  0  0  0  0
  3  4  1  1  0  0  0
  3  7  1  0  0  0  0
  3 35  1  0  0  0  0
  5  6  1  1  0  0  0
  5 16  1  0  0  0  0
  7 19  1  0  0  0  0
  8  4  1  0  0  0  0
  8 25  2  0  0  0  0
  9  8  1  6  0  0  0
  9 10  1  0  0  0  0
  9 13  1  0  0  0  0
 10 11  1  0  0  0  0
 11 12  1  0  0  0  0
 14 15  1  0  0  0  0
 14 36  1  0  0  0  0
 15 17  1  0  0  0  0
 16 18  1  6  0  0  0
 16 26  1  0  0  0  0
 17 23  1  0  0  0  0
 19 20  1  1  0  0  0
 19 28  1  0  0  0  0
 21 22  1  0  0  0  0
 21 23  1  0  0  0  0
 22 24  1  0  0  0  0
 26 27  1  1  0  0  0
 26 29  1  0  0  0  0
 28  2  1  6  0  0  0
 28 31  1  0  0  0  0
 29 30  1  0  0  0  0
 29 33  1  6  0  0  0
 31 32  1  1  0  0  0
 31 35  1  0  0  0  0
 33 34  1  0  0  0  0
 35 36  1  6  0  0  0
M  END
>  <CHROM.1>
-166.72564625,-139.67777326,159.28092072,61.23735265,72.86296388,-122.35174703
-168.23582770,-148.19444698,81.14061746,67.35286652,68.42476631,-178.03114885
63.90285022,-168.53049150,37.35788269,10.50226507,2.43515691,1.33258383,-0.57234004
-0.78656948

>  <Name>
2f4u_lig

>  <RI>
0

>  <Rbt.Current_Directory>
/home/itssahil/PROJECTS/Mol_Feturizer/New_Systems/rnas/2f4u

>  <Rbt.Executable>
rbdock ($Id: //depot/dev/client3/rdock/2013.1/src/exe/rbdock.cxx#4 $)

>  <Rbt.Library>
libRbt.so (2013.1, Build901 2013/11/27)

>  <Rbt.Parameter_File>
/export/apps/rDock/src/rDock_2013.1_src/data/scripts/dock_solv.prm

>  <Rbt.Receptor>
prm/pocket_docking_8.prm

>  <SCORE>
-20.7949

>  <SCORE.INTER>
-14.1517

>  <SCORE.INTER.CONST>
1

>  <SCORE.INTER.POLAR>
-1.79124

>  <SCORE.INTER.ROT>
14

>  <SCORE.INTER.SOLV>
14.3853

>  <SCORE.INTER.VDW>
-21.1921

>  <SCORE.INTER.norm>
-0.393103

>  <SCORE.INTRA>
-6.64319

>  <SCORE.INTRA.DIHEDRAL>
-14.5328

>  <SCORE.INTRA.DIHEDRAL.0>
26.3805

>  <SCORE.INTRA.POLAR>
0

>  <SCORE.INTRA.POLAR.0>
0

>  <SCORE.INTRA.REPUL>
0

>  <SCORE.INTRA.REPUL.0>
0

>  <SCORE.INTRA.SOLV>
4.3766

>  <SCORE.INTRA.SOLV.lig_0>
-98.5587

>  <SCORE.INTRA.VDW>
-1.56508

>  <SCORE.INTRA.VDW.0>
-2.91167

>  <SCORE.INTRA.norm>
-0.184533

>  <SCORE.RESTR>
0

>  <SCORE.RESTR.CAVITY>
0

>  <SCORE.RESTR.norm>
0

>  <SCORE.SYSTEM>
0

>  <SCORE.SYSTEM.CONST>
0

>  <SCORE.SYSTEM.DIHEDRAL>
0

>  <SCORE.SYSTEM.SOLV>
0

>  <SCORE.SYSTEM.norm>
0

>  <SCORE.heavy>
36

>  <SCORE.norm>
-0.577636

>  <RMSD>
7.517

$$$$
2f4u_lig
 OpenBabel11021811433D
libRbt.so/2013.1/901 2013/11/27
 36 37  0  0  0  0  0  0  0  0999 V2000
   41.8352    3.6499    4.3115 C   0  0  2  0  0  0  0  0  0  0  0  0
   41.9856    3.0411    5.6474 O   0  0  0  0  0  0  0  0  0  0  0  0
   39.4807    3.8773    9.1001 C   0  0  2  0  0  0  0  0  0  0  0  0
   38.9950    4.5281   10.3473 N   0  0  0  0  0  0  0  0  0  0  0  0
   42.6959    2.7953    3.3302 C   0  0  2  0  0  0  0  0  0  0  0  0
   42.2859    1.3793    3.3004 N   0  0  0  0  0  0  0  0  0  0  0  0
   40.9230    3.2846    9.2774 C   0  0  0  0  0  0  0  0  0  0  0  0
   38.5336    3.3124   11.5707 C   0  0  0  0  0  0  0  0  0  0  0  0
   38.0502    4.4924   12.3540 C   0  0  1  0  0  0  0  0  0  0  0  0
   36.7849    4.0538   13.0997 C   0  0  0  0  0  0  0  0  0  0  0  0
   35.5158    3.9081   12.2399 C   0  0  0  0  0  0  0  0  0  0  0  0
   35.7193    2.8118   11.2910 N   0  0  0  0  0  0  0  0  0  0  0  0
   39.0023    4.8619   13.3139 O   0  0  0  0  0  0  0  0  0  0  0  0
   36.7631    5.4702    7.6990 C   0  0  0  0  0  0  0  0  0  0  0  0
   36.2921    6.8971    7.9373 C   0  0  0  0  0  0  0  0  0  0  0  0
   44.1999    2.9102    3.7467 C   0  0  1  0  0  0  0  0  0  0  0  0
   34.8349    7.0855    7.7884 N   0  0  0  0  0  0  0  0  0  0  0  0
   45.0300    2.1359    2.8849 O   0  0  0  0  0  0  0  0  0  0  0  0
   41.4386    2.6618    7.9641 C   0  0  2  0  0  0  0  0  0  0  0  0
   42.7955    2.1520    8.1168 N   0  0  0  0  0  0  0  0  0  0  0  0
   32.7253    8.3996    7.6379 C   0  0  0  0  0  0  0  0  0  0  0  0
   32.0000    7.7364    8.8472 C   0  0  0  0  0  0  0  0  0  0  0  0
   34.2662    8.4581    7.8044 C   0  0  0  0  0  0  0  0  0  0  0  0
   32.1547    8.5389   10.0976 N   0  0  0  0  0  0  0  0  0  0  0  0
   38.5501    2.2373   11.6434 O   0  0  0  0  0  0  0  0  0  0  0  0
   44.5943    4.4004    3.7189 C   0  0  2  0  0  0  0  0  0  0  0  0
   45.9529    4.6123    4.0945 O   0  0  0  0  0  0  0  0  0  0  0  0
   41.4408    3.6946    6.8549 C   0  0  2  0  0  0  0  0  0  0  0  0
   43.6803    5.2272    4.6411 C   0  0  2  0  0  0  0  0  0  0  0  0
   42.3020    5.0289    4.3078 O   0  0  0  0  0  0  0  0  0  0  0  0
   39.9773    4.2584    6.6435 C   0  0  2  0  0  0  0  0  0  0  0  0
   40.0125    5.2638    5.5823 O   0  0  0  0  0  0  0  0  0  0  0  0
   43.9929    6.6979    4.5677 C   0  0  0  0  0  0  0  0  0  0  0  0
   43.1167    7.4164    5.3494 O   0  0  0  0  0  0  0  0  0  0  0  0
   39.4856    4.9028    7.9837 C   0  0  1  0  0  0  0  0  0  0  0  0
   38.1955    5.4290    7.8700 O   0  0  0  0  0  0  0  0  0  0  0  0
  1  2  1  1  0  0  0
  1  5  1  0  0  0  0
  1 30  1  0  0  0  0
  3  4  1  1  0  0  0
  3  7  1  0  0  0  0
  3 35  1  0  0  0  0
  5  6  1  1  0  0  0
  5 16  1  0  0  0  0
  7 19  1  0  0  0  0
  8  4  1  0  0  0  0
  8 25  2  0  0  0  0
  9  8  1  1  0  0  0
  9 10  1  0  0  0  0
  9 13  1  0  0  0  0
 10 11  1  0  0  0  0
 11 12  1  0  0  0  0
 14 15  1  0  0  0  0
 14 36  1  0  0  0  0
 15 17  1  0  0  0  0
 16 18  1  6  0  0  0
 16 26  1  0  0  0  0
 17 23  1  0  0  0  0
 19 20  1  1  0  0  0
 19 28  1  0  0  0  0
 21 22  1  0  0  0  0
 21 23  1  0  0  0  0
 22 24  1  0  0  0  0
 26 27  1  1  0  0  0
 26 29  1  0  0  0  0
 28  2  1  6  0  0  0
 28 31  1  0  0  0  0
 29 30  1  0  0  0  0
 29 33  1  6  0  0  0
 31 32  1  6  0  0  0
 31 35  1  0  0  0  0
 33 34  1  0  0  0  0
 35 36  1  6  0  0  0
M  END
>  <CHROM.1>
172.19066968,-74.55640847,144.02277631,-74.52253718,65.45712500,179.77461474
173.00103921,-171.42949347,-179.77645592,64.99305013,66.59276213,165.30298235
176.94364934,-55.62407775,39.63151150,4.67045961,7.56238200,0.40017589,0.51110459
-1.06341649

>  <Name>
2f4u_lig

>  <RI>
0

>  <Rbt.Current_Directory>
/home/itssahil/PROJECTS/Mol_Feturizer/New_Systems/rnas/2f4u

>  <Rbt.Executable>
rbdock ($Id: //depot/dev/client3/rdock/2013.1/src/exe/rbdock.cxx#4 $)

>  <Rbt.Library>
libRbt.so (2013.1, Build901 2013/11/27)

>  <Rbt.Parameter_File>
/export/apps/rDock/src/rDock_2013.1_src/data/scripts/dock_solv.prm

>  <Rbt.Receptor>
prm/pocket_docking_6.prm

>  <SCORE>
-11.0225

>  <SCORE.INTER>
-1.10726

>  <SCORE.INTER.CONST>
1

>  <SCORE.INTER.POLAR>
-0.72945

>  <SCORE.INTER.ROT>
14

>  <SCORE.INTER.SOLV>
9.15335

>  <SCORE.INTER.VDW>
-14.2911

>  <SCORE.INTER.norm>
-0.0307573

>  <SCORE.INTRA>
-9.91527

>  <SCORE.INTRA.DIHEDRAL>
-21.5902

>  <SCORE.INTRA.DIHEDRAL.0>
26.3805

>  <SCORE.INTRA.POLAR>
0

>  <SCORE.INTRA.POLAR.0>
0

>  <SCORE.INTRA.REPUL>
0

>  <SCORE.INTRA.REPUL.0>
0

>  <SCORE.INTRA.SOLV>
3.45335

>  <SCORE.INTRA.SOLV.lig_0>
-98.5587

>  <SCORE.INTRA.VDW>
-0.846817

>  <SCORE.INTRA.VDW.0>
-2.91167

>  <SCORE.INTRA.norm>
-0.275424

>  <SCORE.RESTR>
0

>  <SCORE.RESTR.CAVITY>
0

>  <SCORE.RESTR.norm>
0

>  <SCORE.SYSTEM>
0

>  <SCORE.SYSTEM.CONST>
0

>  <SCORE.SYSTEM.DIHEDRAL>
0

>  <SCORE.SYSTEM.SOLV>
0

>  <SCORE.SYSTEM.norm>
0

>  <SCORE.heavy>
36

>  <SCORE.norm>
-0.306181

>  <RMSD>
7.533

$$$$
2f4u_lig
 OpenBabel11021811433D
libRbt.so/2013.1/901 2013/11/27
 36 37  0  0  0  0  0  0  0  0999 V2000
   42.8213    4.6998    3.5048 C   0  0  2  0  0  0  0  0  0  0  0  0
   42.6942    3.2296    3.5136 O   0  0  0  0  0  0  0  0  0  0  0  0
   39.1485    2.5685    5.9398 C   0  0  2  0  0  0  0  0  0  0  0  0
   38.0874    1.8461    6.6929 N   0  0  0  0  0  0  0  0  0  0  0  0
   43.5795    5.0762    2.1942 C   0  0  2  0  0  0  0  0  0  0  0  0
   42.8820    4.6117    0.9809 N   0  0  0  0  0  0  0  0  0  0  0  0
   39.1797    2.1451    4.4289 C   0  0  0  0  0  0  0  0  0  0  0  0
   37.0728    2.9812    7.6253 C   0  0  0  0  0  0  0  0  0  0  0  0
   36.4459    1.7412    8.1811 C   0  0  1  0  0  0  0  0  0  0  0  0
   35.7827    2.1247    9.5087 C   0  0  0  0  0  0  0  0  0  0  0  0
   35.1255    0.9709   10.2886 C   0  0  0  0  0  0  0  0  0  0  0  0
   33.9658    0.4973    9.5304 N   0  0  0  0  0  0  0  0  0  0  0  0
   35.4399    1.2780    7.3222 O   0  0  0  0  0  0  0  0  0  0  0  0
   40.3225    3.4733    9.0977 C   0  0  0  0  0  0  0  0  0  0  0  0
   39.7821    2.6343   10.2460 C   0  0  0  0  0  0  0  0  0  0  0  0
   45.0198    4.4672    2.2517 C   0  0  1  0  0  0  0  0  0  0  0  0
   39.1324    3.4195   11.3148 N   0  0  0  0  0  0  0  0  0  0  0  0
   45.7527    4.7743    1.0684 O   0  0  0  0  0  0  0  0  0  0  0  0
   40.3178    2.8577    3.6702 C   0  0  2  0  0  0  0  0  0  0  0  0
   40.3750    2.4302    2.2780 N   0  0  0  0  0  0  0  0  0  0  0  0
   37.3943    3.8835   13.0364 C   0  0  0  0  0  0  0  0  0  0  0  0
   36.6836    5.0497   12.2860 C   0  0  0  0  0  0  0  0  0  0  0  0
   38.0081    2.8251   12.0831 C   0  0  0  0  0  0  0  0  0  0  0  0
   36.1300    6.0649   13.2316 N   0  0  0  0  0  0  0  0  0  0  0  0
   37.0162    4.0500    7.7515 O   0  0  0  0  0  0  0  0  0  0  0  0
   45.7243    5.0159    3.5086 C   0  0  2  0  0  0  0  0  0  0  0  0
   47.0486    4.5098    3.6566 O   0  0  0  0  0  0  0  0  0  0  0  0
   41.6547    2.5536    4.3163 C   0  0  2  0  0  0  0  0  0  0  0  0
   44.9147    4.6914    4.7769 C   0  0  2  0  0  0  0  0  0  0  0  0
   43.5696    5.1687    4.6622 O   0  0  0  0  0  0  0  0  0  0  0  0
   41.6400    3.0236    5.8274 C   0  0  2  0  0  0  0  0  0  0  0  0
   42.9331    2.7019    6.4295 O   0  0  0  0  0  0  0  0  0  0  0  0
   45.5405    5.2884    6.0091 C   0  0  0  0  0  0  0  0  0  0  0  0
   44.8721    4.8730    7.1386 O   0  0  0  0  0  0  0  0  0  0  0  0
   40.4904    2.2711    6.5794 C   0  0  1  0  0  0  0  0  0  0  0  0
   40.4203    2.6343    7.9275 O   0  0  0  0  0  0  0  0  0  0  0  0
  1  2  1  1  0  0  0
  1  5  1  0  0  0  0
  1 30  1  0  0  0  0
  3  4  1  1  0  0  0
  3  7  1  0  0  0  0
  3 35  1  0  0  0  0
  5  6  1  6  0  0  0
  5 16  1  0  0  0  0
  7 19  1  0  0  0  0
  8  4  1  0  0  0  0
  8 25  2  0  0  0  0
  9  8  1  6  0  0  0
  9 10  1  0  0  0  0
  9 13  1  0  0  0  0
 10 11  1  0  0  0  0
 11 12  1  0  0  0  0
 14 15  1  0  0  0  0
 14 36  1  0  0  0  0
 15 17  1  0  0  0  0
 16 18  1  6  0  0  0
 16 26  1  0  0  0  0
 17 23  1  0  0  0  0
 19 20  1  6  0  0  0
 19 28  1  0  0  0  0
 21 22  1  0  0  0  0
 21 23  1  0  0  0  0
 22 24  1  0  0  0  0
 26 27  1  1  0  0  0
 26 29  1  0  0  0  0
 28  2  1  6  0  0  0
 28 31  1  0  0  0  0
 29 30  1  0  0  0  0
 29 33  1  1  0  0  0
 31 32  1  1  0  0  0
 31 35  1  0  0  0  0
 33 34  1  0  0  0  0
 35 36  1  1  0  0  0
M  END
>  <CHROM.1>
-158.16575483,-129.57835370,158.58571473,-177.32399850,-67.58564527,-156.93592586
157.17532448,148.65674907,-173.92414863,-178.77669736,66.82985042,69.84884008
-174.04908759,-68.24888437,40.51251435,3.40963229,6.63519873,0.65110544,-0.40169979
-1.82498447

>  <Name>
2f4u_lig

>  <RI>
0

>  <Rbt.Current_Directory>
/home/itssahil/PROJECTS/Mol_Feturizer/New_Systems/rnas/2f4u

>  <Rbt.Executable>
rbdock ($Id: //depot/dev/client3/rdock/2013.1/src/exe/rbdock.cxx#4 $)

>  <Rbt.Library>
libRbt.so (2013.1, Build901 2013/11/27)

>  <Rbt.Parameter_File>
/export/apps/rDock/src/rDock_2013.1_src/data/scripts/dock_solv.prm

>  <Rbt.Receptor>
prm/pocket_docking_7.prm

>  <SCORE>
-10.0288

>  <SCORE.INTER>
-0.975827

>  <SCORE.INTER.CONST>
1

>  <SCORE.INTER.POLAR>
-0.87178

>  <SCORE.INTER.ROT>
14

>  <SCORE.INTER.SOLV>
11.0895

>  <SCORE.INTER.VDW>
-14.3745

>  <SCORE.INTER.norm>
-0.0271063

>  <SCORE.INTRA>
-9.05296

>  <SCORE.INTRA.DIHEDRAL>
-15.8671

>  <SCORE.INTRA.DIHEDRAL.0>
26.3805

>  <SCORE.INTRA.POLAR>
0

>  <SCORE.INTRA.POLAR.0>
0

>  <SCORE.INTRA.REPUL>
0

>  <SCORE.INTRA.REPUL.0>
0

>  <SCORE.INTRA.SOLV>
4.05036

>  <SCORE.INTRA.SOLV.lig_0>
-98.5587

>  <SCORE.INTRA.VDW>
-3.14456

>  <SCORE.INTRA.VDW.0>
-2.91167

>  <SCORE.INTRA.norm>
-0.251471

>  <SCORE.RESTR>
0

>  <SCORE.RESTR.CAVITY>
0

>  <SCORE.RESTR.norm>
0

>  <SCORE.SYSTEM>
0

>  <SCORE.SYSTEM.CONST>
0

>  <SCORE.SYSTEM.DIHEDRAL>
0

>  <SCORE.SYSTEM.SOLV>
0

>  <SCORE.SYSTEM.norm>
0

>  <SCORE.heavy>
36

>  <SCORE.norm>
-0.278577

>  <RMSD>
7.538

$$$$
2f4u_lig
 OpenBabel11021811433D
libRbt.so/2013.1/901 2013/11/27
 36 37  0  0  0  0  0  0  0  0999 V2000
   44.2212    5.8768    4.0193 C   0  0  2  0  0  0  0  0  0  0  0  0
   43.2096    5.0089    4.6527 O   0  0  0  0  0  0  0  0  0  0  0  0
   40.2600    5.5773    7.7947 C   0  0  2  0  0  0  0  0  0  0  0  0
   39.6891    5.8888    9.1332 N   0  0  0  0  0  0  0  0  0  0  0  0
   44.6637    5.1633    2.7043 C   0  0  2  0  0  0  0  0  0  0  0  0
   43.5389    4.9243    1.7813 N   0  0  0  0  0  0  0  0  0  0  0  0
   41.2903    4.3954    7.8629 C   0  0  0  0  0  0  0  0  0  0  0  0
   40.9775    6.2517   10.3146 C   0  0  0  0  0  0  0  0  0  0  0  0
   39.8599    6.2832   11.3094 C   0  0  1  0  0  0  0  0  0  0  0  0
   40.4891    6.4933   12.6912 C   0  0  0  0  0  0  0  0  0  0  0  0
   39.5207    6.4273   13.8867 C   0  0  0  0  0  0  0  0  0  0  0  0
   40.2796    6.6705   15.1150 N   0  0  0  0  0  0  0  0  0  0  0  0
   39.0152    7.3728   11.0574 O   0  0  0  0  0  0  0  0  0  0  0  0
   38.7952    8.5757    6.9234 C   0  0  0  0  0  0  0  0  0  0  0  0
   37.6230    7.8281    7.5413 C   0  0  0  0  0  0  0  0  0  0  0  0
   45.3531    3.8077    3.0729 C   0  0  1  0  0  0  0  0  0  0  0  0
   36.3137    8.4787    7.3330 N   0  0  0  0  0  0  0  0  0  0  0  0
   45.7675    3.1094    1.9016 O   0  0  0  0  0  0  0  0  0  0  0  0
   41.9169    4.1173    6.4813 C   0  0  2  0  0  0  0  0  0  0  0  0
   42.9069    3.0500    6.5541 N   0  0  0  0  0  0  0  0  0  0  0  0
   33.9838    9.0472    8.0026 C   0  0  0  0  0  0  0  0  0  0  0  0
   32.7340    8.6649    8.8511 C   0  0  0  0  0  0  0  0  0  0  0  0
   35.1285    8.0046    8.0934 C   0  0  0  0  0  0  0  0  0  0  0  0
   33.0736    8.4897   10.2952 N   0  0  0  0  0  0  0  0  0  0  0  0
   42.0519    6.3335   10.2929 O   0  0  0  0  0  0  0  0  0  0  0  0
   46.5474    4.1117    3.9994 C   0  0  2  0  0  0  0  0  0  0  0  0
   47.2401    2.9325    4.4012 O   0  0  0  0  0  0  0  0  0  0  0  0
   42.5984    5.3625    5.9501 C   0  0  2  0  0  0  0  0  0  0  0  0
   46.0884    4.8796    5.2521 C   0  0  2  0  0  0  0  0  0  0  0  0
   45.3712    6.0654    4.8919 O   0  0  0  0  0  0  0  0  0  0  0  0
   41.5491    6.5417    5.8363 C   0  0  2  0  0  0  0  0  0  0  0  0
   42.2367    7.7328    5.3397 O   0  0  0  0  0  0  0  0  0  0  0  0
   47.2487    5.2601    6.1324 C   0  0  0  0  0  0  0  0  0  0  0  0
   46.8202    5.4967    7.4191 O   0  0  0  0  0  0  0  0  0  0  0  0
   40.9435    6.8177    7.2541 C   0  0  1  0  0  0  0  0  0  0  0  0
   40.0075    7.8558    7.2313 O   0  0  0  0  0  0  0  0  0  0  0  0
  1  2  1  1  0  0  0
  1  5  1  0  0  0  0
  1 30  1  0  0  0  0
  3  4  1  1  0  0  0
  3  7  1  0  0  0  0
  3 35  1  0  0  0  0
  5  6  1  6  0  0  0
  5 16  1  0  0  0  0
  7 19  1  0  0  0  0
  8  4  1  0  0  0  0
  8 25  2  0  0  0  0
  9  8  1  6  0  0  0
  9 10  1  0  0  0  0
  9 13  1  0  0  0  0
 10 11  1  0  0  0  0
 11 12  1  0  0  0  0
 14 15  1  0  0  0  0
 14 36  1  0  0  0  0
 15 17  1  0  0  0  0
 16 18  1  6  0  0  0
 16 26  1  0  0  0  0
 17 23  1  0  0  0  0
 19 20  1  1  0  0  0
 19 28  1  0  0  0  0
 21 22  1  0  0  0  0
 21 23  1  0  0  0  0
 22 24  1  0  0  0  0
 26 27  1  1  0  0  0
 26 29  1  0  0  0  0
 28  2  1  6  0  0  0
 28 31  1  0  0  0  0
 29 30  1  0  0  0  0
 29 33  1  6  0  0  0
 31 32  1  1  0  0  0
 31 35  1  0  0  0  0
 33 34  1  0  0  0  0
 35 36  1  6  0  0  0
M  END
>  <CHROM.1>
178.14828570,56.10481519,175.97015661,-174.57160821,-179.03313755,178.44092853
63.04259282,-168.38255373,165.06298258,58.08738343,-176.33940212,-164.85382352
-158.48297908,-56.06154984,41.40951260,6.08536030,7.24846661,0.55770977,0.35155246
-1.57761936

>  <Name>
2f4u_lig

>  <RI>
0

>  <Rbt.Current_Directory>
/home/itssahil/PROJECTS/Mol_Feturizer/New_Systems/rnas/2f4u

>  <Rbt.Executable>
rbdock ($Id: //depot/dev/client3/rdock/2013.1/src/exe/rbdock.cxx#4 $)

>  <Rbt.Library>
libRbt.so (2013.1, Build901 2013/11/27)

>  <Rbt.Parameter_File>
/export/apps/rDock/src/rDock_2013.1_src/data/scripts/dock_solv.prm

>  <Rbt.Receptor>
prm/pocket_docking_6.prm

>  <SCORE>
-23.8636

>  <SCORE.INTER>
-11.6957

>  <SCORE.INTER.CONST>
1

>  <SCORE.INTER.POLAR>
-1.49459

>  <SCORE.INTER.ROT>
14

>  <SCORE.INTER.SOLV>
17.4088

>  <SCORE.INTER.VDW>
-21.5514

>  <SCORE.INTER.norm>
-0.324879

>  <SCORE.INTRA>
-12.1679

>  <SCORE.INTRA.DIHEDRAL>
-22.3579

>  <SCORE.INTRA.DIHEDRAL.0>
26.3805

>  <SCORE.INTRA.POLAR>
0

>  <SCORE.INTRA.POLAR.0>
0

>  <SCORE.INTRA.REPUL>
0

>  <SCORE.INTRA.REPUL.0>
0

>  <SCORE.INTRA.SOLV>
0.312607

>  <SCORE.INTRA.SOLV.lig_0>
-98.5587

>  <SCORE.INTRA.VDW>
-1.14527

>  <SCORE.INTRA.VDW.0>
-2.91167

>  <SCORE.INTRA.norm>
-0.337997

>  <SCORE.RESTR>
0

>  <SCORE.RESTR.CAVITY>
0

>  <SCORE.RESTR.norm>
0

>  <SCORE.SYSTEM>
0

>  <SCORE.SYSTEM.CONST>
0

>  <SCORE.SYSTEM.DIHEDRAL>
0

>  <SCORE.SYSTEM.SOLV>
0

>  <SCORE.SYSTEM.norm>
0

>  <SCORE.heavy>
36

>  <SCORE.norm>
-0.662876

>  <RMSD>
7.550

$$$$
2f4u_lig
 OpenBabel11021811433D
libRbt.so/2013.1/901 2013/11/27
 36 37  0  0  0  0  0  0  0  0999 V2000
   37.4852    6.1376    9.6825 C   0  0  2  0  0  0  0  0  0  0  0  0
   38.6995    6.9652    9.5463 O   0  0  0  0  0  0  0  0  0  0  0  0
   40.7069    5.1533    6.1430 C   0  0  2  0  0  0  0  0  0  0  0  0
   41.6810    4.9690    5.0330 N   0  0  0  0  0  0  0  0  0  0  0  0
   36.6765    6.7226   10.8816 C   0  0  2  0  0  0  0  0  0  0  0  0
   36.3159    8.1390   10.6868 N   0  0  0  0  0  0  0  0  0  0  0  0
   39.8819    6.4782    5.9784 C   0  0  0  0  0  0  0  0  0  0  0  0
   40.8549    4.9299    3.4508 C   0  0  0  0  0  0  0  0  0  0  0  0
   42.2091    4.5896    2.9122 C   0  0  1  0  0  0  0  0  0  0  0  0
   42.1584    3.1295    2.4485 C   0  0  0  0  0  0  0  0  0  0  0  0
   43.5087    2.5038    2.0529 C   0  0  0  0  0  0  0  0  0  0  0  0
   43.2992    1.0818    1.7735 N   0  0  0  0  0  0  0  0  0  0  0  0
   42.4999    5.3809    1.7926 O   0  0  0  0  0  0  0  0  0  0  0  0
   43.1399    3.0374    8.0836 C   0  0  0  0  0  0  0  0  0  0  0  0
   43.1765    1.8453    7.1390 C   0  0  0  0  0  0  0  0  0  0  0  0
   37.5216    6.5587   12.1884 C   0  0  1  0  0  0  0  0  0  0  0  0
   43.9914    0.7137    7.6253 N   0  0  0  0  0  0  0  0  0  0  0  0
   36.8292    7.0894   13.3154 O   0  0  0  0  0  0  0  0  0  0  0  0
   38.9151    6.6875    7.1617 C   0  0  2  0  0  0  0  0  0  0  0  0
   38.1820    7.9404    7.0313 N   0  0  0  0  0  0  0  0  0  0  0  0
   46.3249    0.7055    8.4940 C   0  0  0  0  0  0  0  0  0  0  0  0
   47.8461    0.7458    8.1585 C   0  0  0  0  0  0  0  0  0  0  0  0
   45.4220    0.6177    7.2359 C   0  0  0  0  0  0  0  0  0  0  0  0
   48.6874    0.7900    9.3921 N   0  0  0  0  0  0  0  0  0  0  0  0
   39.8419    5.0387    3.0996 O   0  0  0  0  0  0  0  0  0  0  0  0
   37.8346    5.0604   12.3741 C   0  0  2  0  0  0  0  0  0  0  0  0
   38.6138    4.8063   13.5403 O   0  0  0  0  0  0  0  0  0  0  0  0
   39.6802    6.7183    8.4697 C   0  0  2  0  0  0  0  0  0  0  0  0
   38.5678    4.4965   11.1438 C   0  0  2  0  0  0  0  0  0  0  0  0
   37.8250    4.7467    9.9455 O   0  0  0  0  0  0  0  0  0  0  0  0
   40.4750    5.3629    8.6588 C   0  0  2  0  0  0  0  0  0  0  0  0
   41.2167    5.4277    9.9173 O   0  0  0  0  0  0  0  0  0  0  0  0
   38.8111    3.0160   11.2664 C   0  0  0  0  0  0  0  0  0  0  0  0
   39.4206    2.5321   10.1309 O   0  0  0  0  0  0  0  0  0  0  0  0
   41.4630    5.1846    7.4566 C   0  0  1  0  0  0  0  0  0  0  0  0
   42.2062    4.0050    7.5595 O   0  0  0  0  0  0  0  0  0  0  0  0
  1  2  1  1  0  0  0
  1  5  1  0  0  0  0
  1 30  1  0  0  0  0
  3  4  1  6  0  0  0
  3  7  1  0  0  0  0
  3 35  1  0  0  0  0
  5  6  1  6  0  0  0
  5 16  1  0  0  0  0
  7 19  1  0  0  0  0
  8  4  1  0  0  0  0
  8 25  2  0  0  0  0
  9  8  1  6  0  0  0
  9 10  1  0  0  0  0
  9 13  1  0  0  0  0
 10 11  1  0  0  0  0
 11 12  1  0  0  0  0
 14 15  1  0  0  0  0
 14 36  1  0  0  0  0
 15 17  1  0  0  0  0
 16 18  1  1  0  0  0
 16 26  1  0  0  0  0
 17 23  1  0  0  0  0
 19 20  1  6  0  0  0
 19 28  1  0  0  0  0
 21 22  1  0  0  0  0
 21 23  1  0  0  0  0
 22 24  1  0  0  0  0
 26 27  1  1  0  0  0
 26 29  1  0  0  0  0
 28  2  1  1  0  0  0
 28 31  1  0  0  0  0
 29 30  1  0  0  0  0
 29 33  1  1  0  0  0
 31 32  1  1  0  0  0
 31 35  1  0  0  0  0
 33 34  1  0  0  0  0
 35 36  1  1  0  0  0
M  END
>  <CHROM.1>
-177.90895154,-58.59954993,110.45119689,-171.10423348,174.18260595,-174.07102562
-178.31102789,-92.46981696,117.33265612,-178.34047029,-174.63605871,52.04889361
177.66650284,174.33134959,40.88198608,4.41950203,7.85531338,2.55013739,-0.63383438
1.72855494

>  <Name>
2f4u_lig

>  <RI>
0

>  <Rbt.Current_Directory>
/home/itssahil/PROJECTS/Mol_Feturizer/New_Systems/rnas/2f4u

>  <Rbt.Executable>
rbdock ($Id: //depot/dev/client3/rdock/2013.1/src/exe/rbdock.cxx#4 $)

>  <Rbt.Library>
libRbt.so (2013.1, Build901 2013/11/27)

>  <Rbt.Parameter_File>
/export/apps/rDock/src/rDock_2013.1_src/data/scripts/dock_solv.prm

>  <Rbt.Receptor>
prm/pocket_docking_6.prm

>  <SCORE>
-16.7255

>  <SCORE.INTER>
-4.37446

>  <SCORE.INTER.CONST>
1

>  <SCORE.INTER.POLAR>
-2.22001

>  <SCORE.INTER.ROT>
14

>  <SCORE.INTER.SOLV>
11.7629

>  <SCORE.INTER.VDW>
-12.3706

>  <SCORE.INTER.norm>
-0.121513

>  <SCORE.INTRA>
-12.351

>  <SCORE.INTRA.DIHEDRAL>
-20.9025

>  <SCORE.INTRA.DIHEDRAL.0>
26.3805

>  <SCORE.INTRA.POLAR>
0

>  <SCORE.INTRA.POLAR.0>
0

>  <SCORE.INTRA.REPUL>
0

>  <SCORE.INTRA.REPUL.0>
0

>  <SCORE.INTRA.SOLV>
-0.147422

>  <SCORE.INTRA.SOLV.lig_0>
-98.5587

>  <SCORE.INTRA.VDW>
-1.82608

>  <SCORE.INTRA.VDW.0>
-2.91167

>  <SCORE.INTRA.norm>
-0.343085

>  <SCORE.RESTR>
0

>  <SCORE.RESTR.CAVITY>
0

>  <SCORE.RESTR.norm>
0

>  <SCORE.SYSTEM>
0

>  <SCORE.SYSTEM.CONST>
0

>  <SCORE.SYSTEM.DIHEDRAL>
0

>  <SCORE.SYSTEM.SOLV>
0

>  <SCORE.SYSTEM.norm>
0

>  <SCORE.heavy>
36

>  <SCORE.norm>
-0.464597

>  <RMSD>
7.568

$$$$
2f4u_lig
 OpenBabel11021811433D
libRbt.so/2013.1/901 2013/11/27
 36 37  0  0  0  0  0  0  0  0999 V2000
   38.8338   13.1282    2.3328 C   0  0  2  0  0  0  0  0  0  0  0  0
   37.6671   12.3260    1.9167 O   0  0  0  0  0  0  0  0  0  0  0  0
   35.8375    8.8601    3.7970 C   0  0  2  0  0  0  0  0  0  0  0  0
   35.6402    7.4517    4.2355 N   0  0  0  0  0  0  0  0  0  0  0  0
   38.8613   14.3890    1.4143 C   0  0  2  0  0  0  0  0  0  0  0  0
   37.6258   15.1882    1.5091 N   0  0  0  0  0  0  0  0  0  0  0  0
   35.9236    8.9756    2.2342 C   0  0  0  0  0  0  0  0  0  0  0  0
   33.9056    7.0709    4.4186 C   0  0  0  0  0  0  0  0  0  0  0  0
   34.3955    5.7675    4.9668 C   0  0  1  0  0  0  0  0  0  0  0  0
   33.3608    5.2893    5.9916 C   0  0  0  0  0  0  0  0  0  0  0  0
   33.7375    4.0248    6.7856 C   0  0  0  0  0  0  0  0  0  0  0  0
   34.8316    4.3575    7.6999 N   0  0  0  0  0  0  0  0  0  0  0  0
   34.4611    4.8060    3.9492 O   0  0  0  0  0  0  0  0  0  0  0  0
   36.9697    8.6107    7.0982 C   0  0  0  0  0  0  0  0  0  0  0  0
   36.9380    9.6929    8.1671 C   0  0  0  0  0  0  0  0  0  0  0  0
   39.0925   13.9314   -0.0642 C   0  0  1  0  0  0  0  0  0  0  0  0
   37.4629    9.2626    9.4787 N   0  0  0  0  0  0  0  0  0  0  0  0
   39.1150   15.0492   -0.9481 O   0  0  0  0  0  0  0  0  0  0  0  0
   36.1833   10.4305    1.7929 C   0  0  2  0  0  0  0  0  0  0  0  0
   36.3085   10.5300    0.3442 N   0  0  0  0  0  0  0  0  0  0  0  0
   36.7502    9.5122   11.8514 C   0  0  0  0  0  0  0  0  0  0  0  0
   35.2449    9.1797   11.6239 C   0  0  0  0  0  0  0  0  0  0  0  0
   37.4174   10.1991   10.6313 C   0  0  0  0  0  0  0  0  0  0  0  0
   34.4298   10.4118   11.4028 N   0  0  0  0  0  0  0  0  0  0  0  0
   32.9745    7.5902    4.2604 O   0  0  0  0  0  0  0  0  0  0  0  0
   40.4151   13.1412   -0.1220 C   0  0  2  0  0  0  0  0  0  0  0  0
   40.7124   12.6702   -1.4341 O   0  0  0  0  0  0  0  0  0  0  0  0
   37.4622   10.9516    2.4175 C   0  0  2  0  0  0  0  0  0  0  0  0
   40.3835   11.9468    0.8485 C   0  0  2  0  0  0  0  0  0  0  0  0
   40.0702   12.3754    2.1783 O   0  0  0  0  0  0  0  0  0  0  0  0
   37.3574   10.8795    3.9949 C   0  0  2  0  0  0  0  0  0  0  0  0
   38.6093   11.3703    4.5694 O   0  0  0  0  0  0  0  0  0  0  0  0
   41.6948   11.2079    0.8706 C   0  0  0  0  0  0  0  0  0  0  0  0
   42.7214   12.0583    1.2144 O   0  0  0  0  0  0  0  0  0  0  0  0
   37.1146    9.3910    4.4176 C   0  0  1  0  0  0  0  0  0  0  0  0
   37.0161    9.2494    5.8049 O   0  0  0  0  0  0  0  0  0  0  0  0
  1  2  1  6  0  0  0
  1  5  1  0  0  0  0
  1 30  1  0  0  0  0
  3  4  1  6  0  0  0
  3  7  1  0  0  0  0
  3 35  1  0  0  0  0
  5  6  1  6  0  0  0
  5 16  1  0  0  0  0
  7 19  1  0  0  0  0
  8  4  1  0  0  0  0
  8 25  2  0  0  0  0
  9  8  1  6  0  0  0
  9 10  1  0  0  0  0
  9 13  1  0  0  0  0
 10 11  1  0  0  0  0
 11 12  1  0  0  0  0
 14 15  1  0  0  0  0
 14 36  1  0  0  0  0
 15 17  1  0  0  0  0
 16 18  1  6  0  0  0
 16 26  1  0  0  0  0
 17 23  1  0  0  0  0
 19 20  1  6  0  0  0
 19 28  1  0  0  0  0
 21 22  1  0  0  0  0
 21 23  1  0  0  0  0
 22 24  1  0  0  0  0
 26 27  1  6  0  0  0
 26 29  1  0  0  0  0
 28  2  1  1  0  0  0
 28 31  1  0  0  0  0
 29 30  1  0  0  0  0
 29 33  1  1  0  0  0
 31 32  1  1  0  0  0
 31 35  1  0  0  0  0
 33 34  1  0  0  0  0
 35 36  1  1  0  0  0
M  END
>  <CHROM.1>
169.54979627,-92.47913737,149.44821112,-174.16043920,69.67007606,-154.93431420
174.05048936,-176.53286381,128.18883150,-62.44392676,-65.75338323,-179.94525881
57.47190731,71.30660014,37.18696743,10.05051185,4.18843229,-0.74362473,0.93262090
1.49928483

>  <Name>
2f4u_lig

>  <RI>
0

>  <Rbt.Current_Directory>
/home/itssahil/PROJECTS/Mol_Feturizer/New_Systems/rnas/2f4u

>  <Rbt.Executable>
rbdock ($Id: //depot/dev/client3/rdock/2013.1/src/exe/rbdock.cxx#4 $)

>  <Rbt.Library>
libRbt.so (2013.1, Build901 2013/11/27)

>  <Rbt.Parameter_File>
/export/apps/rDock/src/rDock_2013.1_src/data/scripts/dock_solv.prm

>  <Rbt.Receptor>
prm/pocket_docking_7.prm

>  <SCORE>
-32.3435

>  <SCORE.INTER>
-22.5854

>  <SCORE.INTER.CONST>
1

>  <SCORE.INTER.POLAR>
-2.24663

>  <SCORE.INTER.ROT>
14

>  <SCORE.INTER.SOLV>
21.0965

>  <SCORE.INTER.VDW>
-27.5337

>  <SCORE.INTER.norm>
-0.627372

>  <SCORE.INTRA>
-9.75808

>  <SCORE.INTRA.DIHEDRAL>
-18.9791

>  <SCORE.INTRA.DIHEDRAL.0>
26.3805

>  <SCORE.INTRA.POLAR>
0

>  <SCORE.INTRA.POLAR.0>
0

>  <SCORE.INTRA.REPUL>
0

>  <SCORE.INTRA.REPUL.0>
0

>  <SCORE.INTRA.SOLV>
1.89488

>  <SCORE.INTRA.SOLV.lig_0>
-98.5587

>  <SCORE.INTRA.VDW>
-1.21598

>  <SCORE.INTRA.VDW.0>
-2.91167

>  <SCORE.INTRA.norm>
-0.271058

>  <SCORE.RESTR>
0

>  <SCORE.RESTR.CAVITY>
0

>  <SCORE.RESTR.norm>
0

>  <SCORE.SYSTEM>
0

>  <SCORE.SYSTEM.CONST>
0

>  <SCORE.SYSTEM.DIHEDRAL>
0

>  <SCORE.SYSTEM.SOLV>
0

>  <SCORE.SYSTEM.norm>
0

>  <SCORE.heavy>
36

>  <SCORE.norm>
-0.89843

>  <RMSD>
7.568

$$$$
2f4u_lig
 OpenBabel11021811433D
libRbt.so/2013.1/901 2013/11/27
 36 37  0  0  0  0  0  0  0  0999 V2000
   38.7393   14.0556    0.4851 C   0  0  2  0  0  0  0  0  0  0  0  0
   38.3184   12.6630    0.7328 O   0  0  0  0  0  0  0  0  0  0  0  0
   39.0352    9.9323    4.0381 C   0  0  2  0  0  0  0  0  0  0  0  0
   39.0854    9.4090    5.4303 N   0  0  0  0  0  0  0  0  0  0  0  0
   37.4974   14.8032   -0.0920 C   0  0  2  0  0  0  0  0  0  0  0  0
   36.3393   14.7692    0.8201 N   0  0  0  0  0  0  0  0  0  0  0  0
   39.8842   11.2426    3.8785 C   0  0  0  0  0  0  0  0  0  0  0  0
   39.9236    7.8340    5.4967 C   0  0  0  0  0  0  0  0  0  0  0  0
   39.5017    7.8308    6.9325 C   0  0  1  0  0  0  0  0  0  0  0  0
   38.1754    7.0667    7.0134 C   0  0  0  0  0  0  0  0  0  0  0  0
   37.5168    7.0108    8.4042 C   0  0  0  0  0  0  0  0  0  0  0  0
   36.1768    6.4379    8.2625 N   0  0  0  0  0  0  0  0  0  0  0  0
   40.4383    7.1394    7.7129 O   0  0  0  0  0  0  0  0  0  0  0  0
   36.4657    7.6555    3.7092 C   0  0  0  0  0  0  0  0  0  0  0  0
   36.5131    7.2929    2.2324 C   0  0  0  0  0  0  0  0  0  0  0  0
   37.1164   14.1619   -1.4675 C   0  0  1  0  0  0  0  0  0  0  0  0
   36.3164    5.8555    1.9563 N   0  0  0  0  0  0  0  0  0  0  0  0
   35.9768   14.8044   -2.0333 O   0  0  0  0  0  0  0  0  0  0  0  0
   39.7808   11.8070    2.4470 C   0  0  2  0  0  0  0  0  0  0  0  0
   40.5327   13.0482    2.3116 N   0  0  0  0  0  0  0  0  0  0  0  0
   36.5155    3.7773    0.5991 C   0  0  0  0  0  0  0  0  0  0  0  0
   37.6440    3.1206    1.4496 C   0  0  0  0  0  0  0  0  0  0  0  0
   36.5764    5.3272    0.5921 C   0  0  0  0  0  0  0  0  0  0  0  0
   37.3983    3.2745    2.9149 N   0  0  0  0  0  0  0  0  0  0  0  0
   40.4262    7.1904    4.7934 O   0  0  0  0  0  0  0  0  0  0  0  0
   38.3400   14.2618   -2.4003 C   0  0  2  0  0  0  0  0  0  0  0  0
   38.0952   13.6930   -3.6841 O   0  0  0  0  0  0  0  0  0  0  0  0
   38.3339   12.0865    2.0927 C   0  0  2  0  0  0  0  0  0  0  0  0
   39.5671   13.5783   -1.7705 C   0  0  2  0  0  0  0  0  0  0  0  0
   39.8377   14.1099   -0.4688 O   0  0  0  0  0  0  0  0  0  0  0  0
   37.4862   10.7551    2.2075 C   0  0  2  0  0  0  0  0  0  0  0  0
   36.0940   11.0577    1.8786 O   0  0  0  0  0  0  0  0  0  0  0  0
   40.7959   13.7344   -2.6260 C   0  0  0  0  0  0  0  0  0  0  0  0
   41.8804   13.1361   -2.0253 O   0  0  0  0  0  0  0  0  0  0  0  0
   37.5909   10.2144    3.6737 C   0  0  1  0  0  0  0  0  0  0  0  0
   36.8590    9.0367    3.8516 O   0  0  0  0  0  0  0  0  0  0  0  0
  1  2  1  6  0  0  0
  1  5  1  0  0  0  0
  1 30  1  0  0  0  0
  3  4  1  1  0  0  0
  3  7  1  0  0  0  0
  3 35  1  0  0  0  0
  5  6  1  1  0  0  0
  5 16  1  0  0  0  0
  7 19  1  0  0  0  0
  8  4  1  0  0  0  0
  8 25  2  0  0  0  0
  9  8  1  6  0  0  0
  9 10  1  0  0  0  0
  9 13  1  0  0  0  0
 10 11  1  0  0  0  0
 11 12  1  0  0  0  0
 14 15  1  0  0  0  0
 14 36  1  0  0  0  0
 15 17  1  0  0  0  0
 16 18  1  6  0  0  0
 16 26  1  0  0  0  0
 17 23  1  0  0  0  0
 19 20  1  1  0  0  0
 19 28  1  0  0  0  0
 21 22  1  0  0  0  0
 21 23  1  0  0  0  0
 22 24  1  0  0  0  0
 26 27  1  6  0  0  0
 26 29  1  0  0  0  0
 28  2  1  6  0  0  0
 28 31  1  0  0  0  0
 29 30  1  0  0  0  0
 29 33  1  6  0  0  0
 31 32  1  1  0  0  0
 31 35  1  0  0  0  0
 33 34  1  0  0  0  0
 35 36  1  6  0  0  0
M  END
>  <CHROM.1>
-118.19234395,-114.01954424,93.82975649,-176.68806796,171.17427577,171.88976981
-45.26892184,-169.20278275,171.30657894,73.68776286,-65.28909843,-74.82514459
178.84385949,-56.01966009,38.24712134,10.09944667,2.17163811,-1.38421770
1.19175337,2.27443334

>  <Name>
2f4u_lig

>  <RI>
0

>  <Rbt.Current_Directory>
/home/itssahil/PROJECTS/Mol_Feturizer/New_Systems/rnas/2f4u

>  <Rbt.Executable>
rbdock ($Id: //depot/dev/client3/rdock/2013.1/src/exe/rbdock.cxx#4 $)

>  <Rbt.Library>
libRbt.so (2013.1, Build901 2013/11/27)

>  <Rbt.Parameter_File>
/export/apps/rDock/src/rDock_2013.1_src/data/scripts/dock_solv.prm

>  <Rbt.Receptor>
prm/pocket_docking_7.prm

>  <SCORE>
-21.0469

>  <SCORE.INTER>
-15.091

>  <SCORE.INTER.CONST>
1

>  <SCORE.INTER.POLAR>
-2.24715

>  <SCORE.INTER.ROT>
14

>  <SCORE.INTER.SOLV>
13.7597

>  <SCORE.INTER.VDW>
-20.09

>  <SCORE.INTER.norm>
-0.419194

>  <SCORE.INTRA>
-5.95783

>  <SCORE.INTRA.DIHEDRAL>
-12.4519

>  <SCORE.INTRA.DIHEDRAL.0>
26.3805

>  <SCORE.INTRA.POLAR>
0

>  <SCORE.INTRA.POLAR.0>
0

>  <SCORE.INTRA.REPUL>
0

>  <SCORE.INTRA.REPUL.0>
0

>  <SCORE.INTRA.SOLV>
3.70418

>  <SCORE.INTRA.SOLV.lig_0>
-98.5587

>  <SCORE.INTRA.VDW>
-1.58396

>  <SCORE.INTRA.VDW.0>
-2.91167

>  <SCORE.INTRA.norm>
-0.165495

>  <SCORE.RESTR>
0.00191305

>  <SCORE.RESTR.CAVITY>
0.00191305

>  <SCORE.RESTR.norm>
5.31403e-05

>  <SCORE.SYSTEM>
0

>  <SCORE.SYSTEM.CONST>
0

>  <SCORE.SYSTEM.DIHEDRAL>
0

>  <SCORE.SYSTEM.SOLV>
0

>  <SCORE.SYSTEM.norm>
0

>  <SCORE.heavy>
36

>  <SCORE.norm>
-0.584636

>  <RMSD>
7.573

$$$$
2f4u_lig
 OpenBabel11021811433D
libRbt.so/2013.1/901 2013/11/27
 36 37  0  0  0  0  0  0  0  0999 V2000
   35.6048    6.0397   10.6122 C   0  0  2  0  0  0  0  0  0  0  0  0
   37.0043    6.1514   11.0669 O   0  0  0  0  0  0  0  0  0  0  0  0
   40.6987    6.4736    8.7991 C   0  0  2  0  0  0  0  0  0  0  0  0
   41.8486    6.0784    7.9410 N   0  0  0  0  0  0  0  0  0  0  0  0
   34.7132    6.5960   11.7653 C   0  0  2  0  0  0  0  0  0  0  0  0
   35.0340    7.9939   12.1077 N   0  0  0  0  0  0  0  0  0  0  0  0
   40.6339    5.6191   10.1140 C   0  0  0  0  0  0  0  0  0  0  0  0
   41.8988    4.3094    7.7057 C   0  0  0  0  0  0  0  0  0  0  0  0
   43.1982    4.5813    7.0149 C   0  0  1  0  0  0  0  0  0  0  0  0
   43.9180    3.2372    6.8580 C   0  0  0  0  0  0  0  0  0  0  0  0
   44.4210    2.5892    8.1612 C   0  0  0  0  0  0  0  0  0  0  0  0
   45.0621    1.3150    7.8307 N   0  0  0  0  0  0  0  0  0  0  0  0
   42.9682    5.0923    5.7302 O   0  0  0  0  0  0  0  0  0  0  0  0
   40.0670    7.5624    5.6069 C   0  0  0  0  0  0  0  0  0  0  0  0
   38.9557    8.2683    4.8443 C   0  0  0  0  0  0  0  0  0  0  0  0
   34.8867    5.6818   13.0234 C   0  0  1  0  0  0  0  0  0  0  0  0
   38.3838    9.4329    5.5498 N   0  0  0  0  0  0  0  0  0  0  0  0
   34.0984    6.1552   14.1124 O   0  0  0  0  0  0  0  0  0  0  0  0
   39.4078    5.9984   10.9693 C   0  0  2  0  0  0  0  0  0  0  0  0
   39.3228    5.1735   12.1679 N   0  0  0  0  0  0  0  0  0  0  0  0
   36.7719   10.2316    3.8282 C   0  0  0  0  0  0  0  0  0  0  0  0
   37.9676   11.0503    3.2551 C   0  0  0  0  0  0  0  0  0  0  0  0
   36.9683    9.8150    5.3093 C   0  0  0  0  0  0  0  0  0  0  0  0
   38.4770   12.0538    4.2373 N   0  0  0  0  0  0  0  0  0  0  0  0
   41.2920    3.4684    7.9988 O   0  0  0  0  0  0  0  0  0  0  0  0
   34.4969    4.2429   12.6300 C   0  0  2  0  0  0  0  0  0  0  0  0
   34.6306    3.3259   13.7130 O   0  0  0  0  0  0  0  0  0  0  0  0
   38.1312    5.8137   10.1736 C   0  0  2  0  0  0  0  0  0  0  0  0
   35.3443    3.7501   11.4431 C   0  0  2  0  0  0  0  0  0  0  0  0
   35.2515    4.6545   10.3370 O   0  0  0  0  0  0  0  0  0  0  0  0
   38.1758    6.7116    8.8712 C   0  0  2  0  0  0  0  0  0  0  0  0
   36.9421    6.5000    8.1152 O   0  0  0  0  0  0  0  0  0  0  0  0
   34.9256    2.3778   10.9874 C   0  0  0  0  0  0  0  0  0  0  0  0
   35.8479    1.8604   10.1061 O   0  0  0  0  0  0  0  0  0  0  0  0
   39.4162    6.2932    8.0112 C   0  0  1  0  0  0  0  0  0  0  0  0
   39.5173    7.0445    6.8367 O   0  0  0  0  0  0  0  0  0  0  0  0
  1  2  1  1  0  0  0
  1  5  1  0  0  0  0
  1 30  1  0  0  0  0
  3  4  1  6  0  0  0
  3  7  1  0  0  0  0
  3 35  1  0  0  0  0
  5  6  1  1  0  0  0
  5 16  1  0  0  0  0
  7 19  1  0  0  0  0
  8  4  1  0  0  0  0
  8 25  2  0  0  0  0
  9  8  1  6  0  0  0
  9 10  1  0  0  0  0
  9 13  1  0  0  0  0
 10 11  1  0  0  0  0
 11 12  1  0  0  0  0
 14 15  1  0  0  0  0
 14 36  1  0  0  0  0
 15 17  1  0  0  0  0
 16 18  1  1  0  0  0
 16 26  1  0  0  0  0
 17 23  1  0  0  0  0
 19 20  1  1  0  0  0
 19 28  1  0  0  0  0
 21 22  1  0  0  0  0
 21 23  1  0  0  0  0
 22 24  1  0  0  0  0
 26 27  1  1  0  0  0
 26 29  1  0  0  0  0
 28  2  1  1  0  0  0
 28 31  1  0  0  0  0
 29 30  1  0  0  0  0
 29 33  1  6  0  0  0
 31 32  1  6  0  0  0
 31 35  1  0  0  0  0
 33 34  1  0  0  0  0
 35 36  1  6  0  0  0
M  END
>  <CHROM.1>
-175.00032904,49.59405359,166.22365129,-68.70043011,179.25666808,62.43456954
165.38343396,-151.04796695,-63.39386092,-41.54527776,-38.77290704,-178.25277585
-168.66216652,50.14976786,38.47804185,5.90860975,8.83438349,2.45062634,-0.48743258
2.36436787

>  <Name>
2f4u_lig

>  <RI>
0

>  <Rbt.Current_Directory>
/home/itssahil/PROJECTS/Mol_Feturizer/New_Systems/rnas/2f4u

>  <Rbt.Executable>
rbdock ($Id: //depot/dev/client3/rdock/2013.1/src/exe/rbdock.cxx#4 $)

>  <Rbt.Library>
libRbt.so (2013.1, Build901 2013/11/27)

>  <Rbt.Parameter_File>
/export/apps/rDock/src/rDock_2013.1_src/data/scripts/dock_solv.prm

>  <Rbt.Receptor>
prm/pocket_docking_5.prm

>  <SCORE>
-13.8108

>  <SCORE.INTER>
-5.59124

>  <SCORE.INTER.CONST>
1

>  <SCORE.INTER.POLAR>
-1.44659

>  <SCORE.INTER.ROT>
14

>  <SCORE.INTER.SOLV>
19.0814

>  <SCORE.INTER.VDW>
-18.1994

>  <SCORE.INTER.norm>
-0.155312

>  <SCORE.INTRA>
-8.21955

>  <SCORE.INTRA.DIHEDRAL>
-19.6663

>  <SCORE.INTRA.DIHEDRAL.0>
26.3805

>  <SCORE.INTRA.POLAR>
0

>  <SCORE.INTRA.POLAR.0>
0

>  <SCORE.INTRA.REPUL>
0

>  <SCORE.INTRA.REPUL.0>
0

>  <SCORE.INTRA.SOLV>
3.14552

>  <SCORE.INTRA.SOLV.lig_0>
-98.5587

>  <SCORE.INTRA.VDW>
0.040817

>  <SCORE.INTRA.VDW.0>
-2.91167

>  <SCORE.INTRA.norm>
-0.228321

>  <SCORE.RESTR>
0

>  <SCORE.RESTR.CAVITY>
0

>  <SCORE.RESTR.norm>
0

>  <SCORE.SYSTEM>
0

>  <SCORE.SYSTEM.CONST>
0

>  <SCORE.SYSTEM.DIHEDRAL>
0

>  <SCORE.SYSTEM.SOLV>
0

>  <SCORE.SYSTEM.norm>
0

>  <SCORE.heavy>
36

>  <SCORE.norm>
-0.383633

>  <RMSD>
7.590

$$$$
2f4u_lig
 OpenBabel11021811433D
libRbt.so/2013.1/901 2013/11/27
 36 37  0  0  0  0  0  0  0  0999 V2000
   42.3502    4.4511    6.2245 C   0  0  2  0  0  0  0  0  0  0  0  0
   42.7550    4.8339    7.5911 O   0  0  0  0  0  0  0  0  0  0  0  0
   38.9903    4.7324    9.7617 C   0  0  2  0  0  0  0  0  0  0  0  0
   38.0299    4.8209   10.8951 N   0  0  0  0  0  0  0  0  0  0  0  0
   43.6644    4.2190    5.4164 C   0  0  2  0  0  0  0  0  0  0  0  0
   44.5208    3.1765    6.0115 N   0  0  0  0  0  0  0  0  0  0  0  0
   40.0979    3.6513   10.0214 C   0  0  0  0  0  0  0  0  0  0  0  0
   37.1983    3.2630   11.1580 C   0  0  0  0  0  0  0  0  0  0  0  0
   36.3904    4.0260   12.1605 C   0  0  1  0  0  0  0  0  0  0  0  0
   34.9524    3.5023   12.0766 C   0  0  0  0  0  0  0  0  0  0  0  0
   33.8555    4.4743   12.5494 C   0  0  0  0  0  0  0  0  0  0  0  0
   34.0301    4.7116   13.9837 N   0  0  0  0  0  0  0  0  0  0  0  0
   36.8596    3.7732   13.4567 O   0  0  0  0  0  0  0  0  0  0  0  0
   37.3644    7.7128    9.5197 C   0  0  0  0  0  0  0  0  0  0  0  0
   36.2503    6.7653    9.1004 C   0  0  0  0  0  0  0  0  0  0  0  0
   44.4476    5.5707    5.3272 C   0  0  1  0  0  0  0  0  0  0  0  0
   36.2855    6.3847    7.6739 N   0  0  0  0  0  0  0  0  0  0  0  0
   45.6659    5.4095    4.6053 O   0  0  0  0  0  0  0  0  0  0  0  0
   41.1192    3.6063    8.8666 C   0  0  2  0  0  0  0  0  0  0  0  0
   42.1729    2.6341    9.1293 N   0  0  0  0  0  0  0  0  0  0  0  0
   35.3414    5.5185    5.5389 C   0  0  0  0  0  0  0  0  0  0  0  0
   34.0801    5.0103    4.7779 C   0  0  0  0  0  0  0  0  0  0  0  0
   35.0876    5.7668    7.0487 C   0  0  0  0  0  0  0  0  0  0  0  0
   32.9712    6.0107    4.8073 N   0  0  0  0  0  0  0  0  0  0  0  0
   37.2417    2.2760   10.7275 O   0  0  0  0  0  0  0  0  0  0  0  0
   43.5310    6.6147    4.6586 C   0  0  2  0  0  0  0  0  0  0  0  0
   44.1542    7.8910    4.5388 O   0  0  0  0  0  0  0  0  0  0  0  0
   41.7628    4.9654    8.6774 C   0  0  2  0  0  0  0  0  0  0  0  0
   42.2129    6.7673    5.4389 C   0  0  2  0  0  0  0  0  0  0  0  0
   41.5618    5.5019    5.5971 O   0  0  0  0  0  0  0  0  0  0  0  0
   40.6503    6.0477    8.3685 C   0  0  2  0  0  0  0  0  0  0  0  0
   41.2966    7.3497    8.2089 O   0  0  0  0  0  0  0  0  0  0  0  0
   41.2667    7.7208    4.7594 C   0  0  0  0  0  0  0  0  0  0  0  0
   40.8631    7.2152    3.5443 O   0  0  0  0  0  0  0  0  0  0  0  0
   39.6390    6.0882    9.5638 C   0  0  1  0  0  0  0  0  0  0  0  0
   38.6261    7.0302    9.3618 O   0  0  0  0  0  0  0  0  0  0  0  0
  1  2  1  1  0  0  0
  1  5  1  0  0  0  0
  1 30  1  0  0  0  0
  3  4  1  1  0  0  0
  3  7  1  0  0  0  0
  3 35  1  0  0  0  0
  5  6  1  1  0  0  0
  5 16  1  0  0  0  0
  7 19  1  0  0  0  0
  8  4  1  0  0  0  0
  8 25  2  0  0  0  0
  9  8  1  6  0  0  0
  9 10  1  0  0  0  0
  9 13  1  0  0  0  0
 10 11  1  0  0  0  0
 11 12  1  0  0  0  0
 14 15  1  0  0  0  0
 14 36  1  0  0  0  0
 15 17  1  0  0  0  0
 16 18  1  6  0  0  0
 16 26  1  0  0  0  0
 17 23  1  0  0  0  0
 19 20  1  1  0  0  0
 19 28  1  0  0  0  0
 21 22  1  0  0  0  0
 21 23  1  0  0  0  0
 22 24  1  0  0  0  0
 26 27  1  1  0  0  0
 26 29  1  0  0  0  0
 28  2  1  6  0  0  0
 28 31  1  0  0  0  0
 29 30  1  0  0  0  0
 29 33  1  6  0  0  0
 31 32  1  1  0  0  0
 31 35  1  0  0  0  0
 33 34  1  0  0  0  0
 35 36  1  6  0  0  0
M  END
>  <CHROM.1>
-172.20772746,-60.21172174,142.56256801,-155.61463278,-65.08741314,-64.15069964
-64.25751720,-164.15641510,177.35685292,62.37951739,-173.94522328,61.59936191
65.31864725,39.58188949,39.39199885,5.28850924,8.06404014,-0.60478992,-0.13041812
1.97042662

>  <Name>
2f4u_lig

>  <RI>
0

>  <Rbt.Current_Directory>
/home/itssahil/PROJECTS/Mol_Feturizer/New_Systems/rnas/2f4u

>  <Rbt.Executable>
rbdock ($Id: //depot/dev/client3/rdock/2013.1/src/exe/rbdock.cxx#4 $)

>  <Rbt.Library>
libRbt.so (2013.1, Build901 2013/11/27)

>  <Rbt.Parameter_File>
/export/apps/rDock/src/rDock_2013.1_src/data/scripts/dock_solv.prm

>  <Rbt.Receptor>
prm/pocket_docking_4.prm

>  <SCORE>
-11.5966

>  <SCORE.INTER>
-1.47113

>  <SCORE.INTER.CONST>
1

>  <SCORE.INTER.POLAR>
-0.89271

>  <SCORE.INTER.ROT>
14

>  <SCORE.INTER.SOLV>
15.2289

>  <SCORE.INTER.VDW>
-16.0147

>  <SCORE.INTER.norm>
-0.0408648

>  <SCORE.INTRA>
-10.1255

>  <SCORE.INTRA.DIHEDRAL>
-19.8099

>  <SCORE.INTRA.DIHEDRAL.0>
26.3805

>  <SCORE.INTRA.POLAR>
0

>  <SCORE.INTRA.POLAR.0>
0

>  <SCORE.INTRA.REPUL>
0

>  <SCORE.INTRA.REPUL.0>
0

>  <SCORE.INTRA.SOLV>
3.70542

>  <SCORE.INTRA.SOLV.lig_0>
-98.5587

>  <SCORE.INTRA.VDW>
-2.07327

>  <SCORE.INTRA.VDW.0>
-2.91167

>  <SCORE.INTRA.norm>
-0.281264

>  <SCORE.RESTR>
0

>  <SCORE.RESTR.CAVITY>
0

>  <SCORE.RESTR.norm>
0

>  <SCORE.SYSTEM>
0

>  <SCORE.SYSTEM.CONST>
0

>  <SCORE.SYSTEM.DIHEDRAL>
0

>  <SCORE.SYSTEM.SOLV>
0

>  <SCORE.SYSTEM.norm>
0

>  <SCORE.heavy>
36

>  <SCORE.norm>
-0.322129

>  <RMSD>
7.613

$$$$
2f4u_lig
 OpenBabel11021811433D
libRbt.so/2013.1/901 2013/11/27
 36 37  0  0  0  0  0  0  0  0999 V2000
   38.1701   12.8947    0.5852 C   0  0  2  0  0  0  0  0  0  0  0  0
   37.7215   12.5414    1.9461 O   0  0  0  0  0  0  0  0  0  0  0  0
   35.5981    9.0187    3.3520 C   0  0  2  0  0  0  0  0  0  0  0  0
   35.3140    7.5908    3.6602 N   0  0  0  0  0  0  0  0  0  0  0  0
   39.1904   14.0649    0.7394 C   0  0  2  0  0  0  0  0  0  0  0  0
   40.3435   13.7057    1.5853 N   0  0  0  0  0  0  0  0  0  0  0  0
   35.8610    9.2417    1.8209 C   0  0  0  0  0  0  0  0  0  0  0  0
   36.7155    6.5562    3.2692 C   0  0  0  0  0  0  0  0  0  0  0  0
   35.7943    5.4258    3.6059 C   0  0  1  0  0  0  0  0  0  0  0  0
   36.3776    4.1603    2.9674 C   0  0  0  0  0  0  0  0  0  0  0  0
   37.6891    3.6405    3.5846 C   0  0  0  0  0  0  0  0  0  0  0  0
   38.1540    2.4975    2.7964 N   0  0  0  0  0  0  0  0  0  0  0  0
   35.7587    5.2241    4.9924 O   0  0  0  0  0  0  0  0  0  0  0  0
   36.7428    9.2235    6.9310 C   0  0  0  0  0  0  0  0  0  0  0  0
   38.0900    8.5876    7.2397 C   0  0  0  0  0  0  0  0  0  0  0  0
   38.4492   15.3050    1.3407 C   0  0  1  0  0  0  0  0  0  0  0  0
   39.2325    9.2329    6.5621 N   0  0  0  0  0  0  0  0  0  0  0  0
   39.3431   16.4017    1.5121 O   0  0  0  0  0  0  0  0  0  0  0  0
   36.2087   10.7139    1.5202 C   0  0  2  0  0  0  0  0  0  0  0  0
   36.4972   10.9115    0.1053 N   0  0  0  0  0  0  0  0  0  0  0  0
   40.7112    7.4781    5.5955 C   0  0  0  0  0  0  0  0  0  0  0  0
   41.5343    7.0202    4.3541 C   0  0  0  0  0  0  0  0  0  0  0  0
   39.7533    8.6601    5.2939 C   0  0  0  0  0  0  0  0  0  0  0  0
   42.3883    5.8333    4.6591 N   0  0  0  0  0  0  0  0  0  0  0  0
   37.7167    6.7096    2.9012 O   0  0  0  0  0  0  0  0  0  0  0  0
   37.2830   15.6708    0.4008 C   0  0  2  0  0  0  0  0  0  0  0  0
   36.5354   16.7903    0.8691 O   0  0  0  0  0  0  0  0  0  0  0  0
   37.4240   11.1432    2.3177 C   0  0  2  0  0  0  0  0  0  0  0  0
   36.3344   14.4732    0.2117 C   0  0  2  0  0  0  0  0  0  0  0  0
   37.0503   13.3194   -0.2426 O   0  0  0  0  0  0  0  0  0  0  0  0
   37.1420   10.9631    3.8645 C   0  0  2  0  0  0  0  0  0  0  0  0
   38.3353   11.3667    4.6071 O   0  0  0  0  0  0  0  0  0  0  0  0
   35.2328   14.7802   -0.7672 C   0  0  0  0  0  0  0  0  0  0  0  0
   34.3873   15.7389   -0.2561 O   0  0  0  0  0  0  0  0  0  0  0  0
   36.8124    9.4580    4.1461 C   0  0  1  0  0  0  0  0  0  0  0  0
   36.5560    9.2220    5.4999 O   0  0  0  0  0  0  0  0  0  0  0  0
  1  2  1  1  0  0  0
  1  5  1  0  0  0  0
  1 30  1  0  0  0  0
  3  4  1  6  0  0  0
  3  7  1  0  0  0  0
  3 35  1  0  0  0  0
  5  6  1  1  0  0  0
  5 16  1  0  0  0  0
  7 19  1  0  0  0  0
  8  4  1  0  0  0  0
  8 25  2  0  0  0  0
  9  8  1  1  0  0  0
  9 10  1  0  0  0  0
  9 13  1  0  0  0  0
 10 11  1  0  0  0  0
 11 12  1  0  0  0  0
 14 15  1  0  0  0  0
 14 36  1  0  0  0  0
 15 17  1  0  0  0  0
 16 18  1  6  0  0  0
 16 26  1  0  0  0  0
 17 23  1  0  0  0  0
 19 20  1  6  0  0  0
 19 28  1  0  0  0  0
 21 22  1  0  0  0  0
 21 23  1  0  0  0  0
 22 24  1  0  0  0  0
 26 27  1  1  0  0  0
 26 29  1  0  0  0  0
 28  2  1  1  0  0  0
 28 31  1  0  0  0  0
 29 30  1  0  0  0  0
 29 33  1  6  0  0  0
 31 32  1  1  0  0  0
 31 35  1  0  0  0  0
 33 34  1  0  0  0  0
 35 36  1  1  0  0  0
M  END
>  <CHROM.1>
-144.67306616,62.76177469,160.49251733,69.01362166,-175.76113239,56.05032769
-55.08753915,-96.94742229,-81.92014841,-176.80008773,-167.60560125,-66.27248513
-67.03872545,-174.05714075,37.56245534,10.19644856,2.87851498,-1.67103032
0.58371667,2.79696466

>  <Name>
2f4u_lig

>  <RI>
0

>  <Rbt.Current_Directory>
/home/itssahil/PROJECTS/Mol_Feturizer/New_Systems/rnas/2f4u

>  <Rbt.Executable>
rbdock ($Id: //depot/dev/client3/rdock/2013.1/src/exe/rbdock.cxx#4 $)

>  <Rbt.Library>
libRbt.so (2013.1, Build901 2013/11/27)

>  <Rbt.Parameter_File>
/export/apps/rDock/src/rDock_2013.1_src/data/scripts/dock_solv.prm

>  <Rbt.Receptor>
prm/pocket_docking_7.prm

>  <SCORE>
-21.7719

>  <SCORE.INTER>
-14.875

>  <SCORE.INTER.CONST>
1

>  <SCORE.INTER.POLAR>
-1.05311

>  <SCORE.INTER.ROT>
14

>  <SCORE.INTER.SOLV>
15.6856

>  <SCORE.INTER.VDW>
-24.5682

>  <SCORE.INTER.norm>
-0.413194

>  <SCORE.INTRA>
-6.89698

>  <SCORE.INTRA.DIHEDRAL>
-17.8262

>  <SCORE.INTRA.DIHEDRAL.0>
26.3805

>  <SCORE.INTRA.POLAR>
0

>  <SCORE.INTRA.POLAR.0>
0

>  <SCORE.INTRA.REPUL>
0

>  <SCORE.INTRA.REPUL.0>
0

>  <SCORE.INTRA.SOLV>
4.56931

>  <SCORE.INTRA.SOLV.lig_0>
-98.5587

>  <SCORE.INTRA.VDW>
-0.26852

>  <SCORE.INTRA.VDW.0>
-2.91167

>  <SCORE.INTRA.norm>
-0.191583

>  <SCORE.RESTR>
0

>  <SCORE.RESTR.CAVITY>
0

>  <SCORE.RESTR.norm>
0

>  <SCORE.SYSTEM>
0

>  <SCORE.SYSTEM.CONST>
0

>  <SCORE.SYSTEM.DIHEDRAL>
0

>  <SCORE.SYSTEM.SOLV>
0

>  <SCORE.SYSTEM.norm>
0

>  <SCORE.heavy>
36

>  <SCORE.norm>
-0.604776

>  <RMSD>
7.615

$$$$
2f4u_lig
 OpenBabel11021811433D
libRbt.so/2013.1/901 2013/11/27
 36 37  0  0  0  0  0  0  0  0999 V2000
   38.4232    3.7823   11.7670 C   0  0  2  0  0  0  0  0  0  0  0  0
   37.5336    3.4831   10.6282 O   0  0  0  0  0  0  0  0  0  0  0  0
   40.1696    1.5483    7.7640 C   0  0  2  0  0  0  0  0  0  0  0  0
   40.6090    0.6950    6.6267 N   0  0  0  0  0  0  0  0  0  0  0  0
   37.6160    4.6995   12.7373 C   0  0  2  0  0  0  0  0  0  0  0  0
   36.3690    4.0696   13.2088 N   0  0  0  0  0  0  0  0  0  0  0  0
   39.4249    0.7125    8.8640 C   0  0  0  0  0  0  0  0  0  0  0  0
   42.2951    0.1498    6.8442 C   0  0  0  0  0  0  0  0  0  0  0  0
   42.1411   -0.4120    5.4656 C   0  0  1  0  0  0  0  0  0  0  0  0
   42.7544    0.6009    4.4924 C   0  0  0  0  0  0  0  0  0  0  0  0
   41.7929    1.6712    3.9435 C   0  0  0  0  0  0  0  0  0  0  0  0
   42.4611    2.3816    2.8513 N   0  0  0  0  0  0  0  0  0  0  0  0
   42.8623   -1.6076    5.3445 O   0  0  0  0  0  0  0  0  0  0  0  0
   40.8679    4.2526    5.6365 C   0  0  0  0  0  0  0  0  0  0  0  0
   40.3485    5.6693    5.8313 C   0  0  0  0  0  0  0  0  0  0  0  0
   37.2948    6.0464   12.0084 C   0  0  1  0  0  0  0  0  0  0  0  0
   41.1991    6.7135    5.2254 N   0  0  0  0  0  0  0  0  0  0  0  0
   36.5463    6.9184   12.8515 O   0  0  0  0  0  0  0  0  0  0  0  0
   38.9254    1.6143   10.0111 C   0  0  2  0  0  0  0  0  0  0  0  0
   38.1945    0.8446   11.0099 N   0  0  0  0  0  0  0  0  0  0  0  0
   43.6235    6.2384    5.5361 C   0  0  0  0  0  0  0  0  0  0  0  0
   44.0501    6.3848    4.0445 C   0  0  0  0  0  0  0  0  0  0  0  0
   42.4334    7.1535    5.9258 C   0  0  0  0  0  0  0  0  0  0  0  0
   45.2635    5.5724    3.7300 N   0  0  0  0  0  0  0  0  0  0  0  0
   43.0550    0.2553    7.6010 O   0  0  0  0  0  0  0  0  0  0  0  0
   38.6279    6.6890   11.5756 C   0  0  2  0  0  0  0  0  0  0  0  0
   38.4407    7.9247   10.8903 O   0  0  0  0  0  0  0  0  0  0  0  0
   38.0044    2.6913    9.4735 C   0  0  2  0  0  0  0  0  0  0  0  0
   39.4330    5.7310   10.6792 C   0  0  2  0  0  0  0  0  0  0  0  0
   39.6289    4.4682   11.3249 O   0  0  0  0  0  0  0  0  0  0  0  0
   38.7698    3.5646    8.3983 C   0  0  2  0  0  0  0  0  0  0  0  0
   37.8537    4.5819    7.8845 O   0  0  0  0  0  0  0  0  0  0  0  0
   40.7756    6.3038   10.3110 C   0  0  0  0  0  0  0  0  0  0  0  0
   41.4577    5.4400    9.4841 O   0  0  0  0  0  0  0  0  0  0  0  0
   39.2480    2.6300    7.2359 C   0  0  1  0  0  0  0  0  0  0  0  0
   39.9310    3.3370    6.2420 O   0  0  0  0  0  0  0  0  0  0  0  0
  1  2  1  6  0  0  0
  1  5  1  0  0  0  0
  1 30  1  0  0  0  0
  3  4  1  6  0  0  0
  3  7  1  0  0  0  0
  3 35  1  0  0  0  0
  5  6  1  6  0  0  0
  5 16  1  0  0  0  0
  7 19  1  0  0  0  0
  8  4  1  0  0  0  0
  8 25  2  0  0  0  0
  9  8  1  1  0  0  0
  9 10  1  0  0  0  0
  9 13  1  0  0  0  0
 10 11  1  0  0  0  0
 11 12  1  0  0  0  0
 14 15  1  0  0  0  0
 14 36  1  0  0  0  0
 15 17  1  0  0  0  0
 16 18  1  1  0  0  0
 16 26  1  0  0  0  0
 17 23  1  0  0  0  0
 19 20  1  1  0  0  0
 19 28  1  0  0  0  0
 21 22  1  0  0  0  0
 21 23  1  0  0  0  0
 22 24  1  0  0  0  0
 26 27  1  6  0  0  0
 26 29  1  0  0  0  0
 28  2  1  1  0  0  0
 28 31  1  0  0  0  0
 29 30  1  0  0  0  0
 29 33  1  1  0  0  0
 31 32  1  6  0  0  0
 31 35  1  0  0  0  0
 33 34  1  0  0  0  0
 35 36  1  6  0  0  0
M  END
>  <CHROM.1>
176.60156125,-94.39732409,97.66020558,-90.19325599,-169.20478806,-178.50876398
-75.71024313,-79.11040831,87.02712656,175.51088917,67.35213184,37.11203824
-178.54067521,-74.78757855,40.23473244,3.71309044,8.15665318,2.73883699,0.93068787
0.10876058

>  <Name>
2f4u_lig

>  <RI>
0

>  <Rbt.Current_Directory>
/home/itssahil/PROJECTS/Mol_Feturizer/New_Systems/rnas/2f4u

>  <Rbt.Executable>
rbdock ($Id: //depot/dev/client3/rdock/2013.1/src/exe/rbdock.cxx#4 $)

>  <Rbt.Library>
libRbt.so (2013.1, Build901 2013/11/27)

>  <Rbt.Parameter_File>
/export/apps/rDock/src/rDock_2013.1_src/data/scripts/dock_solv.prm

>  <Rbt.Receptor>
prm/pocket_docking_5.prm

>  <SCORE>
-14.6433

>  <SCORE.INTER>
-5.59228

>  <SCORE.INTER.CONST>
1

>  <SCORE.INTER.POLAR>
-1.64276

>  <SCORE.INTER.ROT>
14

>  <SCORE.INTER.SOLV>
15.6862

>  <SCORE.INTER.VDW>
-16.4144

>  <SCORE.INTER.norm>
-0.155341

>  <SCORE.INTRA>
-9.05099

>  <SCORE.INTRA.DIHEDRAL>
-14.937

>  <SCORE.INTRA.DIHEDRAL.0>
26.3805

>  <SCORE.INTRA.POLAR>
0

>  <SCORE.INTRA.POLAR.0>
0

>  <SCORE.INTRA.REPUL>
0

>  <SCORE.INTRA.REPUL.0>
0

>  <SCORE.INTRA.SOLV>
1.77886

>  <SCORE.INTRA.SOLV.lig_0>
-98.5587

>  <SCORE.INTRA.VDW>
-2.47192

>  <SCORE.INTRA.VDW.0>
-2.91167

>  <SCORE.INTRA.norm>
-0.251416

>  <SCORE.RESTR>
0

>  <SCORE.RESTR.CAVITY>
0

>  <SCORE.RESTR.norm>
0

>  <SCORE.SYSTEM>
0

>  <SCORE.SYSTEM.CONST>
0

>  <SCORE.SYSTEM.DIHEDRAL>
0

>  <SCORE.SYSTEM.SOLV>
0

>  <SCORE.SYSTEM.norm>
0

>  <SCORE.heavy>
36

>  <SCORE.norm>
-0.406758

>  <RMSD>
7.646

$$$$
2f4u_lig
 OpenBabel11021811433D
libRbt.so/2013.1/901 2013/11/27
 36 37  0  0  0  0  0  0  0  0999 V2000
   39.0232   13.3032    2.2361 C   0  0  2  0  0  0  0  0  0  0  0  0
   37.8488   12.4909    1.8635 O   0  0  0  0  0  0  0  0  0  0  0  0
   36.0731    9.1976    4.0762 C   0  0  2  0  0  0  0  0  0  0  0  0
   35.8540    7.8174    4.5880 N   0  0  0  0  0  0  0  0  0  0  0  0
   39.0115   14.5589    1.3103 C   0  0  2  0  0  0  0  0  0  0  0  0
   37.7744   15.3504    1.4420 N   0  0  0  0  0  0  0  0  0  0  0  0
   35.9778    9.2589    2.5108 C   0  0  0  0  0  0  0  0  0  0  0  0
   34.1457    7.3290    4.4132 C   0  0  0  0  0  0  0  0  0  0  0  0
   34.5642    6.1110    5.1754 C   0  0  1  0  0  0  0  0  0  0  0  0
   33.7555    6.0910    6.4773 C   0  0  0  0  0  0  0  0  0  0  0  0
   34.1158    4.9740    7.4741 C   0  0  0  0  0  0  0  0  0  0  0  0
   35.4628    5.2264    7.9897 N   0  0  0  0  0  0  0  0  0  0  0  0
   34.2402    4.9524    4.4564 O   0  0  0  0  0  0  0  0  0  0  0  0
   37.6398    8.9924    7.2260 C   0  0  0  0  0  0  0  0  0  0  0  0
   36.7488    9.7594    8.1917 C   0  0  0  0  0  0  0  0  0  0  0  0
   39.1964   14.0946   -0.1725 C   0  0  1  0  0  0  0  0  0  0  0  0
   37.4850   10.6197    9.1398 N   0  0  0  0  0  0  0  0  0  0  0  0
   39.1817   15.2076   -1.0627 O   0  0  0  0  0  0  0  0  0  0  0  0
   36.2609   10.6817    1.9871 C   0  0  2  0  0  0  0  0  0  0  0  0
   36.2171   10.7284    0.5310 N   0  0  0  0  0  0  0  0  0  0  0  0
   36.0251   10.4916   11.1529 C   0  0  0  0  0  0  0  0  0  0  0  0
   37.0174    9.6691   12.0287 C   0  0  0  0  0  0  0  0  0  0  0  0
   36.7334   11.4252   10.1368 C   0  0  0  0  0  0  0  0  0  0  0  0
   36.3044    8.7246   12.9403 N   0  0  0  0  0  0  0  0  0  0  0  0
   33.2500    7.7662    4.0035 O   0  0  0  0  0  0  0  0  0  0  0  0
   40.5217   13.3129   -0.2702 C   0  0  2  0  0  0  0  0  0  0  0  0
   40.7783   12.8365   -1.5888 O   0  0  0  0  0  0  0  0  0  0  0  0
   37.6315   11.1470    2.4367 C   0  0  2  0  0  0  0  0  0  0  0  0
   40.5306   12.1238    0.7073 C   0  0  2  0  0  0  0  0  0  0  0  0
   40.2589   12.5578    2.0444 O   0  0  0  0  0  0  0  0  0  0  0  0
   37.7124   11.1305    4.0171 C   0  0  2  0  0  0  0  0  0  0  0  0
   39.0486   11.5656    4.4212 O   0  0  0  0  0  0  0  0  0  0  0  0
   41.8471   11.3939    0.6896 C   0  0  0  0  0  0  0  0  0  0  0  0
   42.8729   12.2416    1.0419 O   0  0  0  0  0  0  0  0  0  0  0  0
   37.4420    9.6726    4.5217 C   0  0  1  0  0  0  0  0  0  0  0  0
   37.5027    9.5805    5.9152 O   0  0  0  0  0  0  0  0  0  0  0  0
  1  2  1  6  0  0  0
  1  5  1  0  0  0  0
  1 30  1  0  0  0  0
  3  4  1  6  0  0  0
  3  7  1  0  0  0  0
  3 35  1  0  0  0  0
  5  6  1  6  0  0  0
  5 16  1  0  0  0  0
  7 19  1  0  0  0  0
  8  4  1  0  0  0  0
  8 25  2  0  0  0  0
  9  8  1  6  0  0  0
  9 10  1  0  0  0  0
  9 13  1  0  0  0  0
 10 11  1  0  0  0  0
 11 12  1  0  0  0  0
 14 15  1  0  0  0  0
 14 36  1  0  0  0  0
 15 17  1  0  0  0  0
 16 18  1  6  0  0  0
 16 26  1  0  0  0  0
 17 23  1  0  0  0  0
 19 20  1  6  0  0  0
 19 28  1  0  0  0  0
 21 22  1  0  0  0  0
 21 23  1  0  0  0  0
 22 24  1  0  0  0  0
 26 27  1  6  0  0  0
 26 29  1  0  0  0  0
 28  2  1  1  0  0  0
 28 31  1  0  0  0  0
 29 30  1  0  0  0  0
 29 33  1  1  0  0  0
 31 32  1  6  0  0  0
 31 35  1  0  0  0  0
 33 34  1  0  0  0  0
 35 36  1  1  0  0  0
M  END
>  <CHROM.1>
172.99578565,-71.23204073,118.46538786,-175.10813277,67.44991627,-107.74772843
-146.82782424,179.91705784,66.31051363,-176.72898942,64.80306340,172.67633984
59.65808470,78.46689332,37.42300764,10.35685914,4.25244060,-0.85195155,0.90211153
1.56447406

>  <Name>
2f4u_lig

>  <RI>
0

>  <Rbt.Current_Directory>
/home/itssahil/PROJECTS/Mol_Feturizer/New_Systems/rnas/2f4u

>  <Rbt.Executable>
rbdock ($Id: //depot/dev/client3/rdock/2013.1/src/exe/rbdock.cxx#4 $)

>  <Rbt.Library>
libRbt.so (2013.1, Build901 2013/11/27)

>  <Rbt.Parameter_File>
/export/apps/rDock/src/rDock_2013.1_src/data/scripts/dock_solv.prm

>  <Rbt.Receptor>
prm/pocket_docking_6.prm

>  <SCORE>
-29.1436

>  <SCORE.INTER>
-22.3948

>  <SCORE.INTER.CONST>
1

>  <SCORE.INTER.POLAR>
-1.98934

>  <SCORE.INTER.ROT>
14

>  <SCORE.INTER.SOLV>
22.7221

>  <SCORE.INTER.VDW>
-28.8061

>  <SCORE.INTER.norm>
-0.622077

>  <SCORE.INTRA>
-6.74886

>  <SCORE.INTRA.DIHEDRAL>
-12.1194

>  <SCORE.INTRA.DIHEDRAL.0>
26.3805

>  <SCORE.INTRA.POLAR>
0

>  <SCORE.INTRA.POLAR.0>
0

>  <SCORE.INTRA.REPUL>
0

>  <SCORE.INTRA.REPUL.0>
0

>  <SCORE.INTRA.SOLV>
0.318996

>  <SCORE.INTRA.SOLV.lig_0>
-98.5587

>  <SCORE.INTRA.VDW>
-0.84864

>  <SCORE.INTRA.VDW.0>
-2.91167

>  <SCORE.INTRA.norm>
-0.187468

>  <SCORE.RESTR>
0

>  <SCORE.RESTR.CAVITY>
0

>  <SCORE.RESTR.norm>
0

>  <SCORE.SYSTEM>
0

>  <SCORE.SYSTEM.CONST>
0

>  <SCORE.SYSTEM.DIHEDRAL>
0

>  <SCORE.SYSTEM.SOLV>
0

>  <SCORE.SYSTEM.norm>
0

>  <SCORE.heavy>
36

>  <SCORE.norm>
-0.809545

>  <RMSD>
7.652

$$$$
2f4u_lig
 OpenBabel11021811433D
libRbt.so/2013.1/901 2013/11/27
 36 37  0  0  0  0  0  0  0  0999 V2000
   40.3687   12.1753    1.0292 C   0  0  2  0  0  0  0  0  0  0  0  0
   40.4295   11.5863    2.3809 O   0  0  0  0  0  0  0  0  0  0  0  0
   37.7236    9.3905    4.9794 C   0  0  2  0  0  0  0  0  0  0  0  0
   36.6508    8.4497    5.4019 N   0  0  0  0  0  0  0  0  0  0  0  0
   41.8123   12.6563    0.6846 C   0  0  2  0  0  0  0  0  0  0  0  0
   42.8007   11.5629    0.7265 N   0  0  0  0  0  0  0  0  0  0  0  0
   37.1815   10.4861    3.9951 C   0  0  0  0  0  0  0  0  0  0  0  0
   35.9996    8.8927    7.0042 C   0  0  0  0  0  0  0  0  0  0  0  0
   35.2253    7.6176    6.8840 C   0  0  1  0  0  0  0  0  0  0  0  0
   34.7434    7.2459    8.2907 C   0  0  0  0  0  0  0  0  0  0  0  0
   34.1644    5.8277    8.4488 C   0  0  0  0  0  0  0  0  0  0  0  0
   35.2172    4.8578    8.1412 N   0  0  0  0  0  0  0  0  0  0  0  0
   34.0910    7.8113    6.0838 O   0  0  0  0  0  0  0  0  0  0  0  0
   39.9597    7.0198    6.3124 C   0  0  0  0  0  0  0  0  0  0  0  0
   41.4246    6.8530    5.9372 C   0  0  0  0  0  0  0  0  0  0  0  0
   42.2200   13.7873    1.6863 C   0  0  1  0  0  0  0  0  0  0  0  0
   42.1547    5.8766    6.7706 N   0  0  0  0  0  0  0  0  0  0  0  0
   43.5397   14.2551    1.4200 O   0  0  0  0  0  0  0  0  0  0  0  0
   38.3117   11.4219    3.5202 C   0  0  2  0  0  0  0  0  0  0  0  0
   37.8165   12.4110    2.5710 N   0  0  0  0  0  0  0  0  0  0  0  0
   42.5532    3.6596    7.8319 C   0  0  0  0  0  0  0  0  0  0  0  0
   43.9685    3.3053    7.2846 C   0  0  0  0  0  0  0  0  0  0  0  0
   41.6911    4.4660    6.8258 C   0  0  0  0  0  0  0  0  0  0  0  0
   44.9084    4.4623    7.3806 N   0  0  0  0  0  0  0  0  0  0  0  0
   36.1641    9.6820    7.7193 O   0  0  0  0  0  0  0  0  0  0  0  0
   41.1859   14.9253    1.5738 C   0  0  2  0  0  0  0  0  0  0  0  0
   41.4661   16.0066    2.4593 O   0  0  0  0  0  0  0  0  0  0  0  0
   39.4098   10.6240    2.8458 C   0  0  2  0  0  0  0  0  0  0  0  0
   39.7639   14.4034    1.8478 C   0  0  2  0  0  0  0  0  0  0  0  0
   39.4480   13.3023    0.9889 O   0  0  0  0  0  0  0  0  0  0  0  0
   39.9895    9.5504    3.8537 C   0  0  2  0  0  0  0  0  0  0  0  0
   41.0322    8.7847    3.1721 O   0  0  0  0  0  0  0  0  0  0  0  0
   38.7270   15.4790    1.6630 C   0  0  0  0  0  0  0  0  0  0  0  0
   38.7970   16.0024    0.3916 O   0  0  0  0  0  0  0  0  0  0  0  0
   38.8279    8.6013    4.3042 C   0  0  1  0  0  0  0  0  0  0  0  0
   39.2692    7.6194    5.1959 O   0  0  0  0  0  0  0  0  0  0  0  0
  1  2  1  1  0  0  0
  1  5  1  0  0  0  0
  1 30  1  0  0  0  0
  3  4  1  6  0  0  0
  3  7  1  0  0  0  0
  3 35  1  0  0  0  0
  5  6  1  1  0  0  0
  5 16  1  0  0  0  0
  7 19  1  0  0  0  0
  8  4  1  0  0  0  0
  8 25  2  0  0  0  0
  9  8  1  1  0  0  0
  9 10  1  0  0  0  0
  9 13  1  0  0  0  0
 10 11  1  0  0  0  0
 11 12  1  0  0  0  0
 14 15  1  0  0  0  0
 14 36  1  0  0  0  0
 15 17  1  0  0  0  0
 16 18  1  6  0  0  0
 16 26  1  0  0  0  0
 17 23  1  0  0  0  0
 19 20  1  6  0  0  0
 19 28  1  0  0  0  0
 21 22  1  0  0  0  0
 21 23  1  0  0  0  0
 22 24  1  0  0  0  0
 26 27  1  1  0  0  0
 26 29  1  0  0  0  0
 28  2  1  1  0  0  0
 28 31  1  0  0  0  0
 29 30  1  0  0  0  0
 29 33  1  6  0  0  0
 31 32  1  6  0  0  0
 31 35  1  0  0  0  0
 33 34  1  0  0  0  0
 35 36  1  1  0  0  0
M  END
>  <CHROM.1>
-158.21404108,-98.63084403,162.33531486,-168.33646397,62.28097638,-161.00681681
-77.56448318,59.05213807,-176.27419002,79.27810943,-75.45586641,-90.91510349
57.24013337,-77.62710283,39.42661546,9.78701190,4.35981190,-1.37925596,-0.22856048
2.56879410

>  <Name>
2f4u_lig

>  <RI>
0

>  <Rbt.Current_Directory>
/home/itssahil/PROJECTS/Mol_Feturizer/New_Systems/rnas/2f4u

>  <Rbt.Executable>
rbdock ($Id: //depot/dev/client3/rdock/2013.1/src/exe/rbdock.cxx#4 $)

>  <Rbt.Library>
libRbt.so (2013.1, Build901 2013/11/27)

>  <Rbt.Parameter_File>
/export/apps/rDock/src/rDock_2013.1_src/data/scripts/dock_solv.prm

>  <Rbt.Receptor>
prm/pocket_docking_5.prm

>  <SCORE>
-8.25534

>  <SCORE.INTER>
-5.17862

>  <SCORE.INTER.CONST>
1

>  <SCORE.INTER.POLAR>
-0.847068

>  <SCORE.INTER.ROT>
14

>  <SCORE.INTER.SOLV>
21.0011

>  <SCORE.INTER.VDW>
-20.5626

>  <SCORE.INTER.norm>
-0.143851

>  <SCORE.INTRA>
-3.08719

>  <SCORE.INTRA.DIHEDRAL>
-11.8212

>  <SCORE.INTRA.DIHEDRAL.0>
26.3805

>  <SCORE.INTRA.POLAR>
0

>  <SCORE.INTRA.POLAR.0>
0

>  <SCORE.INTRA.REPUL>
0

>  <SCORE.INTRA.REPUL.0>
0

>  <SCORE.INTRA.SOLV>
5.89017

>  <SCORE.INTRA.SOLV.lig_0>
-98.5587

>  <SCORE.INTRA.VDW>
-0.121672

>  <SCORE.INTRA.VDW.0>
-2.91167

>  <SCORE.INTRA.norm>
-0.0857553

>  <SCORE.RESTR>
0.0104714

>  <SCORE.RESTR.CAVITY>
0.0104714

>  <SCORE.RESTR.norm>
0.000290872

>  <SCORE.SYSTEM>
0

>  <SCORE.SYSTEM.CONST>
0

>  <SCORE.SYSTEM.DIHEDRAL>
0

>  <SCORE.SYSTEM.SOLV>
0

>  <SCORE.SYSTEM.norm>
0

>  <SCORE.heavy>
36

>  <SCORE.norm>
-0.229315

>  <RMSD>
7.662

$$$$
2f4u_lig
 OpenBabel11021811433D
libRbt.so/2013.1/901 2013/11/27
 36 37  0  0  0  0  0  0  0  0999 V2000
   38.2795   12.7019    0.6426 C   0  0  2  0  0  0  0  0  0  0  0  0
   37.9029   12.3525    2.0261 O   0  0  0  0  0  0  0  0  0  0  0  0
   35.6770    8.9459    3.5543 C   0  0  2  0  0  0  0  0  0  0  0  0
   35.3248    7.5329    3.8616 N   0  0  0  0  0  0  0  0  0  0  0  0
   39.3961   13.7870    0.7426 C   0  0  2  0  0  0  0  0  0  0  0  0
   40.5750   13.3214    1.4959 N   0  0  0  0  0  0  0  0  0  0  0  0
   35.8186    9.1870    2.0099 C   0  0  0  0  0  0  0  0  0  0  0  0
   36.4471    6.4000    3.0588 C   0  0  0  0  0  0  0  0  0  0  0  0
   35.5257    5.3419    3.5795 C   0  0  1  0  0  0  0  0  0  0  0  0
   35.4726    4.2292    2.5267 C   0  0  0  0  0  0  0  0  0  0  0  0
   34.3670    3.1748    2.7198 C   0  0  0  0  0  0  0  0  0  0  0  0
   34.6052    2.4763    3.9843 N   0  0  0  0  0  0  0  0  0  0  0  0
   36.0405    4.7865    4.7588 O   0  0  0  0  0  0  0  0  0  0  0  0
   36.2838    9.1011    6.9445 C   0  0  0  0  0  0  0  0  0  0  0  0
   34.8484    8.5991    6.8988 C   0  0  0  0  0  0  0  0  0  0  0  0
   38.7982   15.0657    1.4179 C   0  0  1  0  0  0  0  0  0  0  0  0
   34.1172    8.7417    8.1739 N   0  0  0  0  0  0  0  0  0  0  0  0
   39.7846   16.0869    1.5430 O   0  0  0  0  0  0  0  0  0  0  0  0
   36.2377   10.6396    1.7053 C   0  0  2  0  0  0  0  0  0  0  0  0
   36.4132   10.8509    0.2739 N   0  0  0  0  0  0  0  0  0  0  0  0
   32.0932    8.6514    9.6215 C   0  0  0  0  0  0  0  0  0  0  0  0
   32.4871    9.8648   10.5163 C   0  0  0  0  0  0  0  0  0  0  0  0
   32.6315    8.7593    8.1709 C   0  0  0  0  0  0  0  0  0  0  0  0
   32.0447    9.6802   11.9311 N   0  0  0  0  0  0  0  0  0  0  0  0
   37.3263    6.4832    2.4412 O   0  0  0  0  0  0  0  0  0  0  0  0
   37.6000   15.5410    0.5719 C   0  0  2  0  0  0  0  0  0  0  0  0
   36.9770   16.7033    1.1130 O   0  0  0  0  0  0  0  0  0  0  0  0
   37.5449   10.9686    2.3983 C   0  0  2  0  0  0  0  0  0  0  0  0
   36.5502   14.4240    0.4315 C   0  0  2  0  0  0  0  0  0  0  0  0
   37.1401   13.2298   -0.0939 O   0  0  0  0  0  0  0  0  0  0  0  0
   37.3887   10.7713    3.9607 C   0  0  2  0  0  0  0  0  0  0  0  0
   38.6674   11.0774    4.6005 O   0  0  0  0  0  0  0  0  0  0  0  0
   35.4089   14.8366   -0.4592 C   0  0  0  0  0  0  0  0  0  0  0  0
   35.8732   15.1841   -1.7077 O   0  0  0  0  0  0  0  0  0  0  0  0
   36.9836    9.2851    4.2442 C   0  0  1  0  0  0  0  0  0  0  0  0
   36.8320    9.0347    5.6112 O   0  0  0  0  0  0  0  0  0  0  0  0
  1  2  1  1  0  0  0
  1  5  1  0  0  0  0
  1 30  1  0  0  0  0
  3  4  1  6  0  0  0
  3  7  1  0  0  0  0
  3 35  1  0  0  0  0
  5  6  1  1  0  0  0
  5 16  1  0  0  0  0
  7 19  1  0  0  0  0
  8  4  1  0  0  0  0
  8 25  2  0  0  0  0
  9  8  1  6  0  0  0
  9 10  1  0  0  0  0
  9 13  1  0  0  0  0
 10 11  1  0  0  0  0
 11 12  1  0  0  0  0
 14 15  1  0  0  0  0
 14 36  1  0  0  0  0
 15 17  1  0  0  0  0
 16 18  1  6  0  0  0
 16 26  1  0  0  0  0
 17 23  1  0  0  0  0
 19 20  1  6  0  0  0
 19 28  1  0  0  0  0
 21 22  1  0  0  0  0
 21 23  1  0  0  0  0
 22 24  1  0  0  0  0
 26 27  1  1  0  0  0
 26 29  1  0  0  0  0
 28  2  1  1  0  0  0
 28 31  1  0  0  0  0
 29 30  1  0  0  0  0
 29 33  1  6  0  0  0
 31 32  1  1  0  0  0
 31 35  1  0  0  0  0
 33 34  1  0  0  0  0
 35 36  1  1  0  0  0
M  END
>  <CHROM.1>
-143.71859275,51.83054775,144.65996043,-167.96254840,-62.71748495,-174.04276217
60.62666257,158.37203169,169.50722238,-175.58662088,63.80082182,-67.53681278
58.00182841,-55.62895649,36.27980579,10.25302535,3.46806687,-0.61681241,-1.14028888
-2.89184005

>  <Name>
2f4u_lig

>  <RI>
0

>  <Rbt.Current_Directory>
/home/itssahil/PROJECTS/Mol_Feturizer/New_Systems/rnas/2f4u

>  <Rbt.Executable>
rbdock ($Id: //depot/dev/client3/rdock/2013.1/src/exe/rbdock.cxx#4 $)

>  <Rbt.Library>
libRbt.so (2013.1, Build901 2013/11/27)

>  <Rbt.Parameter_File>
/export/apps/rDock/src/rDock_2013.1_src/data/scripts/dock_solv.prm

>  <Rbt.Receptor>
prm/pocket_docking_7.prm

>  <SCORE>
-23.5319

>  <SCORE.INTER>
-16.4319

>  <SCORE.INTER.CONST>
1

>  <SCORE.INTER.POLAR>
-0.979796

>  <SCORE.INTER.ROT>
14

>  <SCORE.INTER.SOLV>
12.7189

>  <SCORE.INTER.VDW>
-24.8616

>  <SCORE.INTER.norm>
-0.456442

>  <SCORE.INTRA>
-7.10004

>  <SCORE.INTRA.DIHEDRAL>
-18.1857

>  <SCORE.INTRA.DIHEDRAL.0>
26.3805

>  <SCORE.INTRA.POLAR>
0

>  <SCORE.INTRA.POLAR.0>
0

>  <SCORE.INTRA.REPUL>
0

>  <SCORE.INTRA.REPUL.0>
0

>  <SCORE.INTRA.SOLV>
4.14213

>  <SCORE.INTRA.SOLV.lig_0>
-98.5587

>  <SCORE.INTRA.VDW>
-0.0782351

>  <SCORE.INTRA.VDW.0>
-2.91167

>  <SCORE.INTRA.norm>
-0.197223

>  <SCORE.RESTR>
0

>  <SCORE.RESTR.CAVITY>
0

>  <SCORE.RESTR.norm>
0

>  <SCORE.SYSTEM>
0

>  <SCORE.SYSTEM.CONST>
0

>  <SCORE.SYSTEM.DIHEDRAL>
0

>  <SCORE.SYSTEM.SOLV>
0

>  <SCORE.SYSTEM.norm>
0

>  <SCORE.heavy>
36

>  <SCORE.norm>
-0.653665

>  <RMSD>
7.662

$$$$
2f4u_lig
 OpenBabel11021811433D
libRbt.so/2013.1/901 2013/11/27
 36 37  0  0  0  0  0  0  0  0999 V2000
   40.3124    7.3490    4.2655 C   0  0  2  0  0  0  0  0  0  0  0  0
   39.9823    6.9802    5.6557 O   0  0  0  0  0  0  0  0  0  0  0  0
   36.8487    8.0478    8.4728 C   0  0  2  0  0  0  0  0  0  0  0  0
   35.4937    8.3702    8.9970 N   0  0  0  0  0  0  0  0  0  0  0  0
   39.7148    6.2341    3.3522 C   0  0  2  0  0  0  0  0  0  0  0  0
   38.2565    6.0878    3.5143 N   0  0  0  0  0  0  0  0  0  0  0  0
   37.2861    9.0432    7.3409 C   0  0  0  0  0  0  0  0  0  0  0  0
   35.5815    9.0027   10.6642 C   0  0  0  0  0  0  0  0  0  0  0  0
   34.0869    8.9440   10.6133 C   0  0  1  0  0  0  0  0  0  0  0  0
   33.6542    7.7136   11.4185 C   0  0  0  0  0  0  0  0  0  0  0  0
   32.1869    7.2797   11.2444 C   0  0  0  0  0  0  0  0  0  0  0  0
   31.3218    8.3642   11.7127 N   0  0  0  0  0  0  0  0  0  0  0  0
   33.5346   10.0730   11.2333 O   0  0  0  0  0  0  0  0  0  0  0  0
   36.4846    4.9509   10.1350 C   0  0  0  0  0  0  0  0  0  0  0  0
   37.1470    5.7528   11.2453 C   0  0  0  0  0  0  0  0  0  0  0  0
   40.4294    4.8800    3.6752 C   0  0  1  0  0  0  0  0  0  0  0  0
   37.1738    5.0669   12.5529 N   0  0  0  0  0  0  0  0  0  0  0  0
   39.9100    3.8232    2.8723 O   0  0  0  0  0  0  0  0  0  0  0  0
   38.6673    8.6673    6.7666 C   0  0  2  0  0  0  0  0  0  0  0  0
   39.0528    9.5646    5.6847 N   0  0  0  0  0  0  0  0  0  0  0  0
   38.8333    6.4787   13.7583 C   0  0  0  0  0  0  0  0  0  0  0  0
   40.2063    6.5477   14.4920 C   0  0  0  0  0  0  0  0  0  0  0  0
   38.4323    5.0393   13.3422 C   0  0  0  0  0  0  0  0  0  0  0  0
   40.5744    7.9493   14.8542 N   0  0  0  0  0  0  0  0  0  0  0  0
   36.3644    9.2384   11.3662 O   0  0  0  0  0  0  0  0  0  0  0  0
   41.9427    5.0684    3.4478 C   0  0  2  0  0  0  0  0  0  0  0  0
   42.6876    3.8854    3.7260 O   0  0  0  0  0  0  0  0  0  0  0  0
   38.6469    7.2516    6.2257 C   0  0  2  0  0  0  0  0  0  0  0  0
   42.4873    6.2225    4.3086 C   0  0  2  0  0  0  0  0  0  0  0  0
   41.7531    7.4288    4.0718 O   0  0  0  0  0  0  0  0  0  0  0  0
   38.2520    6.2421    7.3787 C   0  0  2  0  0  0  0  0  0  0  0  0
   38.2225    4.8890    6.8252 O   0  0  0  0  0  0  0  0  0  0  0  0
   43.9465    6.4796    4.0425 C   0  0  0  0  0  0  0  0  0  0  0  0
   44.3629    7.6162    4.6982 O   0  0  0  0  0  0  0  0  0  0  0  0
   36.8389    6.6324    7.9300 C   0  0  1  0  0  0  0  0  0  0  0  0
   36.4206    5.7765    8.9531 O   0  0  0  0  0  0  0  0  0  0  0  0
  1  2  1  1  0  0  0
  1  5  1  0  0  0  0
  1 30  1  0  0  0  0
  3  4  1  6  0  0  0
  3  7  1  0  0  0  0
  3 35  1  0  0  0  0
  5  6  1  1  0  0  0
  5 16  1  0  0  0  0
  7 19  1  0  0  0  0
  8  4  1  0  0  0  0
  8 25  2  0  0  0  0
  9  8  1  1  0  0  0
  9 10  1  0  0  0  0
  9 13  1  0  0  0  0
 10 11  1  0  0  0  0
 11 12  1  0  0  0  0
 14 15  1  0  0  0  0
 14 36  1  0  0  0  0
 15 17  1  0  0  0  0
 16 18  1  6  0  0  0
 16 26  1  0  0  0  0
 17 23  1  0  0  0  0
 19 20  1  6  0  0  0
 19 28  1  0  0  0  0
 21 22  1  0  0  0  0
 21 23  1  0  0  0  0
 22 24  1  0  0  0  0
 26 27  1  1  0  0  0
 26 29  1  0  0  0  0
 28  2  1  1  0  0  0
 28 31  1  0  0  0  0
 29 30  1  0  0  0  0
 29 33  1  6  0  0  0
 31 32  1  6  0  0  0
 31 35  1  0  0  0  0
 33 34  1  0  0  0  0
 35 36  1  1  0  0  0
M  END
>  <CHROM.1>
-80.26156592,-110.36230829,103.39372255,-166.94492535,-62.17541153,175.01651761
49.96819974,133.34321825,63.90109701,178.87203082,-175.31480761,-86.15314372
172.54800063,-81.19268451,38.28354579,6.89788130,8.06108223,0.89183867,0.28265532
-1.55288844

>  <Name>
2f4u_lig

>  <RI>
0

>  <Rbt.Current_Directory>
/home/itssahil/PROJECTS/Mol_Feturizer/New_Systems/rnas/2f4u

>  <Rbt.Executable>
rbdock ($Id: //depot/dev/client3/rdock/2013.1/src/exe/rbdock.cxx#4 $)

>  <Rbt.Library>
libRbt.so (2013.1, Build901 2013/11/27)

>  <Rbt.Parameter_File>
/export/apps/rDock/src/rDock_2013.1_src/data/scripts/dock_solv.prm

>  <Rbt.Receptor>
prm/pocket_docking_6.prm

>  <SCORE>
-9.52239

>  <SCORE.INTER>
-2.73678

>  <SCORE.INTER.CONST>
1

>  <SCORE.INTER.POLAR>
-0.401967

>  <SCORE.INTER.ROT>
14

>  <SCORE.INTER.SOLV>
14.0196

>  <SCORE.INTER.VDW>
-18.0912

>  <SCORE.INTER.norm>
-0.0760215

>  <SCORE.INTRA>
-6.78561

>  <SCORE.INTRA.DIHEDRAL>
-13.7521

>  <SCORE.INTRA.DIHEDRAL.0>
26.3805

>  <SCORE.INTRA.POLAR>
0

>  <SCORE.INTRA.POLAR.0>
0

>  <SCORE.INTRA.REPUL>
0

>  <SCORE.INTRA.REPUL.0>
0

>  <SCORE.INTRA.SOLV>
3.78041

>  <SCORE.INTRA.SOLV.lig_0>
-98.5587

>  <SCORE.INTRA.VDW>
-1.79975

>  <SCORE.INTRA.VDW.0>
-2.91167

>  <SCORE.INTRA.norm>
-0.188489

>  <SCORE.RESTR>
0

>  <SCORE.RESTR.CAVITY>
0

>  <SCORE.RESTR.norm>
0

>  <SCORE.SYSTEM>
0

>  <SCORE.SYSTEM.CONST>
0

>  <SCORE.SYSTEM.DIHEDRAL>
0

>  <SCORE.SYSTEM.SOLV>
0

>  <SCORE.SYSTEM.norm>
0

>  <SCORE.heavy>
36

>  <SCORE.norm>
-0.264511

>  <RMSD>
7.760

$$$$
2f4u_lig
 OpenBabel11021811433D
libRbt.so/2013.1/901 2013/11/27
 36 37  0  0  0  0  0  0  0  0999 V2000
   38.8371    4.3154   12.0017 C   0  0  2  0  0  0  0  0  0  0  0  0
   38.6021    4.9516   10.6910 O   0  0  0  0  0  0  0  0  0  0  0  0
   40.9892    5.4846    7.0976 C   0  0  2  0  0  0  0  0  0  0  0  0
   42.1144    5.9053    6.2192 N   0  0  0  0  0  0  0  0  0  0  0  0
   37.4365    4.1106   12.6579 C   0  0  2  0  0  0  0  0  0  0  0  0
   36.5395    3.2789   11.8346 N   0  0  0  0  0  0  0  0  0  0  0  0
   40.3120    6.7123    7.8029 C   0  0  0  0  0  0  0  0  0  0  0  0
   42.2007    4.8911    4.7524 C   0  0  0  0  0  0  0  0  0  0  0  0
   43.4647    5.6441    4.4787 C   0  0  1  0  0  0  0  0  0  0  0  0
   44.6111    4.8526    5.1181 C   0  0  0  0  0  0  0  0  0  0  0  0
   45.9697    5.5745    5.1847 C   0  0  0  0  0  0  0  0  0  0  0  0
   46.9625    4.6490    5.7339 N   0  0  0  0  0  0  0  0  0  0  0  0
   43.7067    5.7028    3.0995 O   0  0  0  0  0  0  0  0  0  0  0  0
   42.7510    2.1684    7.2817 C   0  0  0  0  0  0  0  0  0  0  0  0
   41.6903    1.0961    7.4810 C   0  0  0  0  0  0  0  0  0  0  0  0
   36.7877    5.5119   12.9108 C   0  0  1  0  0  0  0  0  0  0  0  0
   41.8549   -0.0860    6.6111 N   0  0  0  0  0  0  0  0  0  0  0  0
   35.4973    5.3792   13.5012 O   0  0  0  0  0  0  0  0  0  0  0  0
   39.1839    6.2611    8.7528 C   0  0  2  0  0  0  0  0  0  0  0  0
   38.5856    7.3977    9.4417 N   0  0  0  0  0  0  0  0  0  0  0  0
   43.2305   -1.8167    5.4657 C   0  0  0  0  0  0  0  0  0  0  0  0
   44.5230   -2.6871    5.4815 C   0  0  0  0  0  0  0  0  0  0  0  0
   43.0880   -0.9083    6.7147 C   0  0  0  0  0  0  0  0  0  0  0  0
   45.7592   -1.8490    5.4532 N   0  0  0  0  0  0  0  0  0  0  0  0
   41.6275    4.0808    4.3325 O   0  0  0  0  0  0  0  0  0  0  0  0
   37.7379    6.3266   13.8112 C   0  0  2  0  0  0  0  0  0  0  0  0
   37.2371    7.6308   14.0938 O   0  0  0  0  0  0  0  0  0  0  0  0
   39.7234    5.3031    9.7960 C   0  0  2  0  0  0  0  0  0  0  0  0
   39.1317    6.4486   13.1694 C   0  0  2  0  0  0  0  0  0  0  0  0
   39.6647    5.1579   12.8530 O   0  0  0  0  0  0  0  0  0  0  0  0
   40.3643    4.0421    9.0865 C   0  0  2  0  0  0  0  0  0  0  0  0
   40.8918    3.1455   10.1141 O   0  0  0  0  0  0  0  0  0  0  0  0
   40.1009    7.1695   14.0677 C   0  0  0  0  0  0  0  0  0  0  0  0
   40.3181    6.4481   15.2199 O   0  0  0  0  0  0  0  0  0  0  0  0
   41.5189    4.5248    8.1446 C   0  0  1  0  0  0  0  0  0  0  0  0
   42.1376    3.4588    7.4849 O   0  0  0  0  0  0  0  0  0  0  0  0
  1  2  1  6  0  0  0
  1  5  1  0  0  0  0
  1 30  1  0  0  0  0
  3  4  1  6  0  0  0
  3  7  1  0  0  0  0
  3 35  1  0  0  0  0
  5  6  1  6  0  0  0
  5 16  1  0  0  0  0
  7 19  1  0  0  0  0
  8  4  1  0  0  0  0
  8 25  2  0  0  0  0
  9  8  1  6  0  0  0
  9 10  1  0  0  0  0
  9 13  1  0  0  0  0
 10 11  1  0  0  0  0
 11 12  1  0  0  0  0
 14 15  1  0  0  0  0
 14 36  1  0  0  0  0
 15 17  1  0  0  0  0
 16 18  1  1  0  0  0
 16 26  1  0  0  0  0
 17 23  1  0  0  0  0
 19 20  1  1  0  0  0
 19 28  1  0  0  0  0
 21 22  1  0  0  0  0
 21 23  1  0  0  0  0
 22 24  1  0  0  0  0
 26 27  1  6  0  0  0
 26 29  1  0  0  0  0
 28  2  1  1  0  0  0
 28 31  1  0  0  0  0
 29 30  1  0  0  0  0
 29 33  1  1  0  0  0
 31 32  1  1  0  0  0
 31 35  1  0  0  0  0
 33 34  1  0  0  0  0
 35 36  1  6  0  0  0
M  END
>  <CHROM.1>
179.46670697,-143.98860233,90.89276463,-169.10001413,-176.13665534,145.89181959
67.35252487,61.22991819,-163.66520311,-63.17581997,178.52196301,-164.49443327
64.23508826,-167.56884929,40.96688692,4.18036311,8.86504912,2.84632464,0.93830812
-0.10885189

>  <Name>
2f4u_lig

>  <RI>
0

>  <Rbt.Current_Directory>
/home/itssahil/PROJECTS/Mol_Feturizer/New_Systems/rnas/2f4u

>  <Rbt.Executable>
rbdock ($Id: //depot/dev/client3/rdock/2013.1/src/exe/rbdock.cxx#4 $)

>  <Rbt.Library>
libRbt.so (2013.1, Build901 2013/11/27)

>  <Rbt.Parameter_File>
/export/apps/rDock/src/rDock_2013.1_src/data/scripts/dock_solv.prm

>  <Rbt.Receptor>
prm/pocket_docking_8.prm

>  <SCORE>
-17.0829

>  <SCORE.INTER>
-6.68043

>  <SCORE.INTER.CONST>
1

>  <SCORE.INTER.POLAR>
-0.717011

>  <SCORE.INTER.ROT>
14

>  <SCORE.INTER.SOLV>
13.9527

>  <SCORE.INTER.VDW>
-19.6478

>  <SCORE.INTER.norm>
-0.185568

>  <SCORE.INTRA>
-10.4024

>  <SCORE.INTRA.DIHEDRAL>
-17.5365

>  <SCORE.INTRA.DIHEDRAL.0>
26.3805

>  <SCORE.INTRA.POLAR>
0

>  <SCORE.INTRA.POLAR.0>
0

>  <SCORE.INTRA.REPUL>
0

>  <SCORE.INTRA.REPUL.0>
0

>  <SCORE.INTRA.SOLV>
0.347512

>  <SCORE.INTRA.SOLV.lig_0>
-98.5587

>  <SCORE.INTRA.VDW>
-1.80795

>  <SCORE.INTRA.VDW.0>
-2.91167

>  <SCORE.INTRA.norm>
-0.288956

>  <SCORE.RESTR>
0

>  <SCORE.RESTR.CAVITY>
0

>  <SCORE.RESTR.norm>
0

>  <SCORE.SYSTEM>
0

>  <SCORE.SYSTEM.CONST>
0

>  <SCORE.SYSTEM.DIHEDRAL>
0

>  <SCORE.SYSTEM.SOLV>
0

>  <SCORE.SYSTEM.norm>
0

>  <SCORE.heavy>
36

>  <SCORE.norm>
-0.474524

>  <RMSD>
7.787

$$$$
2f4u_lig
 OpenBabel11021811433D
libRbt.so/2013.1/901 2013/11/27
 36 37  0  0  0  0  0  0  0  0999 V2000
   38.8715   13.1983    2.1845 C   0  0  2  0  0  0  0  0  0  0  0  0
   37.7108   12.3883    1.7667 O   0  0  0  0  0  0  0  0  0  0  0  0
   35.7512    9.0749    3.7856 C   0  0  2  0  0  0  0  0  0  0  0  0
   35.5110    7.6990    4.2994 N   0  0  0  0  0  0  0  0  0  0  0  0
   38.8521   14.4922    1.3131 C   0  0  2  0  0  0  0  0  0  0  0  0
   37.6040   15.2621    1.4669 N   0  0  0  0  0  0  0  0  0  0  0  0
   35.8896    9.0958    2.2224 C   0  0  0  0  0  0  0  0  0  0  0  0
   33.7733    7.2913    4.2615 C   0  0  0  0  0  0  0  0  0  0  0  0
   34.1960    6.0447    4.9736 C   0  0  1  0  0  0  0  0  0  0  0  0
   32.9925    5.5583    5.7887 C   0  0  0  0  0  0  0  0  0  0  0  0
   33.2406    4.3302    6.6841 C   0  0  0  0  0  0  0  0  0  0  0  0
   31.9949    4.0020    7.3803 N   0  0  0  0  0  0  0  0  0  0  0  0
   34.5160    5.0413    4.0489 O   0  0  0  0  0  0  0  0  0  0  0  0
   36.6130    9.0143    7.1154 C   0  0  0  0  0  0  0  0  0  0  0  0
   35.1507    8.5994    7.1810 C   0  0  0  0  0  0  0  0  0  0  0  0
   39.0559   14.0940   -0.1864 C   0  0  1  0  0  0  0  0  0  0  0  0
   34.7979    7.8164    8.3825 N   0  0  0  0  0  0  0  0  0  0  0  0
   39.0350   15.2438   -1.0284 O   0  0  0  0  0  0  0  0  0  0  0  0
   36.1931   10.5167    1.7053 C   0  0  2  0  0  0  0  0  0  0  0  0
   36.3666   10.5277    0.2582 N   0  0  0  0  0  0  0  0  0  0  0  0
   35.9439    7.0124   10.4416 C   0  0  0  0  0  0  0  0  0  0  0  0
   36.8639    7.4139   11.6335 C   0  0  0  0  0  0  0  0  0  0  0  0
   35.3228    8.2304    9.7093 C   0  0  0  0  0  0  0  0  0  0  0  0
   38.0708    8.1661   11.1765 N   0  0  0  0  0  0  0  0  0  0  0  0
   32.8682    7.7746    3.9320 O   0  0  0  0  0  0  0  0  0  0  0  0
   40.3918   13.3335   -0.3050 C   0  0  2  0  0  0  0  0  0  0  0  0
   40.6660   12.9171   -1.6403 O   0  0  0  0  0  0  0  0  0  0  0  0
   37.4618   11.0501    2.3403 C   0  0  2  0  0  0  0  0  0  0  0  0
   40.4071   12.1039    0.6209 C   0  0  2  0  0  0  0  0  0  0  0  0
   40.1182   12.4769    1.9728 O   0  0  0  0  0  0  0  0  0  0  0  0
   37.3052   11.0738    3.9149 C   0  0  2  0  0  0  0  0  0  0  0  0
   38.5479   11.5744    4.5006 O   0  0  0  0  0  0  0  0  0  0  0  0
   41.7328   11.3915    0.5844 C   0  0  0  0  0  0  0  0  0  0  0  0
   41.6877   10.2499    1.3523 O   0  0  0  0  0  0  0  0  0  0  0  0
   37.0185    9.6178    4.4160 C   0  0  1  0  0  0  0  0  0  0  0  0
   36.8728    9.5608    5.8052 O   0  0  0  0  0  0  0  0  0  0  0  0
  1  2  1  6  0  0  0
  1  5  1  0  0  0  0
  1 30  1  0  0  0  0
  3  4  1  1  0  0  0
  3  7  1  0  0  0  0
  3 35  1  0  0  0  0
  5  6  1  6  0  0  0
  5 16  1  0  0  0  0
  7 19  1  0  0  0  0
  8  4  1  0  0  0  0
  8 25  2  0  0  0  0
  9  8  1  6  0  0  0
  9 10  1  0  0  0  0
  9 13  1  0  0  0  0
 10 11  1  0  0  0  0
 11 12  1  0  0  0  0
 14 15  1  0  0  0  0
 14 36  1  0  0  0  0
 15 17  1  0  0  0  0
 16 18  1  6  0  0  0
 16 26  1  0  0  0  0
 17 23  1  0  0  0  0
 19 20  1  6  0  0  0
 19 28  1  0  0  0  0
 21 22  1  0  0  0  0
 21 23  1  0  0  0  0
 22 24  1  0  0  0  0
 26 27  1  6  0  0  0
 26 29  1  0  0  0  0
 28  2  1  6  0  0  0
 28 31  1  0  0  0  0
 29 30  1  0  0  0  0
 29 33  1  1  0  0  0
 31 32  1  1  0  0  0
 31 35  1  0  0  0  0
 33 34  1  0  0  0  0
 35 36  1  1  0  0  0
M  END
>  <CHROM.1>
176.66654780,-85.63919183,153.82172695,-175.88281422,-179.77664083,170.21722567
-64.91178309,43.06716602,-130.92065008,-64.74635166,163.60945421,179.35967650
-176.06513064,53.10342179,36.95946016,9.82390979,3.97906516,-0.91670778,0.74807357
1.82003660

>  <Name>
2f4u_lig

>  <RI>
0

>  <Rbt.Current_Directory>
/home/itssahil/PROJECTS/Mol_Feturizer/New_Systems/rnas/2f4u

>  <Rbt.Executable>
rbdock ($Id: //depot/dev/client3/rdock/2013.1/src/exe/rbdock.cxx#4 $)

>  <Rbt.Library>
libRbt.so (2013.1, Build901 2013/11/27)

>  <Rbt.Parameter_File>
/export/apps/rDock/src/rDock_2013.1_src/data/scripts/dock_solv.prm

>  <Rbt.Receptor>
prm/pocket_docking_7.prm

>  <SCORE>
-33.4658

>  <SCORE.INTER>
-22.2124

>  <SCORE.INTER.CONST>
1

>  <SCORE.INTER.POLAR>
-2.5017

>  <SCORE.INTER.ROT>
14

>  <SCORE.INTER.SOLV>
24.4584

>  <SCORE.INTER.VDW>
-27.5554

>  <SCORE.INTER.norm>
-0.617012

>  <SCORE.INTRA>
-11.2533

>  <SCORE.INTRA.DIHEDRAL>
-21.2845

>  <SCORE.INTRA.DIHEDRAL.0>
26.3805

>  <SCORE.INTRA.POLAR>
0

>  <SCORE.INTRA.POLAR.0>
0

>  <SCORE.INTRA.REPUL>
0

>  <SCORE.INTRA.REPUL.0>
0

>  <SCORE.INTRA.SOLV>
0.571612

>  <SCORE.INTRA.SOLV.lig_0>
-98.5587

>  <SCORE.INTRA.VDW>
-0.896869

>  <SCORE.INTRA.VDW.0>
-2.91167

>  <SCORE.INTRA.norm>
-0.312592

>  <SCORE.RESTR>
0

>  <SCORE.RESTR.CAVITY>
0

>  <SCORE.RESTR.norm>
0

>  <SCORE.SYSTEM>
0

>  <SCORE.SYSTEM.CONST>
0

>  <SCORE.SYSTEM.DIHEDRAL>
0

>  <SCORE.SYSTEM.SOLV>
0

>  <SCORE.SYSTEM.norm>
0

>  <SCORE.heavy>
36

>  <SCORE.norm>
-0.929605

>  <RMSD>
7.792

$$$$
2f4u_lig
 OpenBabel11021811433D
libRbt.so/2013.1/901 2013/11/27
 36 37  0  0  0  0  0  0  0  0999 V2000
   39.6442   13.4341    0.8117 C   0  0  2  0  0  0  0  0  0  0  0  0
   39.1917   12.9104    2.1151 O   0  0  0  0  0  0  0  0  0  0  0  0
   36.2909    9.8692    3.2252 C   0  0  2  0  0  0  0  0  0  0  0  0
   35.5887    8.5576    3.2622 N   0  0  0  0  0  0  0  0  0  0  0  0
   40.9188   14.2895    1.0905 C   0  0  2  0  0  0  0  0  0  0  0  0
   41.9940   13.5135    1.7357 N   0  0  0  0  0  0  0  0  0  0  0  0
   36.3000   10.4832    1.7808 C   0  0  0  0  0  0  0  0  0  0  0  0
   34.9430    8.2184    4.8918 C   0  0  0  0  0  0  0  0  0  0  0  0
   34.5900    6.8819    4.3183 C   0  0  1  0  0  0  0  0  0  0  0  0
   35.6535    5.8878    4.7978 C   0  0  0  0  0  0  0  0  0  0  0  0
   35.5658    4.4711    4.2005 C   0  0  0  0  0  0  0  0  0  0  0  0
   35.9373    4.5382    2.7858 N   0  0  0  0  0  0  0  0  0  0  0  0
   33.3519    6.4516    4.8146 O   0  0  0  0  0  0  0  0  0  0  0  0
   38.1344    8.4998    6.2063 C   0  0  0  0  0  0  0  0  0  0  0  0
   38.7846    7.1660    5.8701 C   0  0  0  0  0  0  0  0  0  0  0  0
   40.5226   15.5077    1.9892 C   0  0  1  0  0  0  0  0  0  0  0  0
   39.3610    6.4641    7.0346 N   0  0  0  0  0  0  0  0  0  0  0  0
   41.6580   16.3175    2.2829 O   0  0  0  0  0  0  0  0  0  0  0  0
   37.0774   11.8146    1.7423 C   0  0  2  0  0  0  0  0  0  0  0  0
   37.1243   12.3615    0.3921 N   0  0  0  0  0  0  0  0  0  0  0  0
   41.2024    5.7980    8.5726 C   0  0  0  0  0  0  0  0  0  0  0  0
   40.3912    5.8825    9.9004 C   0  0  0  0  0  0  0  0  0  0  0  0
   40.7287    6.8124    7.4992 C   0  0  0  0  0  0  0  0  0  0  0  0
   39.0176    5.3149    9.7508 N   0  0  0  0  0  0  0  0  0  0  0  0
   34.9060    8.7353    5.8367 O   0  0  0  0  0  0  0  0  0  0  0  0
   39.4317   16.3126    1.2548 C   0  0  2  0  0  0  0  0  0  0  0  0
   38.9942   17.4456    2.0009 O   0  0  0  0  0  0  0  0  0  0  0  0
   38.5005   11.6093    2.2218 C   0  0  2  0  0  0  0  0  0  0  0  0
   38.2186   15.4226    0.9297 C   0  0  2  0  0  0  0  0  0  0  0  0
   38.6179   14.2611    0.1937 O   0  0  0  0  0  0  0  0  0  0  0  0
   38.4926   11.0346    3.6963 C   0  0  2  0  0  0  0  0  0  0  0  0
   39.8753   10.8297    4.1255 O   0  0  0  0  0  0  0  0  0  0  0  0
   37.1745   16.1654    0.1395 C   0  0  0  0  0  0  0  0  0  0  0  0
   36.5235   17.0776    0.9391 O   0  0  0  0  0  0  0  0  0  0  0  0
   37.7160    9.6745    3.7042 C   0  0  1  0  0  0  0  0  0  0  0  0
   37.6725    9.1031    4.9793 O   0  0  0  0  0  0  0  0  0  0  0  0
  1  2  1  1  0  0  0
  1  5  1  0  0  0  0
  1 30  1  0  0  0  0
  3  4  1  6  0  0  0
  3  7  1  0  0  0  0
  3 35  1  0  0  0  0
  5  6  1  1  0  0  0
  5 16  1  0  0  0  0
  7 19  1  0  0  0  0
  8  4  1  0  0  0  0
  8 25  2  0  0  0  0
  9  8  1  1  0  0  0
  9 10  1  0  0  0  0
  9 13  1  0  0  0  0
 10 11  1  0  0  0  0
 11 12  1  0  0  0  0
 14 15  1  0  0  0  0
 14 36  1  0  0  0  0
 15 17  1  0  0  0  0
 16 18  1  6  0  0  0
 16 26  1  0  0  0  0
 17 23  1  0  0  0  0
 19 20  1  6  0  0  0
 19 28  1  0  0  0  0
 21 22  1  0  0  0  0
 21 23  1  0  0  0  0
 22 24  1  0  0  0  0
 26 27  1  1  0  0  0
 26 29  1  0  0  0  0
 28  2  1  1  0  0  0
 28 31  1  0  0  0  0
 29 30  1  0  0  0  0
 29 33  1  6  0  0  0
 31 32  1  6  0  0  0
 31 35  1  0  0  0  0
 33 34  1  0  0  0  0
 35 36  1  1  0  0  0
M  END
>  <CHROM.1>
-149.22057391,-154.63071487,101.27323651,-173.79942534,69.80185789,177.33208789
-62.86628327,-83.95338784,-170.78980917,73.01188593,-67.06267214,-76.23310697
-72.36935093,173.74194732,38.05833061,10.57214728,3.64495658,-1.39923163
0.49161972,2.54166713

>  <Name>
2f4u_lig

>  <RI>
0

>  <Rbt.Current_Directory>
/home/itssahil/PROJECTS/Mol_Feturizer/New_Systems/rnas/2f4u

>  <Rbt.Executable>
rbdock ($Id: //depot/dev/client3/rdock/2013.1/src/exe/rbdock.cxx#4 $)

>  <Rbt.Library>
libRbt.so (2013.1, Build901 2013/11/27)

>  <Rbt.Parameter_File>
/export/apps/rDock/src/rDock_2013.1_src/data/scripts/dock_solv.prm

>  <Rbt.Receptor>
prm/pocket_docking_8.prm

>  <SCORE>
-14.5259

>  <SCORE.INTER>
-8.56308

>  <SCORE.INTER.CONST>
1

>  <SCORE.INTER.POLAR>
0

>  <SCORE.INTER.ROT>
14

>  <SCORE.INTER.SOLV>
13.2107

>  <SCORE.INTER.VDW>
-23.0456

>  <SCORE.INTER.norm>
-0.237863

>  <SCORE.INTRA>
-5.9628

>  <SCORE.INTRA.DIHEDRAL>
-16.1933

>  <SCORE.INTRA.DIHEDRAL.0>
26.3805

>  <SCORE.INTRA.POLAR>
0

>  <SCORE.INTRA.POLAR.0>
0

>  <SCORE.INTRA.REPUL>
0

>  <SCORE.INTRA.REPUL.0>
0

>  <SCORE.INTRA.SOLV>
6.61716

>  <SCORE.INTRA.SOLV.lig_0>
-98.5587

>  <SCORE.INTRA.VDW>
-1.17472

>  <SCORE.INTRA.VDW.0>
-2.91167

>  <SCORE.INTRA.norm>
-0.165633

>  <SCORE.RESTR>
0

>  <SCORE.RESTR.CAVITY>
0

>  <SCORE.RESTR.norm>
0

>  <SCORE.SYSTEM>
0

>  <SCORE.SYSTEM.CONST>
0

>  <SCORE.SYSTEM.DIHEDRAL>
0

>  <SCORE.SYSTEM.SOLV>
0

>  <SCORE.SYSTEM.norm>
0

>  <SCORE.heavy>
36

>  <SCORE.norm>
-0.403497

>  <RMSD>
7.802

$$$$
2f4u_lig
 OpenBabel11021811433D
libRbt.so/2013.1/901 2013/11/27
 36 37  0  0  0  0  0  0  0  0999 V2000
   40.5117   12.3467    0.5346 C   0  0  2  0  0  0  0  0  0  0  0  0
   40.5821   11.6604    1.8392 O   0  0  0  0  0  0  0  0  0  0  0  0
   37.3184   10.3487    4.3933 C   0  0  2  0  0  0  0  0  0  0  0  0
   36.1328    9.5787    4.8581 N   0  0  0  0  0  0  0  0  0  0  0  0
   41.9294   12.2357   -0.1072 C   0  0  2  0  0  0  0  0  0  0  0  0
   42.3658   10.8382   -0.2828 N   0  0  0  0  0  0  0  0  0  0  0  0
   37.0329   11.0971    3.0436 C   0  0  0  0  0  0  0  0  0  0  0  0
   36.0022    8.0176    4.0017 C   0  0  0  0  0  0  0  0  0  0  0  0
   34.6995    7.8908    4.7272 C   0  0  1  0  0  0  0  0  0  0  0  0
   34.1082    6.5247    4.3614 C   0  0  0  0  0  0  0  0  0  0  0  0
   32.7271    6.2081    4.9644 C   0  0  0  0  0  0  0  0  0  0  0  0
   32.8244    6.2952    6.4227 N   0  0  0  0  0  0  0  0  0  0  0  0
   34.9113    7.9046    6.1126 O   0  0  0  0  0  0  0  0  0  0  0  0
   38.3945    8.0193    6.6424 C   0  0  0  0  0  0  0  0  0  0  0  0
   37.6074    8.9489    7.5540 C   0  0  0  0  0  0  0  0  0  0  0  0
   42.9518   13.0086    0.7905 C   0  0  1  0  0  0  0  0  0  0  0  0
   37.5989    8.5395    8.9729 N   0  0  0  0  0  0  0  0  0  0  0  0
   44.2688   12.9282    0.2516 O   0  0  0  0  0  0  0  0  0  0  0  0
   38.2841   11.8465    2.5423 C   0  0  2  0  0  0  0  0  0  0  0  0
   38.0318   12.5039    1.2662 N   0  0  0  0  0  0  0  0  0  0  0  0
   36.3428    8.3388   11.1134 C   0  0  0  0  0  0  0  0  0  0  0  0
   37.5386    7.9507   12.0342 C   0  0  0  0  0  0  0  0  0  0  0  0
   36.7478    9.2741    9.9443 C   0  0  0  0  0  0  0  0  0  0  0  0
   38.7225    7.4936   11.2465 N   0  0  0  0  0  0  0  0  0  0  0  0
   36.5797    7.4846    3.2642 O   0  0  0  0  0  0  0  0  0  0  0  0
   42.4796   14.4717    0.9072 C   0  0  2  0  0  0  0  0  0  0  0  0
   43.3457   15.2615    1.7183 O   0  0  0  0  0  0  0  0  0  0  0  0
   39.4396   10.8827    2.3604 C   0  0  2  0  0  0  0  0  0  0  0  0
   41.0507   14.5434    1.4752 C   0  0  2  0  0  0  0  0  0  0  0  0
   40.1498   13.7474    0.6975 O   0  0  0  0  0  0  0  0  0  0  0  0
   39.7590   10.1624    3.7328 C   0  0  2  0  0  0  0  0  0  0  0  0
   40.8633    9.2271    3.5237 O   0  0  0  0  0  0  0  0  0  0  0  0
   40.5364   15.9574    1.5214 C   0  0  0  0  0  0  0  0  0  0  0  0
   40.2978   16.4251    0.2488 O   0  0  0  0  0  0  0  0  0  0  0  0
   38.4806    9.3929    4.2090 C   0  0  1  0  0  0  0  0  0  0  0  0
   38.6911    8.7250    5.4190 O   0  0  0  0  0  0  0  0  0  0  0  0
  1  2  1  1  0  0  0
  1  5  1  0  0  0  0
  1 30  1  0  0  0  0
  3  4  1  6  0  0  0
  3  7  1  0  0  0  0
  3 35  1  0  0  0  0
  5  6  1  1  0  0  0
  5 16  1  0  0  0  0
  7 19  1  0  0  0  0
  8  4  1  0  0  0  0
  8 25  2  0  0  0  0
  9  8  1  6  0  0  0
  9 10  1  0  0  0  0
  9 13  1  0  0  0  0
 10 11  1  0  0  0  0
 11 12  1  0  0  0  0
 14 15  1  0  0  0  0
 14 36  1  0  0  0  0
 15 17  1  0  0  0  0
 16 18  1  6  0  0  0
 16 26  1  0  0  0  0
 17 23  1  0  0  0  0
 19 20  1  6  0  0  0
 19 28  1  0  0  0  0
 21 22  1  0  0  0  0
 21 23  1  0  0  0  0
 22 24  1  0  0  0  0
 26 27  1  1  0  0  0
 26 29  1  0  0  0  0
 28  2  1  1  0  0  0
 28 31  1  0  0  0  0
 29 30  1  0  0  0  0
 29 33  1  6  0  0  0
 31 32  1  6  0  0  0
 31 35  1  0  0  0  0
 33 34  1  0  0  0  0
 35 36  1  1  0  0  0
M  END
>  <CHROM.1>
-143.91343791,80.52680480,-177.32522530,-177.76418467,-57.77368685,-161.71945151
-63.89169900,-173.39002034,152.32034177,-48.27706993,68.76603128,-62.19192369
70.18993921,43.01494996,38.62572872,10.46856944,4.04952850,0.87248326,-0.60317111
-1.30351173

>  <Name>
2f4u_lig

>  <RI>
0

>  <Rbt.Current_Directory>
/home/itssahil/PROJECTS/Mol_Feturizer/New_Systems/rnas/2f4u

>  <Rbt.Executable>
rbdock ($Id: //depot/dev/client3/rdock/2013.1/src/exe/rbdock.cxx#4 $)

>  <Rbt.Library>
libRbt.so (2013.1, Build901 2013/11/27)

>  <Rbt.Parameter_File>
/export/apps/rDock/src/rDock_2013.1_src/data/scripts/dock_solv.prm

>  <Rbt.Receptor>
prm/pocket_docking_7.prm

>  <SCORE>
-14.2962

>  <SCORE.INTER>
-12.2448

>  <SCORE.INTER.CONST>
1

>  <SCORE.INTER.POLAR>
-1.21071

>  <SCORE.INTER.ROT>
14

>  <SCORE.INTER.SOLV>
22.5157

>  <SCORE.INTER.VDW>
-24.5661

>  <SCORE.INTER.norm>
-0.340133

>  <SCORE.INTRA>
-2.05137

>  <SCORE.INTRA.DIHEDRAL>
-16.1244

>  <SCORE.INTRA.DIHEDRAL.0>
26.3805

>  <SCORE.INTRA.POLAR>
0

>  <SCORE.INTRA.POLAR.0>
0

>  <SCORE.INTRA.REPUL>
0

>  <SCORE.INTRA.REPUL.0>
0

>  <SCORE.INTRA.SOLV>
8.44544

>  <SCORE.INTRA.SOLV.lig_0>
-98.5587

>  <SCORE.INTRA.VDW>
1.78813

>  <SCORE.INTRA.VDW.0>
-2.91167

>  <SCORE.INTRA.norm>
-0.0569825

>  <SCORE.RESTR>
0

>  <SCORE.RESTR.CAVITY>
0

>  <SCORE.RESTR.norm>
0

>  <SCORE.SYSTEM>
0

>  <SCORE.SYSTEM.CONST>
0

>  <SCORE.SYSTEM.DIHEDRAL>
0

>  <SCORE.SYSTEM.SOLV>
0

>  <SCORE.SYSTEM.norm>
0

>  <SCORE.heavy>
36

>  <SCORE.norm>
-0.397115

>  <RMSD>
7.808

$$$$
2f4u_lig
 OpenBabel11021811433D
libRbt.so/2013.1/901 2013/11/27
 36 37  0  0  0  0  0  0  0  0999 V2000
   38.8516   13.0814    2.2270 C   0  0  2  0  0  0  0  0  0  0  0  0
   37.7247   12.2223    1.8148 O   0  0  0  0  0  0  0  0  0  0  0  0
   35.7581    9.0269    4.0096 C   0  0  2  0  0  0  0  0  0  0  0  0
   35.5177    7.6828    4.6016 N   0  0  0  0  0  0  0  0  0  0  0  0
   38.8160   14.3399    1.3055 C   0  0  2  0  0  0  0  0  0  0  0  0
   37.5432   15.0781    1.4008 N   0  0  0  0  0  0  0  0  0  0  0  0
   35.9094    8.9562    2.4491 C   0  0  0  0  0  0  0  0  0  0  0  0
   33.8049    7.2053    4.4416 C   0  0  0  0  0  0  0  0  0  0  0  0
   34.2021    6.0304    5.2792 C   0  0  1  0  0  0  0  0  0  0  0  0
   32.9426    5.5455    6.0058 C   0  0  0  0  0  0  0  0  0  0  0  0
   32.4338    6.4503    7.1434 C   0  0  0  0  0  0  0  0  0  0  0  0
   31.3240    5.7727    7.8165 N   0  0  0  0  0  0  0  0  0  0  0  0
   34.6523    4.9825    4.4646 O   0  0  0  0  0  0  0  0  0  0  0  0
   36.5919    9.1656    7.3439 C   0  0  0  0  0  0  0  0  0  0  0  0
   35.1100    8.8375    7.4479 C   0  0  0  0  0  0  0  0  0  0  0  0
   39.0667   13.8906   -0.1723 C   0  0  1  0  0  0  0  0  0  0  0  0
   34.6333    8.6258    8.8296 N   0  0  0  0  0  0  0  0  0  0  0  0
   39.0331   15.0061   -1.0588 O   0  0  0  0  0  0  0  0  0  0  0  0
   36.2130   10.3452    1.8516 C   0  0  2  0  0  0  0  0  0  0  0  0
   36.3984   10.2715    0.4078 N   0  0  0  0  0  0  0  0  0  0  0  0
   34.7013    7.5874   11.0917 C   0  0  0  0  0  0  0  0  0  0  0  0
   35.2076    6.4123   11.9810 C   0  0  0  0  0  0  0  0  0  0  0  0
   35.1239    7.4572    9.6050 C   0  0  0  0  0  0  0  0  0  0  0  0
   34.6508    5.0988   11.5382 N   0  0  0  0  0  0  0  0  0  0  0  0
   32.9180    7.6278    3.9986 O   0  0  0  0  0  0  0  0  0  0  0  0
   40.4262   13.1657   -0.2308 C   0  0  2  0  0  0  0  0  0  0  0  0
   40.7438   12.7067   -1.5423 O   0  0  0  0  0  0  0  0  0  0  0  0
   37.4748   10.9193    2.4642 C   0  0  2  0  0  0  0  0  0  0  0  0
   40.4545   11.9734    0.7425 C   0  0  2  0  0  0  0  0  0  0  0  0
   40.1230   12.3894    2.0718 O   0  0  0  0  0  0  0  0  0  0  0  0
   37.3051   11.0352    4.0334 C   0  0  2  0  0  0  0  0  0  0  0  0
   38.5414   11.5737    4.5986 O   0  0  0  0  0  0  0  0  0  0  0  0
   41.8004   11.2995    0.7638 C   0  0  0  0  0  0  0  0  0  0  0  0
   42.7630   12.1606    1.2401 O   0  0  0  0  0  0  0  0  0  0  0  0
   37.0185    9.6103    4.6171 C   0  0  1  0  0  0  0  0  0  0  0  0
   36.8615    9.6347    6.0060 O   0  0  0  0  0  0  0  0  0  0  0  0
  1  2  1  6  0  0  0
  1  5  1  0  0  0  0
  1 30  1  0  0  0  0
  3  4  1  1  0  0  0
  3  7  1  0  0  0  0
  3 35  1  0  0  0  0
  5  6  1  6  0  0  0
  5 16  1  0  0  0  0
  7 19  1  0  0  0  0
  8  4  1  0  0  0  0
  8 25  2  0  0  0  0
  9  8  1  6  0  0  0
  9 10  1  0  0  0  0
  9 13  1  0  0  0  0
 10 11  1  0  0  0  0
 11 12  1  0  0  0  0
 14 15  1  0  0  0  0
 14 36  1  0  0  0  0
 15 17  1  0  0  0  0
 16 18  1  6  0  0  0
 16 26  1  0  0  0  0
 17 23  1  0  0  0  0
 19 20  1  6  0  0  0
 19 28  1  0  0  0  0
 21 22  1  0  0  0  0
 21 23  1  0  0  0  0
 22 24  1  0  0  0  0
 26 27  1  6  0  0  0
 26 29  1  0  0  0  0
 28  2  1  6  0  0  0
 28 31  1  0  0  0  0
 29 30  1  0  0  0  0
 29 33  1  1  0  0  0
 31 32  1  1  0  0  0
 31 35  1  0  0  0  0
 33 34  1  0  0  0  0
 35 36  1  1  0  0  0
M  END
>  <CHROM.1>
178.64600178,-80.54301046,154.51540533,-72.10002662,-173.93596942,-167.44049931
-68.54670797,-66.30989672,169.50369111,-61.72898805,-178.68743745,177.14214213
63.84843787,53.03936855,36.77857236,9.82889378,4.15877997,-0.88568539,0.68473578
1.77870301

>  <Name>
2f4u_lig

>  <RI>
0

>  <Rbt.Current_Directory>
/home/itssahil/PROJECTS/Mol_Feturizer/New_Systems/rnas/2f4u

>  <Rbt.Executable>
rbdock ($Id: //depot/dev/client3/rdock/2013.1/src/exe/rbdock.cxx#4 $)

>  <Rbt.Library>
libRbt.so (2013.1, Build901 2013/11/27)

>  <Rbt.Parameter_File>
/export/apps/rDock/src/rDock_2013.1_src/data/scripts/dock_solv.prm

>  <Rbt.Receptor>
prm/pocket_docking_6.prm

>  <SCORE>
-32.4632

>  <SCORE.INTER>
-19.7192

>  <SCORE.INTER.CONST>
1

>  <SCORE.INTER.POLAR>
-1.77012

>  <SCORE.INTER.ROT>
14

>  <SCORE.INTER.SOLV>
21.7983

>  <SCORE.INTER.VDW>
-27.4451

>  <SCORE.INTER.norm>
-0.547755

>  <SCORE.INTRA>
-12.744

>  <SCORE.INTRA.DIHEDRAL>
-22.6549

>  <SCORE.INTRA.DIHEDRAL.0>
26.3805

>  <SCORE.INTRA.POLAR>
0

>  <SCORE.INTRA.POLAR.0>
0

>  <SCORE.INTRA.REPUL>
0

>  <SCORE.INTRA.REPUL.0>
0

>  <SCORE.INTRA.SOLV>
0.497572

>  <SCORE.INTRA.SOLV.lig_0>
-98.5587

>  <SCORE.INTRA.VDW>
-1.66533

>  <SCORE.INTRA.VDW.0>
-2.91167

>  <SCORE.INTRA.norm>
-0.354

>  <SCORE.RESTR>
0

>  <SCORE.RESTR.CAVITY>
0

>  <SCORE.RESTR.norm>
0

>  <SCORE.SYSTEM>
0

>  <SCORE.SYSTEM.CONST>
0

>  <SCORE.SYSTEM.DIHEDRAL>
0

>  <SCORE.SYSTEM.SOLV>
0

>  <SCORE.SYSTEM.norm>
0

>  <SCORE.heavy>
36

>  <SCORE.norm>
-0.901755

>  <RMSD>
7.822

$$$$
2f4u_lig
 OpenBabel11021811433D
libRbt.so/2013.1/901 2013/11/27
 36 37  0  0  0  0  0  0  0  0999 V2000
   39.4303   14.1455    0.2526 C   0  0  2  0  0  0  0  0  0  0  0  0
   39.0594   12.7370    0.4901 O   0  0  0  0  0  0  0  0  0  0  0  0
   38.4831   10.0768    3.8793 C   0  0  2  0  0  0  0  0  0  0  0  0
   38.1966    9.6294    5.2695 N   0  0  0  0  0  0  0  0  0  0  0  0
   38.1148   14.8994   -0.1153 C   0  0  2  0  0  0  0  0  0  0  0  0
   37.0921   14.8070    0.9428 N   0  0  0  0  0  0  0  0  0  0  0  0
   39.7082   11.0563    3.8247 C   0  0  0  0  0  0  0  0  0  0  0  0
   39.1053    8.1454    5.6687 C   0  0  0  0  0  0  0  0  0  0  0  0
   38.3135    8.1729    6.9384 C   0  0  1  0  0  0  0  0  0  0  0  0
   38.6722    6.9063    7.7236 C   0  0  0  0  0  0  0  0  0  0  0  0
   37.8532    6.6556    9.0033 C   0  0  0  0  0  0  0  0  0  0  0  0
   38.3532    5.4384    9.6454 N   0  0  0  0  0  0  0  0  0  0  0  0
   38.6850    9.2759    7.7192 O   0  0  0  0  0  0  0  0  0  0  0  0
   35.3886    8.6892    3.2095 C   0  0  0  0  0  0  0  0  0  0  0  0
   36.2288    7.4841    3.6049 C   0  0  0  0  0  0  0  0  0  0  0  0
   37.5558   14.3148   -1.4548 C   0  0  1  0  0  0  0  0  0  0  0  0
   35.6245    6.1837    3.2515 N   0  0  0  0  0  0  0  0  0  0  0  0
   36.3441   14.9647   -1.8304 O   0  0  0  0  0  0  0  0  0  0  0  0
   39.9621   11.5572    2.3883 C   0  0  2  0  0  0  0  0  0  0  0  0
   41.0712   12.5019    2.3452 N   0  0  0  0  0  0  0  0  0  0  0  0
   36.6501    5.6804    1.0391 C   0  0  0  0  0  0  0  0  0  0  0  0
   37.3559    4.6264    0.1340 C   0  0  0  0  0  0  0  0  0  0  0  0
   36.4208    5.1860    2.4912 C   0  0  0  0  0  0  0  0  0  0  0  0
   36.4463    3.4943   -0.2156 N   0  0  0  0  0  0  0  0  0  0  0  0
   39.8271    7.5182    5.1718 O   0  0  0  0  0  0  0  0  0  0  0  0
   38.6400   14.4748   -2.5392 C   0  0  2  0  0  0  0  0  0  0  0  0
   38.2278   13.9606   -3.8031 O   0  0  0  0  0  0  0  0  0  0  0  0
   38.7277   12.2481    1.8439 C   0  0  2  0  0  0  0  0  0  0  0  0
   39.9475   13.7824   -2.1142 C   0  0  2  0  0  0  0  0  0  0  0  0
   40.3881   14.2591   -0.8379 O   0  0  0  0  0  0  0  0  0  0  0  0
   37.5030   11.2459    1.8545 C   0  0  2  0  0  0  0  0  0  0  0  0
   36.3242   11.9432    1.3423 O   0  0  0  0  0  0  0  0  0  0  0  0
   41.0469   13.9953   -3.1202 C   0  0  0  0  0  0  0  0  0  0  0  0
   42.1856   13.3219   -2.7393 O   0  0  0  0  0  0  0  0  0  0  0  0
   37.2533   10.7688    3.3253 C   0  0  1  0  0  0  0  0  0  0  0  0
   36.1774    9.8805    3.4127 O   0  0  0  0  0  0  0  0  0  0  0  0
  1  2  1  6  0  0  0
  1  5  1  0  0  0  0
  1 30  1  0  0  0  0
  3  4  1  1  0  0  0
  3  7  1  0  0  0  0
  3 35  1  0  0  0  0
  5  6  1  1  0  0  0
  5 16  1  0  0  0  0
  7 19  1  0  0  0  0
  8  4  1  0  0  0  0
  8 25  2  0  0  0  0
  9  8  1  6  0  0  0
  9 10  1  0  0  0  0
  9 13  1  0  0  0  0
 10 11  1  0  0  0  0
 11 12  1  0  0  0  0
 14 15  1  0  0  0  0
 14 36  1  0  0  0  0
 15 17  1  0  0  0  0
 16 18  1  6  0  0  0
 16 26  1  0  0  0  0
 17 23  1  0  0  0  0
 19 20  1  1  0  0  0
 19 28  1  0  0  0  0
 21 22  1  0  0  0  0
 21 23  1  0  0  0  0
 22 24  1  0  0  0  0
 26 27  1  6  0  0  0
 26 29  1  0  0  0  0
 28  2  1  6  0  0  0
 28 31  1  0  0  0  0
 29 30  1  0  0  0  0
 29 33  1  6  0  0  0
 31 32  1  1  0  0  0
 31 35  1  0  0  0  0
 33 34  1  0  0  0  0
 35 36  1  6  0  0  0
M  END
>  <CHROM.1>
-92.62340604,-89.70989682,175.89082940,-173.68758702,-178.16257942,-170.97278044
52.91306751,128.39375722,-69.38028784,72.25021064,-174.24334350,-99.43041682
-177.64015370,-58.63449124,38.23439916,10.41217703,2.13053373,-1.22259585
1.16957443,2.03066271

>  <Name>
2f4u_lig

>  <RI>
0

>  <Rbt.Current_Directory>
/home/itssahil/PROJECTS/Mol_Feturizer/New_Systems/rnas/2f4u

>  <Rbt.Executable>
rbdock ($Id: //depot/dev/client3/rdock/2013.1/src/exe/rbdock.cxx#4 $)

>  <Rbt.Library>
libRbt.so (2013.1, Build901 2013/11/27)

>  <Rbt.Parameter_File>
/export/apps/rDock/src/rDock_2013.1_src/data/scripts/dock_solv.prm

>  <Rbt.Receptor>
prm/pocket_docking_8.prm

>  <SCORE>
-27.245

>  <SCORE.INTER>
-20.663

>  <SCORE.INTER.CONST>
1

>  <SCORE.INTER.POLAR>
-2.61021

>  <SCORE.INTER.ROT>
14

>  <SCORE.INTER.SOLV>
14.3674

>  <SCORE.INTER.VDW>
-22.7971

>  <SCORE.INTER.norm>
-0.573973

>  <SCORE.INTRA>
-6.58197

>  <SCORE.INTRA.DIHEDRAL>
-12.9532

>  <SCORE.INTRA.DIHEDRAL.0>
26.3805

>  <SCORE.INTRA.POLAR>
0

>  <SCORE.INTRA.POLAR.0>
0

>  <SCORE.INTRA.REPUL>
0

>  <SCORE.INTRA.REPUL.0>
0

>  <SCORE.INTRA.SOLV>
2.0416

>  <SCORE.INTRA.SOLV.lig_0>
-98.5587

>  <SCORE.INTRA.VDW>
-1.1262

>  <SCORE.INTRA.VDW.0>
-2.91167

>  <SCORE.INTRA.norm>
-0.182833

>  <SCORE.RESTR>
0

>  <SCORE.RESTR.CAVITY>
0

>  <SCORE.RESTR.norm>
0

>  <SCORE.SYSTEM>
0

>  <SCORE.SYSTEM.CONST>
0

>  <SCORE.SYSTEM.DIHEDRAL>
0

>  <SCORE.SYSTEM.SOLV>
0

>  <SCORE.SYSTEM.norm>
0

>  <SCORE.heavy>
36

>  <SCORE.norm>
-0.756806

>  <RMSD>
7.823

$$$$
2f4u_lig
 OpenBabel11021811433D
libRbt.so/2013.1/901 2013/11/27
 36 37  0  0  0  0  0  0  0  0999 V2000
   37.9568    6.9354    9.3772 C   0  0  2  0  0  0  0  0  0  0  0  0
   37.2747    7.2602    8.1095 O   0  0  0  0  0  0  0  0  0  0  0  0
   38.7717    8.7178    4.2977 C   0  0  2  0  0  0  0  0  0  0  0  0
   39.3664    9.6399    3.2922 N   0  0  0  0  0  0  0  0  0  0  0  0
   37.2913    5.6342    9.9234 C   0  0  2  0  0  0  0  0  0  0  0  0
   37.3917    4.5055    8.9800 N   0  0  0  0  0  0  0  0  0  0  0  0
   37.4623    9.3111    4.9276 C   0  0  0  0  0  0  0  0  0  0  0  0
   39.1757   11.3441    3.7887 C   0  0  0  0  0  0  0  0  0  0  0  0
   39.7459   11.6523    2.4398 C   0  0  1  0  0  0  0  0  0  0  0  0
   39.6554   13.1700    2.2455 C   0  0  0  0  0  0  0  0  0  0  0  0
   40.6996   14.0075    3.0069 C   0  0  0  0  0  0  0  0  0  0  0  0
   41.9850   13.8899    2.3156 N   0  0  0  0  0  0  0  0  0  0  0  0
   41.1012   11.2982    2.3925 O   0  0  0  0  0  0  0  0  0  0  0  0
   42.2394    7.3204    4.6700 C   0  0  0  0  0  0  0  0  0  0  0  0
   42.0471    5.8201    4.8341 C   0  0  0  0  0  0  0  0  0  0  0  0
   35.7894    5.9325   10.2458 C   0  0  1  0  0  0  0  0  0  0  0  0
   41.7838    5.3928    6.2231 N   0  0  0  0  0  0  0  0  0  0  0  0
   35.1313    4.7686   10.7395 O   0  0  0  0  0  0  0  0  0  0  0  0
   36.8848    8.3734    6.0074 C   0  0  2  0  0  0  0  0  0  0  0  0
   35.6945    8.9455    6.6239 N   0  0  0  0  0  0  0  0  0  0  0  0
   42.3686    4.3396    8.4022 C   0  0  0  0  0  0  0  0  0  0  0  0
   41.5851    3.0077    8.2013 C   0  0  0  0  0  0  0  0  0  0  0  0
   42.9107    4.9376    7.0777 C   0  0  0  0  0  0  0  0  0  0  0  0
   42.5026    1.8493    7.9830 N   0  0  0  0  0  0  0  0  0  0  0  0
   38.7717   11.8652    4.6412 O   0  0  0  0  0  0  0  0  0  0  0  0
   35.7366    7.0855   11.2680 C   0  0  2  0  0  0  0  0  0  0  0  0
   34.4021    7.4403   11.6218 O   0  0  0  0  0  0  0  0  0  0  0  0
   37.9109    8.1250    7.0949 C   0  0  2  0  0  0  0  0  0  0  0  0
   36.4643    8.3302   10.7290 C   0  0  2  0  0  0  0  0  0  0  0  0
   37.8066    8.0126   10.3449 O   0  0  0  0  0  0  0  0  0  0  0  0
   39.2138    7.4827    6.4671 C   0  0  2  0  0  0  0  0  0  0  0  0
   40.1912    7.2713    7.5339 O   0  0  0  0  0  0  0  0  0  0  0  0
   36.4976    9.4426   11.7428 C   0  0  0  0  0  0  0  0  0  0  0  0
   37.0854    9.0125   12.9110 O   0  0  0  0  0  0  0  0  0  0  0  0
   39.7914    8.4623    5.3900 C   0  0  1  0  0  0  0  0  0  0  0  0
   40.9519    7.9606    4.7936 O   0  0  0  0  0  0  0  0  0  0  0  0
  1  2  1  6  0  0  0
  1  5  1  0  0  0  0
  1 30  1  0  0  0  0
  3  4  1  6  0  0  0
  3  7  1  0  0  0  0
  3 35  1  0  0  0  0
  5  6  1  6  0  0  0
  5 16  1  0  0  0  0
  7 19  1  0  0  0  0
  8  4  1  0  0  0  0
  8 25  2  0  0  0  0
  9  8  1  1  0  0  0
  9 10  1  0  0  0  0
  9 13  1  0  0  0  0
 10 11  1  0  0  0  0
 11 12  1  0  0  0  0
 14 15  1  0  0  0  0
 14 36  1  0  0  0  0
 15 17  1  0  0  0  0
 16 18  1  1  0  0  0
 16 26  1  0  0  0  0
 17 23  1  0  0  0  0
 19 20  1  1  0  0  0
 19 28  1  0  0  0  0
 21 22  1  0  0  0  0
 21 23  1  0  0  0  0
 22 24  1  0  0  0  0
 26 27  1  6  0  0  0
 26 29  1  0  0  0  0
 28  2  1  1  0  0  0
 28 31  1  0  0  0  0
 29 30  1  0  0  0  0
 29 33  1  1  0  0  0
 31 32  1  1  0  0  0
 31 35  1  0  0  0  0
 33 34  1  0  0  0  0
 35 36  1  6  0  0  0
M  END
>  <CHROM.1>
-158.84088578,36.62842324,173.19780569,76.26675806,75.74413047,-73.88076755
73.89757083,-94.77205635,-171.32574315,77.27239304,67.52773695,-173.76894610
56.63365097,-164.50881390,38.92862298,8.01560125,7.00231324,2.03265607,-0.68722407
2.49284221

>  <Name>
2f4u_lig

>  <RI>
0

>  <Rbt.Current_Directory>
/home/itssahil/PROJECTS/Mol_Feturizer/New_Systems/rnas/2f4u

>  <Rbt.Executable>
rbdock ($Id: //depot/dev/client3/rdock/2013.1/src/exe/rbdock.cxx#4 $)

>  <Rbt.Library>
libRbt.so (2013.1, Build901 2013/11/27)

>  <Rbt.Parameter_File>
/export/apps/rDock/src/rDock_2013.1_src/data/scripts/dock_solv.prm

>  <Rbt.Receptor>
prm/pocket_docking_5.prm

>  <SCORE>
-16.1957

>  <SCORE.INTER>
-10.2666

>  <SCORE.INTER.CONST>
1

>  <SCORE.INTER.POLAR>
-2.24356

>  <SCORE.INTER.ROT>
14

>  <SCORE.INTER.SOLV>
15.5185

>  <SCORE.INTER.VDW>
-17.472

>  <SCORE.INTER.norm>
-0.285183

>  <SCORE.INTRA>
-5.92909

>  <SCORE.INTRA.DIHEDRAL>
-16.3645

>  <SCORE.INTRA.DIHEDRAL.0>
26.3805

>  <SCORE.INTRA.POLAR>
0

>  <SCORE.INTRA.POLAR.0>
0

>  <SCORE.INTRA.REPUL>
0

>  <SCORE.INTRA.REPUL.0>
0

>  <SCORE.INTRA.SOLV>
4.96043

>  <SCORE.INTRA.SOLV.lig_0>
-98.5587

>  <SCORE.INTRA.VDW>
-0.227062

>  <SCORE.INTRA.VDW.0>
-2.91167

>  <SCORE.INTRA.norm>
-0.164697

>  <SCORE.RESTR>
0

>  <SCORE.RESTR.CAVITY>
0

>  <SCORE.RESTR.norm>
0

>  <SCORE.SYSTEM>
0

>  <SCORE.SYSTEM.CONST>
0

>  <SCORE.SYSTEM.DIHEDRAL>
0

>  <SCORE.SYSTEM.SOLV>
0

>  <SCORE.SYSTEM.norm>
0

>  <SCORE.heavy>
36

>  <SCORE.norm>
-0.44988

>  <RMSD>
7.868

$$$$
2f4u_lig
 OpenBabel11021811433D
libRbt.so/2013.1/901 2013/11/27
 36 37  0  0  0  0  0  0  0  0999 V2000
   38.2729    3.7026   11.3103 C   0  0  2  0  0  0  0  0  0  0  0  0
   38.3273    4.6007   10.1405 O   0  0  0  0  0  0  0  0  0  0  0  0
   41.4761    5.4345    7.2621 C   0  0  2  0  0  0  0  0  0  0  0  0
   42.7632    5.9349    6.7074 N   0  0  0  0  0  0  0  0  0  0  0  0
   36.7634    3.4346   11.5996 C   0  0  2  0  0  0  0  0  0  0  0  0
   36.0637    2.8289   10.4516 N   0  0  0  0  0  0  0  0  0  0  0  0
   40.6147    6.5965    7.8711 C   0  0  0  0  0  0  0  0  0  0  0  0
   42.9154    5.5373    4.9735 C   0  0  0  0  0  0  0  0  0  0  0  0
   44.2985    6.0913    5.1140 C   0  0  1  0  0  0  0  0  0  0  0  0
   45.1681    4.9888    5.7286 C   0  0  0  0  0  0  0  0  0  0  0  0
   46.5935    5.4066    6.1349 C   0  0  0  0  0  0  0  0  0  0  0  0
   46.9459    4.7140    7.3759 N   0  0  0  0  0  0  0  0  0  0  0  0
   44.8297    6.3980    3.8537 O   0  0  0  0  0  0  0  0  0  0  0  0
   42.9644    2.3406    6.8741 C   0  0  0  0  0  0  0  0  0  0  0  0
   44.2642    1.7435    7.3924 C   0  0  0  0  0  0  0  0  0  0  0  0
   36.0777    4.7845   11.9949 C   0  0  1  0  0  0  0  0  0  0  0  0
   44.7321    0.5650    6.6353 N   0  0  0  0  0  0  0  0  0  0  0  0
   34.6901    4.5952   12.2595 O   0  0  0  0  0  0  0  0  0  0  0  0
   39.3089    6.0602    8.4924 C   0  0  2  0  0  0  0  0  0  0  0  0
   38.5308    7.1336    9.0979 N   0  0  0  0  0  0  0  0  0  0  0  0
   46.1985   -1.1707    7.6537 C   0  0  0  0  0  0  0  0  0  0  0  0
   47.6154   -1.8175    7.7023 C   0  0  0  0  0  0  0  0  0  0  0  0
   46.1390    0.1098    6.7804 C   0  0  0  0  0  0  0  0  0  0  0  0
   47.6382   -3.0452    8.5530 N   0  0  0  0  0  0  0  0  0  0  0  0
   42.3004    5.0601    4.2283 O   0  0  0  0  0  0  0  0  0  0  0  0
   36.8126    5.3555   13.2241 C   0  0  2  0  0  0  0  0  0  0  0  0
   36.2650    6.5975   13.6589 O   0  0  0  0  0  0  0  0  0  0  0  0
   39.6166    5.0333    9.5638 C   0  0  2  0  0  0  0  0  0  0  0  0
   38.3123    5.5399   12.9300 C   0  0  2  0  0  0  0  0  0  0  0  0
   38.8988    4.3164   12.4725 O   0  0  0  0  0  0  0  0  0  0  0  0
   40.4448    3.8379    8.9397 C   0  0  2  0  0  0  0  0  0  0  0  0
   40.7425    2.8733    9.9975 O   0  0  0  0  0  0  0  0  0  0  0  0
   39.0661    6.0188   14.1418 C   0  0  0  0  0  0  0  0  0  0  0  0
   40.3903    6.2330   13.8321 O   0  0  0  0  0  0  0  0  0  0  0  0
   41.7734    4.4054    8.3348 C   0  0  1  0  0  0  0  0  0  0  0  0
   42.5623    3.4004    7.7674 O   0  0  0  0  0  0  0  0  0  0  0  0
  1  2  1  6  0  0  0
  1  5  1  0  0  0  0
  1 30  1  0  0  0  0
  3  4  1  1  0  0  0
  3  7  1  0  0  0  0
  3 35  1  0  0  0  0
  5  6  1  6  0  0  0
  5 16  1  0  0  0  0
  7 19  1  0  0  0  0
  8  4  1  0  0  0  0
  8 25  2  0  0  0  0
  9  8  1  6  0  0  0
  9 10  1  0  0  0  0
  9 13  1  0  0  0  0
 10 11  1  0  0  0  0
 11 12  1  0  0  0  0
 14 15  1  0  0  0  0
 14 36  1  0  0  0  0
 15 17  1  0  0  0  0
 16 18  1  1  0  0  0
 16 26  1  0  0  0  0
 17 23  1  0  0  0  0
 19 20  1  1  0  0  0
 19 28  1  0  0  0  0
 21 22  1  0  0  0  0
 21 23  1  0  0  0  0
 22 24  1  0  0  0  0
 26 27  1  6  0  0  0
 26 29  1  0  0  0  0
 28  2  1  6  0  0  0
 28 31  1  0  0  0  0
 29 30  1  0  0  0  0
 29 33  1  1  0  0  0
 31 32  1  1  0  0  0
 31 35  1  0  0  0  0
 33 34  1  0  0  0  0
 35 36  1  6  0  0  0
M  END
>  <CHROM.1>
-178.24021173,-121.67683210,80.75097303,-172.17894165,142.61745586,174.96834833
-173.08364223,163.42784139,105.06457970,179.87987782,172.52415861,-173.66117993
-177.23561024,-58.05199700,41.38440155,4.05138730,8.94351825,-3.06033649
0.65425882,-0.62288668

>  <Name>
2f4u_lig

>  <RI>
0

>  <Rbt.Current_Directory>
/home/itssahil/PROJECTS/Mol_Feturizer/New_Systems/rnas/2f4u

>  <Rbt.Executable>
rbdock ($Id: //depot/dev/client3/rdock/2013.1/src/exe/rbdock.cxx#4 $)

>  <Rbt.Library>
libRbt.so (2013.1, Build901 2013/11/27)

>  <Rbt.Parameter_File>
/export/apps/rDock/src/rDock_2013.1_src/data/scripts/dock_solv.prm

>  <Rbt.Receptor>
prm/pocket_docking_5.prm

>  <SCORE>
-18.8356

>  <SCORE.INTER>
-7.9147

>  <SCORE.INTER.CONST>
1

>  <SCORE.INTER.POLAR>
-1.41392

>  <SCORE.INTER.ROT>
14

>  <SCORE.INTER.SOLV>
16.8572

>  <SCORE.INTER.VDW>
-19.1158

>  <SCORE.INTER.norm>
-0.219853

>  <SCORE.INTRA>
-10.9416

>  <SCORE.INTRA.DIHEDRAL>
-17.7651

>  <SCORE.INTRA.DIHEDRAL.0>
26.3805

>  <SCORE.INTRA.POLAR>
0

>  <SCORE.INTRA.POLAR.0>
0

>  <SCORE.INTRA.REPUL>
0

>  <SCORE.INTRA.REPUL.0>
0

>  <SCORE.INTRA.SOLV>
-0.668602

>  <SCORE.INTRA.SOLV.lig_0>
-98.5587

>  <SCORE.INTRA.VDW>
-1.72477

>  <SCORE.INTRA.VDW.0>
-2.91167

>  <SCORE.INTRA.norm>
-0.303934

>  <SCORE.RESTR>
0.0207797

>  <SCORE.RESTR.CAVITY>
0.0207797

>  <SCORE.RESTR.norm>
0.000577214

>  <SCORE.SYSTEM>
0

>  <SCORE.SYSTEM.CONST>
0

>  <SCORE.SYSTEM.DIHEDRAL>
0

>  <SCORE.SYSTEM.SOLV>
0

>  <SCORE.SYSTEM.norm>
0

>  <SCORE.heavy>
36

>  <SCORE.norm>
-0.52321

>  <RMSD>
7.890

$$$$
2f4u_lig
 OpenBabel11021811433D
libRbt.so/2013.1/901 2013/11/27
 36 37  0  0  0  0  0  0  0  0999 V2000
   36.7735    4.7281    9.7503 C   0  0  2  0  0  0  0  0  0  0  0  0
   37.8890    5.6943    9.7577 O   0  0  0  0  0  0  0  0  0  0  0  0
   40.8681    7.0416    6.8932 C   0  0  2  0  0  0  0  0  0  0  0  0
   41.9519    6.9833    5.8750 N   0  0  0  0  0  0  0  0  0  0  0  0
   35.8004    5.1585   10.8913 C   0  0  2  0  0  0  0  0  0  0  0  0
   35.2936    6.5323   10.7178 N   0  0  0  0  0  0  0  0  0  0  0  0
   41.2976    6.3579    8.2391 C   0  0  0  0  0  0  0  0  0  0  0  0
   42.6234    5.3343    5.7426 C   0  0  0  0  0  0  0  0  0  0  0  0
   43.6194    5.9675    4.8223 C   0  0  1  0  0  0  0  0  0  0  0  0
   44.8525    5.0574    4.7938 C   0  0  0  0  0  0  0  0  0  0  0  0
   45.7157    5.0569    6.0690 C   0  0  0  0  0  0  0  0  0  0  0  0
   46.8563    4.1630    5.8590 N   0  0  0  0  0  0  0  0  0  0  0  0
   43.1068    6.0289    3.5193 O   0  0  0  0  0  0  0  0  0  0  0  0
   38.9300    8.0013    4.2000 C   0  0  0  0  0  0  0  0  0  0  0  0
   40.0168    9.0660    4.2129 C   0  0  0  0  0  0  0  0  0  0  0  0
   36.5423    5.0292   12.2630 C   0  0  1  0  0  0  0  0  0  0  0  0
   39.8088   10.1538    3.2360 N   0  0  0  0  0  0  0  0  0  0  0  0
   35.6968    5.4225   13.3410 O   0  0  0  0  0  0  0  0  0  0  0  0
   40.1489    6.3747    9.2681 C   0  0  2  0  0  0  0  0  0  0  0  0
   40.5330    5.6997   10.5014 N   0  0  0  0  0  0  0  0  0  0  0  0
   38.3234   11.9192    2.2994 C   0  0  0  0  0  0  0  0  0  0  0  0
   39.4013   12.4772    1.3222 C   0  0  0  0  0  0  0  0  0  0  0  0
   38.9259   11.2965    3.5858 C   0  0  0  0  0  0  0  0  0  0  0  0
   40.1568   13.6190    1.9196 N   0  0  0  0  0  0  0  0  0  0  0  0
   42.4199    4.3738    6.1868 O   0  0  0  0  0  0  0  0  0  0  0  0
   37.0124    3.5692   12.4200 C   0  0  2  0  0  0  0  0  0  0  0  0
   37.7118    3.3497   13.6424 O   0  0  0  0  0  0  0  0  0  0  0  0
   38.9259    5.6780    8.7058 C   0  0  2  0  0  0  0  0  0  0  0  0
   37.9111    3.1526   11.2418 C   0  0  2  0  0  0  0  0  0  0  0  0
   37.2508    3.3739    9.9907 O   0  0  0  0  0  0  0  0  0  0  0  0
   38.4639    6.3964    7.3736 C   0  0  2  0  0  0  0  0  0  0  0  0
   37.2958    5.6936    6.8446 O   0  0  0  0  0  0  0  0  0  0  0  0
   38.3156    1.7053   11.3302 C   0  0  0  0  0  0  0  0  0  0  0  0
   39.1773    1.3823   10.3063 O   0  0  0  0  0  0  0  0  0  0  0  0
   39.6393    6.3476    6.3395 C   0  0  1  0  0  0  0  0  0  0  0  0
   39.2998    6.9621    5.1306 O   0  0  0  0  0  0  0  0  0  0  0  0
  1  2  1  1  0  0  0
  1  5  1  0  0  0  0
  1 30  1  0  0  0  0
  3  4  1  6  0  0  0
  3  7  1  0  0  0  0
  3 35  1  0  0  0  0
  5  6  1  6  0  0  0
  5 16  1  0  0  0  0
  7 19  1  0  0  0  0
  8  4  1  0  0  0  0
  8 25  2  0  0  0  0
  9  8  1  1  0  0  0
  9 10  1  0  0  0  0
  9 13  1  0  0  0  0
 10 11  1  0  0  0  0
 11 12  1  0  0  0  0
 14 15  1  0  0  0  0
 14 36  1  0  0  0  0
 15 17  1  0  0  0  0
 16 18  1  1  0  0  0
 16 26  1  0  0  0  0
 17 23  1  0  0  0  0
 19 20  1  1  0  0  0
 19 28  1  0  0  0  0
 21 22  1  0  0  0  0
 21 23  1  0  0  0  0
 22 24  1  0  0  0  0
 26 27  1  1  0  0  0
 26 29  1  0  0  0  0
 28  2  1  1  0  0  0
 28 31  1  0  0  0  0
 29 30  1  0  0  0  0
 29 33  1  1  0  0  0
 31 32  1  6  0  0  0
 31 35  1  0  0  0  0
 33 34  1  0  0  0  0
 35 36  1  6  0  0  0
M  END
>  <CHROM.1>
-173.12452136,48.38685094,157.77556038,-72.04079569,-178.81745192,176.24101038
59.60292352,83.72522577,-153.26732278,-64.37670840,-60.90680583,-158.36297028
-176.64560077,-57.72770507,39.66334166,6.22162805,7.47735050,1.98797857,-0.46585108
2.35012796

>  <Name>
2f4u_lig

>  <RI>
0

>  <Rbt.Current_Directory>
/home/itssahil/PROJECTS/Mol_Feturizer/New_Systems/rnas/2f4u

>  <Rbt.Executable>
rbdock ($Id: //depot/dev/client3/rdock/2013.1/src/exe/rbdock.cxx#4 $)

>  <Rbt.Library>
libRbt.so (2013.1, Build901 2013/11/27)

>  <Rbt.Parameter_File>
/export/apps/rDock/src/rDock_2013.1_src/data/scripts/dock_solv.prm

>  <Rbt.Receptor>
prm/pocket_docking_3.prm

>  <SCORE>
-14.8264

>  <SCORE.INTER>
-3.6003

>  <SCORE.INTER.CONST>
1

>  <SCORE.INTER.POLAR>
0

>  <SCORE.INTER.ROT>
14

>  <SCORE.INTER.SOLV>
12.1329

>  <SCORE.INTER.VDW>
-19.3778

>  <SCORE.INTER.norm>
-0.100008

>  <SCORE.INTRA>
-11.2685

>  <SCORE.INTRA.DIHEDRAL>
-21.1331

>  <SCORE.INTRA.DIHEDRAL.0>
26.3805

>  <SCORE.INTRA.POLAR>
0

>  <SCORE.INTRA.POLAR.0>
0

>  <SCORE.INTRA.REPUL>
0

>  <SCORE.INTRA.REPUL.0>
0

>  <SCORE.INTRA.SOLV>
1.3723

>  <SCORE.INTRA.SOLV.lig_0>
-98.5587

>  <SCORE.INTRA.VDW>
-1.38808

>  <SCORE.INTRA.VDW.0>
-2.91167

>  <SCORE.INTRA.norm>
-0.313014

>  <SCORE.RESTR>
0.0423951

>  <SCORE.RESTR.CAVITY>
0.0423951

>  <SCORE.RESTR.norm>
0.00117764

>  <SCORE.SYSTEM>
0

>  <SCORE.SYSTEM.CONST>
0

>  <SCORE.SYSTEM.DIHEDRAL>
0

>  <SCORE.SYSTEM.SOLV>
0

>  <SCORE.SYSTEM.norm>
0

>  <SCORE.heavy>
36

>  <SCORE.norm>
-0.411845

>  <RMSD>
7.922

$$$$
2f4u_lig
 OpenBabel11021811433D
libRbt.so/2013.1/901 2013/11/27
 36 37  0  0  0  0  0  0  0  0999 V2000
   36.2560    4.1573    9.5911 C   0  0  2  0  0  0  0  0  0  0  0  0
   37.5850    3.7774   10.1081 O   0  0  0  0  0  0  0  0  0  0  0  0
   41.5416    3.7775    8.3078 C   0  0  2  0  0  0  0  0  0  0  0  0
   42.6637    3.4050    7.4041 N   0  0  0  0  0  0  0  0  0  0  0  0
   35.3599    4.4536   10.8335 C   0  0  2  0  0  0  0  0  0  0  0  0
   35.9070    5.5250   11.6861 N   0  0  0  0  0  0  0  0  0  0  0  0
   41.0403    2.5506    9.1485 C   0  0  0  0  0  0  0  0  0  0  0  0
   44.0946    2.8826    8.3353 C   0  0  0  0  0  0  0  0  0  0  0  0
   44.7723    2.8458    7.0015 C   0  0  1  0  0  0  0  0  0  0  0  0
   46.2725    3.0381    7.2500 C   0  0  0  0  0  0  0  0  0  0  0  0
   46.9479    1.9741    8.1349 C   0  0  0  0  0  0  0  0  0  0  0  0
   47.1228    0.7538    7.3448 N   0  0  0  0  0  0  0  0  0  0  0  0
   44.5985    1.5908    6.4023 O   0  0  0  0  0  0  0  0  0  0  0  0
   41.4786    6.6741    6.4141 C   0  0  0  0  0  0  0  0  0  0  0  0
   41.4558    6.8687    4.9054 C   0  0  0  0  0  0  0  0  0  0  0  0
   35.1969    3.1373   11.6637 C   0  0  1  0  0  0  0  0  0  0  0  0
   42.4017    6.0052    4.1702 N   0  0  0  0  0  0  0  0  0  0  0  0
   34.3926    3.3578   12.8196 O   0  0  0  0  0  0  0  0  0  0  0  0
   39.8420    2.9340   10.0405 C   0  0  2  0  0  0  0  0  0  0  0  0
   39.3481    1.7837   10.7869 N   0  0  0  0  0  0  0  0  0  0  0  0
   43.1998    4.6625    2.2311 C   0  0  0  0  0  0  0  0  0  0  0  0
   42.8998    4.1154    0.8031 C   0  0  0  0  0  0  0  0  0  0  0  0
   42.0160    5.4543    2.8453 C   0  0  0  0  0  0  0  0  0  0  0  0
   44.0220    3.2799    0.2797 N   0  0  0  0  0  0  0  0  0  0  0  0
   44.3352    2.7391    9.3760 O   0  0  0  0  0  0  0  0  0  0  0  0
   34.5807    2.0627   10.7458 C   0  0  2  0  0  0  0  0  0  0  0  0
   34.3995    0.8153   11.4113 O   0  0  0  0  0  0  0  0  0  0  0  0
   38.7064    3.4756    9.1953 C   0  0  2  0  0  0  0  0  0  0  0  0
   35.4504    1.8460    9.4943 C   0  0  2  0  0  0  0  0  0  0  0  0
   35.6717    3.0809    8.8042 O   0  0  0  0  0  0  0  0  0  0  0  0
   39.1981    4.7417    8.3832 C   0  0  2  0  0  0  0  0  0  0  0  0
   38.0898    5.2312    7.5646 O   0  0  0  0  0  0  0  0  0  0  0  0
   34.8267    0.8605    8.5424 C   0  0  0  0  0  0  0  0  0  0  0  0
   35.6657    0.6223    7.4772 O   0  0  0  0  0  0  0  0  0  0  0  0
   40.4003    4.3215    7.4714 C   0  0  1  0  0  0  0  0  0  0  0  0
   40.8858    5.3937    6.7170 O   0  0  0  0  0  0  0  0  0  0  0  0
  1  2  1  1  0  0  0
  1  5  1  0  0  0  0
  1 30  1  0  0  0  0
  3  4  1  6  0  0  0
  3  7  1  0  0  0  0
  3 35  1  0  0  0  0
  5  6  1  1  0  0  0
  5 16  1  0  0  0  0
  7 19  1  0  0  0  0
  8  4  1  0  0  0  0
  8 25  2  0  0  0  0
  9  8  1  1  0  0  0
  9 10  1  0  0  0  0
  9 13  1  0  0  0  0
 10 11  1  0  0  0  0
 11 12  1  0  0  0  0
 14 15  1  0  0  0  0
 14 36  1  0  0  0  0
 15 17  1  0  0  0  0
 16 18  1  1  0  0  0
 16 26  1  0  0  0  0
 17 23  1  0  0  0  0
 19 20  1  6  0  0  0
 19 28  1  0  0  0  0
 21 22  1  0  0  0  0
 21 23  1  0  0  0  0
 22 24  1  0  0  0  0
 26 27  1  1  0  0  0
 26 29  1  0  0  0  0
 28  2  1  1  0  0  0
 28 31  1  0  0  0  0
 29 30  1  0  0  0  0
 29 33  1  6  0  0  0
 31 32  1  6  0  0  0
 31 35  1  0  0  0  0
 33 34  1  0  0  0  0
 35 36  1  1  0  0  0
M  END
>  <CHROM.1>
-177.70240978,-63.55085668,154.77300124,60.34311371,75.49298460,-71.10867945
-177.07805818,143.60547562,176.22728140,-176.06326394,-176.91964605,-171.91877957
-176.11894802,-60.00761389,40.03694900,3.43529699,7.88475022,2.59535519,-0.16885202
1.98174974

>  <Name>
2f4u_lig

>  <RI>
0

>  <Rbt.Current_Directory>
/home/itssahil/PROJECTS/Mol_Feturizer/New_Systems/rnas/2f4u

>  <Rbt.Executable>
rbdock ($Id: //depot/dev/client3/rdock/2013.1/src/exe/rbdock.cxx#4 $)

>  <Rbt.Library>
libRbt.so (2013.1, Build901 2013/11/27)

>  <Rbt.Parameter_File>
/export/apps/rDock/src/rDock_2013.1_src/data/scripts/dock_solv.prm

>  <Rbt.Receptor>
prm/pocket_docking_7.prm

>  <SCORE>
-8.75329

>  <SCORE.INTER>
2.37169

>  <SCORE.INTER.CONST>
1

>  <SCORE.INTER.POLAR>
0

>  <SCORE.INTER.ROT>
14

>  <SCORE.INTER.SOLV>
10.3495

>  <SCORE.INTER.VDW>
-14.802

>  <SCORE.INTER.norm>
0.0658802

>  <SCORE.INTRA>
-11.125

>  <SCORE.INTRA.DIHEDRAL>
-22.3603

>  <SCORE.INTRA.DIHEDRAL.0>
26.3805

>  <SCORE.INTRA.POLAR>
0

>  <SCORE.INTRA.POLAR.0>
0

>  <SCORE.INTRA.REPUL>
0

>  <SCORE.INTRA.REPUL.0>
0

>  <SCORE.INTRA.SOLV>
1.6026

>  <SCORE.INTRA.SOLV.lig_0>
-98.5587

>  <SCORE.INTRA.VDW>
-0.74612

>  <SCORE.INTRA.VDW.0>
-2.91167

>  <SCORE.INTRA.norm>
-0.309027

>  <SCORE.RESTR>
0

>  <SCORE.RESTR.CAVITY>
0

>  <SCORE.RESTR.norm>
0

>  <SCORE.SYSTEM>
0

>  <SCORE.SYSTEM.CONST>
0

>  <SCORE.SYSTEM.DIHEDRAL>
0

>  <SCORE.SYSTEM.SOLV>
0

>  <SCORE.SYSTEM.norm>
0

>  <SCORE.heavy>
36

>  <SCORE.norm>
-0.243147

>  <RMSD>
7.926

$$$$
2f4u_lig
 OpenBabel11021811433D
libRbt.so/2013.1/901 2013/11/27
 36 37  0  0  0  0  0  0  0  0999 V2000
   37.4557    6.9276   10.6104 C   0  0  2  0  0  0  0  0  0  0  0  0
   38.8821    7.0560   10.2542 O   0  0  0  0  0  0  0  0  0  0  0  0
   41.6748    5.5643    7.2758 C   0  0  2  0  0  0  0  0  0  0  0  0
   42.2865    4.6578    6.2664 N   0  0  0  0  0  0  0  0  0  0  0  0
   37.2536    7.7161   11.9414 C   0  0  2  0  0  0  0  0  0  0  0  0
   37.6295    9.1369   11.8228 N   0  0  0  0  0  0  0  0  0  0  0  0
   41.5489    4.8718    8.6785 C   0  0  0  0  0  0  0  0  0  0  0  0
   44.0352    4.4516    6.5615 C   0  0  0  0  0  0  0  0  0  0  0  0
   44.0186    3.6930    5.2716 C   0  0  1  0  0  0  0  0  0  0  0  0
   45.3940    3.8762    4.6204 C   0  0  0  0  0  0  0  0  0  0  0  0
   45.6154    5.2103    3.8838 C   0  0  0  0  0  0  0  0  0  0  0  0
   46.8407    5.1058    3.0890 N   0  0  0  0  0  0  0  0  0  0  0  0
   43.8430    2.3239    5.5150 O   0  0  0  0  0  0  0  0  0  0  0  0
   40.1020    7.2898    4.3266 C   0  0  0  0  0  0  0  0  0  0  0  0
   39.8827    8.7511    4.6884 C   0  0  0  0  0  0  0  0  0  0  0  0
   38.0962    7.0300   13.0675 C   0  0  1  0  0  0  0  0  0  0  0  0
   39.7490    9.6489    3.5234 N   0  0  0  0  0  0  0  0  0  0  0  0
   37.9541    7.7212   14.3058 O   0  0  0  0  0  0  0  0  0  0  0  0
   40.8637    5.7996    9.7024 C   0  0  2  0  0  0  0  0  0  0  0  0
   40.7061    5.1396   10.9924 N   0  0  0  0  0  0  0  0  0  0  0  0
   40.3861   11.8462    2.5406 C   0  0  0  0  0  0  0  0  0  0  0  0
   40.4089   13.3964    2.6976 C   0  0  0  0  0  0  0  0  0  0  0  0
   39.7063   11.1196    3.7304 C   0  0  0  0  0  0  0  0  0  0  0  0
   41.0574   14.0649    1.5297 N   0  0  0  0  0  0  0  0  0  0  0  0
   44.7444    4.7890    7.2995 O   0  0  0  0  0  0  0  0  0  0  0  0
   37.6371    5.5629   13.1857 C   0  0  2  0  0  0  0  0  0  0  0  0
   38.3560    4.8451   14.1856 O   0  0  0  0  0  0  0  0  0  0  0  0
   39.4913    6.2102    9.2076 C   0  0  2  0  0  0  0  0  0  0  0  0
   37.7808    4.8329   11.8381 C   0  0  2  0  0  0  0  0  0  0  0  0
   37.0858    5.5324   10.7999 O   0  0  0  0  0  0  0  0  0  0  0  0
   39.6221    6.9509    7.8152 C   0  0  2  0  0  0  0  0  0  0  0  0
   38.2841    7.3186    7.3540 O   0  0  0  0  0  0  0  0  0  0  0  0
   37.2615    3.4216   11.9073 C   0  0  0  0  0  0  0  0  0  0  0  0
   38.1317    2.6220   12.6134 O   0  0  0  0  0  0  0  0  0  0  0  0
   40.3010    5.9816    6.7891 C   0  0  1  0  0  0  0  0  0  0  0  0
   40.4454    6.5696    5.5291 O   0  0  0  0  0  0  0  0  0  0  0  0
  1  2  1  1  0  0  0
  1  5  1  0  0  0  0
  1 30  1  0  0  0  0
  3  4  1  6  0  0  0
  3  7  1  0  0  0  0
  3 35  1  0  0  0  0
  5  6  1  6  0  0  0
  5 16  1  0  0  0  0
  7 19  1  0  0  0  0
  8  4  1  0  0  0  0
  8 25  2  0  0  0  0
  9  8  1  1  0  0  0
  9 10  1  0  0  0  0
  9 13  1  0  0  0  0
 10 11  1  0  0  0  0
 11 12  1  0  0  0  0
 14 15  1  0  0  0  0
 14 36  1  0  0  0  0
 15 17  1  0  0  0  0
 16 18  1  1  0  0  0
 16 26  1  0  0  0  0
 17 23  1  0  0  0  0
 19 20  1  1  0  0  0
 19 28  1  0  0  0  0
 21 22  1  0  0  0  0
 21 23  1  0  0  0  0
 22 24  1  0  0  0  0
 26 27  1  1  0  0  0
 26 29  1  0  0  0  0
 28  2  1  1  0  0  0
 28 31  1  0  0  0  0
 29 30  1  0  0  0  0
 29 33  1  1  0  0  0
 31 32  1  6  0  0  0
 31 35  1  0  0  0  0
 33 34  1  0  0  0  0
 35 36  1  6  0  0  0
M  END
>  <CHROM.1>
167.21699867,-72.96444478,149.91437433,-79.45780322,-167.90661410,170.16971837
68.76018550,-172.17055526,146.43759418,-179.42446210,-178.78075204,-139.29530205
-73.64416847,-170.34261229,40.38645353,6.56402696,7.95949647,2.22860155,-0.76392419
2.34860231

>  <Name>
2f4u_lig

>  <RI>
0

>  <Rbt.Current_Directory>
/home/itssahil/PROJECTS/Mol_Feturizer/New_Systems/rnas/2f4u

>  <Rbt.Executable>
rbdock ($Id: //depot/dev/client3/rdock/2013.1/src/exe/rbdock.cxx#4 $)

>  <Rbt.Library>
libRbt.so (2013.1, Build901 2013/11/27)

>  <Rbt.Parameter_File>
/export/apps/rDock/src/rDock_2013.1_src/data/scripts/dock_solv.prm

>  <Rbt.Receptor>
prm/pocket_docking_6.prm

>  <SCORE>
-18.119

>  <SCORE.INTER>
-10.1631

>  <SCORE.INTER.CONST>
1

>  <SCORE.INTER.POLAR>
-1.4812

>  <SCORE.INTER.ROT>
14

>  <SCORE.INTER.SOLV>
18.3818

>  <SCORE.INTER.VDW>
-20.8987

>  <SCORE.INTER.norm>
-0.28231

>  <SCORE.INTRA>
-7.95585

>  <SCORE.INTRA.DIHEDRAL>
-14.0741

>  <SCORE.INTRA.DIHEDRAL.0>
26.3805

>  <SCORE.INTRA.POLAR>
0

>  <SCORE.INTRA.POLAR.0>
0

>  <SCORE.INTRA.REPUL>
0

>  <SCORE.INTRA.REPUL.0>
0

>  <SCORE.INTRA.SOLV>
1.64049

>  <SCORE.INTRA.SOLV.lig_0>
-98.5587

>  <SCORE.INTRA.VDW>
-1.73906

>  <SCORE.INTRA.VDW.0>
-2.91167

>  <SCORE.INTRA.norm>
-0.220996

>  <SCORE.RESTR>
0

>  <SCORE.RESTR.CAVITY>
0

>  <SCORE.RESTR.norm>
0

>  <SCORE.SYSTEM>
0

>  <SCORE.SYSTEM.CONST>
0

>  <SCORE.SYSTEM.DIHEDRAL>
0

>  <SCORE.SYSTEM.SOLV>
0

>  <SCORE.SYSTEM.norm>
0

>  <SCORE.heavy>
36

>  <SCORE.norm>
-0.503305

>  <RMSD>
7.941

$$$$
2f4u_lig
 OpenBabel11021811433D
libRbt.so/2013.1/901 2013/11/27
 36 37  0  0  0  0  0  0  0  0999 V2000
   39.7847    6.2719   11.4939 C   0  0  2  0  0  0  0  0  0  0  0  0
   39.4515    4.8354   11.5511 O   0  0  0  0  0  0  0  0  0  0  0  0
   40.5949    1.6365    8.8391 C   0  0  2  0  0  0  0  0  0  0  0  0
   40.6011    0.7646    7.6331 N   0  0  0  0  0  0  0  0  0  0  0  0
   39.4889    6.8573   12.9095 C   0  0  2  0  0  0  0  0  0  0  0  0
   40.2625    6.1905   13.9731 N   0  0  0  0  0  0  0  0  0  0  0  0
   39.2020    1.6187    9.5622 C   0  0  0  0  0  0  0  0  0  0  0  0
   42.1569   -0.0953    7.4677 C   0  0  0  0  0  0  0  0  0  0  0  0
   41.5984   -0.5597    6.1592 C   0  0  1  0  0  0  0  0  0  0  0  0
   42.4727    0.0427    5.0538 C   0  0  0  0  0  0  0  0  0  0  0  0
   43.7958   -0.6921    4.7693 C   0  0  0  0  0  0  0  0  0  0  0  0
   44.6029   -0.6881    5.9910 N   0  0  0  0  0  0  0  0  0  0  0  0
   41.6892   -1.9548    6.0597 O   0  0  0  0  0  0  0  0  0  0  0  0
   43.1370    2.7709    6.7240 C   0  0  0  0  0  0  0  0  0  0  0  0
   44.4733    3.3460    7.1690 C   0  0  0  0  0  0  0  0  0  0  0  0
   37.9565    6.7282   13.1989 C   0  0  1  0  0  0  0  0  0  0  0  0
   45.4443    3.5372    6.0728 N   0  0  0  0  0  0  0  0  0  0  0  0
   37.6347    7.2407   14.4893 O   0  0  0  0  0  0  0  0  0  0  0  0
   39.1892    2.5675   10.7780 C   0  0  2  0  0  0  0  0  0  0  0  0
   37.8819    2.5851   11.4221 N   0  0  0  0  0  0  0  0  0  0  0  0
   47.0964    5.3115    6.6404 C   0  0  0  0  0  0  0  0  0  0  0  0
   48.3458    4.3974    6.4619 C   0  0  0  0  0  0  0  0  0  0  0  0
   45.9064    4.9074    5.7314 C   0  0  0  0  0  0  0  0  0  0  0  0
   49.4994    4.8633    7.2886 N   0  0  0  0  0  0  0  0  0  0  0  0
   43.0706   -0.1658    8.0348 O   0  0  0  0  0  0  0  0  0  0  0  0
   37.1925    7.4775   12.0889 C   0  0  2  0  0  0  0  0  0  0  0  0
   35.7789    7.4105   12.2588 O   0  0  0  0  0  0  0  0  0  0  0  0
   39.5266    3.9812   10.3483 C   0  0  2  0  0  0  0  0  0  0  0  0
   37.5612    6.9251   10.7002 C   0  0  2  0  0  0  0  0  0  0  0  0
   38.9779    6.9584   10.4953 O   0  0  0  0  0  0  0  0  0  0  0  0
   40.9521    4.0079    9.6614 C   0  0  2  0  0  0  0  0  0  0  0  0
   41.2430    5.3779    9.2415 O   0  0  0  0  0  0  0  0  0  0  0  0
   36.8903    7.6956    9.5946 C   0  0  0  0  0  0  0  0  0  0  0  0
   37.6001    8.8389    9.3046 O   0  0  0  0  0  0  0  0  0  0  0  0
   40.9324    3.0536    8.4196 C   0  0  1  0  0  0  0  0  0  0  0  0
   42.1631    3.0302    7.7569 O   0  0  0  0  0  0  0  0  0  0  0  0
  1  2  1  1  0  0  0
  1  5  1  0  0  0  0
  1 30  1  0  0  0  0
  3  4  1  6  0  0  0
  3  7  1  0  0  0  0
  3 35  1  0  0  0  0
  5  6  1  1  0  0  0
  5 16  1  0  0  0  0
  7 19  1  0  0  0  0
  8  4  1  0  0  0  0
  8 25  2  0  0  0  0
  9  8  1  1  0  0  0
  9 10  1  0  0  0  0
  9 13  1  0  0  0  0
 10 11  1  0  0  0  0
 11 12  1  0  0  0  0
 14 15  1  0  0  0  0
 14 36  1  0  0  0  0
 15 17  1  0  0  0  0
 16 18  1  1  0  0  0
 16 26  1  0  0  0  0
 17 23  1  0  0  0  0
 19 20  1  6  0  0  0
 19 28  1  0  0  0  0
 21 22  1  0  0  0  0
 21 23  1  0  0  0  0
 22 24  1  0  0  0  0
 26 27  1  1  0  0  0
 26 29  1  0  0  0  0
 28  2  1  1  0  0  0
 28 31  1  0  0  0  0
 29 30  1  0  0  0  0
 29 33  1  6  0  0  0
 31 32  1  6  0  0  0
 31 35  1  0  0  0  0
 33 34  1  0  0  0  0
 35 36  1  1  0  0  0
M  END
>  <CHROM.1>
175.83891783,-141.39551657,115.05070912,80.63676519,-60.14062423,-161.82245769
178.26715448,116.36739910,85.28941810,176.52456115,62.26440195,177.23465665
82.41226665,70.50714198,41.20743357,3.83757578,9.04399694,-2.38023137,-0.42431244
-2.71709419

>  <Name>
2f4u_lig

>  <RI>
0

>  <Rbt.Current_Directory>
/home/itssahil/PROJECTS/Mol_Feturizer/New_Systems/rnas/2f4u

>  <Rbt.Executable>
rbdock ($Id: //depot/dev/client3/rdock/2013.1/src/exe/rbdock.cxx#4 $)

>  <Rbt.Library>
libRbt.so (2013.1, Build901 2013/11/27)

>  <Rbt.Parameter_File>
/export/apps/rDock/src/rDock_2013.1_src/data/scripts/dock_solv.prm

>  <Rbt.Receptor>
prm/pocket_docking_6.prm

>  <SCORE>
-19.028

>  <SCORE.INTER>
-12.1773

>  <SCORE.INTER.CONST>
1

>  <SCORE.INTER.POLAR>
-2.08607

>  <SCORE.INTER.ROT>
14

>  <SCORE.INTER.SOLV>
16.3828

>  <SCORE.INTER.VDW>
-19.5589

>  <SCORE.INTER.norm>
-0.338258

>  <SCORE.INTRA>
-6.85069

>  <SCORE.INTRA.DIHEDRAL>
-16.527

>  <SCORE.INTRA.DIHEDRAL.0>
26.3805

>  <SCORE.INTRA.POLAR>
0

>  <SCORE.INTRA.POLAR.0>
0

>  <SCORE.INTRA.REPUL>
0

>  <SCORE.INTRA.REPUL.0>
0

>  <SCORE.INTRA.SOLV>
4.61094

>  <SCORE.INTRA.SOLV.lig_0>
-98.5587

>  <SCORE.INTRA.VDW>
-0.892668

>  <SCORE.INTRA.VDW.0>
-2.91167

>  <SCORE.INTRA.norm>
-0.190297

>  <SCORE.RESTR>
0

>  <SCORE.RESTR.CAVITY>
0

>  <SCORE.RESTR.norm>
0

>  <SCORE.SYSTEM>
0

>  <SCORE.SYSTEM.CONST>
0

>  <SCORE.SYSTEM.DIHEDRAL>
0

>  <SCORE.SYSTEM.SOLV>
0

>  <SCORE.SYSTEM.norm>
0

>  <SCORE.heavy>
36

>  <SCORE.norm>
-0.528556

>  <RMSD>
7.946

$$$$
2f4u_lig
 OpenBabel11021811433D
libRbt.so/2013.1/901 2013/11/27
 36 37  0  0  0  0  0  0  0  0999 V2000
   37.1056    5.5682   10.3856 C   0  0  2  0  0  0  0  0  0  0  0  0
   38.4832    6.0092   10.0930 O   0  0  0  0  0  0  0  0  0  0  0  0
   40.3381    7.2969    6.3787 C   0  0  2  0  0  0  0  0  0  0  0  0
   40.9227    7.2242    5.0120 N   0  0  0  0  0  0  0  0  0  0  0  0
   36.9957    5.4409   11.9366 C   0  0  2  0  0  0  0  0  0  0  0  0
   37.2906    6.7068   12.6329 N   0  0  0  0  0  0  0  0  0  0  0  0
   41.1162    6.3865    7.3930 C   0  0  0  0  0  0  0  0  0  0  0  0
   40.9256    5.5466    4.4011 C   0  0  0  0  0  0  0  0  0  0  0  0
   41.6941    6.1178    3.2509 C   0  0  1  0  0  0  0  0  0  0  0  0
   43.1567    5.6953    3.4287 C   0  0  0  0  0  0  0  0  0  0  0  0
   43.9051    6.3471    4.6061 C   0  0  0  0  0  0  0  0  0  0  0  0
   45.2707    5.8198    4.6393 N   0  0  0  0  0  0  0  0  0  0  0  0
   41.2383    5.5723    2.0430 O   0  0  0  0  0  0  0  0  0  0  0  0
   37.8220    8.2085    4.1076 C   0  0  0  0  0  0  0  0  0  0  0  0
   37.0676    9.5071    4.3507 C   0  0  0  0  0  0  0  0  0  0  0  0
   37.9746    4.3206   12.4218 C   0  0  1  0  0  0  0  0  0  0  0  0
   37.9352   10.6615    4.6597 N   0  0  0  0  0  0  0  0  0  0  0  0
   37.9200    4.1718   13.8382 O   0  0  0  0  0  0  0  0  0  0  0  0
   40.4693    6.4261    8.7925 C   0  0  2  0  0  0  0  0  0  0  0  0
   41.1650    5.5455    9.7225 N   0  0  0  0  0  0  0  0  0  0  0  0
   38.2417   12.0501    2.6157 C   0  0  0  0  0  0  0  0  0  0  0  0
   37.2022   11.3091    1.7222 C   0  0  0  0  0  0  0  0  0  0  0  0
   38.9269   11.1248    3.6550 C   0  0  0  0  0  0  0  0  0  0  0  0
   36.6929   12.1803    0.6209 N   0  0  0  0  0  0  0  0  0  0  0  0
   40.5831    4.5888    4.7570 O   0  0  0  0  0  0  0  0  0  0  0  0
   37.5991    3.0093   11.7030 C   0  0  2  0  0  0  0  0  0  0  0  0
   38.4443    1.9229   12.0732 O   0  0  0  0  0  0  0  0  0  0  0  0
   39.0202    5.9886    8.7171 C   0  0  2  0  0  0  0  0  0  0  0  0
   37.6465    3.1884   10.1749 C   0  0  2  0  0  0  0  0  0  0  0  0
   36.8222    4.2838    9.7617 O   0  0  0  0  0  0  0  0  0  0  0  0
   38.2240    6.9359    7.7305 C   0  0  2  0  0  0  0  0  0  0  0  0
   36.8363    6.4802    7.6633 O   0  0  0  0  0  0  0  0  0  0  0  0
   37.2037    1.9449    9.4511 C   0  0  0  0  0  0  0  0  0  0  0  0
   37.3814    2.0884    8.0935 O   0  0  0  0  0  0  0  0  0  0  0  0
   38.8874    6.8617    6.3136 C   0  0  1  0  0  0  0  0  0  0  0  0
   38.2306    7.6735    5.3842 O   0  0  0  0  0  0  0  0  0  0  0  0
  1  2  1  1  0  0  0
  1  5  1  0  0  0  0
  1 30  1  0  0  0  0
  3  4  1  6  0  0  0
  3  7  1  0  0  0  0
  3 35  1  0  0  0  0
  5  6  1  1  0  0  0
  5 16  1  0  0  0  0
  7 19  1  0  0  0  0
  8  4  1  0  0  0  0
  8 25  2  0  0  0  0
  9  8  1  1  0  0  0
  9 10  1  0  0  0  0
  9 13  1  0  0  0  0
 10 11  1  0  0  0  0
 11 12  1  0  0  0  0
 14 15  1  0  0  0  0
 14 36  1  0  0  0  0
 15 17  1  0  0  0  0
 16 18  1  1  0  0  0
 16 26  1  0  0  0  0
 17 23  1  0  0  0  0
 19 20  1  1  0  0  0
 19 28  1  0  0  0  0
 21 22  1  0  0  0  0
 21 23  1  0  0  0  0
 22 24  1  0  0  0  0
 26 27  1  6  0  0  0
 26 29  1  0  0  0  0
 28  2  1  1  0  0  0
 28 31  1  0  0  0  0
 29 30  1  0  0  0  0
 29 33  1  6  0  0  0
 31 32  1  6  0  0  0
 31 35  1  0  0  0  0
 33 34  1  0  0  0  0
 35 36  1  6  0  0  0
M  END
>  <CHROM.1>
168.28462034,58.05478518,105.17004029,-69.19476995,179.17459927,77.27782237
-169.06463594,61.75957996,82.70836202,-172.57875114,-66.65011497,-176.86754172
-174.07751419,74.48303401,39.05399873,6.35853198,7.08044107,1.77054956,-0.60071164
2.24386489

>  <Name>
2f4u_lig

>  <RI>
0

>  <Rbt.Current_Directory>
/home/itssahil/PROJECTS/Mol_Feturizer/New_Systems/rnas/2f4u

>  <Rbt.Executable>
rbdock ($Id: //depot/dev/client3/rdock/2013.1/src/exe/rbdock.cxx#4 $)

>  <Rbt.Library>
libRbt.so (2013.1, Build901 2013/11/27)

>  <Rbt.Parameter_File>
/export/apps/rDock/src/rDock_2013.1_src/data/scripts/dock_solv.prm

>  <Rbt.Receptor>
prm/pocket_docking_4.prm

>  <SCORE>
-20.5474

>  <SCORE.INTER>
-9.53857

>  <SCORE.INTER.CONST>
1

>  <SCORE.INTER.POLAR>
-0.979796

>  <SCORE.INTER.ROT>
14

>  <SCORE.INTER.SOLV>
16.3478

>  <SCORE.INTER.VDW>
-21.4757

>  <SCORE.INTER.norm>
-0.26496

>  <SCORE.INTRA>
-11.0089

>  <SCORE.INTRA.DIHEDRAL>
-19.5534

>  <SCORE.INTRA.DIHEDRAL.0>
26.3805

>  <SCORE.INTRA.POLAR>
0

>  <SCORE.INTRA.POLAR.0>
0

>  <SCORE.INTRA.REPUL>
0

>  <SCORE.INTRA.REPUL.0>
0

>  <SCORE.INTRA.SOLV>
0.126064

>  <SCORE.INTRA.SOLV.lig_0>
-98.5587

>  <SCORE.INTRA.VDW>
-1.2952

>  <SCORE.INTRA.VDW.0>
-2.91167

>  <SCORE.INTRA.norm>
-0.305802

>  <SCORE.RESTR>
0

>  <SCORE.RESTR.CAVITY>
0

>  <SCORE.RESTR.norm>
0

>  <SCORE.SYSTEM>
0

>  <SCORE.SYSTEM.CONST>
0

>  <SCORE.SYSTEM.DIHEDRAL>
0

>  <SCORE.SYSTEM.SOLV>
0

>  <SCORE.SYSTEM.norm>
0

>  <SCORE.heavy>
36

>  <SCORE.norm>
-0.570762

>  <RMSD>
7.993

$$$$
2f4u_lig
 OpenBabel11021811433D
libRbt.so/2013.1/901 2013/11/27
 36 37  0  0  0  0  0  0  0  0999 V2000
   43.2742    4.6130    5.4485 C   0  0  2  0  0  0  0  0  0  0  0  0
   42.5488    5.3673    6.4890 O   0  0  0  0  0  0  0  0  0  0  0  0
   39.5351    8.4947    6.3099 C   0  0  2  0  0  0  0  0  0  0  0  0
   38.2843    9.2078    5.9330 N   0  0  0  0  0  0  0  0  0  0  0  0
   42.3774    3.3931    5.0721 C   0  0  2  0  0  0  0  0  0  0  0  0
   41.0460    3.7962    4.5829 N   0  0  0  0  0  0  0  0  0  0  0  0
   40.4054    8.1433    5.0520 C   0  0  0  0  0  0  0  0  0  0  0  0
   37.4265    8.3540    4.6205 C   0  0  0  0  0  0  0  0  0  0  0  0
   36.5168    9.5423    4.6351 C   0  0  1  0  0  0  0  0  0  0  0  0
   36.2193    9.9030    3.1753 C   0  0  0  0  0  0  0  0  0  0  0  0
   37.3622   10.5935    2.4084 C   0  0  0  0  0  0  0  0  0  0  0  0
   36.8606   11.0045    1.0956 N   0  0  0  0  0  0  0  0  0  0  0  0
   35.2997    9.2153    5.2483 O   0  0  0  0  0  0  0  0  0  0  0  0
   37.5189    7.4102    9.2959 C   0  0  0  0  0  0  0  0  0  0  0  0
   38.2995    6.6771   10.3766 C   0  0  0  0  0  0  0  0  0  0  0  0
   42.2313    2.4681    6.3258 C   0  0  1  0  0  0  0  0  0  0  0  0
   37.5655    6.5149   11.6478 N   0  0  0  0  0  0  0  0  0  0  0  0
   41.4090    1.3405    6.0365 O   0  0  0  0  0  0  0  0  0  0  0  0
   41.6713    7.3564    5.4481 C   0  0  2  0  0  0  0  0  0  0  0  0
   42.4561    6.9909    4.2755 N   0  0  0  0  0  0  0  0  0  0  0  0
   37.8148    4.3572   12.8651 C   0  0  0  0  0  0  0  0  0  0  0  0
   36.2732    4.1489   12.9576 C   0  0  0  0  0  0  0  0  0  0  0  0
   38.2287    5.8505   12.7994 C   0  0  0  0  0  0  0  0  0  0  0  0
   35.5969    4.4079   11.6512 N   0  0  0  0  0  0  0  0  0  0  0  0
   37.5690    7.4435    4.0619 O   0  0  0  0  0  0  0  0  0  0  0  0
   43.6425    2.0362    6.7720 C   0  0  2  0  0  0  0  0  0  0  0  0
   43.6172    1.1925    7.9206 O   0  0  0  0  0  0  0  0  0  0  0  0
   41.2948    6.0856    6.1832 C   0  0  2  0  0  0  0  0  0  0  0  0
   44.5245    3.2631    7.0657 C   0  0  2  0  0  0  0  0  0  0  0  0
   44.5630    4.1475    5.9403 O   0  0  0  0  0  0  0  0  0  0  0  0
   40.4573    6.4422    7.4777 C   0  0  2  0  0  0  0  0  0  0  0  0
   40.0930    5.1990    8.1558 O   0  0  0  0  0  0  0  0  0  0  0  0
   45.9323    2.8682    7.4238 C   0  0  0  0  0  0  0  0  0  0  0  0
   46.6237    3.9489    7.9230 O   0  0  0  0  0  0  0  0  0  0  0  0
   39.1688    7.2217    7.0470 C   0  0  1  0  0  0  0  0  0  0  0  0
   38.3739    7.5670    8.1438 O   0  0  0  0  0  0  0  0  0  0  0  0
  1  2  1  1  0  0  0
  1  5  1  0  0  0  0
  1 30  1  0  0  0  0
  3  4  1  6  0  0  0
  3  7  1  0  0  0  0
  3 35  1  0  0  0  0
  5  6  1  1  0  0  0
  5 16  1  0  0  0  0
  7 19  1  0  0  0  0
  8  4  1  0  0  0  0
  8 25  2  0  0  0  0
  9  8  1  6  0  0  0
  9 10  1  0  0  0  0
  9 13  1  0  0  0  0
 10 11  1  0  0  0  0
 11 12  1  0  0  0  0
 14 15  1  0  0  0  0
 14 36  1  0  0  0  0
 15 17  1  0  0  0  0
 16 18  1  6  0  0  0
 16 26  1  0  0  0  0
 17 23  1  0  0  0  0
 19 20  1  6  0  0  0
 19 28  1  0  0  0  0
 21 22  1  0  0  0  0
 21 23  1  0  0  0  0
 22 24  1  0  0  0  0
 26 27  1  1  0  0  0
 26 29  1  0  0  0  0
 28  2  1  1  0  0  0
 28 31  1  0  0  0  0
 29 30  1  0  0  0  0
 29 33  1  6  0  0  0
 31 32  1  6  0  0  0
 31 35  1  0  0  0  0
 33 34  1  0  0  0  0
 35 36  1  1  0  0  0
M  END
>  <CHROM.1>
-67.95769562,49.42548497,138.19009455,-74.57060378,-173.47174911,176.70854435
63.45564361,-178.24961224,-97.36159769,74.31385208,-56.83504158,-76.53115706
-168.62822653,172.75423861,40.07784175,5.98287684,6.90197925,-0.53866205
0.56471473,-1.07098804

>  <Name>
2f4u_lig

>  <RI>
0

>  <Rbt.Current_Directory>
/home/itssahil/PROJECTS/Mol_Feturizer/New_Systems/rnas/2f4u

>  <Rbt.Executable>
rbdock ($Id: //depot/dev/client3/rdock/2013.1/src/exe/rbdock.cxx#4 $)

>  <Rbt.Library>
libRbt.so (2013.1, Build901 2013/11/27)

>  <Rbt.Parameter_File>
/export/apps/rDock/src/rDock_2013.1_src/data/scripts/dock_solv.prm

>  <Rbt.Receptor>
prm/pocket_docking_6.prm

>  <SCORE>
-17.0981

>  <SCORE.INTER>
-9.92777

>  <SCORE.INTER.CONST>
1

>  <SCORE.INTER.POLAR>
-1.57833

>  <SCORE.INTER.ROT>
14

>  <SCORE.INTER.SOLV>
14.6393

>  <SCORE.INTER.VDW>
-19.1705

>  <SCORE.INTER.norm>
-0.275771

>  <SCORE.INTRA>
-7.17031

>  <SCORE.INTRA.DIHEDRAL>
-19.3696

>  <SCORE.INTRA.DIHEDRAL.0>
26.3805

>  <SCORE.INTRA.POLAR>
0

>  <SCORE.INTRA.POLAR.0>
0

>  <SCORE.INTRA.REPUL>
0

>  <SCORE.INTRA.REPUL.0>
0

>  <SCORE.INTRA.SOLV>
6.74115

>  <SCORE.INTRA.SOLV.lig_0>
-98.5587

>  <SCORE.INTRA.VDW>
-0.856084

>  <SCORE.INTRA.VDW.0>
-2.91167

>  <SCORE.INTRA.norm>
-0.199175

>  <SCORE.RESTR>
0

>  <SCORE.RESTR.CAVITY>
0

>  <SCORE.RESTR.norm>
0

>  <SCORE.SYSTEM>
0

>  <SCORE.SYSTEM.CONST>
0

>  <SCORE.SYSTEM.DIHEDRAL>
0

>  <SCORE.SYSTEM.SOLV>
0

>  <SCORE.SYSTEM.norm>
0

>  <SCORE.heavy>
36

>  <SCORE.norm>
-0.474946

>  <RMSD>
7.994

$$$$
2f4u_lig
 OpenBabel11021811433D
libRbt.so/2013.1/901 2013/11/27
 36 37  0  0  0  0  0  0  0  0999 V2000
   40.7331    3.5175    9.0290 C   0  0  2  0  0  0  0  0  0  0  0  0
   41.2123    3.9577    7.7044 O   0  0  0  0  0  0  0  0  0  0  0  0
   44.8916    3.4281    5.4511 C   0  0  2  0  0  0  0  0  0  0  0  0
   46.3415    3.4644    5.1177 N   0  0  0  0  0  0  0  0  0  0  0  0
   39.1742    3.5410    8.9721 C   0  0  2  0  0  0  0  0  0  0  0  0
   38.6311    2.6715    7.9122 N   0  0  0  0  0  0  0  0  0  0  0  0
   44.3259    4.8628    5.7419 C   0  0  0  0  0  0  0  0  0  0  0  0
   46.6666    4.6009    3.7796 C   0  0  0  0  0  0  0  0  0  0  0  0
   48.0623    4.0658    3.8535 C   0  0  1  0  0  0  0  0  0  0  0  0
   48.8033    4.5590    2.6057 C   0  0  0  0  0  0  0  0  0  0  0  0
   48.2516    4.0612    1.2570 C   0  0  0  0  0  0  0  0  0  0  0  0
   48.3571    2.6012    1.2208 N   0  0  0  0  0  0  0  0  0  0  0  0
   48.7239    4.5866    4.9739 O   0  0  0  0  0  0  0  0  0  0  0  0
   45.4640    0.0418    5.6946 C   0  0  0  0  0  0  0  0  0  0  0  0
   46.4655   -0.7726    6.4999 C   0  0  0  0  0  0  0  0  0  0  0  0
   38.6993    5.0158    8.7524 C   0  0  1  0  0  0  0  0  0  0  0  0
   46.7865   -2.0887    5.9118 N   0  0  0  0  0  0  0  0  0  0  0  0
   37.2777    5.0903    8.6819 O   0  0  0  0  0  0  0  0  0  0  0  0
   42.8369    4.8084    6.1402 C   0  0  2  0  0  0  0  0  0  0  0  0
   42.3239    6.1360    6.4541 N   0  0  0  0  0  0  0  0  0  0  0  0
   46.3795   -3.7621    7.7102 C   0  0  0  0  0  0  0  0  0  0  0  0
   46.9567   -4.9206    8.5779 C   0  0  0  0  0  0  0  0  0  0  0  0
   47.4257   -3.1331    6.7533 C   0  0  0  0  0  0  0  0  0  0  0  0
   48.0702   -4.4555    9.4583 N   0  0  0  0  0  0  0  0  0  0  0  0
   46.0865    5.2846    3.1819 O   0  0  0  0  0  0  0  0  0  0  0  0
   39.2517    5.8761    9.9064 C   0  0  2  0  0  0  0  0  0  0  0  0
   38.8792    7.2471    9.7916 O   0  0  0  0  0  0  0  0  0  0  0  0
   42.6478    3.9255    7.3575 C   0  0  2  0  0  0  0  0  0  0  0  0
   40.7858    5.7739    9.9811 C   0  0  2  0  0  0  0  0  0  0  0  0
   41.2041    4.4081   10.0799 O   0  0  0  0  0  0  0  0  0  0  0  0
   43.1748    2.4656    7.0490 C   0  0  2  0  0  0  0  0  0  0  0  0
   42.9970    1.6422    8.2442 O   0  0  0  0  0  0  0  0  0  0  0  0
   41.3420    6.5400   11.1515 C   0  0  0  0  0  0  0  0  0  0  0  0
   42.7138    6.6190   11.0677 O   0  0  0  0  0  0  0  0  0  0  0  0
   44.6918    2.5461    6.6678 C   0  0  1  0  0  0  0  0  0  0  0  0
   45.2290    1.2867    6.3857 O   0  0  0  0  0  0  0  0  0  0  0  0
  1  2  1  6  0  0  0
  1  5  1  0  0  0  0
  1 30  1  0  0  0  0
  3  4  1  1  0  0  0
  3  7  1  0  0  0  0
  3 35  1  0  0  0  0
  5  6  1  6  0  0  0
  5 16  1  0  0  0  0
  7 19  1  0  0  0  0
  8  4  1  0  0  0  0
  8 25  2  0  0  0  0
  9  8  1  6  0  0  0
  9 10  1  0  0  0  0
  9 13  1  0  0  0  0
 10 11  1  0  0  0  0
 11 12  1  0  0  0  0
 14 15  1  0  0  0  0
 14 36  1  0  0  0  0
 15 17  1  0  0  0  0
 16 18  1  1  0  0  0
 16 26  1  0  0  0  0
 17 23  1  0  0  0  0
 19 20  1  1  0  0  0
 19 28  1  0  0  0  0
 21 22  1  0  0  0  0
 21 23  1  0  0  0  0
 22 24  1  0  0  0  0
 26 27  1  6  0  0  0
 26 29  1  0  0  0  0
 28  2  1  6  0  0  0
 28 31  1  0  0  0  0
 29 30  1  0  0  0  0
 29 33  1  1  0  0  0
 31 32  1  1  0  0  0
 31 35  1  0  0  0  0
 33 34  1  0  0  0  0
 35 36  1  6  0  0  0
M  END
>  <CHROM.1>
-173.80092769,-53.84428981,168.22268435,-62.98036040,-61.69661070,179.24561617
-178.39516140,-162.62297937,75.73626327,61.03495289,177.03368406,-163.15836522
-169.94154957,-54.09253185,43.92285112,2.95216020,6.94898560,2.85319155,0.66063041
-0.45220970

>  <Name>
2f4u_lig

>  <RI>
0

>  <Rbt.Current_Directory>
/home/itssahil/PROJECTS/Mol_Feturizer/New_Systems/rnas/2f4u

>  <Rbt.Executable>
rbdock ($Id: //depot/dev/client3/rdock/2013.1/src/exe/rbdock.cxx#4 $)

>  <Rbt.Library>
libRbt.so (2013.1, Build901 2013/11/27)

>  <Rbt.Parameter_File>
/export/apps/rDock/src/rDock_2013.1_src/data/scripts/dock_solv.prm

>  <Rbt.Receptor>
prm/pocket_docking_8.prm

>  <SCORE>
-12.6058

>  <SCORE.INTER>
-1.44243

>  <SCORE.INTER.CONST>
1

>  <SCORE.INTER.POLAR>
-1.39041

>  <SCORE.INTER.ROT>
14

>  <SCORE.INTER.SOLV>
9.35828

>  <SCORE.INTER.VDW>
-12.3797

>  <SCORE.INTER.norm>
-0.0400675

>  <SCORE.INTRA>
-11.1634

>  <SCORE.INTRA.DIHEDRAL>
-22.875

>  <SCORE.INTRA.DIHEDRAL.0>
26.3805

>  <SCORE.INTRA.POLAR>
0

>  <SCORE.INTRA.POLAR.0>
0

>  <SCORE.INTRA.REPUL>
0

>  <SCORE.INTRA.REPUL.0>
0

>  <SCORE.INTRA.SOLV>
1.12193

>  <SCORE.INTRA.SOLV.lig_0>
-98.5587

>  <SCORE.INTRA.VDW>
-0.286863

>  <SCORE.INTRA.VDW.0>
-2.91167

>  <SCORE.INTRA.norm>
-0.310095

>  <SCORE.RESTR>
0

>  <SCORE.RESTR.CAVITY>
0

>  <SCORE.RESTR.norm>
0

>  <SCORE.SYSTEM>
0

>  <SCORE.SYSTEM.CONST>
0

>  <SCORE.SYSTEM.DIHEDRAL>
0

>  <SCORE.SYSTEM.SOLV>
0

>  <SCORE.SYSTEM.norm>
0

>  <SCORE.heavy>
36

>  <SCORE.norm>
-0.350162

>  <RMSD>
8.004

$$$$
2f4u_lig
 OpenBabel11021811433D
libRbt.so/2013.1/901 2013/11/27
 36 37  0  0  0  0  0  0  0  0999 V2000
   44.0422    4.0359    6.0179 C   0  0  2  0  0  0  0  0  0  0  0  0
   43.6116    5.4472    6.0450 O   0  0  0  0  0  0  0  0  0  0  0  0
   39.7892    7.4533    6.5548 C   0  0  2  0  0  0  0  0  0  0  0  0
   38.3745    7.8444    6.3090 N   0  0  0  0  0  0  0  0  0  0  0  0
   45.5917    4.0365    6.2001 C   0  0  2  0  0  0  0  0  0  0  0  0
   46.0157    4.6808    7.4568 N   0  0  0  0  0  0  0  0  0  0  0  0
   40.7018    7.7638    5.3162 C   0  0  0  0  0  0  0  0  0  0  0  0
   37.6440    8.5701    7.7675 C   0  0  0  0  0  0  0  0  0  0  0  0
   36.3783    8.5514    6.9692 C   0  0  1  0  0  0  0  0  0  0  0  0
   35.2386    8.9400    7.9176 C   0  0  0  0  0  0  0  0  0  0  0  0
   34.9773    7.9707    9.0853 C   0  0  0  0  0  0  0  0  0  0  0  0
   33.7678    8.4034    9.7881 N   0  0  0  0  0  0  0  0  0  0  0  0
   36.4309    9.5139    5.9517 O   0  0  0  0  0  0  0  0  0  0  0  0
   37.8028    5.7148    8.7627 C   0  0  0  0  0  0  0  0  0  0  0  0
   38.0773    4.8950   10.0145 C   0  0  0  0  0  0  0  0  0  0  0  0
   46.2434    4.7637    4.9774 C   0  0  1  0  0  0  0  0  0  0  0  0
   39.2917    5.3024   10.7497 N   0  0  0  0  0  0  0  0  0  0  0  0
   47.6628    4.8010    5.1014 O   0  0  0  0  0  0  0  0  0  0  0  0
   42.1537    7.3044    5.5602 C   0  0  2  0  0  0  0  0  0  0  0  0
   42.9905    7.5516    4.3928 N   0  0  0  0  0  0  0  0  0  0  0  0
   39.5885    6.3114   13.0066 C   0  0  0  0  0  0  0  0  0  0  0  0
   38.3821    5.6799   13.7642 C   0  0  0  0  0  0  0  0  0  0  0  0
   39.2976    6.5806   11.5071 C   0  0  0  0  0  0  0  0  0  0  0  0
   37.9852    4.3635   13.1804 N   0  0  0  0  0  0  0  0  0  0  0  0
   37.9777    8.8237    8.7603 O   0  0  0  0  0  0  0  0  0  0  0  0
   45.8095    4.0289    3.6934 C   0  0  2  0  0  0  0  0  0  0  0  0
   46.3476    4.6245    2.5155 O   0  0  0  0  0  0  0  0  0  0  0  0
   42.1936    5.8209    5.8683 C   0  0  2  0  0  0  0  0  0  0  0  0
   44.2751    3.9819    3.5800 C   0  0  2  0  0  0  0  0  0  0  0  0
   43.6922    3.4047    4.7536 O   0  0  0  0  0  0  0  0  0  0  0  0
   41.3114    5.5140    7.1458 C   0  0  2  0  0  0  0  0  0  0  0  0
   41.3534    4.0761    7.4083 O   0  0  0  0  0  0  0  0  0  0  0  0
   43.8260    3.1973    2.3763 C   0  0  0  0  0  0  0  0  0  0  0  0
   42.4558    3.2466    2.2527 O   0  0  0  0  0  0  0  0  0  0  0  0
   39.8396    5.9702    6.8649 C   0  0  1  0  0  0  0  0  0  0  0  0
   38.9977    5.7242    7.9535 O   0  0  0  0  0  0  0  0  0  0  0  0
  1  2  1  6  0  0  0
  1  5  1  0  0  0  0
  1 30  1  0  0  0  0
  3  4  1  6  0  0  0
  3  7  1  0  0  0  0
  3 35  1  0  0  0  0
  5  6  1  1  0  0  0
  5 16  1  0  0  0  0
  7 19  1  0  0  0  0
  8  4  1  0  0  0  0
  8 25  2  0  0  0  0
  9  8  1  1  0  0  0
  9 10  1  0  0  0  0
  9 13  1  0  0  0  0
 10 11  1  0  0  0  0
 11 12  1  0  0  0  0
 14 15  1  0  0  0  0
 14 36  1  0  0  0  0
 15 17  1  0  0  0  0
 16 18  1  1  0  0  0
 16 26  1  0  0  0  0
 17 23  1  0  0  0  0
 19 20  1  6  0  0  0
 19 28  1  0  0  0  0
 21 22  1  0  0  0  0
 21 23  1  0  0  0  0
 22 24  1  0  0  0  0
 26 27  1  6  0  0  0
 26 29  1  0  0  0  0
 28  2  1  1  0  0  0
 28 31  1  0  0  0  0
 29 30  1  0  0  0  0
 29 33  1  6  0  0  0
 31 32  1  6  0  0  0
 31 35  1  0  0  0  0
 33 34  1  0  0  0  0
 35 36  1  1  0  0  0
M  END
>  <CHROM.1>
178.62151619,-140.50625253,171.59487319,-63.62906038,-173.29331072,52.03750493
174.50656670,71.94807815,120.75850054,60.32274064,-73.84875457,-164.36077879
-176.06745699,53.55726037,40.85567114,5.95144642,7.07420259,-0.44752451,-0.48672073
1.84785574

>  <Name>
2f4u_lig

>  <RI>
0

>  <Rbt.Current_Directory>
/home/itssahil/PROJECTS/Mol_Feturizer/New_Systems/rnas/2f4u

>  <Rbt.Executable>
rbdock ($Id: //depot/dev/client3/rdock/2013.1/src/exe/rbdock.cxx#4 $)

>  <Rbt.Library>
libRbt.so (2013.1, Build901 2013/11/27)

>  <Rbt.Parameter_File>
/export/apps/rDock/src/rDock_2013.1_src/data/scripts/dock_solv.prm

>  <Rbt.Receptor>
prm/pocket_docking_5.prm

>  <SCORE>
-14.4126

>  <SCORE.INTER>
-4.55199

>  <SCORE.INTER.CONST>
1

>  <SCORE.INTER.POLAR>
-1.31933

>  <SCORE.INTER.ROT>
14

>  <SCORE.INTER.SOLV>
17.3881

>  <SCORE.INTER.VDW>
-17.3663

>  <SCORE.INTER.norm>
-0.126444

>  <SCORE.INTRA>
-9.86059

>  <SCORE.INTRA.DIHEDRAL>
-20.6106

>  <SCORE.INTRA.DIHEDRAL.0>
26.3805

>  <SCORE.INTRA.POLAR>
0

>  <SCORE.INTRA.POLAR.0>
0

>  <SCORE.INTRA.REPUL>
0

>  <SCORE.INTRA.REPUL.0>
0

>  <SCORE.INTRA.SOLV>
4.30151

>  <SCORE.INTRA.SOLV.lig_0>
-98.5587

>  <SCORE.INTRA.VDW>
-1.70603

>  <SCORE.INTRA.VDW.0>
-2.91167

>  <SCORE.INTRA.norm>
-0.273905

>  <SCORE.RESTR>
0

>  <SCORE.RESTR.CAVITY>
0

>  <SCORE.RESTR.norm>
0

>  <SCORE.SYSTEM>
0

>  <SCORE.SYSTEM.CONST>
0

>  <SCORE.SYSTEM.DIHEDRAL>
0

>  <SCORE.SYSTEM.SOLV>
0

>  <SCORE.SYSTEM.norm>
0

>  <SCORE.heavy>
36

>  <SCORE.norm>
-0.400349

>  <RMSD>
8.006

$$$$
2f4u_lig
 OpenBabel11021811433D
libRbt.so/2013.1/901 2013/11/27
 36 37  0  0  0  0  0  0  0  0999 V2000
   40.2564    3.5641    7.2493 C   0  0  2  0  0  0  0  0  0  0  0  0
   40.9356    4.7106    6.6152 O   0  0  0  0  0  0  0  0  0  0  0  0
   39.4739    8.6895    5.6524 C   0  0  2  0  0  0  0  0  0  0  0  0
   38.7267    9.7709    4.9545 N   0  0  0  0  0  0  0  0  0  0  0  0
   41.3426    2.7928    8.0612 C   0  0  2  0  0  0  0  0  0  0  0  0
   41.9941    3.6348    9.0815 N   0  0  0  0  0  0  0  0  0  0  0  0
   40.4440    7.9315    4.6790 C   0  0  0  0  0  0  0  0  0  0  0  0
   37.6464    9.1017    3.7005 C   0  0  0  0  0  0  0  0  0  0  0  0
   37.3999   10.5356    3.3497 C   0  0  1  0  0  0  0  0  0  0  0  0
   38.4676   10.9421    2.3279 C   0  0  0  0  0  0  0  0  0  0  0  0
   39.8765   11.1967    2.8948 C   0  0  0  0  0  0  0  0  0  0  0  0
   40.7499   11.6210    1.7988 N   0  0  0  0  0  0  0  0  0  0  0  0
   36.1482   10.6774    2.7353 O   0  0  0  0  0  0  0  0  0  0  0  0
   36.6734    9.4250    7.5148 C   0  0  0  0  0  0  0  0  0  0  0  0
   36.3161    9.1541    8.9686 C   0  0  0  0  0  0  0  0  0  0  0  0
   42.4119    2.2307    7.0666 C   0  0  1  0  0  0  0  0  0  0  0  0
   35.5707    7.8975    9.1838 N   0  0  0  0  0  0  0  0  0  0  0  0
   43.4361    1.5243    7.7619 O   0  0  0  0  0  0  0  0  0  0  0  0
   41.1720    6.7779    5.3986 C   0  0  2  0  0  0  0  0  0  0  0  0
   42.0384    6.0459    4.4833 N   0  0  0  0  0  0  0  0  0  0  0  0
   33.4324    8.4794   10.3191 C   0  0  0  0  0  0  0  0  0  0  0  0
   31.8753    8.4874   10.2597 C   0  0  0  0  0  0  0  0  0  0  0  0
   34.0914    7.8880    9.0457 C   0  0  0  0  0  0  0  0  0  0  0  0
   31.2733    9.0529   11.5044 N   0  0  0  0  0  0  0  0  0  0  0  0
   37.3781    8.1189    3.3490 O   0  0  0  0  0  0  0  0  0  0  0  0
   41.6924    1.3223    6.0495 C   0  0  2  0  0  0  0  0  0  0  0  0
   42.5853    0.7650    5.0884 O   0  0  0  0  0  0  0  0  0  0  0  0
   40.1689    5.8045    5.9847 C   0  0  2  0  0  0  0  0  0  0  0  0
   40.5789    2.0929    5.3175 C   0  0  2  0  0  0  0  0  0  0  0  0
   39.6674    2.6847    6.2497 O   0  0  0  0  0  0  0  0  0  0  0  0
   39.2205    6.5587    7.0025 C   0  0  2  0  0  0  0  0  0  0  0  0
   38.2535    5.6013    7.5376 O   0  0  0  0  0  0  0  0  0  0  0  0
   39.8074    1.2048    4.3782 C   0  0  0  0  0  0  0  0  0  0  0  0
   40.5908    0.8411    3.3062 O   0  0  0  0  0  0  0  0  0  0  0  0
   38.4787    7.7105    6.2433 C   0  0  1  0  0  0  0  0  0  0  0  0
   37.6153    8.4206    7.0827 O   0  0  0  0  0  0  0  0  0  0  0  0
  1  2  1  6  0  0  0
  1  5  1  0  0  0  0
  1 30  1  0  0  0  0
  3  4  1  6  0  0  0
  3  7  1  0  0  0  0
  3 35  1  0  0  0  0
  5  6  1  1  0  0  0
  5 16  1  0  0  0  0
  7 19  1  0  0  0  0
  8  4  1  0  0  0  0
  8 25  2  0  0  0  0
  9  8  1  6  0  0  0
  9 10  1  0  0  0  0
  9 13  1  0  0  0  0
 10 11  1  0  0  0  0
 11 12  1  0  0  0  0
 14 15  1  0  0  0  0
 14 36  1  0  0  0  0
 15 17  1  0  0  0  0
 16 18  1  1  0  0  0
 16 26  1  0  0  0  0
 17 23  1  0  0  0  0
 19 20  1  6  0  0  0
 19 28  1  0  0  0  0
 21 22  1  0  0  0  0
 21 23  1  0  0  0  0
 22 24  1  0  0  0  0
 26 27  1  6  0  0  0
 26 29  1  0  0  0  0
 28  2  1  1  0  0  0
 28 31  1  0  0  0  0
 29 30  1  0  0  0  0
 29 33  1  6  0  0  0
 31 32  1  6  0  0  0
 31 35  1  0  0  0  0
 33 34  1  0  0  0  0
 35 36  1  1  0  0  0
M  END
>  <CHROM.1>
-167.97239702,64.25171219,88.51517112,-76.03516829,-177.87602701,-66.27864242
179.08821037,-85.93645417,-78.65024820,179.56126991,-179.25614880,-178.09204998
-69.54231119,54.01077979,38.83014283,6.43675871,6.16020691,0.56660752,-0.71130183
2.48438845

>  <Name>
2f4u_lig

>  <RI>
0

>  <Rbt.Current_Directory>
/home/itssahil/PROJECTS/Mol_Feturizer/New_Systems/rnas/2f4u

>  <Rbt.Executable>
rbdock ($Id: //depot/dev/client3/rdock/2013.1/src/exe/rbdock.cxx#4 $)

>  <Rbt.Library>
libRbt.so (2013.1, Build901 2013/11/27)

>  <Rbt.Parameter_File>
/export/apps/rDock/src/rDock_2013.1_src/data/scripts/dock_solv.prm

>  <Rbt.Receptor>
prm/pocket_docking_5.prm

>  <SCORE>
-17.4036

>  <SCORE.INTER>
-6.1689

>  <SCORE.INTER.CONST>
1

>  <SCORE.INTER.POLAR>
-1.87422

>  <SCORE.INTER.ROT>
14

>  <SCORE.INTER.SOLV>
12.8682

>  <SCORE.INTER.VDW>
-15.0879

>  <SCORE.INTER.norm>
-0.171358

>  <SCORE.INTRA>
-11.2347

>  <SCORE.INTRA.DIHEDRAL>
-21.6967

>  <SCORE.INTRA.DIHEDRAL.0>
26.3805

>  <SCORE.INTRA.POLAR>
0

>  <SCORE.INTRA.POLAR.0>
0

>  <SCORE.INTRA.REPUL>
0

>  <SCORE.INTRA.REPUL.0>
0

>  <SCORE.INTRA.SOLV>
0.216999

>  <SCORE.INTRA.SOLV.lig_0>
-98.5587

>  <SCORE.INTRA.VDW>
-0.494823

>  <SCORE.INTRA.VDW.0>
-2.91167

>  <SCORE.INTRA.norm>
-0.312075

>  <SCORE.RESTR>
0

>  <SCORE.RESTR.CAVITY>
0

>  <SCORE.RESTR.norm>
0

>  <SCORE.SYSTEM>
0

>  <SCORE.SYSTEM.CONST>
0

>  <SCORE.SYSTEM.DIHEDRAL>
0

>  <SCORE.SYSTEM.SOLV>
0

>  <SCORE.SYSTEM.norm>
0

>  <SCORE.heavy>
36

>  <SCORE.norm>
-0.483433

>  <RMSD>
8.094

$$$$
2f4u_lig
 OpenBabel11021811433D
libRbt.so/2013.1/901 2013/11/27
 36 37  0  0  0  0  0  0  0  0999 V2000
   36.4589    2.4901   10.4296 C   0  0  2  0  0  0  0  0  0  0  0  0
   36.1683    3.4804    9.3747 O   0  0  0  0  0  0  0  0  0  0  0  0
   38.9030    5.4904    6.6587 C   0  0  2  0  0  0  0  0  0  0  0  0
   39.9215    6.4572    6.1659 N   0  0  0  0  0  0  0  0  0  0  0  0
   35.0833    2.0348   11.0079 C   0  0  2  0  0  0  0  0  0  0  0  0
   34.2006    1.4505    9.9814 N   0  0  0  0  0  0  0  0  0  0  0  0
   37.6207    6.2196    7.1946 C   0  0  0  0  0  0  0  0  0  0  0  0
   39.9095    6.5528    4.3831 C   0  0  0  0  0  0  0  0  0  0  0  0
   41.1098    7.4281    4.5641 C   0  0  1  0  0  0  0  0  0  0  0  0
   42.3450    6.5703    4.2675 C   0  0  0  0  0  0  0  0  0  0  0  0
   43.7057    7.2291    4.5604 C   0  0  0  0  0  0  0  0  0  0  0  0
   44.7662    6.2776    4.2232 N   0  0  0  0  0  0  0  0  0  0  0  0
   41.0897    8.4786    3.6365 O   0  0  0  0  0  0  0  0  0  0  0  0
   41.8609    3.2337    7.2310 C   0  0  0  0  0  0  0  0  0  0  0  0
   42.4746    3.3423    5.8431 C   0  0  0  0  0  0  0  0  0  0  0  0
   34.3858    3.2645   11.6788 C   0  0  1  0  0  0  0  0  0  0  0  0
   41.6254    2.8014    4.7627 N   0  0  0  0  0  0  0  0  0  0  0  0
   33.1159    2.9026   12.2151 O   0  0  0  0  0  0  0  0  0  0  0  0
   36.5952    5.2123    7.7535 C   0  0  2  0  0  0  0  0  0  0  0  0
   35.4244    5.8927    8.2925 N   0  0  0  0  0  0  0  0  0  0  0  0
   42.6766    0.8917    3.5594 C   0  0  0  0  0  0  0  0  0  0  0  0
   42.7171   -0.6484    3.3257 C   0  0  0  0  0  0  0  0  0  0  0  0
   41.5620    1.3333    4.5434 C   0  0  0  0  0  0  0  0  0  0  0  0
   43.0967   -1.3900    4.5656 N   0  0  0  0  0  0  0  0  0  0  0  0
   39.3328    6.1152    3.5848 O   0  0  0  0  0  0  0  0  0  0  0  0
   35.3239    3.8117   12.7732 C   0  0  2  0  0  0  0  0  0  0  0  0
   34.7789    4.9466   13.4416 O   0  0  0  0  0  0  0  0  0  0  0  0
   37.2166    4.3857    8.8616 C   0  0  2  0  0  0  0  0  0  0  0  0
   36.6964    4.1835   12.1837 C   0  0  2  0  0  0  0  0  0  0  0  0
   37.2724    3.0731   11.4868 O   0  0  0  0  0  0  0  0  0  0  0  0
   38.4824    3.6128    8.3094 C   0  0  2  0  0  0  0  0  0  0  0  0
   39.0711    2.8396    9.4019 O   0  0  0  0  0  0  0  0  0  0  0  0
   37.6573    4.6429   13.2475 C   0  0  0  0  0  0  0  0  0  0  0  0
   38.8522    5.0290   12.6835 O   0  0  0  0  0  0  0  0  0  0  0  0
   39.5157    4.6577    7.7674 C   0  0  1  0  0  0  0  0  0  0  0  0
   40.6674    4.0443    7.2657 O   0  0  0  0  0  0  0  0  0  0  0  0
  1  2  1  6  0  0  0
  1  5  1  0  0  0  0
  1 30  1  0  0  0  0
  3  4  1  1  0  0  0
  3  7  1  0  0  0  0
  3 35  1  0  0  0  0
  5  6  1  6  0  0  0
  5 16  1  0  0  0  0
  7 19  1  0  0  0  0
  8  4  1  0  0  0  0
  8 25  2  0  0  0  0
  9  8  1  6  0  0  0
  9 10  1  0  0  0  0
  9 13  1  0  0  0  0
 10 11  1  0  0  0  0
 11 12  1  0  0  0  0
 14 15  1  0  0  0  0
 14 36  1  0  0  0  0
 15 17  1  0  0  0  0
 16 18  1  1  0  0  0
 16 26  1  0  0  0  0
 17 23  1  0  0  0  0
 19 20  1  1  0  0  0
 19 28  1  0  0  0  0
 21 22  1  0  0  0  0
 21 23  1  0  0  0  0
 22 24  1  0  0  0  0
 26 27  1  6  0  0  0
 26 29  1  0  0  0  0
 28  2  1  6  0  0  0
 28 31  1  0  0  0  0
 29 30  1  0  0  0  0
 29 33  1  1  0  0  0
 31 32  1  1  0  0  0
 31 35  1  0  0  0  0
 33 34  1  0  0  0  0
 35 36  1  6  0  0  0
M  END
>  <CHROM.1>
163.38165446,-101.78964661,101.26971100,-172.84035952,179.98385811,-63.86967418
-179.01248226,-78.69113133,-88.94352817,-65.76407536,177.44465091,177.30700080
-177.09924139,179.67244849,38.92923630,4.12333605,7.84347191,-2.94951643
0.81431347,-0.16887983

>  <Name>
2f4u_lig

>  <RI>
0

>  <Rbt.Current_Directory>
/home/itssahil/PROJECTS/Mol_Feturizer/New_Systems/rnas/2f4u

>  <Rbt.Executable>
rbdock ($Id: //depot/dev/client3/rdock/2013.1/src/exe/rbdock.cxx#4 $)

>  <Rbt.Library>
libRbt.so (2013.1, Build901 2013/11/27)

>  <Rbt.Parameter_File>
/export/apps/rDock/src/rDock_2013.1_src/data/scripts/dock_solv.prm

>  <Rbt.Receptor>
prm/pocket_docking_6.prm

>  <SCORE>
-8.21501

>  <SCORE.INTER>
3.81621

>  <SCORE.INTER.CONST>
1

>  <SCORE.INTER.POLAR>
0

>  <SCORE.INTER.ROT>
14

>  <SCORE.INTER.SOLV>
6.98837

>  <SCORE.INTER.VDW>
-12.7186

>  <SCORE.INTER.norm>
0.106006

>  <SCORE.INTRA>
-12.0312

>  <SCORE.INTRA.DIHEDRAL>
-20.6542

>  <SCORE.INTRA.DIHEDRAL.0>
26.3805

>  <SCORE.INTRA.POLAR>
0

>  <SCORE.INTRA.POLAR.0>
0

>  <SCORE.INTRA.REPUL>
0

>  <SCORE.INTRA.REPUL.0>
0

>  <SCORE.INTRA.SOLV>
0.787122

>  <SCORE.INTRA.SOLV.lig_0>
-98.5587

>  <SCORE.INTRA.VDW>
-2.09768

>  <SCORE.INTRA.VDW.0>
-2.91167

>  <SCORE.INTRA.norm>
-0.334201

>  <SCORE.RESTR>
0

>  <SCORE.RESTR.CAVITY>
0

>  <SCORE.RESTR.norm>
0

>  <SCORE.SYSTEM>
0

>  <SCORE.SYSTEM.CONST>
0

>  <SCORE.SYSTEM.DIHEDRAL>
0

>  <SCORE.SYSTEM.SOLV>
0

>  <SCORE.SYSTEM.norm>
0

>  <SCORE.heavy>
36

>  <SCORE.norm>
-0.228195

>  <RMSD>
8.105

$$$$
2f4u_lig
 OpenBabel11021811433D
libRbt.so/2013.1/901 2013/11/27
 36 37  0  0  0  0  0  0  0  0999 V2000
   42.0867    4.0502    5.8001 C   0  0  2  0  0  0  0  0  0  0  0  0
   41.5455    5.1266    6.6524 O   0  0  0  0  0  0  0  0  0  0  0  0
   39.1074    8.6738    6.0455 C   0  0  2  0  0  0  0  0  0  0  0  0
   38.0476    9.5614    5.4944 N   0  0  0  0  0  0  0  0  0  0  0  0
   42.5209    2.8968    6.7567 C   0  0  2  0  0  0  0  0  0  0  0  0
   41.4068    2.3916    7.5799 N   0  0  0  0  0  0  0  0  0  0  0  0
   40.0808    8.1653    4.9243 C   0  0  0  0  0  0  0  0  0  0  0  0
   37.3561    8.8843    3.9941 C   0  0  0  0  0  0  0  0  0  0  0  0
   36.6125   10.1810    3.9204 C   0  0  1  0  0  0  0  0  0  0  0  0
   37.6235   11.2610    3.5195 C   0  0  0  0  0  0  0  0  0  0  0  0
   38.1907   11.1526    2.0920 C   0  0  0  0  0  0  0  0  0  0  0  0
   37.1744   11.6254    1.1498 N   0  0  0  0  0  0  0  0  0  0  0  0
   35.6331   10.1236    2.9195 O   0  0  0  0  0  0  0  0  0  0  0  0
   36.5848    7.9729    8.7499 C   0  0  0  0  0  0  0  0  0  0  0  0
   37.1193    7.1387    9.9046 C   0  0  0  0  0  0  0  0  0  0  0  0
   43.6773    3.4120    7.6764 C   0  0  1  0  0  0  0  0  0  0  0  0
   38.4083    7.6130   10.4471 N   0  0  0  0  0  0  0  0  0  0  0  0
   44.1040    2.3956    8.5798 O   0  0  0  0  0  0  0  0  0  0  0  0
   41.1414    7.2029    5.4966 C   0  0  2  0  0  0  0  0  0  0  0  0
   42.0169    6.6955    4.4477 N   0  0  0  0  0  0  0  0  0  0  0  0
   38.3299    6.9886   12.8563 C   0  0  0  0  0  0  0  0  0  0  0  0
   39.0784    6.3489   14.0641 C   0  0  0  0  0  0  0  0  0  0  0  0
   39.0888    6.8324   11.5126 C   0  0  0  0  0  0  0  0  0  0  0  0
   40.3236    7.0989   14.4082 N   0  0  0  0  0  0  0  0  0  0  0  0
   37.4895    7.9871    3.4122 O   0  0  0  0  0  0  0  0  0  0  0  0
   44.8346    3.8857    6.7745 C   0  0  2  0  0  0  0  0  0  0  0  0
   45.9402    4.3852    7.5227 O   0  0  0  0  0  0  0  0  0  0  0  0
   40.4733    6.0214    6.1711 C   0  0  2  0  0  0  0  0  0  0  0  0
   44.3566    4.9714    5.7935 C   0  0  2  0  0  0  0  0  0  0  0  0
   43.2329    4.5151    5.0323 O   0  0  0  0  0  0  0  0  0  0  0  0
   39.5277    6.5309    7.3333 C   0  0  2  0  0  0  0  0  0  0  0  0
   38.8838    5.3736    7.9531 O   0  0  0  0  0  0  0  0  0  0  0  0
   45.4489    5.3911    4.8465 C   0  0  0  0  0  0  0  0  0  0  0  0
   45.8585    4.3236    4.0799 O   0  0  0  0  0  0  0  0  0  0  0  0
   38.4487    7.4886    6.7235 C   0  0  1  0  0  0  0  0  0  0  0  0
   37.5707    7.9760    7.6960 O   0  0  0  0  0  0  0  0  0  0  0  0
  1  2  1  1  0  0  0
  1  5  1  0  0  0  0
  1 30  1  0  0  0  0
  3  4  1  6  0  0  0
  3  7  1  0  0  0  0
  3 35  1  0  0  0  0
  5  6  1  1  0  0  0
  5 16  1  0  0  0  0
  7 19  1  0  0  0  0
  8  4  1  0  0  0  0
  8 25  2  0  0  0  0
  9  8  1  6  0  0  0
  9 10  1  0  0  0  0
  9 13  1  0  0  0  0
 10 11  1  0  0  0  0
 11 12  1  0  0  0  0
 14 15  1  0  0  0  0
 14 36  1  0  0  0  0
 15 17  1  0  0  0  0
 16 18  1  1  0  0  0
 16 26  1  0  0  0  0
 17 23  1  0  0  0  0
 19 20  1  6  0  0  0
 19 28  1  0  0  0  0
 21 22  1  0  0  0  0
 21 23  1  0  0  0  0
 22 24  1  0  0  0  0
 26 27  1  1  0  0  0
 26 29  1  0  0  0  0
 28  2  1  1  0  0  0
 28 31  1  0  0  0  0
 29 30  1  0  0  0  0
 29 33  1  6  0  0  0
 31 32  1  6  0  0  0
 31 35  1  0  0  0  0
 33 34  1  0  0  0  0
 35 36  1  1  0  0  0
M  END
>  <CHROM.1>
-148.85487667,44.61438930,73.20187028,67.62975336,76.40174423,58.08400933
57.45257831,-175.66098589,-72.41182169,69.03359489,-172.67919268,-89.67698700
61.51325316,178.49231764,40.28169715,6.71613539,6.72701262,-0.57970609,0.61972464
-1.28346634

>  <Name>
2f4u_lig

>  <RI>
0

>  <Rbt.Current_Directory>
/home/itssahil/PROJECTS/Mol_Feturizer/New_Systems/rnas/2f4u

>  <Rbt.Executable>
rbdock ($Id: //depot/dev/client3/rdock/2013.1/src/exe/rbdock.cxx#4 $)

>  <Rbt.Library>
libRbt.so (2013.1, Build901 2013/11/27)

>  <Rbt.Parameter_File>
/export/apps/rDock/src/rDock_2013.1_src/data/scripts/dock_solv.prm

>  <Rbt.Receptor>
prm/pocket_docking_8.prm

>  <SCORE>
-20.9054

>  <SCORE.INTER>
-16.8649

>  <SCORE.INTER.CONST>
1

>  <SCORE.INTER.POLAR>
-2.65311

>  <SCORE.INTER.ROT>
14

>  <SCORE.INTER.SOLV>
17.6697

>  <SCORE.INTER.VDW>
-21.2228

>  <SCORE.INTER.norm>
-0.468471

>  <SCORE.INTRA>
-4.04044

>  <SCORE.INTRA.DIHEDRAL>
-15.888

>  <SCORE.INTRA.DIHEDRAL.0>
26.3805

>  <SCORE.INTRA.POLAR>
0

>  <SCORE.INTRA.POLAR.0>
0

>  <SCORE.INTRA.REPUL>
0

>  <SCORE.INTRA.REPUL.0>
0

>  <SCORE.INTRA.SOLV>
6.88662

>  <SCORE.INTRA.SOLV.lig_0>
-98.5587

>  <SCORE.INTRA.VDW>
0.460265

>  <SCORE.INTRA.VDW.0>
-2.91167

>  <SCORE.INTRA.norm>
-0.112234

>  <SCORE.RESTR>
0

>  <SCORE.RESTR.CAVITY>
0

>  <SCORE.RESTR.norm>
0

>  <SCORE.SYSTEM>
0

>  <SCORE.SYSTEM.CONST>
0

>  <SCORE.SYSTEM.DIHEDRAL>
0

>  <SCORE.SYSTEM.SOLV>
0

>  <SCORE.SYSTEM.norm>
0

>  <SCORE.heavy>
36

>  <SCORE.norm>
-0.580705

>  <RMSD>
8.113

$$$$
2f4u_lig
 OpenBabel11021811433D
libRbt.so/2013.1/901 2013/11/27
 36 37  0  0  0  0  0  0  0  0999 V2000
   43.1807    5.4765    6.5170 C   0  0  2  0  0  0  0  0  0  0  0  0
   42.3545    5.1083    5.3509 O   0  0  0  0  0  0  0  0  0  0  0  0
   38.8361    7.6106    5.8557 C   0  0  2  0  0  0  0  0  0  0  0  0
   37.5342    8.2654    5.5540 N   0  0  0  0  0  0  0  0  0  0  0  0
   44.5567    4.7643    6.3341 C   0  0  2  0  0  0  0  0  0  0  0  0
   45.2330    5.1480    5.0813 N   0  0  0  0  0  0  0  0  0  0  0  0
   39.9262    7.9623    4.7827 C   0  0  0  0  0  0  0  0  0  0  0  0
   36.8768    7.7029    3.9924 C   0  0  0  0  0  0  0  0  0  0  0  0
   35.8280    8.7459    4.2204 C   0  0  1  0  0  0  0  0  0  0  0  0
   35.8349    9.6703    2.9978 C   0  0  0  0  0  0  0  0  0  0  0  0
   37.0578   10.5966    2.8638 C   0  0  0  0  0  0  0  0  0  0  0  0
   36.9105   11.3887    1.6412 N   0  0  0  0  0  0  0  0  0  0  0  0
   34.5607    8.1523    4.2968 O   0  0  0  0  0  0  0  0  0  0  0  0
   36.9910    5.7058    8.1269 C   0  0  0  0  0  0  0  0  0  0  0  0
   37.0589    7.0515    8.8334 C   0  0  0  0  0  0  0  0  0  0  0  0
   44.3325    3.2160    6.3707 C   0  0  1  0  0  0  0  0  0  0  0  0
   36.7923    6.9865   10.2845 N   0  0  0  0  0  0  0  0  0  0  0  0
   45.5621    2.5168    6.1963 O   0  0  0  0  0  0  0  0  0  0  0  0
   41.2547    7.2352    5.0738 C   0  0  2  0  0  0  0  0  0  0  0  0
   42.2526    7.5263    4.0521 N   0  0  0  0  0  0  0  0  0  0  0  0
   35.7767    5.9007   12.2820 C   0  0  0  0  0  0  0  0  0  0  0  0
   34.6427    4.9885   12.8389 C   0  0  0  0  0  0  0  0  0  0  0  0
   35.6022    6.2480   10.7804 C   0  0  0  0  0  0  0  0  0  0  0  0
   33.3003    5.6325   12.7183 N   0  0  0  0  0  0  0  0  0  0  0  0
   37.1674    6.9906    3.2376 O   0  0  0  0  0  0  0  0  0  0  0  0
   43.6668    2.8579    7.7145 C   0  0  2  0  0  0  0  0  0  0  0  0
   43.4111    1.4614    7.8417 O   0  0  0  0  0  0  0  0  0  0  0  0
   41.0385    5.7356    5.1135 C   0  0  2  0  0  0  0  0  0  0  0  0
   42.3486    3.6315    7.8971 C   0  0  2  0  0  0  0  0  0  0  0  0
   42.5586    5.0412    7.7592 O   0  0  0  0  0  0  0  0  0  0  0  0
   39.9741    5.3759    6.2280 C   0  0  2  0  0  0  0  0  0  0  0  0
   39.7721    3.9277    6.2314 O   0  0  0  0  0  0  0  0  0  0  0  0
   41.7214    3.3610    9.2385 C   0  0  0  0  0  0  0  0  0  0  0  0
   40.5307    4.0413    9.3598 O   0  0  0  0  0  0  0  0  0  0  0  0
   38.6299    6.1093    5.8984 C   0  0  1  0  0  0  0  0  0  0  0  0
   37.6368    5.8328    6.8426 O   0  0  0  0  0  0  0  0  0  0  0  0
  1  2  1  6  0  0  0
  1  5  1  0  0  0  0
  1 30  1  0  0  0  0
  3  4  1  6  0  0  0
  3  7  1  0  0  0  0
  3 35  1  0  0  0  0
  5  6  1  6  0  0  0
  5 16  1  0  0  0  0
  7 19  1  0  0  0  0
  8  4  1  0  0  0  0
  8 25  2  0  0  0  0
  9  8  1  6  0  0  0
  9 10  1  0  0  0  0
  9 13  1  0  0  0  0
 10 11  1  0  0  0  0
 11 12  1  0  0  0  0
 14 15  1  0  0  0  0
 14 36  1  0  0  0  0
 15 17  1  0  0  0  0
 16 18  1  1  0  0  0
 16 26  1  0  0  0  0
 17 23  1  0  0  0  0
 19 20  1  6  0  0  0
 19 28  1  0  0  0  0
 21 22  1  0  0  0  0
 21 23  1  0  0  0  0
 22 24  1  0  0  0  0
 26 27  1  6  0  0  0
 26 29  1  0  0  0  0
 28  2  1  1  0  0  0
 28 31  1  0  0  0  0
 29 30  1  0  0  0  0
 29 33  1  1  0  0  0
 31 32  1  6  0  0  0
 31 35  1  0  0  0  0
 33 34  1  0  0  0  0
 35 36  1  1  0  0  0
M  END
>  <CHROM.1>
-172.63111464,62.10212958,124.16383216,-71.03913162,179.17662462,-163.46296704
55.56387178,-48.76713774,160.77226773,-60.23872516,-173.60681256,55.61779272
-178.60956053,-69.17631443,39.46842220,6.01509385,6.68943218,-0.24662821
0.42022157,-1.04607354

>  <Name>
2f4u_lig

>  <RI>
0

>  <Rbt.Current_Directory>
/home/itssahil/PROJECTS/Mol_Feturizer/New_Systems/rnas/2f4u

>  <Rbt.Executable>
rbdock ($Id: //depot/dev/client3/rdock/2013.1/src/exe/rbdock.cxx#4 $)

>  <Rbt.Library>
libRbt.so (2013.1, Build901 2013/11/27)

>  <Rbt.Parameter_File>
/export/apps/rDock/src/rDock_2013.1_src/data/scripts/dock_solv.prm

>  <Rbt.Receptor>
prm/pocket_docking_3.prm

>  <SCORE>
-15.1516

>  <SCORE.INTER>
-3.85647

>  <SCORE.INTER.CONST>
1

>  <SCORE.INTER.POLAR>
-0.890325

>  <SCORE.INTER.ROT>
14

>  <SCORE.INTER.SOLV>
12.861

>  <SCORE.INTER.VDW>
-16.8236

>  <SCORE.INTER.norm>
-0.107124

>  <SCORE.INTRA>
-11.2951

>  <SCORE.INTRA.DIHEDRAL>
-21.1325

>  <SCORE.INTRA.DIHEDRAL.0>
26.3805

>  <SCORE.INTRA.POLAR>
0

>  <SCORE.INTRA.POLAR.0>
0

>  <SCORE.INTRA.REPUL>
0

>  <SCORE.INTRA.REPUL.0>
0

>  <SCORE.INTRA.SOLV>
1.76672

>  <SCORE.INTRA.SOLV.lig_0>
-98.5587

>  <SCORE.INTRA.VDW>
-1.61226

>  <SCORE.INTRA.VDW.0>
-2.91167

>  <SCORE.INTRA.norm>
-0.313754

>  <SCORE.RESTR>
0

>  <SCORE.RESTR.CAVITY>
0

>  <SCORE.RESTR.norm>
0

>  <SCORE.SYSTEM>
0

>  <SCORE.SYSTEM.CONST>
0

>  <SCORE.SYSTEM.DIHEDRAL>
0

>  <SCORE.SYSTEM.SOLV>
0

>  <SCORE.SYSTEM.norm>
0

>  <SCORE.heavy>
36

>  <SCORE.norm>
-0.420878

>  <RMSD>
8.121

$$$$
2f4u_lig
 OpenBabel11021811433D
libRbt.so/2013.1/901 2013/11/27
 36 37  0  0  0  0  0  0  0  0999 V2000
   38.8187    1.0242    7.6141 C   0  0  2  0  0  0  0  0  0  0  0  0
   39.2826    2.3094    7.0567 O   0  0  0  0  0  0  0  0  0  0  0  0
   43.4271    3.6058    6.8624 C   0  0  2  0  0  0  0  0  0  0  0  0
   44.7086    4.2486    7.2616 N   0  0  0  0  0  0  0  0  0  0  0  0
   37.3172    0.8788    7.2158 C   0  0  2  0  0  0  0  0  0  0  0  0
   37.1108    0.9122    5.7562 N   0  0  0  0  0  0  0  0  0  0  0  0
   42.2544    4.6460    6.7848 C   0  0  0  0  0  0  0  0  0  0  0  0
   45.6629    4.7265    5.8305 C   0  0  0  0  0  0  0  0  0  0  0  0
   46.7203    5.0775    6.8297 C   0  0  1  0  0  0  0  0  0  0  0  0
   47.6008    3.8362    7.0125 C   0  0  0  0  0  0  0  0  0  0  0  0
   48.6429    3.9134    8.1436 C   0  0  0  0  0  0  0  0  0  0  0  0
   49.3716    2.6443    8.1930 N   0  0  0  0  0  0  0  0  0  0  0  0
   47.5339    6.1062    6.3356 O   0  0  0  0  0  0  0  0  0  0  0  0
   45.1139    0.6377    7.5165 C   0  0  0  0  0  0  0  0  0  0  0  0
   44.3537   -0.6223    7.1305 C   0  0  0  0  0  0  0  0  0  0  0  0
   36.5003    2.0248    7.8998 C   0  0  1  0  0  0  0  0  0  0  0  0
   45.2099   -1.7128    6.6218 N   0  0  0  0  0  0  0  0  0  0  0  0
   35.1191    1.9431    7.5577 O   0  0  0  0  0  0  0  0  0  0  0  0
   40.9203    3.9611    6.4245 C   0  0  2  0  0  0  0  0  0  0  0  0
   39.8233    4.9203    6.3971 N   0  0  0  0  0  0  0  0  0  0  0  0
   46.3780   -2.9816    4.8257 C   0  0  0  0  0  0  0  0  0  0  0  0
   47.5176   -3.4944    5.7567 C   0  0  0  0  0  0  0  0  0  0  0  0
   45.8005   -1.6099    5.2623 C   0  0  0  0  0  0  0  0  0  0  0  0
   47.0044   -3.8763    7.1066 N   0  0  0  0  0  0  0  0  0  0  0  0
   45.5295    4.6966    4.7615 O   0  0  0  0  0  0  0  0  0  0  0  0
   36.7099    1.9215    9.4239 C   0  0  2  0  0  0  0  0  0  0  0  0
   36.0090    2.9345   10.1409 O   0  0  0  0  0  0  0  0  0  0  0  0
   40.5870    2.8866    7.4402 C   0  0  2  0  0  0  0  0  0  0  0  0
   38.2061    1.9951    9.7781 C   0  0  2  0  0  0  0  0  0  0  0  0
   38.9511    1.0027    9.0638 O   0  0  0  0  0  0  0  0  0  0  0  0
   41.7476    1.8116    7.4847 C   0  0  2  0  0  0  0  0  0  0  0  0
   41.4086    0.7991    8.4838 O   0  0  0  0  0  0  0  0  0  0  0  0
   38.4421    1.8136   11.2537 C   0  0  0  0  0  0  0  0  0  0  0  0
   37.9576    2.8941   11.9557 O   0  0  0  0  0  0  0  0  0  0  0  0
   43.0853    2.5281    7.8723 C   0  0  1  0  0  0  0  0  0  0  0  0
   44.1589    1.6350    7.9362 O   0  0  0  0  0  0  0  0  0  0  0  0
  1  2  1  1  0  0  0
  1  5  1  0  0  0  0
  1 30  1  0  0  0  0
  3  4  1  1  0  0  0
  3  7  1  0  0  0  0
  3 35  1  0  0  0  0
  5  6  1  6  0  0  0
  5 16  1  0  0  0  0
  7 19  1  0  0  0  0
  8  4  1  0  0  0  0
  8 25  2  0  0  0  0
  9  8  1  6  0  0  0
  9 10  1  0  0  0  0
  9 13  1  0  0  0  0
 10 11  1  0  0  0  0
 11 12  1  0  0  0  0
 14 15  1  0  0  0  0
 14 36  1  0  0  0  0
 15 17  1  0  0  0  0
 16 18  1  1  0  0  0
 16 26  1  0  0  0  0
 17 23  1  0  0  0  0
 19 20  1  1  0  0  0
 19 28  1  0  0  0  0
 21 22  1  0  0  0  0
 21 23  1  0  0  0  0
 22 24  1  0  0  0  0
 26 27  1  1  0  0  0
 26 29  1  0  0  0  0
 28  2  1  6  0  0  0
 28 31  1  0  0  0  0
 29 30  1  0  0  0  0
 29 33  1  1  0  0  0
 31 32  1  1  0  0  0
 31 35  1  0  0  0  0
 33 34  1  0  0  0  0
 35 36  1  6  0  0  0
M  END
>  <CHROM.1>
169.01124634,-93.22032227,91.36490856,-172.01939860,178.91273208,177.45732586
-60.98036801,-73.42742665,-167.14842260,69.13837835,-61.25302374,164.28834397
-68.58336698,-64.54202850,42.33143614,1.94853353,7.49675022,3.06431021,0.21205896
0.07040518

>  <Name>
2f4u_lig

>  <RI>
0

>  <Rbt.Current_Directory>
/home/itssahil/PROJECTS/Mol_Feturizer/New_Systems/rnas/2f4u

>  <Rbt.Executable>
rbdock ($Id: //depot/dev/client3/rdock/2013.1/src/exe/rbdock.cxx#4 $)

>  <Rbt.Library>
libRbt.so (2013.1, Build901 2013/11/27)

>  <Rbt.Parameter_File>
/export/apps/rDock/src/rDock_2013.1_src/data/scripts/dock_solv.prm

>  <Rbt.Receptor>
prm/pocket_docking_8.prm

>  <SCORE>
-14.7241

>  <SCORE.INTER>
-4.60586

>  <SCORE.INTER.CONST>
1

>  <SCORE.INTER.POLAR>
-1.39283

>  <SCORE.INTER.ROT>
14

>  <SCORE.INTER.SOLV>
6.58802

>  <SCORE.INTER.VDW>
-13.5571

>  <SCORE.INTER.norm>
-0.127941

>  <SCORE.INTRA>
-10.1183

>  <SCORE.INTRA.DIHEDRAL>
-20.9276

>  <SCORE.INTRA.DIHEDRAL.0>
26.3805

>  <SCORE.INTRA.POLAR>
0

>  <SCORE.INTRA.POLAR.0>
0

>  <SCORE.INTRA.REPUL>
0

>  <SCORE.INTRA.REPUL.0>
0

>  <SCORE.INTRA.SOLV>
1.55698

>  <SCORE.INTRA.SOLV.lig_0>
-98.5587

>  <SCORE.INTRA.VDW>
-0.432942

>  <SCORE.INTRA.VDW.0>
-2.91167

>  <SCORE.INTRA.norm>
-0.281063

>  <SCORE.RESTR>
0

>  <SCORE.RESTR.CAVITY>
0

>  <SCORE.RESTR.norm>
0

>  <SCORE.SYSTEM>
0

>  <SCORE.SYSTEM.CONST>
0

>  <SCORE.SYSTEM.DIHEDRAL>
0

>  <SCORE.SYSTEM.SOLV>
0

>  <SCORE.SYSTEM.norm>
0

>  <SCORE.heavy>
36

>  <SCORE.norm>
-0.409004

>  <RMSD>
8.129

$$$$
2f4u_lig
 OpenBabel11021811433D
libRbt.so/2013.1/901 2013/11/27
 36 37  0  0  0  0  0  0  0  0999 V2000
   43.2471    5.5290    6.5578 C   0  0  2  0  0  0  0  0  0  0  0  0
   42.4204    5.1767    5.3873 O   0  0  0  0  0  0  0  0  0  0  0  0
   38.9745    7.7871    5.8422 C   0  0  2  0  0  0  0  0  0  0  0  0
   37.6900    8.4701    5.5289 N   0  0  0  0  0  0  0  0  0  0  0  0
   44.6128    4.7962    6.3788 C   0  0  2  0  0  0  0  0  0  0  0  0
   45.3003    5.1729    5.1299 N   0  0  0  0  0  0  0  0  0  0  0  0
   40.0694    8.0820    4.7571 C   0  0  0  0  0  0  0  0  0  0  0  0
   36.9949    7.8651    3.9998 C   0  0  0  0  0  0  0  0  0  0  0  0
   35.9824    8.9495    4.1966 C   0  0  1  0  0  0  0  0  0  0  0  0
   36.4214   10.1407    3.3376 C   0  0  0  0  0  0  0  0  0  0  0  0
   36.4498    9.8974    1.8173 C   0  0  0  0  0  0  0  0  0  0  0  0
   36.9589   11.1038    1.1620 N   0  0  0  0  0  0  0  0  0  0  0  0
   34.7269    8.5321    3.7340 O   0  0  0  0  0  0  0  0  0  0  0  0
   36.8120    5.3507    7.7277 C   0  0  0  0  0  0  0  0  0  0  0  0
   37.6139    4.4072    8.6118 C   0  0  0  0  0  0  0  0  0  0  0  0
   44.3647    3.2515    6.4102 C   0  0  1  0  0  0  0  0  0  0  0  0
   36.7953    3.6261    9.5609 N   0  0  0  0  0  0  0  0  0  0  0  0
   45.5842    2.5340    6.2391 O   0  0  0  0  0  0  0  0  0  0  0  0
   41.3786    7.3257    5.0615 C   0  0  2  0  0  0  0  0  0  0  0  0
   42.3799    7.5639    4.0295 N   0  0  0  0  0  0  0  0  0  0  0  0
   35.1707    3.3809   11.4319 C   0  0  0  0  0  0  0  0  0  0  0  0
   34.5490    4.0007   12.7194 C   0  0  0  0  0  0  0  0  0  0  0  0
   36.2414    4.2875   10.7706 C   0  0  0  0  0  0  0  0  0  0  0  0
   33.6976    5.1886   12.4104 N   0  0  0  0  0  0  0  0  0  0  0  0
   37.2531    7.1135    3.2719 O   0  0  0  0  0  0  0  0  0  0  0  0
   43.6879    2.9001    7.7502 C   0  0  2  0  0  0  0  0  0  0  0  0
   43.4103    1.5074    7.8726 O   0  0  0  0  0  0  0  0  0  0  0  0
   41.1212    5.8341    5.1389 C   0  0  2  0  0  0  0  0  0  0  0  0
   42.3810    3.6934    7.9294 C   0  0  2  0  0  0  0  0  0  0  0  0
   42.6132    5.1000    7.7962 O   0  0  0  0  0  0  0  0  0  0  0  0
   40.0519    5.5317    6.2657 C   0  0  2  0  0  0  0  0  0  0  0  0
   39.8100    4.0901    6.3056 O   0  0  0  0  0  0  0  0  0  0  0  0
   41.7441    3.4290    9.2675 C   0  0  0  0  0  0  0  0  0  0  0  0
   41.2014    2.1643    9.3014 O   0  0  0  0  0  0  0  0  0  0  0  0
   38.7271    6.2937    5.9227 C   0  0  1  0  0  0  0  0  0  0  0  0
   37.7306    6.0681    6.8768 O   0  0  0  0  0  0  0  0  0  0  0  0
  1  2  1  6  0  0  0
  1  5  1  0  0  0  0
  1 30  1  0  0  0  0
  3  4  1  6  0  0  0
  3  7  1  0  0  0  0
  3 35  1  0  0  0  0
  5  6  1  6  0  0  0
  5 16  1  0  0  0  0
  7 19  1  0  0  0  0
  8  4  1  0  0  0  0
  8 25  2  0  0  0  0
  9  8  1  6  0  0  0
  9 10  1  0  0  0  0
  9 13  1  0  0  0  0
 10 11  1  0  0  0  0
 11 12  1  0  0  0  0
 14 15  1  0  0  0  0
 14 36  1  0  0  0  0
 15 17  1  0  0  0  0
 16 18  1  1  0  0  0
 16 26  1  0  0  0  0
 17 23  1  0  0  0  0
 19 20  1  6  0  0  0
 19 28  1  0  0  0  0
 21 22  1  0  0  0  0
 21 23  1  0  0  0  0
 22 24  1  0  0  0  0
 26 27  1  6  0  0  0
 26 29  1  0  0  0  0
 28  2  1  1  0  0  0
 28 31  1  0  0  0  0
 29 30  1  0  0  0  0
 29 33  1  1  0  0  0
 31 32  1  6  0  0  0
 31 35  1  0  0  0  0
 33 34  1  0  0  0  0
 35 36  1  1  0  0  0
M  END
>  <CHROM.1>
-172.02901677,63.20368076,98.04721462,63.35291586,-176.88086262,178.70767299
58.41558515,-75.26312069,167.13019040,68.90025374,179.47120960,57.00642438
-72.16953233,-177.83890789,39.56595367,5.68387291,6.58017060,-0.60460770
0.31231632,-0.91793436

>  <Name>
2f4u_lig

>  <RI>
0

>  <Rbt.Current_Directory>
/home/itssahil/PROJECTS/Mol_Feturizer/New_Systems/rnas/2f4u

>  <Rbt.Executable>
rbdock ($Id: //depot/dev/client3/rdock/2013.1/src/exe/rbdock.cxx#4 $)

>  <Rbt.Library>
libRbt.so (2013.1, Build901 2013/11/27)

>  <Rbt.Parameter_File>
/export/apps/rDock/src/rDock_2013.1_src/data/scripts/dock_solv.prm

>  <Rbt.Receptor>
prm/pocket_docking_3.prm

>  <SCORE>
-16.5644

>  <SCORE.INTER>
-4.6865

>  <SCORE.INTER.CONST>
1

>  <SCORE.INTER.POLAR>
-0.879115

>  <SCORE.INTER.ROT>
14

>  <SCORE.INTER.SOLV>
14.9291

>  <SCORE.INTER.VDW>
-18.1036

>  <SCORE.INTER.norm>
-0.130181

>  <SCORE.INTRA>
-11.8848

>  <SCORE.INTRA.DIHEDRAL>
-22.6905

>  <SCORE.INTRA.DIHEDRAL.0>
26.3805

>  <SCORE.INTRA.POLAR>
0

>  <SCORE.INTRA.POLAR.0>
0

>  <SCORE.INTRA.REPUL>
0

>  <SCORE.INTRA.REPUL.0>
0

>  <SCORE.INTRA.SOLV>
1.88302

>  <SCORE.INTRA.SOLV.lig_0>
-98.5587

>  <SCORE.INTRA.VDW>
-1.48104

>  <SCORE.INTRA.VDW.0>
-2.91167

>  <SCORE.INTRA.norm>
-0.330132

>  <SCORE.RESTR>
0.00689501

>  <SCORE.RESTR.CAVITY>
0.00689501

>  <SCORE.RESTR.norm>
0.000191528

>  <SCORE.SYSTEM>
0

>  <SCORE.SYSTEM.CONST>
0

>  <SCORE.SYSTEM.DIHEDRAL>
0

>  <SCORE.SYSTEM.SOLV>
0

>  <SCORE.SYSTEM.norm>
0

>  <SCORE.heavy>
36

>  <SCORE.norm>
-0.460121

>  <RMSD>
8.140

$$$$
2f4u_lig
 OpenBabel11021811433D
libRbt.so/2013.1/901 2013/11/27
 36 37  0  0  0  0  0  0  0  0999 V2000
   35.6708    4.2178   11.6539 C   0  0  2  0  0  0  0  0  0  0  0  0
   36.7402    3.7007   12.5296 O   0  0  0  0  0  0  0  0  0  0  0  0
   40.2211    3.7689    9.9269 C   0  0  2  0  0  0  0  0  0  0  0  0
   41.6311    3.6117    9.4776 N   0  0  0  0  0  0  0  0  0  0  0  0
   34.4810    4.6106   12.5836 C   0  0  2  0  0  0  0  0  0  0  0  0
   34.8561    5.6204   13.5905 N   0  0  0  0  0  0  0  0  0  0  0  0
   40.1043    4.7576   11.1402 C   0  0  0  0  0  0  0  0  0  0  0  0
   41.7314    3.4962    7.6989 C   0  0  0  0  0  0  0  0  0  0  0  0
   43.1812    3.2150    7.9412 C   0  0  1  0  0  0  0  0  0  0  0  0
   43.7172    2.4956    6.6984 C   0  0  0  0  0  0  0  0  0  0  0  0
   43.2817    1.0279    6.5326 C   0  0  0  0  0  0  0  0  0  0  0  0
   43.8396    0.2486    7.6396 N   0  0  0  0  0  0  0  0  0  0  0  0
   43.8929    4.4147    8.0774 O   0  0  0  0  0  0  0  0  0  0  0  0
   40.4639    0.7737    8.1971 C   0  0  0  0  0  0  0  0  0  0  0  0
   39.3922   -0.0002    7.4440 C   0  0  0  0  0  0  0  0  0  0  0  0
   33.9454    3.3212   13.2900 C   0  0  1  0  0  0  0  0  0  0  0  0
   38.4562    0.8500    6.6811 N   0  0  0  0  0  0  0  0  0  0  0  0
   32.8608    3.6286   14.1621 O   0  0  0  0  0  0  0  0  0  0  0  0
   38.6474    4.8707   11.6332 C   0  0  2  0  0  0  0  0  0  0  0  0
   38.5464    5.7537   12.7883 N   0  0  0  0  0  0  0  0  0  0  0  0
   36.9202   -0.8788    5.7580 C   0  0  0  0  0  0  0  0  0  0  0  0
   35.4482   -1.3188    5.4978 C   0  0  0  0  0  0  0  0  0  0  0  0
   37.0318    0.4462    6.5566 C   0  0  0  0  0  0  0  0  0  0  0  0
   34.7274   -1.6312    6.7683 N   0  0  0  0  0  0  0  0  0  0  0  0
   41.0371    3.5449    6.8761 O   0  0  0  0  0  0  0  0  0  0  0  0
   33.5238    2.3153   12.2002 C   0  0  2  0  0  0  0  0  0  0  0  0
   33.0269    1.0959   12.7459 O   0  0  0  0  0  0  0  0  0  0  0  0
   38.1164    3.5074   12.0290 C   0  0  2  0  0  0  0  0  0  0  0  0
   34.6994    2.0044   11.2563 C   0  0  2  0  0  0  0  0  0  0  0  0
   35.2404    3.2071   10.6986 O   0  0  0  0  0  0  0  0  0  0  0  0
   38.1898    2.5229   10.7922 C   0  0  2  0  0  0  0  0  0  0  0  0
   37.6893    1.2131   11.2071 O   0  0  0  0  0  0  0  0  0  0  0  0
   34.2898    1.0879   10.1345 C   0  0  0  0  0  0  0  0  0  0  0  0
   35.3545    0.8477    9.2954 O   0  0  0  0  0  0  0  0  0  0  0  0
   39.6803    2.4095   10.3244 C   0  0  1  0  0  0  0  0  0  0  0  0
   39.8231    1.5479    9.2329 O   0  0  0  0  0  0  0  0  0  0  0  0
  1  2  1  1  0  0  0
  1  5  1  0  0  0  0
  1 30  1  0  0  0  0
  3  4  1  1  0  0  0
  3  7  1  0  0  0  0
  3 35  1  0  0  0  0
  5  6  1  1  0  0  0
  5 16  1  0  0  0  0
  7 19  1  0  0  0  0
  8  4  1  0  0  0  0
  8 25  2  0  0  0  0
  9  8  1  6  0  0  0
  9 10  1  0  0  0  0
  9 13  1  0  0  0  0
 10 11  1  0  0  0  0
 11 12  1  0  0  0  0
 14 15  1  0  0  0  0
 14 36  1  0  0  0  0
 15 17  1  0  0  0  0
 16 18  1  1  0  0  0
 16 26  1  0  0  0  0
 17 23  1  0  0  0  0
 19 20  1  1  0  0  0
 19 28  1  0  0  0  0
 21 22  1  0  0  0  0
 21 23  1  0  0  0  0
 22 24  1  0  0  0  0
 26 27  1  1  0  0  0
 26 29  1  0  0  0  0
 28  2  1  6  0  0  0
 28 31  1  0  0  0  0
 29 30  1  0  0  0  0
 29 33  1  6  0  0  0
 31 32  1  1  0  0  0
 31 35  1  0  0  0  0
 33 34  1  0  0  0  0
 35 36  1  6  0  0  0
M  END
>  <CHROM.1>
-166.62364609,-141.87337414,158.67089532,-73.71359373,-64.40723153,66.26034250
177.56422259,-145.38145506,-64.56827444,-64.12903945,-175.98281367,62.96126191
178.93598517,61.86952162,38.04337229,2.37873197,9.75480433,-2.65440870,-0.31976389
-2.29824982

>  <Name>
2f4u_lig

>  <RI>
0

>  <Rbt.Current_Directory>
/home/itssahil/PROJECTS/Mol_Feturizer/New_Systems/rnas/2f4u

>  <Rbt.Executable>
rbdock ($Id: //depot/dev/client3/rdock/2013.1/src/exe/rbdock.cxx#4 $)

>  <Rbt.Library>
libRbt.so (2013.1, Build901 2013/11/27)

>  <Rbt.Parameter_File>
/export/apps/rDock/src/rDock_2013.1_src/data/scripts/dock_solv.prm

>  <Rbt.Receptor>
prm/pocket_docking_8.prm

>  <SCORE>
-18.9504

>  <SCORE.INTER>
-8.67829

>  <SCORE.INTER.CONST>
1

>  <SCORE.INTER.POLAR>
-1.13814

>  <SCORE.INTER.ROT>
14

>  <SCORE.INTER.SOLV>
15.3054

>  <SCORE.INTER.VDW>
-20.0269

>  <SCORE.INTER.norm>
-0.241063

>  <SCORE.INTRA>
-10.2721

>  <SCORE.INTRA.DIHEDRAL>
-21.65

>  <SCORE.INTRA.DIHEDRAL.0>
26.3805

>  <SCORE.INTRA.POLAR>
0

>  <SCORE.INTRA.POLAR.0>
0

>  <SCORE.INTRA.REPUL>
0

>  <SCORE.INTRA.REPUL.0>
0

>  <SCORE.INTRA.SOLV>
6.40945

>  <SCORE.INTRA.SOLV.lig_0>
-98.5587

>  <SCORE.INTRA.VDW>
-2.65182

>  <SCORE.INTRA.VDW.0>
-2.91167

>  <SCORE.INTRA.norm>
-0.285336

>  <SCORE.RESTR>
0

>  <SCORE.RESTR.CAVITY>
0

>  <SCORE.RESTR.norm>
0

>  <SCORE.SYSTEM>
0

>  <SCORE.SYSTEM.CONST>
0

>  <SCORE.SYSTEM.DIHEDRAL>
0

>  <SCORE.SYSTEM.SOLV>
0

>  <SCORE.SYSTEM.norm>
0

>  <SCORE.heavy>
36

>  <SCORE.norm>
-0.526399

>  <RMSD>
8.146

$$$$
2f4u_lig
 OpenBabel11021811433D
libRbt.so/2013.1/901 2013/11/27
 36 37  0  0  0  0  0  0  0  0999 V2000
   38.8178    3.7957   11.5211 C   0  0  2  0  0  0  0  0  0  0  0  0
   38.7845    4.5318   10.2425 O   0  0  0  0  0  0  0  0  0  0  0  0
   41.7606    5.2901    7.1662 C   0  0  2  0  0  0  0  0  0  0  0  0
   43.0001    5.7991    6.5186 N   0  0  0  0  0  0  0  0  0  0  0  0
   37.6267    2.7885   11.4893 C   0  0  2  0  0  0  0  0  0  0  0  0
   37.7045    1.8520   10.3530 N   0  0  0  0  0  0  0  0  0  0  0  0
   40.8848    6.4576    7.7434 C   0  0  0  0  0  0  0  0  0  0  0  0
   42.6169    6.7955    5.0876 C   0  0  0  0  0  0  0  0  0  0  0  0
   44.0985    6.8085    4.8769 C   0  0  1  0  0  0  0  0  0  0  0  0
   44.3916    5.9178    3.6644 C   0  0  0  0  0  0  0  0  0  0  0  0
   44.2549    4.4017    3.8967 C   0  0  0  0  0  0  0  0  0  0  0  0
   45.3483    3.9632    4.7663 N   0  0  0  0  0  0  0  0  0  0  0  0
   44.5341    8.1041    4.5673 O   0  0  0  0  0  0  0  0  0  0  0  0
   44.1188    2.6658    7.2292 C   0  0  0  0  0  0  0  0  0  0  0  0
   45.0944    2.4571    8.3779 C   0  0  0  0  0  0  0  0  0  0  0  0
   36.2862    3.5937   11.4304 C   0  0  1  0  0  0  0  0  0  0  0  0
   46.4836    2.1946    7.9510 N   0  0  0  0  0  0  0  0  0  0  0  0
   35.1638    2.7163   11.3886 O   0  0  0  0  0  0  0  0  0  0  0  0
   39.6311    5.9165    8.4604 C   0  0  2  0  0  0  0  0  0  0  0  0
   38.8417    6.9984    9.0354 N   0  0  0  0  0  0  0  0  0  0  0  0
   48.6707    1.7831    9.0677 C   0  0  0  0  0  0  0  0  0  0  0  0
   49.8599    2.3765    9.8813 C   0  0  0  0  0  0  0  0  0  0  0  0
   47.6089    2.8425    8.6730 C   0  0  0  0  0  0  0  0  0  0  0  0
   50.8839    1.3391   10.2077 N   0  0  0  0  0  0  0  0  0  0  0  0
   41.7213    7.1444    4.6002 O   0  0  0  0  0  0  0  0  0  0  0  0
   36.2289    4.5231   12.6593 C   0  0  2  0  0  0  0  0  0  0  0  0
   35.0416    5.3110   12.6926 O   0  0  0  0  0  0  0  0  0  0  0  0
   40.0278    4.9718    9.5772 C   0  0  2  0  0  0  0  0  0  0  0  0
   37.4542    5.4538   12.7010 C   0  0  2  0  0  0  0  0  0  0  0  0
   38.6712    4.7009   12.6517 O   0  0  0  0  0  0  0  0  0  0  0  0
   40.8710    3.7689    8.9887 C   0  0  2  0  0  0  0  0  0  0  0  0
   41.2548    2.8850   10.0886 O   0  0  0  0  0  0  0  0  0  0  0  0
   37.4627    6.3140   13.9363 C   0  0  0  0  0  0  0  0  0  0  0  0
   38.1896    7.4627   13.7187 O   0  0  0  0  0  0  0  0  0  0  0  0
   42.1471    4.3429    8.2850 C   0  0  1  0  0  0  0  0  0  0  0  0
   42.9463    3.3321    7.7431 O   0  0  0  0  0  0  0  0  0  0  0  0
  1  2  1  6  0  0  0
  1  5  1  0  0  0  0
  1 30  1  0  0  0  0
  3  4  1  1  0  0  0
  3  7  1  0  0  0  0
  3 35  1  0  0  0  0
  5  6  1  6  0  0  0
  5 16  1  0  0  0  0
  7 19  1  0  0  0  0
  8  4  1  0  0  0  0
  8 25  2  0  0  0  0
  9  8  1  6  0  0  0
  9 10  1  0  0  0  0
  9 13  1  0  0  0  0
 10 11  1  0  0  0  0
 11 12  1  0  0  0  0
 14 15  1  0  0  0  0
 14 36  1  0  0  0  0
 15 17  1  0  0  0  0
 16 18  1  1  0  0  0
 16 26  1  0  0  0  0
 17 23  1  0  0  0  0
 19 20  1  1  0  0  0
 19 28  1  0  0  0  0
 21 22  1  0  0  0  0
 21 23  1  0  0  0  0
 22 24  1  0  0  0  0
 26 27  1  6  0  0  0
 26 29  1  0  0  0  0
 28  2  1  6  0  0  0
 28 31  1  0  0  0  0
 29 30  1  0  0  0  0
 29 33  1  1  0  0  0
 31 32  1  1  0  0  0
 31 35  1  0  0  0  0
 33 34  1  0  0  0  0
 35 36  1  6  0  0  0
M  END
>  <CHROM.1>
-145.75462022,-64.43574561,108.18231500,-73.34009981,-70.01209938,-161.30189513
68.46748407,138.10922471,129.73152182,-178.20689724,-177.69746266,-169.02828993
-155.35952903,79.84048017,41.59452657,4.49864825,8.94943257,-2.76866128,0.34332114
-1.03565573

>  <Name>
2f4u_lig

>  <RI>
0

>  <Rbt.Current_Directory>
/home/itssahil/PROJECTS/Mol_Feturizer/New_Systems/rnas/2f4u

>  <Rbt.Executable>
rbdock ($Id: //depot/dev/client3/rdock/2013.1/src/exe/rbdock.cxx#4 $)

>  <Rbt.Library>
libRbt.so (2013.1, Build901 2013/11/27)

>  <Rbt.Parameter_File>
/export/apps/rDock/src/rDock_2013.1_src/data/scripts/dock_solv.prm

>  <Rbt.Receptor>
prm/pocket_docking_5.prm

>  <SCORE>
-14.5418

>  <SCORE.INTER>
-9.12352

>  <SCORE.INTER.CONST>
1

>  <SCORE.INTER.POLAR>
-0.496625

>  <SCORE.INTER.ROT>
14

>  <SCORE.INTER.SOLV>
14.094

>  <SCORE.INTER.VDW>
-22.0583

>  <SCORE.INTER.norm>
-0.253431

>  <SCORE.INTRA>
-5.4999

>  <SCORE.INTRA.DIHEDRAL>
-10.666

>  <SCORE.INTRA.DIHEDRAL.0>
26.3805

>  <SCORE.INTRA.POLAR>
0

>  <SCORE.INTRA.POLAR.0>
0

>  <SCORE.INTRA.REPUL>
0

>  <SCORE.INTRA.REPUL.0>
0

>  <SCORE.INTRA.SOLV>
3.73674

>  <SCORE.INTRA.SOLV.lig_0>
-98.5587

>  <SCORE.INTRA.VDW>
-2.03526

>  <SCORE.INTRA.VDW.0>
-2.91167

>  <SCORE.INTRA.norm>
-0.152775

>  <SCORE.RESTR>
0.0816423

>  <SCORE.RESTR.CAVITY>
0.0816423

>  <SCORE.RESTR.norm>
0.00226784

>  <SCORE.SYSTEM>
0

>  <SCORE.SYSTEM.CONST>
0

>  <SCORE.SYSTEM.DIHEDRAL>
0

>  <SCORE.SYSTEM.SOLV>
0

>  <SCORE.SYSTEM.norm>
0

>  <SCORE.heavy>
36

>  <SCORE.norm>
-0.403938

>  <RMSD>
8.151

$$$$
2f4u_lig
 OpenBabel11021811433D
libRbt.so/2013.1/901 2013/11/27
 36 37  0  0  0  0  0  0  0  0999 V2000
   35.8555   13.4181    0.2938 C   0  0  2  0  0  0  0  0  0  0  0  0
   36.9412   12.4479    0.5345 O   0  0  0  0  0  0  0  0  0  0  0  0
   38.6125   10.0573    3.7574 C   0  0  2  0  0  0  0  0  0  0  0  0
   38.7873    9.4703    5.1137 N   0  0  0  0  0  0  0  0  0  0  0  0
   35.7100   13.5530   -1.2537 C   0  0  2  0  0  0  0  0  0  0  0  0
   35.4079   12.2677   -1.9102 N   0  0  0  0  0  0  0  0  0  0  0  0
   38.7070   11.6237    3.7854 C   0  0  0  0  0  0  0  0  0  0  0  0
   37.2326    9.3940    5.9880 C   0  0  0  0  0  0  0  0  0  0  0  0
   38.0683    8.9447    7.1453 C   0  0  1  0  0  0  0  0  0  0  0  0
   37.2181    9.1113    8.4098 C   0  0  0  0  0  0  0  0  0  0  0  0
   36.0277    8.1446    8.5502 C   0  0  0  0  0  0  0  0  0  0  0  0
   35.3717    8.3970    9.8347 N   0  0  0  0  0  0  0  0  0  0  0  0
   38.3810    7.5843    7.0200 O   0  0  0  0  0  0  0  0  0  0  0  0
   37.1160    6.8980    3.7462 C   0  0  0  0  0  0  0  0  0  0  0  0
   37.4437    5.9281    2.6208 C   0  0  0  0  0  0  0  0  0  0  0  0
   37.0327   14.1547   -1.8344 C   0  0  1  0  0  0  0  0  0  0  0  0
   36.6166    6.1052    1.4102 N   0  0  0  0  0  0  0  0  0  0  0  0
   36.9550   14.2884   -3.2513 O   0  0  0  0  0  0  0  0  0  0  0  0
   38.4695   12.2249    2.3851 C   0  0  2  0  0  0  0  0  0  0  0  0
   38.5123   13.6813    2.4199 N   0  0  0  0  0  0  0  0  0  0  0  0
   34.9639    4.2434    1.4582 C   0  0  0  0  0  0  0  0  0  0  0  0
   34.2978    3.0654    0.6856 C   0  0  0  0  0  0  0  0  0  0  0  0
   36.1246    4.9111    0.6755 C   0  0  0  0  0  0  0  0  0  0  0  0
   33.1176    2.5158    1.4180 N   0  0  0  0  0  0  0  0  0  0  0  0
   36.2048    9.6332    5.7691 O   0  0  0  0  0  0  0  0  0  0  0  0
   37.2821   15.5152   -1.1533 C   0  0  2  0  0  0  0  0  0  0  0  0
   38.4767   16.1437   -1.6111 O   0  0  0  0  0  0  0  0  0  0  0  0
   37.1156   11.8016    1.8512 C   0  0  2  0  0  0  0  0  0  0  0  0
   37.3478   15.3589    0.3767 C   0  0  2  0  0  0  0  0  0  0  0  0
   36.1712   14.7142    0.8767 O   0  0  0  0  0  0  0  0  0  0  0  0
   37.0370   10.2227    1.7781 C   0  0  2  0  0  0  0  0  0  0  0  0
   35.7164    9.8432    1.2780 O   0  0  0  0  0  0  0  0  0  0  0  0
   37.5083   16.6859    1.0690 C   0  0  0  0  0  0  0  0  0  0  0  0
   37.3508   16.5420    2.4290 O   0  0  0  0  0  0  0  0  0  0  0  0
   37.2606    9.6387    3.2141 C   0  0  1  0  0  0  0  0  0  0  0  0
   37.1994    8.2422    3.2274 O   0  0  0  0  0  0  0  0  0  0  0  0
  1  2  1  6  0  0  0
  1  5  1  0  0  0  0
  1 30  1  0  0  0  0
  3  4  1  1  0  0  0
  3  7  1  0  0  0  0
  3 35  1  0  0  0  0
  5  6  1  6  0  0  0
  5 16  1  0  0  0  0
  7 19  1  0  0  0  0
  8  4  1  0  0  0  0
  8 25  2  0  0  0  0
  9  8  1  6  0  0  0
  9 10  1  0  0  0  0
  9 13  1  0  0  0  0
 10 11  1  0  0  0  0
 11 12  1  0  0  0  0
 14 15  1  0  0  0  0
 14 36  1  0  0  0  0
 15 17  1  0  0  0  0
 16 18  1  6  0  0  0
 16 26  1  0  0  0  0
 17 23  1  0  0  0  0
 19 20  1  1  0  0  0
 19 28  1  0  0  0  0
 21 22  1  0  0  0  0
 21 23  1  0  0  0  0
 22 24  1  0  0  0  0
 26 27  1  6  0  0  0
 26 29  1  0  0  0  0
 28  2  1  6  0  0  0
 28 31  1  0  0  0  0
 29 30  1  0  0  0  0
 29 33  1  1  0  0  0
 31 32  1  1  0  0  0
 31 35  1  0  0  0  0
 33 34  1  0  0  0  0
 35 36  1  6  0  0  0
M  END
>  <CHROM.1>
-163.29175867,86.87007330,163.18724737,69.46741027,177.21405614,-54.47616026
-167.41799904,-139.65196729,74.62525178,-175.48832285,174.29142952,-117.49570758
170.43621314,70.42354816,36.87525570,10.49046235,2.43149901,1.22791832,-1.27927523
-0.86481342

>  <Name>
2f4u_lig

>  <RI>
0

>  <Rbt.Current_Directory>
/home/itssahil/PROJECTS/Mol_Feturizer/New_Systems/rnas/2f4u

>  <Rbt.Executable>
rbdock ($Id: //depot/dev/client3/rdock/2013.1/src/exe/rbdock.cxx#4 $)

>  <Rbt.Library>
libRbt.so (2013.1, Build901 2013/11/27)

>  <Rbt.Parameter_File>
/export/apps/rDock/src/rDock_2013.1_src/data/scripts/dock_solv.prm

>  <Rbt.Receptor>
prm/pocket_docking_7.prm

>  <SCORE>
-17.9167

>  <SCORE.INTER>
-13.0433

>  <SCORE.INTER.CONST>
1

>  <SCORE.INTER.POLAR>
-1.30298

>  <SCORE.INTER.ROT>
14

>  <SCORE.INTER.SOLV>
18.8949

>  <SCORE.INTER.VDW>
-23.5839

>  <SCORE.INTER.norm>
-0.362314

>  <SCORE.INTRA>
-4.87342

>  <SCORE.INTRA.DIHEDRAL>
-13.0663

>  <SCORE.INTRA.DIHEDRAL.0>
26.3805

>  <SCORE.INTRA.POLAR>
0

>  <SCORE.INTRA.POLAR.0>
0

>  <SCORE.INTRA.REPUL>
0

>  <SCORE.INTRA.REPUL.0>
0

>  <SCORE.INTRA.SOLV>
4.50985

>  <SCORE.INTRA.SOLV.lig_0>
-98.5587

>  <SCORE.INTRA.VDW>
-0.595189

>  <SCORE.INTRA.VDW.0>
-2.91167

>  <SCORE.INTRA.norm>
-0.135373

>  <SCORE.RESTR>
0

>  <SCORE.RESTR.CAVITY>
0

>  <SCORE.RESTR.norm>
0

>  <SCORE.SYSTEM>
0

>  <SCORE.SYSTEM.CONST>
0

>  <SCORE.SYSTEM.DIHEDRAL>
0

>  <SCORE.SYSTEM.SOLV>
0

>  <SCORE.SYSTEM.norm>
0

>  <SCORE.heavy>
36

>  <SCORE.norm>
-0.497686

>  <RMSD>
8.166

$$$$
2f4u_lig
 OpenBabel11021811433D
libRbt.so/2013.1/901 2013/11/27
 36 37  0  0  0  0  0  0  0  0999 V2000
   42.0481    3.5468    6.7093 C   0  0  2  0  0  0  0  0  0  0  0  0
   42.1005    4.9976    6.4442 O   0  0  0  0  0  0  0  0  0  0  0  0
   38.9126    7.9512    6.3503 C   0  0  2  0  0  0  0  0  0  0  0  0
   37.7324    8.7160    5.8634 N   0  0  0  0  0  0  0  0  0  0  0  0
   43.2229    3.2268    7.6847 C   0  0  2  0  0  0  0  0  0  0  0  0
   43.1364    3.9848    8.9465 N   0  0  0  0  0  0  0  0  0  0  0  0
   40.1132    8.0312    5.3427 C   0  0  0  0  0  0  0  0  0  0  0  0
   37.2916    8.2319    4.2024 C   0  0  0  0  0  0  0  0  0  0  0  0
   36.3064    9.3552    4.2890 C   0  0  1  0  0  0  0  0  0  0  0  0
   37.0584   10.6452    3.9431 C   0  0  0  0  0  0  0  0  0  0  0  0
   37.6099   10.7363    2.5082 C   0  0  0  0  0  0  0  0  0  0  0  0
   36.4827   10.7176    1.5739 N   0  0  0  0  0  0  0  0  0  0  0  0
   35.2920    9.1865    3.3367 O   0  0  0  0  0  0  0  0  0  0  0  0
   36.6888    6.5029    8.6690 C   0  0  0  0  0  0  0  0  0  0  0  0
   37.4965    7.2991    9.6831 C   0  0  0  0  0  0  0  0  0  0  0  0
   44.5765    3.5374    6.9636 C   0  0  1  0  0  0  0  0  0  0  0  0
   36.8719    7.3866   11.0185 N   0  0  0  0  0  0  0  0  0  0  0  0
   45.6848    3.2711    7.8193 O   0  0  0  0  0  0  0  0  0  0  0  0
   41.3110    7.1906    5.8298 C   0  0  2  0  0  0  0  0  0  0  0  0
   42.4089    7.2286    4.8720 N   0  0  0  0  0  0  0  0  0  0  0  0
   35.2685    5.7343   11.9665 C   0  0  0  0  0  0  0  0  0  0  0  0
   35.0616    4.4512   12.8263 C   0  0  0  0  0  0  0  0  0  0  0  0
   36.7544    6.1651   11.8561 C   0  0  0  0  0  0  0  0  0  0  0  0
   33.6138    4.1508   13.0389 N   0  0  0  0  0  0  0  0  0  0  0  0
   37.6419    7.5086    3.4845 O   0  0  0  0  0  0  0  0  0  0  0  0
   44.6419    2.6899    5.6773 C   0  0  2  0  0  0  0  0  0  0  0  0
   45.8416    2.9095    4.9396 O   0  0  0  0  0  0  0  0  0  0  0  0
   40.8982    5.7451    6.0228 C   0  0  2  0  0  0  0  0  0  0  0  0
   43.4315    2.9754    4.7701 C   0  0  2  0  0  0  0  0  0  0  0  0
   42.2029    2.7829    5.4797 O   0  0  0  0  0  0  0  0  0  0  0  0
   39.7189    5.6594    7.0746 C   0  0  2  0  0  0  0  0  0  0  0  0
   39.3295    4.2583    7.2271 O   0  0  0  0  0  0  0  0  0  0  0  0
   43.4300    2.0994    3.5459 C   0  0  0  0  0  0  0  0  0  0  0  0
   43.2837    0.7770    3.8997 O   0  0  0  0  0  0  0  0  0  0  0  0
   38.5093    6.5032    6.5474 C   0  0  1  0  0  0  0  0  0  0  0  0
   37.4235    6.4695    7.4272 O   0  0  0  0  0  0  0  0  0  0  0  0
  1  2  1  6  0  0  0
  1  5  1  0  0  0  0
  1 30  1  0  0  0  0
  3  4  1  6  0  0  0
  3  7  1  0  0  0  0
  3 35  1  0  0  0  0
  5  6  1  1  0  0  0
  5 16  1  0  0  0  0
  7 19  1  0  0  0  0
  8  4  1  0  0  0  0
  8 25  2  0  0  0  0
  9  8  1  6  0  0  0
  9 10  1  0  0  0  0
  9 13  1  0  0  0  0
 10 11  1  0  0  0  0
 11 12  1  0  0  0  0
 14 15  1  0  0  0  0
 14 36  1  0  0  0  0
 15 17  1  0  0  0  0
 16 18  1  1  0  0  0
 16 26  1  0  0  0  0
 17 23  1  0  0  0  0
 19 20  1  6  0  0  0
 19 28  1  0  0  0  0
 21 22  1  0  0  0  0
 21 23  1  0  0  0  0
 22 24  1  0  0  0  0
 26 27  1  6  0  0  0
 26 29  1  0  0  0  0
 28  2  1  1  0  0  0
 28 31  1  0  0  0  0
 29 30  1  0  0  0  0
 29 33  1  6  0  0  0
 31 32  1  6  0  0  0
 31 35  1  0  0  0  0
 33 34  1  0  0  0  0
 35 36  1  1  0  0  0
M  END
>  <CHROM.1>
-155.70342501,52.42917381,83.27590581,64.20886189,63.32760713,-178.61717556
25.44825150,67.86578085,-110.28085963,173.64719270,179.69679536,-179.52904523
64.34826439,-78.49585705,39.72639620,5.86718985,6.58876810,0.11304705,-0.57054702
2.10242510

>  <Name>
2f4u_lig

>  <RI>
0

>  <Rbt.Current_Directory>
/home/itssahil/PROJECTS/Mol_Feturizer/New_Systems/rnas/2f4u

>  <Rbt.Executable>
rbdock ($Id: //depot/dev/client3/rdock/2013.1/src/exe/rbdock.cxx#4 $)

>  <Rbt.Library>
libRbt.so (2013.1, Build901 2013/11/27)

>  <Rbt.Parameter_File>
/export/apps/rDock/src/rDock_2013.1_src/data/scripts/dock_solv.prm

>  <Rbt.Receptor>
prm/pocket_docking_3.prm

>  <SCORE>
-2.07152

>  <SCORE.INTER>
4.18171

>  <SCORE.INTER.CONST>
1

>  <SCORE.INTER.POLAR>
-0.0809512

>  <SCORE.INTER.ROT>
14

>  <SCORE.INTER.SOLV>
17.8328

>  <SCORE.INTER.VDW>
-15.82

>  <SCORE.INTER.norm>
0.116159

>  <SCORE.INTRA>
-6.26326

>  <SCORE.INTRA.DIHEDRAL>
-14.8017

>  <SCORE.INTRA.DIHEDRAL.0>
26.3805

>  <SCORE.INTRA.POLAR>
0

>  <SCORE.INTRA.POLAR.0>
0

>  <SCORE.INTRA.REPUL>
0

>  <SCORE.INTRA.REPUL.0>
0

>  <SCORE.INTRA.SOLV>
2.4491

>  <SCORE.INTRA.SOLV.lig_0>
-98.5587

>  <SCORE.INTRA.VDW>
-0.0869355

>  <SCORE.INTRA.VDW.0>
-2.91167

>  <SCORE.INTRA.norm>
-0.173979

>  <SCORE.RESTR>
0.0100297

>  <SCORE.RESTR.CAVITY>
0.0100297

>  <SCORE.RESTR.norm>
0.000278603

>  <SCORE.SYSTEM>
0

>  <SCORE.SYSTEM.CONST>
0

>  <SCORE.SYSTEM.DIHEDRAL>
0

>  <SCORE.SYSTEM.SOLV>
0

>  <SCORE.SYSTEM.norm>
0

>  <SCORE.heavy>
36

>  <SCORE.norm>
-0.0575422

>  <RMSD>
8.172

$$$$
2f4u_lig
 OpenBabel11021811433D
libRbt.so/2013.1/901 2013/11/27
 36 37  0  0  0  0  0  0  0  0999 V2000
   43.3461    4.0396    5.1237 C   0  0  2  0  0  0  0  0  0  0  0  0
   42.0190    3.7877    4.5292 O   0  0  0  0  0  0  0  0  0  0  0  0
   39.9655    7.5681    5.1516 C   0  0  2  0  0  0  0  0  0  0  0  0
   38.9250    8.6262    5.0395 N   0  0  0  0  0  0  0  0  0  0  0  0
   44.2207    2.7850    4.8154 C   0  0  2  0  0  0  0  0  0  0  0  0
   44.3451    2.5203    3.3702 N   0  0  0  0  0  0  0  0  0  0  0  0
   40.5811    7.2077    3.7536 C   0  0  0  0  0  0  0  0  0  0  0  0
   37.5522    8.0762    4.0394 C   0  0  0  0  0  0  0  0  0  0  0  0
   37.0641    9.4831    4.1890 C   0  0  1  0  0  0  0  0  0  0  0  0
   35.9052    9.6679    3.2030 C   0  0  0  0  0  0  0  0  0  0  0  0
   36.2937    9.7260    1.7140 C   0  0  0  0  0  0  0  0  0  0  0  0
   37.1345   10.9050    1.4976 N   0  0  0  0  0  0  0  0  0  0  0  0
   36.5597    9.6879    5.4804 O   0  0  0  0  0  0  0  0  0  0  0  0
   37.9707    7.4047    7.9543 C   0  0  0  0  0  0  0  0  0  0  0  0
   38.0063    6.6446    9.2717 C   0  0  0  0  0  0  0  0  0  0  0  0
   43.5960    1.5447    5.5366 C   0  0  1  0  0  0  0  0  0  0  0  0
   37.5577    5.2410    9.1721 N   0  0  0  0  0  0  0  0  0  0  0  0
   44.3544    0.3663    5.2768 O   0  0  0  0  0  0  0  0  0  0  0  0
   41.6179    6.0722    3.8734 C   0  0  2  0  0  0  0  0  0  0  0  0
   42.1560    5.7069    2.5690 N   0  0  0  0  0  0  0  0  0  0  0  0
   36.2846    4.4330    7.1906 C   0  0  0  0  0  0  0  0  0  0  0  0
   34.8940    4.1008    6.5708 C   0  0  0  0  0  0  0  0  0  0  0  0
   36.1982    4.9393    8.6541 C   0  0  0  0  0  0  0  0  0  0  0  0
   35.0079    3.6735    5.1440 N   0  0  0  0  0  0  0  0  0  0  0  0
   37.2761    7.1677    3.5297 O   0  0  0  0  0  0  0  0  0  0  0  0
   43.5288    1.8495    7.0465 C   0  0  2  0  0  0  0  0  0  0  0  0
   42.9622    0.7768    7.7949 O   0  0  0  0  0  0  0  0  0  0  0  0
   40.9837    4.8405    4.4880 C   0  0  2  0  0  0  0  0  0  0  0  0
   42.7208    3.1326    7.3116 C   0  0  2  0  0  0  0  0  0  0  0  0
   43.2478    4.2336    6.5632 O   0  0  0  0  0  0  0  0  0  0  0  0
   40.4046    5.1918    5.9182 C   0  0  2  0  0  0  0  0  0  0  0  0
   39.7840    3.9922    6.4786 O   0  0  0  0  0  0  0  0  0  0  0  0
   42.7106    3.4964    8.7723 C   0  0  0  0  0  0  0  0  0  0  0  0
   42.0191    4.6699    8.9719 O   0  0  0  0  0  0  0  0  0  0  0  0
   39.3407    6.3313    5.7666 C   0  0  1  0  0  0  0  0  0  0  0  0
   38.7800    6.6918    6.9953 O   0  0  0  0  0  0  0  0  0  0  0  0
  1  2  1  1  0  0  0
  1  5  1  0  0  0  0
  1 30  1  0  0  0  0
  3  4  1  6  0  0  0
  3  7  1  0  0  0  0
  3 35  1  0  0  0  0
  5  6  1  6  0  0  0
  5 16  1  0  0  0  0
  7 19  1  0  0  0  0
  8  4  1  0  0  0  0
  8 25  2  0  0  0  0
  9  8  1  1  0  0  0
  9 10  1  0  0  0  0
  9 13  1  0  0  0  0
 10 11  1  0  0  0  0
 11 12  1  0  0  0  0
 14 15  1  0  0  0  0
 14 36  1  0  0  0  0
 15 17  1  0  0  0  0
 16 18  1  1  0  0  0
 16 26  1  0  0  0  0
 17 23  1  0  0  0  0
 19 20  1  6  0  0  0
 19 28  1  0  0  0  0
 21 22  1  0  0  0  0
 21 23  1  0  0  0  0
 22 24  1  0  0  0  0
 26 27  1  1  0  0  0
 26 29  1  0  0  0  0
 28  2  1  1  0  0  0
 28 31  1  0  0  0  0
 29 30  1  0  0  0  0
 29 33  1  1  0  0  0
 31 32  1  6  0  0  0
 31 35  1  0  0  0  0
 33 34  1  0  0  0  0
 35 36  1  1  0  0  0
M  END
>  <CHROM.1>
-172.48580566,62.36890675,168.71973418,-71.53638711,-63.50953037,-56.88436450
169.51626297,-57.66166467,103.22981592,177.51749005,-179.70024907,51.64382027
178.01048605,54.43441347,39.87478202,5.43430965,5.66320987,-0.58819700,0.50630906
-0.91060087

>  <Name>
2f4u_lig

>  <RI>
0

>  <Rbt.Current_Directory>
/home/itssahil/PROJECTS/Mol_Feturizer/New_Systems/rnas/2f4u

>  <Rbt.Executable>
rbdock ($Id: //depot/dev/client3/rdock/2013.1/src/exe/rbdock.cxx#4 $)

>  <Rbt.Library>
libRbt.so (2013.1, Build901 2013/11/27)

>  <Rbt.Parameter_File>
/export/apps/rDock/src/rDock_2013.1_src/data/scripts/dock_solv.prm

>  <Rbt.Receptor>
prm/pocket_docking_5.prm

>  <SCORE>
-12.6566

>  <SCORE.INTER>
-1.14526

>  <SCORE.INTER.CONST>
1

>  <SCORE.INTER.POLAR>
-0.894427

>  <SCORE.INTER.ROT>
14

>  <SCORE.INTER.SOLV>
11.204

>  <SCORE.INTER.VDW>
-14.4501

>  <SCORE.INTER.norm>
-0.0318126

>  <SCORE.INTRA>
-11.5113

>  <SCORE.INTRA.DIHEDRAL>
-22.6042

>  <SCORE.INTRA.DIHEDRAL.0>
26.3805

>  <SCORE.INTRA.POLAR>
0

>  <SCORE.INTRA.POLAR.0>
0

>  <SCORE.INTRA.REPUL>
0.0608371

>  <SCORE.INTRA.REPUL.0>
0

>  <SCORE.INTRA.SOLV>
3.53324

>  <SCORE.INTRA.SOLV.lig_0>
-98.5587

>  <SCORE.INTRA.VDW>
-2.28006

>  <SCORE.INTRA.VDW.0>
-2.91167

>  <SCORE.INTRA.norm>
-0.319759

>  <SCORE.RESTR>
0

>  <SCORE.RESTR.CAVITY>
0

>  <SCORE.RESTR.norm>
0

>  <SCORE.SYSTEM>
0

>  <SCORE.SYSTEM.CONST>
0

>  <SCORE.SYSTEM.DIHEDRAL>
0

>  <SCORE.SYSTEM.SOLV>
0

>  <SCORE.SYSTEM.norm>
0

>  <SCORE.heavy>
36

>  <SCORE.norm>
-0.351572

>  <RMSD>
8.196

$$$$
2f4u_lig
 OpenBabel11021811433D
libRbt.so/2013.1/901 2013/11/27
 36 37  0  0  0  0  0  0  0  0999 V2000
   37.0426    5.0134   12.0656 C   0  0  2  0  0  0  0  0  0  0  0  0
   36.6914    5.4579   10.7029 O   0  0  0  0  0  0  0  0  0  0  0  0
   39.2986    6.4458    7.3679 C   0  0  2  0  0  0  0  0  0  0  0  0
   40.2373    7.2214    6.5124 N   0  0  0  0  0  0  0  0  0  0  0  0
   35.9036    4.0544   12.5316 C   0  0  2  0  0  0  0  0  0  0  0  0
   35.7368    2.8937   11.6376 N   0  0  0  0  0  0  0  0  0  0  0  0
   37.9432    7.2075    7.5825 C   0  0  0  0  0  0  0  0  0  0  0  0
   39.6408    7.3273    4.8331 C   0  0  0  0  0  0  0  0  0  0  0  0
   40.9600    7.9773    4.5562 C   0  0  1  0  0  0  0  0  0  0  0  0
   41.9801    6.8552    4.3331 C   0  0  0  0  0  0  0  0  0  0  0  0
   41.6539    5.8678    3.1973 C   0  0  0  0  0  0  0  0  0  0  0  0
   42.6740    4.8175    3.1859 N   0  0  0  0  0  0  0  0  0  0  0  0
   40.8927    8.7307    3.3763 O   0  0  0  0  0  0  0  0  0  0  0  0
   42.4288    4.8862    8.7602 C   0  0  0  0  0  0  0  0  0  0  0  0
   43.1202    4.5914    7.4373 C   0  0  0  0  0  0  0  0  0  0  0  0
   34.5665    4.8628   12.6169 C   0  0  1  0  0  0  0  0  0  0  0  0
   44.5254    4.1579    7.5731 N   0  0  0  0  0  0  0  0  0  0  0  0
   33.4885    4.0265   13.0293 O   0  0  0  0  0  0  0  0  0  0  0  0
   36.9995    6.4210    8.5149 C   0  0  2  0  0  0  0  0  0  0  0  0
   35.7594    7.1497    8.7502 N   0  0  0  0  0  0  0  0  0  0  0  0
   46.4529    2.6543    7.1001 C   0  0  0  0  0  0  0  0  0  0  0  0
   47.5379    3.7550    7.2984 C   0  0  0  0  0  0  0  0  0  0  0  0
   45.1014    3.2121    6.5826 C   0  0  0  0  0  0  0  0  0  0  0  0
   47.9173    4.4022    6.0067 N   0  0  0  0  0  0  0  0  0  0  0  0
   38.7640    7.0021    4.2973 O   0  0  0  0  0  0  0  0  0  0  0  0
   34.7751    6.0359   13.5954 C   0  0  2  0  0  0  0  0  0  0  0  0
   33.6089    6.8433   13.7359 O   0  0  0  0  0  0  0  0  0  0  0  0
   37.6660    6.1721    9.8532 C   0  0  2  0  0  0  0  0  0  0  0  0
   35.9517    6.9215   13.1472 C   0  0  2  0  0  0  0  0  0  0  0  0
   37.1421    6.1442   12.9771 O   0  0  0  0  0  0  0  0  0  0  0  0
   39.0092    5.3625    9.6417 C   0  0  2  0  0  0  0  0  0  0  0  0
   39.6387    5.1531   10.9448 O   0  0  0  0  0  0  0  0  0  0  0  0
   36.2276    8.0268   14.1312 C   0  0  0  0  0  0  0  0  0  0  0  0
   35.1835    8.9237   14.1538 O   0  0  0  0  0  0  0  0  0  0  0  0
   39.9569    6.1909    8.7095 C   0  0  1  0  0  0  0  0  0  0  0  0
   41.1710    5.5364    8.4815 O   0  0  0  0  0  0  0  0  0  0  0  0
  1  2  1  6  0  0  0
  1  5  1  0  0  0  0
  1 30  1  0  0  0  0
  3  4  1  6  0  0  0
  3  7  1  0  0  0  0
  3 35  1  0  0  0  0
  5  6  1  6  0  0  0
  5 16  1  0  0  0  0
  7 19  1  0  0  0  0
  8  4  1  0  0  0  0
  8 25  2  0  0  0  0
  9  8  1  6  0  0  0
  9 10  1  0  0  0  0
  9 13  1  0  0  0  0
 10 11  1  0  0  0  0
 11 12  1  0  0  0  0
 14 15  1  0  0  0  0
 14 36  1  0  0  0  0
 15 17  1  0  0  0  0
 16 18  1  1  0  0  0
 16 26  1  0  0  0  0
 17 23  1  0  0  0  0
 19 20  1  1  0  0  0
 19 28  1  0  0  0  0
 21 22  1  0  0  0  0
 21 23  1  0  0  0  0
 22 24  1  0  0  0  0
 26 27  1  6  0  0  0
 26 29  1  0  0  0  0
 28  2  1  1  0  0  0
 28 31  1  0  0  0  0
 29 30  1  0  0  0  0
 29 33  1  1  0  0  0
 31 32  1  1  0  0  0
 31 35  1  0  0  0  0
 33 34  1  0  0  0  0
 35 36  1  6  0  0  0
M  END
>  <CHROM.1>
-168.33791963,-68.15017876,83.91271234,57.84475238,-176.06805467,169.11963566
-175.00031915,148.57921294,-167.00222865,-64.24417240,-62.31931907,177.58016846
-66.98316169,-179.27378749,39.35022827,5.79885976,8.89983947,-2.55180493
0.40364105,-1.16118407

>  <Name>
2f4u_lig

>  <RI>
0

>  <Rbt.Current_Directory>
/home/itssahil/PROJECTS/Mol_Feturizer/New_Systems/rnas/2f4u

>  <Rbt.Executable>
rbdock ($Id: //depot/dev/client3/rdock/2013.1/src/exe/rbdock.cxx#4 $)

>  <Rbt.Library>
libRbt.so (2013.1, Build901 2013/11/27)

>  <Rbt.Parameter_File>
/export/apps/rDock/src/rDock_2013.1_src/data/scripts/dock_solv.prm

>  <Rbt.Receptor>
prm/pocket_docking_5.prm

>  <SCORE>
-12.9871

>  <SCORE.INTER>
-1.99433

>  <SCORE.INTER.CONST>
1

>  <SCORE.INTER.POLAR>
-0.609634

>  <SCORE.INTER.ROT>
14

>  <SCORE.INTER.SOLV>
9.69896

>  <SCORE.INTER.VDW>
-15.4638

>  <SCORE.INTER.norm>
-0.0553982

>  <SCORE.INTRA>
-10.9927

>  <SCORE.INTRA.DIHEDRAL>
-22.4701

>  <SCORE.INTRA.DIHEDRAL.0>
26.3805

>  <SCORE.INTRA.POLAR>
0

>  <SCORE.INTRA.POLAR.0>
0

>  <SCORE.INTRA.REPUL>
0

>  <SCORE.INTRA.REPUL.0>
0

>  <SCORE.INTRA.SOLV>
1.09479

>  <SCORE.INTRA.SOLV.lig_0>
-98.5587

>  <SCORE.INTRA.VDW>
-0.305101

>  <SCORE.INTRA.VDW.0>
-2.91167

>  <SCORE.INTRA.norm>
-0.305354

>  <SCORE.RESTR>
0

>  <SCORE.RESTR.CAVITY>
0

>  <SCORE.RESTR.norm>
0

>  <SCORE.SYSTEM>
0

>  <SCORE.SYSTEM.CONST>
0

>  <SCORE.SYSTEM.DIHEDRAL>
0

>  <SCORE.SYSTEM.SOLV>
0

>  <SCORE.SYSTEM.norm>
0

>  <SCORE.heavy>
36

>  <SCORE.norm>
-0.360752

>  <RMSD>
8.197

$$$$
2f4u_lig
 OpenBabel11021811433D
libRbt.so/2013.1/901 2013/11/27
 36 37  0  0  0  0  0  0  0  0999 V2000
   42.9302    5.2856    5.9901 C   0  0  2  0  0  0  0  0  0  0  0  0
   42.1219    5.5011    4.7743 O   0  0  0  0  0  0  0  0  0  0  0  0
   38.0866    7.0782    4.4213 C   0  0  2  0  0  0  0  0  0  0  0  0
   36.5993    7.1250    4.4455 N   0  0  0  0  0  0  0  0  0  0  0  0
   44.4177    5.1933    5.5287 C   0  0  2  0  0  0  0  0  0  0  0  0
   44.8684    6.4040    4.8180 N   0  0  0  0  0  0  0  0  0  0  0  0
   38.6180    5.9958    3.4168 C   0  0  0  0  0  0  0  0  0  0  0  0
   35.9171    5.6018    5.0795 C   0  0  0  0  0  0  0  0  0  0  0  0
   34.5988    6.2016    4.7024 C   0  0  1  0  0  0  0  0  0  0  0  0
   33.6403    5.0418    4.4103 C   0  0  0  0  0  0  0  0  0  0  0  0
   33.9184    4.2502    3.1191 C   0  0  0  0  0  0  0  0  0  0  0  0
   32.8904    3.2175    2.9752 N   0  0  0  0  0  0  0  0  0  0  0  0
   34.0703    6.9289    5.7775 O   0  0  0  0  0  0  0  0  0  0  0  0
   37.7785    9.0311    7.2427 C   0  0  0  0  0  0  0  0  0  0  0  0
   36.9616    8.8365    8.5114 C   0  0  0  0  0  0  0  0  0  0  0  0
   44.5840    3.9379    4.6095 C   0  0  1  0  0  0  0  0  0  0  0  0
   37.7032    8.1941    9.6152 N   0  0  0  0  0  0  0  0  0  0  0  0
   45.9278    3.8142    4.1508 O   0  0  0  0  0  0  0  0  0  0  0  0
   40.1581    5.9171    3.4401 C   0  0  2  0  0  0  0  0  0  0  0  0
   40.6489    4.8806    2.5406 N   0  0  0  0  0  0  0  0  0  0  0  0
   38.6087    6.2744   10.9171 C   0  0  0  0  0  0  0  0  0  0  0  0
   38.0879    6.7699   12.2997 C   0  0  0  0  0  0  0  0  0  0  0  0
   37.7107    6.7128    9.7309 C   0  0  0  0  0  0  0  0  0  0  0  0
   39.0371    6.4372   13.4041 N   0  0  0  0  0  0  0  0  0  0  0  0
   36.3094    4.6798    5.4761 O   0  0  0  0  0  0  0  0  0  0  0  0
   44.1452    2.6947    5.4089 C   0  0  2  0  0  0  0  0  0  0  0  0
   44.2518    1.4926    4.6503 O   0  0  0  0  0  0  0  0  0  0  0  0
   40.6498    5.6044    4.8392 C   0  0  2  0  0  0  0  0  0  0  0  0
   42.6985    2.8482    5.9116 C   0  0  2  0  0  0  0  0  0  0  0  0
   42.5437    4.0554    6.6659 O   0  0  0  0  0  0  0  0  0  0  0  0
   40.1540    6.7213    5.8447 C   0  0  2  0  0  0  0  0  0  0  0  0
   40.6266    6.3850    7.1869 O   0  0  0  0  0  0  0  0  0  0  0  0
   42.2752    1.6825    6.7649 C   0  0  0  0  0  0  0  0  0  0  0  0
   43.0551    1.6055    7.8967 O   0  0  0  0  0  0  0  0  0  0  0  0
   38.5886    6.7667    5.8175 C   0  0  1  0  0  0  0  0  0  0  0  0
   38.0769    7.7320    6.6896 O   0  0  0  0  0  0  0  0  0  0  0  0
  1  2  1  6  0  0  0
  1  5  1  0  0  0  0
  1 30  1  0  0  0  0
  3  4  1  1  0  0  0
  3  7  1  0  0  0  0
  3 35  1  0  0  0  0
  5  6  1  6  0  0  0
  5 16  1  0  0  0  0
  7 19  1  0  0  0  0
  8  4  1  0  0  0  0
  8 25  2  0  0  0  0
  9  8  1  1  0  0  0
  9 10  1  0  0  0  0
  9 13  1  0  0  0  0
 10 11  1  0  0  0  0
 11 12  1  0  0  0  0
 14 15  1  0  0  0  0
 14 36  1  0  0  0  0
 15 17  1  0  0  0  0
 16 18  1  1  0  0  0
 16 26  1  0  0  0  0
 17 23  1  0  0  0  0
 19 20  1  6  0  0  0
 19 28  1  0  0  0  0
 21 22  1  0  0  0  0
 21 23  1  0  0  0  0
 22 24  1  0  0  0  0
 26 27  1  6  0  0  0
 26 29  1  0  0  0  0
 28  2  1  6  0  0  0
 28 31  1  0  0  0  0
 29 30  1  0  0  0  0
 29 33  1  1  0  0  0
 31 32  1  1  0  0  0
 31 35  1  0  0  0  0
 33 34  1  0  0  0  0
 35 36  1  1  0  0  0
M  END
>  <CHROM.1>
178.54784457,65.05266247,152.67924257,-70.80745064,-178.14707875,67.01670459
179.59858135,-89.09118323,177.14648871,-174.86949924,63.43893367,176.16222997
62.62178538,-54.81893557,39.56083821,5.44532291,6.10411013,-0.19363167,-0.26268161
1.22356937

>  <Name>
2f4u_lig

>  <RI>
0

>  <Rbt.Current_Directory>
/home/itssahil/PROJECTS/Mol_Feturizer/New_Systems/rnas/2f4u

>  <Rbt.Executable>
rbdock ($Id: //depot/dev/client3/rdock/2013.1/src/exe/rbdock.cxx#4 $)

>  <Rbt.Library>
libRbt.so (2013.1, Build901 2013/11/27)

>  <Rbt.Parameter_File>
/export/apps/rDock/src/rDock_2013.1_src/data/scripts/dock_solv.prm

>  <Rbt.Receptor>
prm/pocket_docking_7.prm

>  <SCORE>
-13.8209

>  <SCORE.INTER>
-0.569452

>  <SCORE.INTER.CONST>
1

>  <SCORE.INTER.POLAR>
-1.64276

>  <SCORE.INTER.ROT>
14

>  <SCORE.INTER.SOLV>
9.40398

>  <SCORE.INTER.VDW>
-10.9718

>  <SCORE.INTER.norm>
-0.0158181

>  <SCORE.INTRA>
-13.2514

>  <SCORE.INTRA.DIHEDRAL>
-23.358

>  <SCORE.INTRA.DIHEDRAL.0>
26.3805

>  <SCORE.INTRA.POLAR>
0

>  <SCORE.INTRA.POLAR.0>
0

>  <SCORE.INTRA.REPUL>
0

>  <SCORE.INTRA.REPUL.0>
0

>  <SCORE.INTRA.SOLV>
0.343517

>  <SCORE.INTRA.SOLV.lig_0>
-98.5587

>  <SCORE.INTRA.VDW>
-1.74415

>  <SCORE.INTRA.VDW.0>
-2.91167

>  <SCORE.INTRA.norm>
-0.368094

>  <SCORE.RESTR>
0

>  <SCORE.RESTR.CAVITY>
0

>  <SCORE.RESTR.norm>
0

>  <SCORE.SYSTEM>
0

>  <SCORE.SYSTEM.CONST>
0

>  <SCORE.SYSTEM.DIHEDRAL>
0

>  <SCORE.SYSTEM.SOLV>
0

>  <SCORE.SYSTEM.norm>
0

>  <SCORE.heavy>
36

>  <SCORE.norm>
-0.383913

>  <RMSD>
8.209

$$$$
2f4u_lig
 OpenBabel11021811433D
libRbt.so/2013.1/901 2013/11/27
 36 37  0  0  0  0  0  0  0  0999 V2000
   42.2376    4.3954    5.3414 C   0  0  2  0  0  0  0  0  0  0  0  0
   41.5848    5.3862    6.2189 O   0  0  0  0  0  0  0  0  0  0  0  0
   39.5398    9.1012    5.2638 C   0  0  2  0  0  0  0  0  0  0  0  0
   38.5432   10.0327    4.6689 N   0  0  0  0  0  0  0  0  0  0  0  0
   41.9519    2.9919    5.9601 C   0  0  2  0  0  0  0  0  0  0  0  0
   40.5102    2.7057    6.0778 N   0  0  0  0  0  0  0  0  0  0  0  0
   40.3262    8.3092    4.1604 C   0  0  0  0  0  0  0  0  0  0  0  0
   37.4824    9.1863    3.5089 C   0  0  0  0  0  0  0  0  0  0  0  0
   36.9465   10.5534    3.2197 C   0  0  1  0  0  0  0  0  0  0  0  0
   37.8946   11.2072    2.2083 C   0  0  0  0  0  0  0  0  0  0  0  0
   39.1427   11.8871    2.8008 C   0  0  0  0  0  0  0  0  0  0  0  0
   39.8634   12.5616    1.7193 N   0  0  0  0  0  0  0  0  0  0  0  0
   35.6827   10.4634    2.6205 O   0  0  0  0  0  0  0  0  0  0  0  0
   37.1783    9.1545    8.1903 C   0  0  0  0  0  0  0  0  0  0  0  0
   35.7709    8.8529    7.6971 C   0  0  0  0  0  0  0  0  0  0  0  0
   42.6316    2.9127    7.3673 C   0  0  1  0  0  0  0  0  0  0  0  0
   34.6999    9.3659    8.5751 N   0  0  0  0  0  0  0  0  0  0  0  0
   42.3903    1.6495    7.9816 O   0  0  0  0  0  0  0  0  0  0  0  0
   41.3167    7.3072    4.7879 C   0  0  2  0  0  0  0  0  0  0  0  0
   42.0140    6.5400    3.7635 N   0  0  0  0  0  0  0  0  0  0  0  0
   32.8885    7.6953    8.2177 C   0  0  0  0  0  0  0  0  0  0  0  0
   31.9091    6.6652    8.8563 C   0  0  0  0  0  0  0  0  0  0  0  0
   33.7893    8.4109    9.2580 C   0  0  0  0  0  0  0  0  0  0  0  0
   31.1213    5.9303    7.8216 N   0  0  0  0  0  0  0  0  0  0  0  0
   37.3628    8.1735    3.1604 O   0  0  0  0  0  0  0  0  0  0  0  0
   44.1408    3.1725    7.1879 C   0  0  2  0  0  0  0  0  0  0  0  0
   44.8522    3.1303    8.4224 O   0  0  0  0  0  0  0  0  0  0  0  0
   40.5841    6.3367    5.6926 C   0  0  2  0  0  0  0  0  0  0  0  0
   44.3866    4.5321    6.5093 C   0  0  2  0  0  0  0  0  0  0  0  0
   43.6738    4.6227    5.2708 O   0  0  0  0  0  0  0  0  0  0  0  0
   39.8293    7.1319    6.8339 C   0  0  2  0  0  0  0  0  0  0  0  0
   39.1179    6.1738    7.6789 O   0  0  0  0  0  0  0  0  0  0  0  0
   45.8497    4.7717    6.2485 C   0  0  0  0  0  0  0  0  0  0  0  0
   46.5011    5.0940    7.4177 O   0  0  0  0  0  0  0  0  0  0  0  0
   38.8163    8.1262    6.1717 C   0  0  1  0  0  0  0  0  0  0  0  0
   38.1064    8.8630    7.1243 O   0  0  0  0  0  0  0  0  0  0  0  0
  1  2  1  1  0  0  0
  1  5  1  0  0  0  0
  1 30  1  0  0  0  0
  3  4  1  6  0  0  0
  3  7  1  0  0  0  0
  3 35  1  0  0  0  0
  5  6  1  1  0  0  0
  5 16  1  0  0  0  0
  7 19  1  0  0  0  0
  8  4  1  0  0  0  0
  8 25  2  0  0  0  0
  9  8  1  6  0  0  0
  9 10  1  0  0  0  0
  9 13  1  0  0  0  0
 10 11  1  0  0  0  0
 11 12  1  0  0  0  0
 14 15  1  0  0  0  0
 14 36  1  0  0  0  0
 15 17  1  0  0  0  0
 16 18  1  6  0  0  0
 16 26  1  0  0  0  0
 17 23  1  0  0  0  0
 19 20  1  6  0  0  0
 19 28  1  0  0  0  0
 21 22  1  0  0  0  0
 21 23  1  0  0  0  0
 22 24  1  0  0  0  0
 26 27  1  1  0  0  0
 26 29  1  0  0  0  0
 28  2  1  1  0  0  0
 28 31  1  0  0  0  0
 29 30  1  0  0  0  0
 29 33  1  6  0  0  0
 31 32  1  1  0  0  0
 31 35  1  0  0  0  0
 33 34  1  0  0  0  0
 35 36  1  1  0  0  0
M  END
>  <CHROM.1>
-123.08874307,52.11995416,83.17674254,-83.98432995,-174.73933088,-167.89482209
-63.05781179,-115.62496548,-67.82784817,-176.23297270,179.54738698,-68.92621383
-75.18537451,169.28151037,39.48881070,7.01360205,5.96566256,-0.45368643,0.32136500
-0.70944330

>  <Name>
2f4u_lig

>  <RI>
0

>  <Rbt.Current_Directory>
/home/itssahil/PROJECTS/Mol_Feturizer/New_Systems/rnas/2f4u

>  <Rbt.Executable>
rbdock ($Id: //depot/dev/client3/rdock/2013.1/src/exe/rbdock.cxx#4 $)

>  <Rbt.Library>
libRbt.so (2013.1, Build901 2013/11/27)

>  <Rbt.Parameter_File>
/export/apps/rDock/src/rDock_2013.1_src/data/scripts/dock_solv.prm

>  <Rbt.Receptor>
prm/pocket_docking_6.prm

>  <SCORE>
-22.3246

>  <SCORE.INTER>
-18.0878

>  <SCORE.INTER.CONST>
1

>  <SCORE.INTER.POLAR>
-2.75034

>  <SCORE.INTER.ROT>
14

>  <SCORE.INTER.SOLV>
15.2434

>  <SCORE.INTER.VDW>
-20.9052

>  <SCORE.INTER.norm>
-0.502439

>  <SCORE.INTRA>
-4.2368

>  <SCORE.INTRA.DIHEDRAL>
-12.2439

>  <SCORE.INTRA.DIHEDRAL.0>
26.3805

>  <SCORE.INTRA.POLAR>
0

>  <SCORE.INTRA.POLAR.0>
0

>  <SCORE.INTRA.REPUL>
0

>  <SCORE.INTRA.REPUL.0>
0

>  <SCORE.INTRA.SOLV>
1.62028

>  <SCORE.INTRA.SOLV.lig_0>
-98.5587

>  <SCORE.INTRA.VDW>
1.07499

>  <SCORE.INTRA.VDW.0>
-2.91167

>  <SCORE.INTRA.norm>
-0.117689

>  <SCORE.RESTR>
0

>  <SCORE.RESTR.CAVITY>
0

>  <SCORE.RESTR.norm>
0

>  <SCORE.SYSTEM>
0

>  <SCORE.SYSTEM.CONST>
0

>  <SCORE.SYSTEM.DIHEDRAL>
0

>  <SCORE.SYSTEM.SOLV>
0

>  <SCORE.SYSTEM.norm>
0

>  <SCORE.heavy>
36

>  <SCORE.norm>
-0.620128

>  <RMSD>
8.233

$$$$
2f4u_lig
 OpenBabel11021811433D
libRbt.so/2013.1/901 2013/11/27
 36 37  0  0  0  0  0  0  0  0999 V2000
   44.4494    4.2562    5.5960 C   0  0  2  0  0  0  0  0  0  0  0  0
   43.5840    5.0389    6.4996 O   0  0  0  0  0  0  0  0  0  0  0  0
   40.1976    7.6976    5.9010 C   0  0  2  0  0  0  0  0  0  0  0  0
   38.9005    8.2105    5.3820 N   0  0  0  0  0  0  0  0  0  0  0  0
   43.6138    3.0230    5.1321 C   0  0  2  0  0  0  0  0  0  0  0  0
   42.3663    3.4073    4.4465 N   0  0  0  0  0  0  0  0  0  0  0  0
   41.2199    7.4237    4.7421 C   0  0  0  0  0  0  0  0  0  0  0  0
   39.1477    9.6055    4.2956 C   0  0  0  0  0  0  0  0  0  0  0  0
   37.6537    9.6940    4.3024 C   0  0  1  0  0  0  0  0  0  0  0  0
   37.2754   11.0217    3.6366 C   0  0  0  0  0  0  0  0  0  0  0  0
   37.6297   11.1487    2.1434 C   0  0  0  0  0  0  0  0  0  0  0  0
   36.7168   10.3007    1.3743 N   0  0  0  0  0  0  0  0  0  0  0  0
   37.1021    8.6607    3.5328 O   0  0  0  0  0  0  0  0  0  0  0  0
   38.1806    6.4870    8.8375 C   0  0  0  0  0  0  0  0  0  0  0  0
   39.0783    6.1339   10.0139 C   0  0  0  0  0  0  0  0  0  0  0  0
   43.2894    2.1352    6.3792 C   0  0  1  0  0  0  0  0  0  0  0  0
   38.3677    6.0191   11.3035 N   0  0  0  0  0  0  0  0  0  0  0  0
   42.5153    0.9970    6.0094 O   0  0  0  0  0  0  0  0  0  0  0  0
   42.5403    6.8406    5.2853 C   0  0  2  0  0  0  0  0  0  0  0  0
   43.4723    6.5440    4.2047 N   0  0  0  0  0  0  0  0  0  0  0  0
   37.9251    3.8475   12.4383 C   0  0  0  0  0  0  0  0  0  0  0  0
   36.5060    4.2036   12.9747 C   0  0  0  0  0  0  0  0  0  0  0  0
   38.8676    5.0751   12.3362 C   0  0  0  0  0  0  0  0  0  0  0  0
   35.7869    5.1452   12.0649 N   0  0  0  0  0  0  0  0  0  0  0  0
   39.9941   10.1423    3.8994 O   0  0  0  0  0  0  0  0  0  0  0  0
   44.6221    1.7209    7.0346 C   0  0  2  0  0  0  0  0  0  0  0  0
   44.4323    0.9116    8.1925 O   0  0  0  0  0  0  0  0  0  0  0  0
   42.2765    5.5593    6.0507 C   0  0  2  0  0  0  0  0  0  0  0  0
   45.4547    2.9587    7.4143 C   0  0  2  0  0  0  0  0  0  0  0  0
   45.6543    3.8094    6.2800 O   0  0  0  0  0  0  0  0  0  0  0  0
   41.2825    5.8445    7.2487 C   0  0  2  0  0  0  0  0  0  0  0  0
   41.0321    4.5901    7.9570 O   0  0  0  0  0  0  0  0  0  0  0  0
   46.7967    2.5788    7.9810 C   0  0  0  0  0  0  0  0  0  0  0  0
   47.5048    3.7039    8.3384 O   0  0  0  0  0  0  0  0  0  0  0  0
   39.9440    6.4157    6.6694 C   0  0  1  0  0  0  0  0  0  0  0  0
   39.0116    6.6879    7.6748 O   0  0  0  0  0  0  0  0  0  0  0  0
  1  2  1  1  0  0  0
  1  5  1  0  0  0  0
  1 30  1  0  0  0  0
  3  4  1  6  0  0  0
  3  7  1  0  0  0  0
  3 35  1  0  0  0  0
  5  6  1  1  0  0  0
  5 16  1  0  0  0  0
  7 19  1  0  0  0  0
  8  4  1  0  0  0  0
  8 25  2  0  0  0  0
  9  8  1  6  0  0  0
  9 10  1  0  0  0  0
  9 13  1  0  0  0  0
 10 11  1  0  0  0  0
 11 12  1  0  0  0  0
 14 15  1  0  0  0  0
 14 36  1  0  0  0  0
 15 17  1  0  0  0  0
 16 18  1  6  0  0  0
 16 26  1  0  0  0  0
 17 23  1  0  0  0  0
 19 20  1  6  0  0  0
 19 28  1  0  0  0  0
 21 22  1  0  0  0  0
 21 23  1  0  0  0  0
 22 24  1  0  0  0  0
 26 27  1  1  0  0  0
 26 29  1  0  0  0  0
 28  2  1  1  0  0  0
 28 31  1  0  0  0  0
 29 30  1  0  0  0  0
 29 33  1  6  0  0  0
 31 32  1  6  0  0  0
 31 35  1  0  0  0  0
 33 34  1  0  0  0  0
 35 36  1  1  0  0  0
M  END
>  <CHROM.1>
-57.86602615,-51.71037371,169.48381250,65.38995081,72.38411566,174.78455886
57.69737216,149.18001486,-107.18831509,62.48014171,-66.17730166,-81.72209647
-178.64688744,-172.55553770,40.98093841,5.74380114,6.78069664,-0.67119436
0.53247644,-0.99451800

>  <Name>
2f4u_lig

>  <RI>
0

>  <Rbt.Current_Directory>
/home/itssahil/PROJECTS/Mol_Feturizer/New_Systems/rnas/2f4u

>  <Rbt.Executable>
rbdock ($Id: //depot/dev/client3/rdock/2013.1/src/exe/rbdock.cxx#4 $)

>  <Rbt.Library>
libRbt.so (2013.1, Build901 2013/11/27)

>  <Rbt.Parameter_File>
/export/apps/rDock/src/rDock_2013.1_src/data/scripts/dock_solv.prm

>  <Rbt.Receptor>
prm/pocket_docking_3.prm

>  <SCORE>
-11.635

>  <SCORE.INTER>
-6.81687

>  <SCORE.INTER.CONST>
1

>  <SCORE.INTER.POLAR>
-0.551196

>  <SCORE.INTER.ROT>
14

>  <SCORE.INTER.SOLV>
14.4902

>  <SCORE.INTER.VDW>
-20.4707

>  <SCORE.INTER.norm>
-0.189358

>  <SCORE.INTRA>
-4.81809

>  <SCORE.INTRA.DIHEDRAL>
-20.3915

>  <SCORE.INTRA.DIHEDRAL.0>
26.3805

>  <SCORE.INTRA.POLAR>
0

>  <SCORE.INTRA.POLAR.0>
0

>  <SCORE.INTRA.REPUL>
0

>  <SCORE.INTRA.REPUL.0>
0

>  <SCORE.INTRA.SOLV>
9.55704

>  <SCORE.INTRA.SOLV.lig_0>
-98.5587

>  <SCORE.INTRA.VDW>
0.599157

>  <SCORE.INTRA.VDW.0>
-2.91167

>  <SCORE.INTRA.norm>
-0.133836

>  <SCORE.RESTR>
0

>  <SCORE.RESTR.CAVITY>
0

>  <SCORE.RESTR.norm>
0

>  <SCORE.SYSTEM>
0

>  <SCORE.SYSTEM.CONST>
0

>  <SCORE.SYSTEM.DIHEDRAL>
0

>  <SCORE.SYSTEM.SOLV>
0

>  <SCORE.SYSTEM.norm>
0

>  <SCORE.heavy>
36

>  <SCORE.norm>
-0.323193

>  <RMSD>
8.248

$$$$
2f4u_lig
 OpenBabel11021811433D
libRbt.so/2013.1/901 2013/11/27
 36 37  0  0  0  0  0  0  0  0999 V2000
   40.3225    4.1728    7.9620 C   0  0  2  0  0  0  0  0  0  0  0  0
   40.9786    5.0883    7.0084 O   0  0  0  0  0  0  0  0  0  0  0  0
   39.6326    8.9429    5.5165 C   0  0  2  0  0  0  0  0  0  0  0  0
   38.8744    9.9420    4.7155 N   0  0  0  0  0  0  0  0  0  0  0  0
   41.4264    3.2005    8.4816 C   0  0  2  0  0  0  0  0  0  0  0  0
   42.5454    3.9069    9.1320 N   0  0  0  0  0  0  0  0  0  0  0  0
   40.4573    7.9697    4.6021 C   0  0  0  0  0  0  0  0  0  0  0  0
   39.8195   10.4853    3.3016 C   0  0  0  0  0  0  0  0  0  0  0  0
   38.6952   11.4526    3.1010 C   0  0  1  0  0  0  0  0  0  0  0  0
   37.4751   10.6419    2.6498 C   0  0  0  0  0  0  0  0  0  0  0  0
   36.4627   11.3903    1.7631 C   0  0  0  0  0  0  0  0  0  0  0  0
   37.1519   11.8510    0.5561 N   0  0  0  0  0  0  0  0  0  0  0  0
   38.3670   12.0748    4.3132 O   0  0  0  0  0  0  0  0  0  0  0  0
   36.9535    9.5215    8.0965 C   0  0  0  0  0  0  0  0  0  0  0  0
   35.5673    9.0974    7.6347 C   0  0  0  0  0  0  0  0  0  0  0  0
   41.9551    2.3486    7.2801 C   0  0  1  0  0  0  0  0  0  0  0  0
   34.4803    9.4726    8.5615 N   0  0  0  0  0  0  0  0  0  0  0  0
   42.9769    1.4487    7.7014 O   0  0  0  0  0  0  0  0  0  0  0  0
   41.1949    6.9045    5.4385 C   0  0  2  0  0  0  0  0  0  0  0  0
   41.9239    5.9735    4.5863 N   0  0  0  0  0  0  0  0  0  0  0  0
   33.0557    8.0928   10.0671 C   0  0  0  0  0  0  0  0  0  0  0  0
   32.9235    7.3512   11.4312 C   0  0  0  0  0  0  0  0  0  0  0  0
   34.4064    8.8373    9.9026 C   0  0  0  0  0  0  0  0  0  0  0  0
   31.6230    6.6254   11.5466 N   0  0  0  0  0  0  0  0  0  0  0  0
   40.7778   10.2485    2.8693 O   0  0  0  0  0  0  0  0  0  0  0  0
   40.7604    1.5947    6.6624 C   0  0  2  0  0  0  0  0  0  0  0  0
   41.1395    0.7919    5.5473 O   0  0  0  0  0  0  0  0  0  0  0  0
   40.2086    6.1122    6.2732 C   0  0  2  0  0  0  0  0  0  0  0  0
   39.6580    2.5766    6.2266 C   0  0  2  0  0  0  0  0  0  0  0  0
   39.2597    3.4160    7.3160 O   0  0  0  0  0  0  0  0  0  0  0  0
   39.4098    7.0876    7.2298 C   0  0  2  0  0  0  0  0  0  0  0  0
   38.4549    6.3002    8.0084 O   0  0  0  0  0  0  0  0  0  0  0  0
   38.4460    1.8587    5.6958 C   0  0  0  0  0  0  0  0  0  0  0  0
   37.8737    1.0861    6.6810 O   0  0  0  0  0  0  0  0  0  0  0  0
   38.6542    8.1454    6.3562 C   0  0  1  0  0  0  0  0  0  0  0  0
   37.9193    9.0419    7.1374 O   0  0  0  0  0  0  0  0  0  0  0  0
  1  2  1  6  0  0  0
  1  5  1  0  0  0  0
  1 30  1  0  0  0  0
  3  4  1  6  0  0  0
  3  7  1  0  0  0  0
  3 35  1  0  0  0  0
  5  6  1  6  0  0  0
  5 16  1  0  0  0  0
  7 19  1  0  0  0  0
  8  4  1  0  0  0  0
  8 25  2  0  0  0  0
  9  8  1  1  0  0  0
  9 10  1  0  0  0  0
  9 13  1  0  0  0  0
 10 11  1  0  0  0  0
 11 12  1  0  0  0  0
 14 15  1  0  0  0  0
 14 36  1  0  0  0  0
 15 17  1  0  0  0  0
 16 18  1  1  0  0  0
 16 26  1  0  0  0  0
 17 23  1  0  0  0  0
 19 20  1  6  0  0  0
 19 28  1  0  0  0  0
 21 22  1  0  0  0  0
 21 23  1  0  0  0  0
 22 24  1  0  0  0  0
 26 27  1  6  0  0  0
 26 29  1  0  0  0  0
 28  2  1  1  0  0  0
 28 31  1  0  0  0  0
 29 30  1  0  0  0  0
 29 33  1  1  0  0  0
 31 32  1  6  0  0  0
 31 35  1  0  0  0  0
 33 34  1  0  0  0  0
 35 36  1  1  0  0  0
M  END
>  <CHROM.1>
177.26654384,-37.80038652,-70.26022060,-151.60094123,59.18911223,177.38210738
-60.34228308,-66.85151434,-120.58863600,-178.97738477,177.76567069,177.58337382
63.11088676,-179.78802911,38.66260023,6.77102673,6.43427667,1.00864882,-0.63569152
2.52889473

>  <Name>
2f4u_lig

>  <RI>
0

>  <Rbt.Current_Directory>
/home/itssahil/PROJECTS/Mol_Feturizer/New_Systems/rnas/2f4u

>  <Rbt.Executable>
rbdock ($Id: //depot/dev/client3/rdock/2013.1/src/exe/rbdock.cxx#4 $)

>  <Rbt.Library>
libRbt.so (2013.1, Build901 2013/11/27)

>  <Rbt.Parameter_File>
/export/apps/rDock/src/rDock_2013.1_src/data/scripts/dock_solv.prm

>  <Rbt.Receptor>
prm/pocket_docking_7.prm

>  <SCORE>
-16.9682

>  <SCORE.INTER>
-11.9351

>  <SCORE.INTER.CONST>
1

>  <SCORE.INTER.POLAR>
-2.48314

>  <SCORE.INTER.ROT>
14

>  <SCORE.INTER.SOLV>
16.7385

>  <SCORE.INTER.VDW>
-18.1924

>  <SCORE.INTER.norm>
-0.331529

>  <SCORE.INTRA>
-5.03312

>  <SCORE.INTRA.DIHEDRAL>
-21.3929

>  <SCORE.INTRA.DIHEDRAL.0>
26.3805

>  <SCORE.INTRA.POLAR>
0

>  <SCORE.INTRA.POLAR.0>
0

>  <SCORE.INTRA.REPUL>
0.0319994

>  <SCORE.INTRA.REPUL.0>
0

>  <SCORE.INTRA.SOLV>
0.343888

>  <SCORE.INTRA.SOLV.lig_0>
-98.5587

>  <SCORE.INTRA.VDW>
5.33141

>  <SCORE.INTRA.VDW.0>
-2.91167

>  <SCORE.INTRA.norm>
-0.139809

>  <SCORE.RESTR>
0

>  <SCORE.RESTR.CAVITY>
0

>  <SCORE.RESTR.norm>
0

>  <SCORE.SYSTEM>
0

>  <SCORE.SYSTEM.CONST>
0

>  <SCORE.SYSTEM.DIHEDRAL>
0

>  <SCORE.SYSTEM.SOLV>
0

>  <SCORE.SYSTEM.norm>
0

>  <SCORE.heavy>
36

>  <SCORE.norm>
-0.471338

>  <RMSD>
8.257

$$$$
2f4u_lig
 OpenBabel11021811433D
libRbt.so/2013.1/901 2013/11/27
 36 37  0  0  0  0  0  0  0  0999 V2000
   36.5884    6.7291    8.4738 C   0  0  2  0  0  0  0  0  0  0  0  0
   37.7916    6.3678    7.6994 O   0  0  0  0  0  0  0  0  0  0  0  0
   39.7199    8.1946    4.2585 C   0  0  2  0  0  0  0  0  0  0  0  0
   40.3561    9.2331    3.4033 N   0  0  0  0  0  0  0  0  0  0  0  0
   37.0688    7.0557    9.9218 C   0  0  2  0  0  0  0  0  0  0  0  0
   38.0546    8.1516    9.9597 N   0  0  0  0  0  0  0  0  0  0  0  0
   38.2583    8.5938    4.6675 C   0  0  0  0  0  0  0  0  0  0  0  0
   39.8200   10.8704    3.8716 C   0  0  0  0  0  0  0  0  0  0  0  0
   40.5913   11.3126    2.6677 C   0  0  1  0  0  0  0  0  0  0  0  0
   39.5750   11.8274    1.6424 C   0  0  0  0  0  0  0  0  0  0  0  0
   38.8311   13.1201    2.0257 C   0  0  0  0  0  0  0  0  0  0  0  0
   39.7755   14.2373    1.9622 N   0  0  0  0  0  0  0  0  0  0  0  0
   41.4387   12.3789    2.9980 O   0  0  0  0  0  0  0  0  0  0  0  0
   42.9328    6.9974    4.4155 C   0  0  0  0  0  0  0  0  0  0  0  0
   42.7432    5.4981    4.5911 C   0  0  0  0  0  0  0  0  0  0  0  0
   37.6800    5.7617   10.5548 C   0  0  1  0  0  0  0  0  0  0  0  0
   43.5294    4.9148    5.6969 N   0  0  0  0  0  0  0  0  0  0  0  0
   38.1454    6.0106   11.8787 O   0  0  0  0  0  0  0  0  0  0  0  0
   37.6282    7.5378    5.5984 C   0  0  2  0  0  0  0  0  0  0  0  0
   36.2878    7.9310    6.0144 N   0  0  0  0  0  0  0  0  0  0  0  0
   42.8634    3.4686    7.6112 C   0  0  0  0  0  0  0  0  0  0  0  0
   44.2469    2.7894    7.8410 C   0  0  0  0  0  0  0  0  0  0  0  0
   42.9744    4.9198    7.0751 C   0  0  0  0  0  0  0  0  0  0  0  0
   45.0233    2.6636    6.5710 N   0  0  0  0  0  0  0  0  0  0  0  0
   39.1837   11.2924    4.6321 O   0  0  0  0  0  0  0  0  0  0  0  0
   36.6009    4.6606   10.5350 C   0  0  2  0  0  0  0  0  0  0  0  0
   37.0660    3.4310   11.0860 O   0  0  0  0  0  0  0  0  0  0  0  0
   38.4771    7.3549    6.8406 C   0  0  2  0  0  0  0  0  0  0  0  0
   36.0958    4.4132    9.1021 C   0  0  2  0  0  0  0  0  0  0  0  0
   35.6345    5.6298    8.5044 O   0  0  0  0  0  0  0  0  0  0  0  0
   39.9383    6.9062    6.4310 C   0  0  2  0  0  0  0  0  0  0  0  0
   40.7386    6.7553    7.6455 O   0  0  0  0  0  0  0  0  0  0  0  0
   34.9827    3.4003    9.0675 C   0  0  0  0  0  0  0  0  0  0  0  0
   33.8612    3.8951    9.6940 O   0  0  0  0  0  0  0  0  0  0  0  0
   40.5627    8.0036    5.5041 C   0  0  1  0  0  0  0  0  0  0  0  0
   41.8617    7.6756    5.1049 O   0  0  0  0  0  0  0  0  0  0  0  0
  1  2  1  6  0  0  0
  1  5  1  0  0  0  0
  1 30  1  0  0  0  0
  3  4  1  6  0  0  0
  3  7  1  0  0  0  0
  3 35  1  0  0  0  0
  5  6  1  6  0  0  0
  5 16  1  0  0  0  0
  7 19  1  0  0  0  0
  8  4  1  0  0  0  0
  8 25  2  0  0  0  0
  9  8  1  1  0  0  0
  9 10  1  0  0  0  0
  9 13  1  0  0  0  0
 10 11  1  0  0  0  0
 11 12  1  0  0  0  0
 14 15  1  0  0  0  0
 14 36  1  0  0  0  0
 15 17  1  0  0  0  0
 16 18  1  1  0  0  0
 16 26  1  0  0  0  0
 17 23  1  0  0  0  0
 19 20  1  1  0  0  0
 19 28  1  0  0  0  0
 21 22  1  0  0  0  0
 21 23  1  0  0  0  0
 22 24  1  0  0  0  0
 26 27  1  6  0  0  0
 26 29  1  0  0  0  0
 28  2  1  1  0  0  0
 28 31  1  0  0  0  0
 29 30  1  0  0  0  0
 29 33  1  1  0  0  0
 31 32  1  1  0  0  0
 31 35  1  0  0  0  0
 33 34  1  0  0  0  0
 35 36  1  6  0  0  0
M  END
>  <CHROM.1>
-97.54633021,34.37918057,112.22530679,67.43380274,70.76998065,-96.22703933
-50.26487224,86.24041470,120.97421700,-62.04406703,67.33561537,-75.03708873
66.67295088,-50.44857517,39.34778123,7.20411942,6.57820114,1.90962172,-0.38360710
2.47602255

>  <Name>
2f4u_lig

>  <RI>
0

>  <Rbt.Current_Directory>
/home/itssahil/PROJECTS/Mol_Feturizer/New_Systems/rnas/2f4u

>  <Rbt.Executable>
rbdock ($Id: //depot/dev/client3/rdock/2013.1/src/exe/rbdock.cxx#4 $)

>  <Rbt.Library>
libRbt.so (2013.1, Build901 2013/11/27)

>  <Rbt.Parameter_File>
/export/apps/rDock/src/rDock_2013.1_src/data/scripts/dock_solv.prm

>  <Rbt.Receptor>
prm/pocket_docking_3.prm

>  <SCORE>
-6.30083

>  <SCORE.INTER>
-5.4383

>  <SCORE.INTER.CONST>
1

>  <SCORE.INTER.POLAR>
-1.50595

>  <SCORE.INTER.ROT>
14

>  <SCORE.INTER.SOLV>
12.5032

>  <SCORE.INTER.VDW>
-15.7068

>  <SCORE.INTER.norm>
-0.151064

>  <SCORE.INTRA>
-0.939835

>  <SCORE.INTRA.DIHEDRAL>
-10.1882

>  <SCORE.INTRA.DIHEDRAL.0>
26.3805

>  <SCORE.INTRA.POLAR>
0

>  <SCORE.INTRA.POLAR.0>
0

>  <SCORE.INTRA.REPUL>
0

>  <SCORE.INTRA.REPUL.0>
0

>  <SCORE.INTRA.SOLV>
8.32223

>  <SCORE.INTRA.SOLV.lig_0>
-98.5587

>  <SCORE.INTRA.VDW>
-0.00686129

>  <SCORE.INTRA.VDW.0>
-2.91167

>  <SCORE.INTRA.norm>
-0.0261065

>  <SCORE.RESTR>
0.0773063

>  <SCORE.RESTR.CAVITY>
0.0773063

>  <SCORE.RESTR.norm>
0.0021474

>  <SCORE.SYSTEM>
0

>  <SCORE.SYSTEM.CONST>
0

>  <SCORE.SYSTEM.DIHEDRAL>
0

>  <SCORE.SYSTEM.SOLV>
0

>  <SCORE.SYSTEM.norm>
0

>  <SCORE.heavy>
36

>  <SCORE.norm>
-0.175023

>  <RMSD>
8.260

$$$$
2f4u_lig
 OpenBabel11021811433D
libRbt.so/2013.1/901 2013/11/27
 36 37  0  0  0  0  0  0  0  0999 V2000
   45.2766    4.7050    6.3476 C   0  0  2  0  0  0  0  0  0  0  0  0
   44.5914    4.4502    5.0656 O   0  0  0  0  0  0  0  0  0  0  0  0
   41.2546    7.2326    5.2018 C   0  0  2  0  0  0  0  0  0  0  0  0
   40.0844    8.0320    4.7472 N   0  0  0  0  0  0  0  0  0  0  0  0
   46.3416    3.5777    6.5183 C   0  0  2  0  0  0  0  0  0  0  0  0
   47.3151    3.5433    5.4113 N   0  0  0  0  0  0  0  0  0  0  0  0
   42.5426    7.5615    4.3676 C   0  0  0  0  0  0  0  0  0  0  0  0
   39.1819    8.6996    6.1355 C   0  0  0  0  0  0  0  0  0  0  0  0
   38.2030    9.1534    5.0983 C   0  0  1  0  0  0  0  0  0  0  0  0
   36.8059    8.7595    5.5908 C   0  0  0  0  0  0  0  0  0  0  0  0
   35.6820    8.8209    4.5399 C   0  0  0  0  0  0  0  0  0  0  0  0
   35.2517    7.4544    4.2376 N   0  0  0  0  0  0  0  0  0  0  0  0
   38.2333   10.5495    4.9792 O   0  0  0  0  0  0  0  0  0  0  0  0
   38.8170    5.5328    6.8908 C   0  0  0  0  0  0  0  0  0  0  0  0
   38.4024    4.1024    7.2018 C   0  0  0  0  0  0  0  0  0  0  0  0
   45.6060    2.2010    6.6292 C   0  0  1  0  0  0  0  0  0  0  0  0
   37.5145    3.9718    8.3747 N   0  0  0  0  0  0  0  0  0  0  0  0
   46.5384    1.1331    6.7761 O   0  0  0  0  0  0  0  0  0  0  0  0
   43.7349    6.6886    4.8094 C   0  0  2  0  0  0  0  0  0  0  0  0
   44.9185    6.9623    4.0041 N   0  0  0  0  0  0  0  0  0  0  0  0
   38.6736    3.3613   10.4921 C   0  0  0  0  0  0  0  0  0  0  0  0
   37.7501    2.1442   10.7991 C   0  0  0  0  0  0  0  0  0  0  0  0
   37.9616    4.4854    9.6952 C   0  0  0  0  0  0  0  0  0  0  0  0
   38.4763    1.0656   11.5343 N   0  0  0  0  0  0  0  0  0  0  0  0
   39.2904    8.6963    7.2077 O   0  0  0  0  0  0  0  0  0  0  0  0
   44.6351    2.2693    7.8250 C   0  0  2  0  0  0  0  0  0  0  0  0
   43.9058    1.0580    8.0055 O   0  0  0  0  0  0  0  0  0  0  0  0
   43.3938    5.2185    4.6691 C   0  0  2  0  0  0  0  0  0  0  0  0
   43.6444    3.4360    7.6614 C   0  0  2  0  0  0  0  0  0  0  0  0
   44.3379    4.6724    7.4598 O   0  0  0  0  0  0  0  0  0  0  0  0
   42.1229    4.8761    5.5477 C   0  0  2  0  0  0  0  0  0  0  0  0
   41.8065    3.4585    5.3791 O   0  0  0  0  0  0  0  0  0  0  0  0
   42.7391    3.5739    8.8562 C   0  0  0  0  0  0  0  0  0  0  0  0
   41.7892    4.5446    8.6315 O   0  0  0  0  0  0  0  0  0  0  0  0
   40.9227    5.7597    5.0660 C   0  0  1  0  0  0  0  0  0  0  0  0
   39.7586    5.5064    5.7974 O   0  0  0  0  0  0  0  0  0  0  0  0
  1  2  1  6  0  0  0
  1  5  1  0  0  0  0
  1 30  1  0  0  0  0
  3  4  1  6  0  0  0
  3  7  1  0  0  0  0
  3 35  1  0  0  0  0
  5  6  1  6  0  0  0
  5 16  1  0  0  0  0
  7 19  1  0  0  0  0
  8  4  1  0  0  0  0
  8 25  2  0  0  0  0
  9  8  1  1  0  0  0
  9 10  1  0  0  0  0
  9 13  1  0  0  0  0
 10 11  1  0  0  0  0
 11 12  1  0  0  0  0
 14 15  1  0  0  0  0
 14 36  1  0  0  0  0
 15 17  1  0  0  0  0
 16 18  1  1  0  0  0
 16 26  1  0  0  0  0
 17 23  1  0  0  0  0
 19 20  1  6  0  0  0
 19 28  1  0  0  0  0
 21 22  1  0  0  0  0
 21 23  1  0  0  0  0
 22 24  1  0  0  0  0
 26 27  1  6  0  0  0
 26 29  1  0  0  0  0
 28  2  1  1  0  0  0
 28 31  1  0  0  0  0
 29 30  1  0  0  0  0
 29 33  1  1  0  0  0
 31 32  1  6  0  0  0
 31 35  1  0  0  0  0
 33 34  1  0  0  0  0
 35 36  1  1  0  0  0
M  END
>  <CHROM.1>
171.53101138,-135.34126936,132.50331375,-165.80440490,110.77569650,175.55522807
-128.83471404,-57.37056407,-91.81753643,178.45684145,-61.67123511,51.57710906
-174.63019877,-45.32623025,41.31981767,5.18130021,6.61454071,-0.48695139
0.30942625,-0.69925374

>  <Name>
2f4u_lig

>  <RI>
0

>  <Rbt.Current_Directory>
/home/itssahil/PROJECTS/Mol_Feturizer/New_Systems/rnas/2f4u

>  <Rbt.Executable>
rbdock ($Id: //depot/dev/client3/rdock/2013.1/src/exe/rbdock.cxx#4 $)

>  <Rbt.Library>
libRbt.so (2013.1, Build901 2013/11/27)

>  <Rbt.Parameter_File>
/export/apps/rDock/src/rDock_2013.1_src/data/scripts/dock_solv.prm

>  <Rbt.Receptor>
prm/pocket_docking_3.prm

>  <SCORE>
-15.7362

>  <SCORE.INTER>
-10.5964

>  <SCORE.INTER.CONST>
1

>  <SCORE.INTER.POLAR>
-2.4674

>  <SCORE.INTER.ROT>
14

>  <SCORE.INTER.SOLV>
20.7176

>  <SCORE.INTER.VDW>
-18.6788

>  <SCORE.INTER.norm>
-0.294345

>  <SCORE.INTRA>
-5.47935

>  <SCORE.INTRA.DIHEDRAL>
-7.85429

>  <SCORE.INTRA.DIHEDRAL.0>
26.3805

>  <SCORE.INTRA.POLAR>
0

>  <SCORE.INTRA.POLAR.0>
0

>  <SCORE.INTRA.REPUL>
0

>  <SCORE.INTRA.REPUL.0>
0

>  <SCORE.INTRA.SOLV>
1.44946

>  <SCORE.INTRA.SOLV.lig_0>
-98.5587

>  <SCORE.INTRA.VDW>
-2.27694

>  <SCORE.INTRA.VDW.0>
-2.91167

>  <SCORE.INTRA.norm>
-0.152204

>  <SCORE.RESTR>
0.339531

>  <SCORE.RESTR.CAVITY>
0.339531

>  <SCORE.RESTR.norm>
0.00943142

>  <SCORE.SYSTEM>
0

>  <SCORE.SYSTEM.CONST>
0

>  <SCORE.SYSTEM.DIHEDRAL>
0

>  <SCORE.SYSTEM.SOLV>
0

>  <SCORE.SYSTEM.norm>
0

>  <SCORE.heavy>
36

>  <SCORE.norm>
-0.437118

>  <RMSD>
8.260

$$$$
2f4u_lig
 OpenBabel11021811433D
libRbt.so/2013.1/901 2013/11/27
 36 37  0  0  0  0  0  0  0  0999 V2000
   42.6910    3.2929    4.2538 C   0  0  2  0  0  0  0  0  0  0  0  0
   42.4049    2.6148    5.5330 O   0  0  0  0  0  0  0  0  0  0  0  0
   39.6907    3.7125    8.7459 C   0  0  2  0  0  0  0  0  0  0  0  0
   39.1465    4.4354    9.9275 N   0  0  0  0  0  0  0  0  0  0  0  0
   43.4634    2.2682    3.3664 C   0  0  2  0  0  0  0  0  0  0  0  0
   42.6992    1.0288    3.1333 N   0  0  0  0  0  0  0  0  0  0  0  0
   41.0807    3.0536    9.0571 C   0  0  0  0  0  0  0  0  0  0  0  0
   38.7532    3.3030   11.2506 C   0  0  0  0  0  0  0  0  0  0  0  0
   38.1812    4.5113   11.9233 C   0  0  1  0  0  0  0  0  0  0  0  0
   36.7999    4.1198   12.4600 C   0  0  0  0  0  0  0  0  0  0  0  0
   35.9159    5.2821   12.9491 C   0  0  0  0  0  0  0  0  0  0  0  0
   35.5264    6.0900   11.7917 N   0  0  0  0  0  0  0  0  0  0  0  0
   38.9741    4.8787   13.0191 O   0  0  0  0  0  0  0  0  0  0  0  0
   37.1635    5.3933    7.1815 C   0  0  0  0  0  0  0  0  0  0  0  0
   36.8842    6.6377    6.3519 C   0  0  0  0  0  0  0  0  0  0  0  0
   44.8298    1.9353    4.0527 C   0  0  1  0  0  0  0  0  0  0  0  0
   37.4831    7.8734    6.8953 N   0  0  0  0  0  0  0  0  0  0  0  0
   45.5716    0.9915    3.2843 O   0  0  0  0  0  0  0  0  0  0  0  0
   41.6613    2.3545    7.8110 C   0  0  2  0  0  0  0  0  0  0  0  0
   42.9727    1.7818    8.0880 N   0  0  0  0  0  0  0  0  0  0  0  0
   39.0177    8.2400    4.9690 C   0  0  0  0  0  0  0  0  0  0  0  0
   38.1328    9.3088    4.2599 C   0  0  0  0  0  0  0  0  0  0  0  0
   38.8692    8.2477    6.5129 C   0  0  0  0  0  0  0  0  0  0  0  0
   38.5686   10.6994    4.5883 N   0  0  0  0  0  0  0  0  0  0  0  0
   38.8415    2.2421   11.4182 O   0  0  0  0  0  0  0  0  0  0  0  0
   45.6108    3.2523    4.2335 C   0  0  2  0  0  0  0  0  0  0  0  0
   46.8745    3.0552    4.8628 O   0  0  0  0  0  0  0  0  0  0  0  0
   41.8051    3.3420    6.6702 C   0  0  2  0  0  0  0  0  0  0  0  0
   44.7922    4.2677    5.0509 C   0  0  2  0  0  0  0  0  0  0  0  0
   43.5053    4.4818    4.4609 O   0  0  0  0  0  0  0  0  0  0  0  0
   40.3951    3.9718    6.3244 C   0  0  2  0  0  0  0  0  0  0  0  0
   40.5666    4.9320    5.2351 O   0  0  0  0  0  0  0  0  0  0  0  0
   45.4998    5.5910    5.1707 C   0  0  0  0  0  0  0  0  0  0  0  0
   45.5796    6.2077    3.9425 O   0  0  0  0  0  0  0  0  0  0  0  0
   39.8374    4.6922    7.5985 C   0  0  1  0  0  0  0  0  0  0  0  0
   38.5904    5.2794    7.3650 O   0  0  0  0  0  0  0  0  0  0  0  0
  1  2  1  1  0  0  0
  1  5  1  0  0  0  0
  1 30  1  0  0  0  0
  3  4  1  1  0  0  0
  3  7  1  0  0  0  0
  3 35  1  0  0  0  0
  5  6  1  1  0  0  0
  5 16  1  0  0  0  0
  7 19  1  0  0  0  0
  8  4  1  0  0  0  0
  8 25  2  0  0  0  0
  9  8  1  1  0  0  0
  9 10  1  0  0  0  0
  9 13  1  0  0  0  0
 10 11  1  0  0  0  0
 11 12  1  0  0  0  0
 14 15  1  0  0  0  0
 14 36  1  0  0  0  0
 15 17  1  0  0  0  0
 16 18  1  6  0  0  0
 16 26  1  0  0  0  0
 17 23  1  0  0  0  0
 19 20  1  1  0  0  0
 19 28  1  0  0  0  0
 21 22  1  0  0  0  0
 21 23  1  0  0  0  0
 22 24  1  0  0  0  0
 26 27  1  1  0  0  0
 26 29  1  0  0  0  0
 28  2  1  6  0  0  0
 28 31  1  0  0  0  0
 29 30  1  0  0  0  0
 29 33  1  6  0  0  0
 31 32  1  6  0  0  0
 31 35  1  0  0  0  0
 33 34  1  0  0  0  0
 35 36  1  6  0  0  0
M  END
>  <CHROM.1>
173.48516344,-66.04533879,132.95529806,-168.53961288,68.22083289,-53.84441416
-155.45088856,88.03338894,52.05501340,66.27793264,64.16498155,-179.56987490
67.02503635,-43.95755716,40.82193822,4.54326215,7.02970757,0.34170698,0.67280897
-0.86114544

>  <Name>
2f4u_lig

>  <RI>
0

>  <Rbt.Current_Directory>
/home/itssahil/PROJECTS/Mol_Feturizer/New_Systems/rnas/2f4u

>  <Rbt.Executable>
rbdock ($Id: //depot/dev/client3/rdock/2013.1/src/exe/rbdock.cxx#4 $)

>  <Rbt.Library>
libRbt.so (2013.1, Build901 2013/11/27)

>  <Rbt.Parameter_File>
/export/apps/rDock/src/rDock_2013.1_src/data/scripts/dock_solv.prm

>  <Rbt.Receptor>
prm/pocket_docking_5.prm

>  <SCORE>
-11.1574

>  <SCORE.INTER>
-2.22253

>  <SCORE.INTER.CONST>
1

>  <SCORE.INTER.POLAR>
-1.85701

>  <SCORE.INTER.ROT>
14

>  <SCORE.INTER.SOLV>
10.6021

>  <SCORE.INTER.VDW>
-11.759

>  <SCORE.INTER.norm>
-0.061737

>  <SCORE.INTRA>
-8.93487

>  <SCORE.INTRA.DIHEDRAL>
-18.3059

>  <SCORE.INTRA.DIHEDRAL.0>
26.3805

>  <SCORE.INTRA.POLAR>
0

>  <SCORE.INTRA.POLAR.0>
0

>  <SCORE.INTRA.REPUL>
0

>  <SCORE.INTRA.REPUL.0>
0

>  <SCORE.INTRA.SOLV>
2.17492

>  <SCORE.INTRA.SOLV.lig_0>
-98.5587

>  <SCORE.INTRA.VDW>
-0.869381

>  <SCORE.INTRA.VDW.0>
-2.91167

>  <SCORE.INTRA.norm>
-0.248191

>  <SCORE.RESTR>
0

>  <SCORE.RESTR.CAVITY>
0

>  <SCORE.RESTR.norm>
0

>  <SCORE.SYSTEM>
0

>  <SCORE.SYSTEM.CONST>
0

>  <SCORE.SYSTEM.DIHEDRAL>
0

>  <SCORE.SYSTEM.SOLV>
0

>  <SCORE.SYSTEM.norm>
0

>  <SCORE.heavy>
36

>  <SCORE.norm>
-0.309928

>  <RMSD>
8.267

$$$$
2f4u_lig
 OpenBabel11021811433D
libRbt.so/2013.1/901 2013/11/27
 36 37  0  0  0  0  0  0  0  0999 V2000
   38.5701    4.3030   12.0035 C   0  0  2  0  0  0  0  0  0  0  0  0
   38.5188    5.0739   10.7461 O   0  0  0  0  0  0  0  0  0  0  0  0
   41.3417    5.3201    7.4498 C   0  0  2  0  0  0  0  0  0  0  0  0
   42.5674    5.6788    6.6858 N   0  0  0  0  0  0  0  0  0  0  0  0
   37.1167    4.2724   12.5699 C   0  0  2  0  0  0  0  0  0  0  0  0
   36.1540    3.6658   11.6321 N   0  0  0  0  0  0  0  0  0  0  0  0
   40.5732    6.5948    7.9477 C   0  0  0  0  0  0  0  0  0  0  0  0
   42.2094    6.8921    5.4260 C   0  0  0  0  0  0  0  0  0  0  0  0
   43.6300    6.6711    5.0104 C   0  0  1  0  0  0  0  0  0  0  0  0
   43.6188    5.6091    3.9053 C   0  0  0  0  0  0  0  0  0  0  0  0
   44.9186    4.8003    3.7387 C   0  0  0  0  0  0  0  0  0  0  0  0
   45.9990    5.7226    3.3840 N   0  0  0  0  0  0  0  0  0  0  0  0
   44.1653    7.8460    4.4650 O   0  0  0  0  0  0  0  0  0  0  0  0
   43.5601    2.5246    7.7910 C   0  0  0  0  0  0  0  0  0  0  0  0
   44.5116    3.3512    6.9390 C   0  0  0  0  0  0  0  0  0  0  0  0
   36.6794    5.7342   12.9173 C   0  0  1  0  0  0  0  0  0  0  0  0
   45.7541    2.6467    6.5636 N   0  0  0  0  0  0  0  0  0  0  0  0
   35.3500    5.7622   13.4302 O   0  0  0  0  0  0  0  0  0  0  0  0
   39.3357    6.2122    8.7848 C   0  0  2  0  0  0  0  0  0  0  0  0
   38.6482    7.3961    9.2849 N   0  0  0  0  0  0  0  0  0  0  0  0
   48.0423    2.4687    5.5978 C   0  0  0  0  0  0  0  0  0  0  0  0
   47.6316    1.6422    4.3423 C   0  0  0  0  0  0  0  0  0  0  0  0
   46.9274    3.4270    6.0924 C   0  0  0  0  0  0  0  0  0  0  0  0
   48.7083    0.6960    3.9218 N   0  0  0  0  0  0  0  0  0  0  0  0
   41.3437    7.4485    5.1059 O   0  0  0  0  0  0  0  0  0  0  0  0
   37.6870    6.3092   13.9328 C   0  0  2  0  0  0  0  0  0  0  0  0
   37.3788    7.6493   14.3081 O   0  0  0  0  0  0  0  0  0  0  0  0
   39.7431    5.3621    9.9716 C   0  0  2  0  0  0  0  0  0  0  0  0
   39.1200    6.2582   13.3729 C   0  0  2  0  0  0  0  0  0  0  0  0
   39.4642    4.9291   12.9667 O   0  0  0  0  0  0  0  0  0  0  0  0
   40.4762    4.0532    9.4680 C   0  0  2  0  0  0  0  0  0  0  0  0
   40.8733    3.2626   10.6322 O   0  0  0  0  0  0  0  0  0  0  0  0
   40.1319    6.7382   14.3787 C   0  0  0  0  0  0  0  0  0  0  0  0
   39.9836    8.0880   14.6051 O   0  0  0  0  0  0  0  0  0  0  0  0
   41.7388    4.4684    8.6393 C   0  0  1  0  0  0  0  0  0  0  0  0
   42.4425    3.3578    8.1641 O   0  0  0  0  0  0  0  0  0  0  0  0
  1  2  1  6  0  0  0
  1  5  1  0  0  0  0
  1 30  1  0  0  0  0
  3  4  1  1  0  0  0
  3  7  1  0  0  0  0
  3 35  1  0  0  0  0
  5  6  1  6  0  0  0
  5 16  1  0  0  0  0
  7 19  1  0  0  0  0
  8  4  1  0  0  0  0
  8 25  2  0  0  0  0
  9  8  1  6  0  0  0
  9 10  1  0  0  0  0
  9 13  1  0  0  0  0
 10 11  1  0  0  0  0
 11 12  1  0  0  0  0
 14 15  1  0  0  0  0
 14 36  1  0  0  0  0
 15 17  1  0  0  0  0
 16 18  1  1  0  0  0
 16 26  1  0  0  0  0
 17 23  1  0  0  0  0
 19 20  1  1  0  0  0
 19 28  1  0  0  0  0
 21 22  1  0  0  0  0
 21 23  1  0  0  0  0
 22 24  1  0  0  0  0
 26 27  1  6  0  0  0
 26 29  1  0  0  0  0
 28  2  1  6  0  0  0
 28 31  1  0  0  0  0
 29 30  1  0  0  0  0
 29 33  1  1  0  0  0
 31 32  1  1  0  0  0
 31 35  1  0  0  0  0
 33 34  1  0  0  0  0
 35 36  1  6  0  0  0
M  END
>  <CHROM.1>
176.83790299,-49.73128546,94.06073192,-155.11373439,-61.60313458,175.91316579
-48.22904555,-162.04980242,-173.16498950,-177.98098494,64.80010714,-177.68269504
-68.19804239,95.63350207,41.50955830,5.07899174,8.82126495,-2.70458075,0.70676201
-0.86869153

>  <Name>
2f4u_lig

>  <RI>
0

>  <Rbt.Current_Directory>
/home/itssahil/PROJECTS/Mol_Feturizer/New_Systems/rnas/2f4u

>  <Rbt.Executable>
rbdock ($Id: //depot/dev/client3/rdock/2013.1/src/exe/rbdock.cxx#4 $)

>  <Rbt.Library>
libRbt.so (2013.1, Build901 2013/11/27)

>  <Rbt.Parameter_File>
/export/apps/rDock/src/rDock_2013.1_src/data/scripts/dock_solv.prm

>  <Rbt.Receptor>
prm/pocket_docking_7.prm

>  <SCORE>
-17.1518

>  <SCORE.INTER>
-8.47965

>  <SCORE.INTER.CONST>
1

>  <SCORE.INTER.POLAR>
-0.655517

>  <SCORE.INTER.ROT>
14

>  <SCORE.INTER.SOLV>
16.9034

>  <SCORE.INTER.VDW>
-22.0358

>  <SCORE.INTER.norm>
-0.235546

>  <SCORE.INTRA>
-8.67211

>  <SCORE.INTRA.DIHEDRAL>
-16.4232

>  <SCORE.INTRA.DIHEDRAL.0>
26.3805

>  <SCORE.INTRA.POLAR>
0

>  <SCORE.INTRA.POLAR.0>
0

>  <SCORE.INTRA.REPUL>
0

>  <SCORE.INTRA.REPUL.0>
0

>  <SCORE.INTRA.SOLV>
2.58419

>  <SCORE.INTRA.SOLV.lig_0>
-98.5587

>  <SCORE.INTRA.VDW>
-1.75262

>  <SCORE.INTRA.VDW.0>
-2.91167

>  <SCORE.INTRA.norm>
-0.240892

>  <SCORE.RESTR>
0

>  <SCORE.RESTR.CAVITY>
0

>  <SCORE.RESTR.norm>
0

>  <SCORE.SYSTEM>
0

>  <SCORE.SYSTEM.CONST>
0

>  <SCORE.SYSTEM.DIHEDRAL>
0

>  <SCORE.SYSTEM.SOLV>
0

>  <SCORE.SYSTEM.norm>
0

>  <SCORE.heavy>
36

>  <SCORE.norm>
-0.476438

>  <RMSD>
8.287

$$$$
2f4u_lig
 OpenBabel11021811433D
libRbt.so/2013.1/901 2013/11/27
 36 37  0  0  0  0  0  0  0  0999 V2000
   40.3983    3.7018    7.2988 C   0  0  2  0  0  0  0  0  0  0  0  0
   41.0801    4.8930    6.7564 O   0  0  0  0  0  0  0  0  0  0  0  0
   39.6729    8.8292    5.5644 C   0  0  2  0  0  0  0  0  0  0  0  0
   38.9404    9.8786    4.8047 N   0  0  0  0  0  0  0  0  0  0  0  0
   41.4707    2.8954    8.0950 C   0  0  2  0  0  0  0  0  0  0  0  0
   42.0798    3.6813    9.1839 N   0  0  0  0  0  0  0  0  0  0  0  0
   40.6321    8.0029    4.6368 C   0  0  0  0  0  0  0  0  0  0  0  0
   39.8407   10.3607    3.3404 C   0  0  0  0  0  0  0  0  0  0  0  0
   38.7744   11.4014    3.2003 C   0  0  1  0  0  0  0  0  0  0  0  0
   39.3139   12.4783    2.2523 C   0  0  0  0  0  0  0  0  0  0  0  0
   40.4139   13.3892    2.8282 C   0  0  0  0  0  0  0  0  0  0  0  0
   40.7938   14.3649    1.8047 N   0  0  0  0  0  0  0  0  0  0  0  0
   37.6306   10.8487    2.6080 O   0  0  0  0  0  0  0  0  0  0  0  0
   36.8081    9.6437    7.3629 C   0  0  0  0  0  0  0  0  0  0  0  0
   36.6672    9.6561    8.8777 C   0  0  0  0  0  0  0  0  0  0  0  0
   42.5767    2.4082    7.1010 C   0  0  1  0  0  0  0  0  0  0  0  0
   37.7257   10.4119    9.5771 N   0  0  0  0  0  0  0  0  0  0  0  0
   43.5895    1.6730    7.7830 O   0  0  0  0  0  0  0  0  0  0  0  0
   41.3444    6.8830    5.4223 C   0  0  2  0  0  0  0  0  0  0  0  0
   42.2004    6.0874    4.5513 N   0  0  0  0  0  0  0  0  0  0  0  0
   36.7739   10.4608   11.8775 C   0  0  0  0  0  0  0  0  0  0  0  0
   36.1566   11.3328   13.0118 C   0  0  0  0  0  0  0  0  0  0  0  0
   37.3665   11.2982   10.7142 C   0  0  0  0  0  0  0  0  0  0  0  0
   34.9074   12.0212   12.5679 N   0  0  0  0  0  0  0  0  0  0  0  0
   40.7560   10.0613    2.8565 O   0  0  0  0  0  0  0  0  0  0  0  0
   41.9003    1.5551    6.0092 C   0  0  2  0  0  0  0  0  0  0  0  0
   42.8291    1.0684    5.0437 O   0  0  0  0  0  0  0  0  0  0  0  0
   40.3283    5.9590    6.0634 C   0  0  2  0  0  0  0  0  0  0  0  0
   40.7984    2.3554    5.2918 C   0  0  2  0  0  0  0  0  0  0  0  0
   39.8516    2.8782    6.2301 O   0  0  0  0  0  0  0  0  0  0  0  0
   39.3907    6.7839    7.0354 C   0  0  2  0  0  0  0  0  0  0  0  0
   38.4108    5.8723    7.6246 O   0  0  0  0  0  0  0  0  0  0  0  0
   40.0676    1.5172    4.2772 C   0  0  0  0  0  0  0  0  0  0  0  0
   39.1989    2.2950    3.5453 O   0  0  0  0  0  0  0  0  0  0  0  0
   38.6645    7.8998    6.2105 C   0  0  1  0  0  0  0  0  0  0  0  0
   37.8112    8.6691    7.0070 O   0  0  0  0  0  0  0  0  0  0  0  0
  1  2  1  6  0  0  0
  1  5  1  0  0  0  0
  1 30  1  0  0  0  0
  3  4  1  6  0  0  0
  3  7  1  0  0  0  0
  3 35  1  0  0  0  0
  5  6  1  1  0  0  0
  5 16  1  0  0  0  0
  7 19  1  0  0  0  0
  8  4  1  0  0  0  0
  8 25  2  0  0  0  0
  9  8  1  6  0  0  0
  9 10  1  0  0  0  0
  9 13  1  0  0  0  0
 10 11  1  0  0  0  0
 11 12  1  0  0  0  0
 14 15  1  0  0  0  0
 14 36  1  0  0  0  0
 15 17  1  0  0  0  0
 16 18  1  1  0  0  0
 16 26  1  0  0  0  0
 17 23  1  0  0  0  0
 19 20  1  6  0  0  0
 19 28  1  0  0  0  0
 21 22  1  0  0  0  0
 21 23  1  0  0  0  0
 22 24  1  0  0  0  0
 26 27  1  6  0  0  0
 26 29  1  0  0  0  0
 28  2  1  1  0  0  0
 28 31  1  0  0  0  0
 29 30  1  0  0  0  0
 29 33  1  6  0  0  0
 31 32  1  6  0  0  0
 31 35  1  0  0  0  0
 33 34  1  0  0  0  0
 35 36  1  1  0  0  0
M  END
>  <CHROM.1>
-173.46879035,-25.10735218,161.62622859,-72.29312500,-179.07647464,79.02151921
-178.53500344,137.72981102,63.41527853,69.42760859,-170.51708964,-169.78199845
-172.99980300,65.51148194,39.64137671,7.27840759,6.33190653,0.66968046,-1.08211748
2.39348997

>  <Name>
2f4u_lig

>  <RI>
0

>  <Rbt.Current_Directory>
/home/itssahil/PROJECTS/Mol_Feturizer/New_Systems/rnas/2f4u

>  <Rbt.Executable>
rbdock ($Id: //depot/dev/client3/rdock/2013.1/src/exe/rbdock.cxx#4 $)

>  <Rbt.Library>
libRbt.so (2013.1, Build901 2013/11/27)

>  <Rbt.Parameter_File>
/export/apps/rDock/src/rDock_2013.1_src/data/scripts/dock_solv.prm

>  <Rbt.Receptor>
prm/pocket_docking_7.prm

>  <SCORE>
-24.4715

>  <SCORE.INTER>
-15.6881

>  <SCORE.INTER.CONST>
1

>  <SCORE.INTER.POLAR>
-2.85735

>  <SCORE.INTER.ROT>
14

>  <SCORE.INTER.SOLV>
14.171

>  <SCORE.INTER.VDW>
-18.5913

>  <SCORE.INTER.norm>
-0.435782

>  <SCORE.INTRA>
-8.79304

>  <SCORE.INTRA.DIHEDRAL>
-20.0687

>  <SCORE.INTRA.DIHEDRAL.0>
26.3805

>  <SCORE.INTRA.POLAR>
0

>  <SCORE.INTRA.POLAR.0>
0

>  <SCORE.INTRA.REPUL>
0

>  <SCORE.INTRA.REPUL.0>
0

>  <SCORE.INTRA.SOLV>
-0.28124

>  <SCORE.INTRA.SOLV.lig_0>
-98.5587

>  <SCORE.INTRA.VDW>
1.38194

>  <SCORE.INTRA.VDW.0>
-2.91167

>  <SCORE.INTRA.norm>
-0.244251

>  <SCORE.RESTR>
0.00964767

>  <SCORE.RESTR.CAVITY>
0.00964767

>  <SCORE.RESTR.norm>
0.000267991

>  <SCORE.SYSTEM>
0

>  <SCORE.SYSTEM.CONST>
0

>  <SCORE.SYSTEM.DIHEDRAL>
0

>  <SCORE.SYSTEM.SOLV>
0

>  <SCORE.SYSTEM.norm>
0

>  <SCORE.heavy>
36

>  <SCORE.norm>
-0.679765

>  <RMSD>
8.313

$$$$
2f4u_lig
 OpenBabel11021811433D
libRbt.so/2013.1/901 2013/11/27
 36 37  0  0  0  0  0  0  0  0999 V2000
   42.7022    2.4493    6.1923 C   0  0  2  0  0  0  0  0  0  0  0  0
   41.7051    2.6736    5.1277 O   0  0  0  0  0  0  0  0  0  0  0  0
   40.8798    6.9270    5.4781 C   0  0  2  0  0  0  0  0  0  0  0  0
   40.2928    8.2634    5.1877 N   0  0  0  0  0  0  0  0  0  0  0  0
   43.1859    0.9729    6.0493 C   0  0  2  0  0  0  0  0  0  0  0  0
   43.7730    0.6930    4.7259 N   0  0  0  0  0  0  0  0  0  0  0  0
   41.6715    6.3599    4.2473 C   0  0  0  0  0  0  0  0  0  0  0  0
   38.8119    8.1161    4.2015 C   0  0  0  0  0  0  0  0  0  0  0  0
   38.8668    9.6108    4.1526 C   0  0  1  0  0  0  0  0  0  0  0  0
   37.8437   10.0679    3.1067 C   0  0  0  0  0  0  0  0  0  0  0  0
   37.8572   11.5696    2.7662 C   0  0  0  0  0  0  0  0  0  0  0  0
   39.1796   11.9164    2.2418 N   0  0  0  0  0  0  0  0  0  0  0  0
   38.4828   10.1520    5.3871 O   0  0  0  0  0  0  0  0  0  0  0  0
   38.0279    6.6913    7.9193 C   0  0  0  0  0  0  0  0  0  0  0  0
   36.7566    7.1393    7.2137 C   0  0  0  0  0  0  0  0  0  0  0  0
   41.9751    0.0173    6.3125 C   0  0  1  0  0  0  0  0  0  0  0  0
   35.6375    7.4519    8.1252 N   0  0  0  0  0  0  0  0  0  0  0  0
   42.3633   -1.3480    6.1827 O   0  0  0  0  0  0  0  0  0  0  0  0
   42.2285    4.9518    4.5394 C   0  0  2  0  0  0  0  0  0  0  0  0
   42.9247    4.4069    3.3806 N   0  0  0  0  0  0  0  0  0  0  0  0
   35.1776    9.5973    9.3024 C   0  0  0  0  0  0  0  0  0  0  0  0
   36.6682    9.9990    9.5150 C   0  0  0  0  0  0  0  0  0  0  0  0
   34.9453    8.7621    8.0163 C   0  0  0  0  0  0  0  0  0  0  0  0
   37.5074    8.8313    9.9194 N   0  0  0  0  0  0  0  0  0  0  0  0
   38.2246    7.3084    3.7964 O   0  0  0  0  0  0  0  0  0  0  0  0
   41.4250    0.3146    7.7218 C   0  0  2  0  0  0  0  0  0  0  0  0
   40.3065   -0.5038    8.0548 O   0  0  0  0  0  0  0  0  0  0  0  0
   41.1038    4.0046    4.9069 C   0  0  2  0  0  0  0  0  0  0  0  0
   41.0247    1.7952    7.8533 C   0  0  2  0  0  0  0  0  0  0  0  0
   42.1179    2.6538    7.5099 O   0  0  0  0  0  0  0  0  0  0  0  0
   40.3346    4.5519    6.1771 C   0  0  2  0  0  0  0  0  0  0  0  0
   39.2459    3.6297    6.4973 O   0  0  0  0  0  0  0  0  0  0  0  0
   40.5617    2.1287    9.2463 C   0  0  0  0  0  0  0  0  0  0  0  0
   40.2832    3.4727    9.3527 O   0  0  0  0  0  0  0  0  0  0  0  0
   39.7620    5.9721    5.8479 C   0  0  1  0  0  0  0  0  0  0  0  0
   39.0621    6.5183    6.9277 O   0  0  0  0  0  0  0  0  0  0  0  0
  1  2  1  6  0  0  0
  1  5  1  0  0  0  0
  1 30  1  0  0  0  0
  3  4  1  6  0  0  0
  3  7  1  0  0  0  0
  3 35  1  0  0  0  0
  5  6  1  6  0  0  0
  5 16  1  0  0  0  0
  7 19  1  0  0  0  0
  8  4  1  0  0  0  0
  8 25  2  0  0  0  0
  9  8  1  1  0  0  0
  9 10  1  0  0  0  0
  9 13  1  0  0  0  0
 10 11  1  0  0  0  0
 11 12  1  0  0  0  0
 14 15  1  0  0  0  0
 14 36  1  0  0  0  0
 15 17  1  0  0  0  0
 16 18  1  1  0  0  0
 16 26  1  0  0  0  0
 17 23  1  0  0  0  0
 19 20  1  6  0  0  0
 19 28  1  0  0  0  0
 21 22  1  0  0  0  0
 21 23  1  0  0  0  0
 22 24  1  0  0  0  0
 26 27  1  6  0  0  0
 26 29  1  0  0  0  0
 28  2  1  1  0  0  0
 28 31  1  0  0  0  0
 29 30  1  0  0  0  0
 29 33  1  1  0  0  0
 31 32  1  6  0  0  0
 31 35  1  0  0  0  0
 33 34  1  0  0  0  0
 35 36  1  1  0  0  0
M  END
>  <CHROM.1>
-175.63410673,78.12613534,169.14935581,-172.64395817,60.01260925,-175.70908758
-68.84123383,127.29520075,-114.78032687,-72.26817396,65.01384394,61.75943274
176.60302241,170.33215329,39.78997040,5.47216567,6.22520921,-0.81311226,0.83417147
-0.69973725

>  <Name>
2f4u_lig

>  <RI>
0

>  <Rbt.Current_Directory>
/home/itssahil/PROJECTS/Mol_Feturizer/New_Systems/rnas/2f4u

>  <Rbt.Executable>
rbdock ($Id: //depot/dev/client3/rdock/2013.1/src/exe/rbdock.cxx#4 $)

>  <Rbt.Library>
libRbt.so (2013.1, Build901 2013/11/27)

>  <Rbt.Parameter_File>
/export/apps/rDock/src/rDock_2013.1_src/data/scripts/dock_solv.prm

>  <Rbt.Receptor>
prm/pocket_docking_8.prm

>  <SCORE>
-14.6957

>  <SCORE.INTER>
-6.061

>  <SCORE.INTER.CONST>
1

>  <SCORE.INTER.POLAR>
-1.7204

>  <SCORE.INTER.ROT>
14

>  <SCORE.INTER.SOLV>
10.1738

>  <SCORE.INTER.VDW>
-14.6306

>  <SCORE.INTER.norm>
-0.168361

>  <SCORE.INTRA>
-8.63469

>  <SCORE.INTRA.DIHEDRAL>
-21.0169

>  <SCORE.INTRA.DIHEDRAL.0>
26.3805

>  <SCORE.INTRA.POLAR>
0

>  <SCORE.INTRA.POLAR.0>
0

>  <SCORE.INTRA.REPUL>
0

>  <SCORE.INTRA.REPUL.0>
0

>  <SCORE.INTRA.SOLV>
7.60174

>  <SCORE.INTRA.SOLV.lig_0>
-98.5587

>  <SCORE.INTRA.VDW>
-1.9271

>  <SCORE.INTRA.VDW.0>
-2.91167

>  <SCORE.INTRA.norm>
-0.239853

>  <SCORE.RESTR>
0

>  <SCORE.RESTR.CAVITY>
0

>  <SCORE.RESTR.norm>
0

>  <SCORE.SYSTEM>
0

>  <SCORE.SYSTEM.CONST>
0

>  <SCORE.SYSTEM.DIHEDRAL>
0

>  <SCORE.SYSTEM.SOLV>
0

>  <SCORE.SYSTEM.norm>
0

>  <SCORE.heavy>
36

>  <SCORE.norm>
-0.408214

>  <RMSD>
8.326

$$$$
2f4u_lig
 OpenBabel11021811433D
libRbt.so/2013.1/901 2013/11/27
 36 37  0  0  0  0  0  0  0  0999 V2000
   41.2515    3.6437    3.4567 C   0  0  2  0  0  0  0  0  0  0  0  0
   41.3195    4.7068    4.4779 O   0  0  0  0  0  0  0  0  0  0  0  0
   39.1378    8.4217    5.0570 C   0  0  2  0  0  0  0  0  0  0  0  0
   38.6275    9.7955    4.7981 N   0  0  0  0  0  0  0  0  0  0  0  0
   42.0694    2.4364    4.0115 C   0  0  2  0  0  0  0  0  0  0  0  0
   41.5527    1.9453    5.3022 N   0  0  0  0  0  0  0  0  0  0  0  0
   40.7050    8.3887    5.1346 C   0  0  0  0  0  0  0  0  0  0  0  0
   39.4392   10.5290    3.3872 C   0  0  0  0  0  0  0  0  0  0  0  0
   38.6829   11.7616    3.7724 C   0  0  1  0  0  0  0  0  0  0  0  0
   39.3965   12.9525    3.1228 C   0  0  0  0  0  0  0  0  0  0  0  0
   39.4424   12.9492    1.5836 C   0  0  0  0  0  0  0  0  0  0  0  0
   40.1099   14.1726    1.1348 N   0  0  0  0  0  0  0  0  0  0  0  0
   37.3806   11.7140    3.2566 O   0  0  0  0  0  0  0  0  0  0  0  0
   35.9493    8.1533    3.7799 C   0  0  0  0  0  0  0  0  0  0  0  0
   35.6922    8.9974    5.0192 C   0  0  0  0  0  0  0  0  0  0  0  0
   43.5663    2.8671    4.1613 C   0  0  1  0  0  0  0  0  0  0  0  0
   35.6580    8.2271    6.2788 N   0  0  0  0  0  0  0  0  0  0  0  0
   44.3567    1.7990    4.6770 O   0  0  0  0  0  0  0  0  0  0  0  0
   41.2258    6.9528    5.3478 C   0  0  2  0  0  0  0  0  0  0  0  0
   42.6826    6.9165    5.3744 N   0  0  0  0  0  0  0  0  0  0  0  0
   33.8968    8.8884    7.9100 C   0  0  0  0  0  0  0  0  0  0  0  0
   33.5408    9.6720    9.2090 C   0  0  0  0  0  0  0  0  0  0  0  0
   35.4080    8.9305    7.5635 C   0  0  0  0  0  0  0  0  0  0  0  0
   34.1791    9.0674   10.4167 N   0  0  0  0  0  0  0  0  0  0  0  0
   40.1743   10.2166    2.6637 O   0  0  0  0  0  0  0  0  0  0  0  0
   44.0748    3.3281    2.7807 C   0  0  2  0  0  0  0  0  0  0  0  0
   45.4353    3.7519    2.8140 O   0  0  0  0  0  0  0  0  0  0  0  0
   40.7479    6.0463    4.2311 C   0  0  2  0  0  0  0  0  0  0  0  0
   43.2031    4.4704    2.2285 C   0  0  2  0  0  0  0  0  0  0  0  0
   41.8228    4.0911    2.1946 O   0  0  0  0  0  0  0  0  0  0  0  0
   39.1661    6.0422    4.1828 C   0  0  2  0  0  0  0  0  0  0  0  0
   38.7343    5.1757    3.0870 O   0  0  0  0  0  0  0  0  0  0  0  0
   43.6298    4.8820    0.8448 C   0  0  0  0  0  0  0  0  0  0  0  0
   43.4999    3.8292   -0.0327 O   0  0  0  0  0  0  0  0  0  0  0  0
   38.6640    7.5066    3.9451 C   0  0  1  0  0  0  0  0  0  0  0  0
   37.2692    7.5794    3.8857 O   0  0  0  0  0  0  0  0  0  0  0  0
  1  2  1  1  0  0  0
  1  5  1  0  0  0  0
  1 30  1  0  0  0  0
  3  4  1  6  0  0  0
  3  7  1  0  0  0  0
  3 35  1  0  0  0  0
  5  6  1  1  0  0  0
  5 16  1  0  0  0  0
  7 19  1  0  0  0  0
  8  4  1  0  0  0  0
  8 25  2  0  0  0  0
  9  8  1  6  0  0  0
  9 10  1  0  0  0  0
  9 13  1  0  0  0  0
 10 11  1  0  0  0  0
 11 12  1  0  0  0  0
 14 15  1  0  0  0  0
 14 36  1  0  0  0  0
 15 17  1  0  0  0  0
 16 18  1  6  0  0  0
 16 26  1  0  0  0  0
 17 23  1  0  0  0  0
 19 20  1  6  0  0  0
 19 28  1  0  0  0  0
 21 22  1  0  0  0  0
 21 23  1  0  0  0  0
 22 24  1  0  0  0  0
 26 27  1  1  0  0  0
 26 29  1  0  0  0  0
 28  2  1  1  0  0  0
 28 31  1  0  0  0  0
 29 30  1  0  0  0  0
 29 33  1  6  0  0  0
 31 32  1  6  0  0  0
 31 35  1  0  0  0  0
 33 34  1  0  0  0  0
 35 36  1  1  0  0  0
M  END
>  <CHROM.1>
174.61383225,51.44437938,160.02322253,62.04981874,177.90749904,-64.12481265
-66.57699056,-179.67721831,94.01089011,-64.12276730,-176.94407911,-169.03340615
61.43337654,54.84617035,39.78914027,7.21570798,4.16325594,0.51347669,-0.66305285
2.68865388

>  <Name>
2f4u_lig

>  <RI>
0

>  <Rbt.Current_Directory>
/home/itssahil/PROJECTS/Mol_Feturizer/New_Systems/rnas/2f4u

>  <Rbt.Executable>
rbdock ($Id: //depot/dev/client3/rdock/2013.1/src/exe/rbdock.cxx#4 $)

>  <Rbt.Library>
libRbt.so (2013.1, Build901 2013/11/27)

>  <Rbt.Parameter_File>
/export/apps/rDock/src/rDock_2013.1_src/data/scripts/dock_solv.prm

>  <Rbt.Receptor>
prm/pocket_docking_8.prm

>  <SCORE>
-17.5066

>  <SCORE.INTER>
-5.87375

>  <SCORE.INTER.CONST>
1

>  <SCORE.INTER.POLAR>
-0.782225

>  <SCORE.INTER.ROT>
14

>  <SCORE.INTER.SOLV>
10.368

>  <SCORE.INTER.VDW>
-17.6977

>  <SCORE.INTER.norm>
-0.16316

>  <SCORE.INTRA>
-11.6375

>  <SCORE.INTRA.DIHEDRAL>
-23.1818

>  <SCORE.INTRA.DIHEDRAL.0>
26.3805

>  <SCORE.INTRA.POLAR>
0

>  <SCORE.INTRA.POLAR.0>
0

>  <SCORE.INTRA.REPUL>
0

>  <SCORE.INTRA.REPUL.0>
0

>  <SCORE.INTRA.SOLV>
2.21274

>  <SCORE.INTRA.SOLV.lig_0>
-98.5587

>  <SCORE.INTRA.VDW>
-1.15296

>  <SCORE.INTRA.VDW.0>
-2.91167

>  <SCORE.INTRA.norm>
-0.323264

>  <SCORE.RESTR>
0.00463835

>  <SCORE.RESTR.CAVITY>
0.00463835

>  <SCORE.RESTR.norm>
0.000128843

>  <SCORE.SYSTEM>
0

>  <SCORE.SYSTEM.CONST>
0

>  <SCORE.SYSTEM.DIHEDRAL>
0

>  <SCORE.SYSTEM.SOLV>
0

>  <SCORE.SYSTEM.norm>
0

>  <SCORE.heavy>
36

>  <SCORE.norm>
-0.486294

>  <RMSD>
8.336

$$$$
2f4u_lig
 OpenBabel11021811433D
libRbt.so/2013.1/901 2013/11/27
 36 37  0  0  0  0  0  0  0  0999 V2000
   44.9738    2.4248    5.1614 C   0  0  2  0  0  0  0  0  0  0  0  0
   45.0167    3.3409    6.3176 O   0  0  0  0  0  0  0  0  0  0  0  0
   40.9093    4.7389    6.5814 C   0  0  2  0  0  0  0  0  0  0  0  0
   39.6878    5.3856    7.1332 N   0  0  0  0  0  0  0  0  0  0  0  0
   46.4534    2.0742    4.8123 C   0  0  2  0  0  0  0  0  0  0  0  0
   47.1702    1.4490    5.9390 N   0  0  0  0  0  0  0  0  0  0  0  0
   41.4282    3.5870    7.5124 C   0  0  0  0  0  0  0  0  0  0  0  0
   40.0156    6.1319    8.7217 C   0  0  0  0  0  0  0  0  0  0  0  0
   38.5409    6.3856    8.7473 C   0  0  1  0  0  0  0  0  0  0  0  0
   37.9355    5.4349    9.7861 C   0  0  0  0  0  0  0  0  0  0  0  0
   38.0866    3.9316    9.4885 C   0  0  0  0  0  0  0  0  0  0  0  0
   37.3737    3.1782   10.5220 N   0  0  0  0  0  0  0  0  0  0  0  0
   38.2805    7.6967    9.1689 O   0  0  0  0  0  0  0  0  0  0  0  0
   40.6433    7.8975    5.1723 C   0  0  0  0  0  0  0  0  0  0  0  0
   39.2666    7.3354    4.8507 C   0  0  0  0  0  0  0  0  0  0  0  0
   47.1899    3.3808    4.3661 C   0  0  1  0  0  0  0  0  0  0  0  0
   38.3904    8.2675    4.1128 N   0  0  0  0  0  0  0  0  0  0  0  0
   48.5531    3.1156    4.0455 O   0  0  0  0  0  0  0  0  0  0  0  0
   42.7248    2.9607    6.9600 C   0  0  2  0  0  0  0  0  0  0  0  0
   43.2312    1.9218    7.8481 N   0  0  0  0  0  0  0  0  0  0  0  0
   36.4977    9.8725    3.9093 C   0  0  0  0  0  0  0  0  0  0  0  0
   35.4935    8.8527    3.2931 C   0  0  0  0  0  0  0  0  0  0  0  0
   37.5290    9.2166    4.8642 C   0  0  0  0  0  0  0  0  0  0  0  0
   34.6880    8.1603    4.3434 N   0  0  0  0  0  0  0  0  0  0  0  0
   40.8756    6.2587    9.3586 O   0  0  0  0  0  0  0  0  0  0  0  0
   46.4327    3.9721    3.1602 C   0  0  2  0  0  0  0  0  0  0  0  0
   47.0242    5.1776    2.6822 O   0  0  0  0  0  0  0  0  0  0  0  0
   43.7986    4.0191    6.8056 C   0  0  2  0  0  0  0  0  0  0  0  0
   44.9587    4.2387    3.5151 C   0  0  2  0  0  0  0  0  0  0  0  0
   44.3303    3.0541    4.0171 O   0  0  0  0  0  0  0  0  0  0  0  0
   43.2938    5.1576    5.8291 C   0  0  2  0  0  0  0  0  0  0  0  0
   44.3405    6.1720    5.7134 O   0  0  0  0  0  0  0  0  0  0  0  0
   44.1786    4.7392    2.3289 C   0  0  0  0  0  0  0  0  0  0  0  0
   42.8294    4.7337    2.6024 O   0  0  0  0  0  0  0  0  0  0  0  0
   41.9897    5.7904    6.4224 C   0  0  1  0  0  0  0  0  0  0  0  0
   41.4870    6.8121    5.6113 O   0  0  0  0  0  0  0  0  0  0  0  0
  1  2  1  1  0  0  0
  1  5  1  0  0  0  0
  1 30  1  0  0  0  0
  3  4  1  1  0  0  0
  3  7  1  0  0  0  0
  3 35  1  0  0  0  0
  5  6  1  1  0  0  0
  5 16  1  0  0  0  0
  7 19  1  0  0  0  0
  8  4  1  0  0  0  0
  8 25  2  0  0  0  0
  9  8  1  1  0  0  0
  9 10  1  0  0  0  0
  9 13  1  0  0  0  0
 10 11  1  0  0  0  0
 11 12  1  0  0  0  0
 14 15  1  0  0  0  0
 14 36  1  0  0  0  0
 15 17  1  0  0  0  0
 16 18  1  6  0  0  0
 16 26  1  0  0  0  0
 17 23  1  0  0  0  0
 19 20  1  1  0  0  0
 19 28  1  0  0  0  0
 21 22  1  0  0  0  0
 21 23  1  0  0  0  0
 22 24  1  0  0  0  0
 26 27  1  1  0  0  0
 26 29  1  0  0  0  0
 28  2  1  6  0  0  0
 28 31  1  0  0  0  0
 29 30  1  0  0  0  0
 29 33  1  6  0  0  0
 31 32  1  1  0  0  0
 31 35  1  0  0  0  0
 33 34  1  0  0  0  0
 35 36  1  6  0  0  0
M  END
>  <CHROM.1>
171.78823092,61.34777221,108.33809638,-62.70221494,-175.94881137,-167.23815553
-69.36891308,-88.50795439,-168.19040094,60.65655193,63.82087867,49.58093680
168.93093406,62.35826663,41.85157286,5.20938453,5.86062884,0.03050616,-0.48200886
2.10457410

>  <Name>
2f4u_lig

>  <RI>
0

>  <Rbt.Current_Directory>
/home/itssahil/PROJECTS/Mol_Feturizer/New_Systems/rnas/2f4u

>  <Rbt.Executable>
rbdock ($Id: //depot/dev/client3/rdock/2013.1/src/exe/rbdock.cxx#4 $)

>  <Rbt.Library>
libRbt.so (2013.1, Build901 2013/11/27)

>  <Rbt.Parameter_File>
/export/apps/rDock/src/rDock_2013.1_src/data/scripts/dock_solv.prm

>  <Rbt.Receptor>
prm/pocket_docking_7.prm

>  <SCORE>
-15.4985

>  <SCORE.INTER>
-4.33347

>  <SCORE.INTER.CONST>
1

>  <SCORE.INTER.POLAR>
-1.60609

>  <SCORE.INTER.ROT>
14

>  <SCORE.INTER.SOLV>
11.1754

>  <SCORE.INTER.VDW>
-14.1938

>  <SCORE.INTER.norm>
-0.120374

>  <SCORE.INTRA>
-11.165

>  <SCORE.INTRA.DIHEDRAL>
-20.8535

>  <SCORE.INTRA.DIHEDRAL.0>
26.3805

>  <SCORE.INTRA.POLAR>
0

>  <SCORE.INTRA.POLAR.0>
0

>  <SCORE.INTRA.REPUL>
0

>  <SCORE.INTRA.REPUL.0>
0

>  <SCORE.INTRA.SOLV>
2.72778

>  <SCORE.INTRA.SOLV.lig_0>
-98.5587

>  <SCORE.INTRA.VDW>
-2.10219

>  <SCORE.INTRA.VDW.0>
-2.91167

>  <SCORE.INTRA.norm>
-0.31014

>  <SCORE.RESTR>
0

>  <SCORE.RESTR.CAVITY>
0

>  <SCORE.RESTR.norm>
0

>  <SCORE.SYSTEM>
0

>  <SCORE.SYSTEM.CONST>
0

>  <SCORE.SYSTEM.DIHEDRAL>
0

>  <SCORE.SYSTEM.SOLV>
0

>  <SCORE.SYSTEM.norm>
0

>  <SCORE.heavy>
36

>  <SCORE.norm>
-0.430514

>  <RMSD>
8.341

$$$$
2f4u_lig
 OpenBabel11021811433D
libRbt.so/2013.1/901 2013/11/27
 36 37  0  0  0  0  0  0  0  0999 V2000
   37.3054    7.7066   11.1265 C   0  0  2  0  0  0  0  0  0  0  0  0
   36.2853    7.4280   10.0970 O   0  0  0  0  0  0  0  0  0  0  0  0
   36.8373    6.2693    5.9439 C   0  0  2  0  0  0  0  0  0  0  0  0
   37.1159    6.3885    4.4868 N   0  0  0  0  0  0  0  0  0  0  0  0
   36.6041    7.5362   12.5097 C   0  0  2  0  0  0  0  0  0  0  0  0
   36.0372    6.1880   12.6971 N   0  0  0  0  0  0  0  0  0  0  0  0
   35.6157    7.1547    6.3765 C   0  0  0  0  0  0  0  0  0  0  0  0
   35.7732    5.7215    3.5175 C   0  0  0  0  0  0  0  0  0  0  0  0
   36.6787    5.9715    2.3525 C   0  0  1  0  0  0  0  0  0  0  0  0
   36.3269    4.9390    1.2755 C   0  0  0  0  0  0  0  0  0  0  0  0
   37.2942    4.8604    0.0799 C   0  0  0  0  0  0  0  0  0  0  0  0
   36.8491    3.7858   -0.8095 N   0  0  0  0  0  0  0  0  0  0  0  0
   36.4397    7.2437    1.8152 O   0  0  0  0  0  0  0  0  0  0  0  0
   40.1169    5.3130    5.4008 C   0  0  0  0  0  0  0  0  0  0  0  0
   39.3794    4.4503    4.3875 C   0  0  0  0  0  0  0  0  0  0  0  0
   35.4782    8.6150   12.6411 C   0  0  1  0  0  0  0  0  0  0  0  0
   40.2643    3.7198    3.4578 N   0  0  0  0  0  0  0  0  0  0  0  0
   34.7974    8.4947   13.8874 O   0  0  0  0  0  0  0  0  0  0  0  0
   35.3701    7.0670    7.8965 C   0  0  2  0  0  0  0  0  0  0  0  0
   34.2643    7.9245    8.3045 N   0  0  0  0  0  0  0  0  0  0  0  0
   41.7270    1.8410    2.7294 C   0  0  0  0  0  0  0  0  0  0  0  0
   43.0515    2.6415    2.5472 C   0  0  0  0  0  0  0  0  0  0  0  0
   40.8221    2.4019    3.8573 C   0  0  0  0  0  0  0  0  0  0  0  0
   42.8006    4.0273    2.0492 N   0  0  0  0  0  0  0  0  0  0  0  0
   34.8071    5.2893    3.7209 O   0  0  0  0  0  0  0  0  0  0  0  0
   36.1243   10.0061   12.4845 C   0  0  2  0  0  0  0  0  0  0  0  0
   35.1731   11.0634   12.5804 O   0  0  0  0  0  0  0  0  0  0  0  0
   36.6091    7.4949    8.6573 C   0  0  2  0  0  0  0  0  0  0  0  0
   36.8693   10.1170   11.1420 C   0  0  2  0  0  0  0  0  0  0  0  0
   37.8248    9.0604   10.9976 O   0  0  0  0  0  0  0  0  0  0  0  0
   37.8305    6.5718    8.2567 C   0  0  2  0  0  0  0  0  0  0  0  0
   39.0140    7.0180    8.9905 O   0  0  0  0  0  0  0  0  0  0  0  0
   37.5780   11.4377   11.0020 C   0  0  0  0  0  0  0  0  0  0  0  0
   38.1076   11.5688    9.7381 O   0  0  0  0  0  0  0  0  0  0  0  0
   38.0719    6.6946    6.7140 C   0  0  1  0  0  0  0  0  0  0  0  0
   39.1445    5.9063    6.2869 O   0  0  0  0  0  0  0  0  0  0  0  0
  1  2  1  6  0  0  0
  1  5  1  0  0  0  0
  1 30  1  0  0  0  0
  3  4  1  6  0  0  0
  3  7  1  0  0  0  0
  3 35  1  0  0  0  0
  5  6  1  6  0  0  0
  5 16  1  0  0  0  0
  7 19  1  0  0  0  0
  8  4  1  0  0  0  0
  8 25  2  0  0  0  0
  9  8  1  1  0  0  0
  9 10  1  0  0  0  0
  9 13  1  0  0  0  0
 10 11  1  0  0  0  0
 11 12  1  0  0  0  0
 14 15  1  0  0  0  0
 14 36  1  0  0  0  0
 15 17  1  0  0  0  0
 16 18  1  1  0  0  0
 16 26  1  0  0  0  0
 17 23  1  0  0  0  0
 19 20  1  1  0  0  0
 19 28  1  0  0  0  0
 21 22  1  0  0  0  0
 21 23  1  0  0  0  0
 22 24  1  0  0  0  0
 26 27  1  6  0  0  0
 26 29  1  0  0  0  0
 28  2  1  1  0  0  0
 28 31  1  0  0  0  0
 29 30  1  0  0  0  0
 29 33  1  1  0  0  0
 31 32  1  1  0  0  0
 31 35  1  0  0  0  0
 33 34  1  0  0  0  0
 35 36  1  6  0  0  0
M  END
>  <CHROM.1>
-179.83827434,-65.54420885,151.24451764,-170.14310157,177.14639755,-176.83723448
-64.37411750,85.63148348,-179.42508814,-66.61159430,69.35449224,176.33820862
-173.28318027,59.32434816,37.51181847,6.69787165,6.95067232,-1.85630339,0.43746140
-1.92783749

>  <Name>
2f4u_lig

>  <RI>
0

>  <Rbt.Current_Directory>
/home/itssahil/PROJECTS/Mol_Feturizer/New_Systems/rnas/2f4u

>  <Rbt.Executable>
rbdock ($Id: //depot/dev/client3/rdock/2013.1/src/exe/rbdock.cxx#4 $)

>  <Rbt.Library>
libRbt.so (2013.1, Build901 2013/11/27)

>  <Rbt.Parameter_File>
/export/apps/rDock/src/rDock_2013.1_src/data/scripts/dock_solv.prm

>  <Rbt.Receptor>
prm/pocket_docking_8.prm

>  <SCORE>
-16.3848

>  <SCORE.INTER>
-4.30765

>  <SCORE.INTER.CONST>
1

>  <SCORE.INTER.POLAR>
-1.97567

>  <SCORE.INTER.ROT>
14

>  <SCORE.INTER.SOLV>
8.30451

>  <SCORE.INTER.VDW>
-11.9877

>  <SCORE.INTER.norm>
-0.119657

>  <SCORE.INTRA>
-12.0772

>  <SCORE.INTRA.DIHEDRAL>
-23.178

>  <SCORE.INTRA.DIHEDRAL.0>
26.3805

>  <SCORE.INTRA.POLAR>
0

>  <SCORE.INTRA.POLAR.0>
0

>  <SCORE.INTRA.REPUL>
0

>  <SCORE.INTRA.REPUL.0>
0

>  <SCORE.INTRA.SOLV>
1.58411

>  <SCORE.INTRA.SOLV.lig_0>
-98.5587

>  <SCORE.INTRA.VDW>
-1.28024

>  <SCORE.INTRA.VDW.0>
-2.91167

>  <SCORE.INTRA.norm>
-0.335477

>  <SCORE.RESTR>
0

>  <SCORE.RESTR.CAVITY>
0

>  <SCORE.RESTR.norm>
0

>  <SCORE.SYSTEM>
0

>  <SCORE.SYSTEM.CONST>
0

>  <SCORE.SYSTEM.DIHEDRAL>
0

>  <SCORE.SYSTEM.SOLV>
0

>  <SCORE.SYSTEM.norm>
0

>  <SCORE.heavy>
36

>  <SCORE.norm>
-0.455134

>  <RMSD>
8.350

$$$$
2f4u_lig
 OpenBabel11021811433D
libRbt.so/2013.1/901 2013/11/27
 36 37  0  0  0  0  0  0  0  0999 V2000
   43.8711    2.8023    8.0971 C   0  0  2  0  0  0  0  0  0  0  0  0
   43.4238    4.0328    7.4162 O   0  0  0  0  0  0  0  0  0  0  0  0
   40.1367    6.6386    8.5563 C   0  0  2  0  0  0  0  0  0  0  0  0
   38.7501    7.1662    8.6741 N   0  0  0  0  0  0  0  0  0  0  0  0
   45.2967    2.4809    7.5509 C   0  0  2  0  0  0  0  0  0  0  0  0
   46.2551    3.5769    7.7845 N   0  0  0  0  0  0  0  0  0  0  0  0
   40.5895    6.5236    7.0580 C   0  0  0  0  0  0  0  0  0  0  0  0
   37.6401    6.3136    7.5658 C   0  0  0  0  0  0  0  0  0  0  0  0
   36.6363    7.3261    8.0207 C   0  0  1  0  0  0  0  0  0  0  0  0
   35.9100    7.8371    6.7714 C   0  0  0  0  0  0  0  0  0  0  0  0
   36.7860    8.5702    5.7387 C   0  0  0  0  0  0  0  0  0  0  0  0
   37.3813    9.7433    6.3817 N   0  0  0  0  0  0  0  0  0  0  0  0
   35.6809    6.7245    8.8511 O   0  0  0  0  0  0  0  0  0  0  0  0
   39.4429    5.0443   11.8946 C   0  0  0  0  0  0  0  0  0  0  0  0
   38.9523    6.2888   12.6193 C   0  0  0  0  0  0  0  0  0  0  0  0
   45.1936    2.1752    6.0197 C   0  0  1  0  0  0  0  0  0  0  0  0
   37.6482    6.7915   12.1421 N   0  0  0  0  0  0  0  0  0  0  0  0
   46.4755    1.8851    5.4685 O   0  0  0  0  0  0  0  0  0  0  0  0
   42.0061    5.9244    6.9448 C   0  0  2  0  0  0  0  0  0  0  0  0
   42.4083    5.7755    5.5518 N   0  0  0  0  0  0  0  0  0  0  0  0
   35.7825    8.4313   11.9691 C   0  0  0  0  0  0  0  0  0  0  0  0
   34.6449    7.3930   12.2056 C   0  0  0  0  0  0  0  0  0  0  0  0
   37.1071    8.0634   12.6872 C   0  0  0  0  0  0  0  0  0  0  0  0
   34.1171    7.4534   13.6017 N   0  0  0  0  0  0  0  0  0  0  0  0
   37.7154    5.4986    6.8647 O   0  0  0  0  0  0  0  0  0  0  0  0
   44.2187    0.9960    5.8291 C   0  0  2  0  0  0  0  0  0  0  0  0
   44.0489    0.6446    4.4582 O   0  0  0  0  0  0  0  0  0  0  0  0
   42.0565    4.5598    7.6026 C   0  0  2  0  0  0  0  0  0  0  0  0
   42.8438    1.3162    6.4427 C   0  0  2  0  0  0  0  0  0  0  0  0
   42.9718    1.6919    7.8184 O   0  0  0  0  0  0  0  0  0  0  0  0
   41.6456    4.6827    9.1259 C   0  0  2  0  0  0  0  0  0  0  0  0
   41.6853    3.3514    9.7295 O   0  0  0  0  0  0  0  0  0  0  0  0
   41.8996    0.1481    6.3420 C   0  0  0  0  0  0  0  0  0  0  0  0
   41.5715   -0.0944    5.0273 O   0  0  0  0  0  0  0  0  0  0  0  0
   40.1976    5.2734    9.2126 C   0  0  1  0  0  0  0  0  0  0  0  0
   39.7639    5.4062   10.5349 O   0  0  0  0  0  0  0  0  0  0  0  0
  1  2  1  6  0  0  0
  1  5  1  0  0  0  0
  1 30  1  0  0  0  0
  3  4  1  6  0  0  0
  3  7  1  0  0  0  0
  3 35  1  0  0  0  0
  5  6  1  6  0  0  0
  5 16  1  0  0  0  0
  7 19  1  0  0  0  0
  8  4  1  0  0  0  0
  8 25  2  0  0  0  0
  9  8  1  6  0  0  0
  9 10  1  0  0  0  0
  9 13  1  0  0  0  0
 10 11  1  0  0  0  0
 11 12  1  0  0  0  0
 14 15  1  0  0  0  0
 14 36  1  0  0  0  0
 15 17  1  0  0  0  0
 16 18  1  1  0  0  0
 16 26  1  0  0  0  0
 17 23  1  0  0  0  0
 19 20  1  6  0  0  0
 19 28  1  0  0  0  0
 21 22  1  0  0  0  0
 21 23  1  0  0  0  0
 22 24  1  0  0  0  0
 26 27  1  6  0  0  0
 26 29  1  0  0  0  0
 28  2  1  1  0  0  0
 28 31  1  0  0  0  0
 29 30  1  0  0  0  0
 29 33  1  1  0  0  0
 31 32  1  6  0  0  0
 31 35  1  0  0  0  0
 33 34  1  0  0  0  0
 35 36  1  1  0  0  0
M  END
>  <CHROM.1>
174.27639549,47.80350868,134.73884413,-62.87086912,-60.34480325,68.13316689
178.48674897,-174.98527776,176.17481453,71.62665914,63.48799700,171.40091854
-67.35814258,-176.93419311,40.36458174,4.91134796,8.27868635,-0.35805876
-0.65596728,1.65141640

>  <Name>
2f4u_lig

>  <RI>
0

>  <Rbt.Current_Directory>
/home/itssahil/PROJECTS/Mol_Feturizer/New_Systems/rnas/2f4u

>  <Rbt.Executable>
rbdock ($Id: //depot/dev/client3/rdock/2013.1/src/exe/rbdock.cxx#4 $)

>  <Rbt.Library>
libRbt.so (2013.1, Build901 2013/11/27)

>  <Rbt.Parameter_File>
/export/apps/rDock/src/rDock_2013.1_src/data/scripts/dock_solv.prm

>  <Rbt.Receptor>
prm/pocket_docking_4.prm

>  <SCORE>
-13.8325

>  <SCORE.INTER>
-2.91247

>  <SCORE.INTER.CONST>
1

>  <SCORE.INTER.POLAR>
-2.18437

>  <SCORE.INTER.ROT>
14

>  <SCORE.INTER.SOLV>
12.9207

>  <SCORE.INTER.VDW>
-11.9007

>  <SCORE.INTER.norm>
-0.080902

>  <SCORE.INTRA>
-10.9206

>  <SCORE.INTRA.DIHEDRAL>
-22.4717

>  <SCORE.INTRA.DIHEDRAL.0>
26.3805

>  <SCORE.INTRA.POLAR>
0

>  <SCORE.INTRA.POLAR.0>
0

>  <SCORE.INTRA.REPUL>
0

>  <SCORE.INTRA.REPUL.0>
0

>  <SCORE.INTRA.SOLV>
3.91954

>  <SCORE.INTRA.SOLV.lig_0>
-98.5587

>  <SCORE.INTRA.VDW>
-1.64453

>  <SCORE.INTRA.VDW.0>
-2.91167

>  <SCORE.INTRA.norm>
-0.30335

>  <SCORE.RESTR>
0.000536097

>  <SCORE.RESTR.CAVITY>
0.000536097

>  <SCORE.RESTR.norm>
1.48916e-05

>  <SCORE.SYSTEM>
0

>  <SCORE.SYSTEM.CONST>
0

>  <SCORE.SYSTEM.DIHEDRAL>
0

>  <SCORE.SYSTEM.SOLV>
0

>  <SCORE.SYSTEM.norm>
0

>  <SCORE.heavy>
36

>  <SCORE.norm>
-0.384237

>  <RMSD>
8.377

$$$$
2f4u_lig
 OpenBabel11021811433D
libRbt.so/2013.1/901 2013/11/27
 36 37  0  0  0  0  0  0  0  0999 V2000
   35.5650    4.1042   11.6439 C   0  0  2  0  0  0  0  0  0  0  0  0
   36.6249    3.6082   12.5431 O   0  0  0  0  0  0  0  0  0  0  0  0
   40.1522    3.7136   10.0050 C   0  0  2  0  0  0  0  0  0  0  0  0
   41.5741    3.5835    9.5854 N   0  0  0  0  0  0  0  0  0  0  0  0
   34.3094    4.3653   12.5324 C   0  0  2  0  0  0  0  0  0  0  0  0
   34.5682    5.3380   13.6100 N   0  0  0  0  0  0  0  0  0  0  0  0
   39.9875    4.7228   11.1957 C   0  0  0  0  0  0  0  0  0  0  0  0
   41.8935    4.5124    8.0946 C   0  0  0  0  0  0  0  0  0  0  0  0
   43.2451    3.8729    8.1555 C   0  0  1  0  0  0  0  0  0  0  0  0
   43.2038    2.6388    7.2473 C   0  0  0  0  0  0  0  0  0  0  0  0
   43.0640    2.9195    5.7396 C   0  0  0  0  0  0  0  0  0  0  0  0
   44.3389    3.4404    5.2426 N   0  0  0  0  0  0  0  0  0  0  0  0
   44.2181    4.7431    7.6454 O   0  0  0  0  0  0  0  0  0  0  0  0
   39.7518    0.9383    8.0089 C   0  0  0  0  0  0  0  0  0  0  0  0
   38.2904    0.8923    7.5883 C   0  0  0  0  0  0  0  0  0  0  0  0
   33.8297    3.0056   13.1404 C   0  0  1  0  0  0  0  0  0  0  0  0
   38.0755    0.4447    6.1974 N   0  0  0  0  0  0  0  0  0  0  0  0
   32.6874    3.1917   13.9722 O   0  0  0  0  0  0  0  0  0  0  0  0
   38.5190    4.8085   11.6590 C   0  0  2  0  0  0  0  0  0  0  0  0
   38.3737    5.7112   12.7940 N   0  0  0  0  0  0  0  0  0  0  0  0
   36.5171   -0.4987    4.5000 C   0  0  0  0  0  0  0  0  0  0  0  0
   37.5708   -0.6558    3.3628 C   0  0  0  0  0  0  0  0  0  0  0  0
   37.1196   -0.6585    5.9202 C   0  0  0  0  0  0  0  0  0  0  0  0
   38.1147   -2.0454    3.2956 N   0  0  0  0  0  0  0  0  0  0  0  0
   41.3284    5.1637    7.4481 O   0  0  0  0  0  0  0  0  0  0  0  0
   33.5281    2.0386   11.9780 C   0  0  2  0  0  0  0  0  0  0  0  0
   33.0897    0.7603   12.4314 O   0  0  0  0  0  0  0  0  0  0  0  0
   38.0148    3.4402   12.0722 C   0  0  2  0  0  0  0  0  0  0  0  0
   34.7647    1.8590   11.0790 C   0  0  2  0  0  0  0  0  0  0  0  0
   35.2487    3.1241   10.6149 O   0  0  0  0  0  0  0  0  0  0  0  0
   38.1366    2.4337   10.8571 C   0  0  2  0  0  0  0  0  0  0  0  0
   37.6612    1.1201   11.2889 O   0  0  0  0  0  0  0  0  0  0  0  0
   34.4706    0.9836    9.8901 C   0  0  0  0  0  0  0  0  0  0  0  0
   35.5783    0.8847    9.0788 O   0  0  0  0  0  0  0  0  0  0  0  0
   39.6382    2.3491   10.4197 C   0  0  1  0  0  0  0  0  0  0  0  0
   39.8234    1.4700    9.3486 O   0  0  0  0  0  0  0  0  0  0  0  0
  1  2  1  1  0  0  0
  1  5  1  0  0  0  0
  1 30  1  0  0  0  0
  3  4  1  1  0  0  0
  3  7  1  0  0  0  0
  3 35  1  0  0  0  0
  5  6  1  1  0  0  0
  5 16  1  0  0  0  0
  7 19  1  0  0  0  0
  8  4  1  0  0  0  0
  8 25  2  0  0  0  0
  9  8  1  6  0  0  0
  9 10  1  0  0  0  0
  9 13  1  0  0  0  0
 10 11  1  0  0  0  0
 11 12  1  0  0  0  0
 14 15  1  0  0  0  0
 14 36  1  0  0  0  0
 15 17  1  0  0  0  0
 16 18  1  6  0  0  0
 16 26  1  0  0  0  0
 17 23  1  0  0  0  0
 19 20  1  1  0  0  0
 19 28  1  0  0  0  0
 21 22  1  0  0  0  0
 21 23  1  0  0  0  0
 22 24  1  0  0  0  0
 26 27  1  1  0  0  0
 26 29  1  0  0  0  0
 28  2  1  6  0  0  0
 28 31  1  0  0  0  0
 29 30  1  0  0  0  0
 29 33  1  6  0  0  0
 31 32  1  1  0  0  0
 31 35  1  0  0  0  0
 33 34  1  0  0  0  0
 35 36  1  6  0  0  0
M  END
>  <CHROM.1>
-171.15200265,-102.26822748,95.97921660,67.53331732,73.14709107,176.35715724
-54.83024438,128.12470024,151.53899551,66.23984084,65.31984279,61.82285103
177.64153864,-53.77493137,38.11277432,2.54521943,9.45254695,-2.55421114,-0.40315537
-2.19578901

>  <Name>
2f4u_lig

>  <RI>
0

>  <Rbt.Current_Directory>
/home/itssahil/PROJECTS/Mol_Feturizer/New_Systems/rnas/2f4u

>  <Rbt.Executable>
rbdock ($Id: //depot/dev/client3/rdock/2013.1/src/exe/rbdock.cxx#4 $)

>  <Rbt.Library>
libRbt.so (2013.1, Build901 2013/11/27)

>  <Rbt.Parameter_File>
/export/apps/rDock/src/rDock_2013.1_src/data/scripts/dock_solv.prm

>  <Rbt.Receptor>
prm/pocket_docking_8.prm

>  <SCORE>
-14.5114

>  <SCORE.INTER>
-4.78047

>  <SCORE.INTER.CONST>
1

>  <SCORE.INTER.POLAR>
-0.576724

>  <SCORE.INTER.ROT>
14

>  <SCORE.INTER.SOLV>
12.738

>  <SCORE.INTER.VDW>
-18.4439

>  <SCORE.INTER.norm>
-0.132791

>  <SCORE.INTRA>
-9.73097

>  <SCORE.INTRA.DIHEDRAL>
-19.8441

>  <SCORE.INTRA.DIHEDRAL.0>
26.3805

>  <SCORE.INTRA.POLAR>
0

>  <SCORE.INTRA.POLAR.0>
0

>  <SCORE.INTRA.REPUL>
0

>  <SCORE.INTRA.REPUL.0>
0

>  <SCORE.INTRA.SOLV>
5.15784

>  <SCORE.INTRA.SOLV.lig_0>
-98.5587

>  <SCORE.INTRA.VDW>
-2.38784

>  <SCORE.INTRA.VDW.0>
-2.91167

>  <SCORE.INTRA.norm>
-0.270305

>  <SCORE.RESTR>
0

>  <SCORE.RESTR.CAVITY>
0

>  <SCORE.RESTR.norm>
0

>  <SCORE.SYSTEM>
0

>  <SCORE.SYSTEM.CONST>
0

>  <SCORE.SYSTEM.DIHEDRAL>
0

>  <SCORE.SYSTEM.SOLV>
0

>  <SCORE.SYSTEM.norm>
0

>  <SCORE.heavy>
36

>  <SCORE.norm>
-0.403095

>  <RMSD>
8.389

$$$$
2f4u_lig
 OpenBabel11021811433D
libRbt.so/2013.1/901 2013/11/27
 36 37  0  0  0  0  0  0  0  0999 V2000
   42.1993    4.9496    7.3076 C   0  0  2  0  0  0  0  0  0  0  0  0
   41.0971    4.7982    6.3380 O   0  0  0  0  0  0  0  0  0  0  0  0
   40.1011    8.9208    5.3852 C   0  0  2  0  0  0  0  0  0  0  0  0
   39.4657   10.0815    4.7042 N   0  0  0  0  0  0  0  0  0  0  0  0
   42.6542    3.5091    7.6975 C   0  0  2  0  0  0  0  0  0  0  0  0
   43.0961    2.7183    6.5341 N   0  0  0  0  0  0  0  0  0  0  0  0
   40.9297    8.0413    4.3837 C   0  0  0  0  0  0  0  0  0  0  0  0
   38.0408    9.5717    3.7570 C   0  0  0  0  0  0  0  0  0  0  0  0
   38.0272   10.9906    3.2812 C   0  0  1  0  0  0  0  0  0  0  0  0
   36.7374   11.1864    2.4765 C   0  0  0  0  0  0  0  0  0  0  0  0
   36.8651   12.0401    1.2013 C   0  0  0  0  0  0  0  0  0  0  0  0
   37.2205   13.4065    1.5892 N   0  0  0  0  0  0  0  0  0  0  0  0
   37.9842   11.8689    4.3726 O   0  0  0  0  0  0  0  0  0  0  0  0
   37.2626    9.2983    7.8282 C   0  0  0  0  0  0  0  0  0  0  0  0
   35.9118    9.2138    7.1333 C   0  0  0  0  0  0  0  0  0  0  0  0
   41.4708    2.7845    8.4209 C   0  0  1  0  0  0  0  0  0  0  0  0
   35.3746    7.8427    7.0210 N   0  0  0  0  0  0  0  0  0  0  0  0
   41.8328    1.4562    8.7893 O   0  0  0  0  0  0  0  0  0  0  0  0
   41.5380    6.8115    5.0881 C   0  0  2  0  0  0  0  0  0  0  0  0
   42.2694    5.9711    4.1484 N   0  0  0  0  0  0  0  0  0  0  0  0
   33.7468    7.5404    5.1612 C   0  0  0  0  0  0  0  0  0  0  0  0
   34.1530    6.1533    4.5789 C   0  0  0  0  0  0  0  0  0  0  0  0
   33.9387    7.6406    6.6970 C   0  0  0  0  0  0  0  0  0  0  0  0
   35.5811    5.8244    4.8684 N   0  0  0  0  0  0  0  0  0  0  0  0
   37.5117    8.6490    3.5839 O   0  0  0  0  0  0  0  0  0  0  0  0
   41.0748    3.6224    9.6531 C   0  0  2  0  0  0  0  0  0  0  0  0
   39.9916    3.0468   10.3791 O   0  0  0  0  0  0  0  0  0  0  0  0
   40.4468    5.9742    5.7249 C   0  0  2  0  0  0  0  0  0  0  0  0
   40.7017    5.0585    9.2431 C   0  0  2  0  0  0  0  0  0  0  0  0
   41.7589    5.6685    8.4945 O   0  0  0  0  0  0  0  0  0  0  0  0
   39.6409    6.8476    6.7700 C   0  0  2  0  0  0  0  0  0  0  0  0
   38.5854    6.0214    7.3543 O   0  0  0  0  0  0  0  0  0  0  0  0
   40.3908    5.9194   10.4382 C   0  0  0  0  0  0  0  0  0  0  0  0
   41.5324    6.1595   11.1692 O   0  0  0  0  0  0  0  0  0  0  0  0
   39.0171    8.0771    6.0266 C   0  0  1  0  0  0  0  0  0  0  0  0
   38.2829    8.8948    6.8906 O   0  0  0  0  0  0  0  0  0  0  0  0
  1  2  1  6  0  0  0
  1  5  1  0  0  0  0
  1 30  1  0  0  0  0
  3  4  1  6  0  0  0
  3  7  1  0  0  0  0
  3 35  1  0  0  0  0
  5  6  1  6  0  0  0
  5 16  1  0  0  0  0
  7 19  1  0  0  0  0
  8  4  1  0  0  0  0
  8 25  2  0  0  0  0
  9  8  1  1  0  0  0
  9 10  1  0  0  0  0
  9 13  1  0  0  0  0
 10 11  1  0  0  0  0
 11 12  1  0  0  0  0
 14 15  1  0  0  0  0
 14 36  1  0  0  0  0
 15 17  1  0  0  0  0
 16 18  1  1  0  0  0
 16 26  1  0  0  0  0
 17 23  1  0  0  0  0
 19 20  1  6  0  0  0
 19 28  1  0  0  0  0
 21 22  1  0  0  0  0
 21 23  1  0  0  0  0
 22 24  1  0  0  0  0
 26 27  1  6  0  0  0
 26 29  1  0  0  0  0
 28  2  1  1  0  0  0
 28 31  1  0  0  0  0
 29 30  1  0  0  0  0
 29 33  1  1  0  0  0
 31 32  1  6  0  0  0
 31 35  1  0  0  0  0
 33 34  1  0  0  0  0
 35 36  1  1  0  0  0
M  END
>  <CHROM.1>
-178.30856788,75.91625378,-171.97427321,-140.06670779,-64.83855045,77.93570787
-64.41904907,164.12296689,90.70540442,-58.66263872,77.58563726,54.57386582
69.11209831,176.91467085,39.06480804,7.10896649,6.27767334,-1.02951108,0.19911030
-0.77085343

>  <Name>
2f4u_lig

>  <RI>
0

>  <Rbt.Current_Directory>
/home/itssahil/PROJECTS/Mol_Feturizer/New_Systems/rnas/2f4u

>  <Rbt.Executable>
rbdock ($Id: //depot/dev/client3/rdock/2013.1/src/exe/rbdock.cxx#4 $)

>  <Rbt.Library>
libRbt.so (2013.1, Build901 2013/11/27)

>  <Rbt.Parameter_File>
/export/apps/rDock/src/rDock_2013.1_src/data/scripts/dock_solv.prm

>  <Rbt.Receptor>
prm/pocket_docking_4.prm

>  <SCORE>
-21.7196

>  <SCORE.INTER>
-15.5394

>  <SCORE.INTER.CONST>
1

>  <SCORE.INTER.POLAR>
-2.12599

>  <SCORE.INTER.ROT>
14

>  <SCORE.INTER.SOLV>
15.5404

>  <SCORE.INTER.VDW>
-21.3864

>  <SCORE.INTER.norm>
-0.431649

>  <SCORE.INTRA>
-6.18023

>  <SCORE.INTRA.DIHEDRAL>
-17.671

>  <SCORE.INTRA.DIHEDRAL.0>
26.3805

>  <SCORE.INTRA.POLAR>
0

>  <SCORE.INTRA.POLAR.0>
0

>  <SCORE.INTRA.REPUL>
0

>  <SCORE.INTRA.REPUL.0>
0

>  <SCORE.INTRA.SOLV>
7.25962

>  <SCORE.INTRA.SOLV.lig_0>
-98.5587

>  <SCORE.INTRA.VDW>
-0.974526

>  <SCORE.INTRA.VDW.0>
-2.91167

>  <SCORE.INTRA.norm>
-0.171673

>  <SCORE.RESTR>
0

>  <SCORE.RESTR.CAVITY>
0

>  <SCORE.RESTR.norm>
0

>  <SCORE.SYSTEM>
0

>  <SCORE.SYSTEM.CONST>
0

>  <SCORE.SYSTEM.DIHEDRAL>
0

>  <SCORE.SYSTEM.SOLV>
0

>  <SCORE.SYSTEM.norm>
0

>  <SCORE.heavy>
36

>  <SCORE.norm>
-0.603322

>  <RMSD>
8.390

$$$$
2f4u_lig
 OpenBabel11021811433D
libRbt.so/2013.1/901 2013/11/27
 36 37  0  0  0  0  0  0  0  0999 V2000
   43.4938    2.4142    5.3851 C   0  0  2  0  0  0  0  0  0  0  0  0
   43.3684    3.7783    5.9343 O   0  0  0  0  0  0  0  0  0  0  0  0
   40.1595    6.7088    6.0338 C   0  0  2  0  0  0  0  0  0  0  0  0
   39.1194    7.6566    5.5492 N   0  0  0  0  0  0  0  0  0  0  0  0
   44.3508    1.5987    6.4022 C   0  0  2  0  0  0  0  0  0  0  0  0
   43.7502    1.5593    7.7483 N   0  0  0  0  0  0  0  0  0  0  0  0
   41.5881    7.0976    5.5131 C   0  0  0  0  0  0  0  0  0  0  0  0
   38.3409    8.5099    6.9106 C   0  0  0  0  0  0  0  0  0  0  0  0
   37.4323    9.0633    5.8581 C   0  0  1  0  0  0  0  0  0  0  0  0
   36.0524    9.2448    6.5004 C   0  0  0  0  0  0  0  0  0  0  0  0
   35.3126    7.9483    6.8787 C   0  0  0  0  0  0  0  0  0  0  0  0
   35.9758    7.3560    8.0420 N   0  0  0  0  0  0  0  0  0  0  0  0
   37.8783   10.3265    5.4460 O   0  0  0  0  0  0  0  0  0  0  0  0
   37.4552    4.6839    6.9329 C   0  0  0  0  0  0  0  0  0  0  0  0
   37.7317    3.3094    7.5237 C   0  0  0  0  0  0  0  0  0  0  0  0
   45.7832    2.2249    6.4716 C   0  0  1  0  0  0  0  0  0  0  0  0
   38.9744    3.2316    8.3179 N   0  0  0  0  0  0  0  0  0  0  0  0
   46.6052    1.5202    7.3985 O   0  0  0  0  0  0  0  0  0  0  0  0
   42.6497    6.0787    5.9748 C   0  0  2  0  0  0  0  0  0  0  0  0
   43.9685    6.4151    5.4535 N   0  0  0  0  0  0  0  0  0  0  0  0
   39.5584    2.1783   10.4972 C   0  0  0  0  0  0  0  0  0  0  0  0
   38.2470    2.5459   11.2546 C   0  0  0  0  0  0  0  0  0  0  0  0
   39.3459    1.9531    8.9774 C   0  0  0  0  0  0  0  0  0  0  0  0
   37.1551    1.5622   10.9872 N   0  0  0  0  0  0  0  0  0  0  0  0
   38.4576    8.5345    7.9817 O   0  0  0  0  0  0  0  0  0  0  0  0
   46.3872    2.2025    5.0532 C   0  0  2  0  0  0  0  0  0  0  0  0
   47.6967    2.7638    5.0090 O   0  0  0  0  0  0  0  0  0  0  0  0
   42.2897    4.6868    5.4951 C   0  0  2  0  0  0  0  0  0  0  0  0
   45.4821    2.9529    4.0596 C   0  0  2  0  0  0  0  0  0  0  0  0
   44.1494    2.4302    4.0854 O   0  0  0  0  0  0  0  0  0  0  0  0
   40.8694    4.2752    6.0589 C   0  0  2  0  0  0  0  0  0  0  0  0
   40.5405    2.9383    5.5663 O   0  0  0  0  0  0  0  0  0  0  0  0
   46.0096    2.8743    2.6519 C   0  0  0  0  0  0  0  0  0  0  0  0
   46.0391    1.5673    2.2206 O   0  0  0  0  0  0  0  0  0  0  0  0
   39.8076    5.3126    5.5594 C   0  0  1  0  0  0  0  0  0  0  0  0
   38.5220    5.0085    6.0168 O   0  0  0  0  0  0  0  0  0  0  0  0
  1  2  1  1  0  0  0
  1  5  1  0  0  0  0
  1 30  1  0  0  0  0
  3  4  1  6  0  0  0
  3  7  1  0  0  0  0
  3 35  1  0  0  0  0
  5  6  1  1  0  0  0
  5 16  1  0  0  0  0
  7 19  1  0  0  0  0
  8  4  1  0  0  0  0
  8 25  2  0  0  0  0
  9  8  1  1  0  0  0
  9 10  1  0  0  0  0
  9 13  1  0  0  0  0
 10 11  1  0  0  0  0
 11 12  1  0  0  0  0
 14 15  1  0  0  0  0
 14 36  1  0  0  0  0
 15 17  1  0  0  0  0
 16 18  1  1  0  0  0
 16 26  1  0  0  0  0
 17 23  1  0  0  0  0
 19 20  1  6  0  0  0
 19 28  1  0  0  0  0
 21 22  1  0  0  0  0
 21 23  1  0  0  0  0
 22 24  1  0  0  0  0
 26 27  1  1  0  0  0
 26 29  1  0  0  0  0
 28  2  1  1  0  0  0
 28 31  1  0  0  0  0
 29 30  1  0  0  0  0
 29 33  1  6  0  0  0
 31 32  1  6  0  0  0
 31 35  1  0  0  0  0
 33 34  1  0  0  0  0
 35 36  1  1  0  0  0
M  END
>  <CHROM.1>
-159.65384151,-117.33713969,146.90112612,-68.06206997,72.16255328,62.64167875
-65.36770541,178.57566135,-124.67959726,52.53703951,67.23622767,-166.14448324
62.34862643,-70.46162805,41.15617625,4.55086938,6.41999624,0.27007010,-0.50308068
2.54183738

>  <Name>
2f4u_lig

>  <RI>
0

>  <Rbt.Current_Directory>
/home/itssahil/PROJECTS/Mol_Feturizer/New_Systems/rnas/2f4u

>  <Rbt.Executable>
rbdock ($Id: //depot/dev/client3/rdock/2013.1/src/exe/rbdock.cxx#4 $)

>  <Rbt.Library>
libRbt.so (2013.1, Build901 2013/11/27)

>  <Rbt.Parameter_File>
/export/apps/rDock/src/rDock_2013.1_src/data/scripts/dock_solv.prm

>  <Rbt.Receptor>
prm/pocket_docking_6.prm

>  <SCORE>
-9.72445

>  <SCORE.INTER>
-2.32424

>  <SCORE.INTER.CONST>
1

>  <SCORE.INTER.POLAR>
-2.02317

>  <SCORE.INTER.ROT>
14

>  <SCORE.INTER.SOLV>
11.6966

>  <SCORE.INTER.VDW>
-11.6378

>  <SCORE.INTER.norm>
-0.0645621

>  <SCORE.INTRA>
-7.40022

>  <SCORE.INTRA.DIHEDRAL>
-17.6679

>  <SCORE.INTRA.DIHEDRAL.0>
26.3805

>  <SCORE.INTRA.POLAR>
0

>  <SCORE.INTRA.POLAR.0>
0

>  <SCORE.INTRA.REPUL>
0

>  <SCORE.INTRA.REPUL.0>
0

>  <SCORE.INTRA.SOLV>
8.37048

>  <SCORE.INTRA.SOLV.lig_0>
-98.5587

>  <SCORE.INTRA.VDW>
-2.75151

>  <SCORE.INTRA.VDW.0>
-2.91167

>  <SCORE.INTRA.norm>
-0.205562

>  <SCORE.RESTR>
0

>  <SCORE.RESTR.CAVITY>
0

>  <SCORE.RESTR.norm>
0

>  <SCORE.SYSTEM>
0

>  <SCORE.SYSTEM.CONST>
0

>  <SCORE.SYSTEM.DIHEDRAL>
0

>  <SCORE.SYSTEM.SOLV>
0

>  <SCORE.SYSTEM.norm>
0

>  <SCORE.heavy>
36

>  <SCORE.norm>
-0.270124

>  <RMSD>
8.392

$$$$
2f4u_lig
 OpenBabel11021811433D
libRbt.so/2013.1/901 2013/11/27
 36 37  0  0  0  0  0  0  0  0999 V2000
   36.4745    5.4611    8.1668 C   0  0  2  0  0  0  0  0  0  0  0  0
   36.0616    6.4871    7.1897 O   0  0  0  0  0  0  0  0  0  0  0  0
   38.4249    9.2347    4.7894 C   0  0  2  0  0  0  0  0  0  0  0  0
   39.2890   10.3951    4.4409 N   0  0  0  0  0  0  0  0  0  0  0  0
   35.1934    4.6490    8.5321 C   0  0  2  0  0  0  0  0  0  0  0  0
   34.5660    4.0182    7.3563 N   0  0  0  0  0  0  0  0  0  0  0  0
   37.0699    9.6922    5.4358 C   0  0  0  0  0  0  0  0  0  0  0  0
   38.8229   11.0956    2.8663 C   0  0  0  0  0  0  0  0  0  0  0  0
   40.0344   11.9547    3.0507 C   0  0  1  0  0  0  0  0  0  0  0  0
   40.9595   11.6959    1.8563 C   0  0  0  0  0  0  0  0  0  0  0  0
   40.5129   12.3092    0.5163 C   0  0  0  0  0  0  0  0  0  0  0  0
   41.5268   12.0062   -0.4957 N   0  0  0  0  0  0  0  0  0  0  0  0
   39.6777   13.3099    3.0258 O   0  0  0  0  0  0  0  0  0  0  0  0
   41.3031    7.4271    4.1926 C   0  0  0  0  0  0  0  0  0  0  0  0
   42.6726    7.3042    4.8439 C   0  0  0  0  0  0  0  0  0  0  0  0
   34.1740    5.6045    9.2368 C   0  0  1  0  0  0  0  0  0  0  0  0
   43.6719    6.5939    4.0206 N   0  0  0  0  0  0  0  0  0  0  0  0
   32.9777    4.9111    9.5822 O   0  0  0  0  0  0  0  0  0  0  0  0
   36.2061    8.4814    5.8436 C   0  0  2  0  0  0  0  0  0  0  0  0
   34.9682    8.9062    6.4850 N   0  0  0  0  0  0  0  0  0  0  0  0
   45.7537    5.3062    4.4765 C   0  0  0  0  0  0  0  0  0  0  0  0
   45.1920    4.4795    5.6720 C   0  0  0  0  0  0  0  0  0  0  0  0
   45.1154    6.7142    4.3513 C   0  0  0  0  0  0  0  0  0  0  0  0
   45.4988    5.1210    6.9856 N   0  0  0  0  0  0  0  0  0  0  0  0
   38.0592   10.9112    2.1286 O   0  0  0  0  0  0  0  0  0  0  0  0
   34.8575    6.2031   10.4824 C   0  0  2  0  0  0  0  0  0  0  0  0
   34.0077    7.1003   11.1929 O   0  0  0  0  0  0  0  0  0  0  0  0
   36.9632    7.5945    6.8118 C   0  0  2  0  0  0  0  0  0  0  0  0
   36.1557    6.9350   10.0973 C   0  0  2  0  0  0  0  0  0  0  0  0
   37.0324    6.0719    9.3647 O   0  0  0  0  0  0  0  0  0  0  0  0
   38.3073    7.0942    6.1428 C   0  0  2  0  0  0  0  0  0  0  0  0
   39.0243    6.2574    7.1039 O   0  0  0  0  0  0  0  0  0  0  0  0
   36.8843    7.4574   11.3066 C   0  0  0  0  0  0  0  0  0  0  0  0
   38.0179    8.1407   10.9284 O   0  0  0  0  0  0  0  0  0  0  0  0
   39.1742    8.3405    5.7574 C   0  0  1  0  0  0  0  0  0  0  0  0
   40.3849    7.9732    5.1629 O   0  0  0  0  0  0  0  0  0  0  0  0
  1  2  1  6  0  0  0
  1  5  1  0  0  0  0
  1 30  1  0  0  0  0
  3  4  1  1  0  0  0
  3  7  1  0  0  0  0
  3 35  1  0  0  0  0
  5  6  1  6  0  0  0
  5 16  1  0  0  0  0
  7 19  1  0  0  0  0
  8  4  1  0  0  0  0
  8 25  2  0  0  0  0
  9  8  1  6  0  0  0
  9 10  1  0  0  0  0
  9 13  1  0  0  0  0
 10 11  1  0  0  0  0
 11 12  1  0  0  0  0
 14 15  1  0  0  0  0
 14 36  1  0  0  0  0
 15 17  1  0  0  0  0
 16 18  1  1  0  0  0
 16 26  1  0  0  0  0
 17 23  1  0  0  0  0
 19 20  1  1  0  0  0
 19 28  1  0  0  0  0
 21 22  1  0  0  0  0
 21 23  1  0  0  0  0
 22 24  1  0  0  0  0
 26 27  1  6  0  0  0
 26 29  1  0  0  0  0
 28  2  1  6  0  0  0
 28 31  1  0  0  0  0
 29 30  1  0  0  0  0
 29 33  1  1  0  0  0
 31 32  1  1  0  0  0
 31 35  1  0  0  0  0
 33 34  1  0  0  0  0
 35 36  1  6  0  0  0
M  END
>  <CHROM.1>
168.54999420,-82.69869740,121.11929430,73.63460774,178.06039237,172.40743395
-166.13679345,163.61724557,127.77078295,-63.40059003,-65.43717231,-177.72055112
-178.18523984,-56.66428803,38.73769228,7.86618978,6.11221722,-2.38104298
0.33435786,-0.76421740

>  <Name>
2f4u_lig

>  <RI>
0

>  <Rbt.Current_Directory>
/home/itssahil/PROJECTS/Mol_Feturizer/New_Systems/rnas/2f4u

>  <Rbt.Executable>
rbdock ($Id: //depot/dev/client3/rdock/2013.1/src/exe/rbdock.cxx#4 $)

>  <Rbt.Library>
libRbt.so (2013.1, Build901 2013/11/27)

>  <Rbt.Parameter_File>
/export/apps/rDock/src/rDock_2013.1_src/data/scripts/dock_solv.prm

>  <Rbt.Receptor>
prm/pocket_docking_8.prm

>  <SCORE>
-24.2076

>  <SCORE.INTER>
-13.7546

>  <SCORE.INTER.CONST>
1

>  <SCORE.INTER.POLAR>
-2.55155

>  <SCORE.INTER.ROT>
14

>  <SCORE.INTER.SOLV>
19.4534

>  <SCORE.INTER.VDW>
-20.0824

>  <SCORE.INTER.norm>
-0.382074

>  <SCORE.INTRA>
-10.4529

>  <SCORE.INTRA.DIHEDRAL>
-19.5312

>  <SCORE.INTRA.DIHEDRAL.0>
26.3805

>  <SCORE.INTRA.POLAR>
0

>  <SCORE.INTRA.POLAR.0>
0

>  <SCORE.INTRA.REPUL>
0

>  <SCORE.INTRA.REPUL.0>
0

>  <SCORE.INTRA.SOLV>
0.768331

>  <SCORE.INTRA.SOLV.lig_0>
-98.5587

>  <SCORE.INTRA.VDW>
-1.07151

>  <SCORE.INTRA.VDW.0>
-2.91167

>  <SCORE.INTRA.norm>
-0.290359

>  <SCORE.RESTR>
0

>  <SCORE.RESTR.CAVITY>
0

>  <SCORE.RESTR.norm>
0

>  <SCORE.SYSTEM>
0

>  <SCORE.SYSTEM.CONST>
0

>  <SCORE.SYSTEM.DIHEDRAL>
0

>  <SCORE.SYSTEM.SOLV>
0

>  <SCORE.SYSTEM.norm>
0

>  <SCORE.heavy>
36

>  <SCORE.norm>
-0.672432

>  <RMSD>
8.393

$$$$
2f4u_lig
 OpenBabel11021811433D
libRbt.so/2013.1/901 2013/11/27
 36 37  0  0  0  0  0  0  0  0999 V2000
   40.3118    6.7260   11.4650 C   0  0  2  0  0  0  0  0  0  0  0  0
   40.3459    5.2539   11.3664 O   0  0  0  0  0  0  0  0  0  0  0  0
   41.8161    2.7934    8.0984 C   0  0  2  0  0  0  0  0  0  0  0  0
   41.8447    2.0766    6.7945 N   0  0  0  0  0  0  0  0  0  0  0  0
   40.6019    7.0820   12.9560 C   0  0  2  0  0  0  0  0  0  0  0  0
   41.9018    6.5642   13.4213 N   0  0  0  0  0  0  0  0  0  0  0  0
   40.6333    2.3026    9.0057 C   0  0  0  0  0  0  0  0  0  0  0  0
   42.5355    0.4402    6.9739 C   0  0  0  0  0  0  0  0  0  0  0  0
   42.4361    0.3893    5.4815 C   0  0  1  0  0  0  0  0  0  0  0  0
   43.7888   -0.1014    4.9537 C   0  0  0  0  0  0  0  0  0  0  0  0
   43.9695   -0.0552    3.4251 C   0  0  0  0  0  0  0  0  0  0  0  0
   45.3156   -0.5312    3.1006 N   0  0  0  0  0  0  0  0  0  0  0  0
   41.4645   -0.5422    5.0905 O   0  0  0  0  0  0  0  0  0  0  0  0
   44.0730    4.8477    6.5191 C   0  0  0  0  0  0  0  0  0  0  0  0
   44.0223    5.6741    5.2427 C   0  0  0  0  0  0  0  0  0  0  0  0
   39.4474    6.5117   13.8450 C   0  0  1  0  0  0  0  0  0  0  0  0
   45.2940    5.7064    4.4926 N   0  0  0  0  0  0  0  0  0  0  0  0
   39.6714    6.8017   15.2224 O   0  0  0  0  0  0  0  0  0  0  0  0
   40.5792    3.0898   10.3309 C   0  0  2  0  0  0  0  0  0  0  0  0
   39.4535    2.6650   11.1535 N   0  0  0  0  0  0  0  0  0  0  0  0
   46.7653    5.0282    2.6018 C   0  0  0  0  0  0  0  0  0  0  0  0
   47.0732    3.9722    1.4980 C   0  0  0  0  0  0  0  0  0  0  0  0
   45.6265    4.5966    3.5622 C   0  0  0  0  0  0  0  0  0  0  0  0
   45.9237    3.7950    0.5607 N   0  0  0  0  0  0  0  0  0  0  0  0
   42.9022   -0.1642    7.7874 O   0  0  0  0  0  0  0  0  0  0  0  0
   38.1172    7.1152   13.3516 C   0  0  2  0  0  0  0  0  0  0  0  0
   36.9960    6.6473   14.0970 O   0  0  0  0  0  0  0  0  0  0  0  0
   40.4355    4.5738   10.0582 C   0  0  2  0  0  0  0  0  0  0  0  0
   37.8956    6.8083   11.8595 C   0  0  2  0  0  0  0  0  0  0  0  0
   39.0099    7.2479   11.0752 O   0  0  0  0  0  0  0  0  0  0  0  0
   41.6531    5.0791    9.1828 C   0  0  2  0  0  0  0  0  0  0  0  0
   41.4792    6.5071    8.9204 O   0  0  0  0  0  0  0  0  0  0  0  0
   36.6431    7.4575   11.3341 C   0  0  0  0  0  0  0  0  0  0  0  0
   36.7369    8.8280   11.4232 O   0  0  0  0  0  0  0  0  0  0  0  0
   41.6734    4.2797    7.8361 C   0  0  1  0  0  0  0  0  0  0  0  0
   42.7249    4.6782    7.0056 O   0  0  0  0  0  0  0  0  0  0  0  0
  1  2  1  1  0  0  0
  1  5  1  0  0  0  0
  1 30  1  0  0  0  0
  3  4  1  6  0  0  0
  3  7  1  0  0  0  0
  3 35  1  0  0  0  0
  5  6  1  1  0  0  0
  5 16  1  0  0  0  0
  7 19  1  0  0  0  0
  8  4  1  0  0  0  0
  8 25  2  0  0  0  0
  9  8  1  1  0  0  0
  9 10  1  0  0  0  0
  9 13  1  0  0  0  0
 10 11  1  0  0  0  0
 11 12  1  0  0  0  0
 14 15  1  0  0  0  0
 14 36  1  0  0  0  0
 15 17  1  0  0  0  0
 16 18  1  1  0  0  0
 16 26  1  0  0  0  0
 17 23  1  0  0  0  0
 19 20  1  1  0  0  0
 19 28  1  0  0  0  0
 21 22  1  0  0  0  0
 21 23  1  0  0  0  0
 22 24  1  0  0  0  0
 26 27  1  1  0  0  0
 26 29  1  0  0  0  0
 28  2  1  1  0  0  0
 28 31  1  0  0  0  0
 29 30  1  0  0  0  0
 29 33  1  6  0  0  0
 31 32  1  6  0  0  0
 31 35  1  0  0  0  0
 33 34  1  0  0  0  0
 35 36  1  6  0  0  0
M  END
>  <CHROM.1>
-165.13595440,-77.54950859,131.35522074,-172.37534639,178.94261720,-168.71271435
-177.68526605,83.47077237,163.55037247,65.25576404,-174.07173443,174.81292669
62.51424291,-51.81360987,41.66835165,4.30868194,8.38988222,-2.56992247,-0.91684266
-2.92012513

>  <Name>
2f4u_lig

>  <RI>
0

>  <Rbt.Current_Directory>
/home/itssahil/PROJECTS/Mol_Feturizer/New_Systems/rnas/2f4u

>  <Rbt.Executable>
rbdock ($Id: //depot/dev/client3/rdock/2013.1/src/exe/rbdock.cxx#4 $)

>  <Rbt.Library>
libRbt.so (2013.1, Build901 2013/11/27)

>  <Rbt.Parameter_File>
/export/apps/rDock/src/rDock_2013.1_src/data/scripts/dock_solv.prm

>  <Rbt.Receptor>
prm/pocket_docking_8.prm

>  <SCORE>
-20.4438

>  <SCORE.INTER>
-8.64923

>  <SCORE.INTER.CONST>
1

>  <SCORE.INTER.POLAR>
-1.41705

>  <SCORE.INTER.ROT>
14

>  <SCORE.INTER.SOLV>
18.4053

>  <SCORE.INTER.VDW>
-20.1111

>  <SCORE.INTER.norm>
-0.240256

>  <SCORE.INTRA>
-11.7946

>  <SCORE.INTRA.DIHEDRAL>
-20.8008

>  <SCORE.INTRA.DIHEDRAL.0>
26.3805

>  <SCORE.INTRA.POLAR>
0

>  <SCORE.INTRA.POLAR.0>
0

>  <SCORE.INTRA.REPUL>
0

>  <SCORE.INTRA.REPUL.0>
0

>  <SCORE.INTRA.SOLV>
-1.04382

>  <SCORE.INTRA.SOLV.lig_0>
-98.5587

>  <SCORE.INTRA.VDW>
-0.872258

>  <SCORE.INTRA.VDW.0>
-2.91167

>  <SCORE.INTRA.norm>
-0.327627

>  <SCORE.RESTR>
0

>  <SCORE.RESTR.CAVITY>
0

>  <SCORE.RESTR.norm>
0

>  <SCORE.SYSTEM>
0

>  <SCORE.SYSTEM.CONST>
0

>  <SCORE.SYSTEM.DIHEDRAL>
0

>  <SCORE.SYSTEM.SOLV>
0

>  <SCORE.SYSTEM.norm>
0

>  <SCORE.heavy>
36

>  <SCORE.norm>
-0.567883

>  <RMSD>
8.400

$$$$
2f4u_lig
 OpenBabel11021811433D
libRbt.so/2013.1/901 2013/11/27
 36 37  0  0  0  0  0  0  0  0999 V2000
   39.0665    3.6016    3.9293 C   0  0  2  0  0  0  0  0  0  0  0  0
   40.1188    4.5595    4.3207 O   0  0  0  0  0  0  0  0  0  0  0  0
   38.2566    6.7449    7.5844 C   0  0  2  0  0  0  0  0  0  0  0  0
   38.0870    7.7303    8.6866 N   0  0  0  0  0  0  0  0  0  0  0  0
   39.6846    2.6803    2.8325 C   0  0  2  0  0  0  0  0  0  0  0  0
   40.8849    1.9641    3.3023 N   0  0  0  0  0  0  0  0  0  0  0  0
   39.4648    5.7787    7.8493 C   0  0  0  0  0  0  0  0  0  0  0  0
   36.5709    7.4391    9.5834 C   0  0  0  0  0  0  0  0  0  0  0  0
   36.9188    8.7059   10.3004 C   0  0  1  0  0  0  0  0  0  0  0  0
   36.2841    9.8596    9.5160 C   0  0  0  0  0  0  0  0  0  0  0  0
   36.6359   11.2769   10.0046 C   0  0  0  0  0  0  0  0  0  0  0  0
   36.1112   11.4456   11.3611 N   0  0  0  0  0  0  0  0  0  0  0  0
   36.3585    8.7069   11.5851 O   0  0  0  0  0  0  0  0  0  0  0  0
   36.4944    9.2639    5.4243 C   0  0  0  0  0  0  0  0  0  0  0  0
   37.3103   10.2154    4.5620 C   0  0  0  0  0  0  0  0  0  0  0  0
   40.0349    3.5511    1.5804 C   0  0  1  0  0  0  0  0  0  0  0  0
   36.5564   10.8125    3.4411 N   0  0  0  0  0  0  0  0  0  0  0  0
   40.6148    2.7555    0.5499 O   0  0  0  0  0  0  0  0  0  0  0  0
   39.6662    4.7980    6.6762 C   0  0  2  0  0  0  0  0  0  0  0  0
   40.8160    3.9312    6.9021 N   0  0  0  0  0  0  0  0  0  0  0  0
   36.3200   11.2510    1.0015 C   0  0  0  0  0  0  0  0  0  0  0  0
   37.1735   12.5475    1.1383 C   0  0  0  0  0  0  0  0  0  0  0  0
   36.6323   10.1937    2.0925 C   0  0  0  0  0  0  0  0  0  0  0  0
   38.6159   12.2988    0.8401 N   0  0  0  0  0  0  0  0  0  0  0  0
   35.7731    6.7156    9.5478 O   0  0  0  0  0  0  0  0  0  0  0  0
   38.7436    4.2424    1.0987 C   0  0  2  0  0  0  0  0  0  0  0  0
   38.9608    5.0715   -0.0401 O   0  0  0  0  0  0  0  0  0  0  0  0
   39.8906    5.5585    5.3845 C   0  0  2  0  0  0  0  0  0  0  0  0
   38.1194    5.0851    2.2255 C   0  0  2  0  0  0  0  0  0  0  0  0
   37.9003    4.2918    3.3972 O   0  0  0  0  0  0  0  0  0  0  0  0
   38.6510    6.4979    5.0923 C   0  0  2  0  0  0  0  0  0  0  0  0
   38.9025    7.2314    3.8526 O   0  0  0  0  0  0  0  0  0  0  0  0
   36.8132    5.7039    1.8045 C   0  0  0  0  0  0  0  0  0  0  0  0
   35.8879    4.7264    1.5156 O   0  0  0  0  0  0  0  0  0  0  0  0
   38.4810    7.4963    6.2871 C   0  0  1  0  0  0  0  0  0  0  0  0
   37.4027    8.3650    6.0949 O   0  0  0  0  0  0  0  0  0  0  0  0
  1  2  1  6  0  0  0
  1  5  1  0  0  0  0
  1 30  1  0  0  0  0
  3  4  1  1  0  0  0
  3  7  1  0  0  0  0
  3 35  1  0  0  0  0
  5  6  1  1  0  0  0
  5 16  1  0  0  0  0
  7 19  1  0  0  0  0
  8  4  1  0  0  0  0
  8 25  2  0  0  0  0
  9  8  1  6  0  0  0
  9 10  1  0  0  0  0
  9 13  1  0  0  0  0
 10 11  1  0  0  0  0
 11 12  1  0  0  0  0
 14 15  1  0  0  0  0
 14 36  1  0  0  0  0
 15 17  1  0  0  0  0
 16 18  1  6  0  0  0
 16 26  1  0  0  0  0
 17 23  1  0  0  0  0
 19 20  1  1  0  0  0
 19 28  1  0  0  0  0
 21 22  1  0  0  0  0
 21 23  1  0  0  0  0
 22 24  1  0  0  0  0
 26 27  1  6  0  0  0
 26 29  1  0  0  0  0
 28  2  1  6  0  0  0
 28 31  1  0  0  0  0
 29 30  1  0  0  0  0
 29 33  1  6  0  0  0
 31 32  1  6  0  0  0
 31 35  1  0  0  0  0
 33 34  1  0  0  0  0
 35 36  1  6  0  0  0
M  END
>  <CHROM.1>
-177.75730084,-112.73964361,89.99013903,-174.14407836,-63.72959359,156.93971552
-43.27202294,-95.72028655,-155.39774016,68.32218350,51.72240523,63.82563683
62.61016185,-164.64148733,38.04706434,7.02297543,5.00595226,-0.76430585,-1.19967770
1.74019543

>  <Name>
2f4u_lig

>  <RI>
0

>  <Rbt.Current_Directory>
/home/itssahil/PROJECTS/Mol_Feturizer/New_Systems/rnas/2f4u

>  <Rbt.Executable>
rbdock ($Id: //depot/dev/client3/rdock/2013.1/src/exe/rbdock.cxx#4 $)

>  <Rbt.Library>
libRbt.so (2013.1, Build901 2013/11/27)

>  <Rbt.Parameter_File>
/export/apps/rDock/src/rDock_2013.1_src/data/scripts/dock_solv.prm

>  <Rbt.Receptor>
prm/pocket_docking_7.prm

>  <SCORE>
-11.7678

>  <SCORE.INTER>
-3.44694

>  <SCORE.INTER.CONST>
1

>  <SCORE.INTER.POLAR>
-0.583096

>  <SCORE.INTER.ROT>
14

>  <SCORE.INTER.SOLV>
11.3209

>  <SCORE.INTER.VDW>
-17.0613

>  <SCORE.INTER.norm>
-0.0957483

>  <SCORE.INTRA>
-8.32087

>  <SCORE.INTRA.DIHEDRAL>
-17.265

>  <SCORE.INTRA.DIHEDRAL.0>
26.3805

>  <SCORE.INTRA.POLAR>
0

>  <SCORE.INTRA.POLAR.0>
0

>  <SCORE.INTRA.REPUL>
0

>  <SCORE.INTRA.REPUL.0>
0

>  <SCORE.INTRA.SOLV>
4.01214

>  <SCORE.INTRA.SOLV.lig_0>
-98.5587

>  <SCORE.INTRA.VDW>
-1.69443

>  <SCORE.INTRA.VDW.0>
-2.91167

>  <SCORE.INTRA.norm>
-0.231135

>  <SCORE.RESTR>
0

>  <SCORE.RESTR.CAVITY>
0

>  <SCORE.RESTR.norm>
0

>  <SCORE.SYSTEM>
0

>  <SCORE.SYSTEM.CONST>
0

>  <SCORE.SYSTEM.DIHEDRAL>
0

>  <SCORE.SYSTEM.SOLV>
0

>  <SCORE.SYSTEM.norm>
0

>  <SCORE.heavy>
36

>  <SCORE.norm>
-0.326883

>  <RMSD>
8.410

$$$$
2f4u_lig
 OpenBabel11021811433D
libRbt.so/2013.1/901 2013/11/27
 36 37  0  0  0  0  0  0  0  0999 V2000
   43.4137    2.5923    4.9287 C   0  0  2  0  0  0  0  0  0  0  0  0
   43.8056    2.7536    6.3423 O   0  0  0  0  0  0  0  0  0  0  0  0
   40.2726    4.4844    8.1909 C   0  0  2  0  0  0  0  0  0  0  0  0
   39.4108    5.1405    9.2116 N   0  0  0  0  0  0  0  0  0  0  0  0
   44.3538    1.5037    4.3245 C   0  0  2  0  0  0  0  0  0  0  0  0
   44.2614    0.2151    5.0353 N   0  0  0  0  0  0  0  0  0  0  0  0
   40.8807    3.1385    8.7218 C   0  0  0  0  0  0  0  0  0  0  0  0
   40.3802    5.7318   10.5892 C   0  0  0  0  0  0  0  0  0  0  0  0
   39.0530    6.0540   11.2011 C   0  0  1  0  0  0  0  0  0  0  0  0
   39.2510    6.0889   12.7206 C   0  0  0  0  0  0  0  0  0  0  0  0
   37.9813    6.3319   13.5574 C   0  0  0  0  0  0  0  0  0  0  0  0
   37.0137    5.2759   13.2530 N   0  0  0  0  0  0  0  0  0  0  0  0
   38.6285    7.3277   10.7987 O   0  0  0  0  0  0  0  0  0  0  0  0
   40.0367    7.5361    6.5632 C   0  0  0  0  0  0  0  0  0  0  0  0
   40.6465    7.5858    5.1703 C   0  0  0  0  0  0  0  0  0  0  0  0
   45.8263    2.0320    4.3601 C   0  0  1  0  0  0  0  0  0  0  0  0
   40.4566    6.3509    4.3829 N   0  0  0  0  0  0  0  0  0  0  0  0
   46.7292    1.0666    3.8272 O   0  0  0  0  0  0  0  0  0  0  0  0
   41.8155    2.4950    7.6775 C   0  0  2  0  0  0  0  0  0  0  0  0
   42.4154    1.2688    8.1881 N   0  0  0  0  0  0  0  0  0  0  0  0
   40.6893    4.9147    2.3622 C   0  0  0  0  0  0  0  0  0  0  0  0
   39.1789    5.0145    1.9922 C   0  0  0  0  0  0  0  0  0  0  0  0
   41.2179    6.1597    3.1214 C   0  0  0  0  0  0  0  0  0  0  0  0
   38.7164    3.8261    1.2142 N   0  0  0  0  0  0  0  0  0  0  0  0
   41.4259    5.7620   10.8482 O   0  0  0  0  0  0  0  0  0  0  0  0
   45.8825    3.3534    3.5676 C   0  0  2  0  0  0  0  0  0  0  0  0
   47.1890    3.9230    3.5486 O   0  0  0  0  0  0  0  0  0  0  0  0
   42.9312    3.4516    7.3068 C   0  0  2  0  0  0  0  0  0  0  0  0
   44.8916    4.3810    4.1433 C   0  0  2  0  0  0  0  0  0  0  0  0
   43.5666    3.8411    4.1962 O   0  0  0  0  0  0  0  0  0  0  0  0
   42.3195    4.7910    6.7269 C   0  0  2  0  0  0  0  0  0  0  0  0
   43.4156    5.7003    6.3955 O   0  0  0  0  0  0  0  0  0  0  0  0
   44.8688    5.6509    3.3352 C   0  0  0  0  0  0  0  0  0  0  0  0
   44.1661    6.6315    3.9983 O   0  0  0  0  0  0  0  0  0  0  0  0
   41.3919    5.4343    7.8126 C   0  0  1  0  0  0  0  0  0  0  0  0
   40.8177    6.6296    7.3700 O   0  0  0  0  0  0  0  0  0  0  0  0
  1  2  1  1  0  0  0
  1  5  1  0  0  0  0
  1 30  1  0  0  0  0
  3  4  1  1  0  0  0
  3  7  1  0  0  0  0
  3 35  1  0  0  0  0
  5  6  1  1  0  0  0
  5 16  1  0  0  0  0
  7 19  1  0  0  0  0
  8  4  1  0  0  0  0
  8 25  2  0  0  0  0
  9  8  1  6  0  0  0
  9 10  1  0  0  0  0
  9 13  1  0  0  0  0
 10 11  1  0  0  0  0
 11 12  1  0  0  0  0
 14 15  1  0  0  0  0
 14 36  1  0  0  0  0
 15 17  1  0  0  0  0
 16 18  1  6  0  0  0
 16 26  1  0  0  0  0
 17 23  1  0  0  0  0
 19 20  1  1  0  0  0
 19 28  1  0  0  0  0
 21 22  1  0  0  0  0
 21 23  1  0  0  0  0
 22 24  1  0  0  0  0
 26 27  1  1  0  0  0
 26 29  1  0  0  0  0
 28  2  1  6  0  0  0
 28 31  1  0  0  0  0
 29 30  1  0  0  0  0
 29 33  1  6  0  0  0
 31 32  1  1  0  0  0
 31 35  1  0  0  0  0
 33 34  1  0  0  0  0
 35 36  1  6  0  0  0
M  END
>  <CHROM.1>
-164.89160829,68.24847723,156.28476927,-176.84598399,58.44777079,70.65903761
-64.72719826,-168.15289694,-170.86743211,177.66128341,59.37826087,76.91188160
-169.20026767,-61.69682319,41.95788855,4.59224850,6.56382063,-0.77678351
-0.66639710,1.79699089

>  <Name>
2f4u_lig

>  <RI>
0

>  <Rbt.Current_Directory>
/home/itssahil/PROJECTS/Mol_Feturizer/New_Systems/rnas/2f4u

>  <Rbt.Executable>
rbdock ($Id: //depot/dev/client3/rdock/2013.1/src/exe/rbdock.cxx#4 $)

>  <Rbt.Library>
libRbt.so (2013.1, Build901 2013/11/27)

>  <Rbt.Parameter_File>
/export/apps/rDock/src/rDock_2013.1_src/data/scripts/dock_solv.prm

>  <Rbt.Receptor>
prm/pocket_docking_6.prm

>  <SCORE>
-16.9344

>  <SCORE.INTER>
-5.37157

>  <SCORE.INTER.CONST>
1

>  <SCORE.INTER.POLAR>
-1.61835

>  <SCORE.INTER.ROT>
14

>  <SCORE.INTER.SOLV>
10.8481

>  <SCORE.INTER.VDW>
-14.7359

>  <SCORE.INTER.norm>
-0.14921

>  <SCORE.INTRA>
-11.5628

>  <SCORE.INTRA.DIHEDRAL>
-21.4425

>  <SCORE.INTRA.DIHEDRAL.0>
26.3805

>  <SCORE.INTRA.POLAR>
0

>  <SCORE.INTRA.POLAR.0>
0

>  <SCORE.INTRA.REPUL>
0

>  <SCORE.INTRA.REPUL.0>
0

>  <SCORE.INTRA.SOLV>
5.15424

>  <SCORE.INTRA.SOLV.lig_0>
-98.5587

>  <SCORE.INTRA.VDW>
-3.41871

>  <SCORE.INTRA.VDW.0>
-2.91167

>  <SCORE.INTRA.norm>
-0.32119

>  <SCORE.RESTR>
0

>  <SCORE.RESTR.CAVITY>
0

>  <SCORE.RESTR.norm>
0

>  <SCORE.SYSTEM>
0

>  <SCORE.SYSTEM.CONST>
0

>  <SCORE.SYSTEM.DIHEDRAL>
0

>  <SCORE.SYSTEM.SOLV>
0

>  <SCORE.SYSTEM.norm>
0

>  <SCORE.heavy>
36

>  <SCORE.norm>
-0.4704

>  <RMSD>
8.429

$$$$
2f4u_lig
 OpenBabel11021811433D
libRbt.so/2013.1/901 2013/11/27
 36 37  0  0  0  0  0  0  0  0999 V2000
   34.3637    7.1990    8.3403 C   0  0  2  0  0  0  0  0  0  0  0  0
   33.6849    7.7799    7.1658 O   0  0  0  0  0  0  0  0  0  0  0  0
   36.2268    6.5479    3.8618 C   0  0  2  0  0  0  0  0  0  0  0  0
   36.7519    6.4274    2.4745 N   0  0  0  0  0  0  0  0  0  0  0  0
   33.4202    7.4275    9.5617 C   0  0  2  0  0  0  0  0  0  0  0  0
   32.0928    6.8127    9.3770 N   0  0  0  0  0  0  0  0  0  0  0  0
   34.7447    6.0427    3.9682 C   0  0  0  0  0  0  0  0  0  0  0  0
   36.7501    4.7269    1.9305 C   0  0  0  0  0  0  0  0  0  0  0  0
   37.4599    5.2605    0.7258 C   0  0  1  0  0  0  0  0  0  0  0  0
   38.9235    4.8172    0.8290 C   0  0  0  0  0  0  0  0  0  0  0  0
   39.1842    3.3121    0.6341 C   0  0  0  0  0  0  0  0  0  0  0  0
   40.6305    3.0844    0.6461 N   0  0  0  0  0  0  0  0  0  0  0  0
   36.9269    4.6973   -0.4416 O   0  0  0  0  0  0  0  0  0  0  0  0
   39.0652    8.4172    4.2641 C   0  0  0  0  0  0  0  0  0  0  0  0
   39.5588    9.8556    4.2184 C   0  0  0  0  0  0  0  0  0  0  0  0
   33.2703    8.9663    9.8028 C   0  0  1  0  0  0  0  0  0  0  0  0
   39.0415   10.6362    3.0764 N   0  0  0  0  0  0  0  0  0  0  0  0
   32.4061    9.2296   10.9051 O   0  0  0  0  0  0  0  0  0  0  0  0
   34.1919    6.2232    5.3967 C   0  0  2  0  0  0  0  0  0  0  0  0
   32.8012    5.7961    5.4842 N   0  0  0  0  0  0  0  0  0  0  0  0
   38.6172   12.7017    1.7521 C   0  0  0  0  0  0  0  0  0  0  0  0
   38.9242   14.2173    1.5601 C   0  0  0  0  0  0  0  0  0  0  0  0
   39.2446   12.1076    3.0402 C   0  0  0  0  0  0  0  0  0  0  0  0
   40.3927   14.4907    1.5472 N   0  0  0  0  0  0  0  0  0  0  0  0
   36.4361    3.7802    2.3386 O   0  0  0  0  0  0  0  0  0  0  0  0
   34.6757    9.5559   10.0358 C   0  0  2  0  0  0  0  0  0  0  0  0
   34.6470   10.9637   10.2574 O   0  0  0  0  0  0  0  0  0  0  0  0
   34.2694    7.6785    5.8130 C   0  0  2  0  0  0  0  0  0  0  0  0
   35.6030    9.2507    8.8456 C   0  0  2  0  0  0  0  0  0  0  0  0
   35.6467    7.8449    8.5776 O   0  0  0  0  0  0  0  0  0  0  0  0
   35.7707    8.1753    5.7514 C   0  0  2  0  0  0  0  0  0  0  0  0
   35.8130    9.5844    6.1397 O   0  0  0  0  0  0  0  0  0  0  0  0
   37.0044    9.7450    9.0860 C   0  0  0  0  0  0  0  0  0  0  0  0
   37.7009    8.8554    9.8725 O   0  0  0  0  0  0  0  0  0  0  0  0
   36.3009    8.0009    4.2880 C   0  0  1  0  0  0  0  0  0  0  0  0
   37.6261    8.4261    4.1564 O   0  0  0  0  0  0  0  0  0  0  0  0
  1  2  1  6  0  0  0
  1  5  1  0  0  0  0
  1 30  1  0  0  0  0
  3  4  1  6  0  0  0
  3  7  1  0  0  0  0
  3 35  1  0  0  0  0
  5  6  1  6  0  0  0
  5 16  1  0  0  0  0
  7 19  1  0  0  0  0
  8  4  1  0  0  0  0
  8 25  2  0  0  0  0
  9  8  1  1  0  0  0
  9 10  1  0  0  0  0
  9 13  1  0  0  0  0
 10 11  1  0  0  0  0
 11 12  1  0  0  0  0
 14 15  1  0  0  0  0
 14 36  1  0  0  0  0
 15 17  1  0  0  0  0
 16 18  1  1  0  0  0
 16 26  1  0  0  0  0
 17 23  1  0  0  0  0
 19 20  1  6  0  0  0
 19 28  1  0  0  0  0
 21 22  1  0  0  0  0
 21 23  1  0  0  0  0
 22 24  1  0  0  0  0
 26 27  1  6  0  0  0
 26 29  1  0  0  0  0
 28  2  1  1  0  0  0
 28 31  1  0  0  0  0
 29 30  1  0  0  0  0
 29 33  1  1  0  0  0
 31 32  1  6  0  0  0
 31 35  1  0  0  0  0
 33 34  1  0  0  0  0
 35 36  1  1  0  0  0
M  END
>  <CHROM.1>
-176.77570123,-60.95973418,107.25089305,69.91986191,175.07089650,-51.47038178
-155.30154795,169.18095832,-179.98341722,56.72568707,-173.60427846,69.14329893
80.78921098,-46.91935108,36.39546674,8.03465301,5.17749559,2.45611001,0.92238182
0.56893925

>  <Name>
2f4u_lig

>  <RI>
0

>  <Rbt.Current_Directory>
/home/itssahil/PROJECTS/Mol_Feturizer/New_Systems/rnas/2f4u

>  <Rbt.Executable>
rbdock ($Id: //depot/dev/client3/rdock/2013.1/src/exe/rbdock.cxx#4 $)

>  <Rbt.Library>
libRbt.so (2013.1, Build901 2013/11/27)

>  <Rbt.Parameter_File>
/export/apps/rDock/src/rDock_2013.1_src/data/scripts/dock_solv.prm

>  <Rbt.Receptor>
prm/pocket_docking_7.prm

>  <SCORE>
-15.2916

>  <SCORE.INTER>
-6.60961

>  <SCORE.INTER.CONST>
1

>  <SCORE.INTER.POLAR>
-0.733884

>  <SCORE.INTER.ROT>
14

>  <SCORE.INTER.SOLV>
10.6037

>  <SCORE.INTER.VDW>
-18.428

>  <SCORE.INTER.norm>
-0.1836

>  <SCORE.INTRA>
-8.68199

>  <SCORE.INTRA.DIHEDRAL>
-17.7184

>  <SCORE.INTRA.DIHEDRAL.0>
26.3805

>  <SCORE.INTRA.POLAR>
0

>  <SCORE.INTRA.POLAR.0>
0

>  <SCORE.INTRA.REPUL>
0

>  <SCORE.INTRA.REPUL.0>
0

>  <SCORE.INTRA.SOLV>
1.47193

>  <SCORE.INTRA.SOLV.lig_0>
-98.5587

>  <SCORE.INTRA.VDW>
-0.558746

>  <SCORE.INTRA.VDW.0>
-2.91167

>  <SCORE.INTRA.norm>
-0.241166

>  <SCORE.RESTR>
0

>  <SCORE.RESTR.CAVITY>
0

>  <SCORE.RESTR.norm>
0

>  <SCORE.SYSTEM>
0

>  <SCORE.SYSTEM.CONST>
0

>  <SCORE.SYSTEM.DIHEDRAL>
0

>  <SCORE.SYSTEM.SOLV>
0

>  <SCORE.SYSTEM.norm>
0

>  <SCORE.heavy>
36

>  <SCORE.norm>
-0.424767

>  <RMSD>
8.429

$$$$
2f4u_lig
 OpenBabel11021811433D
libRbt.so/2013.1/901 2013/11/27
 36 37  0  0  0  0  0  0  0  0999 V2000
   43.4045    6.2833    4.4198 C   0  0  2  0  0  0  0  0  0  0  0  0
   42.3993    5.5416    5.2056 O   0  0  0  0  0  0  0  0  0  0  0  0
   39.2607    6.3202    8.1104 C   0  0  2  0  0  0  0  0  0  0  0  0
   38.4995    6.9980    9.1948 N   0  0  0  0  0  0  0  0  0  0  0  0
   43.6376    5.4702    3.1089 C   0  0  2  0  0  0  0  0  0  0  0  0
   42.4017    5.2891    2.3252 N   0  0  0  0  0  0  0  0  0  0  0  0
   40.7065    5.9242    8.5751 C   0  0  0  0  0  0  0  0  0  0  0  0
   38.5227    6.0343   10.6976 C   0  0  0  0  0  0  0  0  0  0  0  0
   37.5673    7.0677   11.2065 C   0  0  1  0  0  0  0  0  0  0  0  0
   37.3398    6.7807   12.6949 C   0  0  0  0  0  0  0  0  0  0  0  0
   36.1504    7.5113   13.3451 C   0  0  0  0  0  0  0  0  0  0  0  0
   36.3025    8.9487   13.1113 N   0  0  0  0  0  0  0  0  0  0  0  0
   38.1327    8.3459   11.1021 O   0  0  0  0  0  0  0  0  0  0  0  0
   36.7559    8.2503    6.5922 C   0  0  0  0  0  0  0  0  0  0  0  0
   36.8745    9.6092    5.9183 C   0  0  0  0  0  0  0  0  0  0  0  0
   44.2467    4.0775    3.4803 C   0  0  1  0  0  0  0  0  0  0  0  0
   37.0381    9.5445    4.4520 N   0  0  0  0  0  0  0  0  0  0  0  0
   44.4691    3.2889    2.3141 O   0  0  0  0  0  0  0  0  0  0  0  0
   41.5055    5.2728    7.4279 C   0  0  2  0  0  0  0  0  0  0  0  0
   42.8629    4.9466    7.8467 N   0  0  0  0  0  0  0  0  0  0  0  0
   36.2695    9.2841    2.0980 C   0  0  0  0  0  0  0  0  0  0  0  0
   36.6353   10.7135    1.5967 C   0  0  0  0  0  0  0  0  0  0  0  0
   35.8626    9.2448    3.5942 C   0  0  0  0  0  0  0  0  0  0  0  0
   37.8577   11.2444    2.2713 N   0  0  0  0  0  0  0  0  0  0  0  0
   38.9732    5.1107   11.0222 O   0  0  0  0  0  0  0  0  0  0  0  0
   45.5572    4.3170    4.2564 C   0  0  2  0  0  0  0  0  0  0  0  0
   46.1882    3.1011    4.6502 O   0  0  0  0  0  0  0  0  0  0  0  0
   41.5868    6.2120    6.2411 C   0  0  2  0  0  0  0  0  0  0  0  0
   45.3055    5.1827    5.5041 C   0  0  2  0  0  0  0  0  0  0  0  0
   44.6554    6.4095    5.1537 O   0  0  0  0  0  0  0  0  0  0  0  0
   40.1292    6.5741    5.7422 C   0  0  2  0  0  0  0  0  0  0  0  0
   40.2376    7.4938    4.6106 O   0  0  0  0  0  0  0  0  0  0  0  0
   46.5837    5.4993    6.2335 C   0  0  0  0  0  0  0  0  0  0  0  0
   47.1025    4.3630    6.8121 O   0  0  0  0  0  0  0  0  0  0  0  0
   39.3468    7.2519    6.9177 C   0  0  1  0  0  0  0  0  0  0  0  0
   38.0462    7.6054    6.5465 O   0  0  0  0  0  0  0  0  0  0  0  0
  1  2  1  1  0  0  0
  1  5  1  0  0  0  0
  1 30  1  0  0  0  0
  3  4  1  1  0  0  0
  3  7  1  0  0  0  0
  3 35  1  0  0  0  0
  5  6  1  1  0  0  0
  5 16  1  0  0  0  0
  7 19  1  0  0  0  0
  8  4  1  0  0  0  0
  8 25  2  0  0  0  0
  9  8  1  1  0  0  0
  9 10  1  0  0  0  0
  9 13  1  0  0  0  0
 10 11  1  0  0  0  0
 11 12  1  0  0  0  0
 14 15  1  0  0  0  0
 14 36  1  0  0  0  0
 15 17  1  0  0  0  0
 16 18  1  6  0  0  0
 16 26  1  0  0  0  0
 17 23  1  0  0  0  0
 19 20  1  1  0  0  0
 19 28  1  0  0  0  0
 21 22  1  0  0  0  0
 21 23  1  0  0  0  0
 22 24  1  0  0  0  0
 26 27  1  1  0  0  0
 26 29  1  0  0  0  0
 28  2  1  6  0  0  0
 28 31  1  0  0  0  0
 29 30  1  0  0  0  0
 29 33  1  6  0  0  0
 31 32  1  6  0  0  0
 31 35  1  0  0  0  0
 33 34  1  0  0  0  0
 35 36  1  6  0  0  0
M  END
>  <CHROM.1>
-157.95840903,-52.19788816,-173.30089559,-166.33402018,-54.71101955,71.18977426
85.80197836,76.25149135,177.84822698,65.07104834,-68.14326640,-138.44597626
-68.72897217,73.86093390,40.54863504,6.68408525,6.49968793,0.41182345,0.51158796
-1.34954503

>  <Name>
2f4u_lig

>  <RI>
0

>  <Rbt.Current_Directory>
/home/itssahil/PROJECTS/Mol_Feturizer/New_Systems/rnas/2f4u

>  <Rbt.Executable>
rbdock ($Id: //depot/dev/client3/rdock/2013.1/src/exe/rbdock.cxx#4 $)

>  <Rbt.Library>
libRbt.so (2013.1, Build901 2013/11/27)

>  <Rbt.Parameter_File>
/export/apps/rDock/src/rDock_2013.1_src/data/scripts/dock_solv.prm

>  <Rbt.Receptor>
prm/pocket_docking_6.prm

>  <SCORE>
-13.1738

>  <SCORE.INTER>
-10.7741

>  <SCORE.INTER.CONST>
1

>  <SCORE.INTER.POLAR>
-1.19931

>  <SCORE.INTER.ROT>
14

>  <SCORE.INTER.SOLV>
15.581

>  <SCORE.INTER.VDW>
-21.312

>  <SCORE.INTER.norm>
-0.29928

>  <SCORE.INTRA>
-2.39972

>  <SCORE.INTRA.DIHEDRAL>
-11.9061

>  <SCORE.INTRA.DIHEDRAL.0>
26.3805

>  <SCORE.INTRA.POLAR>
0

>  <SCORE.INTRA.POLAR.0>
0

>  <SCORE.INTRA.REPUL>
0

>  <SCORE.INTRA.REPUL.0>
0

>  <SCORE.INTRA.SOLV>
6.45667

>  <SCORE.INTRA.SOLV.lig_0>
-98.5587

>  <SCORE.INTRA.VDW>
0.324974

>  <SCORE.INTRA.VDW.0>
-2.91167

>  <SCORE.INTRA.norm>
-0.0666588

>  <SCORE.RESTR>
0

>  <SCORE.RESTR.CAVITY>
0

>  <SCORE.RESTR.norm>
0

>  <SCORE.SYSTEM>
0

>  <SCORE.SYSTEM.CONST>
0

>  <SCORE.SYSTEM.DIHEDRAL>
0

>  <SCORE.SYSTEM.SOLV>
0

>  <SCORE.SYSTEM.norm>
0

>  <SCORE.heavy>
36

>  <SCORE.norm>
-0.365938

>  <RMSD>
8.440

$$$$
2f4u_lig
 OpenBabel11021811433D
libRbt.so/2013.1/901 2013/11/27
 36 37  0  0  0  0  0  0  0  0999 V2000
   40.1169    5.1705   11.5047 C   0  0  2  0  0  0  0  0  0  0  0  0
   39.3933    6.0251   10.5434 O   0  0  0  0  0  0  0  0  0  0  0  0
   39.7250    5.5982    6.2303 C   0  0  2  0  0  0  0  0  0  0  0  0
   40.1901    5.8328    4.8362 N   0  0  0  0  0  0  0  0  0  0  0  0
   39.2201    5.0689   12.7773 C   0  0  2  0  0  0  0  0  0  0  0  0
   37.8873    4.5075   12.4900 N   0  0  0  0  0  0  0  0  0  0  0  0
   39.1137    6.8966    6.8655 C   0  0  0  0  0  0  0  0  0  0  0  0
   39.1710    4.9565    3.6610 C   0  0  0  0  0  0  0  0  0  0  0  0
   40.1725    5.4303    2.6549 C   0  0  1  0  0  0  0  0  0  0  0  0
   41.3873    4.5007    2.7524 C   0  0  0  0  0  0  0  0  0  0  0  0
   42.5430    4.8025    1.7804 C   0  0  0  0  0  0  0  0  0  0  0  0
   42.1897    4.2787    0.4596 N   0  0  0  0  0  0  0  0  0  0  0  0
   39.6518    5.3141    1.3588 O   0  0  0  0  0  0  0  0  0  0  0  0
   42.2870    2.8409    6.2524 C   0  0  0  0  0  0  0  0  0  0  0  0
   43.7343    3.3102    6.2528 C   0  0  0  0  0  0  0  0  0  0  0  0
   39.0777    6.4933   13.4095 C   0  0  1  0  0  0  0  0  0  0  0  0
   44.7125    2.2534    5.9252 N   0  0  0  0  0  0  0  0  0  0  0  0
   38.2557    6.4567   14.5732 O   0  0  0  0  0  0  0  0  0  0  0  0
   38.6857    6.6576    8.3278 C   0  0  2  0  0  0  0  0  0  0  0  0
   38.1600    7.8756    8.9314 N   0  0  0  0  0  0  0  0  0  0  0  0
   46.4280    2.0222    4.1354 C   0  0  0  0  0  0  0  0  0  0  0  0
   47.3552    1.0205    4.8871 C   0  0  0  0  0  0  0  0  0  0  0  0
   44.9300    1.8679    4.5069 C   0  0  0  0  0  0  0  0  0  0  0  0
   48.7995    1.2848    4.6121 N   0  0  0  0  0  0  0  0  0  0  0  0
   38.2926    4.3339    3.7057 O   0  0  0  0  0  0  0  0  0  0  0  0
   40.4903    7.0189   13.7343 C   0  0  2  0  0  0  0  0  0  0  0  0
   40.4684    8.3228   14.3097 O   0  0  0  0  0  0  0  0  0  0  0  0
   39.8669    6.1891    9.1539 C   0  0  2  0  0  0  0  0  0  0  0  0
   41.3721    7.0382   12.4727 C   0  0  2  0  0  0  0  0  0  0  0  0
   41.4072    5.7481   11.8525 O   0  0  0  0  0  0  0  0  0  0  0  0
   40.4544    4.8535    8.5413 C   0  0  2  0  0  0  0  0  0  0  0  0
   41.6015    4.4353    9.3459 O   0  0  0  0  0  0  0  0  0  0  0  0
   42.7810    7.4697   12.7804 C   0  0  0  0  0  0  0  0  0  0  0  0
   43.5119    7.5916   11.6202 O   0  0  0  0  0  0  0  0  0  0  0  0
   40.8999    5.1280    7.0650 C   0  0  1  0  0  0  0  0  0  0  0  0
   41.4363    3.9883    6.4587 O   0  0  0  0  0  0  0  0  0  0  0  0
  1  2  1  6  0  0  0
  1  5  1  0  0  0  0
  1 30  1  0  0  0  0
  3  4  1  6  0  0  0
  3  7  1  0  0  0  0
  3 35  1  0  0  0  0
  5  6  1  6  0  0  0
  5 16  1  0  0  0  0
  7 19  1  0  0  0  0
  8  4  1  0  0  0  0
  8 25  2  0  0  0  0
  9  8  1  1  0  0  0
  9 10  1  0  0  0  0
  9 13  1  0  0  0  0
 10 11  1  0  0  0  0
 11 12  1  0  0  0  0
 14 15  1  0  0  0  0
 14 36  1  0  0  0  0
 15 17  1  0  0  0  0
 16 18  1  1  0  0  0
 16 26  1  0  0  0  0
 17 23  1  0  0  0  0
 19 20  1  1  0  0  0
 19 28  1  0  0  0  0
 21 22  1  0  0  0  0
 21 23  1  0  0  0  0
 22 24  1  0  0  0  0
 26 27  1  6  0  0  0
 26 29  1  0  0  0  0
 28  2  1  1  0  0  0
 28 31  1  0  0  0  0
 29 30  1  0  0  0  0
 29 33  1  1  0  0  0
 31 32  1  1  0  0  0
 31 35  1  0  0  0  0
 33 34  1  0  0  0  0
 35 36  1  6  0  0  0
M  END
>  <CHROM.1>
-171.61709761,-111.42785889,79.79103534,179.27775614,-78.48829471,-174.59236862
-56.88206382,79.58395311,123.58657390,-174.27769457,66.59501320,159.03121413
-174.67404646,-176.91204981,41.27829295,5.08028844,7.82871776,-1.93056889
0.43481409,-1.74582336

>  <Name>
2f4u_lig

>  <RI>
0

>  <Rbt.Current_Directory>
/home/itssahil/PROJECTS/Mol_Feturizer/New_Systems/rnas/2f4u

>  <Rbt.Executable>
rbdock ($Id: //depot/dev/client3/rdock/2013.1/src/exe/rbdock.cxx#4 $)

>  <Rbt.Library>
libRbt.so (2013.1, Build901 2013/11/27)

>  <Rbt.Parameter_File>
/export/apps/rDock/src/rDock_2013.1_src/data/scripts/dock_solv.prm

>  <Rbt.Receptor>
prm/pocket_docking_7.prm

>  <SCORE>
-17.6884

>  <SCORE.INTER>
-8.17769

>  <SCORE.INTER.CONST>
1

>  <SCORE.INTER.POLAR>
-1.5539

>  <SCORE.INTER.ROT>
14

>  <SCORE.INTER.SOLV>
15.2033

>  <SCORE.INTER.VDW>
-18.2732

>  <SCORE.INTER.norm>
-0.227158

>  <SCORE.INTRA>
-9.51071

>  <SCORE.INTRA.DIHEDRAL>
-18.334

>  <SCORE.INTRA.DIHEDRAL.0>
26.3805

>  <SCORE.INTRA.POLAR>
0

>  <SCORE.INTRA.POLAR.0>
0

>  <SCORE.INTRA.REPUL>
0

>  <SCORE.INTRA.REPUL.0>
0

>  <SCORE.INTRA.SOLV>
0.269643

>  <SCORE.INTRA.SOLV.lig_0>
-98.5587

>  <SCORE.INTRA.VDW>
-0.478535

>  <SCORE.INTRA.VDW.0>
-2.91167

>  <SCORE.INTRA.norm>
-0.264186

>  <SCORE.RESTR>
0

>  <SCORE.RESTR.CAVITY>
0

>  <SCORE.RESTR.norm>
0

>  <SCORE.SYSTEM>
0

>  <SCORE.SYSTEM.CONST>
0

>  <SCORE.SYSTEM.DIHEDRAL>
0

>  <SCORE.SYSTEM.SOLV>
0

>  <SCORE.SYSTEM.norm>
0

>  <SCORE.heavy>
36

>  <SCORE.norm>
-0.491345

>  <RMSD>
8.440

$$$$
2f4u_lig
 OpenBabel11021811433D
libRbt.so/2013.1/901 2013/11/27
 36 37  0  0  0  0  0  0  0  0999 V2000
   41.0151    4.0646    7.3794 C   0  0  2  0  0  0  0  0  0  0  0  0
   41.6726    5.2856    6.8748 O   0  0  0  0  0  0  0  0  0  0  0  0
   40.3362    8.6429    4.4586 C   0  0  2  0  0  0  0  0  0  0  0  0
   39.8005    9.3984    3.2936 N   0  0  0  0  0  0  0  0  0  0  0  0
   41.8069    3.6212    8.6485 C   0  0  2  0  0  0  0  0  0  0  0  0
   41.8343    4.6613    9.6933 N   0  0  0  0  0  0  0  0  0  0  0  0
   41.6437    7.8568    4.0902 C   0  0  0  0  0  0  0  0  0  0  0  0
   38.7081   10.7079    3.8221 C   0  0  0  0  0  0  0  0  0  0  0  0
   38.4491   10.8888    2.3593 C   0  0  1  0  0  0  0  0  0  0  0  0
   37.1422   11.6782    2.2247 C   0  0  0  0  0  0  0  0  0  0  0  0
   36.6416   11.9072    0.7865 C   0  0  0  0  0  0  0  0  0  0  0  0
   36.2926   10.6105    0.2028 N   0  0  0  0  0  0  0  0  0  0  0  0
   39.4689   11.6530    1.7759 O   0  0  0  0  0  0  0  0  0  0  0  0
   36.9116    8.7996    5.9139 C   0  0  0  0  0  0  0  0  0  0  0  0
   37.2911    9.3591    7.2769 C   0  0  0  0  0  0  0  0  0  0  0  0
   43.2662    3.2449    8.2271 C   0  0  1  0  0  0  0  0  0  0  0  0
   37.9887    8.3961    8.1527 N   0  0  0  0  0  0  0  0  0  0  0  0
   44.0369    2.8419    9.3563 O   0  0  0  0  0  0  0  0  0  0  0  0
   42.1594    7.0337    5.2883 C   0  0  2  0  0  0  0  0  0  0  0  0
   43.3477    6.2684    4.9325 N   0  0  0  0  0  0  0  0  0  0  0  0
   37.8478    6.9151   10.1493 C   0  0  0  0  0  0  0  0  0  0  0  0
   37.1047    5.7492   10.8683 C   0  0  0  0  0  0  0  0  0  0  0  0
   37.2255    7.2849    8.7776 C   0  0  0  0  0  0  0  0  0  0  0  0
   37.2724    4.4525   10.1458 N   0  0  0  0  0  0  0  0  0  0  0  0
   38.3695   11.1051    4.7650 O   0  0  0  0  0  0  0  0  0  0  0  0
   43.1882    2.1252    7.1701 C   0  0  2  0  0  0  0  0  0  0  0  0
   44.4746    1.7160    6.7127 O   0  0  0  0  0  0  0  0  0  0  0  0
   41.0940    6.0651    5.7614 C   0  0  2  0  0  0  0  0  0  0  0  0
   42.3402    2.5675    5.9639 C   0  0  2  0  0  0  0  0  0  0  0  0
   41.0423    3.0039    6.3826 O   0  0  0  0  0  0  0  0  0  0  0  0
   39.7914    6.8613    6.1780 C   0  0  2  0  0  0  0  0  0  0  0  0
   38.7764    5.9025    6.6121 O   0  0  0  0  0  0  0  0  0  0  0  0
   42.1808    1.4614    4.9554 C   0  0  0  0  0  0  0  0  0  0  0  0
   43.3961    1.1440    4.3920 O   0  0  0  0  0  0  0  0  0  0  0  0
   39.2768    7.6713    4.9401 C   0  0  1  0  0  0  0  0  0  0  0  0
   38.1199    8.3989    5.2339 O   0  0  0  0  0  0  0  0  0  0  0  0
  1  2  1  6  0  0  0
  1  5  1  0  0  0  0
  1 30  1  0  0  0  0
  3  4  1  6  0  0  0
  3  7  1  0  0  0  0
  3 35  1  0  0  0  0
  5  6  1  1  0  0  0
  5 16  1  0  0  0  0
  7 19  1  0  0  0  0
  8  4  1  0  0  0  0
  8 25  2  0  0  0  0
  9  8  1  1  0  0  0
  9 10  1  0  0  0  0
  9 13  1  0  0  0  0
 10 11  1  0  0  0  0
 11 12  1  0  0  0  0
 14 15  1  0  0  0  0
 14 36  1  0  0  0  0
 15 17  1  0  0  0  0
 16 18  1  1  0  0  0
 16 26  1  0  0  0  0
 17 23  1  0  0  0  0
 19 20  1  6  0  0  0
 19 28  1  0  0  0  0
 21 22  1  0  0  0  0
 21 23  1  0  0  0  0
 22 24  1  0  0  0  0
 26 27  1  6  0  0  0
 26 29  1  0  0  0  0
 28  2  1  1  0  0  0
 28 31  1  0  0  0  0
 29 30  1  0  0  0  0
 29 33  1  6  0  0  0
 31 32  1  6  0  0  0
 31 35  1  0  0  0  0
 33 34  1  0  0  0  0
 35 36  1  1  0  0  0
M  END
>  <CHROM.1>
-173.23352853,-159.79078760,161.43627024,-176.56317762,65.30390514,-60.51511488
68.49604045,-73.23977010,-148.96650859,67.73151900,-179.75937864,-166.82566392
-65.38077853,-142.64293354,40.05248642,6.61867336,5.93900520,0.90427135,-0.73631369
2.13740588

>  <Name>
2f4u_lig

>  <RI>
0

>  <Rbt.Current_Directory>
/home/itssahil/PROJECTS/Mol_Feturizer/New_Systems/rnas/2f4u

>  <Rbt.Executable>
rbdock ($Id: //depot/dev/client3/rdock/2013.1/src/exe/rbdock.cxx#4 $)

>  <Rbt.Library>
libRbt.so (2013.1, Build901 2013/11/27)

>  <Rbt.Parameter_File>
/export/apps/rDock/src/rDock_2013.1_src/data/scripts/dock_solv.prm

>  <Rbt.Receptor>
prm/pocket_docking_3.prm

>  <SCORE>
-9.55726

>  <SCORE.INTER>
-1.0186

>  <SCORE.INTER.CONST>
1

>  <SCORE.INTER.POLAR>
-1.16634

>  <SCORE.INTER.ROT>
14

>  <SCORE.INTER.SOLV>
20.2507

>  <SCORE.INTER.VDW>
-16.4748

>  <SCORE.INTER.norm>
-0.0282943

>  <SCORE.INTRA>
-8.56928

>  <SCORE.INTRA.DIHEDRAL>
-17.4054

>  <SCORE.INTRA.DIHEDRAL.0>
26.3805

>  <SCORE.INTRA.POLAR>
0

>  <SCORE.INTRA.POLAR.0>
0

>  <SCORE.INTRA.REPUL>
0

>  <SCORE.INTRA.REPUL.0>
0

>  <SCORE.INTRA.SOLV>
4.16326

>  <SCORE.INTRA.SOLV.lig_0>
-98.5587

>  <SCORE.INTRA.VDW>
-1.94819

>  <SCORE.INTRA.VDW.0>
-2.91167

>  <SCORE.INTRA.norm>
-0.238036

>  <SCORE.RESTR>
0.0306176

>  <SCORE.RESTR.CAVITY>
0.0306176

>  <SCORE.RESTR.norm>
0.000850488

>  <SCORE.SYSTEM>
0

>  <SCORE.SYSTEM.CONST>
0

>  <SCORE.SYSTEM.DIHEDRAL>
0

>  <SCORE.SYSTEM.SOLV>
0

>  <SCORE.SYSTEM.norm>
0

>  <SCORE.heavy>
36

>  <SCORE.norm>
-0.265479

>  <RMSD>
8.445

$$$$
2f4u_lig
 OpenBabel11021811433D
libRbt.so/2013.1/901 2013/11/27
 36 37  0  0  0  0  0  0  0  0999 V2000
   37.4816    6.4995    9.1730 C   0  0  2  0  0  0  0  0  0  0  0  0
   37.8490    7.9231    9.0450 O   0  0  0  0  0  0  0  0  0  0  0  0
   37.7940    8.5533    4.7444 C   0  0  2  0  0  0  0  0  0  0  0  0
   37.9333    9.2429    3.4330 N   0  0  0  0  0  0  0  0  0  0  0  0
   37.1202    6.2630   10.6722 C   0  0  2  0  0  0  0  0  0  0  0  0
   36.0154    7.1240   11.1329 N   0  0  0  0  0  0  0  0  0  0  0  0
   36.7629    9.2812    5.6773 C   0  0  0  0  0  0  0  0  0  0  0  0
   38.2304   10.9896    3.6520 C   0  0  0  0  0  0  0  0  0  0  0  0
   38.1017   11.0533    2.1623 C   0  0  1  0  0  0  0  0  0  0  0  0
   36.6058   11.1421    1.8400 C   0  0  0  0  0  0  0  0  0  0  0  0
   36.2403   11.1386    0.3442 C   0  0  0  0  0  0  0  0  0  0  0  0
   36.7158   12.3874   -0.2544 N   0  0  0  0  0  0  0  0  0  0  0  0
   38.7117   12.2155    1.6709 O   0  0  0  0  0  0  0  0  0  0  0  0
   40.6996    6.8262    3.8151 C   0  0  0  0  0  0  0  0  0  0  0  0
   41.6264    6.0780    4.7616 C   0  0  0  0  0  0  0  0  0  0  0  0
   38.3952    6.5130   11.5442 C   0  0  1  0  0  0  0  0  0  0  0  0
   40.9366    5.4250    5.8925 N   0  0  0  0  0  0  0  0  0  0  0  0
   38.1143    6.3199   12.9281 O   0  0  0  0  0  0  0  0  0  0  0  0
   36.6672    8.5911    7.0532 C   0  0  2  0  0  0  0  0  0  0  0  0
   35.7435    9.2939    7.9349 N   0  0  0  0  0  0  0  0  0  0  0  0
   38.5167    4.8509    5.7719 C   0  0  0  0  0  0  0  0  0  0  0  0
   37.4437    3.7267    5.6580 C   0  0  0  0  0  0  0  0  0  0  0  0
   39.9699    4.3280    5.6287 C   0  0  0  0  0  0  0  0  0  0  0  0
   37.4829    3.0522    4.3258 N   0  0  0  0  0  0  0  0  0  0  0  0
   38.3659   11.6566    4.4875 O   0  0  0  0  0  0  0  0  0  0  0  0
   39.5056    5.5608   11.0569 C   0  0  2  0  0  0  0  0  0  0  0  0
   40.7192    5.7186   11.7876 O   0  0  0  0  0  0  0  0  0  0  0  0
   38.0271    8.5541    7.7214 C   0  0  2  0  0  0  0  0  0  0  0  0
   39.7877    5.7686    9.5580 C   0  0  2  0  0  0  0  0  0  0  0  0
   38.5880    5.6354    8.7877 O   0  0  0  0  0  0  0  0  0  0  0  0
   39.0559    7.7788    6.8023 C   0  0  2  0  0  0  0  0  0  0  0  0
   40.3609    7.7745    7.4620 O   0  0  0  0  0  0  0  0  0  0  0  0
   40.8105    4.7931    9.0399 C   0  0  0  0  0  0  0  0  0  0  0  0
   40.3447    3.5024    9.1501 O   0  0  0  0  0  0  0  0  0  0  0  0
   39.1501    8.5104    5.4206 C   0  0  1  0  0  0  0  0  0  0  0  0
   40.0489    7.8811    4.5544 O   0  0  0  0  0  0  0  0  0  0  0  0
  1  2  1  1  0  0  0
  1  5  1  0  0  0  0
  1 30  1  0  0  0  0
  3  4  1  6  0  0  0
  3  7  1  0  0  0  0
  3 35  1  0  0  0  0
  5  6  1  1  0  0  0
  5 16  1  0  0  0  0
  7 19  1  0  0  0  0
  8  4  1  0  0  0  0
  8 25  2  0  0  0  0
  9  8  1  1  0  0  0
  9 10  1  0  0  0  0
  9 13  1  0  0  0  0
 10 11  1  0  0  0  0
 11 12  1  0  0  0  0
 14 15  1  0  0  0  0
 14 36  1  0  0  0  0
 15 17  1  0  0  0  0
 16 18  1  1  0  0  0
 16 26  1  0  0  0  0
 17 23  1  0  0  0  0
 19 20  1  1  0  0  0
 19 28  1  0  0  0  0
 21 22  1  0  0  0  0
 21 23  1  0  0  0  0
 22 24  1  0  0  0  0
 26 27  1  1  0  0  0
 26 29  1  0  0  0  0
 28  2  1  1  0  0  0
 28 31  1  0  0  0  0
 29 30  1  0  0  0  0
 29 33  1  6  0  0  0
 31 32  1  1  0  0  0
 31 35  1  0  0  0  0
 33 34  1  0  0  0  0
 35 36  1  6  0  0  0
M  END
>  <CHROM.1>
-169.44857076,50.50314305,83.75094794,-176.72185627,-67.95566418,61.82963105
-78.25336807,64.12803212,-103.39238490,-61.51694326,-173.93713468,67.19461512
62.84839828,-73.24315615,38.52951259,7.54198168,6.53904263,1.31012758,-1.02602856
1.92529582

>  <Name>
2f4u_lig

>  <RI>
0

>  <Rbt.Current_Directory>
/home/itssahil/PROJECTS/Mol_Feturizer/New_Systems/rnas/2f4u

>  <Rbt.Executable>
rbdock ($Id: //depot/dev/client3/rdock/2013.1/src/exe/rbdock.cxx#4 $)

>  <Rbt.Library>
libRbt.so (2013.1, Build901 2013/11/27)

>  <Rbt.Parameter_File>
/export/apps/rDock/src/rDock_2013.1_src/data/scripts/dock_solv.prm

>  <Rbt.Receptor>
prm/pocket_docking_5.prm

>  <SCORE>
-21.7755

>  <SCORE.INTER>
-11.6978

>  <SCORE.INTER.CONST>
1

>  <SCORE.INTER.POLAR>
-1.95643

>  <SCORE.INTER.ROT>
14

>  <SCORE.INTER.SOLV>
11.2782

>  <SCORE.INTER.VDW>
-17.9698

>  <SCORE.INTER.norm>
-0.324939

>  <SCORE.INTRA>
-10.0776

>  <SCORE.INTRA.DIHEDRAL>
-20.2045

>  <SCORE.INTRA.DIHEDRAL.0>
26.3805

>  <SCORE.INTRA.POLAR>
0

>  <SCORE.INTRA.POLAR.0>
0

>  <SCORE.INTRA.REPUL>
0.0471174

>  <SCORE.INTRA.REPUL.0>
0

>  <SCORE.INTRA.SOLV>
6.80552

>  <SCORE.INTRA.SOLV.lig_0>
-98.5587

>  <SCORE.INTRA.VDW>
-3.61371

>  <SCORE.INTRA.VDW.0>
-2.91167

>  <SCORE.INTRA.norm>
-0.279934

>  <SCORE.RESTR>
0

>  <SCORE.RESTR.CAVITY>
0

>  <SCORE.RESTR.norm>
0

>  <SCORE.SYSTEM>
0

>  <SCORE.SYSTEM.CONST>
0

>  <SCORE.SYSTEM.DIHEDRAL>
0

>  <SCORE.SYSTEM.SOLV>
0

>  <SCORE.SYSTEM.norm>
0

>  <SCORE.heavy>
36

>  <SCORE.norm>
-0.604874

>  <RMSD>
8.448

$$$$
2f4u_lig
 OpenBabel11021811433D
libRbt.so/2013.1/901 2013/11/27
 36 37  0  0  0  0  0  0  0  0999 V2000
   45.5669    4.0624    6.3019 C   0  0  2  0  0  0  0  0  0  0  0  0
   44.9316    5.3324    5.9004 O   0  0  0  0  0  0  0  0  0  0  0  0
   40.8993    6.7773    6.6410 C   0  0  2  0  0  0  0  0  0  0  0  0
   39.4244    6.9268    6.5107 N   0  0  0  0  0  0  0  0  0  0  0  0
   47.0845    4.1943    5.9649 C   0  0  2  0  0  0  0  0  0  0  0  0
   47.7230    5.3307    6.6544 N   0  0  0  0  0  0  0  0  0  0  0  0
   41.6382    7.1085    5.2966 C   0  0  0  0  0  0  0  0  0  0  0  0
   38.9833    8.5980    6.0635 C   0  0  0  0  0  0  0  0  0  0  0  0
   37.5762    8.1273    6.2590 C   0  0  1  0  0  0  0  0  0  0  0  0
   36.6556    9.3177    5.9676 C   0  0  0  0  0  0  0  0  0  0  0  0
   36.7383    9.8971    4.5432 C   0  0  0  0  0  0  0  0  0  0  0  0
   37.8218   10.8811    4.5028 N   0  0  0  0  0  0  0  0  0  0  0  0
   37.2689    7.1172    5.3373 O   0  0  0  0  0  0  0  0  0  0  0  0
   39.9311    4.3251    9.3183 C   0  0  0  0  0  0  0  0  0  0  0  0
   39.8141    5.2329   10.5336 C   0  0  0  0  0  0  0  0  0  0  0  0
   47.2463    4.3467    4.4159 C   0  0  1  0  0  0  0  0  0  0  0  0
   41.1057    5.5588   11.1712 N   0  0  0  0  0  0  0  0  0  0  0  0
   48.6186    4.4822    4.0557 O   0  0  0  0  0  0  0  0  0  0  0  0
   43.1604    6.8971    5.4265 C   0  0  2  0  0  0  0  0  0  0  0  0
   43.8412    7.1610    4.1650 N   0  0  0  0  0  0  0  0  0  0  0  0
   41.3099    6.7048   13.3723 C   0  0  0  0  0  0  0  0  0  0  0  0
   39.9288    6.2954   13.9666 C   0  0  0  0  0  0  0  0  0  0  0  0
   41.2871    6.8775   11.8311 C   0  0  0  0  0  0  0  0  0  0  0  0
   38.9037    7.3660   13.7820 N   0  0  0  0  0  0  0  0  0  0  0  0
   39.5140    9.5074    5.8341 O   0  0  0  0  0  0  0  0  0  0  0  0
   46.6061    3.1165    3.7421 C   0  0  2  0  0  0  0  0  0  0  0  0
   46.6944    3.1655    2.3203 O   0  0  0  0  0  0  0  0  0  0  0  0
   43.4622    5.4706    5.8402 C   0  0  2  0  0  0  0  0  0  0  0  0
   45.1293    2.9729    4.1520 C   0  0  2  0  0  0  0  0  0  0  0  0
   44.9944    2.9372    5.5770 O   0  0  0  0  0  0  0  0  0  0  0  0
   42.7560    5.1510    7.2200 C   0  0  2  0  0  0  0  0  0  0  0  0
   43.0487    3.7657    7.5849 O   0  0  0  0  0  0  0  0  0  0  0  0
   44.5050    1.7319    3.5719 C   0  0  0  0  0  0  0  0  0  0  0  0
   45.1414    0.6063    4.0443 O   0  0  0  0  0  0  0  0  0  0  0  0
   41.2115    5.3529    7.0557 C   0  0  1  0  0  0  0  0  0  0  0  0
   40.5187    5.0823    8.2394 O   0  0  0  0  0  0  0  0  0  0  0  0
  1  2  1  6  0  0  0
  1  5  1  0  0  0  0
  1 30  1  0  0  0  0
  3  4  1  6  0  0  0
  3  7  1  0  0  0  0
  3 35  1  0  0  0  0
  5  6  1  1  0  0  0
  5 16  1  0  0  0  0
  7 19  1  0  0  0  0
  8  4  1  0  0  0  0
  8 25  2  0  0  0  0
  9  8  1  6  0  0  0
  9 10  1  0  0  0  0
  9 13  1  0  0  0  0
 10 11  1  0  0  0  0
 11 12  1  0  0  0  0
 14 15  1  0  0  0  0
 14 36  1  0  0  0  0
 15 17  1  0  0  0  0
 16 18  1  1  0  0  0
 16 26  1  0  0  0  0
 17 23  1  0  0  0  0
 19 20  1  6  0  0  0
 19 28  1  0  0  0  0
 21 22  1  0  0  0  0
 21 23  1  0  0  0  0
 22 24  1  0  0  0  0
 26 27  1  6  0  0  0
 26 29  1  0  0  0  0
 28  2  1  1  0  0  0
 28 31  1  0  0  0  0
 29 30  1  0  0  0  0
 29 33  1  6  0  0  0
 31 32  1  6  0  0  0
 31 35  1  0  0  0  0
 33 34  1  0  0  0  0
 35 36  1  1  0  0  0
M  END
>  <CHROM.1>
168.42697539,-60.28355131,-179.98331720,60.87159174,-86.24535467,-71.25897377
155.69359107,148.00946137,107.62544299,-65.01108618,-69.07233653,178.77734958
62.15789659,164.87744038,42.27325530,5.73546335,6.73327288,-0.36147191,-0.58200152
1.74725663

>  <Name>
2f4u_lig

>  <RI>
0

>  <Rbt.Current_Directory>
/home/itssahil/PROJECTS/Mol_Feturizer/New_Systems/rnas/2f4u

>  <Rbt.Executable>
rbdock ($Id: //depot/dev/client3/rdock/2013.1/src/exe/rbdock.cxx#4 $)

>  <Rbt.Library>
libRbt.so (2013.1, Build901 2013/11/27)

>  <Rbt.Parameter_File>
/export/apps/rDock/src/rDock_2013.1_src/data/scripts/dock_solv.prm

>  <Rbt.Receptor>
prm/pocket_docking_8.prm

>  <SCORE>
-15.8237

>  <SCORE.INTER>
-10.4628

>  <SCORE.INTER.CONST>
1

>  <SCORE.INTER.POLAR>
-1.2826

>  <SCORE.INTER.ROT>
14

>  <SCORE.INTER.SOLV>
21.8854

>  <SCORE.INTER.VDW>
-22.9283

>  <SCORE.INTER.norm>
-0.290633

>  <SCORE.INTRA>
-5.36087

>  <SCORE.INTRA.DIHEDRAL>
-16.4401

>  <SCORE.INTRA.DIHEDRAL.0>
26.3805

>  <SCORE.INTRA.POLAR>
0

>  <SCORE.INTRA.POLAR.0>
0

>  <SCORE.INTRA.REPUL>
0

>  <SCORE.INTRA.REPUL.0>
0

>  <SCORE.INTRA.SOLV>
4.96549

>  <SCORE.INTRA.SOLV.lig_0>
-98.5587

>  <SCORE.INTRA.VDW>
0.376442

>  <SCORE.INTRA.VDW.0>
-2.91167

>  <SCORE.INTRA.norm>
-0.148913

>  <SCORE.RESTR>
0

>  <SCORE.RESTR.CAVITY>
0

>  <SCORE.RESTR.norm>
0

>  <SCORE.SYSTEM>
0

>  <SCORE.SYSTEM.CONST>
0

>  <SCORE.SYSTEM.DIHEDRAL>
0

>  <SCORE.SYSTEM.SOLV>
0

>  <SCORE.SYSTEM.norm>
0

>  <SCORE.heavy>
36

>  <SCORE.norm>
-0.439546

>  <RMSD>
8.450

$$$$
2f4u_lig
 OpenBabel11021811433D
libRbt.so/2013.1/901 2013/11/27
 36 37  0  0  0  0  0  0  0  0999 V2000
   36.3725    9.5206    9.4715 C   0  0  2  0  0  0  0  0  0  0  0  0
   37.5916    8.8132    9.0342 O   0  0  0  0  0  0  0  0  0  0  0  0
   38.6246    7.4228    5.0473 C   0  0  2  0  0  0  0  0  0  0  0  0
   38.6608    6.5584    3.8364 N   0  0  0  0  0  0  0  0  0  0  0  0
   36.8132   10.5342   10.5726 C   0  0  2  0  0  0  0  0  0  0  0  0
   37.8216   11.4954   10.0892 N   0  0  0  0  0  0  0  0  0  0  0  0
   39.1311    6.6596    6.3217 C   0  0  0  0  0  0  0  0  0  0  0  0
   40.1490    5.5732    3.7924 C   0  0  0  0  0  0  0  0  0  0  0  0
   39.6665    5.1620    2.4367 C   0  0  1  0  0  0  0  0  0  0  0  0
   40.7426    4.2557    1.8284 C   0  0  0  0  0  0  0  0  0  0  0  0
   42.1441    4.8783    1.6890 C   0  0  0  0  0  0  0  0  0  0  0  0
   43.0060    3.9315    0.9787 N   0  0  0  0  0  0  0  0  0  0  0  0
   38.4898    4.4087    2.5474 O   0  0  0  0  0  0  0  0  0  0  0  0
   35.8937    9.2206    3.1838 C   0  0  0  0  0  0  0  0  0  0  0  0
   36.7339    9.7833    2.0472 C   0  0  0  0  0  0  0  0  0  0  0  0
   37.3745    9.7374   11.7967 C   0  0  1  0  0  0  0  0  0  0  0  0
   35.9506   10.2087    0.8697 N   0  0  0  0  0  0  0  0  0  0  0  0
   37.8025   10.6212   12.8297 O   0  0  0  0  0  0  0  0  0  0  0  0
   39.0375    7.5461    7.5803 C   0  0  2  0  0  0  0  0  0  0  0  0
   39.4652    6.8221    8.7708 N   0  0  0  0  0  0  0  0  0  0  0  0
   36.5378   12.6282    0.9048 C   0  0  0  0  0  0  0  0  0  0  0  0
   36.7707   13.9192    0.0638 C   0  0  0  0  0  0  0  0  0  0  0  0
   36.4292   11.3449    0.0405 C   0  0  0  0  0  0  0  0  0  0  0  0
   36.8050   15.1429    0.9198 N   0  0  0  0  0  0  0  0  0  0  0  0
   41.0027    5.4249    4.4333 O   0  0  0  0  0  0  0  0  0  0  0  0
   36.2722    8.7812   12.2947 C   0  0  2  0  0  0  0  0  0  0  0  0
   36.6916    7.9987   13.4098 O   0  0  0  0  0  0  0  0  0  0  0  0
   37.6110    8.0114    7.7937 C   0  0  2  0  0  0  0  0  0  0  0  0
   35.8081    7.8436   11.1655 C   0  0  2  0  0  0  0  0  0  0  0  0
   35.3937    8.5911   10.0168 O   0  0  0  0  0  0  0  0  0  0  0  0
   37.1157    8.8220    6.5280 C   0  0  2  0  0  0  0  0  0  0  0  0
   35.7334    9.2421    6.7536 O   0  0  0  0  0  0  0  0  0  0  0  0
   34.6743    6.9560   11.6048 C   0  0  0  0  0  0  0  0  0  0  0  0
   33.6124    7.7133   12.0451 O   0  0  0  0  0  0  0  0  0  0  0  0
   37.2010    7.8944    5.2689 C   0  0  1  0  0  0  0  0  0  0  0  0
   36.7723    8.5452    4.1083 O   0  0  0  0  0  0  0  0  0  0  0  0
  1  2  1  1  0  0  0
  1  5  1  0  0  0  0
  1 30  1  0  0  0  0
  3  4  1  6  0  0  0
  3  7  1  0  0  0  0
  3 35  1  0  0  0  0
  5  6  1  6  0  0  0
  5 16  1  0  0  0  0
  7 19  1  0  0  0  0
  8  4  1  0  0  0  0
  8 25  2  0  0  0  0
  9  8  1  1  0  0  0
  9 10  1  0  0  0  0
  9 13  1  0  0  0  0
 10 11  1  0  0  0  0
 11 12  1  0  0  0  0
 14 15  1  0  0  0  0
 14 36  1  0  0  0  0
 15 17  1  0  0  0  0
 16 18  1  1  0  0  0
 16 26  1  0  0  0  0
 17 23  1  0  0  0  0
 19 20  1  1  0  0  0
 19 28  1  0  0  0  0
 21 22  1  0  0  0  0
 21 23  1  0  0  0  0
 22 24  1  0  0  0  0
 26 27  1  1  0  0  0
 26 29  1  0  0  0  0
 28  2  1  1  0  0  0
 28 31  1  0  0  0  0
 29 30  1  0  0  0  0
 29 33  1  1  0  0  0
 31 32  1  1  0  0  0
 31 35  1  0  0  0  0
 33 34  1  0  0  0  0
 35 36  1  6  0  0  0
M  END
>  <CHROM.1>
-165.53269040,-41.28355559,176.59459564,-58.33408478,-174.59874613,165.79478524
169.69150121,148.37565984,-59.56995740,177.26491726,-169.08715728,174.51828604
57.48111752,174.53183973,37.63587284,8.38616059,6.21101769,2.03390862,-1.00642303
1.90004095

>  <Name>
2f4u_lig

>  <RI>
0

>  <Rbt.Current_Directory>
/home/itssahil/PROJECTS/Mol_Feturizer/New_Systems/rnas/2f4u

>  <Rbt.Executable>
rbdock ($Id: //depot/dev/client3/rdock/2013.1/src/exe/rbdock.cxx#4 $)

>  <Rbt.Library>
libRbt.so (2013.1, Build901 2013/11/27)

>  <Rbt.Parameter_File>
/export/apps/rDock/src/rDock_2013.1_src/data/scripts/dock_solv.prm

>  <Rbt.Receptor>
prm/pocket_docking_7.prm

>  <SCORE>
-21.8515

>  <SCORE.INTER>
-12.4878

>  <SCORE.INTER.CONST>
1

>  <SCORE.INTER.POLAR>
-2.46289

>  <SCORE.INTER.ROT>
14

>  <SCORE.INTER.SOLV>
22.126

>  <SCORE.INTER.VDW>
-20.4243

>  <SCORE.INTER.norm>
-0.346884

>  <SCORE.INTRA>
-9.36852

>  <SCORE.INTRA.DIHEDRAL>
-21.5122

>  <SCORE.INTRA.DIHEDRAL.0>
26.3805

>  <SCORE.INTRA.POLAR>
0

>  <SCORE.INTRA.POLAR.0>
0

>  <SCORE.INTRA.REPUL>
0.0180742

>  <SCORE.INTRA.REPUL.0>
0

>  <SCORE.INTRA.SOLV>
-1.02359

>  <SCORE.INTRA.SOLV.lig_0>
-98.5587

>  <SCORE.INTRA.VDW>
1.809

>  <SCORE.INTRA.VDW.0>
-2.91167

>  <SCORE.INTRA.norm>
-0.260237

>  <SCORE.RESTR>
0.00486239

>  <SCORE.RESTR.CAVITY>
0.00486239

>  <SCORE.RESTR.norm>
0.000135066

>  <SCORE.SYSTEM>
0

>  <SCORE.SYSTEM.CONST>
0

>  <SCORE.SYSTEM.DIHEDRAL>
0

>  <SCORE.SYSTEM.SOLV>
0

>  <SCORE.SYSTEM.norm>
0

>  <SCORE.heavy>
36

>  <SCORE.norm>
-0.606986

>  <RMSD>
8.454

$$$$
2f4u_lig
 OpenBabel11021811433D
libRbt.so/2013.1/901 2013/11/27
 36 37  0  0  0  0  0  0  0  0999 V2000
   42.1275    4.0879    5.3184 C   0  0  2  0  0  0  0  0  0  0  0  0
   41.3773    4.9933    6.2102 O   0  0  0  0  0  0  0  0  0  0  0  0
   39.7553    8.9264    5.3183 C   0  0  2  0  0  0  0  0  0  0  0  0
   38.8939    9.9753    4.7079 N   0  0  0  0  0  0  0  0  0  0  0  0
   42.0182    2.6592    5.9355 C   0  0  2  0  0  0  0  0  0  0  0  0
   40.6220    2.2056    6.0746 N   0  0  0  0  0  0  0  0  0  0  0  0
   40.5436    8.1157    4.2300 C   0  0  0  0  0  0  0  0  0  0  0  0
   39.6475   10.6531    3.2383 C   0  0  0  0  0  0  0  0  0  0  0  0
   38.4996   11.6129    3.2645 C   0  0  1  0  0  0  0  0  0  0  0  0
   38.8473   12.7615    2.3110 C   0  0  0  0  0  0  0  0  0  0  0  0
   40.1145   13.5636    2.6607 C   0  0  0  0  0  0  0  0  0  0  0  0
   40.2586   14.6523    1.6922 N   0  0  0  0  0  0  0  0  0  0  0  0
   37.3385   10.9954    2.7799 O   0  0  0  0  0  0  0  0  0  0  0  0
   37.1686    9.6155    7.6106 C   0  0  0  0  0  0  0  0  0  0  0  0
   35.9367    8.7852    7.9386 C   0  0  0  0  0  0  0  0  0  0  0  0
   42.7250    2.6568    7.3315 C   0  0  1  0  0  0  0  0  0  0  0  0
   35.1973    8.3063    6.7532 N   0  0  0  0  0  0  0  0  0  0  0  0
   42.6433    1.3726    7.9442 O   0  0  0  0  0  0  0  0  0  0  0  0
   41.3902    6.9959    4.8687 C   0  0  2  0  0  0  0  0  0  0  0  0
   42.0865    6.2145    3.8543 N   0  0  0  0  0  0  0  0  0  0  0  0
   33.6944    6.5174    5.8923 C   0  0  0  0  0  0  0  0  0  0  0  0
   33.7207    7.0141    4.4155 C   0  0  0  0  0  0  0  0  0  0  0  0
   33.8708    7.6599    6.9264 C   0  0  0  0  0  0  0  0  0  0  0  0
   35.1017    7.3721    3.9728 N   0  0  0  0  0  0  0  0  0  0  0  0
   40.5450   10.4713    2.6700 O   0  0  0  0  0  0  0  0  0  0  0  0
   44.1902    3.0921    7.1296 C   0  0  2  0  0  0  0  0  0  0  0  0
   44.9214    3.1307    8.3526 O   0  0  0  0  0  0  0  0  0  0  0  0
   40.5084    6.0582    5.6689 C   0  0  2  0  0  0  0  0  0  0  0  0
   44.2641    4.4728    6.4531 C   0  0  2  0  0  0  0  0  0  0  0  0
   43.5259    4.4822    5.2262 O   0  0  0  0  0  0  0  0  0  0  0  0
   39.7492    6.8673    6.7973 C   0  0  2  0  0  0  0  0  0  0  0  0
   38.8939    5.9429    7.5402 O   0  0  0  0  0  0  0  0  0  0  0  0
   45.6847    4.8829    6.1704 C   0  0  0  0  0  0  0  0  0  0  0  0
   46.3889    5.0223    7.3451 O   0  0  0  0  0  0  0  0  0  0  0  0
   38.8820    7.9834    6.1221 C   0  0  1  0  0  0  0  0  0  0  0  0
   38.1756    8.7390    7.0625 O   0  0  0  0  0  0  0  0  0  0  0  0
  1  2  1  1  0  0  0
  1  5  1  0  0  0  0
  1 30  1  0  0  0  0
  3  4  1  6  0  0  0
  3  7  1  0  0  0  0
  3 35  1  0  0  0  0
  5  6  1  1  0  0  0
  5 16  1  0  0  0  0
  7 19  1  0  0  0  0
  8  4  1  0  0  0  0
  8 25  2  0  0  0  0
  9  8  1  6  0  0  0
  9 10  1  0  0  0  0
  9 13  1  0  0  0  0
 10 11  1  0  0  0  0
 11 12  1  0  0  0  0
 14 15  1  0  0  0  0
 14 36  1  0  0  0  0
 15 17  1  0  0  0  0
 16 18  1  6  0  0  0
 16 26  1  0  0  0  0
 17 23  1  0  0  0  0
 19 20  1  6  0  0  0
 19 28  1  0  0  0  0
 21 22  1  0  0  0  0
 21 23  1  0  0  0  0
 22 24  1  0  0  0  0
 26 27  1  1  0  0  0
 26 29  1  0  0  0  0
 28  2  1  1  0  0  0
 28 31  1  0  0  0  0
 29 30  1  0  0  0  0
 29 33  1  6  0  0  0
 31 32  1  6  0  0  0
 31 35  1  0  0  0  0
 33 34  1  0  0  0  0
 35 36  1  1  0  0  0
M  END
>  <CHROM.1>
-138.68382496,-33.73763923,165.42258142,-60.60592411,-177.27634372,-71.02086310
83.76407260,-170.93134914,-144.05791395,74.24828812,-62.34787907,-61.45598649
-63.34895024,78.56261851,40.00821425,7.16659672,5.51779647,-0.85796660,0.14888130
-0.48807379

>  <Name>
2f4u_lig

>  <RI>
0

>  <Rbt.Current_Directory>
/home/itssahil/PROJECTS/Mol_Feturizer/New_Systems/rnas/2f4u

>  <Rbt.Executable>
rbdock ($Id: //depot/dev/client3/rdock/2013.1/src/exe/rbdock.cxx#4 $)

>  <Rbt.Library>
libRbt.so (2013.1, Build901 2013/11/27)

>  <Rbt.Parameter_File>
/export/apps/rDock/src/rDock_2013.1_src/data/scripts/dock_solv.prm

>  <Rbt.Receptor>
prm/pocket_docking_4.prm

>  <SCORE>
-20.7114

>  <SCORE.INTER>
-18.8337

>  <SCORE.INTER.CONST>
1

>  <SCORE.INTER.POLAR>
-2.78889

>  <SCORE.INTER.ROT>
14

>  <SCORE.INTER.SOLV>
14.0458

>  <SCORE.INTER.VDW>
-20.8748

>  <SCORE.INTER.norm>
-0.523157

>  <SCORE.INTRA>
-1.8777

>  <SCORE.INTRA.DIHEDRAL>
-13.1631

>  <SCORE.INTRA.DIHEDRAL.0>
26.3805

>  <SCORE.INTRA.POLAR>
0

>  <SCORE.INTRA.POLAR.0>
0

>  <SCORE.INTRA.REPUL>
0.00882721

>  <SCORE.INTRA.REPUL.0>
0

>  <SCORE.INTRA.SOLV>
4.9577

>  <SCORE.INTRA.SOLV.lig_0>
-98.5587

>  <SCORE.INTRA.VDW>
2.18085

>  <SCORE.INTRA.VDW.0>
-2.91167

>  <SCORE.INTRA.norm>
-0.0521584

>  <SCORE.RESTR>
0

>  <SCORE.RESTR.CAVITY>
0

>  <SCORE.RESTR.norm>
0

>  <SCORE.SYSTEM>
0

>  <SCORE.SYSTEM.CONST>
0

>  <SCORE.SYSTEM.DIHEDRAL>
0

>  <SCORE.SYSTEM.SOLV>
0

>  <SCORE.SYSTEM.norm>
0

>  <SCORE.heavy>
36

>  <SCORE.norm>
-0.575316

>  <RMSD>
8.462

$$$$
2f4u_lig
 OpenBabel11021811433D
libRbt.so/2013.1/901 2013/11/27
 36 37  0  0  0  0  0  0  0  0999 V2000
   45.5148    5.0569    5.0354 C   0  0  2  0  0  0  0  0  0  0  0  0
   44.3975    5.5821    5.8439 O   0  0  0  0  0  0  0  0  0  0  0  0
   40.3945    7.1345    5.1646 C   0  0  2  0  0  0  0  0  0  0  0  0
   39.0733    7.3515    4.5148 N   0  0  0  0  0  0  0  0  0  0  0  0
   45.4171    3.5009    5.0932 C   0  0  2  0  0  0  0  0  0  0  0  0
   44.1296    2.9931    4.5846 N   0  0  0  0  0  0  0  0  0  0  0  0
   41.5808    7.5253    4.2142 C   0  0  0  0  0  0  0  0  0  0  0  0
   38.5174    9.0342    4.7315 C   0  0  0  0  0  0  0  0  0  0  0  0
   37.2562    8.5499    4.0877 C   0  0  1  0  0  0  0  0  0  0  0  0
   36.1310    8.7132    5.1157 C   0  0  0  0  0  0  0  0  0  0  0  0
   34.7792    8.0803    4.7372 C   0  0  0  0  0  0  0  0  0  0  0  0
   34.9259    6.6236    4.7539 N   0  0  0  0  0  0  0  0  0  0  0  0
   36.9384    9.3476    2.9800 O   0  0  0  0  0  0  0  0  0  0  0  0
   38.4951    4.5500    7.1270 C   0  0  0  0  0  0  0  0  0  0  0  0
   39.2804    3.6748    8.0924 C   0  0  0  0  0  0  0  0  0  0  0  0
   45.6310    3.0363    6.5721 C   0  0  1  0  0  0  0  0  0  0  0  0
   39.9842    4.4246    9.1523 N   0  0  0  0  0  0  0  0  0  0  0  0
   45.5401    1.6181    6.6810 O   0  0  0  0  0  0  0  0  0  0  0  0
   42.9453    7.2448    4.8762 C   0  0  2  0  0  0  0  0  0  0  0  0
   44.0462    7.5652    3.9763 N   0  0  0  0  0  0  0  0  0  0  0  0
   40.1652    5.5213   11.3804 C   0  0  0  0  0  0  0  0  0  0  0  0
   41.2179    6.5533   10.8755 C   0  0  0  0  0  0  0  0  0  0  0  0
   39.2066    5.0281   10.2653 C   0  0  0  0  0  0  0  0  0  0  0  0
   42.0991    7.0361   11.9808 N   0  0  0  0  0  0  0  0  0  0  0  0
   38.9104    9.9311    5.1815 O   0  0  0  0  0  0  0  0  0  0  0  0
   47.0060    3.5502    7.0437 C   0  0  2  0  0  0  0  0  0  0  0  0
   47.2924    3.1841    8.3912 O   0  0  0  0  0  0  0  0  0  0  0  0
   43.0554    5.7828    5.2603 C   0  0  2  0  0  0  0  0  0  0  0  0
   47.0964    5.0806    6.9059 C   0  0  2  0  0  0  0  0  0  0  0  0
   46.7978    5.4929    5.5676 O   0  0  0  0  0  0  0  0  0  0  0  0
   41.8867    5.3999    6.2563 C   0  0  2  0  0  0  0  0  0  0  0  0
   42.0068    3.9826    6.5950 O   0  0  0  0  0  0  0  0  0  0  0  0
   48.4591    5.5976    7.2827 C   0  0  0  0  0  0  0  0  0  0  0  0
   48.5594    6.9414    7.0015 O   0  0  0  0  0  0  0  0  0  0  0  0
   40.5140    5.6742    5.5536 C   0  0  1  0  0  0  0  0  0  0  0  0
   39.4305    5.3527    6.3764 O   0  0  0  0  0  0  0  0  0  0  0  0
  1  2  1  1  0  0  0
  1  5  1  0  0  0  0
  1 30  1  0  0  0  0
  3  4  1  6  0  0  0
  3  7  1  0  0  0  0
  3 35  1  0  0  0  0
  5  6  1  1  0  0  0
  5 16  1  0  0  0  0
  7 19  1  0  0  0  0
  8  4  1  0  0  0  0
  8 25  2  0  0  0  0
  9  8  1  1  0  0  0
  9 10  1  0  0  0  0
  9 13  1  0  0  0  0
 10 11  1  0  0  0  0
 11 12  1  0  0  0  0
 14 15  1  0  0  0  0
 14 36  1  0  0  0  0
 15 17  1  0  0  0  0
 16 18  1  6  0  0  0
 16 26  1  0  0  0  0
 17 23  1  0  0  0  0
 19 20  1  6  0  0  0
 19 28  1  0  0  0  0
 21 22  1  0  0  0  0
 21 23  1  0  0  0  0
 22 24  1  0  0  0  0
 26 27  1  1  0  0  0
 26 29  1  0  0  0  0
 28  2  1  1  0  0  0
 28 31  1  0  0  0  0
 29 30  1  0  0  0  0
 29 33  1  6  0  0  0
 31 32  1  6  0  0  0
 31 35  1  0  0  0  0
 33 34  1  0  0  0  0
 35 36  1  1  0  0  0
M  END
>  <CHROM.1>
-86.07448537,-86.06552508,117.45263772,-171.21263334,68.65706083,66.36336531
55.28156432,73.07936944,169.25421248,178.39189623,57.50198324,-97.38970706
172.95856314,168.25094489,41.93958938,5.87195045,6.38033344,-0.28250869,0.24628589
-1.12051543

>  <Name>
2f4u_lig

>  <RI>
0

>  <Rbt.Current_Directory>
/home/itssahil/PROJECTS/Mol_Feturizer/New_Systems/rnas/2f4u

>  <Rbt.Executable>
rbdock ($Id: //depot/dev/client3/rdock/2013.1/src/exe/rbdock.cxx#4 $)

>  <Rbt.Library>
libRbt.so (2013.1, Build901 2013/11/27)

>  <Rbt.Parameter_File>
/export/apps/rDock/src/rDock_2013.1_src/data/scripts/dock_solv.prm

>  <Rbt.Receptor>
prm/pocket_docking_4.prm

>  <SCORE>
-16.3232

>  <SCORE.INTER>
-9.55572

>  <SCORE.INTER.CONST>
1

>  <SCORE.INTER.POLAR>
-0.902108

>  <SCORE.INTER.ROT>
14

>  <SCORE.INTER.SOLV>
18.7425

>  <SCORE.INTER.VDW>
-22.5443

>  <SCORE.INTER.norm>
-0.265437

>  <SCORE.INTRA>
-6.79853

>  <SCORE.INTRA.DIHEDRAL>
-13.6994

>  <SCORE.INTRA.DIHEDRAL.0>
26.3805

>  <SCORE.INTRA.POLAR>
0

>  <SCORE.INTRA.POLAR.0>
0

>  <SCORE.INTRA.REPUL>
0

>  <SCORE.INTRA.REPUL.0>
0

>  <SCORE.INTRA.SOLV>
4.05166

>  <SCORE.INTRA.SOLV.lig_0>
-98.5587

>  <SCORE.INTRA.VDW>
-1.97468

>  <SCORE.INTRA.VDW.0>
-2.91167

>  <SCORE.INTRA.norm>
-0.188848

>  <SCORE.RESTR>
0.0310158

>  <SCORE.RESTR.CAVITY>
0.0310158

>  <SCORE.RESTR.norm>
0.000861551

>  <SCORE.SYSTEM>
0

>  <SCORE.SYSTEM.CONST>
0

>  <SCORE.SYSTEM.DIHEDRAL>
0

>  <SCORE.SYSTEM.SOLV>
0

>  <SCORE.SYSTEM.norm>
0

>  <SCORE.heavy>
36

>  <SCORE.norm>
-0.453423

>  <RMSD>
8.469

$$$$
2f4u_lig
 OpenBabel11021811433D
libRbt.so/2013.1/901 2013/11/27
 36 37  0  0  0  0  0  0  0  0999 V2000
   45.6335    4.3690    6.0441 C   0  0  2  0  0  0  0  0  0  0  0  0
   44.7895    4.8053    7.1734 O   0  0  0  0  0  0  0  0  0  0  0  0
   40.7008    6.2569    7.4397 C   0  0  2  0  0  0  0  0  0  0  0  0
   39.2265    6.3190    7.2465 N   0  0  0  0  0  0  0  0  0  0  0  0
   45.8511    2.8335    6.2144 C   0  0  2  0  0  0  0  0  0  0  0  0
   44.5845    2.0788    6.2330 N   0  0  0  0  0  0  0  0  0  0  0  0
   41.4670    6.2575    6.0700 C   0  0  0  0  0  0  0  0  0  0  0  0
   38.7226    7.9226    6.6448 C   0  0  0  0  0  0  0  0  0  0  0  0
   37.3334    7.3980    6.8310 C   0  0  1  0  0  0  0  0  0  0  0  0
   36.3931    8.6079    6.8662 C   0  0  0  0  0  0  0  0  0  0  0  0
   36.5548    9.5485    8.0747 C   0  0  0  0  0  0  0  0  0  0  0  0
   36.0174    8.8793    9.2611 N   0  0  0  0  0  0  0  0  0  0  0  0
   36.9629    6.6040    5.7370 O   0  0  0  0  0  0  0  0  0  0  0  0
   39.9173    4.6564   10.7493 C   0  0  0  0  0  0  0  0  0  0  0  0
   38.6916    5.4796   11.1166 C   0  0  0  0  0  0  0  0  0  0  0  0
   46.6465    2.5801    7.5379 C   0  0  1  0  0  0  0  0  0  0  0  0
   37.4080    4.8530   10.7413 N   0  0  0  0  0  0  0  0  0  0  0  0
   46.8626    1.1868    7.7461 O   0  0  0  0  0  0  0  0  0  0  0  0
   42.9902    6.1371    6.2795 C   0  0  2  0  0  0  0  0  0  0  0  0
   43.6979    6.0920    5.0061 N   0  0  0  0  0  0  0  0  0  0  0  0
   36.3114    4.1295   12.8565 C   0  0  0  0  0  0  0  0  0  0  0  0
   35.0138    4.9778   12.6989 C   0  0  0  0  0  0  0  0  0  0  0  0
   36.9152    3.6756   11.5019 C   0  0  0  0  0  0  0  0  0  0  0  0
   33.9147    4.1994   12.0530 N   0  0  0  0  0  0  0  0  0  0  0  0
   39.2172    8.8361    6.3578 O   0  0  0  0  0  0  0  0  0  0  0  0
   47.9796    3.3501    7.4530 C   0  0  2  0  0  0  0  0  0  0  0  0
   48.7780    3.1894    8.6228 O   0  0  0  0  0  0  0  0  0  0  0  0
   43.3191    4.8747    7.0511 C   0  0  2  0  0  0  0  0  0  0  0  0
   47.7323    4.8502    7.2122 C   0  0  2  0  0  0  0  0  0  0  0  0
   46.9173    5.0554    6.0529 O   0  0  0  0  0  0  0  0  0  0  0  0
   42.5843    4.8953    8.4525 C   0  0  2  0  0  0  0  0  0  0  0  0
   42.9042    3.6598    9.1662 O   0  0  0  0  0  0  0  0  0  0  0  0
   49.0206    5.6103    7.0432 C   0  0  0  0  0  0  0  0  0  0  0  0
   48.7785    6.9647    6.9973 O   0  0  0  0  0  0  0  0  0  0  0  0
   41.0399    4.9971    8.2118 C   0  0  1  0  0  0  0  0  0  0  0  0
   40.3225    5.0153    9.4115 O   0  0  0  0  0  0  0  0  0  0  0  0
  1  2  1  1  0  0  0
  1  5  1  0  0  0  0
  1 30  1  0  0  0  0
  3  4  1  6  0  0  0
  3  7  1  0  0  0  0
  3 35  1  0  0  0  0
  5  6  1  1  0  0  0
  5 16  1  0  0  0  0
  7 19  1  0  0  0  0
  8  4  1  0  0  0  0
  8 25  2  0  0  0  0
  9  8  1  6  0  0  0
  9 10  1  0  0  0  0
  9 13  1  0  0  0  0
 10 11  1  0  0  0  0
 11 12  1  0  0  0  0
 14 15  1  0  0  0  0
 14 36  1  0  0  0  0
 15 17  1  0  0  0  0
 16 18  1  6  0  0  0
 16 26  1  0  0  0  0
 17 23  1  0  0  0  0
 19 20  1  6  0  0  0
 19 28  1  0  0  0  0
 21 22  1  0  0  0  0
 21 23  1  0  0  0  0
 22 24  1  0  0  0  0
 26 27  1  1  0  0  0
 26 29  1  0  0  0  0
 28  2  1  1  0  0  0
 28 31  1  0  0  0  0
 29 30  1  0  0  0  0
 29 33  1  6  0  0  0
 31 32  1  6  0  0  0
 31 35  1  0  0  0  0
 33 34  1  0  0  0  0
 35 36  1  1  0  0  0
M  END
>  <CHROM.1>
-93.13501672,-70.41594957,161.60686961,-66.50310708,-72.56612713,89.00139071
-176.05057706,72.36022523,77.40338546,62.69230721,66.56471549,-77.70128975
-172.49235249,-166.51643632,41.74500137,5.30128319,8.06460756,0.03622526
0.31549494,-0.80301689

>  <Name>
2f4u_lig

>  <RI>
0

>  <Rbt.Current_Directory>
/home/itssahil/PROJECTS/Mol_Feturizer/New_Systems/rnas/2f4u

>  <Rbt.Executable>
rbdock ($Id: //depot/dev/client3/rdock/2013.1/src/exe/rbdock.cxx#4 $)

>  <Rbt.Library>
libRbt.so (2013.1, Build901 2013/11/27)

>  <Rbt.Parameter_File>
/export/apps/rDock/src/rDock_2013.1_src/data/scripts/dock_solv.prm

>  <Rbt.Receptor>
prm/pocket_docking_5.prm

>  <SCORE>
-11.5205

>  <SCORE.INTER>
-5.96426

>  <SCORE.INTER.CONST>
1

>  <SCORE.INTER.POLAR>
-0.87178

>  <SCORE.INTER.ROT>
14

>  <SCORE.INTER.SOLV>
10.9442

>  <SCORE.INTER.VDW>
-17.6516

>  <SCORE.INTER.norm>
-0.165674

>  <SCORE.INTRA>
-5.5562

>  <SCORE.INTRA.DIHEDRAL>
-14.5451

>  <SCORE.INTRA.DIHEDRAL.0>
26.3805

>  <SCORE.INTRA.POLAR>
0

>  <SCORE.INTRA.POLAR.0>
0

>  <SCORE.INTRA.REPUL>
0.0120924

>  <SCORE.INTRA.REPUL.0>
0

>  <SCORE.INTRA.SOLV>
4.21944

>  <SCORE.INTRA.SOLV.lig_0>
-98.5587

>  <SCORE.INTRA.VDW>
-0.453843

>  <SCORE.INTRA.VDW.0>
-2.91167

>  <SCORE.INTRA.norm>
-0.154339

>  <SCORE.RESTR>
0

>  <SCORE.RESTR.CAVITY>
0

>  <SCORE.RESTR.norm>
0

>  <SCORE.SYSTEM>
0

>  <SCORE.SYSTEM.CONST>
0

>  <SCORE.SYSTEM.DIHEDRAL>
0

>  <SCORE.SYSTEM.SOLV>
0

>  <SCORE.SYSTEM.norm>
0

>  <SCORE.heavy>
36

>  <SCORE.norm>
-0.320013

>  <RMSD>
8.483

$$$$
2f4u_lig
 OpenBabel11021811433D
libRbt.so/2013.1/901 2013/11/27
 36 37  0  0  0  0  0  0  0  0999 V2000
   42.5672    2.5599    4.5276 C   0  0  2  0  0  0  0  0  0  0  0  0
   42.5381    1.2147    5.1337 O   0  0  0  0  0  0  0  0  0  0  0  0
   38.5617    1.0272    6.8797 C   0  0  2  0  0  0  0  0  0  0  0  0
   37.3280    0.4540    7.4832 N   0  0  0  0  0  0  0  0  0  0  0  0
   44.0098    2.7699    3.9720 C   0  0  2  0  0  0  0  0  0  0  0  0
   44.3905    1.7487    2.9788 N   0  0  0  0  0  0  0  0  0  0  0  0
   38.8442    0.4295    5.4562 C   0  0  0  0  0  0  0  0  0  0  0  0
   36.0023    1.6497    7.4975 C   0  0  0  0  0  0  0  0  0  0  0  0
   35.2640    0.6099    8.2808 C   0  0  1  0  0  0  0  0  0  0  0  0
   34.5484    1.3306    9.4287 C   0  0  0  0  0  0  0  0  0  0  0  0
   33.8663    0.4232   10.4693 C   0  0  0  0  0  0  0  0  0  0  0  0
   33.1049    1.2654   11.3940 N   0  0  0  0  0  0  0  0  0  0  0  0
   34.2837    0.0049    7.4825 O   0  0  0  0  0  0  0  0  0  0  0  0
   39.0827    2.2186   10.0745 C   0  0  0  0  0  0  0  0  0  0  0  0
   40.1730    3.2778   10.1377 C   0  0  0  0  0  0  0  0  0  0  0  0
   45.0184    2.7574    5.1684 C   0  0  1  0  0  0  0  0  0  0  0  0
   39.9249    4.3422   11.1310 N   0  0  0  0  0  0  0  0  0  0  0  0
   46.3566    2.9352    4.7113 O   0  0  0  0  0  0  0  0  0  0  0  0
   40.1536    0.9884    4.8632 C   0  0  2  0  0  0  0  0  0  0  0  0
   40.4391    0.3991    3.5611 N   0  0  0  0  0  0  0  0  0  0  0  0
   40.7705    6.2551   12.4822 C   0  0  0  0  0  0  0  0  0  0  0  0
   39.3932    6.8165   12.9471 C   0  0  0  0  0  0  0  0  0  0  0  0
   40.7215    5.5953   11.0793 C   0  0  0  0  0  0  0  0  0  0  0  0
   38.3820    5.7319   13.1277 N   0  0  0  0  0  0  0  0  0  0  0  0
   35.8634    2.6609    7.1518 O   0  0  0  0  0  0  0  0  0  0  0  0
   44.6081    3.8688    6.1551 C   0  0  2  0  0  0  0  0  0  0  0  0
   45.4659    3.9334    7.2916 O   0  0  0  0  0  0  0  0  0  0  0  0
   41.3197    0.6921    5.7851 C   0  0  2  0  0  0  0  0  0  0  0  0
   43.1564    3.6739    6.6282 C   0  0  2  0  0  0  0  0  0  0  0  0
   42.2617    3.5864    5.5137 O   0  0  0  0  0  0  0  0  0  0  0  0
   41.0567    1.3352    7.2070 C   0  0  2  0  0  0  0  0  0  0  0  0
   42.1868    1.0186    8.0792 O   0  0  0  0  0  0  0  0  0  0  0  0
   42.7055    4.7929    7.5286 C   0  0  0  0  0  0  0  0  0  0  0  0
   42.5705    5.9618    6.8140 O   0  0  0  0  0  0  0  0  0  0  0  0
   39.7344    0.7366    7.7955 C   0  0  1  0  0  0  0  0  0  0  0  0
   39.4398    1.2577    9.0588 O   0  0  0  0  0  0  0  0  0  0  0  0
  1  2  1  1  0  0  0
  1  5  1  0  0  0  0
  1 30  1  0  0  0  0
  3  4  1  1  0  0  0
  3  7  1  0  0  0  0
  3 35  1  0  0  0  0
  5  6  1  6  0  0  0
  5 16  1  0  0  0  0
  7 19  1  0  0  0  0
  8  4  1  0  0  0  0
  8 25  2  0  0  0  0
  9  8  1  6  0  0  0
  9 10  1  0  0  0  0
  9 13  1  0  0  0  0
 10 11  1  0  0  0  0
 11 12  1  0  0  0  0
 14 15  1  0  0  0  0
 14 36  1  0  0  0  0
 15 17  1  0  0  0  0
 16 18  1  6  0  0  0
 16 26  1  0  0  0  0
 17 23  1  0  0  0  0
 19 20  1  6  0  0  0
 19 28  1  0  0  0  0
 21 22  1  0  0  0  0
 21 23  1  0  0  0  0
 22 24  1  0  0  0  0
 26 27  1  1  0  0  0
 26 29  1  0  0  0  0
 28  2  1  6  0  0  0
 28 31  1  0  0  0  0
 29 30  1  0  0  0  0
 29 33  1  1  0  0  0
 31 32  1  1  0  0  0
 31 35  1  0  0  0  0
 33 34  1  0  0  0  0
 35 36  1  1  0  0  0
M  END
>  <CHROM.1>
178.84851809,-107.62401384,137.00898013,-172.63769062,-173.35439861,179.22400669
-63.35897621,-165.43300527,-154.95940264,64.40541055,-68.47827201,45.92737899
69.47262388,-56.19309918,40.19572556,2.52541468,7.65096983,0.33590564,-0.39760929
-2.19372107

>  <Name>
2f4u_lig

>  <RI>
0

>  <Rbt.Current_Directory>
/home/itssahil/PROJECTS/Mol_Feturizer/New_Systems/rnas/2f4u

>  <Rbt.Executable>
rbdock ($Id: //depot/dev/client3/rdock/2013.1/src/exe/rbdock.cxx#4 $)

>  <Rbt.Library>
libRbt.so (2013.1, Build901 2013/11/27)

>  <Rbt.Parameter_File>
/export/apps/rDock/src/rDock_2013.1_src/data/scripts/dock_solv.prm

>  <Rbt.Receptor>
prm/pocket_docking_8.prm

>  <SCORE>
-18.5467

>  <SCORE.INTER>
-7.4836

>  <SCORE.INTER.CONST>
1

>  <SCORE.INTER.POLAR>
-1.76621

>  <SCORE.INTER.ROT>
14

>  <SCORE.INTER.SOLV>
8.26861

>  <SCORE.INTER.VDW>
-14.7912

>  <SCORE.INTER.norm>
-0.207878

>  <SCORE.INTRA>
-11.0631

>  <SCORE.INTRA.DIHEDRAL>
-20.5112

>  <SCORE.INTRA.DIHEDRAL.0>
26.3805

>  <SCORE.INTRA.POLAR>
0

>  <SCORE.INTRA.POLAR.0>
0

>  <SCORE.INTRA.REPUL>
0

>  <SCORE.INTRA.REPUL.0>
0

>  <SCORE.INTRA.SOLV>
2.83578

>  <SCORE.INTRA.SOLV.lig_0>
-98.5587

>  <SCORE.INTRA.VDW>
-2.22536

>  <SCORE.INTRA.VDW.0>
-2.91167

>  <SCORE.INTRA.norm>
-0.307308

>  <SCORE.RESTR>
0

>  <SCORE.RESTR.CAVITY>
0

>  <SCORE.RESTR.norm>
0

>  <SCORE.SYSTEM>
0

>  <SCORE.SYSTEM.CONST>
0

>  <SCORE.SYSTEM.DIHEDRAL>
0

>  <SCORE.SYSTEM.SOLV>
0

>  <SCORE.SYSTEM.norm>
0

>  <SCORE.heavy>
36

>  <SCORE.norm>
-0.515186

>  <RMSD>
8.485

$$$$
2f4u_lig
 OpenBabel11021811433D
libRbt.so/2013.1/901 2013/11/27
 36 37  0  0  0  0  0  0  0  0999 V2000
   33.4218    7.6971   13.0003 C   0  0  2  0  0  0  0  0  0  0  0  0
   33.5244    7.0487   11.6786 O   0  0  0  0  0  0  0  0  0  0  0  0
   36.7564    6.5805    8.8097 C   0  0  2  0  0  0  0  0  0  0  0  0
   37.8232    6.9433    7.8377 N   0  0  0  0  0  0  0  0  0  0  0  0
   32.1511    7.1104   13.6898 C   0  0  2  0  0  0  0  0  0  0  0  0
   32.2107    5.6445   13.8379 N   0  0  0  0  0  0  0  0  0  0  0  0
   35.3522    7.1173    8.3590 C   0  0  0  0  0  0  0  0  0  0  0  0
   37.6331    8.6256    7.2708 C   0  0  0  0  0  0  0  0  0  0  0  0
   38.7551    8.2880    6.3396 C   0  0  1  0  0  0  0  0  0  0  0  0
   38.1600    7.4615    5.1940 C   0  0  0  0  0  0  0  0  0  0  0  0
   39.1711    6.8927    4.1814 C   0  0  0  0  0  0  0  0  0  0  0  0
   40.0440    5.9449    4.8769 N   0  0  0  0  0  0  0  0  0  0  0  0
   39.2945    9.4564    5.7846 O   0  0  0  0  0  0  0  0  0  0  0  0
   39.7723    6.3371   10.4087 C   0  0  0  0  0  0  0  0  0  0  0  0
   40.2521    5.8242   11.7583 C   0  0  0  0  0  0  0  0  0  0  0  0
   30.8913    7.5148   12.8544 C   0  0  1  0  0  0  0  0  0  0  0  0
   40.1945    6.8268   12.8412 N   0  0  0  0  0  0  0  0  0  0  0  0
   29.7009    6.9921   13.4384 O   0  0  0  0  0  0  0  0  0  0  0  0
   34.2639    6.7840    9.3998 C   0  0  2  0  0  0  0  0  0  0  0  0
   32.9689    7.3222    9.0026 N   0  0  0  0  0  0  0  0  0  0  0  0
   40.3677    7.4708   15.2402 C   0  0  0  0  0  0  0  0  0  0  0  0
   41.9180    7.6092   15.3166 C   0  0  0  0  0  0  0  0  0  0  0  0
   39.8977    6.3914   14.2304 C   0  0  0  0  0  0  0  0  0  0  0  0
   42.4952    8.1196   14.0369 N   0  0  0  0  0  0  0  0  0  0  0  0
   36.9660    9.4458    7.4794 O   0  0  0  0  0  0  0  0  0  0  0  0
   30.8463    9.0534   12.7659 C   0  0  2  0  0  0  0  0  0  0  0  0
   29.7322    9.5242   12.0118 O   0  0  0  0  0  0  0  0  0  0  0  0
   34.6277    7.3685   10.7501 C   0  0  2  0  0  0  0  0  0  0  0  0
   32.1438    9.6055   12.1485 C   0  0  2  0  0  0  0  0  0  0  0  0
   33.2915    9.1410   12.8677 O   0  0  0  0  0  0  0  0  0  0  0  0
   36.0218    6.7909   11.2270 C   0  0  2  0  0  0  0  0  0  0  0  0
   36.3555    7.3846   12.5210 O   0  0  0  0  0  0  0  0  0  0  0  0
   32.1580   11.1106   12.1273 C   0  0  0  0  0  0  0  0  0  0  0  0
   31.3617   11.5858   11.1098 O   0  0  0  0  0  0  0  0  0  0  0  0
   37.1118    7.1602   10.1646 C   0  0  1  0  0  0  0  0  0  0  0  0
   38.3763    6.6843   10.5238 O   0  0  0  0  0  0  0  0  0  0  0  0
  1  2  1  6  0  0  0
  1  5  1  0  0  0  0
  1 30  1  0  0  0  0
  3  4  1  6  0  0  0
  3  7  1  0  0  0  0
  3 35  1  0  0  0  0
  5  6  1  6  0  0  0
  5 16  1  0  0  0  0
  7 19  1  0  0  0  0
  8  4  1  0  0  0  0
  8 25  2  0  0  0  0
  9  8  1  1  0  0  0
  9 10  1  0  0  0  0
  9 13  1  0  0  0  0
 10 11  1  0  0  0  0
 11 12  1  0  0  0  0
 14 15  1  0  0  0  0
 14 36  1  0  0  0  0
 15 17  1  0  0  0  0
 16 18  1  1  0  0  0
 16 26  1  0  0  0  0
 17 23  1  0  0  0  0
 19 20  1  6  0  0  0
 19 28  1  0  0  0  0
 21 22  1  0  0  0  0
 21 23  1  0  0  0  0
 22 24  1  0  0  0  0
 26 27  1  6  0  0  0
 26 29  1  0  0  0  0
 28  2  1  1  0  0  0
 28 31  1  0  0  0  0
 29 30  1  0  0  0  0
 29 33  1  1  0  0  0
 31 32  1  1  0  0  0
 31 35  1  0  0  0  0
 33 34  1  0  0  0  0
 35 36  1  1  0  0  0
M  END
>  <CHROM.1>
-179.72106755,42.13369704,77.77588868,-174.50165622,63.84884215,-63.33232648
176.71159901,146.69916220,160.18520447,65.74369794,-68.58114824,-167.43087825
-76.86363548,46.85406043,35.97149283,7.71944319,10.70795736,-2.72924427,0.17377204
-1.50880823

>  <Name>
2f4u_lig

>  <RI>
0

>  <Rbt.Current_Directory>
/home/itssahil/PROJECTS/Mol_Feturizer/New_Systems/rnas/2f4u

>  <Rbt.Executable>
rbdock ($Id: //depot/dev/client3/rdock/2013.1/src/exe/rbdock.cxx#4 $)

>  <Rbt.Library>
libRbt.so (2013.1, Build901 2013/11/27)

>  <Rbt.Parameter_File>
/export/apps/rDock/src/rDock_2013.1_src/data/scripts/dock_solv.prm

>  <Rbt.Receptor>
prm/pocket_docking_7.prm

>  <SCORE>
-13.8643

>  <SCORE.INTER>
-5.16238

>  <SCORE.INTER.CONST>
1

>  <SCORE.INTER.POLAR>
-0.445756

>  <SCORE.INTER.ROT>
14

>  <SCORE.INTER.SOLV>
14.2932

>  <SCORE.INTER.VDW>
-19.6535

>  <SCORE.INTER.norm>
-0.1434

>  <SCORE.INTRA>
-8.70188

>  <SCORE.INTRA.DIHEDRAL>
-20.7216

>  <SCORE.INTRA.DIHEDRAL.0>
26.3805

>  <SCORE.INTRA.POLAR>
0

>  <SCORE.INTRA.POLAR.0>
0

>  <SCORE.INTRA.REPUL>
0

>  <SCORE.INTRA.REPUL.0>
0

>  <SCORE.INTRA.SOLV>
4.72309

>  <SCORE.INTRA.SOLV.lig_0>
-98.5587

>  <SCORE.INTRA.VDW>
-0.702636

>  <SCORE.INTRA.VDW.0>
-2.91167

>  <SCORE.INTRA.norm>
-0.241719

>  <SCORE.RESTR>
0

>  <SCORE.RESTR.CAVITY>
0

>  <SCORE.RESTR.norm>
0

>  <SCORE.SYSTEM>
0

>  <SCORE.SYSTEM.CONST>
0

>  <SCORE.SYSTEM.DIHEDRAL>
0

>  <SCORE.SYSTEM.SOLV>
0

>  <SCORE.SYSTEM.norm>
0

>  <SCORE.heavy>
36

>  <SCORE.norm>
-0.385119

>  <RMSD>
8.510

$$$$
2f4u_lig
 OpenBabel11021811433D
libRbt.so/2013.1/901 2013/11/27
 36 37  0  0  0  0  0  0  0  0999 V2000
   45.2976    3.7650    6.7594 C   0  0  2  0  0  0  0  0  0  0  0  0
   44.8769    5.0320    6.1302 O   0  0  0  0  0  0  0  0  0  0  0  0
   40.9462    6.8622    5.8216 C   0  0  2  0  0  0  0  0  0  0  0  0
   39.5494    7.1004    5.3667 N   0  0  0  0  0  0  0  0  0  0  0  0
   46.8513    3.8232    6.8887 C   0  0  2  0  0  0  0  0  0  0  0  0
   47.3123    4.9735    7.6876 N   0  0  0  0  0  0  0  0  0  0  0  0
   41.9667    6.9428    4.6319 C   0  0  0  0  0  0  0  0  0  0  0  0
   39.4546    8.5266    4.2969 C   0  0  0  0  0  0  0  0  0  0  0  0
   37.9764    8.3038    4.3676 C   0  0  1  0  0  0  0  0  0  0  0  0
   37.3143    9.3768    3.4961 C   0  0  0  0  0  0  0  0  0  0  0  0
   37.1437   10.7608    4.1494 C   0  0  0  0  0  0  0  0  0  0  0  0
   38.4582   11.2342    4.5876 N   0  0  0  0  0  0  0  0  0  0  0  0
   37.6468    7.0539    3.8260 O   0  0  0  0  0  0  0  0  0  0  0  0
   39.4500    5.7396    8.7637 C   0  0  0  0  0  0  0  0  0  0  0  0
   40.4144    5.3778    9.8833 C   0  0  0  0  0  0  0  0  0  0  0  0
   47.4753    3.8807    5.4548 C   0  0  1  0  0  0  0  0  0  0  0  0
   39.8120    5.4021   11.2315 N   0  0  0  0  0  0  0  0  0  0  0  0
   48.8977    3.9463    5.5182 O   0  0  0  0  0  0  0  0  0  0  0  0
   43.4034    6.6400    5.1040 C   0  0  2  0  0  0  0  0  0  0  0  0
   44.3439    6.6703    3.9910 N   0  0  0  0  0  0  0  0  0  0  0  0
   38.0962    6.6769   12.5085 C   0  0  0  0  0  0  0  0  0  0  0  0
   37.6914    8.0256   13.1760 C   0  0  0  0  0  0  0  0  0  0  0  0
   39.5136    6.7055   11.8794 C   0  0  0  0  0  0  0  0  0  0  0  0
   36.2448    8.0509   13.5476 N   0  0  0  0  0  0  0  0  0  0  0  0
   40.1535    9.2307    3.8759 O   0  0  0  0  0  0  0  0  0  0  0  0
   47.0032    2.6377    4.6744 C   0  0  2  0  0  0  0  0  0  0  0  0
   47.5140    2.6021    3.3441 O   0  0  0  0  0  0  0  0  0  0  0  0
   43.4705    5.2686    5.7459 C   0  0  2  0  0  0  0  0  0  0  0  0
   45.4660    2.5706    4.6273 C   0  0  2  0  0  0  0  0  0  0  0  0
   44.9105    2.6214    5.9460 O   0  0  0  0  0  0  0  0  0  0  0  0
   42.4760    5.2020    6.9752 C   0  0  2  0  0  0  0  0  0  0  0  0
   42.5480    3.8649    7.5627 O   0  0  0  0  0  0  0  0  0  0  0  0
   44.9805    1.3217    3.9414 C   0  0  0  0  0  0  0  0  0  0  0  0
   45.2265    1.3881    2.5886 O   0  0  0  0  0  0  0  0  0  0  0  0
   41.0235    5.4923    6.4663 C   0  0  1  0  0  0  0  0  0  0  0  0
   40.0859    5.4451    7.5021 O   0  0  0  0  0  0  0  0  0  0  0  0
  1  2  1  6  0  0  0
  1  5  1  0  0  0  0
  1 30  1  0  0  0  0
  3  4  1  6  0  0  0
  3  7  1  0  0  0  0
  3 35  1  0  0  0  0
  5  6  1  1  0  0  0
  5 16  1  0  0  0  0
  7 19  1  0  0  0  0
  8  4  1  0  0  0  0
  8 25  2  0  0  0  0
  9  8  1  6  0  0  0
  9 10  1  0  0  0  0
  9 13  1  0  0  0  0
 10 11  1  0  0  0  0
 11 12  1  0  0  0  0
 14 15  1  0  0  0  0
 14 36  1  0  0  0  0
 15 17  1  0  0  0  0
 16 18  1  1  0  0  0
 16 26  1  0  0  0  0
 17 23  1  0  0  0  0
 19 20  1  6  0  0  0
 19 28  1  0  0  0  0
 21 22  1  0  0  0  0
 21 23  1  0  0  0  0
 22 24  1  0  0  0  0
 26 27  1  6  0  0  0
 26 29  1  0  0  0  0
 28  2  1  1  0  0  0
 28 31  1  0  0  0  0
 29 30  1  0  0  0  0
 29 33  1  1  0  0  0
 31 32  1  6  0  0  0
 31 35  1  0  0  0  0
 33 34  1  0  0  0  0
 35 36  1  1  0  0  0
M  END
>  <CHROM.1>
174.52455500,-46.67981439,-179.10723181,-81.08658866,56.55563244,-169.74855210
-59.86876146,-74.08956106,134.55446414,169.55458811,-178.40780068,-178.61318934
-71.15740452,-67.65831127,42.10808963,5.75690567,6.43188426,-0.21019478,-0.58885594
1.82218235

>  <Name>
2f4u_lig

>  <RI>
0

>  <Rbt.Current_Directory>
/home/itssahil/PROJECTS/Mol_Feturizer/New_Systems/rnas/2f4u

>  <Rbt.Executable>
rbdock ($Id: //depot/dev/client3/rdock/2013.1/src/exe/rbdock.cxx#4 $)

>  <Rbt.Library>
libRbt.so (2013.1, Build901 2013/11/27)

>  <Rbt.Parameter_File>
/export/apps/rDock/src/rDock_2013.1_src/data/scripts/dock_solv.prm

>  <Rbt.Receptor>
prm/pocket_docking_5.prm

>  <SCORE>
-13.5177

>  <SCORE.INTER>
-4.64853

>  <SCORE.INTER.CONST>
1

>  <SCORE.INTER.POLAR>
-1.24733

>  <SCORE.INTER.ROT>
14

>  <SCORE.INTER.SOLV>
19.1249

>  <SCORE.INTER.VDW>
-18.2496

>  <SCORE.INTER.norm>
-0.129126

>  <SCORE.INTRA>
-8.93414

>  <SCORE.INTRA.DIHEDRAL>
-21.0836

>  <SCORE.INTRA.DIHEDRAL.0>
26.3805

>  <SCORE.INTRA.POLAR>
0

>  <SCORE.INTRA.POLAR.0>
0

>  <SCORE.INTRA.REPUL>
0

>  <SCORE.INTRA.REPUL.0>
0

>  <SCORE.INTRA.SOLV>
2.14316

>  <SCORE.INTRA.SOLV.lig_0>
-98.5587

>  <SCORE.INTRA.VDW>
0.536097

>  <SCORE.INTRA.VDW.0>
-2.91167

>  <SCORE.INTRA.norm>
-0.248171

>  <SCORE.RESTR>
0.0649411

>  <SCORE.RESTR.CAVITY>
0.0649411

>  <SCORE.RESTR.norm>
0.00180392

>  <SCORE.SYSTEM>
0

>  <SCORE.SYSTEM.CONST>
0

>  <SCORE.SYSTEM.DIHEDRAL>
0

>  <SCORE.SYSTEM.SOLV>
0

>  <SCORE.SYSTEM.norm>
0

>  <SCORE.heavy>
36

>  <SCORE.norm>
-0.375493

>  <RMSD>
8.513

$$$$
2f4u_lig
 OpenBabel11021811433D
libRbt.so/2013.1/901 2013/11/27
 36 37  0  0  0  0  0  0  0  0999 V2000
   37.0054    6.4192   10.7010 C   0  0  2  0  0  0  0  0  0  0  0  0
   38.3947    6.5772   10.2292 O   0  0  0  0  0  0  0  0  0  0  0  0
   40.0635    7.4564    6.3129 C   0  0  2  0  0  0  0  0  0  0  0  0
   40.4385    7.2788    4.8837 N   0  0  0  0  0  0  0  0  0  0  0  0
   37.0381    6.5788   12.2526 C   0  0  2  0  0  0  0  0  0  0  0  0
   37.5823    7.8814   12.6785 N   0  0  0  0  0  0  0  0  0  0  0  0
   40.6879    6.3389    7.2209 C   0  0  0  0  0  0  0  0  0  0  0  0
   40.0981    5.6159    4.3302 C   0  0  0  0  0  0  0  0  0  0  0  0
   40.7823    6.0473    3.0710 C   0  0  1  0  0  0  0  0  0  0  0  0
   42.1935    5.4495    3.0945 C   0  0  0  0  0  0  0  0  0  0  0  0
   43.1588    6.0483    4.1341 C   0  0  0  0  0  0  0  0  0  0  0  0
   44.4077    5.2846    4.1044 N   0  0  0  0  0  0  0  0  0  0  0  0
   40.1181    5.5243    1.9531 O   0  0  0  0  0  0  0  0  0  0  0  0
   37.0536    9.2500    4.9378 C   0  0  0  0  0  0  0  0  0  0  0  0
   37.7781   10.1334    3.9332 C   0  0  0  0  0  0  0  0  0  0  0  0
   37.8901    5.4161   12.8617 C   0  0  1  0  0  0  0  0  0  0  0  0
   36.8812   10.9111    3.0547 N   0  0  0  0  0  0  0  0  0  0  0  0
   37.9604    5.5228   14.2812 O   0  0  0  0  0  0  0  0  0  0  0  0
   40.2484    6.4999    8.6904 C   0  0  2  0  0  0  0  0  0  0  0  0
   40.7917    5.4357    9.5251 N   0  0  0  0  0  0  0  0  0  0  0  0
   36.3123   11.9885    0.8832 C   0  0  0  0  0  0  0  0  0  0  0  0
   36.8277   12.7145   -0.3958 C   0  0  0  0  0  0  0  0  0  0  0  0
   37.4433   11.6301    1.8822 C   0  0  0  0  0  0  0  0  0  0  0  0
   35.7062   13.1253   -1.2930 N   0  0  0  0  0  0  0  0  0  0  0  0
   39.6627    4.7278    4.7580 O   0  0  0  0  0  0  0  0  0  0  0  0
   37.2579    4.0783   12.4283 C   0  0  2  0  0  0  0  0  0  0  0  0
   37.9713    2.9503   12.9285 O   0  0  0  0  0  0  0  0  0  0  0  0
   38.7370    6.4628    8.7968 C   0  0  2  0  0  0  0  0  0  0  0  0
   37.1734    3.9830   10.8942 C   0  0  2  0  0  0  0  0  0  0  0  0
   36.4774    5.1091   10.3486 O   0  0  0  0  0  0  0  0  0  0  0  0
   38.1085    7.6197    7.9186 C   0  0  2  0  0  0  0  0  0  0  0  0
   36.6519    7.5487    8.0255 O   0  0  0  0  0  0  0  0  0  0  0  0
   36.4842    2.7211   10.4484 C   0  0  0  0  0  0  0  0  0  0  0  0
   35.1618    2.7333   10.8308 O   0  0  0  0  0  0  0  0  0  0  0  0
   38.5524    7.4217    6.4297 C   0  0  1  0  0  0  0  0  0  0  0  0
   38.0280    8.4092    5.5906 O   0  0  0  0  0  0  0  0  0  0  0  0
  1  2  1  1  0  0  0
  1  5  1  0  0  0  0
  1 30  1  0  0  0  0
  3  4  1  6  0  0  0
  3  7  1  0  0  0  0
  3 35  1  0  0  0  0
  5  6  1  6  0  0  0
  5 16  1  0  0  0  0
  7 19  1  0  0  0  0
  8  4  1  0  0  0  0
  8 25  2  0  0  0  0
  9  8  1  1  0  0  0
  9 10  1  0  0  0  0
  9 13  1  0  0  0  0
 10 11  1  0  0  0  0
 11 12  1  0  0  0  0
 14 15  1  0  0  0  0
 14 36  1  0  0  0  0
 15 17  1  0  0  0  0
 16 18  1  1  0  0  0
 16 26  1  0  0  0  0
 17 23  1  0  0  0  0
 19 20  1  1  0  0  0
 19 28  1  0  0  0  0
 21 22  1  0  0  0  0
 21 23  1  0  0  0  0
 22 24  1  0  0  0  0
 26 27  1  6  0  0  0
 26 29  1  0  0  0  0
 28  2  1  1  0  0  0
 28 31  1  0  0  0  0
 29 30  1  0  0  0  0
 29 33  1  1  0  0  0
 31 32  1  6  0  0  0
 31 35  1  0  0  0  0
 33 34  1  0  0  0  0
 35 36  1  6  0  0  0
M  END
>  <CHROM.1>
179.01426168,51.30126547,102.81931397,-69.70996769,174.80427424,171.75468243
-176.64687427,-169.52562317,162.30997457,-176.22544295,-178.50481411,-172.89898762
65.90722370,-177.32775635,38.50231175,6.88365415,7.04640165,1.65361269,-0.66015678
2.09595663

>  <Name>
2f4u_lig

>  <RI>
0

>  <Rbt.Current_Directory>
/home/itssahil/PROJECTS/Mol_Feturizer/New_Systems/rnas/2f4u

>  <Rbt.Executable>
rbdock ($Id: //depot/dev/client3/rdock/2013.1/src/exe/rbdock.cxx#4 $)

>  <Rbt.Library>
libRbt.so (2013.1, Build901 2013/11/27)

>  <Rbt.Parameter_File>
/export/apps/rDock/src/rDock_2013.1_src/data/scripts/dock_solv.prm

>  <Rbt.Receptor>
prm/pocket_docking_6.prm

>  <SCORE>
-17.6722

>  <SCORE.INTER>
-4.70896

>  <SCORE.INTER.CONST>
1

>  <SCORE.INTER.POLAR>
0

>  <SCORE.INTER.ROT>
14

>  <SCORE.INTER.SOLV>
13.698

>  <SCORE.INTER.VDW>
-20.6386

>  <SCORE.INTER.norm>
-0.130804

>  <SCORE.INTRA>
-12.9633

>  <SCORE.INTRA.DIHEDRAL>
-22.5125

>  <SCORE.INTRA.DIHEDRAL.0>
26.3805

>  <SCORE.INTRA.POLAR>
0

>  <SCORE.INTRA.POLAR.0>
0

>  <SCORE.INTRA.REPUL>
0

>  <SCORE.INTRA.REPUL.0>
0

>  <SCORE.INTRA.SOLV>
-0.591052

>  <SCORE.INTRA.SOLV.lig_0>
-98.5587

>  <SCORE.INTRA.VDW>
-1.41151

>  <SCORE.INTRA.VDW.0>
-2.91167

>  <SCORE.INTRA.norm>
-0.360091

>  <SCORE.RESTR>
0

>  <SCORE.RESTR.CAVITY>
0

>  <SCORE.RESTR.norm>
0

>  <SCORE.SYSTEM>
0

>  <SCORE.SYSTEM.CONST>
0

>  <SCORE.SYSTEM.DIHEDRAL>
0

>  <SCORE.SYSTEM.SOLV>
0

>  <SCORE.SYSTEM.norm>
0

>  <SCORE.heavy>
36

>  <SCORE.norm>
-0.490896

>  <RMSD>
8.522

$$$$
2f4u_lig
 OpenBabel11021811433D
libRbt.so/2013.1/901 2013/11/27
 36 37  0  0  0  0  0  0  0  0999 V2000
   43.5445    1.9936    5.4567 C   0  0  2  0  0  0  0  0  0  0  0  0
   43.5636    2.9988    6.5370 O   0  0  0  0  0  0  0  0  0  0  0  0
   41.2965    6.6446    7.2180 C   0  0  2  0  0  0  0  0  0  0  0  0
   40.1282    7.5543    7.3668 N   0  0  0  0  0  0  0  0  0  0  0  0
   42.4895    0.9186    5.8635 C   0  0  2  0  0  0  0  0  0  0  0  0
   41.1441    1.4890    6.0608 N   0  0  0  0  0  0  0  0  0  0  0  0
   41.3337    5.9735    5.7997 C   0  0  0  0  0  0  0  0  0  0  0  0
   38.6015    6.6330    7.4563 C   0  0  0  0  0  0  0  0  0  0  0  0
   37.9519    7.9808    7.4195 C   0  0  1  0  0  0  0  0  0  0  0  0
   36.4620    7.7581    7.1366 C   0  0  0  0  0  0  0  0  0  0  0  0
   36.1149    7.2592    5.7217 C   0  0  0  0  0  0  0  0  0  0  0  0
   36.6377    8.2195    4.7478 N   0  0  0  0  0  0  0  0  0  0  0  0
   38.0580    8.6058    8.6695 O   0  0  0  0  0  0  0  0  0  0  0  0
   41.1206    6.3604   10.9668 C   0  0  0  0  0  0  0  0  0  0  0  0
   39.8667    5.6753   11.4892 C   0  0  0  0  0  0  0  0  0  0  0  0
   42.9697    0.2104    7.1736 C   0  0  1  0  0  0  0  0  0  0  0  0
   39.8540    5.4715   12.9519 N   0  0  0  0  0  0  0  0  0  0  0  0
   42.0319   -0.7767    7.5949 O   0  0  0  0  0  0  0  0  0  0  0  0
   42.5160    4.9911    5.6750 C   0  0  2  0  0  0  0  0  0  0  0  0
   42.5237    4.3343    4.3739 N   0  0  0  0  0  0  0  0  0  0  0  0
   38.0338    6.8454   13.9515 C   0  0  0  0  0  0  0  0  0  0  0  0
   37.3986    7.3571   12.6238 C   0  0  0  0  0  0  0  0  0  0  0  0
   39.5649    6.6185   13.8509 C   0  0  0  0  0  0  0  0  0  0  0  0
   35.9318    7.6010   12.7660 N   0  0  0  0  0  0  0  0  0  0  0  0
   38.3204    5.5927    7.4630 O   0  0  0  0  0  0  0  0  0  0  0  0
   44.3562   -0.4084    6.9055 C   0  0  2  0  0  0  0  0  0  0  0  0
   44.8873   -1.0733    8.0490 O   0  0  0  0  0  0  0  0  0  0  0  0
   42.4302    3.9226    6.7465 C   0  0  2  0  0  0  0  0  0  0  0  0
   45.3546    0.6652    6.4362 C   0  0  2  0  0  0  0  0  0  0  0  0
   44.8504    1.3705    5.2967 O   0  0  0  0  0  0  0  0  0  0  0  0
   42.4405    4.5962    8.1785 C   0  0  2  0  0  0  0  0  0  0  0  0
   42.3386    3.5453    9.1900 O   0  0  0  0  0  0  0  0  0  0  0  0
   46.6936    0.0714    6.0889 C   0  0  0  0  0  0  0  0  0  0  0  0
   47.3088   -0.4229    7.2169 O   0  0  0  0  0  0  0  0  0  0  0  0
   41.2201    5.5720    8.2866 C   0  0  1  0  0  0  0  0  0  0  0  0
   41.1619    6.2025    9.5329 O   0  0  0  0  0  0  0  0  0  0  0  0
  1  2  1  1  0  0  0
  1  5  1  0  0  0  0
  1 30  1  0  0  0  0
  3  4  1  6  0  0  0
  3  7  1  0  0  0  0
  3 35  1  0  0  0  0
  5  6  1  1  0  0  0
  5 16  1  0  0  0  0
  7 19  1  0  0  0  0
  8  4  1  0  0  0  0
  8 25  2  0  0  0  0
  9  8  1  1  0  0  0
  9 10  1  0  0  0  0
  9 13  1  0  0  0  0
 10 11  1  0  0  0  0
 11 12  1  0  0  0  0
 14 15  1  0  0  0  0
 14 36  1  0  0  0  0
 15 17  1  0  0  0  0
 16 18  1  6  0  0  0
 16 26  1  0  0  0  0
 17 23  1  0  0  0  0
 19 20  1  6  0  0  0
 19 28  1  0  0  0  0
 21 22  1  0  0  0  0
 21 23  1  0  0  0  0
 22 24  1  0  0  0  0
 26 27  1  1  0  0  0
 26 29  1  0  0  0  0
 28  2  1  1  0  0  0
 28 31  1  0  0  0  0
 29 30  1  0  0  0  0
 29 33  1  6  0  0  0
 31 32  1  1  0  0  0
 31 35  1  0  0  0  0
 33 34  1  0  0  0  0
 35 36  1  1  0  0  0
M  END
>  <CHROM.1>
-70.41860581,70.52729444,166.54632032,-69.56716229,-57.52546036,165.99109981
-61.68483262,76.74621463,81.70723418,-178.41999954,-68.30556864,-76.45161041
-66.93338575,-176.03781477,41.15533405,4.35937680,8.02487744,0.31318120,0.80420415
-1.52741252

>  <Name>
2f4u_lig

>  <RI>
0

>  <Rbt.Current_Directory>
/home/itssahil/PROJECTS/Mol_Feturizer/New_Systems/rnas/2f4u

>  <Rbt.Executable>
rbdock ($Id: //depot/dev/client3/rdock/2013.1/src/exe/rbdock.cxx#4 $)

>  <Rbt.Library>
libRbt.so (2013.1, Build901 2013/11/27)

>  <Rbt.Parameter_File>
/export/apps/rDock/src/rDock_2013.1_src/data/scripts/dock_solv.prm

>  <Rbt.Receptor>
prm/pocket_docking_5.prm

>  <SCORE>
-10.0014

>  <SCORE.INTER>
-2.15834

>  <SCORE.INTER.CONST>
1

>  <SCORE.INTER.POLAR>
-0.357022

>  <SCORE.INTER.ROT>
14

>  <SCORE.INTER.SOLV>
10.2886

>  <SCORE.INTER.VDW>
-16.6117

>  <SCORE.INTER.norm>
-0.0599538

>  <SCORE.INTRA>
-7.86151

>  <SCORE.INTRA.DIHEDRAL>
-21.4191

>  <SCORE.INTRA.DIHEDRAL.0>
26.3805

>  <SCORE.INTRA.POLAR>
0

>  <SCORE.INTRA.POLAR.0>
0

>  <SCORE.INTRA.REPUL>
0

>  <SCORE.INTRA.REPUL.0>
0

>  <SCORE.INTRA.SOLV>
5.7829

>  <SCORE.INTRA.SOLV.lig_0>
-98.5587

>  <SCORE.INTRA.VDW>
-0.0434359

>  <SCORE.INTRA.VDW.0>
-2.91167

>  <SCORE.INTRA.norm>
-0.218375

>  <SCORE.RESTR>
0.0184705

>  <SCORE.RESTR.CAVITY>
0.0184705

>  <SCORE.RESTR.norm>
0.000513069

>  <SCORE.SYSTEM>
0

>  <SCORE.SYSTEM.CONST>
0

>  <SCORE.SYSTEM.DIHEDRAL>
0

>  <SCORE.SYSTEM.SOLV>
0

>  <SCORE.SYSTEM.norm>
0

>  <SCORE.heavy>
36

>  <SCORE.norm>
-0.277816

>  <RMSD>
8.525

$$$$
2f4u_lig
 OpenBabel11021811433D
libRbt.so/2013.1/901 2013/11/27
 36 37  0  0  0  0  0  0  0  0999 V2000
   45.1004    3.4331    5.1789 C   0  0  2  0  0  0  0  0  0  0  0  0
   43.9599    3.9293    5.9732 O   0  0  0  0  0  0  0  0  0  0  0  0
   41.2505    7.2816    5.4103 C   0  0  2  0  0  0  0  0  0  0  0  0
   40.2656    8.1855    4.7564 N   0  0  0  0  0  0  0  0  0  0  0  0
   45.1057    1.8798    5.3243 C   0  0  2  0  0  0  0  0  0  0  0  0
   43.8488    1.2616    4.8635 N   0  0  0  0  0  0  0  0  0  0  0  0
   42.5794    7.1734    4.5822 C   0  0  0  0  0  0  0  0  0  0  0  0
   39.0161    8.7216    5.9134 C   0  0  0  0  0  0  0  0  0  0  0  0
   38.3748    9.3446    4.7132 C   0  0  1  0  0  0  0  0  0  0  0  0
   36.8838    8.9926    4.7622 C   0  0  0  0  0  0  0  0  0  0  0  0
   36.0484    9.4402    3.5484 C   0  0  0  0  0  0  0  0  0  0  0  0
   36.4486    8.6423    2.3878 N   0  0  0  0  0  0  0  0  0  0  0  0
   38.4837   10.7406    4.7735 O   0  0  0  0  0  0  0  0  0  0  0  0
   38.2433    5.6684    6.9945 C   0  0  0  0  0  0  0  0  0  0  0  0
   38.6555    4.9153    8.2506 C   0  0  0  0  0  0  0  0  0  0  0  0
   45.3658    1.5140    6.8233 C   0  0  1  0  0  0  0  0  0  0  0  0
   37.5309    4.5629    9.1405 N   0  0  0  0  0  0  0  0  0  0  0  0
   45.3694    0.1013    7.0120 O   0  0  0  0  0  0  0  0  0  0  0  0
   43.5713    6.1921    5.2393 C   0  0  2  0  0  0  0  0  0  0  0  0
   44.7866    6.0574    4.4462 N   0  0  0  0  0  0  0  0  0  0  0  0
   36.4314    4.1141   11.3291 C   0  0  0  0  0  0  0  0  0  0  0  0
   36.4738    4.3201   12.8731 C   0  0  0  0  0  0  0  0  0  0  0  0
   37.7272    4.5770   10.6132 C   0  0  0  0  0  0  0  0  0  0  0  0
   37.6025    3.5722   13.5040 N   0  0  0  0  0  0  0  0  0  0  0  0
   38.8178    8.5827    6.9635 O   0  0  0  0  0  0  0  0  0  0  0  0
   46.7092    2.1418    7.2457 C   0  0  2  0  0  0  0  0  0  0  0  0
   47.0338    1.8715    8.6070 O   0  0  0  0  0  0  0  0  0  0  0  0
   42.9417    4.8207    5.3811 C   0  0  2  0  0  0  0  0  0  0  0  0
   46.6974    3.6647    7.0219 C   0  0  2  0  0  0  0  0  0  0  0  0
   46.3577    3.9808    5.6673 O   0  0  0  0  0  0  0  0  0  0  0  0
   41.6269    4.9214    6.2561 C   0  0  2  0  0  0  0  0  0  0  0  0
   41.0321    3.5898    6.3608 O   0  0  0  0  0  0  0  0  0  0  0  0
   48.0273    4.2894    7.3495 C   0  0  0  0  0  0  0  0  0  0  0  0
   47.9782    5.6526    7.1638 O   0  0  0  0  0  0  0  0  0  0  0  0
   40.6294    5.9065    5.5576 C   0  0  1  0  0  0  0  0  0  0  0  0
   39.4374    6.0418    6.2751 O   0  0  0  0  0  0  0  0  0  0  0  0
  1  2  1  1  0  0  0
  1  5  1  0  0  0  0
  1 30  1  0  0  0  0
  3  4  1  6  0  0  0
  3  7  1  0  0  0  0
  3 35  1  0  0  0  0
  5  6  1  1  0  0  0
  5 16  1  0  0  0  0
  7 19  1  0  0  0  0
  8  4  1  0  0  0  0
  8 25  2  0  0  0  0
  9  8  1  1  0  0  0
  9 10  1  0  0  0  0
  9 13  1  0  0  0  0
 10 11  1  0  0  0  0
 11 12  1  0  0  0  0
 14 15  1  0  0  0  0
 14 36  1  0  0  0  0
 15 17  1  0  0  0  0
 16 18  1  6  0  0  0
 16 26  1  0  0  0  0
 17 23  1  0  0  0  0
 19 20  1  6  0  0  0
 19 28  1  0  0  0  0
 21 22  1  0  0  0  0
 21 23  1  0  0  0  0
 22 24  1  0  0  0  0
 26 27  1  1  0  0  0
 26 29  1  0  0  0  0
 28  2  1  1  0  0  0
 28 31  1  0  0  0  0
 29 30  1  0  0  0  0
 29 33  1  6  0  0  0
 31 32  1  6  0  0  0
 31 35  1  0  0  0  0
 33 34  1  0  0  0  0
 35 36  1  1  0  0  0
M  END
>  <CHROM.1>
-126.89333489,-161.50215658,133.99239997,-175.10727848,69.08371605,175.45679169
63.13391714,-144.67624920,-177.51154165,-59.37301488,-170.61665428,-74.22948509
-178.87663410,-172.19454345,41.59324264,5.26855966,6.63535283,-0.29691134
0.39405251,-0.87440827

>  <Name>
2f4u_lig

>  <RI>
0

>  <Rbt.Current_Directory>
/home/itssahil/PROJECTS/Mol_Feturizer/New_Systems/rnas/2f4u

>  <Rbt.Executable>
rbdock ($Id: //depot/dev/client3/rdock/2013.1/src/exe/rbdock.cxx#4 $)

>  <Rbt.Library>
libRbt.so (2013.1, Build901 2013/11/27)

>  <Rbt.Parameter_File>
/export/apps/rDock/src/rDock_2013.1_src/data/scripts/dock_solv.prm

>  <Rbt.Receptor>
prm/pocket_docking_3.prm

>  <SCORE>
-10.2333

>  <SCORE.INTER>
-4.03675

>  <SCORE.INTER.CONST>
1

>  <SCORE.INTER.POLAR>
-0.965228

>  <SCORE.INTER.ROT>
14

>  <SCORE.INTER.SOLV>
17.9976

>  <SCORE.INTER.VDW>
-18.4063

>  <SCORE.INTER.norm>
-0.112132

>  <SCORE.INTRA>
-6.25334

>  <SCORE.INTRA.DIHEDRAL>
-14.0839

>  <SCORE.INTRA.DIHEDRAL.0>
26.3805

>  <SCORE.INTRA.POLAR>
0

>  <SCORE.INTRA.POLAR.0>
0

>  <SCORE.INTRA.REPUL>
0

>  <SCORE.INTRA.REPUL.0>
0

>  <SCORE.INTRA.SOLV>
3.52932

>  <SCORE.INTRA.SOLV.lig_0>
-98.5587

>  <SCORE.INTRA.VDW>
-0.976022

>  <SCORE.INTRA.VDW.0>
-2.91167

>  <SCORE.INTRA.norm>
-0.173704

>  <SCORE.RESTR>
0.0567661

>  <SCORE.RESTR.CAVITY>
0.0567661

>  <SCORE.RESTR.norm>
0.00157684

>  <SCORE.SYSTEM>
0

>  <SCORE.SYSTEM.CONST>
0

>  <SCORE.SYSTEM.DIHEDRAL>
0

>  <SCORE.SYSTEM.SOLV>
0

>  <SCORE.SYSTEM.norm>
0

>  <SCORE.heavy>
36

>  <SCORE.norm>
-0.284259

>  <RMSD>
8.526

$$$$
2f4u_lig
 OpenBabel11021811433D
libRbt.so/2013.1/901 2013/11/27
 36 37  0  0  0  0  0  0  0  0999 V2000
   44.3379    4.9597    6.1804 C   0  0  2  0  0  0  0  0  0  0  0  0
   43.1076    4.2483    6.5782 O   0  0  0  0  0  0  0  0  0  0  0  0
   39.8283    4.7874    9.3801 C   0  0  2  0  0  0  0  0  0  0  0  0
   39.1051    5.1501   10.6292 N   0  0  0  0  0  0  0  0  0  0  0  0
   44.6411    4.5417    4.7082 C   0  0  2  0  0  0  0  0  0  0  0  0
   43.5369    4.8664    3.7865 N   0  0  0  0  0  0  0  0  0  0  0  0
   40.9446    3.7164    9.6447 C   0  0  0  0  0  0  0  0  0  0  0  0
   40.2256    5.8048   11.8553 C   0  0  0  0  0  0  0  0  0  0  0  0
   39.0294    5.7815   12.7544 C   0  0  1  0  0  0  0  0  0  0  0  0
   39.5458    5.8278   14.1968 C   0  0  0  0  0  0  0  0  0  0  0  0
   40.4049    7.0522   14.5630 C   0  0  0  0  0  0  0  0  0  0  0  0
   39.5670    8.2502   14.4823 N   0  0  0  0  0  0  0  0  0  0  0  0
   38.2436    6.9235   12.5477 O   0  0  0  0  0  0  0  0  0  0  0  0
   38.2514    7.5929    8.0494 C   0  0  0  0  0  0  0  0  0  0  0  0
   38.4666    7.8070    6.5586 C   0  0  0  0  0  0  0  0  0  0  0  0
   44.9378    3.0058    4.6704 C   0  0  1  0  0  0  0  0  0  0  0  0
   37.2405    8.1618    5.8157 N   0  0  0  0  0  0  0  0  0  0  0  0
   45.2112    2.5701    3.3412 O   0  0  0  0  0  0  0  0  0  0  0  0
   41.7242    3.3886    8.3550 C   0  0  2  0  0  0  0  0  0  0  0  0
   42.7901    2.4280    8.6104 N   0  0  0  0  0  0  0  0  0  0  0  0
   37.1625   10.1213    4.2813 C   0  0  0  0  0  0  0  0  0  0  0  0
   36.5699    9.2396    3.1413 C   0  0  0  0  0  0  0  0  0  0  0  0
   36.8377    9.5873    5.7009 C   0  0  0  0  0  0  0  0  0  0  0  0
   35.0864    9.1058    3.2547 N   0  0  0  0  0  0  0  0  0  0  0  0
   41.2780    6.0318   11.9047 O   0  0  0  0  0  0  0  0  0  0  0  0
   46.1257    2.7220    5.6115 C   0  0  2  0  0  0  0  0  0  0  0  0
   46.4699    1.3395    5.6541 O   0  0  0  0  0  0  0  0  0  0  0  0
   42.3450    4.6457    7.7792 C   0  0  2  0  0  0  0  0  0  0  0  0
   45.8236    3.2116    7.0393 C   0  0  2  0  0  0  0  0  0  0  0  0
   45.4556    4.5954    7.0392 O   0  0  0  0  0  0  0  0  0  0  0  0
   41.2146    5.7085    7.4678 C   0  0  2  0  0  0  0  0  0  0  0  0
   41.8427    6.9152    6.9316 O   0  0  0  0  0  0  0  0  0  0  0  0
   47.0007    3.0203    7.9580 C   0  0  0  0  0  0  0  0  0  0  0  0
   48.0570    3.8073    7.5581 O   0  0  0  0  0  0  0  0  0  0  0  0
   40.4524    6.0392    8.7956 C   0  0  1  0  0  0  0  0  0  0  0  0
   39.4376    6.9799    8.5971 O   0  0  0  0  0  0  0  0  0  0  0  0
  1  2  1  1  0  0  0
  1  5  1  0  0  0  0
  1 30  1  0  0  0  0
  3  4  1  1  0  0  0
  3  7  1  0  0  0  0
  3 35  1  0  0  0  0
  5  6  1  6  0  0  0
  5 16  1  0  0  0  0
  7 19  1  0  0  0  0
  8  4  1  0  0  0  0
  8 25  2  0  0  0  0
  9  8  1  6  0  0  0
  9 10  1  0  0  0  0
  9 13  1  0  0  0  0
 10 11  1  0  0  0  0
 11 12  1  0  0  0  0
 14 15  1  0  0  0  0
 14 36  1  0  0  0  0
 15 17  1  0  0  0  0
 16 18  1  6  0  0  0
 16 26  1  0  0  0  0
 17 23  1  0  0  0  0
 19 20  1  1  0  0  0
 19 28  1  0  0  0  0
 21 22  1  0  0  0  0
 21 23  1  0  0  0  0
 22 24  1  0  0  0  0
 26 27  1  1  0  0  0
 26 29  1  0  0  0  0
 28  2  1  6  0  0  0
 28 31  1  0  0  0  0
 29 30  1  0  0  0  0
 29 33  1  1  0  0  0
 31 32  1  1  0  0  0
 31 35  1  0  0  0  0
 33 34  1  0  0  0  0
 35 36  1  6  0  0  0
M  END
>  <CHROM.1>
-164.98786184,59.04460530,160.56461541,58.88504530,65.15001513,167.78334406
-60.45823700,87.83628230,104.11528861,57.69084905,52.98067310,-147.66566956
64.92694935,-66.49421060,41.49146857,5.55144353,7.91707897,0.28879136,0.56697936
-1.48233685

>  <Name>
2f4u_lig

>  <RI>
0

>  <Rbt.Current_Directory>
/home/itssahil/PROJECTS/Mol_Feturizer/New_Systems/rnas/2f4u

>  <Rbt.Executable>
rbdock ($Id: //depot/dev/client3/rdock/2013.1/src/exe/rbdock.cxx#4 $)

>  <Rbt.Library>
libRbt.so (2013.1, Build901 2013/11/27)

>  <Rbt.Parameter_File>
/export/apps/rDock/src/rDock_2013.1_src/data/scripts/dock_solv.prm

>  <Rbt.Receptor>
prm/pocket_docking_8.prm

>  <SCORE>
-18.8278

>  <SCORE.INTER>
-12.2911

>  <SCORE.INTER.CONST>
1

>  <SCORE.INTER.POLAR>
-1.48679

>  <SCORE.INTER.ROT>
14

>  <SCORE.INTER.SOLV>
22.783

>  <SCORE.INTER.VDW>
-23.7658

>  <SCORE.INTER.norm>
-0.34142

>  <SCORE.INTRA>
-6.53666

>  <SCORE.INTRA.DIHEDRAL>
-17.4677

>  <SCORE.INTRA.DIHEDRAL.0>
26.3805

>  <SCORE.INTRA.POLAR>
0

>  <SCORE.INTRA.POLAR.0>
0

>  <SCORE.INTRA.REPUL>
0

>  <SCORE.INTRA.REPUL.0>
0

>  <SCORE.INTRA.SOLV>
5.87128

>  <SCORE.INTRA.SOLV.lig_0>
-98.5587

>  <SCORE.INTRA.VDW>
-0.738443

>  <SCORE.INTRA.VDW.0>
-2.91167

>  <SCORE.INTRA.norm>
-0.181574

>  <SCORE.RESTR>
0

>  <SCORE.RESTR.CAVITY>
0

>  <SCORE.RESTR.norm>
0

>  <SCORE.SYSTEM>
0

>  <SCORE.SYSTEM.CONST>
0

>  <SCORE.SYSTEM.DIHEDRAL>
0

>  <SCORE.SYSTEM.SOLV>
0

>  <SCORE.SYSTEM.norm>
0

>  <SCORE.heavy>
36

>  <SCORE.norm>
-0.522994

>  <RMSD>
8.537

$$$$
2f4u_lig
 OpenBabel11021811433D
libRbt.so/2013.1/901 2013/11/27
 36 37  0  0  0  0  0  0  0  0999 V2000
   45.3652    5.6672    4.6276 C   0  0  2  0  0  0  0  0  0  0  0  0
   44.3298    4.8859    5.3315 O   0  0  0  0  0  0  0  0  0  0  0  0
   41.0592    5.6432    8.0929 C   0  0  2  0  0  0  0  0  0  0  0  0
   40.3033    6.2255    9.2349 N   0  0  0  0  0  0  0  0  0  0  0  0
   46.0061    4.7134    3.5723 C   0  0  2  0  0  0  0  0  0  0  0  0
   45.0199    4.1824    2.6133 N   0  0  0  0  0  0  0  0  0  0  0  0
   42.3627    4.9116    8.5712 C   0  0  0  0  0  0  0  0  0  0  0  0
   39.9630    4.9907   10.4787 C   0  0  0  0  0  0  0  0  0  0  0  0
   39.1542    6.0708   11.1260 C   0  0  1  0  0  0  0  0  0  0  0  0
   37.6986    5.8702   10.6897 C   0  0  0  0  0  0  0  0  0  0  0  0
   36.7029    6.9472   11.1587 C   0  0  0  0  0  0  0  0  0  0  0  0
   36.5983    6.8812   12.6177 N   0  0  0  0  0  0  0  0  0  0  0  0
   39.2008    5.9433   12.5210 O   0  0  0  0  0  0  0  0  0  0  0  0
   39.3789    8.3692    6.1159 C   0  0  0  0  0  0  0  0  0  0  0  0
   37.9376    7.9300    6.3269 C   0  0  0  0  0  0  0  0  0  0  0  0
   46.7149    3.5360    4.3207 C   0  0  1  0  0  0  0  0  0  0  0  0
   37.4904    6.8627    5.4092 N   0  0  0  0  0  0  0  0  0  0  0  0
   47.3092    2.6272    3.3975 O   0  0  0  0  0  0  0  0  0  0  0  0
   43.1668    4.3600    7.3762 C   0  0  2  0  0  0  0  0  0  0  0  0
   44.3998    3.7206    7.8177 N   0  0  0  0  0  0  0  0  0  0  0  0
   36.7041    5.9422    3.2334 C   0  0  0  0  0  0  0  0  0  0  0  0
   37.5600    4.6435    3.3285 C   0  0  0  0  0  0  0  0  0  0  0  0
   37.3455    7.1535    3.9594 C   0  0  0  0  0  0  0  0  0  0  0  0
   38.8865    4.8005    2.6598 N   0  0  0  0  0  0  0  0  0  0  0  0
   40.1945    3.9482   10.6234 O   0  0  0  0  0  0  0  0  0  0  0  0
   47.7660    4.1364    5.2756 C   0  0  2  0  0  0  0  0  0  0  0  0
   48.4647    3.1380    6.0151 O   0  0  0  0  0  0  0  0  0  0  0  0
   43.5277    5.4797    6.4205 C   0  0  2  0  0  0  0  0  0  0  0  0
   47.1137    5.1275    6.2562 C   0  0  2  0  0  0  0  0  0  0  0  0
   46.3853    6.1397    5.5526 O   0  0  0  0  0  0  0  0  0  0  0  0
   42.2110    6.1873    5.9009 C   0  0  2  0  0  0  0  0  0  0  0  0
   42.5892    7.2726    4.9970 O   0  0  0  0  0  0  0  0  0  0  0  0
   48.1329    5.7891    7.1449 C   0  0  0  0  0  0  0  0  0  0  0  0
   49.0951    6.4194    6.3886 O   0  0  0  0  0  0  0  0  0  0  0  0
   41.4242    6.7559    7.1302 C   0  0  1  0  0  0  0  0  0  0  0  0
   40.2461    7.4024    6.7450 O   0  0  0  0  0  0  0  0  0  0  0  0
  1  2  1  1  0  0  0
  1  5  1  0  0  0  0
  1 30  1  0  0  0  0
  3  4  1  1  0  0  0
  3  7  1  0  0  0  0
  3 35  1  0  0  0  0
  5  6  1  6  0  0  0
  5 16  1  0  0  0  0
  7 19  1  0  0  0  0
  8  4  1  0  0  0  0
  8 25  2  0  0  0  0
  9  8  1  6  0  0  0
  9 10  1  0  0  0  0
  9 13  1  0  0  0  0
 10 11  1  0  0  0  0
 11 12  1  0  0  0  0
 14 15  1  0  0  0  0
 14 36  1  0  0  0  0
 15 17  1  0  0  0  0
 16 18  1  6  0  0  0
 16 26  1  0  0  0  0
 17 23  1  0  0  0  0
 19 20  1  1  0  0  0
 19 28  1  0  0  0  0
 21 22  1  0  0  0  0
 21 23  1  0  0  0  0
 22 24  1  0  0  0  0
 26 27  1  1  0  0  0
 26 29  1  0  0  0  0
 28  2  1  6  0  0  0
 28 31  1  0  0  0  0
 29 30  1  0  0  0  0
 29 33  1  6  0  0  0
 31 32  1  6  0  0  0
 31 35  1  0  0  0  0
 33 34  1  0  0  0  0
 35 36  1  6  0  0  0
M  END
>  <CHROM.1>
179.17777928,-53.93235946,96.11062595,-175.44051962,-65.88883499,-79.32291085
174.02413536,-67.63673324,-173.11915464,-62.99123742,-61.44132856,-149.71919153
56.36240196,174.87829552,42.20250320,5.57456326,6.74749809,0.38480786,0.19835490
-1.57588875

>  <Name>
2f4u_lig

>  <RI>
0

>  <Rbt.Current_Directory>
/home/itssahil/PROJECTS/Mol_Feturizer/New_Systems/rnas/2f4u

>  <Rbt.Executable>
rbdock ($Id: //depot/dev/client3/rdock/2013.1/src/exe/rbdock.cxx#4 $)

>  <Rbt.Library>
libRbt.so (2013.1, Build901 2013/11/27)

>  <Rbt.Parameter_File>
/export/apps/rDock/src/rDock_2013.1_src/data/scripts/dock_solv.prm

>  <Rbt.Receptor>
prm/pocket_docking_6.prm

>  <SCORE>
-10.9441

>  <SCORE.INTER>
-2.35831

>  <SCORE.INTER.CONST>
1

>  <SCORE.INTER.POLAR>
-0.364373

>  <SCORE.INTER.ROT>
14

>  <SCORE.INTER.SOLV>
10.5669

>  <SCORE.INTER.VDW>
-16.8133

>  <SCORE.INTER.norm>
-0.0655087

>  <SCORE.INTRA>
-8.5858

>  <SCORE.INTRA.DIHEDRAL>
-18.7001

>  <SCORE.INTRA.DIHEDRAL.0>
26.3805

>  <SCORE.INTRA.POLAR>
0

>  <SCORE.INTRA.POLAR.0>
0

>  <SCORE.INTRA.REPUL>
0

>  <SCORE.INTRA.REPUL.0>
0

>  <SCORE.INTRA.SOLV>
4.07195

>  <SCORE.INTRA.SOLV.lig_0>
-98.5587

>  <SCORE.INTRA.VDW>
-1.27173

>  <SCORE.INTRA.VDW.0>
-2.91167

>  <SCORE.INTRA.norm>
-0.238494

>  <SCORE.RESTR>
0

>  <SCORE.RESTR.CAVITY>
0

>  <SCORE.RESTR.norm>
0

>  <SCORE.SYSTEM>
0

>  <SCORE.SYSTEM.CONST>
0

>  <SCORE.SYSTEM.DIHEDRAL>
0

>  <SCORE.SYSTEM.SOLV>
0

>  <SCORE.SYSTEM.norm>
0

>  <SCORE.heavy>
36

>  <SCORE.norm>
-0.304003

>  <RMSD>
8.546

$$$$
2f4u_lig
 OpenBabel11021811433D
libRbt.so/2013.1/901 2013/11/27
 36 37  0  0  0  0  0  0  0  0999 V2000
   45.3567    3.6667    5.8832 C   0  0  2  0  0  0  0  0  0  0  0  0
   44.7840    4.9816    5.5351 O   0  0  0  0  0  0  0  0  0  0  0  0
   40.8545    6.8125    5.8540 C   0  0  2  0  0  0  0  0  0  0  0  0
   39.3876    7.0057    5.6937 N   0  0  0  0  0  0  0  0  0  0  0  0
   46.8101    3.9299    6.3858 C   0  0  2  0  0  0  0  0  0  0  0  0
   46.8540    4.8354    7.5486 N   0  0  0  0  0  0  0  0  0  0  0  0
   41.5816    6.7047    4.4673 C   0  0  0  0  0  0  0  0  0  0  0  0
   38.9755    8.7386    5.5722 C   0  0  0  0  0  0  0  0  0  0  0  0
   37.5587    8.2581    5.6094 C   0  0  1  0  0  0  0  0  0  0  0  0
   37.2010    8.0154    7.0800 C   0  0  0  0  0  0  0  0  0  0  0  0
   37.0699    9.2754    7.9555 C   0  0  0  0  0  0  0  0  0  0  0  0
   37.4705    8.9366    9.3225 N   0  0  0  0  0  0  0  0  0  0  0  0
   36.6964    9.2489    5.1206 O   0  0  0  0  0  0  0  0  0  0  0  0
   40.0402    6.1812    9.1648 C   0  0  0  0  0  0  0  0  0  0  0  0
   38.9685    5.2740    9.7506 C   0  0  0  0  0  0  0  0  0  0  0  0
   47.6510    4.5265    5.2087 C   0  0  1  0  0  0  0  0  0  0  0  0
   39.3564    3.8510    9.8263 N   0  0  0  0  0  0  0  0  0  0  0  0
   48.9885    4.7960    5.6207 O   0  0  0  0  0  0  0  0  0  0  0  0
   43.0922    6.4494    4.6446 C   0  0  2  0  0  0  0  0  0  0  0  0
   43.7594    6.3042    3.3569 N   0  0  0  0  0  0  0  0  0  0  0  0
   39.7884    1.5708    8.9240 C   0  0  0  0  0  0  0  0  0  0  0  0
   40.1019    0.7140    7.6607 C   0  0  0  0  0  0  0  0  0  0  0  0
   39.3763    3.0282    8.5893 C   0  0  0  0  0  0  0  0  0  0  0  0
   40.2181   -0.7388    7.9880 N   0  0  0  0  0  0  0  0  0  0  0  0
   39.5207    9.6680    5.5525 O   0  0  0  0  0  0  0  0  0  0  0  0
   47.6138    3.5266    4.0357 C   0  0  2  0  0  0  0  0  0  0  0  0
   48.3484    3.9858    2.9038 O   0  0  0  0  0  0  0  0  0  0  0  0
   43.3236    5.1835    5.4453 C   0  0  2  0  0  0  0  0  0  0  0  0
   46.1637    3.2323    3.6114 C   0  0  2  0  0  0  0  0  0  0  0  0
   45.3848    2.7838    4.7260 O   0  0  0  0  0  0  0  0  0  0  0  0
   42.6305    5.3104    6.8623 C   0  0  2  0  0  0  0  0  0  0  0  0
   42.8540    4.0705    7.6045 O   0  0  0  0  0  0  0  0  0  0  0  0
   46.0981    2.1955    2.5220 C   0  0  0  0  0  0  0  0  0  0  0  0
   46.4824    0.9647    3.0043 O   0  0  0  0  0  0  0  0  0  0  0  0
   41.0964    5.5483    6.6549 C   0  0  1  0  0  0  0  0  0  0  0  0
   40.4151    5.6656    7.8700 O   0  0  0  0  0  0  0  0  0  0  0  0
  1  2  1  6  0  0  0
  1  5  1  0  0  0  0
  1 30  1  0  0  0  0
  3  4  1  6  0  0  0
  3  7  1  0  0  0  0
  3 35  1  0  0  0  0
  5  6  1  1  0  0  0
  5 16  1  0  0  0  0
  7 19  1  0  0  0  0
  8  4  1  0  0  0  0
  8 25  2  0  0  0  0
  9  8  1  1  0  0  0
  9 10  1  0  0  0  0
  9 13  1  0  0  0  0
 10 11  1  0  0  0  0
 11 12  1  0  0  0  0
 14 15  1  0  0  0  0
 14 36  1  0  0  0  0
 15 17  1  0  0  0  0
 16 18  1  1  0  0  0
 16 26  1  0  0  0  0
 17 23  1  0  0  0  0
 19 20  1  6  0  0  0
 19 28  1  0  0  0  0
 21 22  1  0  0  0  0
 21 23  1  0  0  0  0
 22 24  1  0  0  0  0
 26 27  1  6  0  0  0
 26 29  1  0  0  0  0
 28  2  1  1  0  0  0
 28 31  1  0  0  0  0
 29 30  1  0  0  0  0
 29 33  1  6  0  0  0
 31 32  1  1  0  0  0
 31 35  1  0  0  0  0
 33 34  1  0  0  0  0
 35 36  1  1  0  0  0
M  END
>  <CHROM.1>
-159.87080185,-88.66284256,81.71238472,69.80885418,-148.80016737,55.08707394
-176.72830150,-75.23383435,-179.01689801,-168.23373549,-168.81304950,-161.49076291
68.47778578,-61.91665093,42.30402587,5.11076962,6.19740066,0.23113968,-0.46814770
2.68744111

>  <Name>
2f4u_lig

>  <RI>
0

>  <Rbt.Current_Directory>
/home/itssahil/PROJECTS/Mol_Feturizer/New_Systems/rnas/2f4u

>  <Rbt.Executable>
rbdock ($Id: //depot/dev/client3/rdock/2013.1/src/exe/rbdock.cxx#4 $)

>  <Rbt.Library>
libRbt.so (2013.1, Build901 2013/11/27)

>  <Rbt.Parameter_File>
/export/apps/rDock/src/rDock_2013.1_src/data/scripts/dock_solv.prm

>  <Rbt.Receptor>
prm/pocket_docking_7.prm

>  <SCORE>
-10.9015

>  <SCORE.INTER>
-2.34008

>  <SCORE.INTER.CONST>
1

>  <SCORE.INTER.POLAR>
-1.86544

>  <SCORE.INTER.ROT>
14

>  <SCORE.INTER.SOLV>
20.1015

>  <SCORE.INTER.VDW>
-14.9758

>  <SCORE.INTER.norm>
-0.0650024

>  <SCORE.INTRA>
-8.56141

>  <SCORE.INTRA.DIHEDRAL>
-16.1949

>  <SCORE.INTRA.DIHEDRAL.0>
26.3805

>  <SCORE.INTRA.POLAR>
0

>  <SCORE.INTRA.POLAR.0>
0

>  <SCORE.INTRA.REPUL>
0

>  <SCORE.INTRA.REPUL.0>
0

>  <SCORE.INTRA.SOLV>
2.12508

>  <SCORE.INTRA.SOLV.lig_0>
-98.5587

>  <SCORE.INTRA.VDW>
-1.52649

>  <SCORE.INTRA.VDW.0>
-2.91167

>  <SCORE.INTRA.norm>
-0.237817

>  <SCORE.RESTR>
0

>  <SCORE.RESTR.CAVITY>
0

>  <SCORE.RESTR.norm>
0

>  <SCORE.SYSTEM>
0

>  <SCORE.SYSTEM.CONST>
0

>  <SCORE.SYSTEM.DIHEDRAL>
0

>  <SCORE.SYSTEM.SOLV>
0

>  <SCORE.SYSTEM.norm>
0

>  <SCORE.heavy>
36

>  <SCORE.norm>
-0.302819

>  <RMSD>
8.546

$$$$
2f4u_lig
 OpenBabel11021811433D
libRbt.so/2013.1/901 2013/11/27
 36 37  0  0  0  0  0  0  0  0999 V2000
   41.9935    3.7105    6.9697 C   0  0  2  0  0  0  0  0  0  0  0  0
   41.9610    4.1546    8.3766 O   0  0  0  0  0  0  0  0  0  0  0  0
   37.8095    5.3304    8.9038 C   0  0  2  0  0  0  0  0  0  0  0  0
   36.5554    5.7585    9.5810 N   0  0  0  0  0  0  0  0  0  0  0  0
   43.2605    2.8139    6.8119 C   0  0  2  0  0  0  0  0  0  0  0  0
   43.2507    1.6517    7.7193 N   0  0  0  0  0  0  0  0  0  0  0  0
   38.3357    3.9626    9.4653 C   0  0  0  0  0  0  0  0  0  0  0  0
   36.7988    5.9255   11.3418 C   0  0  0  0  0  0  0  0  0  0  0  0
   35.3214    6.1616   11.3798 C   0  0  1  0  0  0  0  0  0  0  0  0
   34.8609    5.9199   12.8216 C   0  0  0  0  0  0  0  0  0  0  0  0
   34.6807    4.4463   13.2305 C   0  0  0  0  0  0  0  0  0  0  0  0
   35.9813    3.7784   13.1510 N   0  0  0  0  0  0  0  0  0  0  0  0
   35.0339    7.4956   11.0601 O   0  0  0  0  0  0  0  0  0  0  0  0
   37.7643    8.5571    7.7032 C   0  0  0  0  0  0  0  0  0  0  0  0
   38.6193    8.6055    6.4457 C   0  0  0  0  0  0  0  0  0  0  0  0
   44.5325    3.6874    7.0720 C   0  0  1  0  0  0  0  0  0  0  0  0
   38.2131    9.6447    5.4782 N   0  0  0  0  0  0  0  0  0  0  0  0
   45.7207    2.9097    6.9503 O   0  0  0  0  0  0  0  0  0  0  0  0
   39.6643    3.5555    8.7962 C   0  0  2  0  0  0  0  0  0  0  0  0
   40.1758    2.3082    9.3502 N   0  0  0  0  0  0  0  0  0  0  0  0
   37.4910   10.1702    3.1538 C   0  0  0  0  0  0  0  0  0  0  0  0
   36.0939    9.4859    3.2428 C   0  0  0  0  0  0  0  0  0  0  0  0
   38.5645    9.4898    4.0429 C   0  0  0  0  0  0  0  0  0  0  0  0
   36.1460    8.0557    2.8150 N   0  0  0  0  0  0  0  0  0  0  0  0
   37.6263    5.8274   12.0252 O   0  0  0  0  0  0  0  0  0  0  0  0
   44.5229    4.8610    6.0722 C   0  0  2  0  0  0  0  0  0  0  0  0
   45.6442    5.7258    6.2352 O   0  0  0  0  0  0  0  0  0  0  0  0
   40.7111    4.6320    9.0025 C   0  0  2  0  0  0  0  0  0  0  0  0
   43.2279    5.6827    6.2032 C   0  0  2  0  0  0  0  0  0  0  0  0
   42.0742    4.8464    6.0626 O   0  0  0  0  0  0  0  0  0  0  0  0
   40.2007    6.0008    8.3941 C   0  0  2  0  0  0  0  0  0  0  0  0
   41.2207    7.0232    8.6231 O   0  0  0  0  0  0  0  0  0  0  0  0
   43.1582    6.7854    5.1808 C   0  0  0  0  0  0  0  0  0  0  0  0
   43.1881    6.2641    3.9070 O   0  0  0  0  0  0  0  0  0  0  0  0
   38.8633    6.4017    9.1038 C   0  0  1  0  0  0  0  0  0  0  0  0
   38.3538    7.6096    8.6183 O   0  0  0  0  0  0  0  0  0  0  0  0
  1  2  1  1  0  0  0
  1  5  1  0  0  0  0
  1 30  1  0  0  0  0
  3  4  1  1  0  0  0
  3  7  1  0  0  0  0
  3 35  1  0  0  0  0
  5  6  1  1  0  0  0
  5 16  1  0  0  0  0
  7 19  1  0  0  0  0
  8  4  1  0  0  0  0
  8 25  2  0  0  0  0
  9  8  1  1  0  0  0
  9 10  1  0  0  0  0
  9 13  1  0  0  0  0
 10 11  1  0  0  0  0
 11 12  1  0  0  0  0
 14 15  1  0  0  0  0
 14 36  1  0  0  0  0
 15 17  1  0  0  0  0
 16 18  1  6  0  0  0
 16 26  1  0  0  0  0
 17 23  1  0  0  0  0
 19 20  1  1  0  0  0
 19 28  1  0  0  0  0
 21 22  1  0  0  0  0
 21 23  1  0  0  0  0
 22 24  1  0  0  0  0
 26 27  1  1  0  0  0
 26 29  1  0  0  0  0
 28  2  1  6  0  0  0
 28 31  1  0  0  0  0
 29 30  1  0  0  0  0
 29 33  1  6  0  0  0
 31 32  1  1  0  0  0
 31 35  1  0  0  0  0
 33 34  1  0  0  0  0
 35 36  1  6  0  0  0
M  END
>  <CHROM.1>
-159.49824613,58.64982907,161.15427586,-79.44244877,63.20349715,-173.74185164
-56.13100987,-156.21084801,149.66427647,-59.91344668,-65.51000873,53.70161229
60.40371356,-54.16213302,39.69412911,5.83210086,7.91023238,-0.33277116,-0.46647036
2.19315889

>  <Name>
2f4u_lig

>  <RI>
0

>  <Rbt.Current_Directory>
/home/itssahil/PROJECTS/Mol_Feturizer/New_Systems/rnas/2f4u

>  <Rbt.Executable>
rbdock ($Id: //depot/dev/client3/rdock/2013.1/src/exe/rbdock.cxx#4 $)

>  <Rbt.Library>
libRbt.so (2013.1, Build901 2013/11/27)

>  <Rbt.Parameter_File>
/export/apps/rDock/src/rDock_2013.1_src/data/scripts/dock_solv.prm

>  <Rbt.Receptor>
prm/pocket_docking_3.prm

>  <SCORE>
-17.4852

>  <SCORE.INTER>
-8.83262

>  <SCORE.INTER.CONST>
1

>  <SCORE.INTER.POLAR>
-2.24753

>  <SCORE.INTER.ROT>
14

>  <SCORE.INTER.SOLV>
17.8413

>  <SCORE.INTER.VDW>
-17.2771

>  <SCORE.INTER.norm>
-0.245351

>  <SCORE.INTRA>
-8.65255

>  <SCORE.INTRA.DIHEDRAL>
-20.4061

>  <SCORE.INTRA.DIHEDRAL.0>
26.3805

>  <SCORE.INTRA.POLAR>
0

>  <SCORE.INTRA.POLAR.0>
0

>  <SCORE.INTRA.REPUL>
0

>  <SCORE.INTRA.REPUL.0>
0

>  <SCORE.INTRA.SOLV>
6.7839

>  <SCORE.INTRA.SOLV.lig_0>
-98.5587

>  <SCORE.INTRA.VDW>
-1.84144

>  <SCORE.INTRA.VDW.0>
-2.91167

>  <SCORE.INTRA.norm>
-0.240349

>  <SCORE.RESTR>
0

>  <SCORE.RESTR.CAVITY>
0

>  <SCORE.RESTR.norm>
0

>  <SCORE.SYSTEM>
0

>  <SCORE.SYSTEM.CONST>
0

>  <SCORE.SYSTEM.DIHEDRAL>
0

>  <SCORE.SYSTEM.SOLV>
0

>  <SCORE.SYSTEM.norm>
0

>  <SCORE.heavy>
36

>  <SCORE.norm>
-0.485699

>  <RMSD>
8.553

$$$$
2f4u_lig
 OpenBabel11021811433D
libRbt.so/2013.1/901 2013/11/27
 36 37  0  0  0  0  0  0  0  0999 V2000
   39.2535    6.8004   11.9671 C   0  0  2  0  0  0  0  0  0  0  0  0
   38.9432    5.3739   12.1835 O   0  0  0  0  0  0  0  0  0  0  0  0
   39.4574    1.9192    9.5959 C   0  0  2  0  0  0  0  0  0  0  0  0
   39.2333    0.9745    8.4680 N   0  0  0  0  0  0  0  0  0  0  0  0
   38.7640    7.5631   13.2371 C   0  0  2  0  0  0  0  0  0  0  0  0
   39.4046    7.0779   14.4734 N   0  0  0  0  0  0  0  0  0  0  0  0
   38.1770    2.0705   10.4907 C   0  0  0  0  0  0  0  0  0  0  0  0
   37.8995    1.5289    7.4187 C   0  0  0  0  0  0  0  0  0  0  0  0
   38.0895    0.2164    6.7251 C   0  0  1  0  0  0  0  0  0  0  0  0
   36.7847   -0.0980    5.9848 C   0  0  0  0  0  0  0  0  0  0  0  0
   35.5506   -0.3403    6.8734 C   0  0  0  0  0  0  0  0  0  0  0  0
   34.4089   -0.6500    6.0106 N   0  0  0  0  0  0  0  0  0  0  0  0
   39.1079    0.3158    5.7672 O   0  0  0  0  0  0  0  0  0  0  0  0
   42.2693    2.6348    7.7905 C   0  0  0  0  0  0  0  0  0  0  0  0
   42.1651    1.1542    7.4567 C   0  0  0  0  0  0  0  0  0  0  0  0
   37.2097    7.4180   13.3453 C   0  0  1  0  0  0  0  0  0  0  0  0
   43.4521    0.4315    7.5056 N   0  0  0  0  0  0  0  0  0  0  0  0
   36.7122    8.0904   14.4993 O   0  0  0  0  0  0  0  0  0  0  0  0
   38.4020    3.0929   11.6233 C   0  0  2  0  0  0  0  0  0  0  0  0
   37.1982    3.2667   12.4264 N   0  0  0  0  0  0  0  0  0  0  0  0
   45.1188   -1.0771    6.4351 C   0  0  0  0  0  0  0  0  0  0  0  0
   45.9722   -1.3076    7.7184 C   0  0  0  0  0  0  0  0  0  0  0  0
   43.6175   -0.8274    6.7340 C   0  0  0  0  0  0  0  0  0  0  0  0
   47.4084   -1.5596    7.3942 N   0  0  0  0  0  0  0  0  0  0  0  0
   37.2453    2.3844    7.3792 O   0  0  0  0  0  0  0  0  0  0  0  0
   36.5831    7.9788   12.0530 C   0  0  2  0  0  0  0  0  0  0  0  0
   35.1609    7.8832   12.0502 O   0  0  0  0  0  0  0  0  0  0  0  0
   38.7890    4.4409   11.0487 C   0  0  2  0  0  0  0  0  0  0  0  0
   37.1406    7.2552   10.8141 C   0  0  2  0  0  0  0  0  0  0  0  0
   38.5710    7.3127   10.7876 O   0  0  0  0  0  0  0  0  0  0  0  0
   40.1072    4.2979   10.1848 C   0  0  2  0  0  0  0  0  0  0  0  0
   40.4462    5.6072    9.6292 O   0  0  0  0  0  0  0  0  0  0  0  0
   36.6053    7.8411    9.5349 C   0  0  0  0  0  0  0  0  0  0  0  0
   37.0773    7.1391    8.4487 O   0  0  0  0  0  0  0  0  0  0  0  0
   39.8462    3.2712    9.0311 C   0  0  1  0  0  0  0  0  0  0  0  0
   40.9713    3.0971    8.2199 O   0  0  0  0  0  0  0  0  0  0  0  0
  1  2  1  1  0  0  0
  1  5  1  0  0  0  0
  1 30  1  0  0  0  0
  3  4  1  6  0  0  0
  3  7  1  0  0  0  0
  3 35  1  0  0  0  0
  5  6  1  1  0  0  0
  5 16  1  0  0  0  0
  7 19  1  0  0  0  0
  8  4  1  0  0  0  0
  8 25  2  0  0  0  0
  9  8  1  6  0  0  0
  9 10  1  0  0  0  0
  9 13  1  0  0  0  0
 10 11  1  0  0  0  0
 11 12  1  0  0  0  0
 14 15  1  0  0  0  0
 14 36  1  0  0  0  0
 15 17  1  0  0  0  0
 16 18  1  1  0  0  0
 16 26  1  0  0  0  0
 17 23  1  0  0  0  0
 19 20  1  6  0  0  0
 19 28  1  0  0  0  0
 21 22  1  0  0  0  0
 21 23  1  0  0  0  0
 22 24  1  0  0  0  0
 26 27  1  1  0  0  0
 26 29  1  0  0  0  0
 28  2  1  1  0  0  0
 28 31  1  0  0  0  0
 29 30  1  0  0  0  0
 29 33  1  6  0  0  0
 31 32  1  6  0  0  0
 31 35  1  0  0  0  0
 33 34  1  0  0  0  0
 35 36  1  1  0  0  0
M  END
>  <CHROM.1>
156.78955775,59.62928716,158.38947154,-65.24486908,-178.90693750,-157.78968606
72.17953099,-156.73303956,156.03454216,179.37353779,64.04730875,-176.91662874
-177.50658381,-44.98569429,39.24019417,3.44368029,9.47263392,-2.08353396
0.15620274,-2.44606373

>  <Name>
2f4u_lig

>  <RI>
0

>  <Rbt.Current_Directory>
/home/itssahil/PROJECTS/Mol_Feturizer/New_Systems/rnas/2f4u

>  <Rbt.Executable>
rbdock ($Id: //depot/dev/client3/rdock/2013.1/src/exe/rbdock.cxx#4 $)

>  <Rbt.Library>
libRbt.so (2013.1, Build901 2013/11/27)

>  <Rbt.Parameter_File>
/export/apps/rDock/src/rDock_2013.1_src/data/scripts/dock_solv.prm

>  <Rbt.Receptor>
prm/pocket_docking_8.prm

>  <SCORE>
-18.649

>  <SCORE.INTER>
-7.92762

>  <SCORE.INTER.CONST>
1

>  <SCORE.INTER.POLAR>
-1.63322

>  <SCORE.INTER.ROT>
14

>  <SCORE.INTER.SOLV>
13.2555

>  <SCORE.INTER.VDW>
-17.1928

>  <SCORE.INTER.norm>
-0.220212

>  <SCORE.INTRA>
-10.7214

>  <SCORE.INTRA.DIHEDRAL>
-18.355

>  <SCORE.INTRA.DIHEDRAL.0>
26.3805

>  <SCORE.INTRA.POLAR>
0

>  <SCORE.INTRA.POLAR.0>
0

>  <SCORE.INTRA.REPUL>
0

>  <SCORE.INTRA.REPUL.0>
0

>  <SCORE.INTRA.SOLV>
0.269136

>  <SCORE.INTRA.SOLV.lig_0>
-98.5587

>  <SCORE.INTRA.VDW>
-1.67846

>  <SCORE.INTRA.VDW.0>
-2.91167

>  <SCORE.INTRA.norm>
-0.297817

>  <SCORE.RESTR>
0

>  <SCORE.RESTR.CAVITY>
0

>  <SCORE.RESTR.norm>
0

>  <SCORE.SYSTEM>
0

>  <SCORE.SYSTEM.CONST>
0

>  <SCORE.SYSTEM.DIHEDRAL>
0

>  <SCORE.SYSTEM.SOLV>
0

>  <SCORE.SYSTEM.norm>
0

>  <SCORE.heavy>
36

>  <SCORE.norm>
-0.518028

>  <RMSD>
8.559

$$$$
2f4u_lig
 OpenBabel11021811433D
libRbt.so/2013.1/901 2013/11/27
 36 37  0  0  0  0  0  0  0  0999 V2000
   45.2165    3.7118    5.3480 C   0  0  2  0  0  0  0  0  0  0  0  0
   44.0172    2.8684    5.5168 O   0  0  0  0  0  0  0  0  0  0  0  0
   41.0380    2.9818    8.6802 C   0  0  2  0  0  0  0  0  0  0  0  0
   40.3989    2.7520   10.0043 N   0  0  0  0  0  0  0  0  0  0  0  0
   45.7642    3.4300    3.9146 C   0  0  2  0  0  0  0  0  0  0  0  0
   44.7754    3.7229    2.8607 N   0  0  0  0  0  0  0  0  0  0  0  0
   41.4066    1.6315    7.9704 C   0  0  0  0  0  0  0  0  0  0  0  0
   38.8431    1.8941    9.8286 C   0  0  0  0  0  0  0  0  0  0  0  0
   38.7078    2.1332   11.2997 C   0  0  1  0  0  0  0  0  0  0  0  0
   37.5690    3.1409   11.4921 C   0  0  0  0  0  0  0  0  0  0  0  0
   37.4141    3.7154   12.9125 C   0  0  0  0  0  0  0  0  0  0  0  0
   38.5129    4.6512   13.1589 N   0  0  0  0  0  0  0  0  0  0  0  0
   38.3415    0.9487   11.9531 O   0  0  0  0  0  0  0  0  0  0  0  0
   41.2332    6.2216    9.8187 C   0  0  0  0  0  0  0  0  0  0  0  0
   39.7620    5.8985   10.0332 C   0  0  0  0  0  0  0  0  0  0  0  0
   46.2110    1.9327    3.8303 C   0  0  1  0  0  0  0  0  0  0  0  0
   38.9001    7.0863   10.1984 N   0  0  0  0  0  0  0  0  0  0  0  0
   46.7109    1.6203    2.5326 O   0  0  0  0  0  0  0  0  0  0  0  0
   42.1179    1.8811    6.6249 C   0  0  2  0  0  0  0  0  0  0  0  0
   42.5006    0.6274    5.9876 N   0  0  0  0  0  0  0  0  0  0  0  0
   36.6882    6.3280    9.3425 C   0  0  0  0  0  0  0  0  0  0  0  0
   35.1938    6.0237    9.6625 C   0  0  0  0  0  0  0  0  0  0  0  0
   37.4673    6.9109   10.5504 C   0  0  0  0  0  0  0  0  0  0  0  0
   34.4873    5.4145    8.4959 N   0  0  0  0  0  0  0  0  0  0  0  0
   38.2732    1.4760    9.0151 O   0  0  0  0  0  0  0  0  0  0  0  0
   47.2756    1.6863    4.9181 C   0  0  2  0  0  0  0  0  0  0  0  0
   47.7428    0.3397    4.9291 O   0  0  0  0  0  0  0  0  0  0  0  0
   43.3699    2.7092    6.8350 C   0  0  2  0  0  0  0  0  0  0  0  0
   46.7282    2.0426    6.3120 C   0  0  2  0  0  0  0  0  0  0  0  0
   46.2313    3.3852    6.3393 O   0  0  0  0  0  0  0  0  0  0  0  0
   42.9929    4.0912    7.5076 C   0  0  2  0  0  0  0  0  0  0  0  0
   44.2193    4.8600    7.7146 O   0  0  0  0  0  0  0  0  0  0  0  0
   47.7763    1.8887    7.3815 C   0  0  0  0  0  0  0  0  0  0  0  0
   47.2372    2.1369    8.6237 O   0  0  0  0  0  0  0  0  0  0  0  0
   42.2916    3.8106    8.8797 C   0  0  1  0  0  0  0  0  0  0  0  0
   41.9330    4.9915    9.5362 O   0  0  0  0  0  0  0  0  0  0  0  0
  1  2  1  1  0  0  0
  1  5  1  0  0  0  0
  1 30  1  0  0  0  0
  3  4  1  1  0  0  0
  3  7  1  0  0  0  0
  3 35  1  0  0  0  0
  5  6  1  6  0  0  0
  5 16  1  0  0  0  0
  7 19  1  0  0  0  0
  8  4  1  0  0  0  0
  8 25  2  0  0  0  0
  9  8  1  6  0  0  0
  9 10  1  0  0  0  0
  9 13  1  0  0  0  0
 10 11  1  0  0  0  0
 11 12  1  0  0  0  0
 14 15  1  0  0  0  0
 14 36  1  0  0  0  0
 15 17  1  0  0  0  0
 16 18  1  6  0  0  0
 16 26  1  0  0  0  0
 17 23  1  0  0  0  0
 19 20  1  1  0  0  0
 19 28  1  0  0  0  0
 21 22  1  0  0  0  0
 21 23  1  0  0  0  0
 22 24  1  0  0  0  0
 26 27  1  1  0  0  0
 26 29  1  0  0  0  0
 28  2  1  6  0  0  0
 28 31  1  0  0  0  0
 29 30  1  0  0  0  0
 29 33  1  1  0  0  0
 31 32  1  1  0  0  0
 31 35  1  0  0  0  0
 33 34  1  0  0  0  0
 35 36  1  6  0  0  0
M  END
>  <CHROM.1>
169.64664622,-63.46998344,111.41219683,-169.91676783,72.61640403,-174.17365280
61.18450460,-173.89010236,-70.94367498,-177.75569553,176.10265896,175.44174420
-176.43385792,-52.95658508,41.96567899,3.34869740,8.05274756,0.20533842,0.57126849
-0.76554447

>  <Name>
2f4u_lig

>  <RI>
0

>  <Rbt.Current_Directory>
/home/itssahil/PROJECTS/Mol_Feturizer/New_Systems/rnas/2f4u

>  <Rbt.Executable>
rbdock ($Id: //depot/dev/client3/rdock/2013.1/src/exe/rbdock.cxx#4 $)

>  <Rbt.Library>
libRbt.so (2013.1, Build901 2013/11/27)

>  <Rbt.Parameter_File>
/export/apps/rDock/src/rDock_2013.1_src/data/scripts/dock_solv.prm

>  <Rbt.Receptor>
prm/pocket_docking_6.prm

>  <SCORE>
-14.4295

>  <SCORE.INTER>
-2.15287

>  <SCORE.INTER.CONST>
1

>  <SCORE.INTER.POLAR>
-0.853555

>  <SCORE.INTER.ROT>
14

>  <SCORE.INTER.SOLV>
12.3721

>  <SCORE.INTER.VDW>
-15.6474

>  <SCORE.INTER.norm>
-0.0598018

>  <SCORE.INTRA>
-12.2767

>  <SCORE.INTRA.DIHEDRAL>
-21.7449

>  <SCORE.INTRA.DIHEDRAL.0>
26.3805

>  <SCORE.INTRA.POLAR>
0

>  <SCORE.INTRA.POLAR.0>
0

>  <SCORE.INTRA.REPUL>
0

>  <SCORE.INTRA.REPUL.0>
0

>  <SCORE.INTRA.SOLV>
2.15858

>  <SCORE.INTRA.SOLV.lig_0>
-98.5587

>  <SCORE.INTRA.VDW>
-2.4835

>  <SCORE.INTRA.VDW.0>
-2.91167

>  <SCORE.INTRA.norm>
-0.341018

>  <SCORE.RESTR>
0

>  <SCORE.RESTR.CAVITY>
0

>  <SCORE.RESTR.norm>
0

>  <SCORE.SYSTEM>
0

>  <SCORE.SYSTEM.CONST>
0

>  <SCORE.SYSTEM.DIHEDRAL>
0

>  <SCORE.SYSTEM.SOLV>
0

>  <SCORE.SYSTEM.norm>
0

>  <SCORE.heavy>
36

>  <SCORE.norm>
-0.40082

>  <RMSD>
8.565

$$$$
2f4u_lig
 OpenBabel11021811433D
libRbt.so/2013.1/901 2013/11/27
 36 37  0  0  0  0  0  0  0  0999 V2000
   42.7874    1.4280    6.8816 C   0  0  2  0  0  0  0  0  0  0  0  0
   42.1425    1.7371    8.1725 O   0  0  0  0  0  0  0  0  0  0  0  0
   38.3852    3.3307    9.6687 C   0  0  2  0  0  0  0  0  0  0  0  0
   37.1218    4.1159    9.7146 N   0  0  0  0  0  0  0  0  0  0  0  0
   44.2779    1.0897    7.1950 C   0  0  2  0  0  0  0  0  0  0  0  0
   44.4194   -0.0444    8.1267 N   0  0  0  0  0  0  0  0  0  0  0  0
   39.6397    4.2576    9.4949 C   0  0  0  0  0  0  0  0  0  0  0  0
   36.4950    4.4244    8.0717 C   0  0  0  0  0  0  0  0  0  0  0  0
   35.4824    5.2753    8.7719 C   0  0  1  0  0  0  0  0  0  0  0  0
   35.8724    6.7374    8.5278 C   0  0  0  0  0  0  0  0  0  0  0  0
   35.0116    7.7909    9.2491 C   0  0  0  0  0  0  0  0  0  0  0  0
   35.1997    7.6370   10.6930 N   0  0  0  0  0  0  0  0  0  0  0  0
   34.2116    5.0761    8.2153 O   0  0  0  0  0  0  0  0  0  0  0  0
   35.7818    1.2144    8.8627 C   0  0  0  0  0  0  0  0  0  0  0  0
   35.4567    1.2852   10.3473 C   0  0  0  0  0  0  0  0  0  0  0  0
   44.9702    2.3615    7.7883 C   0  0  1  0  0  0  0  0  0  0  0  0
   35.4423    2.6553   10.8983 N   0  0  0  0  0  0  0  0  0  0  0  0
   46.3356    2.1009    8.1028 O   0  0  0  0  0  0  0  0  0  0  0  0
   40.9378    3.4310    9.3930 C   0  0  2  0  0  0  0  0  0  0  0  0
   42.0973    4.2895    9.1861 N   0  0  0  0  0  0  0  0  0  0  0  0
   33.1206    3.3864   11.4227 C   0  0  0  0  0  0  0  0  0  0  0  0
   32.1079    3.8511   12.5121 C   0  0  0  0  0  0  0  0  0  0  0  0
   34.5054    2.9940   12.0006 C   0  0  0  0  0  0  0  0  0  0  0  0
   30.7669    4.1593   11.9307 N   0  0  0  0  0  0  0  0  0  0  0  0
   36.7816    4.1586    7.0674 O   0  0  0  0  0  0  0  0  0  0  0  0
   44.8369    3.5046    6.7623 C   0  0  2  0  0  0  0  0  0  0  0  0
   45.4324    4.7174    7.2163 O   0  0  0  0  0  0  0  0  0  0  0  0
   40.8544    2.4574    8.2344 C   0  0  2  0  0  0  0  0  0  0  0  0
   43.3590    3.7647    6.4196 C   0  0  2  0  0  0  0  0  0  0  0  0
   42.7174    2.5645    5.9746 O   0  0  0  0  0  0  0  0  0  0  0  0
   39.6169    1.4913    8.4330 C   0  0  2  0  0  0  0  0  0  0  0  0
   39.5503    0.5768    7.2940 O   0  0  0  0  0  0  0  0  0  0  0  0
   43.2076    4.8210    5.3578 C   0  0  0  0  0  0  0  0  0  0  0  0
   41.8765    5.0896    5.1316 O   0  0  0  0  0  0  0  0  0  0  0  0
   38.3111    2.3526    8.5128 C   0  0  1  0  0  0  0  0  0  0  0  0
   37.1711    1.5618    8.6839 O   0  0  0  0  0  0  0  0  0  0  0  0
  1  2  1  1  0  0  0
  1  5  1  0  0  0  0
  1 30  1  0  0  0  0
  3  4  1  6  0  0  0
  3  7  1  0  0  0  0
  3 35  1  0  0  0  0
  5  6  1  1  0  0  0
  5 16  1  0  0  0  0
  7 19  1  0  0  0  0
  8  4  1  0  0  0  0
  8 25  2  0  0  0  0
  9  8  1  6  0  0  0
  9 10  1  0  0  0  0
  9 13  1  0  0  0  0
 10 11  1  0  0  0  0
 11 12  1  0  0  0  0
 14 15  1  0  0  0  0
 14 36  1  0  0  0  0
 15 17  1  0  0  0  0
 16 18  1  6  0  0  0
 16 26  1  0  0  0  0
 17 23  1  0  0  0  0
 19 20  1  6  0  0  0
 19 28  1  0  0  0  0
 21 22  1  0  0  0  0
 21 23  1  0  0  0  0
 22 24  1  0  0  0  0
 26 27  1  1  0  0  0
 26 29  1  0  0  0  0
 28  2  1  1  0  0  0
 28 31  1  0  0  0  0
 29 30  1  0  0  0  0
 29 33  1  6  0  0  0
 31 32  1  6  0  0  0
 31 35  1  0  0  0  0
 33 34  1  0  0  0  0
 35 36  1  1  0  0  0
M  END
>  <CHROM.1>
162.66492509,86.23029977,105.24896874,-175.84821076,64.79795293,69.95280747
-85.17987378,147.23851651,-85.38073747,-177.29618857,-176.03063708,-139.98278026
-176.33292446,56.55961140,39.08299091,3.37704983,8.58966669,0.05345671,-0.34964395
2.84552413

>  <Name>
2f4u_lig

>  <RI>
0

>  <Rbt.Current_Directory>
/home/itssahil/PROJECTS/Mol_Feturizer/New_Systems/rnas/2f4u

>  <Rbt.Executable>
rbdock ($Id: //depot/dev/client3/rdock/2013.1/src/exe/rbdock.cxx#4 $)

>  <Rbt.Library>
libRbt.so (2013.1, Build901 2013/11/27)

>  <Rbt.Parameter_File>
/export/apps/rDock/src/rDock_2013.1_src/data/scripts/dock_solv.prm

>  <Rbt.Receptor>
prm/pocket_docking_5.prm

>  <SCORE>
-4.93088

>  <SCORE.INTER>
0.235772

>  <SCORE.INTER.CONST>
1

>  <SCORE.INTER.POLAR>
-1.8817

>  <SCORE.INTER.ROT>
14

>  <SCORE.INTER.SOLV>
10.8015

>  <SCORE.INTER.VDW>
-10.1043

>  <SCORE.INTER.norm>
0.00654921

>  <SCORE.INTRA>
-5.16666

>  <SCORE.INTRA.DIHEDRAL>
-12.2346

>  <SCORE.INTRA.DIHEDRAL.0>
26.3805

>  <SCORE.INTRA.POLAR>
0

>  <SCORE.INTRA.POLAR.0>
0

>  <SCORE.INTRA.REPUL>
0.00887705

>  <SCORE.INTRA.REPUL.0>
0

>  <SCORE.INTRA.SOLV>
6.87901

>  <SCORE.INTRA.SOLV.lig_0>
-98.5587

>  <SCORE.INTRA.VDW>
-2.53325

>  <SCORE.INTRA.VDW.0>
-2.91167

>  <SCORE.INTRA.norm>
-0.143518

>  <SCORE.RESTR>
0

>  <SCORE.RESTR.CAVITY>
0

>  <SCORE.RESTR.norm>
0

>  <SCORE.SYSTEM>
0

>  <SCORE.SYSTEM.CONST>
0

>  <SCORE.SYSTEM.DIHEDRAL>
0

>  <SCORE.SYSTEM.SOLV>
0

>  <SCORE.SYSTEM.norm>
0

>  <SCORE.heavy>
36

>  <SCORE.norm>
-0.136969

>  <RMSD>
8.568

$$$$
2f4u_lig
 OpenBabel11021811433D
libRbt.so/2013.1/901 2013/11/27
 36 37  0  0  0  0  0  0  0  0999 V2000
   42.6318    3.4857    6.3772 C   0  0  2  0  0  0  0  0  0  0  0  0
   42.3404    4.1875    7.6423 O   0  0  0  0  0  0  0  0  0  0  0  0
   38.4217    5.9148    6.8970 C   0  0  2  0  0  0  0  0  0  0  0  0
   37.1633    6.6735    7.1322 N   0  0  0  0  0  0  0  0  0  0  0  0
   43.8814    2.5891    6.6397 C   0  0  2  0  0  0  0  0  0  0  0  0
   43.6661    1.6194    7.7295 N   0  0  0  0  0  0  0  0  0  0  0  0
   38.6048    4.7553    7.9388 C   0  0  0  0  0  0  0  0  0  0  0  0
   37.3345    7.7933    8.5122 C   0  0  0  0  0  0  0  0  0  0  0  0
   35.8721    8.0394    8.3104 C   0  0  1  0  0  0  0  0  0  0  0  0
   35.1272    7.2648    9.4033 C   0  0  0  0  0  0  0  0  0  0  0  0
   35.1994    5.7297    9.3057 C   0  0  0  0  0  0  0  0  0  0  0  0
   34.5291    5.1566   10.4745 N   0  0  0  0  0  0  0  0  0  0  0  0
   35.5801    9.3996    8.4799 O   0  0  0  0  0  0  0  0  0  0  0  0
   38.7341    8.9949    5.3870 C   0  0  0  0  0  0  0  0  0  0  0  0
   39.7467    9.6599    4.4666 C   0  0  0  0  0  0  0  0  0  0  0  0
   45.1020    3.5096    6.9735 C   0  0  1  0  0  0  0  0  0  0  0  0
   40.3579    8.7465    3.4801 N   0  0  0  0  0  0  0  0  0  0  0  0
   46.2704    2.7358    7.2331 O   0  0  0  0  0  0  0  0  0  0  0  0
   39.9378    4.0109    7.7208 C   0  0  2  0  0  0  0  0  0  0  0  0
   40.1285    2.9638    8.7165 N   0  0  0  0  0  0  0  0  0  0  0  0
   41.0713    6.3845    3.1453 C   0  0  0  0  0  0  0  0  0  0  0  0
   39.6878    5.7280    3.4336 C   0  0  0  0  0  0  0  0  0  0  0  0
   41.3043    7.6968    3.9386 C   0  0  0  0  0  0  0  0  0  0  0  0
   39.4957    4.4686    2.6536 N   0  0  0  0  0  0  0  0  0  0  0  0
   38.1231    8.0784    9.1890 O   0  0  0  0  0  0  0  0  0  0  0  0
   45.3163    4.4728    5.7888 C   0  0  2  0  0  0  0  0  0  0  0  0
   46.4076    5.3649    6.0014 O   0  0  0  0  0  0  0  0  0  0  0  0
   41.1031    4.9754    7.8160 C   0  0  2  0  0  0  0  0  0  0  0  0
   44.0425    5.2905    5.5092 C   0  0  2  0  0  0  0  0  0  0  0  0
   42.9158    4.4303    5.3065 O   0  0  0  0  0  0  0  0  0  0  0  0
   40.9434    6.1188    6.7336 C   0  0  2  0  0  0  0  0  0  0  0  0
   42.0695    7.0428    6.8603 O   0  0  0  0  0  0  0  0  0  0  0  0
   44.2003    6.1791    4.3044 C   0  0  0  0  0  0  0  0  0  0  0  0
   45.0273    7.2410    4.5938 O   0  0  0  0  0  0  0  0  0  0  0  0
   39.5939    6.8716    6.9893 C   0  0  1  0  0  0  0  0  0  0  0  0
   39.3870    7.9038    6.0695 O   0  0  0  0  0  0  0  0  0  0  0  0
  1  2  1  1  0  0  0
  1  5  1  0  0  0  0
  1 30  1  0  0  0  0
  3  4  1  1  0  0  0
  3  7  1  0  0  0  0
  3 35  1  0  0  0  0
  5  6  1  1  0  0  0
  5 16  1  0  0  0  0
  7 19  1  0  0  0  0
  8  4  1  0  0  0  0
  8 25  2  0  0  0  0
  9  8  1  1  0  0  0
  9 10  1  0  0  0  0
  9 13  1  0  0  0  0
 10 11  1  0  0  0  0
 11 12  1  0  0  0  0
 14 15  1  0  0  0  0
 14 36  1  0  0  0  0
 15 17  1  0  0  0  0
 16 18  1  6  0  0  0
 16 26  1  0  0  0  0
 17 23  1  0  0  0  0
 19 20  1  1  0  0  0
 19 28  1  0  0  0  0
 21 22  1  0  0  0  0
 21 23  1  0  0  0  0
 22 24  1  0  0  0  0
 26 27  1  1  0  0  0
 26 29  1  0  0  0  0
 28  2  1  6  0  0  0
 28 31  1  0  0  0  0
 29 30  1  0  0  0  0
 29 33  1  6  0  0  0
 31 32  1  1  0  0  0
 31 35  1  0  0  0  0
 33 34  1  0  0  0  0
 35 36  1  6  0  0  0
M  END
>  <CHROM.1>
-171.05687746,77.02189528,103.10414011,-67.43008596,175.66484327,57.27479166
168.94421366,-69.79471601,140.81192883,179.94461979,-66.29200123,63.87306897
-72.88422803,54.62588556,40.63448659,5.89908840,6.58151639,0.05147027,-0.43283419
2.37467086

>  <Name>
2f4u_lig

>  <RI>
0

>  <Rbt.Current_Directory>
/home/itssahil/PROJECTS/Mol_Feturizer/New_Systems/rnas/2f4u

>  <Rbt.Executable>
rbdock ($Id: //depot/dev/client3/rdock/2013.1/src/exe/rbdock.cxx#4 $)

>  <Rbt.Library>
libRbt.so (2013.1, Build901 2013/11/27)

>  <Rbt.Parameter_File>
/export/apps/rDock/src/rDock_2013.1_src/data/scripts/dock_solv.prm

>  <Rbt.Receptor>
prm/pocket_docking_4.prm

>  <SCORE>
-15.5504

>  <SCORE.INTER>
-3.20585

>  <SCORE.INTER.CONST>
1

>  <SCORE.INTER.POLAR>
-1.64271

>  <SCORE.INTER.ROT>
14

>  <SCORE.INTER.SOLV>
10.4447

>  <SCORE.INTER.VDW>
-13.0764

>  <SCORE.INTER.norm>
-0.0890513

>  <SCORE.INTRA>
-12.3445

>  <SCORE.INTRA.DIHEDRAL>
-20.7386

>  <SCORE.INTRA.DIHEDRAL.0>
26.3805

>  <SCORE.INTRA.POLAR>
0

>  <SCORE.INTRA.POLAR.0>
0

>  <SCORE.INTRA.REPUL>
0

>  <SCORE.INTRA.REPUL.0>
0

>  <SCORE.INTRA.SOLV>
3.36501

>  <SCORE.INTRA.SOLV.lig_0>
-98.5587

>  <SCORE.INTRA.VDW>
-3.65774

>  <SCORE.INTRA.VDW.0>
-2.91167

>  <SCORE.INTRA.norm>
-0.342903

>  <SCORE.RESTR>
0

>  <SCORE.RESTR.CAVITY>
0

>  <SCORE.RESTR.norm>
0

>  <SCORE.SYSTEM>
0

>  <SCORE.SYSTEM.CONST>
0

>  <SCORE.SYSTEM.DIHEDRAL>
0

>  <SCORE.SYSTEM.SOLV>
0

>  <SCORE.SYSTEM.norm>
0

>  <SCORE.heavy>
36

>  <SCORE.norm>
-0.431954

>  <RMSD>
8.569

$$$$
2f4u_lig
 OpenBabel11021811433D
libRbt.so/2013.1/901 2013/11/27
 36 37  0  0  0  0  0  0  0  0999 V2000
   45.8382    4.4085    6.2469 C   0  0  2  0  0  0  0  0  0  0  0  0
   44.7720    4.8574    7.1631 O   0  0  0  0  0  0  0  0  0  0  0  0
   40.8702    6.6410    6.4629 C   0  0  2  0  0  0  0  0  0  0  0  0
   39.4955    6.8232    5.9226 N   0  0  0  0  0  0  0  0  0  0  0  0
   45.3230    3.1032    5.5651 C   0  0  2  0  0  0  0  0  0  0  0  0
   44.0621    3.3066    4.8283 N   0  0  0  0  0  0  0  0  0  0  0  0
   41.9407    6.5727    5.3173 C   0  0  0  0  0  0  0  0  0  0  0  0
   39.3099    8.4273    5.1613 C   0  0  0  0  0  0  0  0  0  0  0  0
   37.8700    8.0407    5.0304 C   0  0  1  0  0  0  0  0  0  0  0  0
   37.0440    9.3276    5.1353 C   0  0  0  0  0  0  0  0  0  0  0  0
   37.2933   10.3765    4.0358 C   0  0  0  0  0  0  0  0  0  0  0  0
   38.4071   11.2313    4.4514 N   0  0  0  0  0  0  0  0  0  0  0  0
   37.6293    7.4833    3.7672 O   0  0  0  0  0  0  0  0  0  0  0  0
   38.6240    5.4265    8.8809 C   0  0  0  0  0  0  0  0  0  0  0  0
   38.1508    3.9828    8.9627 C   0  0  0  0  0  0  0  0  0  0  0  0
   45.1329    2.0025    6.6609 C   0  0  1  0  0  0  0  0  0  0  0  0
   36.8762    3.8047    9.6872 N   0  0  0  0  0  0  0  0  0  0  0  0
   44.6513    0.7891    6.0891 O   0  0  0  0  0  0  0  0  0  0  0  0
   43.3540    6.3285    5.8843 C   0  0  2  0  0  0  0  0  0  0  0  0
   44.3411    6.2200    4.8174 N   0  0  0  0  0  0  0  0  0  0  0  0
   34.9929    2.4475   10.5878 C   0  0  0  0  0  0  0  0  0  0  0  0
   34.7012    3.3479   11.8256 C   0  0  0  0  0  0  0  0  0  0  0  0
   36.4849    2.4529   10.1638 C   0  0  0  0  0  0  0  0  0  0  0  0
   34.8996    4.7965   11.5197 N   0  0  0  0  0  0  0  0  0  0  0  0
   39.9471    9.2746    4.9676 O   0  0  0  0  0  0  0  0  0  0  0  0
   46.4851    1.7923    7.3714 C   0  0  2  0  0  0  0  0  0  0  0  0
   46.4137    0.8085    8.4002 O   0  0  0  0  0  0  0  0  0  0  0  0
   43.3846    5.0467    6.6926 C   0  0  2  0  0  0  0  0  0  0  0  0
   47.0012    3.1131    7.9703 C   0  0  2  0  0  0  0  0  0  0  0  0
   47.0716    4.1359    6.9707 O   0  0  0  0  0  0  0  0  0  0  0  0
   42.3386    5.1338    7.8769 C   0  0  2  0  0  0  0  0  0  0  0  0
   42.3767    3.8793    8.6272 O   0  0  0  0  0  0  0  0  0  0  0  0
   48.3598    2.9505    8.5980 C   0  0  0  0  0  0  0  0  0  0  0  0
   48.3111    2.0303    9.6207 O   0  0  0  0  0  0  0  0  0  0  0  0
   40.9108    5.3610    7.2742 C   0  0  1  0  0  0  0  0  0  0  0  0
   39.9299    5.4433    8.2668 O   0  0  0  0  0  0  0  0  0  0  0  0
  1  2  1  1  0  0  0
  1  5  1  0  0  0  0
  1 30  1  0  0  0  0
  3  4  1  6  0  0  0
  3  7  1  0  0  0  0
  3 35  1  0  0  0  0
  5  6  1  1  0  0  0
  5 16  1  0  0  0  0
  7 19  1  0  0  0  0
  8  4  1  0  0  0  0
  8 25  2  0  0  0  0
  9  8  1  6  0  0  0
  9 10  1  0  0  0  0
  9 13  1  0  0  0  0
 10 11  1  0  0  0  0
 11 12  1  0  0  0  0
 14 15  1  0  0  0  0
 14 36  1  0  0  0  0
 15 17  1  0  0  0  0
 16 18  1  6  0  0  0
 16 26  1  0  0  0  0
 17 23  1  0  0  0  0
 19 20  1  6  0  0  0
 19 28  1  0  0  0  0
 21 22  1  0  0  0  0
 21 23  1  0  0  0  0
 22 24  1  0  0  0  0
 26 27  1  1  0  0  0
 26 29  1  0  0  0  0
 28  2  1  1  0  0  0
 28 31  1  0  0  0  0
 29 30  1  0  0  0  0
 29 33  1  6  0  0  0
 31 32  1  6  0  0  0
 31 35  1  0  0  0  0
 33 34  1  0  0  0  0
 35 36  1  1  0  0  0
M  END
>  <CHROM.1>
-53.09082656,-67.25547633,148.31584378,62.41907156,-87.37509251,174.58713027
73.47471133,-163.42055602,-166.77482385,66.89318017,-65.49872277,-74.80861498
-60.61281641,76.40600982,41.55008451,5.00191916,7.15077279,-0.29994882,0.26852025
-0.71991420

>  <Name>
2f4u_lig

>  <RI>
0

>  <Rbt.Current_Directory>
/home/itssahil/PROJECTS/Mol_Feturizer/New_Systems/rnas/2f4u

>  <Rbt.Executable>
rbdock ($Id: //depot/dev/client3/rdock/2013.1/src/exe/rbdock.cxx#4 $)

>  <Rbt.Library>
libRbt.so (2013.1, Build901 2013/11/27)

>  <Rbt.Parameter_File>
/export/apps/rDock/src/rDock_2013.1_src/data/scripts/dock_solv.prm

>  <Rbt.Receptor>
prm/pocket_docking_3.prm

>  <SCORE>
-9.63314

>  <SCORE.INTER>
-7.43681

>  <SCORE.INTER.CONST>
1

>  <SCORE.INTER.POLAR>
-1.83178

>  <SCORE.INTER.ROT>
14

>  <SCORE.INTER.SOLV>
12.5805

>  <SCORE.INTER.VDW>
-15.9788

>  <SCORE.INTER.norm>
-0.206578

>  <SCORE.INTRA>
-2.19633

>  <SCORE.INTRA.DIHEDRAL>
-18.1956

>  <SCORE.INTRA.DIHEDRAL.0>
26.3805

>  <SCORE.INTRA.POLAR>
0

>  <SCORE.INTRA.POLAR.0>
0

>  <SCORE.INTRA.REPUL>
0

>  <SCORE.INTRA.REPUL.0>
0

>  <SCORE.INTRA.SOLV>
10.6556

>  <SCORE.INTRA.SOLV.lig_0>
-98.5587

>  <SCORE.INTRA.VDW>
1.57366

>  <SCORE.INTRA.VDW.0>
-2.91167

>  <SCORE.INTRA.norm>
-0.0610093

>  <SCORE.RESTR>
0

>  <SCORE.RESTR.CAVITY>
0

>  <SCORE.RESTR.norm>
0

>  <SCORE.SYSTEM>
0

>  <SCORE.SYSTEM.CONST>
0

>  <SCORE.SYSTEM.DIHEDRAL>
0

>  <SCORE.SYSTEM.SOLV>
0

>  <SCORE.SYSTEM.norm>
0

>  <SCORE.heavy>
36

>  <SCORE.norm>
-0.267587

>  <RMSD>
8.574

$$$$
2f4u_lig
 OpenBabel11021811433D
libRbt.so/2013.1/901 2013/11/27
 36 37  0  0  0  0  0  0  0  0999 V2000
   45.8236    4.1252    6.2585 C   0  0  2  0  0  0  0  0  0  0  0  0
   44.8522    4.6475    7.2391 O   0  0  0  0  0  0  0  0  0  0  0  0
   40.8730    6.3652    6.9060 C   0  0  2  0  0  0  0  0  0  0  0  0
   39.4541    6.5290    6.4882 N   0  0  0  0  0  0  0  0  0  0  0  0
   45.4386    2.6363    5.9959 C   0  0  2  0  0  0  0  0  0  0  0  0
   44.0624    2.4862    5.4883 N   0  0  0  0  0  0  0  0  0  0  0  0
   41.8427    6.3365    5.6722 C   0  0  0  0  0  0  0  0  0  0  0  0
   39.1583    8.1660    5.8399 C   0  0  0  0  0  0  0  0  0  0  0  0
   37.7251    7.7370    5.8011 C   0  0  1  0  0  0  0  0  0  0  0  0
   36.9685    8.5913    6.8244 C   0  0  0  0  0  0  0  0  0  0  0  0
   37.3461    8.3626    8.2997 C   0  0  0  0  0  0  0  0  0  0  0  0
   36.3925    9.0870    9.1422 N   0  0  0  0  0  0  0  0  0  0  0  0
   37.1735    7.9979    4.5394 O   0  0  0  0  0  0  0  0  0  0  0  0
   39.4252    4.7209    9.9664 C   0  0  0  0  0  0  0  0  0  0  0  0
   38.8303    3.3385    9.7436 C   0  0  0  0  0  0  0  0  0  0  0  0
   45.6119    1.8282    7.3247 C   0  0  1  0  0  0  0  0  0  0  0  0
   38.2062    2.7482   10.9450 N   0  0  0  0  0  0  0  0  0  0  0  0
   45.2611    0.4591    7.1403 O   0  0  0  0  0  0  0  0  0  0  0  0
   43.3035    6.1110    6.1123 C   0  0  2  0  0  0  0  0  0  0  0  0
   44.1975    6.0391    4.9633 N   0  0  0  0  0  0  0  0  0  0  0  0
   35.7726    3.2234   10.7176 C   0  0  0  0  0  0  0  0  0  0  0  0
   35.4357    1.7237   10.4612 C   0  0  0  0  0  0  0  0  0  0  0  0
   37.0464    3.4268   11.5789 C   0  0  0  0  0  0  0  0  0  0  0  0
   34.1711    1.5623    9.6825 N   0  0  0  0  0  0  0  0  0  0  0  0
   39.7515    9.0447    5.6464 O   0  0  0  0  0  0  0  0  0  0  0  0
   47.0739    1.9769    7.7911 C   0  0  2  0  0  0  0  0  0  0  0  0
   47.3323    1.2795    9.0071 O   0  0  0  0  0  0  0  0  0  0  0  0
   43.4265    4.8172    6.8920 C   0  0  2  0  0  0  0  0  0  0  0  0
   47.4442    3.4602    7.9708 C   0  0  2  0  0  0  0  0  0  0  0  0
   47.1828    4.2020    6.7744 O   0  0  0  0  0  0  0  0  0  0  0  0
   42.4842    4.8644    8.1626 C   0  0  2  0  0  0  0  0  0  0  0  0
   42.6092    3.5990    8.8844 O   0  0  0  0  0  0  0  0  0  0  0  0
   48.8915    3.6348    8.3463 C   0  0  0  0  0  0  0  0  0  0  0  0
   49.1224    3.1497    9.6138 O   0  0  0  0  0  0  0  0  0  0  0  0
   41.0062    5.0733    7.6880 C   0  0  1  0  0  0  0  0  0  0  0  0
   40.1125    5.1202    8.7619 O   0  0  0  0  0  0  0  0  0  0  0  0
  1  2  1  1  0  0  0
  1  5  1  0  0  0  0
  1 30  1  0  0  0  0
  3  4  1  6  0  0  0
  3  7  1  0  0  0  0
  3 35  1  0  0  0  0
  5  6  1  1  0  0  0
  5 16  1  0  0  0  0
  7 19  1  0  0  0  0
  8  4  1  0  0  0  0
  8 25  2  0  0  0  0
  9  8  1  6  0  0  0
  9 10  1  0  0  0  0
  9 13  1  0  0  0  0
 10 11  1  0  0  0  0
 11 12  1  0  0  0  0
 14 15  1  0  0  0  0
 14 36  1  0  0  0  0
 15 17  1  0  0  0  0
 16 18  1  6  0  0  0
 16 26  1  0  0  0  0
 17 23  1  0  0  0  0
 19 20  1  6  0  0  0
 19 28  1  0  0  0  0
 21 22  1  0  0  0  0
 21 23  1  0  0  0  0
 22 24  1  0  0  0  0
 26 27  1  1  0  0  0
 26 29  1  0  0  0  0
 28  2  1  1  0  0  0
 28 31  1  0  0  0  0
 29 30  1  0  0  0  0
 29 33  1  6  0  0  0
 31 32  1  6  0  0  0
 31 35  1  0  0  0  0
 33 34  1  0  0  0  0
 35 36  1  1  0  0  0
M  END
>  <CHROM.1>
-67.17611087,-69.73597525,113.44751561,-66.27922480,-170.97286901,174.38466103
-55.56023667,61.81255528,74.18357841,177.40927117,56.42129329,-80.05995748
-68.26741107,-176.16821769,41.72735757,4.66071506,7.75666747,-0.18014423
0.23574695,-0.62276489

>  <Name>
2f4u_lig

>  <RI>
0

>  <Rbt.Current_Directory>
/home/itssahil/PROJECTS/Mol_Feturizer/New_Systems/rnas/2f4u

>  <Rbt.Executable>
rbdock ($Id: //depot/dev/client3/rdock/2013.1/src/exe/rbdock.cxx#4 $)

>  <Rbt.Library>
libRbt.so (2013.1, Build901 2013/11/27)

>  <Rbt.Parameter_File>
/export/apps/rDock/src/rDock_2013.1_src/data/scripts/dock_solv.prm

>  <Rbt.Receptor>
prm/pocket_docking_4.prm

>  <SCORE>
-11.2167

>  <SCORE.INTER>
-2.52467

>  <SCORE.INTER.CONST>
1

>  <SCORE.INTER.POLAR>
-0.87178

>  <SCORE.INTER.ROT>
14

>  <SCORE.INTER.SOLV>
10.1696

>  <SCORE.INTER.VDW>
-15.1004

>  <SCORE.INTER.norm>
-0.0701297

>  <SCORE.INTRA>
-8.69753

>  <SCORE.INTRA.DIHEDRAL>
-20.5691

>  <SCORE.INTRA.DIHEDRAL.0>
26.3805

>  <SCORE.INTRA.POLAR>
0

>  <SCORE.INTRA.POLAR.0>
0

>  <SCORE.INTRA.REPUL>
0

>  <SCORE.INTRA.REPUL.0>
0

>  <SCORE.INTRA.SOLV>
3.42553

>  <SCORE.INTRA.SOLV.lig_0>
-98.5587

>  <SCORE.INTRA.VDW>
-0.125757

>  <SCORE.INTRA.VDW.0>
-2.91167

>  <SCORE.INTRA.norm>
-0.241598

>  <SCORE.RESTR>
0.00552719

>  <SCORE.RESTR.CAVITY>
0.00552719

>  <SCORE.RESTR.norm>
0.000153533

>  <SCORE.SYSTEM>
0

>  <SCORE.SYSTEM.CONST>
0

>  <SCORE.SYSTEM.DIHEDRAL>
0

>  <SCORE.SYSTEM.SOLV>
0

>  <SCORE.SYSTEM.norm>
0

>  <SCORE.heavy>
36

>  <SCORE.norm>
-0.311574

>  <RMSD>
8.617

$$$$
2f4u_lig
 OpenBabel11021811433D
libRbt.so/2013.1/901 2013/11/27
 36 37  0  0  0  0  0  0  0  0999 V2000
   47.2329    3.4864    3.0829 C   0  0  2  0  0  0  0  0  0  0  0  0
   47.3358    4.6371    4.0012 O   0  0  0  0  0  0  0  0  0  0  0  0
   43.5845    4.5165    6.1940 C   0  0  2  0  0  0  0  0  0  0  0  0
   42.5972    4.7436    7.2841 N   0  0  0  0  0  0  0  0  0  0  0  0
   48.4800    3.5468    2.1473 C   0  0  2  0  0  0  0  0  0  0  0  0
   49.7518    3.5000    2.8920 N   0  0  0  0  0  0  0  0  0  0  0  0
   44.8392    3.7224    6.7022 C   0  0  0  0  0  0  0  0  0  0  0  0
   42.3759    3.2716    8.2699 C   0  0  0  0  0  0  0  0  0  0  0  0
   41.2923    4.0559    8.9410 C   0  0  1  0  0  0  0  0  0  0  0  0
   40.5041    3.0789    9.8206 C   0  0  0  0  0  0  0  0  0  0  0  0
   39.2667    3.6614   10.5281 C   0  0  0  0  0  0  0  0  0  0  0  0
   38.5450    2.5672   11.1806 N   0  0  0  0  0  0  0  0  0  0  0  0
   41.8470    5.0310    9.7811 O   0  0  0  0  0  0  0  0  0  0  0  0
   41.5348    7.0719    5.2395 C   0  0  0  0  0  0  0  0  0  0  0  0
   40.5769    5.9391    4.9017 C   0  0  0  0  0  0  0  0  0  0  0  0
   48.4064    4.8552    1.2921 C   0  0  1  0  0  0  0  0  0  0  0  0
   40.5972    5.5335    3.4818 N   0  0  0  0  0  0  0  0  0  0  0  0
   49.5326    4.9638    0.4253 O   0  0  0  0  0  0  0  0  0  0  0  0
   45.8805    3.5407    5.5791 C   0  0  2  0  0  0  0  0  0  0  0  0
   47.0651    2.8430    6.0632 N   0  0  0  0  0  0  0  0  0  0  0  0
   39.9406    4.1189    1.5408 C   0  0  0  0  0  0  0  0  0  0  0  0
   38.7986    4.9904    0.9370 C   0  0  0  0  0  0  0  0  0  0  0  0
   40.0347    4.2166    3.0859 C   0  0  0  0  0  0  0  0  0  0  0  0
   37.4516    4.5443    1.4036 N   0  0  0  0  0  0  0  0  0  0  0  0
   42.7988    2.2806    8.2933 O   0  0  0  0  0  0  0  0  0  0  0  0
   47.0847    4.8375    0.4984 C   0  0  2  0  0  0  0  0  0  0  0  0
   46.9185    5.9993   -0.3104 O   0  0  0  0  0  0  0  0  0  0  0  0
   46.3114    4.8882    5.0353 C   0  0  2  0  0  0  0  0  0  0  0  0
   45.8782    4.7039    1.4449 C   0  0  2  0  0  0  0  0  0  0  0  0
   46.0143    3.5557    2.2894 O   0  0  0  0  0  0  0  0  0  0  0  0
   45.0529    5.6701    4.4793 C   0  0  2  0  0  0  0  0  0  0  0  0
   45.4947    6.9710    3.9788 O   0  0  0  0  0  0  0  0  0  0  0  0
   44.5810    4.6014    0.6880 C   0  0  0  0  0  0  0  0  0  0  0  0
   43.5252    4.4535    1.5590 O   0  0  0  0  0  0  0  0  0  0  0  0
   44.0213    5.8594    5.6425 C   0  0  1  0  0  0  0  0  0  0  0  0
   42.8803    6.5502    5.2240 O   0  0  0  0  0  0  0  0  0  0  0  0
  1  2  1  1  0  0  0
  1  5  1  0  0  0  0
  1 30  1  0  0  0  0
  3  4  1  1  0  0  0
  3  7  1  0  0  0  0
  3 35  1  0  0  0  0
  5  6  1  1  0  0  0
  5 16  1  0  0  0  0
  7 19  1  0  0  0  0
  8  4  1  0  0  0  0
  8 25  2  0  0  0  0
  9  8  1  1  0  0  0
  9 10  1  0  0  0  0
  9 13  1  0  0  0  0
 10 11  1  0  0  0  0
 11 12  1  0  0  0  0
 14 15  1  0  0  0  0
 14 36  1  0  0  0  0
 15 17  1  0  0  0  0
 16 18  1  6  0  0  0
 16 26  1  0  0  0  0
 17 23  1  0  0  0  0
 19 20  1  1  0  0  0
 19 28  1  0  0  0  0
 21 22  1  0  0  0  0
 21 23  1  0  0  0  0
 22 24  1  0  0  0  0
 26 27  1  1  0  0  0
 26 29  1  0  0  0  0
 28  2  1  6  0  0  0
 28 31  1  0  0  0  0
 29 30  1  0  0  0  0
 29 33  1  6  0  0  0
 31 32  1  1  0  0  0
 31 35  1  0  0  0  0
 33 34  1  0  0  0  0
 35 36  1  6  0  0  0
M  END
>  <CHROM.1>
-179.87244297,-43.29017103,169.18334232,-175.62904019,172.96764906,-73.11434058
-75.57366314,162.19824676,170.13588817,-63.15137885,-73.07376202,37.82062431
178.67616397,42.99117427,43.84448930,4.54154919,4.51870870,-0.74703771,-0.07803872
1.75098797

>  <Name>
2f4u_lig

>  <RI>
0

>  <Rbt.Current_Directory>
/home/itssahil/PROJECTS/Mol_Feturizer/New_Systems/rnas/2f4u

>  <Rbt.Executable>
rbdock ($Id: //depot/dev/client3/rdock/2013.1/src/exe/rbdock.cxx#4 $)

>  <Rbt.Library>
libRbt.so (2013.1, Build901 2013/11/27)

>  <Rbt.Parameter_File>
/export/apps/rDock/src/rDock_2013.1_src/data/scripts/dock_solv.prm

>  <Rbt.Receptor>
prm/pocket_docking_8.prm

>  <SCORE>
-13.506

>  <SCORE.INTER>
-4.39394

>  <SCORE.INTER.CONST>
1

>  <SCORE.INTER.POLAR>
-0.635485

>  <SCORE.INTER.ROT>
14

>  <SCORE.INTER.SOLV>
10.0223

>  <SCORE.INTER.VDW>
-17.0851

>  <SCORE.INTER.norm>
-0.122054

>  <SCORE.INTRA>
-9.11211

>  <SCORE.INTRA.DIHEDRAL>
-18.7748

>  <SCORE.INTRA.DIHEDRAL.0>
26.3805

>  <SCORE.INTRA.POLAR>
0

>  <SCORE.INTRA.POLAR.0>
0

>  <SCORE.INTRA.REPUL>
0.0110619

>  <SCORE.INTRA.REPUL.0>
0

>  <SCORE.INTRA.SOLV>
2.71838

>  <SCORE.INTRA.SOLV.lig_0>
-98.5587

>  <SCORE.INTRA.VDW>
-1.13922

>  <SCORE.INTRA.VDW.0>
-2.91167

>  <SCORE.INTRA.norm>
-0.253114

>  <SCORE.RESTR>
0

>  <SCORE.RESTR.CAVITY>
0

>  <SCORE.RESTR.norm>
0

>  <SCORE.SYSTEM>
0

>  <SCORE.SYSTEM.CONST>
0

>  <SCORE.SYSTEM.DIHEDRAL>
0

>  <SCORE.SYSTEM.SOLV>
0

>  <SCORE.SYSTEM.norm>
0

>  <SCORE.heavy>
36

>  <SCORE.norm>
-0.375168

>  <RMSD>
8.649

$$$$
2f4u_lig
 OpenBabel11021811433D
libRbt.so/2013.1/901 2013/11/27
 36 37  0  0  0  0  0  0  0  0999 V2000
   38.1915    4.4762    9.0202 C   0  0  2  0  0  0  0  0  0  0  0  0
   37.6422    5.7514    8.5201 O   0  0  0  0  0  0  0  0  0  0  0  0
   38.8720    8.1541    5.1128 C   0  0  2  0  0  0  0  0  0  0  0  0
   39.6716    9.1003    4.2881 N   0  0  0  0  0  0  0  0  0  0  0  0
   36.9908    3.6698    9.6050 C   0  0  2  0  0  0  0  0  0  0  0  0
   35.9342    3.4200    8.6073 N   0  0  0  0  0  0  0  0  0  0  0  0
   38.3424    8.8317    6.4257 C   0  0  0  0  0  0  0  0  0  0  0  0
   38.7116   10.5388    3.8451 C   0  0  0  0  0  0  0  0  0  0  0  0
   39.8996   10.8982    3.0089 C   0  0  1  0  0  0  0  0  0  0  0  0
   39.3864   11.7228    1.8232 C   0  0  0  0  0  0  0  0  0  0  0  0
   38.8195   13.1125    2.1675 C   0  0  0  0  0  0  0  0  0  0  0  0
   38.0674   13.6079    1.0130 N   0  0  0  0  0  0  0  0  0  0  0  0
   40.7811   11.7071    3.7389 O   0  0  0  0  0  0  0  0  0  0  0  0
   40.9079    5.4923    3.3986 C   0  0  0  0  0  0  0  0  0  0  0  0
   42.3549    5.3880    3.8569 C   0  0  0  0  0  0  0  0  0  0  0  0
   36.4027    4.4536   10.8250 C   0  0  1  0  0  0  0  0  0  0  0  0
   42.9852    4.0823    3.5762 N   0  0  0  0  0  0  0  0  0  0  0  0
   35.2923    3.7617   11.3905 O   0  0  0  0  0  0  0  0  0  0  0  0
   37.5624    7.8282    7.2992 C   0  0  2  0  0  0  0  0  0  0  0  0
   37.1097    8.4459    8.5394 N   0  0  0  0  0  0  0  0  0  0  0  0
   44.3682    3.2479    5.4712 C   0  0  0  0  0  0  0  0  0  0  0  0
   44.3491    4.5182    6.3736 C   0  0  0  0  0  0  0  0  0  0  0  0
   43.0656    3.0593    4.6507 C   0  0  0  0  0  0  0  0  0  0  0  0
   45.6015    4.6494    7.1771 N   0  0  0  0  0  0  0  0  0  0  0  0
   37.7193   10.9052    4.0514 O   0  0  0  0  0  0  0  0  0  0  0  0
   37.5294    4.6503   11.8589 C   0  0  2  0  0  0  0  0  0  0  0  0
   37.0934    5.3670   13.0113 O   0  0  0  0  0  0  0  0  0  0  0  0
   38.4379    6.6420    7.6509 C   0  0  2  0  0  0  0  0  0  0  0  0
   38.7280    5.3842   11.2311 C   0  0  2  0  0  0  0  0  0  0  0  0
   39.1872    4.7047   10.0574 O   0  0  0  0  0  0  0  0  0  0  0  0
   38.9337    5.9297    6.3275 C   0  0  2  0  0  0  0  0  0  0  0  0
   39.7892    4.8025    6.6959 O   0  0  0  0  0  0  0  0  0  0  0  0
   39.8741    5.5150   12.1985 C   0  0  0  0  0  0  0  0  0  0  0  0
   40.9798    6.0387   11.5675 O   0  0  0  0  0  0  0  0  0  0  0  0
   39.7393    6.9629    5.4692 C   0  0  1  0  0  0  0  0  0  0  0  0
   40.2151    6.3998    4.2814 O   0  0  0  0  0  0  0  0  0  0  0  0
  1  2  1  1  0  0  0
  1  5  1  0  0  0  0
  1 30  1  0  0  0  0
  3  4  1  1  0  0  0
  3  7  1  0  0  0  0
  3 35  1  0  0  0  0
  5  6  1  6  0  0  0
  5 16  1  0  0  0  0
  7 19  1  0  0  0  0
  8  4  1  0  0  0  0
  8 25  2  0  0  0  0
  9  8  1  1  0  0  0
  9 10  1  0  0  0  0
  9 13  1  0  0  0  0
 10 11  1  0  0  0  0
 11 12  1  0  0  0  0
 14 15  1  0  0  0  0
 14 36  1  0  0  0  0
 15 17  1  0  0  0  0
 16 18  1  1  0  0  0
 16 26  1  0  0  0  0
 17 23  1  0  0  0  0
 19 20  1  1  0  0  0
 19 28  1  0  0  0  0
 21 22  1  0  0  0  0
 21 23  1  0  0  0  0
 22 24  1  0  0  0  0
 26 27  1  1  0  0  0
 26 29  1  0  0  0  0
 28  2  1  1  0  0  0
 28 31  1  0  0  0  0
 29 30  1  0  0  0  0
 29 33  1  1  0  0  0
 31 32  1  1  0  0  0
 31 35  1  0  0  0  0
 33 34  1  0  0  0  0
 35 36  1  6  0  0  0
M  END
>  <CHROM.1>
-167.07534033,-58.28140569,151.21563805,67.47689260,-165.29608752,149.75992509
-53.08554262,-98.27084102,-88.60911383,178.43986073,71.10615588,178.49172210
173.30311054,-177.83958977,39.43500116,6.74614827,6.81565228,1.76271424,-0.62300494
2.34050346

>  <Name>
2f4u_lig

>  <RI>
0

>  <Rbt.Current_Directory>
/home/itssahil/PROJECTS/Mol_Feturizer/New_Systems/rnas/2f4u

>  <Rbt.Executable>
rbdock ($Id: //depot/dev/client3/rdock/2013.1/src/exe/rbdock.cxx#4 $)

>  <Rbt.Library>
libRbt.so (2013.1, Build901 2013/11/27)

>  <Rbt.Parameter_File>
/export/apps/rDock/src/rDock_2013.1_src/data/scripts/dock_solv.prm

>  <Rbt.Receptor>
prm/pocket_docking_3.prm

>  <SCORE>
-10.0418

>  <SCORE.INTER>
-0.511979

>  <SCORE.INTER.CONST>
1

>  <SCORE.INTER.POLAR>
-0.87178

>  <SCORE.INTER.ROT>
14

>  <SCORE.INTER.SOLV>
14.0469

>  <SCORE.INTER.VDW>
-15.051

>  <SCORE.INTER.norm>
-0.0142216

>  <SCORE.INTRA>
-9.57764

>  <SCORE.INTRA.DIHEDRAL>
-18.0305

>  <SCORE.INTRA.DIHEDRAL.0>
26.3805

>  <SCORE.INTRA.POLAR>
0

>  <SCORE.INTRA.POLAR.0>
0

>  <SCORE.INTRA.REPUL>
0

>  <SCORE.INTRA.REPUL.0>
0

>  <SCORE.INTRA.SOLV>
-0.727566

>  <SCORE.INTRA.SOLV.lig_0>
-98.5587

>  <SCORE.INTRA.VDW>
-0.198586

>  <SCORE.INTRA.VDW.0>
-2.91167

>  <SCORE.INTRA.norm>
-0.266046

>  <SCORE.RESTR>
0.0478572

>  <SCORE.RESTR.CAVITY>
0.0478572

>  <SCORE.RESTR.norm>
0.00132937

>  <SCORE.SYSTEM>
0

>  <SCORE.SYSTEM.CONST>
0

>  <SCORE.SYSTEM.DIHEDRAL>
0

>  <SCORE.SYSTEM.SOLV>
0

>  <SCORE.SYSTEM.norm>
0

>  <SCORE.heavy>
36

>  <SCORE.norm>
-0.278938

>  <RMSD>
8.664

$$$$
2f4u_lig
 OpenBabel11021811433D
libRbt.so/2013.1/901 2013/11/27
 36 37  0  0  0  0  0  0  0  0999 V2000
   44.5914    2.7660    8.2559 C   0  0  2  0  0  0  0  0  0  0  0  0
   44.2336    3.9882    7.5102 O   0  0  0  0  0  0  0  0  0  0  0  0
   40.5104    6.2135    7.2265 C   0  0  2  0  0  0  0  0  0  0  0  0
   39.1034    6.5400    6.8679 N   0  0  0  0  0  0  0  0  0  0  0  0
   46.0797    2.4500    7.9106 C   0  0  2  0  0  0  0  0  0  0  0  0
   46.9914    3.5542    8.2627 N   0  0  0  0  0  0  0  0  0  0  0  0
   41.3884    5.9490    5.9528 C   0  0  0  0  0  0  0  0  0  0  0  0
   38.9927    8.1412    6.0861 C   0  0  0  0  0  0  0  0  0  0  0  0
   37.5149    7.9172    6.1602 C   0  0  1  0  0  0  0  0  0  0  0  0
   36.8418    9.2884    6.0335 C   0  0  0  0  0  0  0  0  0  0  0  0
   36.9843    9.9821    4.6661 C   0  0  0  0  0  0  0  0  0  0  0  0
   38.2323   10.7480    4.6601 N   0  0  0  0  0  0  0  0  0  0  0  0
   37.0873    7.1328    5.0803 O   0  0  0  0  0  0  0  0  0  0  0  0
   39.0482    5.0437   10.4913 C   0  0  0  0  0  0  0  0  0  0  0  0
   38.1382    6.2347   10.7524 C   0  0  0  0  0  0  0  0  0  0  0  0
   46.1868    2.1319    6.3822 C   0  0  1  0  0  0  0  0  0  0  0  0
   37.0459    6.3875    9.7703 N   0  0  0  0  0  0  0  0  0  0  0  0
   47.5332    1.8462    6.0123 O   0  0  0  0  0  0  0  0  0  0  0  0
   42.8299    5.5576    6.3369 C   0  0  2  0  0  0  0  0  0  0  0  0
   43.6326    5.2679    5.1553 N   0  0  0  0  0  0  0  0  0  0  0  0
   34.9473    7.4317   10.6104 C   0  0  0  0  0  0  0  0  0  0  0  0
   33.9917    6.3447   10.0328 C   0  0  0  0  0  0  0  0  0  0  0  0
   36.2320    7.6305    9.7644 C   0  0  0  0  0  0  0  0  0  0  0  0
   33.4781    6.7167    8.6802 N   0  0  0  0  0  0  0  0  0  0  0  0
   39.6866    8.9077    5.7819 O   0  0  0  0  0  0  0  0  0  0  0  0
   45.2535    0.9448    6.0713 C   0  0  2  0  0  0  0  0  0  0  0  0
   45.2730    0.5818    4.6931 O   0  0  0  0  0  0  0  0  0  0  0  0
   42.8251    4.3271    7.2218 C   0  0  2  0  0  0  0  0  0  0  0  0
   43.8063    1.2604    6.4902 C   0  0  2  0  0  0  0  0  0  0  0  0
   43.7444    1.6475    7.8674 O   0  0  0  0  0  0  0  0  0  0  0  0
   41.9789    4.6092    8.5290 C   0  0  2  0  0  0  0  0  0  0  0  0
   41.9764    3.4017    9.3537 O   0  0  0  0  0  0  0  0  0  0  0  0
   42.8910    0.0852    6.2725 C   0  0  0  0  0  0  0  0  0  0  0  0
   43.2481   -0.9619    7.0917 O   0  0  0  0  0  0  0  0  0  0  0  0
   40.5161    4.9837    8.1129 C   0  0  1  0  0  0  0  0  0  0  0  0
   39.7056    5.2427    9.2221 O   0  0  0  0  0  0  0  0  0  0  0  0
  1  2  1  6  0  0  0
  1  5  1  0  0  0  0
  1 30  1  0  0  0  0
  3  4  1  6  0  0  0
  3  7  1  0  0  0  0
  3 35  1  0  0  0  0
  5  6  1  6  0  0  0
  5 16  1  0  0  0  0
  7 19  1  0  0  0  0
  8  4  1  0  0  0  0
  8 25  2  0  0  0  0
  9  8  1  6  0  0  0
  9 10  1  0  0  0  0
  9 13  1  0  0  0  0
 10 11  1  0  0  0  0
 11 12  1  0  0  0  0
 14 15  1  0  0  0  0
 14 36  1  0  0  0  0
 15 17  1  0  0  0  0
 16 18  1  1  0  0  0
 16 26  1  0  0  0  0
 17 23  1  0  0  0  0
 19 20  1  6  0  0  0
 19 28  1  0  0  0  0
 21 22  1  0  0  0  0
 21 23  1  0  0  0  0
 22 24  1  0  0  0  0
 26 27  1  6  0  0  0
 26 29  1  0  0  0  0
 28  2  1  1  0  0  0
 28 31  1  0  0  0  0
 29 30  1  0  0  0  0
 29 33  1  1  0  0  0
 31 32  1  1  0  0  0
 31 35  1  0  0  0  0
 33 34  1  0  0  0  0
 35 36  1  1  0  0  0
M  END
>  <CHROM.1>
158.93557448,-69.51333256,160.02544634,67.30853121,-86.99961543,63.13849964
-176.82128689,-169.38368186,-94.67286387,-62.89585355,-63.69528071,-174.65335743
64.94481098,-175.99643875,40.92294810,4.96754504,7.36675912,0.35943012,-0.51812442
2.38456472

>  <Name>
2f4u_lig

>  <RI>
0

>  <Rbt.Current_Directory>
/home/itssahil/PROJECTS/Mol_Feturizer/New_Systems/rnas/2f4u

>  <Rbt.Executable>
rbdock ($Id: //depot/dev/client3/rdock/2013.1/src/exe/rbdock.cxx#4 $)

>  <Rbt.Library>
libRbt.so (2013.1, Build901 2013/11/27)

>  <Rbt.Parameter_File>
/export/apps/rDock/src/rDock_2013.1_src/data/scripts/dock_solv.prm

>  <Rbt.Receptor>
prm/pocket_docking_6.prm

>  <SCORE>
-12.3241

>  <SCORE.INTER>
-4.10172

>  <SCORE.INTER.CONST>
1

>  <SCORE.INTER.POLAR>
-2.12464

>  <SCORE.INTER.ROT>
14

>  <SCORE.INTER.SOLV>
14.2873

>  <SCORE.INTER.VDW>
-13.3481

>  <SCORE.INTER.norm>
-0.113937

>  <SCORE.INTRA>
-8.22238

>  <SCORE.INTRA.DIHEDRAL>
-19.3529

>  <SCORE.INTRA.DIHEDRAL.0>
26.3805

>  <SCORE.INTRA.POLAR>
0

>  <SCORE.INTRA.POLAR.0>
0

>  <SCORE.INTRA.REPUL>
0

>  <SCORE.INTRA.REPUL.0>
0

>  <SCORE.INTRA.SOLV>
5.33952

>  <SCORE.INTRA.SOLV.lig_0>
-98.5587

>  <SCORE.INTRA.VDW>
-1.21567

>  <SCORE.INTRA.VDW.0>
-2.91167

>  <SCORE.INTRA.norm>
-0.2284

>  <SCORE.RESTR>
0

>  <SCORE.RESTR.CAVITY>
0

>  <SCORE.RESTR.norm>
0

>  <SCORE.SYSTEM>
0

>  <SCORE.SYSTEM.CONST>
0

>  <SCORE.SYSTEM.DIHEDRAL>
0

>  <SCORE.SYSTEM.SOLV>
0

>  <SCORE.SYSTEM.norm>
0

>  <SCORE.heavy>
36

>  <SCORE.norm>
-0.342336

>  <RMSD>
8.671

$$$$
2f4u_lig
 OpenBabel11021811433D
libRbt.so/2013.1/901 2013/11/27
 36 37  0  0  0  0  0  0  0  0999 V2000
   44.6236    2.5920    8.2336 C   0  0  2  0  0  0  0  0  0  0  0  0
   44.3293    3.7922    7.4270 O   0  0  0  0  0  0  0  0  0  0  0  0
   40.8443    6.3901    7.4641 C   0  0  2  0  0  0  0  0  0  0  0  0
   39.4559    6.8665    7.2186 N   0  0  0  0  0  0  0  0  0  0  0  0
   46.1466    2.2997    8.0628 C   0  0  2  0  0  0  0  0  0  0  0  0
   46.9933    3.4286    8.4904 N   0  0  0  0  0  0  0  0  0  0  0  0
   41.5947    6.0700    6.1234 C   0  0  0  0  0  0  0  0  0  0  0  0
   39.4156    8.0929    5.9217 C   0  0  0  0  0  0  0  0  0  0  0  0
   37.9707    8.2263    6.2882 C   0  0  1  0  0  0  0  0  0  0  0  0
   37.3787    9.3290    5.4033 C   0  0  0  0  0  0  0  0  0  0  0  0
   37.3926    9.0535    3.8883 C   0  0  0  0  0  0  0  0  0  0  0  0
   36.7872   10.1962    3.2014 N   0  0  0  0  0  0  0  0  0  0  0  0
   37.2848    7.0380    6.0018 O   0  0  0  0  0  0  0  0  0  0  0  0
   38.9972    5.8300   10.3598 C   0  0  0  0  0  0  0  0  0  0  0  0
   39.5119    5.8909   11.7902 C   0  0  0  0  0  0  0  0  0  0  0  0
   46.4292    1.9547    6.5629 C   0  0  1  0  0  0  0  0  0  0  0  0
   38.4511    6.0229   12.8092 N   0  0  0  0  0  0  0  0  0  0  0  0
   47.8134    1.6892    6.3511 O   0  0  0  0  0  0  0  0  0  0  0  0
   43.0125    5.5249    6.3907 C   0  0  2  0  0  0  0  0  0  0  0  0
   43.6922    5.1851    5.1470 N   0  0  0  0  0  0  0  0  0  0  0  0
   36.3281    7.0592   12.0226 C   0  0  0  0  0  0  0  0  0  0  0  0
   35.3206    6.0682   12.6793 C   0  0  0  0  0  0  0  0  0  0  0  0
   37.6235    7.2561   12.8526 C   0  0  0  0  0  0  0  0  0  0  0  0
   35.8300    4.6641   12.6633 N   0  0  0  0  0  0  0  0  0  0  0  0
   40.1328    8.5452    5.2566 O   0  0  0  0  0  0  0  0  0  0  0  0
   45.5579    0.7431    6.1755 C   0  0  2  0  0  0  0  0  0  0  0  0
   45.7375    0.3543    4.8160 O   0  0  0  0  0  0  0  0  0  0  0  0
   42.9458    4.2793    7.2517 C   0  0  2  0  0  0  0  0  0  0  0  0
   44.0675    1.0373    6.4241 C   0  0  2  0  0  0  0  0  0  0  0  0
   43.8455    1.4493    7.7773 O   0  0  0  0  0  0  0  0  0  0  0  0
   42.2313    4.6129    8.6238 C   0  0  2  0  0  0  0  0  0  0  0  0
   42.1648    3.3915    9.4250 O   0  0  0  0  0  0  0  0  0  0  0  0
   43.2036   -0.1601    6.1310 C   0  0  0  0  0  0  0  0  0  0  0  0
   41.8849    0.1164    6.4134 O   0  0  0  0  0  0  0  0  0  0  0  0
   40.7883    5.1442    8.3259 C   0  0  1  0  0  0  0  0  0  0  0  0
   40.0923    5.4560    9.4975 O   0  0  0  0  0  0  0  0  0  0  0  0
  1  2  1  6  0  0  0
  1  5  1  0  0  0  0
  1 30  1  0  0  0  0
  3  4  1  6  0  0  0
  3  7  1  0  0  0  0
  3 35  1  0  0  0  0
  5  6  1  6  0  0  0
  5 16  1  0  0  0  0
  7 19  1  0  0  0  0
  8  4  1  0  0  0  0
  8 25  2  0  0  0  0
  9  8  1  6  0  0  0
  9 10  1  0  0  0  0
  9 13  1  0  0  0  0
 10 11  1  0  0  0  0
 11 12  1  0  0  0  0
 14 15  1  0  0  0  0
 14 36  1  0  0  0  0
 15 17  1  0  0  0  0
 16 18  1  1  0  0  0
 16 26  1  0  0  0  0
 17 23  1  0  0  0  0
 19 20  1  6  0  0  0
 19 28  1  0  0  0  0
 21 22  1  0  0  0  0
 21 23  1  0  0  0  0
 22 24  1  0  0  0  0
 26 27  1  6  0  0  0
 26 29  1  0  0  0  0
 28  2  1  1  0  0  0
 28 31  1  0  0  0  0
 29 30  1  0  0  0  0
 29 33  1  1  0  0  0
 31 32  1  1  0  0  0
 31 35  1  0  0  0  0
 33 34  1  0  0  0  0
 35 36  1  1  0  0  0
M  END
>  <CHROM.1>
173.97274085,-45.86419811,177.77968330,62.69954303,179.63746992,-169.52264667
-179.29072305,-65.39787530,93.44926501,-68.88371667,70.25015171,179.32702267
177.58509519,65.75469371,41.28703277,4.83646740,7.75458677,0.05709388,-0.65768413
2.01821384

>  <Name>
2f4u_lig

>  <RI>
0

>  <Rbt.Current_Directory>
/home/itssahil/PROJECTS/Mol_Feturizer/New_Systems/rnas/2f4u

>  <Rbt.Executable>
rbdock ($Id: //depot/dev/client3/rdock/2013.1/src/exe/rbdock.cxx#4 $)

>  <Rbt.Library>
libRbt.so (2013.1, Build901 2013/11/27)

>  <Rbt.Parameter_File>
/export/apps/rDock/src/rDock_2013.1_src/data/scripts/dock_solv.prm

>  <Rbt.Receptor>
prm/pocket_docking_4.prm

>  <SCORE>
-12.2306

>  <SCORE.INTER>
-2.73523

>  <SCORE.INTER.CONST>
1

>  <SCORE.INTER.POLAR>
-1.0749

>  <SCORE.INTER.ROT>
14

>  <SCORE.INTER.SOLV>
15.4961

>  <SCORE.INTER.VDW>
-16.3392

>  <SCORE.INTER.norm>
-0.0759786

>  <SCORE.INTRA>
-9.49733

>  <SCORE.INTRA.DIHEDRAL>
-23.1911

>  <SCORE.INTRA.DIHEDRAL.0>
26.3805

>  <SCORE.INTRA.POLAR>
0

>  <SCORE.INTRA.POLAR.0>
0

>  <SCORE.INTRA.REPUL>
0

>  <SCORE.INTRA.REPUL.0>
0

>  <SCORE.INTRA.SOLV>
2.38289

>  <SCORE.INTRA.SOLV.lig_0>
-98.5587

>  <SCORE.INTRA.VDW>
0.906795

>  <SCORE.INTRA.VDW.0>
-2.91167

>  <SCORE.INTRA.norm>
-0.263815

>  <SCORE.RESTR>
0.00198192

>  <SCORE.RESTR.CAVITY>
0.00198192

>  <SCORE.RESTR.norm>
5.50534e-05

>  <SCORE.SYSTEM>
0

>  <SCORE.SYSTEM.CONST>
0

>  <SCORE.SYSTEM.DIHEDRAL>
0

>  <SCORE.SYSTEM.SOLV>
0

>  <SCORE.SYSTEM.norm>
0

>  <SCORE.heavy>
36

>  <SCORE.norm>
-0.339738

>  <RMSD>
8.692

$$$$
2f4u_lig
 OpenBabel11021811433D
libRbt.so/2013.1/901 2013/11/27
 36 37  0  0  0  0  0  0  0  0999 V2000
   45.6125    4.1909    6.4304 C   0  0  2  0  0  0  0  0  0  0  0  0
   45.2748    4.4108    5.0107 O   0  0  0  0  0  0  0  0  0  0  0  0
   41.6603    6.8172    5.2093 C   0  0  2  0  0  0  0  0  0  0  0  0
   40.4415    7.5446    4.7618 N   0  0  0  0  0  0  0  0  0  0  0  0
   47.1091    3.7520    6.4722 C   0  0  2  0  0  0  0  0  0  0  0  0
   48.0120    4.7542    5.8768 N   0  0  0  0  0  0  0  0  0  0  0  0
   42.9540    7.3651    4.5096 C   0  0  0  0  0  0  0  0  0  0  0  0
   39.5492    8.2225    6.1516 C   0  0  0  0  0  0  0  0  0  0  0  0
   38.5207    8.5916    5.1289 C   0  0  1  0  0  0  0  0  0  0  0  0
   37.1766    8.0415    5.6191 C   0  0  0  0  0  0  0  0  0  0  0  0
   36.5975    8.7100    6.8797 C   0  0  0  0  0  0  0  0  0  0  0  0
   35.4099    7.9631    7.2992 N   0  0  0  0  0  0  0  0  0  0  0  0
   38.4021    9.9852    5.0397 O   0  0  0  0  0  0  0  0  0  0  0  0
   39.3000    3.9857    5.9650 C   0  0  0  0  0  0  0  0  0  0  0  0
   39.9329    3.0052    6.9410 C   0  0  0  0  0  0  0  0  0  0  0  0
   47.2555    2.3856    5.7238 C   0  0  1  0  0  0  0  0  0  0  0  0
   39.0278    1.9266    7.3865 N   0  0  0  0  0  0  0  0  0  0  0  0
   48.6109    1.9448    5.7242 O   0  0  0  0  0  0  0  0  0  0  0  0
   44.2033    6.5686    4.9381 C   0  0  2  0  0  0  0  0  0  0  0  0
   45.3974    7.0482    4.2537 N   0  0  0  0  0  0  0  0  0  0  0  0
   38.5954    2.2886    9.8118 C   0  0  0  0  0  0  0  0  0  0  0  0
   38.6948    1.7235   11.2605 C   0  0  0  0  0  0  0  0  0  0  0  0
   39.1951    1.3399    8.7413 C   0  0  0  0  0  0  0  0  0  0  0  0
   38.0772    2.6446   12.2612 N   0  0  0  0  0  0  0  0  0  0  0  0
   39.6886    8.2649    7.2194 O   0  0  0  0  0  0  0  0  0  0  0  0
   46.3298    1.3603    6.4087 C   0  0  2  0  0  0  0  0  0  0  0  0
   46.3848    0.0772    5.7904 O   0  0  0  0  0  0  0  0  0  0  0  0
   44.0286    5.0981    4.6153 C   0  0  2  0  0  0  0  0  0  0  0  0
   44.8724    1.8558    6.4156 C   0  0  2  0  0  0  0  0  0  0  0  0
   44.7752    3.1529    7.0142 O   0  0  0  0  0  0  0  0  0  0  0  0
   42.7507    4.5334    5.3588 C   0  0  2  0  0  0  0  0  0  0  0  0
   42.5966    3.1205    5.0154 O   0  0  0  0  0  0  0  0  0  0  0  0
   43.9624    0.9095    7.1522 C   0  0  0  0  0  0  0  0  0  0  0  0
   42.6488    1.2961    7.0109 O   0  0  0  0  0  0  0  0  0  0  0  0
   41.4948    5.3442    4.8914 C   0  0  1  0  0  0  0  0  0  0  0  0
   40.3224    4.8952    5.5061 O   0  0  0  0  0  0  0  0  0  0  0  0
  1  2  1  6  0  0  0
  1  5  1  0  0  0  0
  1 30  1  0  0  0  0
  3  4  1  6  0  0  0
  3  7  1  0  0  0  0
  3 35  1  0  0  0  0
  5  6  1  6  0  0  0
  5 16  1  0  0  0  0
  7 19  1  0  0  0  0
  8  4  1  0  0  0  0
  8 25  2  0  0  0  0
  9  8  1  1  0  0  0
  9 10  1  0  0  0  0
  9 13  1  0  0  0  0
 10 11  1  0  0  0  0
 11 12  1  0  0  0  0
 14 15  1  0  0  0  0
 14 36  1  0  0  0  0
 15 17  1  0  0  0  0
 16 18  1  1  0  0  0
 16 26  1  0  0  0  0
 17 23  1  0  0  0  0
 19 20  1  6  0  0  0
 19 28  1  0  0  0  0
 21 22  1  0  0  0  0
 21 23  1  0  0  0  0
 22 24  1  0  0  0  0
 26 27  1  6  0  0  0
 26 29  1  0  0  0  0
 28  2  1  1  0  0  0
 28 31  1  0  0  0  0
 29 30  1  0  0  0  0
 29 33  1  1  0  0  0
 31 32  1  6  0  0  0
 31 35  1  0  0  0  0
 33 34  1  0  0  0  0
 35 36  1  1  0  0  0
M  END
>  <CHROM.1>
-167.25166973,-124.67535778,127.50681772,67.95418728,-173.15563344,-174.06584278
62.25162147,-149.58372105,77.85156202,-178.52361800,178.32865647,72.79832634
-173.08765953,-173.35128400,42.08705751,4.55596847,6.38507683,-0.36734363
0.34456640,-0.52225321

>  <Name>
2f4u_lig

>  <RI>
0

>  <Rbt.Current_Directory>
/home/itssahil/PROJECTS/Mol_Feturizer/New_Systems/rnas/2f4u

>  <Rbt.Executable>
rbdock ($Id: //depot/dev/client3/rdock/2013.1/src/exe/rbdock.cxx#4 $)

>  <Rbt.Library>
libRbt.so (2013.1, Build901 2013/11/27)

>  <Rbt.Parameter_File>
/export/apps/rDock/src/rDock_2013.1_src/data/scripts/dock_solv.prm

>  <Rbt.Receptor>
prm/pocket_docking_4.prm

>  <SCORE>
-12.8563

>  <SCORE.INTER>
-2.08737

>  <SCORE.INTER.CONST>
1

>  <SCORE.INTER.POLAR>
-1.07277

>  <SCORE.INTER.ROT>
14

>  <SCORE.INTER.SOLV>
15.2122

>  <SCORE.INTER.VDW>
-15.8197

>  <SCORE.INTER.norm>
-0.0579825

>  <SCORE.INTRA>
-10.7689

>  <SCORE.INTRA.DIHEDRAL>
-19.4506

>  <SCORE.INTRA.DIHEDRAL.0>
26.3805

>  <SCORE.INTRA.POLAR>
0

>  <SCORE.INTRA.POLAR.0>
0

>  <SCORE.INTRA.REPUL>
0

>  <SCORE.INTRA.REPUL.0>
0

>  <SCORE.INTRA.SOLV>
1.57728

>  <SCORE.INTRA.SOLV.lig_0>
-98.5587

>  <SCORE.INTRA.VDW>
-1.83227

>  <SCORE.INTRA.VDW.0>
-2.91167

>  <SCORE.INTRA.norm>
-0.299136

>  <SCORE.RESTR>
0

>  <SCORE.RESTR.CAVITY>
0

>  <SCORE.RESTR.norm>
0

>  <SCORE.SYSTEM>
0

>  <SCORE.SYSTEM.CONST>
0

>  <SCORE.SYSTEM.DIHEDRAL>
0

>  <SCORE.SYSTEM.SOLV>
0

>  <SCORE.SYSTEM.norm>
0

>  <SCORE.heavy>
36

>  <SCORE.norm>
-0.357119

>  <RMSD>
8.695

$$$$
2f4u_lig
 OpenBabel11021811433D
libRbt.so/2013.1/901 2013/11/27
 36 37  0  0  0  0  0  0  0  0999 V2000
   45.3747    5.5456    4.9545 C   0  0  2  0  0  0  0  0  0  0  0  0
   44.4894    4.6170    5.6837 O   0  0  0  0  0  0  0  0  0  0  0  0
   40.8515    4.9882    8.0338 C   0  0  2  0  0  0  0  0  0  0  0  0
   39.9070    5.4731    9.0767 N   0  0  0  0  0  0  0  0  0  0  0  0
   46.0213    4.7291    3.7929 C   0  0  2  0  0  0  0  0  0  0  0  0
   45.0193    4.1484    2.8802 N   0  0  0  0  0  0  0  0  0  0  0  0
   42.1600    4.3948    8.6653 C   0  0  0  0  0  0  0  0  0  0  0  0
   40.7699    6.3531   10.3683 C   0  0  0  0  0  0  0  0  0  0  0  0
   39.4353    6.3807   11.0450 C   0  0  1  0  0  0  0  0  0  0  0  0
   39.6938    6.4294   12.5550 C   0  0  0  0  0  0  0  0  0  0  0  0
   38.4430    6.3808   13.4519 C   0  0  0  0  0  0  0  0  0  0  0  0
   37.7954    5.0791   13.2779 N   0  0  0  0  0  0  0  0  0  0  0  0
   38.7373    7.5449   10.6960 O   0  0  0  0  0  0  0  0  0  0  0  0
   39.1380    7.4203    5.7385 C   0  0  0  0  0  0  0  0  0  0  0  0
   39.6786    8.8377    5.6220 C   0  0  0  0  0  0  0  0  0  0  0  0
   46.9097    3.5961    4.4058 C   0  0  1  0  0  0  0  0  0  0  0  0
   38.6793    9.8314    5.1805 N   0  0  0  0  0  0  0  0  0  0  0  0
   47.5165    2.8117    3.3821 O   0  0  0  0  0  0  0  0  0  0  0  0
   43.1550    3.9461    7.5756 C   0  0  2  0  0  0  0  0  0  0  0  0
   44.3884    3.4372    8.1621 N   0  0  0  0  0  0  0  0  0  0  0  0
   37.3439   10.4356    3.1677 C   0  0  0  0  0  0  0  0  0  0  0  0
   36.6397    9.0459    3.1316 C   0  0  0  0  0  0  0  0  0  0  0  0
   38.7567   10.3905    3.8061 C   0  0  0  0  0  0  0  0  0  0  0  0
   35.3442    9.0972    2.3897 N   0  0  0  0  0  0  0  0  0  0  0  0
   41.7884    6.6468   10.5626 O   0  0  0  0  0  0  0  0  0  0  0  0
   47.9684    4.2531    5.3139 C   0  0  2  0  0  0  0  0  0  0  0  0
   48.8273    3.2971    5.9305 O   0  0  0  0  0  0  0  0  0  0  0  0
   43.5044    5.1089    6.6684 C   0  0  2  0  0  0  0  0  0  0  0  0
   47.3004    5.1096    6.4045 C   0  0  2  0  0  0  0  0  0  0  0  0
   46.4136    6.0740    5.8269 O   0  0  0  0  0  0  0  0  0  0  0  0
   42.1903    5.6776    5.9944 C   0  0  2  0  0  0  0  0  0  0  0  0
   42.5544    6.8075    5.1407 O   0  0  0  0  0  0  0  0  0  0  0  0
   48.3155    5.8276    7.2532 C   0  0  0  0  0  0  0  0  0  0  0  0
   48.9309    6.8237    6.5292 O   0  0  0  0  0  0  0  0  0  0  0  0
   41.2065    6.1446    7.1201 C   0  0  1  0  0  0  0  0  0  0  0  0
   40.0199    6.6658    6.5962 O   0  0  0  0  0  0  0  0  0  0  0  0
  1  2  1  1  0  0  0
  1  5  1  0  0  0  0
  1 30  1  0  0  0  0
  3  4  1  1  0  0  0
  3  7  1  0  0  0  0
  3 35  1  0  0  0  0
  5  6  1  6  0  0  0
  5 16  1  0  0  0  0
  7 19  1  0  0  0  0
  8  4  1  0  0  0  0
  8 25  2  0  0  0  0
  9  8  1  6  0  0  0
  9 10  1  0  0  0  0
  9 13  1  0  0  0  0
 10 11  1  0  0  0  0
 11 12  1  0  0  0  0
 14 15  1  0  0  0  0
 14 36  1  0  0  0  0
 15 17  1  0  0  0  0
 16 18  1  6  0  0  0
 16 26  1  0  0  0  0
 17 23  1  0  0  0  0
 19 20  1  1  0  0  0
 19 28  1  0  0  0  0
 21 22  1  0  0  0  0
 21 23  1  0  0  0  0
 22 24  1  0  0  0  0
 26 27  1  1  0  0  0
 26 29  1  0  0  0  0
 28  2  1  6  0  0  0
 28 31  1  0  0  0  0
 29 30  1  0  0  0  0
 29 33  1  6  0  0  0
 31 32  1  6  0  0  0
 31 35  1  0  0  0  0
 33 34  1  0  0  0  0
 35 36  1  6  0  0  0
M  END
>  <CHROM.1>
-167.12427826,42.24015661,151.77500874,-176.56273864,65.15543712,-160.04424034
-48.44591431,-107.42791497,136.17685637,-174.25274390,-56.68275459,-159.16302451
70.21933221,-165.05310697,42.40959588,6.10110329,6.83307963,0.14608068,0.40619969
-1.30008539

>  <Name>
2f4u_lig

>  <RI>
0

>  <Rbt.Current_Directory>
/home/itssahil/PROJECTS/Mol_Feturizer/New_Systems/rnas/2f4u

>  <Rbt.Executable>
rbdock ($Id: //depot/dev/client3/rdock/2013.1/src/exe/rbdock.cxx#4 $)

>  <Rbt.Library>
libRbt.so (2013.1, Build901 2013/11/27)

>  <Rbt.Parameter_File>
/export/apps/rDock/src/rDock_2013.1_src/data/scripts/dock_solv.prm

>  <Rbt.Receptor>
prm/pocket_docking_5.prm

>  <SCORE>
-24.0167

>  <SCORE.INTER>
-15.6292

>  <SCORE.INTER.CONST>
1

>  <SCORE.INTER.POLAR>
-1.88214

>  <SCORE.INTER.ROT>
14

>  <SCORE.INTER.SOLV>
24.553

>  <SCORE.INTER.VDW>
-25.2633

>  <SCORE.INTER.norm>
-0.434144

>  <SCORE.INTRA>
-8.43273

>  <SCORE.INTRA.DIHEDRAL>
-16.1319

>  <SCORE.INTRA.DIHEDRAL.0>
26.3805

>  <SCORE.INTRA.POLAR>
0

>  <SCORE.INTRA.POLAR.0>
0

>  <SCORE.INTRA.REPUL>
0

>  <SCORE.INTRA.REPUL.0>
0

>  <SCORE.INTRA.SOLV>
1.2016

>  <SCORE.INTRA.SOLV.lig_0>
-98.5587

>  <SCORE.INTRA.VDW>
-0.9676

>  <SCORE.INTRA.VDW.0>
-2.91167

>  <SCORE.INTRA.norm>
-0.234242

>  <SCORE.RESTR>
0.0451874

>  <SCORE.RESTR.CAVITY>
0.0451874

>  <SCORE.RESTR.norm>
0.0012552

>  <SCORE.SYSTEM>
0

>  <SCORE.SYSTEM.CONST>
0

>  <SCORE.SYSTEM.DIHEDRAL>
0

>  <SCORE.SYSTEM.SOLV>
0

>  <SCORE.SYSTEM.norm>
0

>  <SCORE.heavy>
36

>  <SCORE.norm>
-0.667131

>  <RMSD>
8.695

$$$$
2f4u_lig
 OpenBabel11021811433D
libRbt.so/2013.1/901 2013/11/27
 36 37  0  0  0  0  0  0  0  0999 V2000
   36.2580    9.3507    6.1379 C   0  0  2  0  0  0  0  0  0  0  0  0
   36.3797    8.4122    7.2703 O   0  0  0  0  0  0  0  0  0  0  0  0
   35.0758    8.3325   11.4162 C   0  0  2  0  0  0  0  0  0  0  0  0
   34.8571    8.7777   12.8194 N   0  0  0  0  0  0  0  0  0  0  0  0
   35.5659    8.5677    4.9795 C   0  0  2  0  0  0  0  0  0  0  0  0
   34.2410    8.0440    5.3597 N   0  0  0  0  0  0  0  0  0  0  0  0
   36.6017    8.2870   11.0519 C   0  0  0  0  0  0  0  0  0  0  0  0
   34.7852    7.3845   13.9335 C   0  0  0  0  0  0  0  0  0  0  0  0
   34.4218    8.4083   14.9629 C   0  0  1  0  0  0  0  0  0  0  0  0
   33.6851    7.6759   16.0900 C   0  0  0  0  0  0  0  0  0  0  0  0
   33.4327    8.4945   17.3696 C   0  0  0  0  0  0  0  0  0  0  0  0
   32.5226    9.5951   17.0465 N   0  0  0  0  0  0  0  0  0  0  0  0
   35.5788    8.9778   15.5117 O   0  0  0  0  0  0  0  0  0  0  0  0
   31.7309    8.8741   11.3445 C   0  0  0  0  0  0  0  0  0  0  0  0
   31.5137    7.4423   10.8782 C   0  0  0  0  0  0  0  0  0  0  0  0
   36.5000    7.3935    4.5352 C   0  0  1  0  0  0  0  0  0  0  0  0
   30.9529    6.5485   11.9116 N   0  0  0  0  0  0  0  0  0  0  0  0
   35.9065    6.6379    3.4826 O   0  0  0  0  0  0  0  0  0  0  0  0
   36.8148    7.8781    9.5802 C   0  0  2  0  0  0  0  0  0  0  0  0
   38.2295    7.8800    9.2297 N   0  0  0  0  0  0  0  0  0  0  0  0
   31.3528    4.6005   13.4100 C   0  0  0  0  0  0  0  0  0  0  0  0
   32.2862    3.9235   14.4581 C   0  0  0  0  0  0  0  0  0  0  0  0
   31.8391    6.0074   12.9743 C   0  0  0  0  0  0  0  0  0  0  0  0
   31.7121    2.6432   14.9704 N   0  0  0  0  0  0  0  0  0  0  0  0
   34.8928    6.3155   13.8498 O   0  0  0  0  0  0  0  0  0  0  0  0
   37.8538    7.9925    4.1043 C   0  0  2  0  0  0  0  0  0  0  0  0
   38.7836    6.9956    3.6878 O   0  0  0  0  0  0  0  0  0  0  0  0
   36.0946    8.8390    8.6554 C   0  0  2  0  0  0  0  0  0  0  0  0
   38.4759    8.8188    5.2444 C   0  0  2  0  0  0  0  0  0  0  0  0
   37.5652    9.8231    5.7050 O   0  0  0  0  0  0  0  0  0  0  0  0
   34.5481    8.8498    8.9911 C   0  0  2  0  0  0  0  0  0  0  0  0
   33.8826    9.7969    8.0978 O   0  0  0  0  0  0  0  0  0  0  0  0
   39.7590    9.4818    4.8201 C   0  0  0  0  0  0  0  0  0  0  0  0
   40.7115    8.5364    4.5134 O   0  0  0  0  0  0  0  0  0  0  0  0
   34.3580    9.2875   10.4829 C   0  0  1  0  0  0  0  0  0  0  0  0
   33.0098    9.3247   10.8506 O   0  0  0  0  0  0  0  0  0  0  0  0
  1  2  1  1  0  0  0
  1  5  1  0  0  0  0
  1 30  1  0  0  0  0
  3  4  1  1  0  0  0
  3  7  1  0  0  0  0
  3 35  1  0  0  0  0
  5  6  1  1  0  0  0
  5 16  1  0  0  0  0
  7 19  1  0  0  0  0
  8  4  1  0  0  0  0
  8 25  2  0  0  0  0
  9  8  1  6  0  0  0
  9 10  1  0  0  0  0
  9 13  1  0  0  0  0
 10 11  1  0  0  0  0
 11 12  1  0  0  0  0
 14 15  1  0  0  0  0
 14 36  1  0  0  0  0
 15 17  1  0  0  0  0
 16 18  1  6  0  0  0
 16 26  1  0  0  0  0
 17 23  1  0  0  0  0
 19 20  1  6  0  0  0
 19 28  1  0  0  0  0
 21 22  1  0  0  0  0
 21 23  1  0  0  0  0
 22 24  1  0  0  0  0
 26 27  1  1  0  0  0
 26 29  1  0  0  0  0
 28  2  1  6  0  0  0
 28 31  1  0  0  0  0
 29 30  1  0  0  0  0
 29 33  1  6  0  0  0
 31 32  1  6  0  0  0
 31 35  1  0  0  0  0
 33 34  1  0  0  0  0
 35 36  1  1  0  0  0
M  END
>  <CHROM.1>
-137.81785783,-91.83478840,157.57947988,169.78351728,64.94788540,137.25469733
-37.74807352,-78.07007182,-148.30101724,173.55661182,176.22226895,-157.95970728
-63.76605774,-33.06305198,35.08478150,7.89756813,9.95187227,-1.02900314,0.58039255
1.38832352

>  <Name>
2f4u_lig

>  <RI>
0

>  <Rbt.Current_Directory>
/home/itssahil/PROJECTS/Mol_Feturizer/New_Systems/rnas/2f4u

>  <Rbt.Executable>
rbdock ($Id: //depot/dev/client3/rdock/2013.1/src/exe/rbdock.cxx#4 $)

>  <Rbt.Library>
libRbt.so (2013.1, Build901 2013/11/27)

>  <Rbt.Parameter_File>
/export/apps/rDock/src/rDock_2013.1_src/data/scripts/dock_solv.prm

>  <Rbt.Receptor>
prm/pocket_docking_8.prm

>  <SCORE>
-8.20951

>  <SCORE.INTER>
-4.70889

>  <SCORE.INTER.CONST>
1

>  <SCORE.INTER.POLAR>
-1.46646

>  <SCORE.INTER.ROT>
14

>  <SCORE.INTER.SOLV>
13.4123

>  <SCORE.INTER.VDW>
-15.6551

>  <SCORE.INTER.norm>
-0.130803

>  <SCORE.INTRA>
-3.50062

>  <SCORE.INTRA.DIHEDRAL>
-5.32778

>  <SCORE.INTRA.DIHEDRAL.0>
26.3805

>  <SCORE.INTRA.POLAR>
0

>  <SCORE.INTRA.POLAR.0>
0

>  <SCORE.INTRA.REPUL>
0

>  <SCORE.INTRA.REPUL.0>
0

>  <SCORE.INTRA.SOLV>
2.51972

>  <SCORE.INTRA.SOLV.lig_0>
-98.5587

>  <SCORE.INTRA.VDW>
-2.09659

>  <SCORE.INTRA.VDW.0>
-2.91167

>  <SCORE.INTRA.norm>
-0.0972395

>  <SCORE.RESTR>
0

>  <SCORE.RESTR.CAVITY>
0

>  <SCORE.RESTR.norm>
0

>  <SCORE.SYSTEM>
0

>  <SCORE.SYSTEM.CONST>
0

>  <SCORE.SYSTEM.DIHEDRAL>
0

>  <SCORE.SYSTEM.SOLV>
0

>  <SCORE.SYSTEM.norm>
0

>  <SCORE.heavy>
36

>  <SCORE.norm>
-0.228042

>  <RMSD>
8.701

$$$$
2f4u_lig
 OpenBabel11021811433D
libRbt.so/2013.1/901 2013/11/27
 36 37  0  0  0  0  0  0  0  0999 V2000
   38.1738    5.2302   10.0924 C   0  0  2  0  0  0  0  0  0  0  0  0
   37.4975    5.1474    8.7833 O   0  0  0  0  0  0  0  0  0  0  0  0
   38.3063    6.9669    4.9193 C   0  0  2  0  0  0  0  0  0  0  0  0
   38.4714    8.0179    3.8786 N   0  0  0  0  0  0  0  0  0  0  0  0
   37.6176    4.0582   10.9590 C   0  0  2  0  0  0  0  0  0  0  0  0
   37.8461    2.7380   10.3433 N   0  0  0  0  0  0  0  0  0  0  0  0
   36.8567    6.9671    5.5209 C   0  0  0  0  0  0  0  0  0  0  0  0
   38.4013    9.6513    4.5959 C   0  0  0  0  0  0  0  0  0  0  0  0
   38.4464   10.1217    3.1759 C   0  0  1  0  0  0  0  0  0  0  0  0
   37.3810   11.2135    3.0262 C   0  0  0  0  0  0  0  0  0  0  0  0
   37.0566   11.6411    1.5828 C   0  0  0  0  0  0  0  0  0  0  0  0
   36.5605   10.4737    0.8515 N   0  0  0  0  0  0  0  0  0  0  0  0
   39.6911   10.7016    2.8952 O   0  0  0  0  0  0  0  0  0  0  0  0
   42.0291    7.3077    5.3580 C   0  0  0  0  0  0  0  0  0  0  0  0
   42.6229    6.1163    6.0946 C   0  0  0  0  0  0  0  0  0  0  0  0
   36.0868    4.2845   11.1912 C   0  0  1  0  0  0  0  0  0  0  0  0
   42.4179    4.8216    5.4144 N   0  0  0  0  0  0  0  0  0  0  0  0
   35.5265    3.2315   11.9713 O   0  0  0  0  0  0  0  0  0  0  0  0
   36.7124    5.9120    6.6364 C   0  0  2  0  0  0  0  0  0  0  0  0
   35.3798    5.9434    7.2258 N   0  0  0  0  0  0  0  0  0  0  0  0
   42.9798    3.0562    3.7508 C   0  0  0  0  0  0  0  0  0  0  0  0
   43.7350    2.6836    2.4397 C   0  0  0  0  0  0  0  0  0  0  0  0
   43.0898    4.5597    4.1154 C   0  0  0  0  0  0  0  0  0  0  0  0
   45.2005    2.9533    2.5453 N   0  0  0  0  0  0  0  0  0  0  0  0
   38.3039   10.0616    5.5876 O   0  0  0  0  0  0  0  0  0  0  0  0
   35.9013    5.6530   11.8767 C   0  0  2  0  0  0  0  0  0  0  0  0
   34.5311    5.9579   12.1245 O   0  0  0  0  0  0  0  0  0  0  0  0
   37.7247    6.1640    7.7360 C   0  0  2  0  0  0  0  0  0  0  0  0
   36.5246    6.7787   11.0318 C   0  0  2  0  0  0  0  0  0  0  0  0
   37.8999    6.5024   10.7449 O   0  0  0  0  0  0  0  0  0  0  0  0
   39.1893    6.1168    7.1385 C   0  0  2  0  0  0  0  0  0  0  0  0
   40.1422    6.3808    8.2157 O   0  0  0  0  0  0  0  0  0  0  0  0
   36.4288    8.1143   11.7199 C   0  0  0  0  0  0  0  0  0  0  0  0
   36.9907    8.0511   12.9750 O   0  0  0  0  0  0  0  0  0  0  0  0
   39.3157    7.2100    6.0239 C   0  0  1  0  0  0  0  0  0  0  0  0
   40.5910    7.2301    5.4517 O   0  0  0  0  0  0  0  0  0  0  0  0
  1  2  1  6  0  0  0
  1  5  1  0  0  0  0
  1 30  1  0  0  0  0
  3  4  1  6  0  0  0
  3  7  1  0  0  0  0
  3 35  1  0  0  0  0
  5  6  1  6  0  0  0
  5 16  1  0  0  0  0
  7 19  1  0  0  0  0
  8  4  1  0  0  0  0
  8 25  2  0  0  0  0
  9  8  1  1  0  0  0
  9 10  1  0  0  0  0
  9 13  1  0  0  0  0
 10 11  1  0  0  0  0
 11 12  1  0  0  0  0
 14 15  1  0  0  0  0
 14 36  1  0  0  0  0
 15 17  1  0  0  0  0
 16 18  1  1  0  0  0
 16 26  1  0  0  0  0
 17 23  1  0  0  0  0
 19 20  1  1  0  0  0
 19 28  1  0  0  0  0
 21 22  1  0  0  0  0
 21 23  1  0  0  0  0
 22 24  1  0  0  0  0
 26 27  1  6  0  0  0
 26 29  1  0  0  0  0
 28  2  1  1  0  0  0
 28 31  1  0  0  0  0
 29 30  1  0  0  0  0
 29 33  1  1  0  0  0
 31 32  1  1  0  0  0
 31 35  1  0  0  0  0
 33 34  1  0  0  0  0
 35 36  1  6  0  0  0
M  END
>  <CHROM.1>
176.09772326,68.03443887,134.60023293,-168.12991593,60.33856017,70.80712889
63.47146620,66.89900145,167.82816233,61.36253498,-176.57426650,-170.47324796
54.97440311,-177.14159686,38.65336437,6.62273097,6.93339043,-2.19791410,0.70328447
-0.89801933

>  <Name>
2f4u_lig

>  <RI>
0

>  <Rbt.Current_Directory>
/home/itssahil/PROJECTS/Mol_Feturizer/New_Systems/rnas/2f4u

>  <Rbt.Executable>
rbdock ($Id: //depot/dev/client3/rdock/2013.1/src/exe/rbdock.cxx#4 $)

>  <Rbt.Library>
libRbt.so (2013.1, Build901 2013/11/27)

>  <Rbt.Parameter_File>
/export/apps/rDock/src/rDock_2013.1_src/data/scripts/dock_solv.prm

>  <Rbt.Receptor>
prm/pocket_docking_4.prm

>  <SCORE>
-9.80091

>  <SCORE.INTER>
1.67999

>  <SCORE.INTER.CONST>
1

>  <SCORE.INTER.POLAR>
-0.87756

>  <SCORE.INTER.ROT>
14

>  <SCORE.INTER.SOLV>
10.8646

>  <SCORE.INTER.VDW>
-12.5097

>  <SCORE.INTER.norm>
0.0466664

>  <SCORE.INTRA>
-11.4809

>  <SCORE.INTRA.DIHEDRAL>
-22.3351

>  <SCORE.INTRA.DIHEDRAL.0>
26.3805

>  <SCORE.INTRA.POLAR>
0

>  <SCORE.INTRA.POLAR.0>
0

>  <SCORE.INTRA.REPUL>
0

>  <SCORE.INTRA.REPUL.0>
0

>  <SCORE.INTRA.SOLV>
2.49216

>  <SCORE.INTRA.SOLV.lig_0>
-98.5587

>  <SCORE.INTRA.VDW>
-1.55945

>  <SCORE.INTRA.VDW.0>
-2.91167

>  <SCORE.INTRA.norm>
-0.318914

>  <SCORE.RESTR>
0

>  <SCORE.RESTR.CAVITY>
0

>  <SCORE.RESTR.norm>
0

>  <SCORE.SYSTEM>
0

>  <SCORE.SYSTEM.CONST>
0

>  <SCORE.SYSTEM.DIHEDRAL>
0

>  <SCORE.SYSTEM.SOLV>
0

>  <SCORE.SYSTEM.norm>
0

>  <SCORE.heavy>
36

>  <SCORE.norm>
-0.272247

>  <RMSD>
8.708

$$$$
2f4u_lig
 OpenBabel11021811433D
libRbt.so/2013.1/901 2013/11/27
 36 37  0  0  0  0  0  0  0  0999 V2000
   32.2242    7.0564   10.4623 C   0  0  2  0  0  0  0  0  0  0  0  0
   33.3874    6.2530   10.8857 O   0  0  0  0  0  0  0  0  0  0  0  0
   36.7851    4.7618    8.6214 C   0  0  2  0  0  0  0  0  0  0  0  0
   37.5708    3.9344    7.6659 N   0  0  0  0  0  0  0  0  0  0  0  0
   31.5415    7.5775   11.7648 C   0  0  2  0  0  0  0  0  0  0  0  0
   32.4504    8.3859   12.5983 N   0  0  0  0  0  0  0  0  0  0  0  0
   36.1119    3.8832    9.7341 C   0  0  0  0  0  0  0  0  0  0  0  0
   38.8568    3.0255    8.5071 C   0  0  0  0  0  0  0  0  0  0  0  0
   39.2818    2.6291    7.1279 C   0  0  1  0  0  0  0  0  0  0  0  0
   40.6220    1.8971    7.2596 C   0  0  0  0  0  0  0  0  0  0  0  0
   41.8190    2.7620    7.6958 C   0  0  0  0  0  0  0  0  0  0  0  0
   42.9854    1.8928    7.8629 N   0  0  0  0  0  0  0  0  0  0  0  0
   38.3596    1.7303    6.5746 O   0  0  0  0  0  0  0  0  0  0  0  0
   36.5063    7.1741    5.7453 C   0  0  0  0  0  0  0  0  0  0  0  0
   37.9895    7.2851    5.4250 C   0  0  0  0  0  0  0  0  0  0  0  0
   31.0110    6.3527   12.5815 C   0  0  1  0  0  0  0  0  0  0  0  0
   38.2903    8.0960    4.2279 N   0  0  0  0  0  0  0  0  0  0  0  0
   30.3860    6.7760   13.7905 O   0  0  0  0  0  0  0  0  0  0  0  0
   35.2556    4.7430   10.6859 C   0  0  2  0  0  0  0  0  0  0  0  0
   34.5944    3.9210   11.6915 N   0  0  0  0  0  0  0  0  0  0  0  0
   37.0118   10.2264    4.0649 C   0  0  0  0  0  0  0  0  0  0  0  0
   36.4656    9.9189    2.6382 C   0  0  0  0  0  0  0  0  0  0  0  0
   38.3900    9.5736    4.3475 C   0  0  0  0  0  0  0  0  0  0  0  0
   36.1171    8.4756    2.4744 N   0  0  0  0  0  0  0  0  0  0  0  0
   39.1816    2.9016    9.5272 O   0  0  0  0  0  0  0  0  0  0  0  0
   30.0321    5.5658   11.6872 C   0  0  2  0  0  0  0  0  0  0  0  0
   29.4972    4.4182   12.3418 O   0  0  0  0  0  0  0  0  0  0  0  0
   34.1911    5.4910    9.9083 C   0  0  2  0  0  0  0  0  0  0  0  0
   30.7148    5.1288   10.3786 C   0  0  2  0  0  0  0  0  0  0  0  0
   31.2822    6.2527    9.6967 O   0  0  0  0  0  0  0  0  0  0  0  0
   34.8718    6.4134    8.8174 C   0  0  2  0  0  0  0  0  0  0  0  0
   33.8227    7.1076    8.0719 O   0  0  0  0  0  0  0  0  0  0  0  0
   29.7556    4.4300    9.4525 C   0  0  0  0  0  0  0  0  0  0  0  0
   29.3968    3.2041    9.9658 O   0  0  0  0  0  0  0  0  0  0  0  0
   35.7176    5.5151    7.8526 C   0  0  1  0  0  0  0  0  0  0  0  0
   36.3470    6.2652    6.8549 O   0  0  0  0  0  0  0  0  0  0  0  0
  1  2  1  1  0  0  0
  1  5  1  0  0  0  0
  1 30  1  0  0  0  0
  3  4  1  6  0  0  0
  3  7  1  0  0  0  0
  3 35  1  0  0  0  0
  5  6  1  1  0  0  0
  5 16  1  0  0  0  0
  7 19  1  0  0  0  0
  8  4  1  0  0  0  0
  8 25  2  0  0  0  0
  9  8  1  1  0  0  0
  9 10  1  0  0  0  0
  9 13  1  0  0  0  0
 10 11  1  0  0  0  0
 11 12  1  0  0  0  0
 14 15  1  0  0  0  0
 14 36  1  0  0  0  0
 15 17  1  0  0  0  0
 16 18  1  1  0  0  0
 16 26  1  0  0  0  0
 17 23  1  0  0  0  0
 19 20  1  1  0  0  0
 19 28  1  0  0  0  0
 21 22  1  0  0  0  0
 21 23  1  0  0  0  0
 22 24  1  0  0  0  0
 26 27  1  1  0  0  0
 26 29  1  0  0  0  0
 28  2  1  1  0  0  0
 28 31  1  0  0  0  0
 29 30  1  0  0  0  0
 29 33  1  6  0  0  0
 31 32  1  6  0  0  0
 31 35  1  0  0  0  0
 33 34  1  0  0  0  0
 35 36  1  6  0  0  0
M  END
>  <CHROM.1>
173.81465836,-59.18829612,171.87026332,-68.29770586,175.99470949,174.90896367
178.57626633,84.11802756,-91.93431210,67.46617324,-60.13195301,-177.60379049
-69.10787964,-178.81475315,35.20199732,5.57376620,8.59338827,2.79821939,-0.48733476
2.38695597

>  <Name>
2f4u_lig

>  <RI>
0

>  <Rbt.Current_Directory>
/home/itssahil/PROJECTS/Mol_Feturizer/New_Systems/rnas/2f4u

>  <Rbt.Executable>
rbdock ($Id: //depot/dev/client3/rdock/2013.1/src/exe/rbdock.cxx#4 $)

>  <Rbt.Library>
libRbt.so (2013.1, Build901 2013/11/27)

>  <Rbt.Parameter_File>
/export/apps/rDock/src/rDock_2013.1_src/data/scripts/dock_solv.prm

>  <Rbt.Receptor>
prm/pocket_docking_7.prm

>  <SCORE>
-8.6726

>  <SCORE.INTER>
1.73675

>  <SCORE.INTER.CONST>
1

>  <SCORE.INTER.POLAR>
-0.894427

>  <SCORE.INTER.ROT>
14

>  <SCORE.INTER.SOLV>
8.92966

>  <SCORE.INTER.VDW>
-11.7706

>  <SCORE.INTER.norm>
0.0482429

>  <SCORE.INTRA>
-10.4093

>  <SCORE.INTRA.DIHEDRAL>
-23.3148

>  <SCORE.INTRA.DIHEDRAL.0>
26.3805

>  <SCORE.INTRA.POLAR>
0

>  <SCORE.INTRA.POLAR.0>
0

>  <SCORE.INTRA.REPUL>
0

>  <SCORE.INTRA.REPUL.0>
0

>  <SCORE.INTRA.SOLV>
3.22137

>  <SCORE.INTRA.SOLV.lig_0>
-98.5587

>  <SCORE.INTRA.VDW>
-0.362624

>  <SCORE.INTRA.VDW.0>
-2.91167

>  <SCORE.INTRA.norm>
-0.289148

>  <SCORE.RESTR>
0

>  <SCORE.RESTR.CAVITY>
0

>  <SCORE.RESTR.norm>
0

>  <SCORE.SYSTEM>
0

>  <SCORE.SYSTEM.CONST>
0

>  <SCORE.SYSTEM.DIHEDRAL>
0

>  <SCORE.SYSTEM.SOLV>
0

>  <SCORE.SYSTEM.norm>
0

>  <SCORE.heavy>
36

>  <SCORE.norm>
-0.240905

>  <RMSD>
8.738

$$$$
2f4u_lig
 OpenBabel11021811433D
libRbt.so/2013.1/901 2013/11/27
 36 37  0  0  0  0  0  0  0  0999 V2000
   45.7204    3.7253    6.5476 C   0  0  2  0  0  0  0  0  0  0  0  0
   44.6703    4.2395    7.4479 O   0  0  0  0  0  0  0  0  0  0  0  0
   41.0011    6.4248    6.6372 C   0  0  2  0  0  0  0  0  0  0  0  0
   39.6658    6.7464    6.0643 N   0  0  0  0  0  0  0  0  0  0  0  0
   45.2135    2.3530    6.0055 C   0  0  2  0  0  0  0  0  0  0  0  0
   43.9294    2.4643    5.2892 N   0  0  0  0  0  0  0  0  0  0  0  0
   42.0810    6.2221    5.5165 C   0  0  0  0  0  0  0  0  0  0  0  0
   39.7171    8.2623    5.1224 C   0  0  0  0  0  0  0  0  0  0  0  0
   38.2349    8.0820    5.0205 C   0  0  1  0  0  0  0  0  0  0  0  0
   37.5945    8.9870    6.0789 C   0  0  0  0  0  0  0  0  0  0  0  0
   36.0657    8.8725    6.2237 C   0  0  0  0  0  0  0  0  0  0  0  0
   35.7478    7.5555    6.7792 N   0  0  0  0  0  0  0  0  0  0  0  0
   37.7786    8.5076    3.7655 O   0  0  0  0  0  0  0  0  0  0  0  0
   38.6369    5.7517    9.0194 C   0  0  0  0  0  0  0  0  0  0  0  0
   38.6188    5.2952   10.4706 C   0  0  0  0  0  0  0  0  0  0  0  0
   45.0748    1.3568    7.2042 C   0  0  1  0  0  0  0  0  0  0  0  0
   37.9987    3.9713   10.6800 N   0  0  0  0  0  0  0  0  0  0  0  0
   44.6025    0.0868    6.7620 O   0  0  0  0  0  0  0  0  0  0  0  0
   43.4474    5.8350    6.1179 C   0  0  2  0  0  0  0  0  0  0  0  0
   44.4383    5.6025    5.0746 N   0  0  0  0  0  0  0  0  0  0  0  0
   39.5678    2.1299   10.0911 C   0  0  0  0  0  0  0  0  0  0  0  0
   38.6180    1.5015    9.0275 C   0  0  0  0  0  0  0  0  0  0  0  0
   38.8125    2.8582   11.2334 C   0  0  0  0  0  0  0  0  0  0  0  0
   39.3773    0.8342    7.9277 N   0  0  0  0  0  0  0  0  0  0  0  0
   40.4724    8.9772    4.8402 O   0  0  0  0  0  0  0  0  0  0  0  0
   46.4494    1.2378    7.8924 C   0  0  2  0  0  0  0  0  0  0  0  0
   46.4253    0.3537    9.0101 O   0  0  0  0  0  0  0  0  0  0  0  0
   43.3217    4.5707    6.9444 C   0  0  2  0  0  0  0  0  0  0  0  0
   46.9548    2.6178    8.3505 C   0  0  2  0  0  0  0  0  0  0  0  0
   46.9779    3.5433    7.2582 O   0  0  0  0  0  0  0  0  0  0  0  0
   42.2674    4.7901    8.1040 C   0  0  2  0  0  0  0  0  0  0  0  0
   42.1533    3.5513    8.8724 O   0  0  0  0  0  0  0  0  0  0  0  0
   48.3327    2.5385    8.9516 C   0  0  0  0  0  0  0  0  0  0  0  0
   48.7636    3.7884    9.3354 O   0  0  0  0  0  0  0  0  0  0  0  0
   40.8856    5.1613    7.4670 C   0  0  1  0  0  0  0  0  0  0  0  0
   39.8994    5.3658    8.4364 O   0  0  0  0  0  0  0  0  0  0  0  0
  1  2  1  1  0  0  0
  1  5  1  0  0  0  0
  1 30  1  0  0  0  0
  3  4  1  6  0  0  0
  3  7  1  0  0  0  0
  3 35  1  0  0  0  0
  5  6  1  1  0  0  0
  5 16  1  0  0  0  0
  7 19  1  0  0  0  0
  8  4  1  0  0  0  0
  8 25  2  0  0  0  0
  9  8  1  6  0  0  0
  9 10  1  0  0  0  0
  9 13  1  0  0  0  0
 10 11  1  0  0  0  0
 11 12  1  0  0  0  0
 14 15  1  0  0  0  0
 14 36  1  0  0  0  0
 15 17  1  0  0  0  0
 16 18  1  6  0  0  0
 16 26  1  0  0  0  0
 17 23  1  0  0  0  0
 19 20  1  6  0  0  0
 19 28  1  0  0  0  0
 21 22  1  0  0  0  0
 21 23  1  0  0  0  0
 22 24  1  0  0  0  0
 26 27  1  1  0  0  0
 26 29  1  0  0  0  0
 28  2  1  1  0  0  0
 28 31  1  0  0  0  0
 29 30  1  0  0  0  0
 29 33  1  6  0  0  0
 31 32  1  6  0  0  0
 31 35  1  0  0  0  0
 33 34  1  0  0  0  0
 35 36  1  1  0  0  0
M  END
>  <CHROM.1>
-63.33976811,-60.96382030,99.25908683,-175.32979528,68.19336306,-93.69181352
173.08009016,117.90340770,-85.91175946,178.77080416,-60.70501269,-71.73923715
179.23197153,47.16012866,41.96152894,4.54314849,7.39297764,-0.49972678,0.26007536
-0.68465044

>  <Name>
2f4u_lig

>  <RI>
0

>  <Rbt.Current_Directory>
/home/itssahil/PROJECTS/Mol_Feturizer/New_Systems/rnas/2f4u

>  <Rbt.Executable>
rbdock ($Id: //depot/dev/client3/rdock/2013.1/src/exe/rbdock.cxx#4 $)

>  <Rbt.Library>
libRbt.so (2013.1, Build901 2013/11/27)

>  <Rbt.Parameter_File>
/export/apps/rDock/src/rDock_2013.1_src/data/scripts/dock_solv.prm

>  <Rbt.Receptor>
prm/pocket_docking_4.prm

>  <SCORE>
-11.5572

>  <SCORE.INTER>
-4.96241

>  <SCORE.INTER.CONST>
1

>  <SCORE.INTER.POLAR>
-0.709326

>  <SCORE.INTER.ROT>
14

>  <SCORE.INTER.SOLV>
9.79049

>  <SCORE.INTER.VDW>
-17.1407

>  <SCORE.INTER.norm>
-0.137845

>  <SCORE.INTRA>
-6.59482

>  <SCORE.INTRA.DIHEDRAL>
-17.215

>  <SCORE.INTRA.DIHEDRAL.0>
26.3805

>  <SCORE.INTRA.POLAR>
0

>  <SCORE.INTRA.POLAR.0>
0

>  <SCORE.INTRA.REPUL>
0

>  <SCORE.INTRA.REPUL.0>
0

>  <SCORE.INTRA.SOLV>
6.27537

>  <SCORE.INTRA.SOLV.lig_0>
-98.5587

>  <SCORE.INTRA.VDW>
-1.12499

>  <SCORE.INTRA.VDW.0>
-2.91167

>  <SCORE.INTRA.norm>
-0.183189

>  <SCORE.RESTR>
0

>  <SCORE.RESTR.CAVITY>
0

>  <SCORE.RESTR.norm>
0

>  <SCORE.SYSTEM>
0

>  <SCORE.SYSTEM.CONST>
0

>  <SCORE.SYSTEM.DIHEDRAL>
0

>  <SCORE.SYSTEM.SOLV>
0

>  <SCORE.SYSTEM.norm>
0

>  <SCORE.heavy>
36

>  <SCORE.norm>
-0.321034

>  <RMSD>
8.747

$$$$
2f4u_lig
 OpenBabel11021811433D
libRbt.so/2013.1/901 2013/11/27
 36 37  0  0  0  0  0  0  0  0999 V2000
   34.2726    5.1078    7.9301 C   0  0  2  0  0  0  0  0  0  0  0  0
   33.9017    5.7619    6.6603 O   0  0  0  0  0  0  0  0  0  0  0  0
   36.3741    7.7516    3.6898 C   0  0  2  0  0  0  0  0  0  0  0  0
   37.2232    8.7947    3.0529 N   0  0  0  0  0  0  0  0  0  0  0  0
   32.9763    4.4410    8.4861 C   0  0  2  0  0  0  0  0  0  0  0  0
   32.3960    3.4598    7.5509 N   0  0  0  0  0  0  0  0  0  0  0  0
   34.9490    8.3020    4.0495 C   0  0  0  0  0  0  0  0  0  0  0  0
   37.6825   10.0577    4.2283 C   0  0  0  0  0  0  0  0  0  0  0  0
   38.2731   10.7488    3.0395 C   0  0  1  0  0  0  0  0  0  0  0  0
   38.3768   12.2382    3.3864 C   0  0  0  0  0  0  0  0  0  0  0  0
   38.9401   13.1476    2.2786 C   0  0  0  0  0  0  0  0  0  0  0  0
   38.0347   13.0969    1.1290 N   0  0  0  0  0  0  0  0  0  0  0  0
   39.5708   10.2776    2.7983 O   0  0  0  0  0  0  0  0  0  0  0  0
   39.7009    6.8326    4.1286 C   0  0  0  0  0  0  0  0  0  0  0  0
   40.5305    7.6417    5.1144 C   0  0  0  0  0  0  0  0  0  0  0  0
   31.9308    5.5603    8.8069 C   0  0  1  0  0  0  0  0  0  0  0  0
   41.9374    7.8315    4.7075 N   0  0  0  0  0  0  0  0  0  0  0  0
   30.7202    5.0006    9.3093 O   0  0  0  0  0  0  0  0  0  0  0  0
   34.0965    7.2301    4.7586 C   0  0  2  0  0  0  0  0  0  0  0  0
   32.7895    7.7555    5.1330 N   0  0  0  0  0  0  0  0  0  0  0  0
   44.3036    7.1076    4.4292 C   0  0  0  0  0  0  0  0  0  0  0  0
   45.2822    5.9390    4.1055 C   0  0  0  0  0  0  0  0  0  0  0  0
   42.8282    6.6503    4.5704 C   0  0  0  0  0  0  0  0  0  0  0  0
   45.2914    4.9055    5.1839 N   0  0  0  0  0  0  0  0  0  0  0  0
   37.5281   10.2342    5.2801 O   0  0  0  0  0  0  0  0  0  0  0  0
   32.5642    6.5341    9.8206 C   0  0  2  0  0  0  0  0  0  0  0  0
   31.6879    7.6018   10.1722 O   0  0  0  0  0  0  0  0  0  0  0  0
   34.7928    6.7479    6.0155 C   0  0  2  0  0  0  0  0  0  0  0  0
   33.8784    7.1187    9.2723 C   0  0  2  0  0  0  0  0  0  0  0  0
   34.7825    6.0763    8.8899 O   0  0  0  0  0  0  0  0  0  0  0  0
   36.2108    6.1492    5.6476 C   0  0  2  0  0  0  0  0  0  0  0  0
   36.8661    5.7095    6.8786 O   0  0  0  0  0  0  0  0  0  0  0  0
   34.5581    8.0091   10.2778 C   0  0  0  0  0  0  0  0  0  0  0  0
   35.7019    8.5562    9.7417 O   0  0  0  0  0  0  0  0  0  0  0  0
   37.0630    7.2619    4.9483 C   0  0  1  0  0  0  0  0  0  0  0  0
   38.3364    6.8041    4.5977 O   0  0  0  0  0  0  0  0  0  0  0  0
  1  2  1  6  0  0  0
  1  5  1  0  0  0  0
  1 30  1  0  0  0  0
  3  4  1  1  0  0  0
  3  7  1  0  0  0  0
  3 35  1  0  0  0  0
  5  6  1  6  0  0  0
  5 16  1  0  0  0  0
  7 19  1  0  0  0  0
  8  4  1  0  0  0  0
  8 25  2  0  0  0  0
  9  8  1  1  0  0  0
  9 10  1  0  0  0  0
  9 13  1  0  0  0  0
 10 11  1  0  0  0  0
 11 12  1  0  0  0  0
 14 15  1  0  0  0  0
 14 36  1  0  0  0  0
 15 17  1  0  0  0  0
 16 18  1  1  0  0  0
 16 26  1  0  0  0  0
 17 23  1  0  0  0  0
 19 20  1  1  0  0  0
 19 28  1  0  0  0  0
 21 22  1  0  0  0  0
 21 23  1  0  0  0  0
 22 24  1  0  0  0  0
 26 27  1  6  0  0  0
 26 29  1  0  0  0  0
 28  2  1  6  0  0  0
 28 31  1  0  0  0  0
 29 30  1  0  0  0  0
 29 33  1  1  0  0  0
 31 32  1  1  0  0  0
 31 35  1  0  0  0  0
 33 34  1  0  0  0  0
 35 36  1  6  0  0  0
M  END
>  <CHROM.1>
165.64764163,69.80835264,158.00881054,-178.84821203,62.66614886,-176.00998051
66.02426576,-63.16430865,-168.23203922,-61.15492438,-172.91593303,-179.00541777
-177.72335462,65.51451210,36.83635274,7.56691326,5.87139547,-2.63412153,0.27216267
-0.64308810

>  <Name>
2f4u_lig

>  <RI>
0

>  <Rbt.Current_Directory>
/home/itssahil/PROJECTS/Mol_Feturizer/New_Systems/rnas/2f4u

>  <Rbt.Executable>
rbdock ($Id: //depot/dev/client3/rdock/2013.1/src/exe/rbdock.cxx#4 $)

>  <Rbt.Library>
libRbt.so (2013.1, Build901 2013/11/27)

>  <Rbt.Parameter_File>
/export/apps/rDock/src/rDock_2013.1_src/data/scripts/dock_solv.prm

>  <Rbt.Receptor>
prm/pocket_docking_5.prm

>  <SCORE>
-19.9628

>  <SCORE.INTER>
-7.89331

>  <SCORE.INTER.CONST>
1

>  <SCORE.INTER.POLAR>
-0.974489

>  <SCORE.INTER.ROT>
14

>  <SCORE.INTER.SOLV>
14.6915

>  <SCORE.INTER.VDW>
-19.8444

>  <SCORE.INTER.norm>
-0.219259

>  <SCORE.INTRA>
-12.0695

>  <SCORE.INTRA.DIHEDRAL>
-23.3554

>  <SCORE.INTRA.DIHEDRAL.0>
26.3805

>  <SCORE.INTRA.POLAR>
0

>  <SCORE.INTRA.POLAR.0>
0

>  <SCORE.INTRA.REPUL>
0

>  <SCORE.INTRA.REPUL.0>
0

>  <SCORE.INTRA.SOLV>
1.93062

>  <SCORE.INTRA.SOLV.lig_0>
-98.5587

>  <SCORE.INTRA.VDW>
-1.35707

>  <SCORE.INTRA.VDW.0>
-2.91167

>  <SCORE.INTRA.norm>
-0.335263

>  <SCORE.RESTR>
0

>  <SCORE.RESTR.CAVITY>
0

>  <SCORE.RESTR.norm>
0

>  <SCORE.SYSTEM>
0

>  <SCORE.SYSTEM.CONST>
0

>  <SCORE.SYSTEM.DIHEDRAL>
0

>  <SCORE.SYSTEM.SOLV>
0

>  <SCORE.SYSTEM.norm>
0

>  <SCORE.heavy>
36

>  <SCORE.norm>
-0.554522

>  <RMSD>
8.749

$$$$
2f4u_lig
 OpenBabel11021811433D
libRbt.so/2013.1/901 2013/11/27
 36 37  0  0  0  0  0  0  0  0999 V2000
   43.9118    2.7209    8.0593 C   0  0  2  0  0  0  0  0  0  0  0  0
   43.2314    3.9412    7.5842 O   0  0  0  0  0  0  0  0  0  0  0  0
   39.2594    5.5055    8.4037 C   0  0  2  0  0  0  0  0  0  0  0  0
   37.7766    5.6307    8.3811 N   0  0  0  0  0  0  0  0  0  0  0  0
   45.3172    2.6991    7.3821 C   0  0  2  0  0  0  0  0  0  0  0  0
   46.1200    3.8941    7.7007 N   0  0  0  0  0  0  0  0  0  0  0  0
   39.8710    5.5793    6.9602 C   0  0  0  0  0  0  0  0  0  0  0  0
   37.2555    7.2267    8.9881 C   0  0  0  0  0  0  0  0  0  0  0  0
   35.8746    6.6620    8.8703 C   0  0  1  0  0  0  0  0  0  0  0  0
   35.1152    7.0523   10.1432 C   0  0  0  0  0  0  0  0  0  0  0  0
   33.6423    6.6078   10.2089 C   0  0  0  0  0  0  0  0  0  0  0  0
   33.0422    7.1622   11.4240 N   0  0  0  0  0  0  0  0  0  0  0  0
   35.2047    7.2386    7.7825 O   0  0  0  0  0  0  0  0  0  0  0  0
   38.4980    3.5893   11.5326 C   0  0  0  0  0  0  0  0  0  0  0  0
   37.0474    3.2097   11.2750 C   0  0  0  0  0  0  0  0  0  0  0  0
   45.1295    2.5756    5.8335 C   0  0  1  0  0  0  0  0  0  0  0  0
   36.8693    2.1681   10.2433 N   0  0  0  0  0  0  0  0  0  0  0  0
   46.3883    2.5623    5.1651 O   0  0  0  0  0  0  0  0  0  0  0  0
   41.4017    5.3933    6.9895 C   0  0  2  0  0  0  0  0  0  0  0  0
   41.9637    5.4165    5.6449 N   0  0  0  0  0  0  0  0  0  0  0  0
   34.6899    1.2026   10.9632 C   0  0  0  0  0  0  0  0  0  0  0  0
   33.2031    0.9111   10.5992 C   0  0  0  0  0  0  0  0  0  0  0  0
   35.5006    1.8106    9.7890 C   0  0  0  0  0  0  0  0  0  0  0  0
   32.4384    2.1665   10.3333 N   0  0  0  0  0  0  0  0  0  0  0  0
   37.7421    8.1248    9.3316 O   0  0  0  0  0  0  0  0  0  0  0  0
   44.3264    1.2910    5.5472 C   0  0  2  0  0  0  0  0  0  0  0  0
   44.0935    1.0921    4.1551 O   0  0  0  0  0  0  0  0  0  0  0  0
   41.7605    4.0683    7.6320 C   0  0  2  0  0  0  0  0  0  0  0  0
   42.9770    1.3112    6.2874 C   0  0  2  0  0  0  0  0  0  0  0  0
   43.1655    1.5266    7.6904 O   0  0  0  0  0  0  0  0  0  0  0  0
   41.1845    4.0124    9.1049 C   0  0  2  0  0  0  0  0  0  0  0  0
   41.5293    2.7187    9.6928 O   0  0  0  0  0  0  0  0  0  0  0  0
   42.2102    0.0309    6.0895 C   0  0  0  0  0  0  0  0  0  0  0  0
   42.9091   -1.0348    6.6097 O   0  0  0  0  0  0  0  0  0  0  0  0
   39.6286    4.1828    9.0457 C   0  0  1  0  0  0  0  0  0  0  0  0
   39.0477    4.1385   10.3165 O   0  0  0  0  0  0  0  0  0  0  0  0
  1  2  1  6  0  0  0
  1  5  1  0  0  0  0
  1 30  1  0  0  0  0
  3  4  1  6  0  0  0
  3  7  1  0  0  0  0
  3 35  1  0  0  0  0
  5  6  1  6  0  0  0
  5 16  1  0  0  0  0
  7 19  1  0  0  0  0
  8  4  1  0  0  0  0
  8 25  2  0  0  0  0
  9  8  1  1  0  0  0
  9 10  1  0  0  0  0
  9 13  1  0  0  0  0
 10 11  1  0  0  0  0
 11 12  1  0  0  0  0
 14 15  1  0  0  0  0
 14 36  1  0  0  0  0
 15 17  1  0  0  0  0
 16 18  1  6  0  0  0
 16 26  1  0  0  0  0
 17 23  1  0  0  0  0
 19 20  1  6  0  0  0
 19 28  1  0  0  0  0
 21 22  1  0  0  0  0
 21 23  1  0  0  0  0
 22 24  1  0  0  0  0
 26 27  1  6  0  0  0
 26 29  1  0  0  0  0
 28  2  1  1  0  0  0
 28 31  1  0  0  0  0
 29 30  1  0  0  0  0
 29 33  1  1  0  0  0
 31 32  1  6  0  0  0
 31 35  1  0  0  0  0
 33 34  1  0  0  0  0
 35 36  1  1  0  0  0
M  END
>  <CHROM.1>
158.80498185,-106.82652587,135.87456264,177.99197325,-174.98069823,62.22711578
-82.19729662,-173.36609710,-63.85719776,-66.19860634,175.15473975,-176.35310189
62.32341886,155.89685070,39.72791530,3.70756751,8.37005076,0.23564690,-0.40003181
3.07045496

>  <Name>
2f4u_lig

>  <RI>
0

>  <Rbt.Current_Directory>
/home/itssahil/PROJECTS/Mol_Feturizer/New_Systems/rnas/2f4u

>  <Rbt.Executable>
rbdock ($Id: //depot/dev/client3/rdock/2013.1/src/exe/rbdock.cxx#4 $)

>  <Rbt.Library>
libRbt.so (2013.1, Build901 2013/11/27)

>  <Rbt.Parameter_File>
/export/apps/rDock/src/rDock_2013.1_src/data/scripts/dock_solv.prm

>  <Rbt.Receptor>
prm/pocket_docking_5.prm

>  <SCORE>
-13.2556

>  <SCORE.INTER>
-4.06621

>  <SCORE.INTER.CONST>
1

>  <SCORE.INTER.POLAR>
-2.42494

>  <SCORE.INTER.ROT>
14

>  <SCORE.INTER.SOLV>
8.27592

>  <SCORE.INTER.VDW>
-10.3196

>  <SCORE.INTER.norm>
-0.11295

>  <SCORE.INTRA>
-9.18938

>  <SCORE.INTRA.DIHEDRAL>
-16.0216

>  <SCORE.INTRA.DIHEDRAL.0>
26.3805

>  <SCORE.INTRA.POLAR>
0

>  <SCORE.INTRA.POLAR.0>
0

>  <SCORE.INTRA.REPUL>
0

>  <SCORE.INTRA.REPUL.0>
0

>  <SCORE.INTRA.SOLV>
0.542815

>  <SCORE.INTRA.SOLV.lig_0>
-98.5587

>  <SCORE.INTRA.VDW>
-1.44998

>  <SCORE.INTRA.VDW.0>
-2.91167

>  <SCORE.INTRA.norm>
-0.255261

>  <SCORE.RESTR>
0

>  <SCORE.RESTR.CAVITY>
0

>  <SCORE.RESTR.norm>
0

>  <SCORE.SYSTEM>
0

>  <SCORE.SYSTEM.CONST>
0

>  <SCORE.SYSTEM.DIHEDRAL>
0

>  <SCORE.SYSTEM.SOLV>
0

>  <SCORE.SYSTEM.norm>
0

>  <SCORE.heavy>
36

>  <SCORE.norm>
-0.368211

>  <RMSD>
8.754

$$$$
2f4u_lig
 OpenBabel11021811433D
libRbt.so/2013.1/901 2013/11/27
 36 37  0  0  0  0  0  0  0  0999 V2000
   44.2748    2.7434    6.6342 C   0  0  2  0  0  0  0  0  0  0  0  0
   43.0456    3.5519    6.5185 O   0  0  0  0  0  0  0  0  0  0  0  0
   39.6240    4.0282    9.1568 C   0  0  2  0  0  0  0  0  0  0  0  0
   38.8414    4.3165   10.3894 N   0  0  0  0  0  0  0  0  0  0  0  0
   45.4530    3.6485    6.1579 C   0  0  2  0  0  0  0  0  0  0  0  0
   45.5740    4.8869    6.9492 N   0  0  0  0  0  0  0  0  0  0  0  0
   40.6590    2.8703    9.3828 C   0  0  0  0  0  0  0  0  0  0  0  0
   37.8740    2.8999   10.8843 C   0  0  0  0  0  0  0  0  0  0  0  0
   37.3039    3.8270   11.9115 C   0  0  1  0  0  0  0  0  0  0  0  0
   35.7855    3.6177   11.9178 C   0  0  0  0  0  0  0  0  0  0  0  0
   34.9970    4.4541   12.9426 C   0  0  0  0  0  0  0  0  0  0  0  0
   33.5747    4.1317   12.8113 N   0  0  0  0  0  0  0  0  0  0  0  0
   37.7836    3.4948   13.1858 O   0  0  0  0  0  0  0  0  0  0  0  0
   38.3594    7.0875    7.9612 C   0  0  0  0  0  0  0  0  0  0  0  0
   38.9552    7.8690    6.7998 C   0  0  0  0  0  0  0  0  0  0  0  0
   45.2438    3.9955    4.6465 C   0  0  1  0  0  0  0  0  0  0  0  0
   37.9563    8.5653    5.9641 N   0  0  0  0  0  0  0  0  0  0  0  0
   46.2915    4.8326    4.1640 O   0  0  0  0  0  0  0  0  0  0  0  0
   41.5024    2.6170    8.1167 C   0  0  2  0  0  0  0  0  0  0  0  0
   42.4941    1.5727    8.3413 N   0  0  0  0  0  0  0  0  0  0  0  0
   36.6714    9.0002    3.8761 C   0  0  0  0  0  0  0  0  0  0  0  0
   35.3122    8.5397    4.4835 C   0  0  0  0  0  0  0  0  0  0  0  0
   37.8969    8.2879    4.5057 C   0  0  0  0  0  0  0  0  0  0  0  0
   35.0650    7.0843    4.2555 N   0  0  0  0  0  0  0  0  0  0  0  0
   37.7421    1.8884   10.5366 O   0  0  0  0  0  0  0  0  0  0  0  0
   45.1694    2.6742    3.8554 C   0  0  2  0  0  0  0  0  0  0  0  0
   44.9696    2.8843    2.4598 O   0  0  0  0  0  0  0  0  0  0  0  0
   42.2289    3.8816    7.7042 C   0  0  2  0  0  0  0  0  0  0  0  0
   44.0448    1.7732    4.3967 C   0  0  2  0  0  0  0  0  0  0  0  0
   44.1986    1.5508    5.8028 O   0  0  0  0  0  0  0  0  0  0  0  0
   41.1824    5.0367    7.4301 C   0  0  2  0  0  0  0  0  0  0  0  0
   41.9107    6.2471    7.0526 O   0  0  0  0  0  0  0  0  0  0  0  0
   44.0057    0.4425    3.6940 C   0  0  0  0  0  0  0  0  0  0  0  0
   43.5185    0.5872    2.4147 O   0  0  0  0  0  0  0  0  0  0  0  0
   40.3540    5.2882    8.7354 C   0  0  1  0  0  0  0  0  0  0  0  0
   39.4084    6.3042    8.5685 O   0  0  0  0  0  0  0  0  0  0  0  0
  1  2  1  6  0  0  0
  1  5  1  0  0  0  0
  1 30  1  0  0  0  0
  3  4  1  1  0  0  0
  3  7  1  0  0  0  0
  3 35  1  0  0  0  0
  5  6  1  1  0  0  0
  5 16  1  0  0  0  0
  7 19  1  0  0  0  0
  8  4  1  0  0  0  0
  8 25  2  0  0  0  0
  9  8  1  6  0  0  0
  9 10  1  0  0  0  0
  9 13  1  0  0  0  0
 10 11  1  0  0  0  0
 11 12  1  0  0  0  0
 14 15  1  0  0  0  0
 14 36  1  0  0  0  0
 15 17  1  0  0  0  0
 16 18  1  6  0  0  0
 16 26  1  0  0  0  0
 17 23  1  0  0  0  0
 19 20  1  1  0  0  0
 19 28  1  0  0  0  0
 21 22  1  0  0  0  0
 21 23  1  0  0  0  0
 22 24  1  0  0  0  0
 26 27  1  6  0  0  0
 26 29  1  0  0  0  0
 28  2  1  6  0  0  0
 28 31  1  0  0  0  0
 29 30  1  0  0  0  0
 29 33  1  6  0  0  0
 31 32  1  1  0  0  0
 31 35  1  0  0  0  0
 33 34  1  0  0  0  0
 35 36  1  6  0  0  0
M  END
>  <CHROM.1>
-117.97629073,-62.37976075,135.15466013,178.31702329,179.98461753,171.61205120
-73.28256225,-123.30132369,173.26640128,-61.85517834,-60.19980049,-73.34463577
-72.59319593,-77.25374393,40.56010300,4.33854544,7.31910659,-0.33035855,-0.55309804
2.17785644

>  <Name>
2f4u_lig

>  <RI>
0

>  <Rbt.Current_Directory>
/home/itssahil/PROJECTS/Mol_Feturizer/New_Systems/rnas/2f4u

>  <Rbt.Executable>
rbdock ($Id: //depot/dev/client3/rdock/2013.1/src/exe/rbdock.cxx#4 $)

>  <Rbt.Library>
libRbt.so (2013.1, Build901 2013/11/27)

>  <Rbt.Parameter_File>
/export/apps/rDock/src/rDock_2013.1_src/data/scripts/dock_solv.prm

>  <Rbt.Receptor>
prm/pocket_docking_4.prm

>  <SCORE>
-9.61817

>  <SCORE.INTER>
-4.47505

>  <SCORE.INTER.CONST>
1

>  <SCORE.INTER.POLAR>
-1.72797

>  <SCORE.INTER.ROT>
14

>  <SCORE.INTER.SOLV>
12.639

>  <SCORE.INTER.VDW>
-14.3698

>  <SCORE.INTER.norm>
-0.124307

>  <SCORE.INTRA>
-5.14312

>  <SCORE.INTRA.DIHEDRAL>
-11.9371

>  <SCORE.INTRA.DIHEDRAL.0>
26.3805

>  <SCORE.INTRA.POLAR>
0

>  <SCORE.INTRA.POLAR.0>
0

>  <SCORE.INTRA.REPUL>
0

>  <SCORE.INTRA.REPUL.0>
0

>  <SCORE.INTRA.SOLV>
2.6701

>  <SCORE.INTRA.SOLV.lig_0>
-98.5587

>  <SCORE.INTRA.VDW>
-0.509629

>  <SCORE.INTRA.VDW.0>
-2.91167

>  <SCORE.INTRA.norm>
-0.142864

>  <SCORE.RESTR>
0

>  <SCORE.RESTR.CAVITY>
0

>  <SCORE.RESTR.norm>
0

>  <SCORE.SYSTEM>
0

>  <SCORE.SYSTEM.CONST>
0

>  <SCORE.SYSTEM.DIHEDRAL>
0

>  <SCORE.SYSTEM.SOLV>
0

>  <SCORE.SYSTEM.norm>
0

>  <SCORE.heavy>
36

>  <SCORE.norm>
-0.267171

>  <RMSD>
8.767

$$$$
2f4u_lig
 OpenBabel11021811433D
libRbt.so/2013.1/901 2013/11/27
 36 37  0  0  0  0  0  0  0  0999 V2000
   37.9277    5.1657   10.0886 C   0  0  2  0  0  0  0  0  0  0  0  0
   37.1129    5.7944    9.0309 O   0  0  0  0  0  0  0  0  0  0  0  0
   38.1950    8.4507    5.7646 C   0  0  2  0  0  0  0  0  0  0  0  0
   38.6310    9.6837    5.0544 N   0  0  0  0  0  0  0  0  0  0  0  0
   37.3766    3.7185   10.2781 C   0  0  2  0  0  0  0  0  0  0  0  0
   37.4359    2.9211    9.0392 N   0  0  0  0  0  0  0  0  0  0  0  0
   36.8869    8.6917    6.5978 C   0  0  0  0  0  0  0  0  0  0  0  0
   37.3888   10.2332    3.8958 C   0  0  0  0  0  0  0  0  0  0  0  0
   38.4189   11.2389    3.4869 C   0  0  1  0  0  0  0  0  0  0  0  0
   38.2264   11.5015    1.9892 C   0  0  0  0  0  0  0  0  0  0  0  0
   36.8954   12.1650    1.5899 C   0  0  0  0  0  0  0  0  0  0  0  0
   36.8564   12.2904    0.1315 N   0  0  0  0  0  0  0  0  0  0  0  0
   38.2102   12.4500    4.1607 O   0  0  0  0  0  0  0  0  0  0  0  0
   41.3249    7.3375    4.8655 C   0  0  0  0  0  0  0  0  0  0  0  0
   41.4734    5.8310    5.0168 C   0  0  0  0  0  0  0  0  0  0  0  0
   35.9009    3.8035   10.7917 C   0  0  1  0  0  0  0  0  0  0  0  0
   42.5916    5.4184    5.8888 N   0  0  0  0  0  0  0  0  0  0  0  0
   35.3459    2.5031   10.9711 O   0  0  0  0  0  0  0  0  0  0  0  0
   36.4747    7.4240    7.3735 C   0  0  2  0  0  0  0  0  0  0  0  0
   35.2858    7.6616    8.1825 N   0  0  0  0  0  0  0  0  0  0  0  0
   43.2036    3.9604    7.8123 C   0  0  0  0  0  0  0  0  0  0  0  0
   42.8450    2.6180    7.1068 C   0  0  0  0  0  0  0  0  0  0  0  0
   42.3414    5.1559    7.3296 C   0  0  0  0  0  0  0  0  0  0  0  0
   43.5981    1.4657    7.6867 N   0  0  0  0  0  0  0  0  0  0  0  0
   36.3989    9.9180    3.6094 O   0  0  0  0  0  0  0  0  0  0  0  0
   35.8954    4.6046   12.1090 C   0  0  2  0  0  0  0  0  0  0  0  0
   34.5868    4.7465   12.6559 O   0  0  0  0  0  0  0  0  0  0  0  0
   37.5946    6.9800    8.2931 C   0  0  2  0  0  0  0  0  0  0  0  0
   36.5117    6.0003   11.9049 C   0  0  2  0  0  0  0  0  0  0  0  0
   37.8236    5.9033   11.3394 O   0  0  0  0  0  0  0  0  0  0  0  0
   38.9008    6.6911    7.4477 C   0  0  2  0  0  0  0  0  0  0  0  0
   39.9677    6.2830    8.3606 O   0  0  0  0  0  0  0  0  0  0  0  0
   36.5929    6.7711   13.1954 C   0  0  0  0  0  0  0  0  0  0  0  0
   37.0611    8.0454   12.9670 O   0  0  0  0  0  0  0  0  0  0  0  0
   39.3096    7.9978    6.6870 C   0  0  1  0  0  0  0  0  0  0  0  0
   40.4640    7.8182    5.9193 O   0  0  0  0  0  0  0  0  0  0  0  0
  1  2  1  6  0  0  0
  1  5  1  0  0  0  0
  1 30  1  0  0  0  0
  3  4  1  1  0  0  0
  3  7  1  0  0  0  0
  3 35  1  0  0  0  0
  5  6  1  6  0  0  0
  5 16  1  0  0  0  0
  7 19  1  0  0  0  0
  8  4  1  0  0  0  0
  8 25  2  0  0  0  0
  9  8  1  1  0  0  0
  9 10  1  0  0  0  0
  9 13  1  0  0  0  0
 10 11  1  0  0  0  0
 11 12  1  0  0  0  0
 14 15  1  0  0  0  0
 14 36  1  0  0  0  0
 15 17  1  0  0  0  0
 16 18  1  1  0  0  0
 16 26  1  0  0  0  0
 17 23  1  0  0  0  0
 19 20  1  1  0  0  0
 19 28  1  0  0  0  0
 21 22  1  0  0  0  0
 21 23  1  0  0  0  0
 22 24  1  0  0  0  0
 26 27  1  6  0  0  0
 26 29  1  0  0  0  0
 28  2  1  6  0  0  0
 28 31  1  0  0  0  0
 29 30  1  0  0  0  0
 29 33  1  1  0  0  0
 31 32  1  1  0  0  0
 31 35  1  0  0  0  0
 33 34  1  0  0  0  0
 35 36  1  6  0  0  0
M  END
>  <CHROM.1>
-160.44641489,-61.27723591,147.52467956,64.99808172,-177.70925121,-88.96868307
-64.74738461,93.79796631,142.77237107,-174.43733816,-63.55108188,-175.50492113
-175.85972449,-53.60830131,38.35296971,6.92294786,7.49804939,1.64918446,-0.55672362
2.28443964

>  <Name>
2f4u_lig

>  <RI>
0

>  <Rbt.Current_Directory>
/home/itssahil/PROJECTS/Mol_Feturizer/New_Systems/rnas/2f4u

>  <Rbt.Executable>
rbdock ($Id: //depot/dev/client3/rdock/2013.1/src/exe/rbdock.cxx#4 $)

>  <Rbt.Library>
libRbt.so (2013.1, Build901 2013/11/27)

>  <Rbt.Parameter_File>
/export/apps/rDock/src/rDock_2013.1_src/data/scripts/dock_solv.prm

>  <Rbt.Receptor>
prm/pocket_docking_4.prm

>  <SCORE>
-18.4233

>  <SCORE.INTER>
-8.80983

>  <SCORE.INTER.CONST>
1

>  <SCORE.INTER.POLAR>
-1.85586

>  <SCORE.INTER.ROT>
14

>  <SCORE.INTER.SOLV>
12.2985

>  <SCORE.INTER.VDW>
-16.7199

>  <SCORE.INTER.norm>
-0.244718

>  <SCORE.INTRA>
-9.61347

>  <SCORE.INTRA.DIHEDRAL>
-18.0982

>  <SCORE.INTRA.DIHEDRAL.0>
26.3805

>  <SCORE.INTRA.POLAR>
0

>  <SCORE.INTRA.POLAR.0>
0

>  <SCORE.INTRA.REPUL>
0

>  <SCORE.INTRA.REPUL.0>
0

>  <SCORE.INTRA.SOLV>
0.352073

>  <SCORE.INTRA.SOLV.lig_0>
-98.5587

>  <SCORE.INTRA.VDW>
-0.740413

>  <SCORE.INTRA.VDW.0>
-2.91167

>  <SCORE.INTRA.norm>
-0.267041

>  <SCORE.RESTR>
0

>  <SCORE.RESTR.CAVITY>
0

>  <SCORE.RESTR.norm>
0

>  <SCORE.SYSTEM>
0

>  <SCORE.SYSTEM.CONST>
0

>  <SCORE.SYSTEM.DIHEDRAL>
0

>  <SCORE.SYSTEM.SOLV>
0

>  <SCORE.SYSTEM.norm>
0

>  <SCORE.heavy>
36

>  <SCORE.norm>
-0.511758

>  <RMSD>
8.768

$$$$
2f4u_lig
 OpenBabel11021811433D
libRbt.so/2013.1/901 2013/11/27
 36 37  0  0  0  0  0  0  0  0999 V2000
   32.0732   10.0000   10.7455 C   0  0  2  0  0  0  0  0  0  0  0  0
   33.5089    9.7032   10.9147 O   0  0  0  0  0  0  0  0  0  0  0  0
   36.5051    8.1152    8.1951 C   0  0  2  0  0  0  0  0  0  0  0  0
   37.2219    7.1507    7.3172 N   0  0  0  0  0  0  0  0  0  0  0  0
   31.7596   11.2292   11.6538 C   0  0  2  0  0  0  0  0  0  0  0  0
   32.5739   12.4102   11.3126 N   0  0  0  0  0  0  0  0  0  0  0  0
   36.3992    7.5906    9.6705 C   0  0  0  0  0  0  0  0  0  0  0  0
   38.8264    6.7416    7.9847 C   0  0  0  0  0  0  0  0  0  0  0  0
   39.0138    5.9985    6.6992 C   0  0  1  0  0  0  0  0  0  0  0  0
   40.2743    6.5592    6.0313 C   0  0  0  0  0  0  0  0  0  0  0  0
   40.5961    6.0032    4.6318 C   0  0  0  0  0  0  0  0  0  0  0  0
   41.8569    6.5914    4.1755 N   0  0  0  0  0  0  0  0  0  0  0  0
   39.2367    4.6381    6.9522 O   0  0  0  0  0  0  0  0  0  0  0  0
   35.5198    8.7482    4.8993 C   0  0  0  0  0  0  0  0  0  0  0  0
   34.4240    7.9420    4.2181 C   0  0  0  0  0  0  0  0  0  0  0  0
   31.9968   10.8268   13.1472 C   0  0  1  0  0  0  0  0  0  0  0  0
   34.1469    6.6391    4.8558 N   0  0  0  0  0  0  0  0  0  0  0  0
   31.7337   11.9223   14.0202 O   0  0  0  0  0  0  0  0  0  0  0  0
   35.6070    8.5714   10.5588 C   0  0  2  0  0  0  0  0  0  0  0  0
   35.4700    8.0624   11.9177 N   0  0  0  0  0  0  0  0  0  0  0  0
   32.7310    5.0224    6.1133 C   0  0  0  0  0  0  0  0  0  0  0  0
   31.5399    4.8088    7.0951 C   0  0  0  0  0  0  0  0  0  0  0  0
   33.0225    6.5171    5.8193 C   0  0  0  0  0  0  0  0  0  0  0  0
   31.8438    5.3311    8.4612 N   0  0  0  0  0  0  0  0  0  0  0  0
   39.3860    6.9898    8.8716 O   0  0  0  0  0  0  0  0  0  0  0  0
   31.0928    9.6202   13.4698 C   0  0  2  0  0  0  0  0  0  0  0  0
   31.2431    9.1696   14.8136 O   0  0  0  0  0  0  0  0  0  0  0  0
   34.2190    8.7939    9.9923 C   0  0  2  0  0  0  0  0  0  0  0  0
   31.3759    8.4505   12.5100 C   0  0  2  0  0  0  0  0  0  0  0  0
   31.2524    8.8661   11.1454 O   0  0  0  0  0  0  0  0  0  0  0  0
   34.3252    9.3678    8.5213 C   0  0  2  0  0  0  0  0  0  0  0  0
   32.9743    9.5552    7.9941 O   0  0  0  0  0  0  0  0  0  0  0  0
   30.4482    7.2899   12.7521 C   0  0  0  0  0  0  0  0  0  0  0  0
   29.1382    7.6762   12.5798 O   0  0  0  0  0  0  0  0  0  0  0  0
   35.1149    8.3453    7.6359 C   0  0  1  0  0  0  0  0  0  0  0  0
   35.2441    8.7855    6.3154 O   0  0  0  0  0  0  0  0  0  0  0  0
  1  2  1  1  0  0  0
  1  5  1  0  0  0  0
  1 30  1  0  0  0  0
  3  4  1  6  0  0  0
  3  7  1  0  0  0  0
  3 35  1  0  0  0  0
  5  6  1  6  0  0  0
  5 16  1  0  0  0  0
  7 19  1  0  0  0  0
  8  4  1  0  0  0  0
  8 25  2  0  0  0  0
  9  8  1  1  0  0  0
  9 10  1  0  0  0  0
  9 13  1  0  0  0  0
 10 11  1  0  0  0  0
 11 12  1  0  0  0  0
 14 15  1  0  0  0  0
 14 36  1  0  0  0  0
 15 17  1  0  0  0  0
 16 18  1  1  0  0  0
 16 26  1  0  0  0  0
 17 23  1  0  0  0  0
 19 20  1  1  0  0  0
 19 28  1  0  0  0  0
 21 22  1  0  0  0  0
 21 23  1  0  0  0  0
 22 24  1  0  0  0  0
 26 27  1  1  0  0  0
 26 29  1  0  0  0  0
 28  2  1  1  0  0  0
 28 31  1  0  0  0  0
 29 30  1  0  0  0  0
 29 33  1  1  0  0  0
 31 32  1  6  0  0  0
 31 35  1  0  0  0  0
 33 34  1  0  0  0  0
 35 36  1  6  0  0  0
M  END
>  <CHROM.1>
-166.55405252,-54.65831683,123.17272975,-175.56151091,-177.19599049,-49.19683162
71.46512080,96.94455746,167.62710873,-65.81817157,-178.74383212,-172.57871861
59.55955312,70.95214610,34.51574591,8.05916930,9.02487953,-2.34395775,-0.07538315
-2.07689988

>  <Name>
2f4u_lig

>  <RI>
0

>  <Rbt.Current_Directory>
/home/itssahil/PROJECTS/Mol_Feturizer/New_Systems/rnas/2f4u

>  <Rbt.Executable>
rbdock ($Id: //depot/dev/client3/rdock/2013.1/src/exe/rbdock.cxx#4 $)

>  <Rbt.Library>
libRbt.so (2013.1, Build901 2013/11/27)

>  <Rbt.Parameter_File>
/export/apps/rDock/src/rDock_2013.1_src/data/scripts/dock_solv.prm

>  <Rbt.Receptor>
prm/pocket_docking_8.prm

>  <SCORE>
-12.4364

>  <SCORE.INTER>
-0.95939

>  <SCORE.INTER.CONST>
1

>  <SCORE.INTER.POLAR>
-0.188069

>  <SCORE.INTER.ROT>
14

>  <SCORE.INTER.SOLV>
12.4478

>  <SCORE.INTER.VDW>
-17.0953

>  <SCORE.INTER.norm>
-0.0266497

>  <SCORE.INTRA>
-11.477

>  <SCORE.INTRA.DIHEDRAL>
-19.9755

>  <SCORE.INTRA.DIHEDRAL.0>
26.3805

>  <SCORE.INTRA.POLAR>
0

>  <SCORE.INTRA.POLAR.0>
0

>  <SCORE.INTRA.REPUL>
0

>  <SCORE.INTRA.REPUL.0>
0

>  <SCORE.INTRA.SOLV>
0.765352

>  <SCORE.INTRA.SOLV.lig_0>
-98.5587

>  <SCORE.INTRA.VDW>
-1.87195

>  <SCORE.INTRA.VDW.0>
-2.91167

>  <SCORE.INTRA.norm>
-0.318807

>  <SCORE.RESTR>
0

>  <SCORE.RESTR.CAVITY>
0

>  <SCORE.RESTR.norm>
0

>  <SCORE.SYSTEM>
0

>  <SCORE.SYSTEM.CONST>
0

>  <SCORE.SYSTEM.DIHEDRAL>
0

>  <SCORE.SYSTEM.SOLV>
0

>  <SCORE.SYSTEM.norm>
0

>  <SCORE.heavy>
36

>  <SCORE.norm>
-0.345457

>  <RMSD>
8.771

$$$$
2f4u_lig
 OpenBabel11021811433D
libRbt.so/2013.1/901 2013/11/27
 36 37  0  0  0  0  0  0  0  0999 V2000
   46.0753    3.7453    6.4952 C   0  0  2  0  0  0  0  0  0  0  0  0
   44.9081    4.2644    7.2342 O   0  0  0  0  0  0  0  0  0  0  0  0
   41.7445    7.0048    6.0608 C   0  0  2  0  0  0  0  0  0  0  0  0
   40.6079    7.5757    5.2881 N   0  0  0  0  0  0  0  0  0  0  0  0
   45.6373    2.3887    5.8614 C   0  0  2  0  0  0  0  0  0  0  0  0
   44.4783    2.5302    4.9609 N   0  0  0  0  0  0  0  0  0  0  0  0
   43.0205    6.8188    5.1661 C   0  0  0  0  0  0  0  0  0  0  0  0
   39.5123    8.5066    6.3466 C   0  0  0  0  0  0  0  0  0  0  0  0
   38.6523    8.6101    5.1262 C   0  0  1  0  0  0  0  0  0  0  0  0
   37.3658    7.8271    5.4107 C   0  0  0  0  0  0  0  0  0  0  0  0
   36.3114    7.8381    4.2885 C   0  0  0  0  0  0  0  0  0  0  0  0
   35.1877    6.9928    4.6968 N   0  0  0  0  0  0  0  0  0  0  0  0
   38.2945    9.9455    4.8955 O   0  0  0  0  0  0  0  0  0  0  0  0
   39.3379    6.2693    8.5043 C   0  0  0  0  0  0  0  0  0  0  0  0
   39.9375    5.7159    9.7885 C   0  0  0  0  0  0  0  0  0  0  0  0
   45.3048    1.3790    7.0097 C   0  0  1  0  0  0  0  0  0  0  0  0
   39.1180    5.9604   10.9925 N   0  0  0  0  0  0  0  0  0  0  0  0
   44.8873    0.1228    6.4814 O   0  0  0  0  0  0  0  0  0  0  0  0
   44.1744    6.1757    5.9620 C   0  0  2  0  0  0  0  0  0  0  0  0
   45.3440    5.9615    5.1190 N   0  0  0  0  0  0  0  0  0  0  0  0
   37.6377    4.8528   12.6604 C   0  0  0  0  0  0  0  0  0  0  0  0
   36.2802    4.1403   12.9399 C   0  0  0  0  0  0  0  0  0  0  0  0
   37.8360    5.2304   11.1692 C   0  0  0  0  0  0  0  0  0  0  0  0
   35.1157    5.0387   12.6790 N   0  0  0  0  0  0  0  0  0  0  0  0
   39.4864    8.7836    7.3878 O   0  0  0  0  0  0  0  0  0  0  0  0
   46.5575    1.2288    7.8959 C   0  0  2  0  0  0  0  0  0  0  0  0
   46.3520    0.3304    8.9833 O   0  0  0  0  0  0  0  0  0  0  0  0
   43.7443    4.8368    6.5273 C   0  0  2  0  0  0  0  0  0  0  0  0
   47.0068    2.5942    8.4467 C   0  0  2  0  0  0  0  0  0  0  0  0
   47.2080    3.5337    7.3850 O   0  0  0  0  0  0  0  0  0  0  0  0
   42.4861    5.0304    7.4676 C   0  0  2  0  0  0  0  0  0  0  0  0
   42.0826    3.7230    7.9833 O   0  0  0  0  0  0  0  0  0  0  0  0
   48.2764    2.4848    9.2480 C   0  0  0  0  0  0  0  0  0  0  0  0
   49.2691    1.8935    8.4997 O   0  0  0  0  0  0  0  0  0  0  0  0
   41.3235    5.6649    6.6315 C   0  0  1  0  0  0  0  0  0  0  0  0
   40.1721    5.8612    7.3997 O   0  0  0  0  0  0  0  0  0  0  0  0
  1  2  1  1  0  0  0
  1  5  1  0  0  0  0
  1 30  1  0  0  0  0
  3  4  1  6  0  0  0
  3  7  1  0  0  0  0
  3 35  1  0  0  0  0
  5  6  1  6  0  0  0
  5 16  1  0  0  0  0
  7 19  1  0  0  0  0
  8  4  1  0  0  0  0
  8 25  2  0  0  0  0
  9  8  1  1  0  0  0
  9 10  1  0  0  0  0
  9 13  1  0  0  0  0
 10 11  1  0  0  0  0
 11 12  1  0  0  0  0
 14 15  1  0  0  0  0
 14 36  1  0  0  0  0
 15 17  1  0  0  0  0
 16 18  1  6  0  0  0
 16 26  1  0  0  0  0
 17 23  1  0  0  0  0
 19 20  1  6  0  0  0
 19 28  1  0  0  0  0
 21 22  1  0  0  0  0
 21 23  1  0  0  0  0
 22 24  1  0  0  0  0
 26 27  1  1  0  0  0
 26 29  1  0  0  0  0
 28  2  1  1  0  0  0
 28 31  1  0  0  0  0
 29 30  1  0  0  0  0
 29 33  1  6  0  0  0
 31 32  1  6  0  0  0
 31 35  1  0  0  0  0
 33 34  1  0  0  0  0
 35 36  1  1  0  0  0
M  END
>  <CHROM.1>
-73.82484741,-152.01796122,113.99675949,178.27424059,177.13686117,-174.98420832
-51.52052622,70.60558666,142.13805609,-64.86355995,177.31933358,-71.77492721
55.27404750,-73.82748614,41.99127101,4.99686202,7.48987903,-0.22476979,0.43303904
-0.99273059

>  <Name>
2f4u_lig

>  <RI>
0

>  <Rbt.Current_Directory>
/home/itssahil/PROJECTS/Mol_Feturizer/New_Systems/rnas/2f4u

>  <Rbt.Executable>
rbdock ($Id: //depot/dev/client3/rdock/2013.1/src/exe/rbdock.cxx#4 $)

>  <Rbt.Library>
libRbt.so (2013.1, Build901 2013/11/27)

>  <Rbt.Parameter_File>
/export/apps/rDock/src/rDock_2013.1_src/data/scripts/dock_solv.prm

>  <Rbt.Receptor>
prm/pocket_docking_8.prm

>  <SCORE>
-15.3035

>  <SCORE.INTER>
-7.85407

>  <SCORE.INTER.CONST>
1

>  <SCORE.INTER.POLAR>
-1.94896

>  <SCORE.INTER.ROT>
14

>  <SCORE.INTER.SOLV>
11.7028

>  <SCORE.INTER.VDW>
-15.5738

>  <SCORE.INTER.norm>
-0.218169

>  <SCORE.INTRA>
-7.44941

>  <SCORE.INTRA.DIHEDRAL>
-19.2899

>  <SCORE.INTRA.DIHEDRAL.0>
26.3805

>  <SCORE.INTRA.POLAR>
0

>  <SCORE.INTRA.POLAR.0>
0

>  <SCORE.INTRA.REPUL>
0

>  <SCORE.INTRA.REPUL.0>
0

>  <SCORE.INTRA.SOLV>
4.33715

>  <SCORE.INTRA.SOLV.lig_0>
-98.5587

>  <SCORE.INTRA.VDW>
0.0269796

>  <SCORE.INTRA.VDW.0>
-2.91167

>  <SCORE.INTRA.norm>
-0.206928

>  <SCORE.RESTR>
0

>  <SCORE.RESTR.CAVITY>
0

>  <SCORE.RESTR.norm>
0

>  <SCORE.SYSTEM>
0

>  <SCORE.SYSTEM.CONST>
0

>  <SCORE.SYSTEM.DIHEDRAL>
0

>  <SCORE.SYSTEM.SOLV>
0

>  <SCORE.SYSTEM.norm>
0

>  <SCORE.heavy>
36

>  <SCORE.norm>
-0.425097

>  <RMSD>
8.772

$$$$
2f4u_lig
 OpenBabel11021811433D
libRbt.so/2013.1/901 2013/11/27
 36 37  0  0  0  0  0  0  0  0999 V2000
   38.2829    6.4259   10.1355 C   0  0  2  0  0  0  0  0  0  0  0  0
   37.0388    6.2693    9.3572 O   0  0  0  0  0  0  0  0  0  0  0  0
   35.3716    8.3900    5.9487 C   0  0  2  0  0  0  0  0  0  0  0  0
   35.2859    9.0230    4.6045 N   0  0  0  0  0  0  0  0  0  0  0  0
   38.3833    5.1841   11.0746 C   0  0  2  0  0  0  0  0  0  0  0  0
   38.3963    3.9100   10.3325 N   0  0  0  0  0  0  0  0  0  0  0  0
   36.5006    9.0380    6.8254 C   0  0  0  0  0  0  0  0  0  0  0  0
   36.8601    8.9660    3.7641 C   0  0  0  0  0  0  0  0  0  0  0  0
   36.1777    9.8061    2.7305 C   0  0  1  0  0  0  0  0  0  0  0  0
   37.2526   10.6813    2.0762 C   0  0  0  0  0  0  0  0  0  0  0  0
   37.9641   11.6796    3.0082 C   0  0  0  0  0  0  0  0  0  0  0  0
   38.9448   12.4319    2.2233 N   0  0  0  0  0  0  0  0  0  0  0  0
   35.6253    8.9937    1.7309 O   0  0  0  0  0  0  0  0  0  0  0  0
   33.8504    5.3828    4.2751 C   0  0  0  0  0  0  0  0  0  0  0  0
   33.0963    4.5587    5.3080 C   0  0  0  0  0  0  0  0  0  0  0  0
   37.1809    5.2100   12.0758 C   0  0  1  0  0  0  0  0  0  0  0  0
   32.0871    5.3215    6.0701 N   0  0  0  0  0  0  0  0  0  0  0  0
   37.2205    4.0865   12.9519 O   0  0  0  0  0  0  0  0  0  0  0  0
   36.6180    8.3386    8.1950 C   0  0  2  0  0  0  0  0  0  0  0  0
   37.6965    8.9108    8.9910 N   0  0  0  0  0  0  0  0  0  0  0  0
   31.4429    5.2704    8.4748 C   0  0  0  0  0  0  0  0  0  0  0  0
   30.5252    4.6534    9.5727 C   0  0  0  0  0  0  0  0  0  0  0  0
   31.2468    4.6248    7.0782 C   0  0  0  0  0  0  0  0  0  0  0  0
   30.8075    5.2284   10.9222 N   0  0  0  0  0  0  0  0  0  0  0  0
   37.8377    8.5625    3.9708 O   0  0  0  0  0  0  0  0  0  0  0  0
   37.2355    6.5369   12.8590 C   0  0  2  0  0  0  0  0  0  0  0  0
   36.1694    6.6612   13.7969 O   0  0  0  0  0  0  0  0  0  0  0  0
   36.8958    6.8601    8.0110 C   0  0  2  0  0  0  0  0  0  0  0  0
   37.2082    7.7412   11.9006 C   0  0  2  0  0  0  0  0  0  0  0  0
   38.2555    7.6462   10.9288 O   0  0  0  0  0  0  0  0  0  0  0  0
   35.7331    6.1964    7.1670 C   0  0  2  0  0  0  0  0  0  0  0  0
   36.0360    4.7769    6.9899 O   0  0  0  0  0  0  0  0  0  0  0  0
   37.3438    9.0468   12.6375 C   0  0  0  0  0  0  0  0  0  0  0  0
   36.1948    9.3232   13.3436 O   0  0  0  0  0  0  0  0  0  0  0  0
   35.6486    6.9097    5.7752 C   0  0  1  0  0  0  0  0  0  0  0  0
   34.6416    6.3698    4.9697 O   0  0  0  0  0  0  0  0  0  0  0  0
  1  2  1  1  0  0  0
  1  5  1  0  0  0  0
  1 30  1  0  0  0  0
  3  4  1  6  0  0  0
  3  7  1  0  0  0  0
  3 35  1  0  0  0  0
  5  6  1  6  0  0  0
  5 16  1  0  0  0  0
  7 19  1  0  0  0  0
  8  4  1  0  0  0  0
  8 25  2  0  0  0  0
  9  8  1  1  0  0  0
  9 10  1  0  0  0  0
  9 13  1  0  0  0  0
 10 11  1  0  0  0  0
 11 12  1  0  0  0  0
 14 15  1  0  0  0  0
 14 36  1  0  0  0  0
 15 17  1  0  0  0  0
 16 18  1  1  0  0  0
 16 26  1  0  0  0  0
 17 23  1  0  0  0  0
 19 20  1  1  0  0  0
 19 28  1  0  0  0  0
 21 22  1  0  0  0  0
 21 23  1  0  0  0  0
 22 24  1  0  0  0  0
 26 27  1  1  0  0  0
 26 29  1  0  0  0  0
 28  2  1  1  0  0  0
 28 31  1  0  0  0  0
 29 30  1  0  0  0  0
 29 33  1  1  0  0  0
 31 32  1  6  0  0  0
 31 35  1  0  0  0  0
 33 34  1  0  0  0  0
 35 36  1  6  0  0  0
M  END
>  <CHROM.1>
-152.20857338,55.41336718,150.66158277,-62.76172855,-179.67234699,65.71597453
68.83008639,177.89044151,121.21974406,175.92732149,176.32699384,-78.14818204
-71.36724118,-173.09778878,35.91780721,7.18286934,7.80663116,-1.59507604
-0.61310440,-1.22900733

>  <Name>
2f4u_lig

>  <RI>
0

>  <Rbt.Current_Directory>
/home/itssahil/PROJECTS/Mol_Feturizer/New_Systems/rnas/2f4u

>  <Rbt.Executable>
rbdock ($Id: //depot/dev/client3/rdock/2013.1/src/exe/rbdock.cxx#4 $)

>  <Rbt.Library>
libRbt.so (2013.1, Build901 2013/11/27)

>  <Rbt.Parameter_File>
/export/apps/rDock/src/rDock_2013.1_src/data/scripts/dock_solv.prm

>  <Rbt.Receptor>
prm/pocket_docking_8.prm

>  <SCORE>
-17.4151

>  <SCORE.INTER>
-10.1157

>  <SCORE.INTER.CONST>
1

>  <SCORE.INTER.POLAR>
-1.27126

>  <SCORE.INTER.ROT>
14

>  <SCORE.INTER.SOLV>
13.3548

>  <SCORE.INTER.VDW>
-19.8912

>  <SCORE.INTER.norm>
-0.280991

>  <SCORE.INTRA>
-7.29938

>  <SCORE.INTRA.DIHEDRAL>
-17.6349

>  <SCORE.INTRA.DIHEDRAL.0>
26.3805

>  <SCORE.INTRA.POLAR>
0

>  <SCORE.INTRA.POLAR.0>
0

>  <SCORE.INTRA.REPUL>
0

>  <SCORE.INTRA.REPUL.0>
0

>  <SCORE.INTRA.SOLV>
3.52093

>  <SCORE.INTRA.SOLV.lig_0>
-98.5587

>  <SCORE.INTRA.VDW>
-0.242372

>  <SCORE.INTRA.VDW.0>
-2.91167

>  <SCORE.INTRA.norm>
-0.202761

>  <SCORE.RESTR>
0

>  <SCORE.RESTR.CAVITY>
0

>  <SCORE.RESTR.norm>
0

>  <SCORE.SYSTEM>
0

>  <SCORE.SYSTEM.CONST>
0

>  <SCORE.SYSTEM.DIHEDRAL>
0

>  <SCORE.SYSTEM.SOLV>
0

>  <SCORE.SYSTEM.norm>
0

>  <SCORE.heavy>
36

>  <SCORE.norm>
-0.483752

>  <RMSD>
8.775

$$$$
2f4u_lig
 OpenBabel11021811433D
libRbt.so/2013.1/901 2013/11/27
 36 37  0  0  0  0  0  0  0  0999 V2000
   40.7778    5.0482    6.7499 C   0  0  2  0  0  0  0  0  0  0  0  0
   40.8425    5.9385    7.9251 O   0  0  0  0  0  0  0  0  0  0  0  0
   36.6456    6.6149    8.8327 C   0  0  2  0  0  0  0  0  0  0  0  0
   35.4321    7.0971    9.5467 N   0  0  0  0  0  0  0  0  0  0  0  0
   42.2402    4.5941    6.4508 C   0  0  2  0  0  0  0  0  0  0  0  0
   42.8635    3.8979    7.5914 N   0  0  0  0  0  0  0  0  0  0  0  0
   37.5264    5.6887    9.7434 C   0  0  0  0  0  0  0  0  0  0  0  0
   35.8673    8.1807   10.8972 C   0  0  0  0  0  0  0  0  0  0  0  0
   34.4061    8.1350   11.2173 C   0  0  1  0  0  0  0  0  0  0  0  0
   34.2340    7.1953   12.4159 C   0  0  0  0  0  0  0  0  0  0  0  0
   32.7816    6.8611   12.8035 C   0  0  0  0  0  0  0  0  0  0  0  0
   32.8028    5.8463   13.8587 N   0  0  0  0  0  0  0  0  0  0  0  0
   33.9532    9.4037   11.6039 O   0  0  0  0  0  0  0  0  0  0  0  0
   35.8268    9.0564    6.4891 C   0  0  0  0  0  0  0  0  0  0  0  0
   36.7103    9.1394    5.2533 C   0  0  0  0  0  0  0  0  0  0  0  0
   43.0885    5.8495    6.0596 C   0  0  1  0  0  0  0  0  0  0  0  0
   36.0099    9.6060    4.0398 N   0  0  0  0  0  0  0  0  0  0  0  0
   44.4400    5.4887    5.7862 O   0  0  0  0  0  0  0  0  0  0  0  0
   38.8083    5.2395    9.0131 C   0  0  2  0  0  0  0  0  0  0  0  0
   39.6478    4.4166    9.8747 N   0  0  0  0  0  0  0  0  0  0  0  0
   36.2971   10.0503    1.6066 C   0  0  0  0  0  0  0  0  0  0  0  0
   37.3448   11.1838    1.8202 C   0  0  0  0  0  0  0  0  0  0  0  0
   36.3160    8.9789    2.7280 C   0  0  0  0  0  0  0  0  0  0  0  0
   37.3419   12.1644    0.6934 N   0  0  0  0  0  0  0  0  0  0  0  0
   36.7772    8.5951   11.2996 O   0  0  0  0  0  0  0  0  0  0  0  0
   42.4256    6.5163    4.8376 C   0  0  2  0  0  0  0  0  0  0  0  0
   43.1233    7.6823    4.4070 O   0  0  0  0  0  0  0  0  0  0  0  0
   39.6155    6.4447    8.5734 C   0  0  2  0  0  0  0  0  0  0  0  0
   40.9625    6.8862    5.1410 C   0  0  2  0  0  0  0  0  0  0  0  0
   40.2288    5.7434    5.5946 O   0  0  0  0  0  0  0  0  0  0  0  0
   38.7434    7.3549    7.6166 C   0  0  2  0  0  0  0  0  0  0  0  0
   39.5393    8.5167    7.2235 O   0  0  0  0  0  0  0  0  0  0  0  0
   40.2693    7.4639    3.9361 C   0  0  0  0  0  0  0  0  0  0  0  0
   40.8627    8.6479    3.5603 O   0  0  0  0  0  0  0  0  0  0  0  0
   37.4597    7.8139    8.3878 C   0  0  1  0  0  0  0  0  0  0  0  0
   36.6400    8.6296    7.6023 O   0  0  0  0  0  0  0  0  0  0  0  0
  1  2  1  1  0  0  0
  1  5  1  0  0  0  0
  1 30  1  0  0  0  0
  3  4  1  1  0  0  0
  3  7  1  0  0  0  0
  3 35  1  0  0  0  0
  5  6  1  1  0  0  0
  5 16  1  0  0  0  0
  7 19  1  0  0  0  0
  8  4  1  0  0  0  0
  8 25  2  0  0  0  0
  9  8  1  1  0  0  0
  9 10  1  0  0  0  0
  9 13  1  0  0  0  0
 10 11  1  0  0  0  0
 11 12  1  0  0  0  0
 14 15  1  0  0  0  0
 14 36  1  0  0  0  0
 15 17  1  0  0  0  0
 16 18  1  6  0  0  0
 16 26  1  0  0  0  0
 17 23  1  0  0  0  0
 19 20  1  1  0  0  0
 19 28  1  0  0  0  0
 21 22  1  0  0  0  0
 21 23  1  0  0  0  0
 22 24  1  0  0  0  0
 26 27  1  1  0  0  0
 26 29  1  0  0  0  0
 28  2  1  6  0  0  0
 28 31  1  0  0  0  0
 29 30  1  0  0  0  0
 29 33  1  6  0  0  0
 31 32  1  1  0  0  0
 31 35  1  0  0  0  0
 33 34  1  0  0  0  0
 35 36  1  6  0  0  0
M  END
>  <CHROM.1>
-173.57382848,66.08202242,103.37952299,-172.52895059,173.76836615,-178.29208042
-63.67375879,-140.43260481,-142.55737770,177.45971241,60.43308195,58.47450591
-63.56006736,-66.31099170,38.32916148,7.41461890,7.23329971,-0.74750754,-0.47278250
2.05013488

>  <Name>
2f4u_lig

>  <RI>
0

>  <Rbt.Current_Directory>
/home/itssahil/PROJECTS/Mol_Feturizer/New_Systems/rnas/2f4u

>  <Rbt.Executable>
rbdock ($Id: //depot/dev/client3/rdock/2013.1/src/exe/rbdock.cxx#4 $)

>  <Rbt.Library>
libRbt.so (2013.1, Build901 2013/11/27)

>  <Rbt.Parameter_File>
/export/apps/rDock/src/rDock_2013.1_src/data/scripts/dock_solv.prm

>  <Rbt.Receptor>
prm/pocket_docking_5.prm

>  <SCORE>
-12.9239

>  <SCORE.INTER>
-0.721153

>  <SCORE.INTER.CONST>
1

>  <SCORE.INTER.POLAR>
-0.130742

>  <SCORE.INTER.ROT>
14

>  <SCORE.INTER.SOLV>
13.4326

>  <SCORE.INTER.VDW>
-17.4558

>  <SCORE.INTER.norm>
-0.020032

>  <SCORE.INTRA>
-12.2027

>  <SCORE.INTRA.DIHEDRAL>
-21.4665

>  <SCORE.INTRA.DIHEDRAL.0>
26.3805

>  <SCORE.INTRA.POLAR>
0

>  <SCORE.INTRA.POLAR.0>
0

>  <SCORE.INTRA.REPUL>
0

>  <SCORE.INTRA.REPUL.0>
0

>  <SCORE.INTRA.SOLV>
1.03726

>  <SCORE.INTRA.SOLV.lig_0>
-98.5587

>  <SCORE.INTRA.VDW>
-1.9881

>  <SCORE.INTRA.VDW.0>
-2.91167

>  <SCORE.INTRA.norm>
-0.338964

>  <SCORE.RESTR>
0

>  <SCORE.RESTR.CAVITY>
0

>  <SCORE.RESTR.norm>
0

>  <SCORE.SYSTEM>
0

>  <SCORE.SYSTEM.CONST>
0

>  <SCORE.SYSTEM.DIHEDRAL>
0

>  <SCORE.SYSTEM.SOLV>
0

>  <SCORE.SYSTEM.norm>
0

>  <SCORE.heavy>
36

>  <SCORE.norm>
-0.358996

>  <RMSD>
8.786

$$$$
2f4u_lig
 OpenBabel11021811433D
libRbt.so/2013.1/901 2013/11/27
 36 37  0  0  0  0  0  0  0  0999 V2000
   36.7203    5.3325    9.7742 C   0  0  2  0  0  0  0  0  0  0  0  0
   36.6386    6.7931    9.9693 O   0  0  0  0  0  0  0  0  0  0  0  0
   37.7178    8.6025    6.1672 C   0  0  2  0  0  0  0  0  0  0  0  0
   38.2409    9.6005    5.1949 N   0  0  0  0  0  0  0  0  0  0  0  0
   35.2552    4.8180    9.6231 C   0  0  2  0  0  0  0  0  0  0  0  0
   34.5445    5.4497    8.4960 N   0  0  0  0  0  0  0  0  0  0  0  0
   36.5537    9.1940    7.0379 C   0  0  0  0  0  0  0  0  0  0  0  0
   36.9724   10.1053    4.0445 C   0  0  0  0  0  0  0  0  0  0  0  0
   38.0812   10.8491    3.3685 C   0  0  1  0  0  0  0  0  0  0  0  0
   37.4532   11.6648    2.2328 C   0  0  0  0  0  0  0  0  0  0  0  0
   38.4424   12.3355    1.2618 C   0  0  0  0  0  0  0  0  0  0  0  0
   39.2719   13.2760    2.0177 N   0  0  0  0  0  0  0  0  0  0  0  0
   38.6760   11.7514    4.2608 O   0  0  0  0  0  0  0  0  0  0  0  0
   41.1986    7.2234    5.8700 C   0  0  0  0  0  0  0  0  0  0  0  0
   41.0497    6.1567    4.7956 C   0  0  0  0  0  0  0  0  0  0  0  0
   34.4862    5.0844   10.9596 C   0  0  1  0  0  0  0  0  0  0  0  0
   40.2880    6.5960    3.6091 N   0  0  0  0  0  0  0  0  0  0  0  0
   33.1347    4.6407   10.8694 O   0  0  0  0  0  0  0  0  0  0  0  0
   36.0564    8.1706    8.0790 C   0  0  2  0  0  0  0  0  0  0  0  0
   35.0066    8.7358    8.9174 N   0  0  0  0  0  0  0  0  0  0  0  0
   37.8313    6.2212    3.7647 C   0  0  0  0  0  0  0  0  0  0  0  0
   36.5989    5.3892    3.2987 C   0  0  0  0  0  0  0  0  0  0  0  0
   39.1615    5.7653    3.1103 C   0  0  0  0  0  0  0  0  0  0  0  0
   35.3403    5.8354    3.9682 N   0  0  0  0  0  0  0  0  0  0  0  0
   35.9252    9.8955    3.9003 O   0  0  0  0  0  0  0  0  0  0  0  0
   35.2390    4.3683   12.0987 C   0  0  2  0  0  0  0  0  0  0  0  0
   34.6181    4.5592   13.3675 O   0  0  0  0  0  0  0  0  0  0  0  0
   37.1970    7.7329    8.9760 C   0  0  2  0  0  0  0  0  0  0  0  0
   36.7007    4.8447   12.1747 C   0  0  2  0  0  0  0  0  0  0  0  0
   37.3575    4.6860   10.9124 O   0  0  0  0  0  0  0  0  0  0  0  0
   38.3513    7.0928    8.1028 C   0  0  2  0  0  0  0  0  0  0  0  0
   39.4439    6.6970    8.9903 O   0  0  0  0  0  0  0  0  0  0  0  0
   37.4788    4.0997   13.2263 C   0  0  0  0  0  0  0  0  0  0  0  0
   38.6932    4.7087   13.4489 O   0  0  0  0  0  0  0  0  0  0  0  0
   38.8522    8.1574    7.0689 C   0  0  1  0  0  0  0  0  0  0  0  0
   39.8807    7.6615    6.2624 O   0  0  0  0  0  0  0  0  0  0  0  0
  1  2  1  1  0  0  0
  1  5  1  0  0  0  0
  1 30  1  0  0  0  0
  3  4  1  6  0  0  0
  3  7  1  0  0  0  0
  3 35  1  0  0  0  0
  5  6  1  6  0  0  0
  5 16  1  0  0  0  0
  7 19  1  0  0  0  0
  8  4  1  0  0  0  0
  8 25  2  0  0  0  0
  9  8  1  1  0  0  0
  9 10  1  0  0  0  0
  9 13  1  0  0  0  0
 10 11  1  0  0  0  0
 11 12  1  0  0  0  0
 14 15  1  0  0  0  0
 14 36  1  0  0  0  0
 15 17  1  0  0  0  0
 16 18  1  6  0  0  0
 16 26  1  0  0  0  0
 17 23  1  0  0  0  0
 19 20  1  1  0  0  0
 19 28  1  0  0  0  0
 21 22  1  0  0  0  0
 21 23  1  0  0  0  0
 22 24  1  0  0  0  0
 26 27  1  1  0  0  0
 26 29  1  0  0  0  0
 28  2  1  1  0  0  0
 28 31  1  0  0  0  0
 29 30  1  0  0  0  0
 29 33  1  1  0  0  0
 31 32  1  1  0  0  0
 31 35  1  0  0  0  0
 33 34  1  0  0  0  0
 35 36  1  6  0  0  0
M  END
>  <CHROM.1>
-115.35391276,-61.77642202,-174.75612356,-170.66267167,-61.17686606,56.96328794
150.14586407,-129.16904355,91.44887220,178.83189542,-179.60717792,96.67349763
-168.60939914,163.09318650,37.35298555,7.31802406,7.24598219,-1.82969554
0.38873526,-0.92217575

>  <Name>
2f4u_lig

>  <RI>
0

>  <Rbt.Current_Directory>
/home/itssahil/PROJECTS/Mol_Feturizer/New_Systems/rnas/2f4u

>  <Rbt.Executable>
rbdock ($Id: //depot/dev/client3/rdock/2013.1/src/exe/rbdock.cxx#4 $)

>  <Rbt.Library>
libRbt.so (2013.1, Build901 2013/11/27)

>  <Rbt.Parameter_File>
/export/apps/rDock/src/rDock_2013.1_src/data/scripts/dock_solv.prm

>  <Rbt.Receptor>
prm/pocket_docking_4.prm

>  <SCORE>
-11.4957

>  <SCORE.INTER>
-10.0601

>  <SCORE.INTER.CONST>
1

>  <SCORE.INTER.POLAR>
-1.56559

>  <SCORE.INTER.ROT>
14

>  <SCORE.INTER.SOLV>
11.9739

>  <SCORE.INTER.VDW>
-18.4127

>  <SCORE.INTER.norm>
-0.279448

>  <SCORE.INTRA>
-1.43555

>  <SCORE.INTRA.DIHEDRAL>
-6.09263

>  <SCORE.INTRA.DIHEDRAL.0>
26.3805

>  <SCORE.INTRA.POLAR>
0

>  <SCORE.INTRA.POLAR.0>
0

>  <SCORE.INTRA.REPUL>
0

>  <SCORE.INTRA.REPUL.0>
0

>  <SCORE.INTRA.SOLV>
5.36495

>  <SCORE.INTRA.SOLV.lig_0>
-98.5587

>  <SCORE.INTRA.VDW>
-1.07171

>  <SCORE.INTRA.VDW.0>
-2.91167

>  <SCORE.INTRA.norm>
-0.0398765

>  <SCORE.RESTR>
0

>  <SCORE.RESTR.CAVITY>
0

>  <SCORE.RESTR.norm>
0

>  <SCORE.SYSTEM>
0

>  <SCORE.SYSTEM.CONST>
0

>  <SCORE.SYSTEM.DIHEDRAL>
0

>  <SCORE.SYSTEM.SOLV>
0

>  <SCORE.SYSTEM.norm>
0

>  <SCORE.heavy>
36

>  <SCORE.norm>
-0.319324

>  <RMSD>
8.803

$$$$
2f4u_lig
 OpenBabel11021811433D
libRbt.so/2013.1/901 2013/11/27
 36 37  0  0  0  0  0  0  0  0999 V2000
   44.3776    3.5056    4.4622 C   0  0  2  0  0  0  0  0  0  0  0  0
   43.4263    2.9945    5.4680 O   0  0  0  0  0  0  0  0  0  0  0  0
   40.4409    4.9741    7.9305 C   0  0  2  0  0  0  0  0  0  0  0  0
   39.8576    5.8488    8.9837 N   0  0  0  0  0  0  0  0  0  0  0  0
   44.8880    2.2692    3.6591 C   0  0  2  0  0  0  0  0  0  0  0  0
   43.7953    1.5263    3.0046 N   0  0  0  0  0  0  0  0  0  0  0  0
   41.3939    3.8864    8.5403 C   0  0  0  0  0  0  0  0  0  0  0  0
   39.1857    4.8813   10.3254 C   0  0  0  0  0  0  0  0  0  0  0  0
   38.6900    6.1973   10.8374 C   0  0  1  0  0  0  0  0  0  0  0  0
   37.3082    6.4334   10.2174 C   0  0  0  0  0  0  0  0  0  0  0  0
   36.6177    7.7554   10.6006 C   0  0  0  0  0  0  0  0  0  0  0  0
   37.4179    8.8664   10.0816 N   0  0  0  0  0  0  0  0  0  0  0  0
   38.5283    6.1480   12.2287 O   0  0  0  0  0  0  0  0  0  0  0  0
   39.1920    7.3850    5.7979 C   0  0  0  0  0  0  0  0  0  0  0  0
   39.4688    8.8603    5.5497 C   0  0  0  0  0  0  0  0  0  0  0  0
   45.6724    1.3254    4.6300 C   0  0  1  0  0  0  0  0  0  0  0  0
   38.2669    9.6544    5.2245 N   0  0  0  0  0  0  0  0  0  0  0  0
   46.1520    0.1712    3.9451 O   0  0  0  0  0  0  0  0  0  0  0  0
   42.0360    3.0211    7.4368 C   0  0  2  0  0  0  0  0  0  0  0  0
   42.9557    2.0410    8.0005 N   0  0  0  0  0  0  0  0  0  0  0  0
   36.9330    8.8543    3.2801 C   0  0  0  0  0  0  0  0  0  0  0  0
   35.5504    8.8948    3.9977 C   0  0  0  0  0  0  0  0  0  0  0  0
   37.9268    9.9240    3.8035 C   0  0  0  0  0  0  0  0  0  0  0  0
   35.6718    8.6018    5.4574 N   0  0  0  0  0  0  0  0  0  0  0  0
   39.1274    3.8349   10.5764 O   0  0  0  0  0  0  0  0  0  0  0  0
   46.8295    2.1312    5.2538 C   0  0  2  0  0  0  0  0  0  0  0  0
   47.6037    1.3569    6.1664 O   0  0  0  0  0  0  0  0  0  0  0  0
   42.8064    3.8917    6.4643 C   0  0  2  0  0  0  0  0  0  0  0  0
   46.2994    3.3828    5.9763 C   0  0  2  0  0  0  0  0  0  0  0  0
   45.4997    4.1816    5.0972 O   0  0  0  0  0  0  0  0  0  0  0  0
   41.8354    4.9584    5.8134 C   0  0  2  0  0  0  0  0  0  0  0  0
   42.6077    5.7944    4.8952 O   0  0  0  0  0  0  0  0  0  0  0  0
   47.4173    4.2297    6.5231 C   0  0  0  0  0  0  0  0  0  0  0  0
   46.9565    5.0413    7.5350 O   0  0  0  0  0  0  0  0  0  0  0  0
   41.2133    5.8363    6.9516 C   0  0  1  0  0  0  0  0  0  0  0  0
   40.3444    6.8087    6.4481 O   0  0  0  0  0  0  0  0  0  0  0  0
  1  2  1  1  0  0  0
  1  5  1  0  0  0  0
  1 30  1  0  0  0  0
  3  4  1  1  0  0  0
  3  7  1  0  0  0  0
  3 35  1  0  0  0  0
  5  6  1  1  0  0  0
  5 16  1  0  0  0  0
  7 19  1  0  0  0  0
  8  4  1  0  0  0  0
  8 25  2  0  0  0  0
  9  8  1  6  0  0  0
  9 10  1  0  0  0  0
  9 13  1  0  0  0  0
 10 11  1  0  0  0  0
 11 12  1  0  0  0  0
 14 15  1  0  0  0  0
 14 36  1  0  0  0  0
 15 17  1  0  0  0  0
 16 18  1  6  0  0  0
 16 26  1  0  0  0  0
 17 23  1  0  0  0  0
 19 20  1  1  0  0  0
 19 28  1  0  0  0  0
 21 22  1  0  0  0  0
 21 23  1  0  0  0  0
 22 24  1  0  0  0  0
 26 27  1  1  0  0  0
 26 29  1  0  0  0  0
 28  2  1  6  0  0  0
 28 31  1  0  0  0  0
 29 30  1  0  0  0  0
 29 33  1  6  0  0  0
 31 32  1  6  0  0  0
 31 35  1  0  0  0  0
 33 34  1  0  0  0  0
 35 36  1  6  0  0  0
M  END
>  <CHROM.1>
176.25913287,-48.61825634,88.78499684,-179.19533022,64.22679374,-164.58433259
-167.23297629,-96.36766647,93.84530335,-62.47745916,64.69132710,-172.90166439
-158.57869371,-57.23156047,41.54575128,5.14390245,6.70108786,0.05331982,0.62037102
-1.26632972

>  <Name>
2f4u_lig

>  <RI>
0

>  <Rbt.Current_Directory>
/home/itssahil/PROJECTS/Mol_Feturizer/New_Systems/rnas/2f4u

>  <Rbt.Executable>
rbdock ($Id: //depot/dev/client3/rdock/2013.1/src/exe/rbdock.cxx#4 $)

>  <Rbt.Library>
libRbt.so (2013.1, Build901 2013/11/27)

>  <Rbt.Parameter_File>
/export/apps/rDock/src/rDock_2013.1_src/data/scripts/dock_solv.prm

>  <Rbt.Receptor>
prm/pocket_docking_6.prm

>  <SCORE>
-18.7015

>  <SCORE.INTER>
-10.0704

>  <SCORE.INTER.CONST>
1

>  <SCORE.INTER.POLAR>
-3.20039

>  <SCORE.INTER.ROT>
14

>  <SCORE.INTER.SOLV>
12.4016

>  <SCORE.INTER.VDW>
-13.1129

>  <SCORE.INTER.norm>
-0.279734

>  <SCORE.INTRA>
-8.63104

>  <SCORE.INTRA.DIHEDRAL>
-19.3895

>  <SCORE.INTRA.DIHEDRAL.0>
26.3805

>  <SCORE.INTRA.POLAR>
0

>  <SCORE.INTRA.POLAR.0>
0

>  <SCORE.INTRA.REPUL>
0

>  <SCORE.INTRA.REPUL.0>
0

>  <SCORE.INTRA.SOLV>
3.95616

>  <SCORE.INTRA.SOLV.lig_0>
-98.5587

>  <SCORE.INTRA.VDW>
-0.91436

>  <SCORE.INTRA.VDW.0>
-2.91167

>  <SCORE.INTRA.norm>
-0.239751

>  <SCORE.RESTR>
0

>  <SCORE.RESTR.CAVITY>
0

>  <SCORE.RESTR.norm>
0

>  <SCORE.SYSTEM>
0

>  <SCORE.SYSTEM.CONST>
0

>  <SCORE.SYSTEM.DIHEDRAL>
0

>  <SCORE.SYSTEM.SOLV>
0

>  <SCORE.SYSTEM.norm>
0

>  <SCORE.heavy>
36

>  <SCORE.norm>
-0.519485

>  <RMSD>
8.819

$$$$
2f4u_lig
 OpenBabel11021811433D
libRbt.so/2013.1/901 2013/11/27
 36 37  0  0  0  0  0  0  0  0999 V2000
   36.8647    6.5195   11.1111 C   0  0  2  0  0  0  0  0  0  0  0  0
   35.8174    6.5248   10.0714 O   0  0  0  0  0  0  0  0  0  0  0  0
   35.8758    8.3521    6.1277 C   0  0  2  0  0  0  0  0  0  0  0  0
   35.7990    9.3999    5.0737 N   0  0  0  0  0  0  0  0  0  0  0  0
   36.7314    5.1653   11.8744 C   0  0  2  0  0  0  0  0  0  0  0  0
   36.8791    3.9964   10.9879 N   0  0  0  0  0  0  0  0  0  0  0  0
   34.5425    8.2557    6.9499 C   0  0  0  0  0  0  0  0  0  0  0  0
   36.5954    8.8605    3.5697 C   0  0  0  0  0  0  0  0  0  0  0  0
   36.3335   10.2566    3.0986 C   0  0  1  0  0  0  0  0  0  0  0  0
   37.5118   11.1200    3.5629 C   0  0  0  0  0  0  0  0  0  0  0  0
   38.8757   10.7914    2.9279 C   0  0  0  0  0  0  0  0  0  0  0  0
   39.8427   11.8067    3.3498 N   0  0  0  0  0  0  0  0  0  0  0  0
   36.3017   10.2992    1.6981 O   0  0  0  0  0  0  0  0  0  0  0  0
   39.2792    8.3954    5.4297 C   0  0  0  0  0  0  0  0  0  0  0  0
   40.0673    7.2908    6.1178 C   0  0  0  0  0  0  0  0  0  0  0  0
   35.3404    5.1241   12.5900 C   0  0  1  0  0  0  0  0  0  0  0  0
   39.2638    6.1013    6.4649 N   0  0  0  0  0  0  0  0  0  0  0  0
   35.1641    3.8981   13.2952 O   0  0  0  0  0  0  0  0  0  0  0  0
   34.6518    7.2061    8.0746 C   0  0  2  0  0  0  0  0  0  0  0  0
   33.4295    7.1492    8.8664 N   0  0  0  0  0  0  0  0  0  0  0  0
   37.9261    4.0556    5.9898 C   0  0  0  0  0  0  0  0  0  0  0  0
   37.2254    3.1671    4.9185 C   0  0  0  0  0  0  0  0  0  0  0  0
   38.6873    5.2628    5.3823 C   0  0  0  0  0  0  0  0  0  0  0  0
   36.1785    3.9224    4.1669 N   0  0  0  0  0  0  0  0  0  0  0  0
   37.0833    7.9627    3.2269 O   0  0  0  0  0  0  0  0  0  0  0  0
   35.2508    6.3368   13.5379 C   0  0  2  0  0  0  0  0  0  0  0  0
   34.0086    6.3942   14.2345 O   0  0  0  0  0  0  0  0  0  0  0  0
   35.8031    7.5427    9.0011 C   0  0  2  0  0  0  0  0  0  0  0  0
   35.4588    7.6525   12.7665 C   0  0  2  0  0  0  0  0  0  0  0  0
   36.6906    7.6294   12.0369 O   0  0  0  0  0  0  0  0  0  0  0  0
   37.1554    7.5933    8.1805 C   0  0  2  0  0  0  0  0  0  0  0  0
   38.2439    7.9373    9.0943 O   0  0  0  0  0  0  0  0  0  0  0  0
   35.4578    8.8460   13.6839 C   0  0  0  0  0  0  0  0  0  0  0  0
   34.1961    9.0644   14.1893 O   0  0  0  0  0  0  0  0  0  0  0  0
   37.0258    8.6796    7.0596 C   0  0  1  0  0  0  0  0  0  0  0  0
   38.1907    8.7841    6.2938 O   0  0  0  0  0  0  0  0  0  0  0  0
  1  2  1  6  0  0  0
  1  5  1  0  0  0  0
  1 30  1  0  0  0  0
  3  4  1  6  0  0  0
  3  7  1  0  0  0  0
  3 35  1  0  0  0  0
  5  6  1  6  0  0  0
  5 16  1  0  0  0  0
  7 19  1  0  0  0  0
  8  4  1  0  0  0  0
  8 25  2  0  0  0  0
  9  8  1  6  0  0  0
  9 10  1  0  0  0  0
  9 13  1  0  0  0  0
 10 11  1  0  0  0  0
 11 12  1  0  0  0  0
 14 15  1  0  0  0  0
 14 36  1  0  0  0  0
 15 17  1  0  0  0  0
 16 18  1  1  0  0  0
 16 26  1  0  0  0  0
 17 23  1  0  0  0  0
 19 20  1  1  0  0  0
 19 28  1  0  0  0  0
 21 22  1  0  0  0  0
 21 23  1  0  0  0  0
 22 24  1  0  0  0  0
 26 27  1  6  0  0  0
 26 29  1  0  0  0  0
 28  2  1  1  0  0  0
 28 31  1  0  0  0  0
 29 30  1  0  0  0  0
 29 33  1  1  0  0  0
 31 32  1  1  0  0  0
 31 35  1  0  0  0  0
 33 34  1  0  0  0  0
 35 36  1  6  0  0  0
M  END
>  <CHROM.1>
-168.73058929,-140.46774476,86.71981923,65.75257682,172.99206407,57.65321255
-60.14340027,65.95074609,178.29899630,-62.47154048,176.89936065,176.85029439
-69.63981956,-64.08947341,36.65685869,7.42955072,7.95191103,-2.43422365,1.24327781
-0.45802244

>  <Name>
2f4u_lig

>  <RI>
0

>  <Rbt.Current_Directory>
/home/itssahil/PROJECTS/Mol_Feturizer/New_Systems/rnas/2f4u

>  <Rbt.Executable>
rbdock ($Id: //depot/dev/client3/rdock/2013.1/src/exe/rbdock.cxx#4 $)

>  <Rbt.Library>
libRbt.so (2013.1, Build901 2013/11/27)

>  <Rbt.Parameter_File>
/export/apps/rDock/src/rDock_2013.1_src/data/scripts/dock_solv.prm

>  <Rbt.Receptor>
prm/pocket_docking_5.prm

>  <SCORE>
-16.815

>  <SCORE.INTER>
-4.71867

>  <SCORE.INTER.CONST>
1

>  <SCORE.INTER.POLAR>
-0.711732

>  <SCORE.INTER.ROT>
14

>  <SCORE.INTER.SOLV>
10.9485

>  <SCORE.INTER.VDW>
-17.3562

>  <SCORE.INTER.norm>
-0.131074

>  <SCORE.INTRA>
-12.0963

>  <SCORE.INTRA.DIHEDRAL>
-22.3999

>  <SCORE.INTRA.DIHEDRAL.0>
26.3805

>  <SCORE.INTRA.POLAR>
0

>  <SCORE.INTRA.POLAR.0>
0

>  <SCORE.INTRA.REPUL>
0

>  <SCORE.INTRA.REPUL.0>
0

>  <SCORE.INTRA.SOLV>
2.91863

>  <SCORE.INTRA.SOLV.lig_0>
-98.5587

>  <SCORE.INTRA.VDW>
-2.35565

>  <SCORE.INTRA.VDW.0>
-2.91167

>  <SCORE.INTRA.norm>
-0.336008

>  <SCORE.RESTR>
0

>  <SCORE.RESTR.CAVITY>
0

>  <SCORE.RESTR.norm>
0

>  <SCORE.SYSTEM>
0

>  <SCORE.SYSTEM.CONST>
0

>  <SCORE.SYSTEM.DIHEDRAL>
0

>  <SCORE.SYSTEM.SOLV>
0

>  <SCORE.SYSTEM.norm>
0

>  <SCORE.heavy>
36

>  <SCORE.norm>
-0.467082

>  <RMSD>
8.831

$$$$
2f4u_lig
 OpenBabel11021811433D
libRbt.so/2013.1/901 2013/11/27
 36 37  0  0  0  0  0  0  0  0999 V2000
   44.8255    4.4421    5.0701 C   0  0  2  0  0  0  0  0  0  0  0  0
   43.9333    3.6686    5.9553 O   0  0  0  0  0  0  0  0  0  0  0  0
   40.2887    4.9685    7.9359 C   0  0  2  0  0  0  0  0  0  0  0  0
   39.3999    5.6125    8.9409 N   0  0  0  0  0  0  0  0  0  0  0  0
   45.4636    3.4230    4.0758 C   0  0  2  0  0  0  0  0  0  0  0  0
   44.4555    2.6952    3.2832 N   0  0  0  0  0  0  0  0  0  0  0  0
   41.2176    3.8859    8.5903 C   0  0  0  0  0  0  0  0  0  0  0  0
   40.3398    6.2442   10.3212 C   0  0  0  0  0  0  0  0  0  0  0  0
   38.9985    6.5378   10.9166 C   0  0  1  0  0  0  0  0  0  0  0  0
   39.1996    6.7026   12.4272 C   0  0  0  0  0  0  0  0  0  0  0  0
   39.2152    5.3999   13.2482 C   0  0  0  0  0  0  0  0  0  0  0  0
   37.9142    4.7435   13.1050 N   0  0  0  0  0  0  0  0  0  0  0  0
   38.5009    7.7501   10.4197 O   0  0  0  0  0  0  0  0  0  0  0  0
   39.8352    8.0995    5.9121 C   0  0  0  0  0  0  0  0  0  0  0  0
   38.4276    8.4790    6.3474 C   0  0  0  0  0  0  0  0  0  0  0  0
   46.3431    2.4122    4.8841 C   0  0  1  0  0  0  0  0  0  0  0  0
   37.8991    9.6928    5.6928 N   0  0  0  0  0  0  0  0  0  0  0  0
   46.9418    1.4500    4.0198 O   0  0  0  0  0  0  0  0  0  0  0  0
   42.1726    3.2641    7.5510 C   0  0  2  0  0  0  0  0  0  0  0  0
   43.0659    2.2917    8.1680 N   0  0  0  0  0  0  0  0  0  0  0  0
   37.5836   10.8996    3.5378 C   0  0  0  0  0  0  0  0  0  0  0  0
   39.0946   11.1289    3.2335 C   0  0  0  0  0  0  0  0  0  0  0  0
   37.3094    9.5961    4.3325 C   0  0  0  0  0  0  0  0  0  0  0  0
   39.3229   12.3898    2.4658 N   0  0  0  0  0  0  0  0  0  0  0  0
   41.3817    6.3047   10.5898 O   0  0  0  0  0  0  0  0  0  0  0  0
   47.4086    3.2137    5.6585 C   0  0  2  0  0  0  0  0  0  0  0  0
   48.2600    2.3779    6.4383 O   0  0  0  0  0  0  0  0  0  0  0  0
   43.0182    4.3406    6.9002 C   0  0  2  0  0  0  0  0  0  0  0  0
   46.7492    4.2595    6.5756 C   0  0  2  0  0  0  0  0  0  0  0  0
   45.8699    5.1108    5.8325 O   0  0  0  0  0  0  0  0  0  0  0  0
   42.0828    5.4074    6.1993 C   0  0  2  0  0  0  0  0  0  0  0  0
   42.9230    6.4414    5.5968 O   0  0  0  0  0  0  0  0  0  0  0  0
   47.7715    5.1105    7.2804 C   0  0  0  0  0  0  0  0  0  0  0  0
   48.5685    5.7623    6.3666 O   0  0  0  0  0  0  0  0  0  0  0  0
   41.1385    6.0378    7.2782 C   0  0  1  0  0  0  0  0  0  0  0  0
   40.2829    6.9977    6.7296 O   0  0  0  0  0  0  0  0  0  0  0  0
  1  2  1  1  0  0  0
  1  5  1  0  0  0  0
  1 30  1  0  0  0  0
  3  4  1  1  0  0  0
  3  7  1  0  0  0  0
  3 35  1  0  0  0  0
  5  6  1  1  0  0  0
  5 16  1  0  0  0  0
  7 19  1  0  0  0  0
  8  4  1  0  0  0  0
  8 25  2  0  0  0  0
  9  8  1  6  0  0  0
  9 10  1  0  0  0  0
  9 13  1  0  0  0  0
 10 11  1  0  0  0  0
 11 12  1  0  0  0  0
 14 15  1  0  0  0  0
 14 36  1  0  0  0  0
 15 17  1  0  0  0  0
 16 18  1  6  0  0  0
 16 26  1  0  0  0  0
 17 23  1  0  0  0  0
 19 20  1  1  0  0  0
 19 28  1  0  0  0  0
 21 22  1  0  0  0  0
 21 23  1  0  0  0  0
 22 24  1  0  0  0  0
 26 27  1  1  0  0  0
 26 29  1  0  0  0  0
 28  2  1  6  0  0  0
 28 31  1  0  0  0  0
 29 30  1  0  0  0  0
 29 33  1  6  0  0  0
 31 32  1  1  0  0  0
 31 35  1  0  0  0  0
 33 34  1  0  0  0  0
 35 36  1  6  0  0  0
M  END
>  <CHROM.1>
-171.31558053,52.81481262,160.60613465,-83.87747679,-62.06415027,173.62602497
-172.01893106,81.78526038,-146.98351044,179.89061145,65.93374301,175.00796177
58.66922415,-162.83764012,42.18984572,5.75860905,6.98731674,-0.06364358,0.59117683
-1.06552428

>  <Name>
2f4u_lig

>  <RI>
0

>  <Rbt.Current_Directory>
/home/itssahil/PROJECTS/Mol_Feturizer/New_Systems/rnas/2f4u

>  <Rbt.Executable>
rbdock ($Id: //depot/dev/client3/rdock/2013.1/src/exe/rbdock.cxx#4 $)

>  <Rbt.Library>
libRbt.so (2013.1, Build901 2013/11/27)

>  <Rbt.Parameter_File>
/export/apps/rDock/src/rDock_2013.1_src/data/scripts/dock_solv.prm

>  <Rbt.Receptor>
prm/pocket_docking_5.prm

>  <SCORE>
-23.9108

>  <SCORE.INTER>
-13.3071

>  <SCORE.INTER.CONST>
1

>  <SCORE.INTER.POLAR>
-2.14536

>  <SCORE.INTER.ROT>
14

>  <SCORE.INTER.SOLV>
15.0092

>  <SCORE.INTER.VDW>
-19.6566

>  <SCORE.INTER.norm>
-0.369643

>  <SCORE.INTRA>
-10.6037

>  <SCORE.INTRA.DIHEDRAL>
-19.9445

>  <SCORE.INTRA.DIHEDRAL.0>
26.3805

>  <SCORE.INTRA.POLAR>
0

>  <SCORE.INTRA.POLAR.0>
0

>  <SCORE.INTRA.REPUL>
0

>  <SCORE.INTRA.REPUL.0>
0

>  <SCORE.INTRA.SOLV>
0.674844

>  <SCORE.INTRA.SOLV.lig_0>
-98.5587

>  <SCORE.INTRA.VDW>
-0.96886

>  <SCORE.INTRA.VDW.0>
-2.91167

>  <SCORE.INTRA.norm>
-0.294547

>  <SCORE.RESTR>
0

>  <SCORE.RESTR.CAVITY>
0

>  <SCORE.RESTR.norm>
0

>  <SCORE.SYSTEM>
0

>  <SCORE.SYSTEM.CONST>
0

>  <SCORE.SYSTEM.DIHEDRAL>
0

>  <SCORE.SYSTEM.SOLV>
0

>  <SCORE.SYSTEM.norm>
0

>  <SCORE.heavy>
36

>  <SCORE.norm>
-0.66419

>  <RMSD>
8.839

$$$$
2f4u_lig
 OpenBabel11021811433D
libRbt.so/2013.1/901 2013/11/27
 36 37  0  0  0  0  0  0  0  0999 V2000
   44.7621    0.8783    7.5573 C   0  0  2  0  0  0  0  0  0  0  0  0
   44.7526    1.8728    6.4670 O   0  0  0  0  0  0  0  0  0  0  0  0
   42.7724    5.7412    6.5637 C   0  0  2  0  0  0  0  0  0  0  0  0
   41.7046    6.7667    6.4120 N   0  0  0  0  0  0  0  0  0  0  0  0
   45.7577   -0.2447    7.1308 C   0  0  2  0  0  0  0  0  0  0  0  0
   47.1193    0.2657    6.8868 N   0  0  0  0  0  0  0  0  0  0  0  0
   43.1045    5.0414    5.1987 C   0  0  0  0  0  0  0  0  0  0  0  0
   40.2141    6.0502    5.7393 C   0  0  0  0  0  0  0  0  0  0  0  0
   39.7233    7.4634    5.6980 C   0  0  1  0  0  0  0  0  0  0  0  0
   39.8912    7.9595    4.2575 C   0  0  0  0  0  0  0  0  0  0  0  0
   39.8782    9.4877    4.0683 C   0  0  0  0  0  0  0  0  0  0  0  0
   38.6600   10.0224    4.6798 N   0  0  0  0  0  0  0  0  0  0  0  0
   38.3573    7.5128    6.0077 O   0  0  0  0  0  0  0  0  0  0  0  0
   41.3361    6.2572    9.6776 C   0  0  0  0  0  0  0  0  0  0  0  0
   39.8434    5.9666    9.6331 C   0  0  0  0  0  0  0  0  0  0  0  0
   45.2080   -0.9445    5.8437 C   0  0  1  0  0  0  0  0  0  0  0  0
   39.0160    6.9382   10.3764 N   0  0  0  0  0  0  0  0  0  0  0  0
   46.0898   -1.9749    5.4054 O   0  0  0  0  0  0  0  0  0  0  0  0
   44.1720    3.9427    5.3770 C   0  0  2  0  0  0  0  0  0  0  0  0
   44.4471    3.2625    4.1176 N   0  0  0  0  0  0  0  0  0  0  0  0
   36.8748    8.2089   10.3577 C   0  0  0  0  0  0  0  0  0  0  0  0
   37.1113    9.0048   11.6764 C   0  0  0  0  0  0  0  0  0  0  0  0
   37.5362    6.8060   10.3616 C   0  0  0  0  0  0  0  0  0  0  0  0
   36.4188   10.3282   11.6599 N   0  0  0  0  0  0  0  0  0  0  0  0
   39.8868    5.0650    5.4501 O   0  0  0  0  0  0  0  0  0  0  0  0
   43.8053   -1.5009    6.1604 C   0  0  2  0  0  0  0  0  0  0  0  0
   43.2118   -2.1536    5.0409 O   0  0  0  0  0  0  0  0  0  0  0  0
   43.7043    2.9100    6.3829 C   0  0  2  0  0  0  0  0  0  0  0  0
   42.8682   -0.3811    6.6476 C   0  0  2  0  0  0  0  0  0  0  0  0
   43.4364    0.3131    7.7635 O   0  0  0  0  0  0  0  0  0  0  0  0
   43.4145    3.6077    7.7734 C   0  0  2  0  0  0  0  0  0  0  0  0
   42.9485    2.5929    8.7174 O   0  0  0  0  0  0  0  0  0  0  0  0
   41.5164   -0.9137    7.0417 C   0  0  0  0  0  0  0  0  0  0  0  0
   40.6793    0.1172    7.4045 O   0  0  0  0  0  0  0  0  0  0  0  0
   42.3140    4.7034    7.5693 C   0  0  1  0  0  0  0  0  0  0  0  0
   42.0017    5.3614    8.7625 O   0  0  0  0  0  0  0  0  0  0  0  0
  1  2  1  6  0  0  0
  1  5  1  0  0  0  0
  1 30  1  0  0  0  0
  3  4  1  6  0  0  0
  3  7  1  0  0  0  0
  3 35  1  0  0  0  0
  5  6  1  6  0  0  0
  5 16  1  0  0  0  0
  7 19  1  0  0  0  0
  8  4  1  0  0  0  0
  8 25  2  0  0  0  0
  9  8  1  6  0  0  0
  9 10  1  0  0  0  0
  9 13  1  0  0  0  0
 10 11  1  0  0  0  0
 11 12  1  0  0  0  0
 14 15  1  0  0  0  0
 14 36  1  0  0  0  0
 15 17  1  0  0  0  0
 16 18  1  1  0  0  0
 16 26  1  0  0  0  0
 17 23  1  0  0  0  0
 19 20  1  6  0  0  0
 19 28  1  0  0  0  0
 21 22  1  0  0  0  0
 21 23  1  0  0  0  0
 22 24  1  0  0  0  0
 26 27  1  6  0  0  0
 26 29  1  0  0  0  0
 28  2  1  1  0  0  0
 28 31  1  0  0  0  0
 29 30  1  0  0  0  0
 29 33  1  1  0  0  0
 31 32  1  1  0  0  0
 31 35  1  0  0  0  0
 33 34  1  0  0  0  0
 35 36  1  1  0  0  0
M  END
>  <CHROM.1>
165.84458450,57.64338333,99.73375432,-161.29979563,-53.79045892,-171.70072865
54.99897172,177.20067027,-144.27307261,-177.83779410,-66.70558565,166.46617515
-176.80204279,62.00593435,41.78220741,4.02392197,7.11220234,0.39100527,-0.91269423
2.29029603

>  <Name>
2f4u_lig

>  <RI>
0

>  <Rbt.Current_Directory>
/home/itssahil/PROJECTS/Mol_Feturizer/New_Systems/rnas/2f4u

>  <Rbt.Executable>
rbdock ($Id: //depot/dev/client3/rdock/2013.1/src/exe/rbdock.cxx#4 $)

>  <Rbt.Library>
libRbt.so (2013.1, Build901 2013/11/27)

>  <Rbt.Parameter_File>
/export/apps/rDock/src/rDock_2013.1_src/data/scripts/dock_solv.prm

>  <Rbt.Receptor>
prm/pocket_docking_6.prm

>  <SCORE>
-22.1723

>  <SCORE.INTER>
-11.7246

>  <SCORE.INTER.CONST>
1

>  <SCORE.INTER.POLAR>
-2.79623

>  <SCORE.INTER.ROT>
14

>  <SCORE.INTER.SOLV>
11.2626

>  <SCORE.INTER.VDW>
-15.1832

>  <SCORE.INTER.norm>
-0.325682

>  <SCORE.INTRA>
-10.4477

>  <SCORE.INTRA.DIHEDRAL>
-19.7246

>  <SCORE.INTRA.DIHEDRAL.0>
26.3805

>  <SCORE.INTRA.POLAR>
0

>  <SCORE.INTRA.POLAR.0>
0

>  <SCORE.INTRA.REPUL>
0

>  <SCORE.INTRA.REPUL.0>
0

>  <SCORE.INTRA.SOLV>
1.52185

>  <SCORE.INTRA.SOLV.lig_0>
-98.5587

>  <SCORE.INTRA.VDW>
-1.3463

>  <SCORE.INTRA.VDW.0>
-2.91167

>  <SCORE.INTRA.norm>
-0.290214

>  <SCORE.RESTR>
0

>  <SCORE.RESTR.CAVITY>
0

>  <SCORE.RESTR.norm>
0

>  <SCORE.SYSTEM>
0

>  <SCORE.SYSTEM.CONST>
0

>  <SCORE.SYSTEM.DIHEDRAL>
0

>  <SCORE.SYSTEM.SOLV>
0

>  <SCORE.SYSTEM.norm>
0

>  <SCORE.heavy>
36

>  <SCORE.norm>
-0.615896

>  <RMSD>
8.840

$$$$
2f4u_lig
 OpenBabel11021811433D
libRbt.so/2013.1/901 2013/11/27
 36 37  0  0  0  0  0  0  0  0999 V2000
   36.9603    7.5075    9.9665 C   0  0  2  0  0  0  0  0  0  0  0  0
   36.1100    7.6279    8.7664 O   0  0  0  0  0  0  0  0  0  0  0  0
   37.2364    8.3727    4.6346 C   0  0  2  0  0  0  0  0  0  0  0  0
   37.6709    9.1114    3.4179 N   0  0  0  0  0  0  0  0  0  0  0  0
   36.0279    7.0551   11.1328 C   0  0  2  0  0  0  0  0  0  0  0  0
   35.3471    5.7775   10.8530 N   0  0  0  0  0  0  0  0  0  0  0  0
   35.9020    8.9538    5.2218 C   0  0  0  0  0  0  0  0  0  0  0  0
   38.1925   10.7701    3.8230 C   0  0  0  0  0  0  0  0  0  0  0  0
   38.2970   10.9466    2.3406 C   0  0  1  0  0  0  0  0  0  0  0  0
   37.7110   12.3228    2.0057 C   0  0  0  0  0  0  0  0  0  0  0  0
   37.4769   12.6066    0.5104 C   0  0  0  0  0  0  0  0  0  0  0  0
   36.9729   13.9741    0.3692 N   0  0  0  0  0  0  0  0  0  0  0  0
   39.6416   10.9500    1.9451 O   0  0  0  0  0  0  0  0  0  0  0  0
   40.4112    7.0467    4.4559 C   0  0  0  0  0  0  0  0  0  0  0  0
   41.8273    7.5864    4.5905 C   0  0  0  0  0  0  0  0  0  0  0  0
   34.9722    8.1788   11.3998 C   0  0  1  0  0  0  0  0  0  0  0  0
   42.8757    6.6543    4.1288 N   0  0  0  0  0  0  0  0  0  0  0  0
   34.0861    7.8085   12.4530 O   0  0  0  0  0  0  0  0  0  0  0  0
   35.4901    8.2177    6.5130 C   0  0  2  0  0  0  0  0  0  0  0  0
   34.2756    8.7874    7.0828 N   0  0  0  0  0  0  0  0  0  0  0  0
   45.2060    5.8134    3.8787 C   0  0  0  0  0  0  0  0  0  0  0  0
   44.9458    4.4516    4.5902 C   0  0  0  0  0  0  0  0  0  0  0  0
   44.3036    6.9609    4.4025 C   0  0  0  0  0  0  0  0  0  0  0  0
   45.8121    3.3638    4.0448 N   0  0  0  0  0  0  0  0  0  0  0  0
   38.3018   11.3529    4.7229 O   0  0  0  0  0  0  0  0  0  0  0  0
   35.7286    9.4806   11.7320 C   0  0  2  0  0  0  0  0  0  0  0  0
   34.8491   10.5736   11.9841 O   0  0  0  0  0  0  0  0  0  0  0  0
   36.5917    8.3131    7.5497 C   0  0  2  0  0  0  0  0  0  0  0  0
   36.6932    9.8603   10.5941 C   0  0  2  0  0  0  0  0  0  0  0  0
   37.5851    8.7803   10.2968 O   0  0  0  0  0  0  0  0  0  0  0  0
   37.9254    7.6842    6.9752 C   0  0  2  0  0  0  0  0  0  0  0  0
   38.9735    7.8061    7.9875 O   0  0  0  0  0  0  0  0  0  0  0  0
   37.5036   11.0832   10.9312 C   0  0  0  0  0  0  0  0  0  0  0  0
   38.2923   11.4481    9.8635 O   0  0  0  0  0  0  0  0  0  0  0  0
   38.3327    8.4616    5.6779 C   0  0  1  0  0  0  0  0  0  0  0  0
   39.5108    7.9617    5.1153 O   0  0  0  0  0  0  0  0  0  0  0  0
  1  2  1  6  0  0  0
  1  5  1  0  0  0  0
  1 30  1  0  0  0  0
  3  4  1  6  0  0  0
  3  7  1  0  0  0  0
  3 35  1  0  0  0  0
  5  6  1  6  0  0  0
  5 16  1  0  0  0  0
  7 19  1  0  0  0  0
  8  4  1  0  0  0  0
  8 25  2  0  0  0  0
  9  8  1  1  0  0  0
  9 10  1  0  0  0  0
  9 13  1  0  0  0  0
 10 11  1  0  0  0  0
 11 12  1  0  0  0  0
 14 15  1  0  0  0  0
 14 36  1  0  0  0  0
 15 17  1  0  0  0  0
 16 18  1  1  0  0  0
 16 26  1  0  0  0  0
 17 23  1  0  0  0  0
 19 20  1  1  0  0  0
 19 28  1  0  0  0  0
 21 22  1  0  0  0  0
 21 23  1  0  0  0  0
 22 24  1  0  0  0  0
 26 27  1  6  0  0  0
 26 29  1  0  0  0  0
 28  2  1  1  0  0  0
 28 31  1  0  0  0  0
 29 30  1  0  0  0  0
 29 33  1  1  0  0  0
 31 32  1  1  0  0  0
 31 35  1  0  0  0  0
 33 34  1  0  0  0  0
 35 36  1  6  0  0  0
M  END
>  <CHROM.1>
166.54233822,68.73497720,137.47537778,-169.04811773,-177.58969752,171.71503589
-168.66767565,-170.23389208,177.56667874,178.92065732,-62.91124983,178.43575167
-176.12107139,-54.84133538,38.28464091,8.73088899,6.58784661,-2.44191177
0.61388604,-1.06248960

>  <Name>
2f4u_lig

>  <RI>
0

>  <Rbt.Current_Directory>
/home/itssahil/PROJECTS/Mol_Feturizer/New_Systems/rnas/2f4u

>  <Rbt.Executable>
rbdock ($Id: //depot/dev/client3/rdock/2013.1/src/exe/rbdock.cxx#4 $)

>  <Rbt.Library>
libRbt.so (2013.1, Build901 2013/11/27)

>  <Rbt.Parameter_File>
/export/apps/rDock/src/rDock_2013.1_src/data/scripts/dock_solv.prm

>  <Rbt.Receptor>
prm/pocket_docking_6.prm

>  <SCORE>
-31.0776

>  <SCORE.INTER>
-18.3692

>  <SCORE.INTER.CONST>
1

>  <SCORE.INTER.POLAR>
-2.84445

>  <SCORE.INTER.ROT>
14

>  <SCORE.INTER.SOLV>
14.7362

>  <SCORE.INTER.VDW>
-20.61

>  <SCORE.INTER.norm>
-0.510255

>  <SCORE.INTRA>
-12.7084

>  <SCORE.INTRA.DIHEDRAL>
-21.7666

>  <SCORE.INTRA.DIHEDRAL.0>
26.3805

>  <SCORE.INTRA.POLAR>
0

>  <SCORE.INTRA.POLAR.0>
0

>  <SCORE.INTRA.REPUL>
0

>  <SCORE.INTRA.REPUL.0>
0

>  <SCORE.INTRA.SOLV>
-0.797607

>  <SCORE.INTRA.SOLV.lig_0>
-98.5587

>  <SCORE.INTRA.VDW>
-1.42632

>  <SCORE.INTRA.VDW.0>
-2.91167

>  <SCORE.INTRA.norm>
-0.353011

>  <SCORE.RESTR>
0

>  <SCORE.RESTR.CAVITY>
0

>  <SCORE.RESTR.norm>
0

>  <SCORE.SYSTEM>
0

>  <SCORE.SYSTEM.CONST>
0

>  <SCORE.SYSTEM.DIHEDRAL>
0

>  <SCORE.SYSTEM.SOLV>
0

>  <SCORE.SYSTEM.norm>
0

>  <SCORE.heavy>
36

>  <SCORE.norm>
-0.863266

>  <RMSD>
8.845

$$$$
2f4u_lig
 OpenBabel11021811433D
libRbt.so/2013.1/901 2013/11/27
 36 37  0  0  0  0  0  0  0  0999 V2000
   43.3649    2.7901    8.2180 C   0  0  2  0  0  0  0  0  0  0  0  0
   42.7008    3.7519    7.3170 O   0  0  0  0  0  0  0  0  0  0  0  0
   39.0262    5.9593    8.0380 C   0  0  2  0  0  0  0  0  0  0  0  0
   37.5707    6.2603    8.1130 N   0  0  0  0  0  0  0  0  0  0  0  0
   44.8038    2.5700    7.6564 C   0  0  2  0  0  0  0  0  0  0  0  0
   45.5798    3.8212    7.5756 N   0  0  0  0  0  0  0  0  0  0  0  0
   39.4689    5.5889    6.5786 C   0  0  0  0  0  0  0  0  0  0  0  0
   37.2724    7.7839    8.9945 C   0  0  0  0  0  0  0  0  0  0  0  0
   35.8288    7.4132    8.8594 C   0  0  1  0  0  0  0  0  0  0  0  0
   35.0578    8.1970    9.9274 C   0  0  0  0  0  0  0  0  0  0  0  0
   35.0341    9.7266    9.7508 C   0  0  0  0  0  0  0  0  0  0  0  0
   34.2426   10.3087   10.8365 N   0  0  0  0  0  0  0  0  0  0  0  0
   35.3404    7.8091    7.6068 O   0  0  0  0  0  0  0  0  0  0  0  0
   38.0116    5.5107   11.3310 C   0  0  0  0  0  0  0  0  0  0  0  0
   38.8457    5.8318   12.5622 C   0  0  0  0  0  0  0  0  0  0  0  0
   44.6979    1.9116    6.2407 C   0  0  1  0  0  0  0  0  0  0  0  0
   38.0602    6.3184   13.7143 N   0  0  0  0  0  0  0  0  0  0  0  0
   45.9897    1.6989    5.6775 O   0  0  0  0  0  0  0  0  0  0  0  0
   40.9666    5.2252    6.5221 C   0  0  2  0  0  0  0  0  0  0  0  0
   41.3669    4.8375    5.1754 N   0  0  0  0  0  0  0  0  0  0  0  0
   35.8305    7.3946   13.9792 C   0  0  0  0  0  0  0  0  0  0  0  0
   35.1373    6.2831   13.1352 C   0  0  0  0  0  0  0  0  0  0  0  0
   37.3223    7.6038   13.6100 C   0  0  0  0  0  0  0  0  0  0  0  0
   33.7095    6.0924   13.5308 N   0  0  0  0  0  0  0  0  0  0  0  0
   37.8780    8.5490    9.4520 O   0  0  0  0  0  0  0  0  0  0  0  0
   43.9206    0.5877    6.3828 C   0  0  2  0  0  0  0  0  0  0  0  0
   43.7619   -0.0881    5.1379 O   0  0  0  0  0  0  0  0  0  0  0  0
   41.2654    4.0709    7.4578 C   0  0  2  0  0  0  0  0  0  0  0  0
   42.5343    0.8296    7.0066 C   0  0  2  0  0  0  0  0  0  0  0  0
   42.6479    1.5236    8.2539 O   0  0  0  0  0  0  0  0  0  0  0  0
   40.8631    4.4615    8.9377 C   0  0  2  0  0  0  0  0  0  0  0  0
   41.1448    3.3252    9.8139 O   0  0  0  0  0  0  0  0  0  0  0  0
   41.7887   -0.4586    7.2316 C   0  0  0  0  0  0  0  0  0  0  0  0
   41.4462   -1.0336    6.0286 O   0  0  0  0  0  0  0  0  0  0  0  0
   39.3356    4.8058    8.9718 C   0  0  1  0  0  0  0  0  0  0  0  0
   38.9059    5.1570   10.2549 O   0  0  0  0  0  0  0  0  0  0  0  0
  1  2  1  6  0  0  0
  1  5  1  0  0  0  0
  1 30  1  0  0  0  0
  3  4  1  6  0  0  0
  3  7  1  0  0  0  0
  3 35  1  0  0  0  0
  5  6  1  6  0  0  0
  5 16  1  0  0  0  0
  7 19  1  0  0  0  0
  8  4  1  0  0  0  0
  8 25  2  0  0  0  0
  9  8  1  6  0  0  0
  9 10  1  0  0  0  0
  9 13  1  0  0  0  0
 10 11  1  0  0  0  0
 11 12  1  0  0  0  0
 14 15  1  0  0  0  0
 14 36  1  0  0  0  0
 15 17  1  0  0  0  0
 16 18  1  1  0  0  0
 16 26  1  0  0  0  0
 17 23  1  0  0  0  0
 19 20  1  6  0  0  0
 19 28  1  0  0  0  0
 21 22  1  0  0  0  0
 21 23  1  0  0  0  0
 22 24  1  0  0  0  0
 26 27  1  6  0  0  0
 26 29  1  0  0  0  0
 28  2  1  1  0  0  0
 28 31  1  0  0  0  0
 29 30  1  0  0  0  0
 29 33  1  1  0  0  0
 31 32  1  1  0  0  0
 31 35  1  0  0  0  0
 33 34  1  0  0  0  0
 35 36  1  1  0  0  0
M  END
>  <CHROM.1>
172.71230883,-131.50392811,159.80338642,66.00231369,179.06036975,175.27632748
-175.30636403,-63.90861714,126.25204933,179.07657462,-55.04099482,171.87450454
-67.97445634,64.17635761,39.76088141,4.75298970,8.87113201,-0.21422269,-0.76163975
1.91538920

>  <Name>
2f4u_lig

>  <RI>
0

>  <Rbt.Current_Directory>
/home/itssahil/PROJECTS/Mol_Feturizer/New_Systems/rnas/2f4u

>  <Rbt.Executable>
rbdock ($Id: //depot/dev/client3/rdock/2013.1/src/exe/rbdock.cxx#4 $)

>  <Rbt.Library>
libRbt.so (2013.1, Build901 2013/11/27)

>  <Rbt.Parameter_File>
/export/apps/rDock/src/rDock_2013.1_src/data/scripts/dock_solv.prm

>  <Rbt.Receptor>
prm/pocket_docking_6.prm

>  <SCORE>
-17.7859

>  <SCORE.INTER>
-6.00579

>  <SCORE.INTER.CONST>
1

>  <SCORE.INTER.POLAR>
-2.41154

>  <SCORE.INTER.ROT>
14

>  <SCORE.INTER.SOLV>
11.0046

>  <SCORE.INTER.VDW>
-12.5669

>  <SCORE.INTER.norm>
-0.166827

>  <SCORE.INTRA>
-11.7801

>  <SCORE.INTRA.DIHEDRAL>
-21.6511

>  <SCORE.INTRA.DIHEDRAL.0>
26.3805

>  <SCORE.INTRA.POLAR>
0

>  <SCORE.INTRA.POLAR.0>
0

>  <SCORE.INTRA.REPUL>
0

>  <SCORE.INTRA.REPUL.0>
0

>  <SCORE.INTRA.SOLV>
0.298058

>  <SCORE.INTRA.SOLV.lig_0>
-98.5587

>  <SCORE.INTRA.VDW>
-1.10361

>  <SCORE.INTRA.VDW.0>
-2.91167

>  <SCORE.INTRA.norm>
-0.327226

>  <SCORE.RESTR>
0

>  <SCORE.RESTR.CAVITY>
0

>  <SCORE.RESTR.norm>
0

>  <SCORE.SYSTEM>
0

>  <SCORE.SYSTEM.CONST>
0

>  <SCORE.SYSTEM.DIHEDRAL>
0

>  <SCORE.SYSTEM.SOLV>
0

>  <SCORE.SYSTEM.norm>
0

>  <SCORE.heavy>
36

>  <SCORE.norm>
-0.494054

>  <RMSD>
8.865

$$$$
2f4u_lig
 OpenBabel11021811433D
libRbt.so/2013.1/901 2013/11/27
 36 37  0  0  0  0  0  0  0  0999 V2000
   45.2805    2.1401    8.5135 C   0  0  2  0  0  0  0  0  0  0  0  0
   45.1502    3.4051    7.7648 O   0  0  0  0  0  0  0  0  0  0  0  0
   41.6402    5.8698    7.0574 C   0  0  2  0  0  0  0  0  0  0  0  0
   40.3481    6.3241    6.4753 N   0  0  0  0  0  0  0  0  0  0  0  0
   46.7407    1.6370    8.2925 C   0  0  2  0  0  0  0  0  0  0  0  0
   47.7517    2.6103    8.7451 N   0  0  0  0  0  0  0  0  0  0  0  0
   42.7512    5.7181    5.9593 C   0  0  0  0  0  0  0  0  0  0  0  0
   40.1204    5.6755    4.8276 C   0  0  0  0  0  0  0  0  0  0  0  0
   38.9058    6.5495    4.8051 C   0  0  1  0  0  0  0  0  0  0  0  0
   39.3777    7.9731    4.4886 C   0  0  0  0  0  0  0  0  0  0  0  0
   38.2711    9.0385    4.3806 C   0  0  0  0  0  0  0  0  0  0  0  0
   38.8896   10.3629    4.4658 N   0  0  0  0  0  0  0  0  0  0  0  0
   38.0392    6.1513    3.7781 O   0  0  0  0  0  0  0  0  0  0  0  0
   39.6203    4.4694    9.8845 C   0  0  0  0  0  0  0  0  0  0  0  0
   38.2722    5.1504    9.7015 C   0  0  0  0  0  0  0  0  0  0  0  0
   46.9415    1.3216    6.7730 C   0  0  1  0  0  0  0  0  0  0  0  0
   38.3607    6.5598    9.2692 N   0  0  0  0  0  0  0  0  0  0  0  0
   48.2676    0.8671    6.5157 O   0  0  0  0  0  0  0  0  0  0  0  0
   44.0696    5.1941    6.5641 C   0  0  2  0  0  0  0  0  0  0  0  0
   45.0871    5.0102    5.5368 N   0  0  0  0  0  0  0  0  0  0  0  0
   37.4823    8.3910    7.8287 C   0  0  0  0  0  0  0  0  0  0  0  0
   36.2353    9.1676    7.3090 C   0  0  0  0  0  0  0  0  0  0  0  0
   37.1296    7.2783    8.8501 C   0  0  0  0  0  0  0  0  0  0  0  0
   35.3372    8.2966    6.4928 N   0  0  0  0  0  0  0  0  0  0  0  0
   40.6631    5.0173    4.1691 O   0  0  0  0  0  0  0  0  0  0  0  0
   45.8948    0.2684    6.3579 C   0  0  2  0  0  0  0  0  0  0  0  0
   45.9900   -0.0815    4.9794 O   0  0  0  0  0  0  0  0  0  0  0  0
   43.8427    3.8628    7.2522 C   0  0  2  0  0  0  0  0  0  0  0  0
   44.4686    0.7652    6.6557 C   0  0  2  0  0  0  0  0  0  0  0  0
   44.3349    1.1444    8.0299 O   0  0  0  0  0  0  0  0  0  0  0  0
   42.7566    4.0257    8.3916 C   0  0  2  0  0  0  0  0  0  0  0  0
   42.5450    2.7248    9.0249 O   0  0  0  0  0  0  0  0  0  0  0  0
   43.4331   -0.2794    6.3352 C   0  0  0  0  0  0  0  0  0  0  0  0
   43.3161   -0.4398    4.9729 O   0  0  0  0  0  0  0  0  0  0  0  0
   41.4233    4.5384    7.7492 C   0  0  1  0  0  0  0  0  0  0  0  0
   40.4120    4.7015    8.7004 O   0  0  0  0  0  0  0  0  0  0  0  0
  1  2  1  6  0  0  0
  1  5  1  0  0  0  0
  1 30  1  0  0  0  0
  3  4  1  6  0  0  0
  3  7  1  0  0  0  0
  3 35  1  0  0  0  0
  5  6  1  6  0  0  0
  5 16  1  0  0  0  0
  7 19  1  0  0  0  0
  8  4  1  0  0  0  0
  8 25  2  0  0  0  0
  9  8  1  6  0  0  0
  9 10  1  0  0  0  0
  9 13  1  0  0  0  0
 10 11  1  0  0  0  0
 11 12  1  0  0  0  0
 14 15  1  0  0  0  0
 14 36  1  0  0  0  0
 15 17  1  0  0  0  0
 16 18  1  1  0  0  0
 16 26  1  0  0  0  0
 17 23  1  0  0  0  0
 19 20  1  6  0  0  0
 19 28  1  0  0  0  0
 21 22  1  0  0  0  0
 21 23  1  0  0  0  0
 22 24  1  0  0  0  0
 26 27  1  6  0  0  0
 26 29  1  0  0  0  0
 28  2  1  1  0  0  0
 28 31  1  0  0  0  0
 29 30  1  0  0  0  0
 29 33  1  1  0  0  0
 31 32  1  6  0  0  0
 31 35  1  0  0  0  0
 33 34  1  0  0  0  0
 35 36  1  1  0  0  0
M  END
>  <CHROM.1>
153.13099241,33.27966648,80.42975397,178.46599491,163.81626379,-50.07618221
-161.64785465,170.51572204,-152.03635845,-66.30639909,178.40626972,178.98307597
-71.17033564,-155.07630543,41.93122589,4.43909665,6.84574875,0.24925977,-0.64757045
1.89122431

>  <Name>
2f4u_lig

>  <RI>
0

>  <Rbt.Current_Directory>
/home/itssahil/PROJECTS/Mol_Feturizer/New_Systems/rnas/2f4u

>  <Rbt.Executable>
rbdock ($Id: //depot/dev/client3/rdock/2013.1/src/exe/rbdock.cxx#4 $)

>  <Rbt.Library>
libRbt.so (2013.1, Build901 2013/11/27)

>  <Rbt.Parameter_File>
/export/apps/rDock/src/rDock_2013.1_src/data/scripts/dock_solv.prm

>  <Rbt.Receptor>
prm/pocket_docking_4.prm

>  <SCORE>
-12.7096

>  <SCORE.INTER>
-6.21478

>  <SCORE.INTER.CONST>
1

>  <SCORE.INTER.POLAR>
-2.33805

>  <SCORE.INTER.ROT>
14

>  <SCORE.INTER.SOLV>
14.8279

>  <SCORE.INTER.VDW>
-14.2257

>  <SCORE.INTER.norm>
-0.172633

>  <SCORE.INTRA>
-6.50301

>  <SCORE.INTRA.DIHEDRAL>
-14.8258

>  <SCORE.INTRA.DIHEDRAL.0>
26.3805

>  <SCORE.INTRA.POLAR>
0

>  <SCORE.INTRA.POLAR.0>
0

>  <SCORE.INTRA.REPUL>
0

>  <SCORE.INTRA.REPUL.0>
0

>  <SCORE.INTRA.SOLV>
3.36923

>  <SCORE.INTRA.SOLV.lig_0>
-98.5587

>  <SCORE.INTRA.VDW>
-0.77472

>  <SCORE.INTRA.VDW.0>
-2.91167

>  <SCORE.INTRA.norm>
-0.180639

>  <SCORE.RESTR>
0.00819528

>  <SCORE.RESTR.CAVITY>
0.00819528

>  <SCORE.RESTR.norm>
0.000227647

>  <SCORE.SYSTEM>
0

>  <SCORE.SYSTEM.CONST>
0

>  <SCORE.SYSTEM.DIHEDRAL>
0

>  <SCORE.SYSTEM.SOLV>
0

>  <SCORE.SYSTEM.norm>
0

>  <SCORE.heavy>
36

>  <SCORE.norm>
-0.353044

>  <RMSD>
8.870

$$$$
2f4u_lig
 OpenBabel11021811433D
libRbt.so/2013.1/901 2013/11/27
 36 37  0  0  0  0  0  0  0  0999 V2000
   41.9990    3.7528    7.2168 C   0  0  2  0  0  0  0  0  0  0  0  0
   42.2160    4.2240    8.5984 O   0  0  0  0  0  0  0  0  0  0  0  0
   38.1952    5.2133    9.9210 C   0  0  2  0  0  0  0  0  0  0  0  0
   37.0923    5.6876   10.8005 N   0  0  0  0  0  0  0  0  0  0  0  0
   43.2362    2.8793    6.8417 C   0  0  2  0  0  0  0  0  0  0  0  0
   43.4215    1.7354    7.7535 N   0  0  0  0  0  0  0  0  0  0  0  0
   38.9855    4.0229   10.5702 C   0  0  0  0  0  0  0  0  0  0  0  0
   35.7379    4.5246   10.8195 C   0  0  0  0  0  0  0  0  0  0  0  0
   35.0365    5.5723   11.6256 C   0  0  1  0  0  0  0  0  0  0  0  0
   33.8529    6.0709   10.7890 C   0  0  0  0  0  0  0  0  0  0  0  0
   33.1309    7.3207   11.3257 C   0  0  0  0  0  0  0  0  0  0  0  0
   32.0475    7.6651   10.4029 N   0  0  0  0  0  0  0  0  0  0  0  0
   34.5194    5.0147   12.8029 O   0  0  0  0  0  0  0  0  0  0  0  0
   37.6033    8.1563    8.1559 C   0  0  0  0  0  0  0  0  0  0  0  0
   38.4482    8.4178    6.9179 C   0  0  0  0  0  0  0  0  0  0  0  0
   44.5132    3.7836    6.8485 C   0  0  1  0  0  0  0  0  0  0  0  0
   37.9327    9.4967    6.0512 N   0  0  0  0  0  0  0  0  0  0  0  0
   45.6768    3.0282    6.5216 O   0  0  0  0  0  0  0  0  0  0  0  0
   40.1598    3.5756    9.6762 C   0  0  2  0  0  0  0  0  0  0  0  0
   40.9208    2.5006   10.3002 N   0  0  0  0  0  0  0  0  0  0  0  0
   37.0260   10.4439    3.9345 C   0  0  0  0  0  0  0  0  0  0  0  0
   36.6540   10.1863    2.4433 C   0  0  0  0  0  0  0  0  0  0  0  0
   37.7732    9.2554    4.5939 C   0  0  0  0  0  0  0  0  0  0  0  0
   35.7604    8.9993    2.2893 N   0  0  0  0  0  0  0  0  0  0  0  0
   35.5354    3.5596   10.3844 O   0  0  0  0  0  0  0  0  0  0  0  0
   44.2915    4.9368    5.8493 C   0  0  2  0  0  0  0  0  0  0  0  0
   45.4027    5.8274    5.7887 O   0  0  0  0  0  0  0  0  0  0  0  0
   41.0999    4.7364    9.4191 C   0  0  2  0  0  0  0  0  0  0  0  0
   43.0236    5.7342    6.2045 C   0  0  2  0  0  0  0  0  0  0  0  0
   41.8840    4.8718    6.2927 O   0  0  0  0  0  0  0  0  0  0  0  0
   40.3139    5.9193    8.7211 C   0  0  2  0  0  0  0  0  0  0  0  0
   41.2393    7.0301    8.5021 O   0  0  0  0  0  0  0  0  0  0  0  0
   42.7404    6.8147    5.1953 C   0  0  0  0  0  0  0  0  0  0  0  0
   41.5957    7.5010    5.5326 O   0  0  0  0  0  0  0  0  0  0  0  0
   39.1411    6.3683    9.6571 C   0  0  1  0  0  0  0  0  0  0  0  0
   38.4023    7.4187    9.1048 O   0  0  0  0  0  0  0  0  0  0  0  0
  1  2  1  1  0  0  0
  1  5  1  0  0  0  0
  1 30  1  0  0  0  0
  3  4  1  1  0  0  0
  3  7  1  0  0  0  0
  3 35  1  0  0  0  0
  5  6  1  1  0  0  0
  5 16  1  0  0  0  0
  7 19  1  0  0  0  0
  8  4  1  0  0  0  0
  8 25  2  0  0  0  0
  9  8  1  6  0  0  0
  9 10  1  0  0  0  0
  9 13  1  0  0  0  0
 10 11  1  0  0  0  0
 11 12  1  0  0  0  0
 14 15  1  0  0  0  0
 14 36  1  0  0  0  0
 15 17  1  0  0  0  0
 16 18  1  6  0  0  0
 16 26  1  0  0  0  0
 17 23  1  0  0  0  0
 19 20  1  1  0  0  0
 19 28  1  0  0  0  0
 21 22  1  0  0  0  0
 21 23  1  0  0  0  0
 22 24  1  0  0  0  0
 26 27  1  1  0  0  0
 26 29  1  0  0  0  0
 28  2  1  6  0  0  0
 28 31  1  0  0  0  0
 29 30  1  0  0  0  0
 29 33  1  6  0  0  0
 31 32  1  1  0  0  0
 31 35  1  0  0  0  0
 33 34  1  0  0  0  0
 35 36  1  6  0  0  0
M  END
>  <CHROM.1>
-161.86708879,-73.21621488,114.61797795,-170.04465120,179.27866355,-161.98488096
-65.48838816,-129.85552787,171.56864495,60.15188660,-172.47981035,66.02014222
179.43261512,-66.44459937,39.37668278,5.90784614,7.98282887,-0.11521175,-0.40390507
2.24381387

>  <Name>
2f4u_lig

>  <RI>
0

>  <Rbt.Current_Directory>
/home/itssahil/PROJECTS/Mol_Feturizer/New_Systems/rnas/2f4u

>  <Rbt.Executable>
rbdock ($Id: //depot/dev/client3/rdock/2013.1/src/exe/rbdock.cxx#4 $)

>  <Rbt.Library>
libRbt.so (2013.1, Build901 2013/11/27)

>  <Rbt.Parameter_File>
/export/apps/rDock/src/rDock_2013.1_src/data/scripts/dock_solv.prm

>  <Rbt.Receptor>
prm/pocket_docking_4.prm

>  <SCORE>
-18.9227

>  <SCORE.INTER>
-7.96124

>  <SCORE.INTER.CONST>
1

>  <SCORE.INTER.POLAR>
-2.09377

>  <SCORE.INTER.ROT>
14

>  <SCORE.INTER.SOLV>
21.3801

>  <SCORE.INTER.VDW>
-18.3883

>  <SCORE.INTER.norm>
-0.221146

>  <SCORE.INTRA>
-10.9615

>  <SCORE.INTRA.DIHEDRAL>
-18.8549

>  <SCORE.INTRA.DIHEDRAL.0>
26.3805

>  <SCORE.INTRA.POLAR>
0

>  <SCORE.INTRA.POLAR.0>
0

>  <SCORE.INTRA.REPUL>
0

>  <SCORE.INTRA.REPUL.0>
0

>  <SCORE.INTRA.SOLV>
1.51329

>  <SCORE.INTRA.SOLV.lig_0>
-98.5587

>  <SCORE.INTRA.VDW>
-2.29069

>  <SCORE.INTRA.VDW.0>
-2.91167

>  <SCORE.INTRA.norm>
-0.304485

>  <SCORE.RESTR>
0

>  <SCORE.RESTR.CAVITY>
0

>  <SCORE.RESTR.norm>
0

>  <SCORE.SYSTEM>
0

>  <SCORE.SYSTEM.CONST>
0

>  <SCORE.SYSTEM.DIHEDRAL>
0

>  <SCORE.SYSTEM.SOLV>
0

>  <SCORE.SYSTEM.norm>
0

>  <SCORE.heavy>
36

>  <SCORE.norm>
-0.525631

>  <RMSD>
8.870

$$$$
2f4u_lig
 OpenBabel11021811433D
libRbt.so/2013.1/901 2013/11/27
 36 37  0  0  0  0  0  0  0  0999 V2000
   45.0669    5.2461    6.1661 C   0  0  2  0  0  0  0  0  0  0  0  0
   44.0998    4.1426    6.3236 O   0  0  0  0  0  0  0  0  0  0  0  0
   40.0716    3.8438    7.9299 C   0  0  2  0  0  0  0  0  0  0  0  0
   38.9474    3.9210    8.9020 N   0  0  0  0  0  0  0  0  0  0  0  0
   45.5591    5.2027    4.6862 C   0  0  2  0  0  0  0  0  0  0  0  0
   44.4568    5.3409    3.7165 N   0  0  0  0  0  0  0  0  0  0  0  0
   41.2114    2.8898    8.4338 C   0  0  0  0  0  0  0  0  0  0  0  0
   39.4678    4.6850   10.4294 C   0  0  0  0  0  0  0  0  0  0  0  0
   38.1002    4.3173   10.9134 C   0  0  1  0  0  0  0  0  0  0  0  0
   38.1128    4.4376   12.4414 C   0  0  0  0  0  0  0  0  0  0  0  0
   36.8285    3.9854   13.1607 C   0  0  0  0  0  0  0  0  0  0  0  0
   35.7512    4.9166   12.8199 N   0  0  0  0  0  0  0  0  0  0  0  0
   37.1510    5.2248   10.4238 O   0  0  0  0  0  0  0  0  0  0  0  0
   38.5166    6.5789    6.4750 C   0  0  0  0  0  0  0  0  0  0  0  0
   39.0779    6.8955    5.0968 C   0  0  0  0  0  0  0  0  0  0  0  0
   46.3194    3.8563    4.4463 C   0  0  1  0  0  0  0  0  0  0  0  0
   38.0491    7.0929    4.0558 N   0  0  0  0  0  0  0  0  0  0  0  0
   46.7815    3.7623    3.1014 O   0  0  0  0  0  0  0  0  0  0  0  0
   42.3953    2.8599    7.4459 C   0  0  2  0  0  0  0  0  0  0  0  0
   43.4726    2.0094    7.9361 N   0  0  0  0  0  0  0  0  0  0  0  0
   36.8656    6.3340    2.0007 C   0  0  0  0  0  0  0  0  0  0  0  0
   36.3143    5.1337    1.1739 C   0  0  0  0  0  0  0  0  0  0  0  0
   37.4638    5.9129    3.3684 C   0  0  0  0  0  0  0  0  0  0  0  0
   37.3834    4.1414    0.8520 N   0  0  0  0  0  0  0  0  0  0  0  0
   40.3739    5.1296   10.8072 O   0  0  0  0  0  0  0  0  0  0  0  0
   47.4874    3.7780    5.4498 C   0  0  2  0  0  0  0  0  0  0  0  0
   48.2411    2.5755    5.3170 O   0  0  0  0  0  0  0  0  0  0  0  0
   42.9478    4.2564    7.2412 C   0  0  2  0  0  0  0  0  0  0  0  0
   46.9763    3.8967    6.8969 C   0  0  2  0  0  0  0  0  0  0  0  0
   46.1975    5.0858    7.0691 O   0  0  0  0  0  0  0  0  0  0  0  0
   41.8106    5.2078    6.6879 C   0  0  2  0  0  0  0  0  0  0  0  0
   42.3659    6.5497    6.5175 O   0  0  0  0  0  0  0  0  0  0  0  0
   48.1065    3.9059    7.8912 C   0  0  0  0  0  0  0  0  0  0  0  0
   48.7643    2.6965    7.8843 O   0  0  0  0  0  0  0  0  0  0  0  0
   40.6308    5.2368    7.7176 C   0  0  1  0  0  0  0  0  0  0  0  0
   39.5870    6.0654    7.2955 O   0  0  0  0  0  0  0  0  0  0  0  0
  1  2  1  6  0  0  0
  1  5  1  0  0  0  0
  1 30  1  0  0  0  0
  3  4  1  1  0  0  0
  3  7  1  0  0  0  0
  3 35  1  0  0  0  0
  5  6  1  6  0  0  0
  5 16  1  0  0  0  0
  7 19  1  0  0  0  0
  8  4  1  0  0  0  0
  8 25  2  0  0  0  0
  9  8  1  6  0  0  0
  9 10  1  0  0  0  0
  9 13  1  0  0  0  0
 10 11  1  0  0  0  0
 11 12  1  0  0  0  0
 14 15  1  0  0  0  0
 14 36  1  0  0  0  0
 15 17  1  0  0  0  0
 16 18  1  6  0  0  0
 16 26  1  0  0  0  0
 17 23  1  0  0  0  0
 19 20  1  1  0  0  0
 19 28  1  0  0  0  0
 21 22  1  0  0  0  0
 21 23  1  0  0  0  0
 22 24  1  0  0  0  0
 26 27  1  1  0  0  0
 26 29  1  0  0  0  0
 28  2  1  6  0  0  0
 28 31  1  0  0  0  0
 29 30  1  0  0  0  0
 29 33  1  1  0  0  0
 31 32  1  1  0  0  0
 31 35  1  0  0  0  0
 33 34  1  0  0  0  0
 35 36  1  6  0  0  0
M  END
>  <CHROM.1>
-147.23156005,65.44998599,164.60121044,-174.96964043,-67.47810992,164.89422484
-58.49660996,-83.19989269,-157.92885615,-60.96714861,176.19777687,-164.96015586
-65.43456799,-61.59836354,41.73631259,4.64646524,6.91556483,-0.25542774,-0.18049186
1.71815185

>  <Name>
2f4u_lig

>  <RI>
0

>  <Rbt.Current_Directory>
/home/itssahil/PROJECTS/Mol_Feturizer/New_Systems/rnas/2f4u

>  <Rbt.Executable>
rbdock ($Id: //depot/dev/client3/rdock/2013.1/src/exe/rbdock.cxx#4 $)

>  <Rbt.Library>
libRbt.so (2013.1, Build901 2013/11/27)

>  <Rbt.Parameter_File>
/export/apps/rDock/src/rDock_2013.1_src/data/scripts/dock_solv.prm

>  <Rbt.Receptor>
prm/pocket_docking_6.prm

>  <SCORE>
-15.3743

>  <SCORE.INTER>
-6.80208

>  <SCORE.INTER.CONST>
1

>  <SCORE.INTER.POLAR>
-1.64687

>  <SCORE.INTER.ROT>
14

>  <SCORE.INTER.SOLV>
9.6792

>  <SCORE.INTER.VDW>
-15.2049

>  <SCORE.INTER.norm>
-0.188947

>  <SCORE.INTRA>
-8.57219

>  <SCORE.INTRA.DIHEDRAL>
-18.1236

>  <SCORE.INTRA.DIHEDRAL.0>
26.3805

>  <SCORE.INTRA.POLAR>
0

>  <SCORE.INTRA.POLAR.0>
0

>  <SCORE.INTRA.REPUL>
0

>  <SCORE.INTRA.REPUL.0>
0

>  <SCORE.INTRA.SOLV>
2.96818

>  <SCORE.INTRA.SOLV.lig_0>
-98.5587

>  <SCORE.INTRA.VDW>
-0.994482

>  <SCORE.INTRA.VDW.0>
-2.91167

>  <SCORE.INTRA.norm>
-0.238116

>  <SCORE.RESTR>
0

>  <SCORE.RESTR.CAVITY>
0

>  <SCORE.RESTR.norm>
0

>  <SCORE.SYSTEM>
0

>  <SCORE.SYSTEM.CONST>
0

>  <SCORE.SYSTEM.DIHEDRAL>
0

>  <SCORE.SYSTEM.SOLV>
0

>  <SCORE.SYSTEM.norm>
0

>  <SCORE.heavy>
36

>  <SCORE.norm>
-0.427063

>  <RMSD>
8.875

$$$$
2f4u_lig
 OpenBabel11021811433D
libRbt.so/2013.1/901 2013/11/27
 36 37  0  0  0  0  0  0  0  0999 V2000
   39.9071    4.4747   10.0570 C   0  0  2  0  0  0  0  0  0  0  0  0
   38.8851    4.5449    8.9947 O   0  0  0  0  0  0  0  0  0  0  0  0
   39.0125    6.5581    5.1442 C   0  0  2  0  0  0  0  0  0  0  0  0
   38.9755    7.6581    4.1425 N   0  0  0  0  0  0  0  0  0  0  0  0
   39.8505    3.0280   10.6383 C   0  0  2  0  0  0  0  0  0  0  0  0
   40.0979    1.9947    9.6159 N   0  0  0  0  0  0  0  0  0  0  0  0
   37.6766    6.4729    5.9636 C   0  0  0  0  0  0  0  0  0  0  0  0
   38.6330    9.2275    4.9215 C   0  0  0  0  0  0  0  0  0  0  0  0
   38.5732    9.7488    3.5199 C   0  0  1  0  0  0  0  0  0  0  0  0
   37.5002   10.8430    3.4887 C   0  0  0  0  0  0  0  0  0  0  0  0
   37.1000   11.3507    2.0911 C   0  0  0  0  0  0  0  0  0  0  0  0
   36.4500   10.2569    1.3666 N   0  0  0  0  0  0  0  0  0  0  0  0
   39.7940   10.3411    3.1690 O   0  0  0  0  0  0  0  0  0  0  0  0
   42.2849    7.3960    4.3563 C   0  0  0  0  0  0  0  0  0  0  0  0
   43.4785    6.4535    4.3134 C   0  0  0  0  0  0  0  0  0  0  0  0
   38.4502    2.8042   11.2998 C   0  0  1  0  0  0  0  0  0  0  0  0
   44.1847    6.3135    5.6028 N   0  0  0  0  0  0  0  0  0  0  0  0
   38.3431    1.4890   11.8384 O   0  0  0  0  0  0  0  0  0  0  0  0
   37.7460    5.3665    7.0358 C   0  0  2  0  0  0  0  0  0  0  0  0
   36.5225    5.3179    7.8264 N   0  0  0  0  0  0  0  0  0  0  0  0
   45.2260    4.1809    6.3564 C   0  0  0  0  0  0  0  0  0  0  0  0
   45.0699    2.8598    7.1679 C   0  0  0  0  0  0  0  0  0  0  0  0
   43.9750    5.0950    6.4268 C   0  0  0  0  0  0  0  0  0  0  0  0
   46.3138    2.0336    7.1317 N   0  0  0  0  0  0  0  0  0  0  0  0
   38.4810    9.5789    5.9289 O   0  0  0  0  0  0  0  0  0  0  0  0
   38.2563    3.8767   12.3904 C   0  0  2  0  0  0  0  0  0  0  0  0
   36.9980    3.7627   13.0502 O   0  0  0  0  0  0  0  0  0  0  0  0
   38.9096    5.6134    7.9751 C   0  0  2  0  0  0  0  0  0  0  0  0
   38.3902    5.2914   11.7986 C   0  0  2  0  0  0  0  0  0  0  0  0
   39.6365    5.4428   11.1101 O   0  0  0  0  0  0  0  0  0  0  0  0
   40.2626    5.6521    7.1551 C   0  0  2  0  0  0  0  0  0  0  0  0
   41.3636    5.9094    8.0822 O   0  0  0  0  0  0  0  0  0  0  0  0
   38.2868    6.3545   12.8593 C   0  0  0  0  0  0  0  0  0  0  0  0
   38.2552    7.6057   12.2860 O   0  0  0  0  0  0  0  0  0  0  0  0
   40.1744    6.7957    6.0885 C   0  0  1  0  0  0  0  0  0  0  0  0
   41.3422    6.8928    5.3263 O   0  0  0  0  0  0  0  0  0  0  0  0
  1  2  1  6  0  0  0
  1  5  1  0  0  0  0
  1 30  1  0  0  0  0
  3  4  1  6  0  0  0
  3  7  1  0  0  0  0
  3 35  1  0  0  0  0
  5  6  1  6  0  0  0
  5 16  1  0  0  0  0
  7 19  1  0  0  0  0
  8  4  1  0  0  0  0
  8 25  2  0  0  0  0
  9  8  1  1  0  0  0
  9 10  1  0  0  0  0
  9 13  1  0  0  0  0
 10 11  1  0  0  0  0
 11 12  1  0  0  0  0
 14 15  1  0  0  0  0
 14 36  1  0  0  0  0
 15 17  1  0  0  0  0
 16 18  1  1  0  0  0
 16 26  1  0  0  0  0
 17 23  1  0  0  0  0
 19 20  1  1  0  0  0
 19 28  1  0  0  0  0
 21 22  1  0  0  0  0
 21 23  1  0  0  0  0
 22 24  1  0  0  0  0
 26 27  1  6  0  0  0
 26 29  1  0  0  0  0
 28  2  1  1  0  0  0
 28 31  1  0  0  0  0
 29 30  1  0  0  0  0
 29 33  1  1  0  0  0
 31 32  1  1  0  0  0
 31 35  1  0  0  0  0
 33 34  1  0  0  0  0
 35 36  1  6  0  0  0
M  END
>  <CHROM.1>
-162.23405922,56.58456174,145.20930554,-169.85669305,65.70303394,-59.71914341
-176.29311916,103.06291298,106.49926125,-177.32553019,-178.51018615,178.86066433
-173.08784874,62.30713776,39.84530955,6.07800776,7.44134390,1.52963489,-0.45236702
2.18387065

>  <Name>
2f4u_lig

>  <RI>
0

>  <Rbt.Current_Directory>
/home/itssahil/PROJECTS/Mol_Feturizer/New_Systems/rnas/2f4u

>  <Rbt.Executable>
rbdock ($Id: //depot/dev/client3/rdock/2013.1/src/exe/rbdock.cxx#4 $)

>  <Rbt.Library>
libRbt.so (2013.1, Build901 2013/11/27)

>  <Rbt.Parameter_File>
/export/apps/rDock/src/rDock_2013.1_src/data/scripts/dock_solv.prm

>  <Rbt.Receptor>
prm/pocket_docking_5.prm

>  <SCORE>
-18.1754

>  <SCORE.INTER>
-6.69782

>  <SCORE.INTER.CONST>
1

>  <SCORE.INTER.POLAR>
-0.556245

>  <SCORE.INTER.ROT>
14

>  <SCORE.INTER.SOLV>
18.0567

>  <SCORE.INTER.VDW>
-21.5633

>  <SCORE.INTER.norm>
-0.186051

>  <SCORE.INTRA>
-11.4775

>  <SCORE.INTRA.DIHEDRAL>
-20.3439

>  <SCORE.INTRA.DIHEDRAL.0>
26.3805

>  <SCORE.INTRA.POLAR>
0

>  <SCORE.INTRA.POLAR.0>
0

>  <SCORE.INTRA.REPUL>
0

>  <SCORE.INTRA.REPUL.0>
0

>  <SCORE.INTRA.SOLV>
1.12384

>  <SCORE.INTRA.SOLV.lig_0>
-98.5587

>  <SCORE.INTRA.VDW>
-1.86753

>  <SCORE.INTRA.VDW.0>
-2.91167

>  <SCORE.INTRA.norm>
-0.318821

>  <SCORE.RESTR>
0

>  <SCORE.RESTR.CAVITY>
0

>  <SCORE.RESTR.norm>
0

>  <SCORE.SYSTEM>
0

>  <SCORE.SYSTEM.CONST>
0

>  <SCORE.SYSTEM.DIHEDRAL>
0

>  <SCORE.SYSTEM.SOLV>
0

>  <SCORE.SYSTEM.norm>
0

>  <SCORE.heavy>
36

>  <SCORE.norm>
-0.504871

>  <RMSD>
8.881

$$$$
2f4u_lig
 OpenBabel11021811433D
libRbt.so/2013.1/901 2013/11/27
 36 37  0  0  0  0  0  0  0  0999 V2000
   40.8627    4.1986    5.8827 C   0  0  2  0  0  0  0  0  0  0  0  0
   40.3011    4.4268    7.2283 O   0  0  0  0  0  0  0  0  0  0  0  0
   36.3939    5.9098    8.4240 C   0  0  2  0  0  0  0  0  0  0  0  0
   35.2792    6.8642    8.6716 N   0  0  0  0  0  0  0  0  0  0  0  0
   41.8545    3.0008    6.0084 C   0  0  2  0  0  0  0  0  0  0  0  0
   41.2052    1.7758    6.5105 N   0  0  0  0  0  0  0  0  0  0  0  0
   37.6834    6.3008    9.2286 C   0  0  0  0  0  0  0  0  0  0  0  0
   35.8005    8.5493    8.3954 C   0  0  0  0  0  0  0  0  0  0  0  0
   34.4463    8.9046    8.9242 C   0  0  1  0  0  0  0  0  0  0  0  0
   34.6095   10.1695    9.7744 C   0  0  0  0  0  0  0  0  0  0  0  0
   34.1188   10.0673   11.2305 C   0  0  0  0  0  0  0  0  0  0  0  0
   32.6581    9.9657   11.2238 N   0  0  0  0  0  0  0  0  0  0  0  0
   33.5773    9.2118    7.8684 O   0  0  0  0  0  0  0  0  0  0  0  0
   34.6159    5.3923    5.1517 C   0  0  0  0  0  0  0  0  0  0  0  0
   34.2926    6.7604    4.5700 C   0  0  0  0  0  0  0  0  0  0  0  0
   43.0277    3.4143    6.9576 C   0  0  1  0  0  0  0  0  0  0  0  0
   35.4480    7.4438    3.9543 N   0  0  0  0  0  0  0  0  0  0  0  0
   43.9590    2.3469    7.1148 O   0  0  0  0  0  0  0  0  0  0  0  0
   38.8488    5.3380    8.9225 C   0  0  2  0  0  0  0  0  0  0  0  0
   40.0589    5.7282    9.6349 N   0  0  0  0  0  0  0  0  0  0  0  0
   36.5829    9.5783    3.3579 C   0  0  0  0  0  0  0  0  0  0  0  0
   37.1170    9.8029    4.8045 C   0  0  0  0  0  0  0  0  0  0  0  0
   35.2599    8.7701    3.3115 C   0  0  0  0  0  0  0  0  0  0  0  0
   38.3389   10.6619    4.8199 N   0  0  0  0  0  0  0  0  0  0  0  0
   36.7012    9.0404    8.0654 O   0  0  0  0  0  0  0  0  0  0  0  0
   43.7034    4.6690    6.3691 C   0  0  2  0  0  0  0  0  0  0  0  0
   44.7865    5.1326    7.1714 O   0  0  0  0  0  0  0  0  0  0  0  0
   39.1524    5.3316    7.4376 C   0  0  2  0  0  0  0  0  0  0  0  0
   42.6837    5.8081    6.1897 C   0  0  2  0  0  0  0  0  0  0  0  0
   41.5683    5.3778    5.4019 O   0  0  0  0  0  0  0  0  0  0  0  0
   37.8656    4.8914    6.6284 C   0  0  2  0  0  0  0  0  0  0  0  0
   38.1816    4.9117    5.2009 O   0  0  0  0  0  0  0  0  0  0  0  0
   43.3025    7.0167    5.5396 C   0  0  0  0  0  0  0  0  0  0  0  0
   43.7509    6.7073    4.2754 O   0  0  0  0  0  0  0  0  0  0  0  0
   36.7047    5.8955    6.9403 C   0  0  1  0  0  0  0  0  0  0  0  0
   35.5316    5.5705    6.2528 O   0  0  0  0  0  0  0  0  0  0  0  0
  1  2  1  1  0  0  0
  1  5  1  0  0  0  0
  1 30  1  0  0  0  0
  3  4  1  6  0  0  0
  3  7  1  0  0  0  0
  3 35  1  0  0  0  0
  5  6  1  1  0  0  0
  5 16  1  0  0  0  0
  7 19  1  0  0  0  0
  8  4  1  0  0  0  0
  8 25  2  0  0  0  0
  9  8  1  6  0  0  0
  9 10  1  0  0  0  0
  9 13  1  0  0  0  0
 10 11  1  0  0  0  0
 11 12  1  0  0  0  0
 14 15  1  0  0  0  0
 14 36  1  0  0  0  0
 15 17  1  0  0  0  0
 16 18  1  6  0  0  0
 16 26  1  0  0  0  0
 17 23  1  0  0  0  0
 19 20  1  1  0  0  0
 19 28  1  0  0  0  0
 21 22  1  0  0  0  0
 21 23  1  0  0  0  0
 22 24  1  0  0  0  0
 26 27  1  1  0  0  0
 26 29  1  0  0  0  0
 28  2  1  1  0  0  0
 28 31  1  0  0  0  0
 29 30  1  0  0  0  0
 29 33  1  6  0  0  0
 31 32  1  6  0  0  0
 31 35  1  0  0  0  0
 33 34  1  0  0  0  0
 35 36  1  6  0  0  0
M  END
>  <CHROM.1>
-169.23962296,52.33394383,142.27234734,-123.76522767,-69.08135969,65.09911179
-65.50304578,178.12962985,152.78533480,-176.11027933,-58.36420183,-179.58600362
62.20966704,167.89695473,38.37540023,6.52309885,6.84844427,0.03940472,0.52116222
-1.31840523

>  <Name>
2f4u_lig

>  <RI>
0

>  <Rbt.Current_Directory>
/home/itssahil/PROJECTS/Mol_Feturizer/New_Systems/rnas/2f4u

>  <Rbt.Executable>
rbdock ($Id: //depot/dev/client3/rdock/2013.1/src/exe/rbdock.cxx#4 $)

>  <Rbt.Library>
libRbt.so (2013.1, Build901 2013/11/27)

>  <Rbt.Parameter_File>
/export/apps/rDock/src/rDock_2013.1_src/data/scripts/dock_solv.prm

>  <Rbt.Receptor>
prm/pocket_docking_7.prm

>  <SCORE>
-15.2463

>  <SCORE.INTER>
-5.33837

>  <SCORE.INTER.CONST>
1

>  <SCORE.INTER.POLAR>
-1.82289

>  <SCORE.INTER.ROT>
14

>  <SCORE.INTER.SOLV>
11.8649

>  <SCORE.INTER.VDW>
-14.3709

>  <SCORE.INTER.norm>
-0.148288

>  <SCORE.INTRA>
-9.90798

>  <SCORE.INTRA.DIHEDRAL>
-16.9668

>  <SCORE.INTRA.DIHEDRAL.0>
26.3805

>  <SCORE.INTRA.POLAR>
0

>  <SCORE.INTRA.POLAR.0>
0

>  <SCORE.INTRA.REPUL>
0

>  <SCORE.INTRA.REPUL.0>
0

>  <SCORE.INTRA.SOLV>
1.9559

>  <SCORE.INTRA.SOLV.lig_0>
-98.5587

>  <SCORE.INTRA.VDW>
-2.40255

>  <SCORE.INTRA.VDW.0>
-2.91167

>  <SCORE.INTRA.norm>
-0.275222

>  <SCORE.RESTR>
0

>  <SCORE.RESTR.CAVITY>
0

>  <SCORE.RESTR.norm>
0

>  <SCORE.SYSTEM>
0

>  <SCORE.SYSTEM.CONST>
0

>  <SCORE.SYSTEM.DIHEDRAL>
0

>  <SCORE.SYSTEM.SOLV>
0

>  <SCORE.SYSTEM.norm>
0

>  <SCORE.heavy>
36

>  <SCORE.norm>
-0.42351

>  <RMSD>
8.899

$$$$
2f4u_lig
 OpenBabel11021811433D
libRbt.so/2013.1/901 2013/11/27
 36 37  0  0  0  0  0  0  0  0999 V2000
   37.7014    4.9794   10.2589 C   0  0  2  0  0  0  0  0  0  0  0  0
   37.8118    4.9858    8.7873 O   0  0  0  0  0  0  0  0  0  0  0  0
   38.6734    7.7817    5.5723 C   0  0  2  0  0  0  0  0  0  0  0  0
   39.1407    9.0152    4.8832 N   0  0  0  0  0  0  0  0  0  0  0  0
   39.0704    4.4718   10.8088 C   0  0  2  0  0  0  0  0  0  0  0  0
   40.2023    5.3141   10.3803 N   0  0  0  0  0  0  0  0  0  0  0  0
   37.5611    8.0950    6.6343 C   0  0  0  0  0  0  0  0  0  0  0  0
   37.8550    9.7045    3.8541 C   0  0  0  0  0  0  0  0  0  0  0  0
   38.9201   10.6562    3.4071 C   0  0  1  0  0  0  0  0  0  0  0  0
   38.3128   11.5304    2.3042 C   0  0  0  0  0  0  0  0  0  0  0  0
   39.2354   12.6199    1.7271 C   0  0  0  0  0  0  0  0  0  0  0  0
   38.4299   13.5249    0.9049 N   0  0  0  0  0  0  0  0  0  0  0  0
   39.2914   11.5007    4.4622 O   0  0  0  0  0  0  0  0  0  0  0  0
   41.9351    7.1335    4.3840 C   0  0  0  0  0  0  0  0  0  0  0  0
   43.2371    6.9762    5.1553 C   0  0  0  0  0  0  0  0  0  0  0  0
   39.2891    2.9967   10.3345 C   0  0  1  0  0  0  0  0  0  0  0  0
   43.6888    5.5776    5.3000 N   0  0  0  0  0  0  0  0  0  0  0  0
   40.5355    2.4883   10.8030 O   0  0  0  0  0  0  0  0  0  0  0  0
   37.1235    6.8186    7.3812 C   0  0  2  0  0  0  0  0  0  0  0  0
   36.1233    7.1171    8.3985 N   0  0  0  0  0  0  0  0  0  0  0  0
   42.5939    3.4236    5.9012 C   0  0  0  0  0  0  0  0  0  0  0  0
   42.0597    2.4941    7.0322 C   0  0  0  0  0  0  0  0  0  0  0  0
   43.1849    4.7561    6.4309 C   0  0  0  0  0  0  0  0  0  0  0  0
   43.1706    1.8868    7.8250 N   0  0  0  0  0  0  0  0  0  0  0  0
   36.8257    9.4721    3.6354 O   0  0  0  0  0  0  0  0  0  0  0  0
   38.1074    2.1474   10.8437 C   0  0  2  0  0  0  0  0  0  0  0  0
   38.2098    0.7803   10.4533 O   0  0  0  0  0  0  0  0  0  0  0  0
   38.3131    6.1697    8.0600 C   0  0  2  0  0  0  0  0  0  0  0  0
   36.7673    2.7165   10.3439 C   0  0  2  0  0  0  0  0  0  0  0  0
   36.6317    4.0964   10.7010 O   0  0  0  0  0  0  0  0  0  0  0  0
   39.4155    5.8103    6.9830 C   0  0  2  0  0  0  0  0  0  0  0  0
   40.5567    5.2036    7.6669 O   0  0  0  0  0  0  0  0  0  0  0  0
   35.5935    1.9524   10.8957 C   0  0  0  0  0  0  0  0  0  0  0  0
   34.4117    2.4778   10.4239 O   0  0  0  0  0  0  0  0  0  0  0  0
   39.8572    7.1244    6.2542 C   0  0  1  0  0  0  0  0  0  0  0  0
   40.8378    6.8834    5.2874 O   0  0  0  0  0  0  0  0  0  0  0  0
  1  2  1  6  0  0  0
  1  5  1  0  0  0  0
  1 30  1  0  0  0  0
  3  4  1  1  0  0  0
  3  7  1  0  0  0  0
  3 35  1  0  0  0  0
  5  6  1  6  0  0  0
  5 16  1  0  0  0  0
  7 19  1  0  0  0  0
  8  4  1  0  0  0  0
  8 25  2  0  0  0  0
  9  8  1  1  0  0  0
  9 10  1  0  0  0  0
  9 13  1  0  0  0  0
 10 11  1  0  0  0  0
 11 12  1  0  0  0  0
 14 15  1  0  0  0  0
 14 36  1  0  0  0  0
 15 17  1  0  0  0  0
 16 18  1  1  0  0  0
 16 26  1  0  0  0  0
 17 23  1  0  0  0  0
 19 20  1  1  0  0  0
 19 28  1  0  0  0  0
 21 22  1  0  0  0  0
 21 23  1  0  0  0  0
 22 24  1  0  0  0  0
 26 27  1  6  0  0  0
 26 29  1  0  0  0  0
 28  2  1  6  0  0  0
 28 31  1  0  0  0  0
 29 30  1  0  0  0  0
 29 33  1  1  0  0  0
 31 32  1  1  0  0  0
 31 35  1  0  0  0  0
 33 34  1  0  0  0  0
 35 36  1  6  0  0  0
M  END
>  <CHROM.1>
-89.10025634,-67.53235187,175.71899425,178.17258787,-168.41568277,81.90221415
85.21061646,-86.41905372,127.20128734,-72.04990657,179.21913898,-106.76312702
-179.56352238,80.57865443,39.17662323,6.09889649,7.09036122,1.64842210,-0.35515729
2.44694540

>  <Name>
2f4u_lig

>  <RI>
0

>  <Rbt.Current_Directory>
/home/itssahil/PROJECTS/Mol_Feturizer/New_Systems/rnas/2f4u

>  <Rbt.Executable>
rbdock ($Id: //depot/dev/client3/rdock/2013.1/src/exe/rbdock.cxx#4 $)

>  <Rbt.Library>
libRbt.so (2013.1, Build901 2013/11/27)

>  <Rbt.Parameter_File>
/export/apps/rDock/src/rDock_2013.1_src/data/scripts/dock_solv.prm

>  <Rbt.Receptor>
prm/pocket_docking_3.prm

>  <SCORE>
-10.7507

>  <SCORE.INTER>
-7.44631

>  <SCORE.INTER.CONST>
1

>  <SCORE.INTER.POLAR>
-1.65164

>  <SCORE.INTER.ROT>
14

>  <SCORE.INTER.SOLV>
12.0785

>  <SCORE.INTER.VDW>
-16.4182

>  <SCORE.INTER.norm>
-0.206842

>  <SCORE.INTRA>
-3.39548

>  <SCORE.INTRA.DIHEDRAL>
-6.80824

>  <SCORE.INTRA.DIHEDRAL.0>
26.3805

>  <SCORE.INTRA.POLAR>
0

>  <SCORE.INTRA.POLAR.0>
0

>  <SCORE.INTRA.REPUL>
0

>  <SCORE.INTRA.REPUL.0>
0

>  <SCORE.INTRA.SOLV>
3.6292

>  <SCORE.INTRA.SOLV.lig_0>
-98.5587

>  <SCORE.INTRA.VDW>
-1.80596

>  <SCORE.INTRA.VDW.0>
-2.91167

>  <SCORE.INTRA.norm>
-0.0943189

>  <SCORE.RESTR>
0.091108

>  <SCORE.RESTR.CAVITY>
0.091108

>  <SCORE.RESTR.norm>
0.00253078

>  <SCORE.SYSTEM>
0

>  <SCORE.SYSTEM.CONST>
0

>  <SCORE.SYSTEM.DIHEDRAL>
0

>  <SCORE.SYSTEM.SOLV>
0

>  <SCORE.SYSTEM.norm>
0

>  <SCORE.heavy>
36

>  <SCORE.norm>
-0.29863

>  <RMSD>
8.910

$$$$
2f4u_lig
 OpenBabel11021811433D
libRbt.so/2013.1/901 2013/11/27
 36 37  0  0  0  0  0  0  0  0999 V2000
   35.9555    8.9240    8.8600 C   0  0  2  0  0  0  0  0  0  0  0  0
   36.7506    7.7777    8.3787 O   0  0  0  0  0  0  0  0  0  0  0  0
   37.7023    6.8437    4.2414 C   0  0  2  0  0  0  0  0  0  0  0  0
   37.5641    6.2830    2.8698 N   0  0  0  0  0  0  0  0  0  0  0  0
   36.2078    9.0311   10.3959 C   0  0  2  0  0  0  0  0  0  0  0  0
   37.6328    9.2172   10.7260 N   0  0  0  0  0  0  0  0  0  0  0  0
   37.6770    5.7181    5.3348 C   0  0  0  0  0  0  0  0  0  0  0  0
   36.0743    5.3110    2.7183 C   0  0  0  0  0  0  0  0  0  0  0  0
   36.6043    4.9707    1.3607 C   0  0  1  0  0  0  0  0  0  0  0  0
   35.7987    3.7721    0.8471 C   0  0  0  0  0  0  0  0  0  0  0  0
   36.0457    2.4368    1.5731 C   0  0  0  0  0  0  0  0  0  0  0  0
   37.4570    2.0777    1.4205 N   0  0  0  0  0  0  0  0  0  0  0  0
   36.3921    6.0360    0.4750 O   0  0  0  0  0  0  0  0  0  0  0  0
   37.1166    9.8371    2.6338 C   0  0  0  0  0  0  0  0  0  0  0  0
   37.5142   11.0153    3.5105 C   0  0  0  0  0  0  0  0  0  0  0  0
   35.6605    7.7390   11.0886 C   0  0  1  0  0  0  0  0  0  0  0  0
   38.5853   11.8578    2.9414 N   0  0  0  0  0  0  0  0  0  0  0  0
   35.8773    7.7825   12.4966 O   0  0  0  0  0  0  0  0  0  0  0  0
   37.7651    6.3136    6.7548 C   0  0  2  0  0  0  0  0  0  0  0  0
   37.6958    5.2713    7.7713 N   0  0  0  0  0  0  0  0  0  0  0  0
   40.9556   12.4134    2.4189 C   0  0  0  0  0  0  0  0  0  0  0  0
   40.9517   11.8895    0.9513 C   0  0  0  0  0  0  0  0  0  0  0  0
   39.9951   11.6305    3.3517 C   0  0  0  0  0  0  0  0  0  0  0  0
   41.9328   12.6223    0.0958 N   0  0  0  0  0  0  0  0  0  0  0  0
   35.2421    5.0590    3.3550 O   0  0  0  0  0  0  0  0  0  0  0  0
   34.1610    7.6118   10.7534 C   0  0  2  0  0  0  0  0  0  0  0  0
   33.5683    6.4532   11.3349 O   0  0  0  0  0  0  0  0  0  0  0  0
   36.6262    7.2852    6.9917 C   0  0  2  0  0  0  0  0  0  0  0  0
   33.9399    7.5821    9.2303 C   0  0  2  0  0  0  0  0  0  0  0  0
   34.5366    8.7229    8.6037 O   0  0  0  0  0  0  0  0  0  0  0  0
   36.6794    8.4467    5.9181 C   0  0  2  0  0  0  0  0  0  0  0  0
   35.5609    9.3572    6.1589 O   0  0  0  0  0  0  0  0  0  0  0  0
   32.4770    7.5414    8.8773 C   0  0  0  0  0  0  0  0  0  0  0  0
   31.8623    8.7204    9.2337 O   0  0  0  0  0  0  0  0  0  0  0  0
   36.5675    7.8181    4.4878 C   0  0  1  0  0  0  0  0  0  0  0  0
   36.6025    8.7903    3.4838 O   0  0  0  0  0  0  0  0  0  0  0  0
  1  2  1  1  0  0  0
  1  5  1  0  0  0  0
  1 30  1  0  0  0  0
  3  4  1  6  0  0  0
  3  7  1  0  0  0  0
  3 35  1  0  0  0  0
  5  6  1  6  0  0  0
  5 16  1  0  0  0  0
  7 19  1  0  0  0  0
  8  4  1  0  0  0  0
  8 25  2  0  0  0  0
  9  8  1  1  0  0  0
  9 10  1  0  0  0  0
  9 13  1  0  0  0  0
 10 11  1  0  0  0  0
 11 12  1  0  0  0  0
 14 15  1  0  0  0  0
 14 36  1  0  0  0  0
 15 17  1  0  0  0  0
 16 18  1  1  0  0  0
 16 26  1  0  0  0  0
 17 23  1  0  0  0  0
 19 20  1  1  0  0  0
 19 28  1  0  0  0  0
 21 22  1  0  0  0  0
 21 23  1  0  0  0  0
 22 24  1  0  0  0  0
 26 27  1  1  0  0  0
 26 29  1  0  0  0  0
 28  2  1  1  0  0  0
 28 31  1  0  0  0  0
 29 30  1  0  0  0  0
 29 33  1  1  0  0  0
 31 32  1  1  0  0  0
 31 35  1  0  0  0  0
 33 34  1  0  0  0  0
 35 36  1  6  0  0  0
M  END
>  <CHROM.1>
172.67885989,56.47043065,165.51985522,-69.39692023,-60.62962396,152.79985814
-60.46706221,-96.24962729,168.14046861,-177.33416534,-66.26666057,168.49034876
67.06262681,-55.73620588,36.61942256,7.79278755,5.62718055,-2.39004516,-0.99822798
-2.23534204

>  <Name>
2f4u_lig

>  <RI>
0

>  <Rbt.Current_Directory>
/home/itssahil/PROJECTS/Mol_Feturizer/New_Systems/rnas/2f4u

>  <Rbt.Executable>
rbdock ($Id: //depot/dev/client3/rdock/2013.1/src/exe/rbdock.cxx#4 $)

>  <Rbt.Library>
libRbt.so (2013.1, Build901 2013/11/27)

>  <Rbt.Parameter_File>
/export/apps/rDock/src/rDock_2013.1_src/data/scripts/dock_solv.prm

>  <Rbt.Receptor>
prm/pocket_docking_7.prm

>  <SCORE>
-13.7799

>  <SCORE.INTER>
-3.2158

>  <SCORE.INTER.CONST>
1

>  <SCORE.INTER.POLAR>
-0.56359

>  <SCORE.INTER.ROT>
14

>  <SCORE.INTER.SOLV>
11.1296

>  <SCORE.INTER.VDW>
-16.9084

>  <SCORE.INTER.norm>
-0.0893278

>  <SCORE.INTRA>
-10.5641

>  <SCORE.INTRA.DIHEDRAL>
-20.4714

>  <SCORE.INTRA.DIHEDRAL.0>
26.3805

>  <SCORE.INTRA.POLAR>
0

>  <SCORE.INTRA.POLAR.0>
0

>  <SCORE.INTRA.REPUL>
0

>  <SCORE.INTRA.REPUL.0>
0

>  <SCORE.INTRA.SOLV>
1.06391

>  <SCORE.INTRA.SOLV.lig_0>
-98.5587

>  <SCORE.INTRA.VDW>
-0.860317

>  <SCORE.INTRA.VDW.0>
-2.91167

>  <SCORE.INTRA.norm>
-0.293446

>  <SCORE.RESTR>
0

>  <SCORE.RESTR.CAVITY>
0

>  <SCORE.RESTR.norm>
0

>  <SCORE.SYSTEM>
0

>  <SCORE.SYSTEM.CONST>
0

>  <SCORE.SYSTEM.DIHEDRAL>
0

>  <SCORE.SYSTEM.SOLV>
0

>  <SCORE.SYSTEM.norm>
0

>  <SCORE.heavy>
36

>  <SCORE.norm>
-0.382774

>  <RMSD>
8.913

$$$$
2f4u_lig
 OpenBabel11021811433D
libRbt.so/2013.1/901 2013/11/27
 36 37  0  0  0  0  0  0  0  0999 V2000
   44.1014    4.4426    6.3551 C   0  0  2  0  0  0  0  0  0  0  0  0
   42.7992    3.9792    6.8724 O   0  0  0  0  0  0  0  0  0  0  0  0
   39.3877    5.9554    8.7032 C   0  0  2  0  0  0  0  0  0  0  0  0
   38.5967    6.7639    9.6703 N   0  0  0  0  0  0  0  0  0  0  0  0
   44.3179    3.7306    4.9839 C   0  0  2  0  0  0  0  0  0  0  0  0
   43.2448    4.0236    4.0159 N   0  0  0  0  0  0  0  0  0  0  0  0
   40.0725    4.7253    9.3969 C   0  0  0  0  0  0  0  0  0  0  0  0
   37.1755    5.8568   10.2577 C   0  0  0  0  0  0  0  0  0  0  0  0
   36.8129    7.1418   10.9336 C   0  0  1  0  0  0  0  0  0  0  0  0
   35.3204    7.0688   11.2750 C   0  0  0  0  0  0  0  0  0  0  0  0
   34.9288    6.0453   12.3568 C   0  0  0  0  0  0  0  0  0  0  0  0
   33.4809    6.1166   12.5632 N   0  0  0  0  0  0  0  0  0  0  0  0
   37.5180    7.2736   12.1377 O   0  0  0  0  0  0  0  0  0  0  0  0
   38.7396    8.7757    7.0010 C   0  0  0  0  0  0  0  0  0  0  0  0
   38.1224    8.1028    5.7840 C   0  0  0  0  0  0  0  0  0  0  0  0
   44.4158    2.1878    5.2261 C   0  0  1  0  0  0  0  0  0  0  0  0
   37.0169    8.8641    5.1680 N   0  0  0  0  0  0  0  0  0  0  0  0
   44.6035    1.4881    3.9986 O   0  0  0  0  0  0  0  0  0  0  0  0
   40.9339    3.9261    8.3981 C   0  0  2  0  0  0  0  0  0  0  0  0
   41.6057    2.8105    9.0527 N   0  0  0  0  0  0  0  0  0  0  0  0
   34.9314    7.9214    4.1873 C   0  0  0  0  0  0  0  0  0  0  0  0
   34.8297    6.7037    5.1543 C   0  0  0  0  0  0  0  0  0  0  0  0
   36.3917    8.3675    3.9150 C   0  0  0  0  0  0  0  0  0  0  0  0
   33.4116    6.3000    5.3941 N   0  0  0  0  0  0  0  0  0  0  0  0
   36.7700    4.8687   10.1141 O   0  0  0  0  0  0  0  0  0  0  0  0
   45.5774    1.9274    6.2059 C   0  0  2  0  0  0  0  0  0  0  0  0
   45.7436    0.5425    6.4994 O   0  0  0  0  0  0  0  0  0  0  0  0
   41.9899    4.8195    7.7784 C   0  0  2  0  0  0  0  0  0  0  0  0
   45.3702    2.7011    7.5204 C   0  0  2  0  0  0  0  0  0  0  0  0
   45.1814    4.0979    7.2684 O   0  0  0  0  0  0  0  0  0  0  0  0
   41.2976    6.0348    7.0380 C   0  0  2  0  0  0  0  0  0  0  0  0
   42.3386    6.8880    6.4664 O   0  0  0  0  0  0  0  0  0  0  0  0
   46.5324    2.5282    8.4615 C   0  0  0  0  0  0  0  0  0  0  0  0
   47.6826    3.0420    7.9063 O   0  0  0  0  0  0  0  0  0  0  0  0
   40.4467    6.8410    8.0768 C   0  0  1  0  0  0  0  0  0  0  0  0
   39.8070    7.9378    7.4920 O   0  0  0  0  0  0  0  0  0  0  0  0
  1  2  1  1  0  0  0
  1  5  1  0  0  0  0
  1 30  1  0  0  0  0
  3  4  1  1  0  0  0
  3  7  1  0  0  0  0
  3 35  1  0  0  0  0
  5  6  1  6  0  0  0
  5 16  1  0  0  0  0
  7 19  1  0  0  0  0
  8  4  1  0  0  0  0
  8 25  2  0  0  0  0
  9  8  1  1  0  0  0
  9 10  1  0  0  0  0
  9 13  1  0  0  0  0
 10 11  1  0  0  0  0
 11 12  1  0  0  0  0
 14 15  1  0  0  0  0
 14 36  1  0  0  0  0
 15 17  1  0  0  0  0
 16 18  1  6  0  0  0
 16 26  1  0  0  0  0
 17 23  1  0  0  0  0
 19 20  1  1  0  0  0
 19 28  1  0  0  0  0
 21 22  1  0  0  0  0
 21 23  1  0  0  0  0
 22 24  1  0  0  0  0
 26 27  1  1  0  0  0
 26 29  1  0  0  0  0
 28  2  1  6  0  0  0
 28 31  1  0  0  0  0
 29 30  1  0  0  0  0
 29 33  1  1  0  0  0
 31 32  1  1  0  0  0
 31 35  1  0  0  0  0
 33 34  1  0  0  0  0
 35 36  1  6  0  0  0
M  END
>  <CHROM.1>
-152.43986232,-67.61276821,161.26281525,68.10804813,179.54322200,-179.45374892
-68.48986125,175.59936776,112.55498658,-179.96341974,-64.54265913,-165.20310608
62.64493984,-9.84314051,40.36631324,5.28531210,7.59634422,0.12471855,0.46278032
-1.36338509

>  <Name>
2f4u_lig

>  <RI>
0

>  <Rbt.Current_Directory>
/home/itssahil/PROJECTS/Mol_Feturizer/New_Systems/rnas/2f4u

>  <Rbt.Executable>
rbdock ($Id: //depot/dev/client3/rdock/2013.1/src/exe/rbdock.cxx#4 $)

>  <Rbt.Library>
libRbt.so (2013.1, Build901 2013/11/27)

>  <Rbt.Parameter_File>
/export/apps/rDock/src/rDock_2013.1_src/data/scripts/dock_solv.prm

>  <Rbt.Receptor>
prm/pocket_docking_3.prm

>  <SCORE>
-7.3744

>  <SCORE.INTER>
-0.80754

>  <SCORE.INTER.CONST>
1

>  <SCORE.INTER.POLAR>
-1.36907

>  <SCORE.INTER.ROT>
14

>  <SCORE.INTER.SOLV>
9.74853

>  <SCORE.INTER.VDW>
-12.1576

>  <SCORE.INTER.norm>
-0.0224317

>  <SCORE.INTRA>
-6.84934

>  <SCORE.INTRA.DIHEDRAL>
-12.502

>  <SCORE.INTRA.DIHEDRAL.0>
26.3805

>  <SCORE.INTRA.POLAR>
0

>  <SCORE.INTRA.POLAR.0>
0

>  <SCORE.INTRA.REPUL>
0

>  <SCORE.INTRA.REPUL.0>
0

>  <SCORE.INTRA.SOLV>
0.22639

>  <SCORE.INTRA.SOLV.lig_0>
-98.5587

>  <SCORE.INTRA.VDW>
-0.71153

>  <SCORE.INTRA.VDW.0>
-2.91167

>  <SCORE.INTRA.norm>
-0.190259

>  <SCORE.RESTR>
0.282481

>  <SCORE.RESTR.CAVITY>
0.282481

>  <SCORE.RESTR.norm>
0.0078467

>  <SCORE.SYSTEM>
0

>  <SCORE.SYSTEM.CONST>
0

>  <SCORE.SYSTEM.DIHEDRAL>
0

>  <SCORE.SYSTEM.SOLV>
0

>  <SCORE.SYSTEM.norm>
0

>  <SCORE.heavy>
36

>  <SCORE.norm>
-0.204844

>  <RMSD>
8.940

$$$$
2f4u_lig
 OpenBabel11021811433D
libRbt.so/2013.1/901 2013/11/27
 36 37  0  0  0  0  0  0  0  0999 V2000
   44.9849    1.8308    7.9645 C   0  0  2  0  0  0  0  0  0  0  0  0
   44.8471    2.7710    6.8353 O   0  0  0  0  0  0  0  0  0  0  0  0
   42.1424    6.1377    6.3401 C   0  0  2  0  0  0  0  0  0  0  0  0
   40.8871    6.8926    6.0773 N   0  0  0  0  0  0  0  0  0  0  0  0
   46.2590    0.9756    7.6826 C   0  0  2  0  0  0  0  0  0  0  0  0
   47.4756    1.7972    7.5444 N   0  0  0  0  0  0  0  0  0  0  0  0
   42.5542    5.2495    5.1134 C   0  0  0  0  0  0  0  0  0  0  0  0
   40.9978    7.8165    4.5537 C   0  0  0  0  0  0  0  0  0  0  0  0
   39.6727    8.3779    4.9640 C   0  0  1  0  0  0  0  0  0  0  0  0
   39.3567    9.5364    4.0113 C   0  0  0  0  0  0  0  0  0  0  0  0
   37.8886   10.0000    3.9822 C   0  0  0  0  0  0  0  0  0  0  0  0
   37.5604   10.5897    5.2816 N   0  0  0  0  0  0  0  0  0  0  0  0
   38.6671    7.4141    4.8087 O   0  0  0  0  0  0  0  0  0  0  0  0
   41.2282    6.4768    9.9729 C   0  0  0  0  0  0  0  0  0  0  0  0
   40.2452    5.4705   10.5523 C   0  0  0  0  0  0  0  0  0  0  0  0
   46.0267    0.1374    6.3818 C   0  0  1  0  0  0  0  0  0  0  0  0
   39.7700    5.8029   11.9105 N   0  0  0  0  0  0  0  0  0  0  0  0
   47.1699   -0.6559    6.0734 O   0  0  0  0  0  0  0  0  0  0  0  0
   43.8250    4.4297    5.4162 C   0  0  2  0  0  0  0  0  0  0  0  0
   44.1812    3.5711    4.2936 N   0  0  0  0  0  0  0  0  0  0  0  0
   38.2624    6.8667   13.5825 C   0  0  0  0  0  0  0  0  0  0  0  0
   36.9213    7.6135   13.8508 C   0  0  0  0  0  0  0  0  0  0  0  0
   38.5083    6.5689   12.0803 C   0  0  0  0  0  0  0  0  0  0  0  0
   35.7366    6.7441   13.5830 N   0  0  0  0  0  0  0  0  0  0  0  0
   41.7259    7.9365    3.7682 O   0  0  0  0  0  0  0  0  0  0  0  0
   44.7742   -0.7372    6.5904 C   0  0  2  0  0  0  0  0  0  0  0  0
   44.4713   -1.5372    5.4502 O   0  0  0  0  0  0  0  0  0  0  0  0
   43.6110    3.5544    6.6349 C   0  0  2  0  0  0  0  0  0  0  0  0
   43.5511    0.1302    6.9383 C   0  0  2  0  0  0  0  0  0  0  0  0
   43.8200    0.9641    8.0707 O   0  0  0  0  0  0  0  0  0  0  0  0
   43.2420    4.4538    7.8837 C   0  0  2  0  0  0  0  0  0  0  0  0
   43.0238    3.5835    9.0382 O   0  0  0  0  0  0  0  0  0  0  0  0
   42.3342   -0.7074    7.2276 C   0  0  0  0  0  0  0  0  0  0  0  0
   41.9326   -1.3808    6.0960 O   0  0  0  0  0  0  0  0  0  0  0  0
   41.9386    5.2593    7.5587 C   0  0  1  0  0  0  0  0  0  0  0  0
   41.5479    6.0761    8.6238 O   0  0  0  0  0  0  0  0  0  0  0  0
  1  2  1  6  0  0  0
  1  5  1  0  0  0  0
  1 30  1  0  0  0  0
  3  4  1  6  0  0  0
  3  7  1  0  0  0  0
  3 35  1  0  0  0  0
  5  6  1  6  0  0  0
  5 16  1  0  0  0  0
  7 19  1  0  0  0  0
  8  4  1  0  0  0  0
  8 25  2  0  0  0  0
  9  8  1  6  0  0  0
  9 10  1  0  0  0  0
  9 13  1  0  0  0  0
 10 11  1  0  0  0  0
 11 12  1  0  0  0  0
 14 15  1  0  0  0  0
 14 36  1  0  0  0  0
 15 17  1  0  0  0  0
 16 18  1  1  0  0  0
 16 26  1  0  0  0  0
 17 23  1  0  0  0  0
 19 20  1  6  0  0  0
 19 28  1  0  0  0  0
 21 22  1  0  0  0  0
 21 23  1  0  0  0  0
 22 24  1  0  0  0  0
 26 27  1  6  0  0  0
 26 29  1  0  0  0  0
 28  2  1  1  0  0  0
 28 31  1  0  0  0  0
 29 30  1  0  0  0  0
 29 33  1  1  0  0  0
 31 32  1  1  0  0  0
 31 35  1  0  0  0  0
 33 34  1  0  0  0  0
 35 36  1  1  0  0  0
M  END
>  <CHROM.1>
167.97123921,-52.77055675,170.08402970,163.20655966,66.54595637,-176.67847813
-50.66775657,93.52883652,-176.67254065,68.89018128,-177.38140112,178.68800247
-65.54630580,-170.17642233,41.98054628,4.40197535,7.40397246,0.18737495,-0.86986529
2.07814005

>  <Name>
2f4u_lig

>  <RI>
0

>  <Rbt.Current_Directory>
/home/itssahil/PROJECTS/Mol_Feturizer/New_Systems/rnas/2f4u

>  <Rbt.Executable>
rbdock ($Id: //depot/dev/client3/rdock/2013.1/src/exe/rbdock.cxx#4 $)

>  <Rbt.Library>
libRbt.so (2013.1, Build901 2013/11/27)

>  <Rbt.Parameter_File>
/export/apps/rDock/src/rDock_2013.1_src/data/scripts/dock_solv.prm

>  <Rbt.Receptor>
prm/pocket_docking_6.prm

>  <SCORE>
-21.4863

>  <SCORE.INTER>
-11.4423

>  <SCORE.INTER.CONST>
1

>  <SCORE.INTER.POLAR>
-1.87422

>  <SCORE.INTER.ROT>
14

>  <SCORE.INTER.SOLV>
18.1585

>  <SCORE.INTER.VDW>
-20.367

>  <SCORE.INTER.norm>
-0.317841

>  <SCORE.INTRA>
-10.044

>  <SCORE.INTRA.DIHEDRAL>
-21.5852

>  <SCORE.INTRA.DIHEDRAL.0>
26.3805

>  <SCORE.INTRA.POLAR>
0

>  <SCORE.INTRA.POLAR.0>
0

>  <SCORE.INTRA.REPUL>
0

>  <SCORE.INTRA.REPUL.0>
0

>  <SCORE.INTRA.SOLV>
0.89251

>  <SCORE.INTRA.SOLV.lig_0>
-98.5587

>  <SCORE.INTRA.VDW>
0.302349

>  <SCORE.INTRA.VDW.0>
-2.91167

>  <SCORE.INTRA.norm>
-0.279

>  <SCORE.RESTR>
0

>  <SCORE.RESTR.CAVITY>
0

>  <SCORE.RESTR.norm>
0

>  <SCORE.SYSTEM>
0

>  <SCORE.SYSTEM.CONST>
0

>  <SCORE.SYSTEM.DIHEDRAL>
0

>  <SCORE.SYSTEM.SOLV>
0

>  <SCORE.SYSTEM.norm>
0

>  <SCORE.heavy>
36

>  <SCORE.norm>
-0.596841

>  <RMSD>
8.956

$$$$
2f4u_lig
 OpenBabel11021811433D
libRbt.so/2013.1/901 2013/11/27
 36 37  0  0  0  0  0  0  0  0999 V2000
   37.8176    5.5178   10.4968 C   0  0  2  0  0  0  0  0  0  0  0  0
   36.9717    6.1411    9.4605 O   0  0  0  0  0  0  0  0  0  0  0  0
   38.0766    8.4785    5.9661 C   0  0  2  0  0  0  0  0  0  0  0  0
   38.5381    9.6328    5.1480 N   0  0  0  0  0  0  0  0  0  0  0  0
   37.0768    4.2262   10.9628 C   0  0  2  0  0  0  0  0  0  0  0  0
   36.8341    3.2804    9.8579 N   0  0  0  0  0  0  0  0  0  0  0  0
   36.7923    8.8311    6.7965 C   0  0  0  0  0  0  0  0  0  0  0  0
   37.2973   10.1169    3.9590 C   0  0  0  0  0  0  0  0  0  0  0  0
   38.3500   11.0535    3.4548 C   0  0  1  0  0  0  0  0  0  0  0  0
   37.7081   11.9072    2.3554 C   0  0  0  0  0  0  0  0  0  0  0  0
   38.6040   13.0015    1.7464 C   0  0  0  0  0  0  0  0  0  0  0  0
   39.8005   12.3674    1.1894 N   0  0  0  0  0  0  0  0  0  0  0  0
   38.7618   11.9183    4.4779 O   0  0  0  0  0  0  0  0  0  0  0  0
   41.1672    7.1536    5.1499 C   0  0  0  0  0  0  0  0  0  0  0  0
   40.5186    7.3287    3.7849 C   0  0  0  0  0  0  0  0  0  0  0  0
   35.7204    4.6344   11.6278 C   0  0  1  0  0  0  0  0  0  0  0  0
   41.1505    6.5380    2.7094 N   0  0  0  0  0  0  0  0  0  0  0  0
   34.9976    3.4855   12.0625 O   0  0  0  0  0  0  0  0  0  0  0  0
   36.3547    7.6468    7.6823 C   0  0  2  0  0  0  0  0  0  0  0  0
   35.1890    7.9900    8.4871 N   0  0  0  0  0  0  0  0  0  0  0  0
   39.4177    4.9589    1.8705 C   0  0  0  0  0  0  0  0  0  0  0  0
   38.9124    3.4863    1.8053 C   0  0  0  0  0  0  0  0  0  0  0  0
   40.8033    5.1019    2.5526 C   0  0  0  0  0  0  0  0  0  0  0  0
   39.8321    2.6166    1.0121 N   0  0  0  0  0  0  0  0  0  0  0  0
   36.2954    9.8070    3.7108 O   0  0  0  0  0  0  0  0  0  0  0  0
   36.0273    5.5843   12.8028 C   0  0  2  0  0  0  0  0  0  0  0  0
   34.8479    6.0227   13.4724 O   0  0  0  0  0  0  0  0  0  0  0  0
   37.4769    7.2444    8.6183 C   0  0  2  0  0  0  0  0  0  0  0  0
   36.8216    6.8123   12.3225 C   0  0  2  0  0  0  0  0  0  0  0  0
   38.0087    6.4147   11.6275 O   0  0  0  0  0  0  0  0  0  0  0  0
   38.7576    6.8432    7.7797 C   0  0  2  0  0  0  0  0  0  0  0  0
   39.8276    6.4779    8.7068 O   0  0  0  0  0  0  0  0  0  0  0  0
   37.2047    7.7139   13.4655 C   0  0  0  0  0  0  0  0  0  0  0  0
   37.8425    8.8406   12.9976 O   0  0  0  0  0  0  0  0  0  0  0  0
   39.1931    8.0677    6.9056 C   0  0  1  0  0  0  0  0  0  0  0  0
   40.3271    7.7868    6.1378 O   0  0  0  0  0  0  0  0  0  0  0  0
  1  2  1  6  0  0  0
  1  5  1  0  0  0  0
  1 30  1  0  0  0  0
  3  4  1  1  0  0  0
  3  7  1  0  0  0  0
  3 35  1  0  0  0  0
  5  6  1  6  0  0  0
  5 16  1  0  0  0  0
  7 19  1  0  0  0  0
  8  4  1  0  0  0  0
  8 25  2  0  0  0  0
  9  8  1  1  0  0  0
  9 10  1  0  0  0  0
  9 13  1  0  0  0  0
 10 11  1  0  0  0  0
 11 12  1  0  0  0  0
 14 15  1  0  0  0  0
 14 36  1  0  0  0  0
 15 17  1  0  0  0  0
 16 18  1  1  0  0  0
 16 26  1  0  0  0  0
 17 23  1  0  0  0  0
 19 20  1  1  0  0  0
 19 28  1  0  0  0  0
 21 22  1  0  0  0  0
 21 23  1  0  0  0  0
 22 24  1  0  0  0  0
 26 27  1  6  0  0  0
 26 29  1  0  0  0  0
 28  2  1  6  0  0  0
 28 31  1  0  0  0  0
 29 30  1  0  0  0  0
 29 33  1  1  0  0  0
 31 32  1  1  0  0  0
 31 35  1  0  0  0  0
 33 34  1  0  0  0  0
 35 36  1  6  0  0  0
M  END
>  <CHROM.1>
-168.46624051,-61.68650296,-175.24196794,176.78538503,58.23179927,-170.26768332
59.00089888,81.34982979,77.05235431,-61.23751335,-173.91120758,-179.51140879
-176.40899213,-59.71094170,38.03564057,7.36319624,7.07792637,-2.44914060
1.21613012,-0.40210560

>  <Name>
2f4u_lig

>  <RI>
0

>  <Rbt.Current_Directory>
/home/itssahil/PROJECTS/Mol_Feturizer/New_Systems/rnas/2f4u

>  <Rbt.Executable>
rbdock ($Id: //depot/dev/client3/rdock/2013.1/src/exe/rbdock.cxx#4 $)

>  <Rbt.Library>
libRbt.so (2013.1, Build901 2013/11/27)

>  <Rbt.Parameter_File>
/export/apps/rDock/src/rDock_2013.1_src/data/scripts/dock_solv.prm

>  <Rbt.Receptor>
prm/pocket_docking_6.prm

>  <SCORE>
-21.5295

>  <SCORE.INTER>
-10.6821

>  <SCORE.INTER.CONST>
1

>  <SCORE.INTER.POLAR>
-1.57991

>  <SCORE.INTER.ROT>
14

>  <SCORE.INTER.SOLV>
11.6077

>  <SCORE.INTER.VDW>
-18.6576

>  <SCORE.INTER.norm>
-0.296725

>  <SCORE.INTRA>
-10.8474

>  <SCORE.INTRA.DIHEDRAL>
-23.6918

>  <SCORE.INTRA.DIHEDRAL.0>
26.3805

>  <SCORE.INTRA.POLAR>
0

>  <SCORE.INTRA.POLAR.0>
0

>  <SCORE.INTRA.REPUL>
0

>  <SCORE.INTRA.REPUL.0>
0

>  <SCORE.INTRA.SOLV>
0.751071

>  <SCORE.INTRA.SOLV.lig_0>
-98.5587

>  <SCORE.INTRA.VDW>
0.622927

>  <SCORE.INTRA.VDW.0>
-2.91167

>  <SCORE.INTRA.norm>
-0.301317

>  <SCORE.RESTR>
0

>  <SCORE.RESTR.CAVITY>
0

>  <SCORE.RESTR.norm>
0

>  <SCORE.SYSTEM>
0

>  <SCORE.SYSTEM.CONST>
0

>  <SCORE.SYSTEM.DIHEDRAL>
0

>  <SCORE.SYSTEM.SOLV>
0

>  <SCORE.SYSTEM.norm>
0

>  <SCORE.heavy>
36

>  <SCORE.norm>
-0.598042

>  <RMSD>
8.956

$$$$
2f4u_lig
 OpenBabel11021811433D
libRbt.so/2013.1/901 2013/11/27
 36 37  0  0  0  0  0  0  0  0999 V2000
   45.1721    5.3567    4.4696 C   0  0  2  0  0  0  0  0  0  0  0  0
   44.0005    4.8262    5.1933 O   0  0  0  0  0  0  0  0  0  0  0  0
   40.3770    6.5904    6.8220 C   0  0  2  0  0  0  0  0  0  0  0  0
   39.4988    7.4700    7.6405 N   0  0  0  0  0  0  0  0  0  0  0  0
   45.7838    4.1638    3.6716 C   0  0  2  0  0  0  0  0  0  0  0  0
   44.8248    3.5602    2.7280 N   0  0  0  0  0  0  0  0  0  0  0  0
   41.3166    5.7100    7.7193 C   0  0  0  0  0  0  0  0  0  0  0  0
   37.8313    7.4886    7.0029 C   0  0  0  0  0  0  0  0  0  0  0  0
   37.5993    8.5447    8.0376 C   0  0  1  0  0  0  0  0  0  0  0  0
   36.3686    9.3462    7.5990 C   0  0  0  0  0  0  0  0  0  0  0  0
   35.0176    8.6156    7.7099 C   0  0  0  0  0  0  0  0  0  0  0  0
   34.6380    8.5500    9.1225 N   0  0  0  0  0  0  0  0  0  0  0  0
   37.3041    7.9564    9.2750 O   0  0  0  0  0  0  0  0  0  0  0  0
   39.9103    9.1866    4.1376 C   0  0  0  0  0  0  0  0  0  0  0  0
   38.4378    9.4859    4.3760 C   0  0  0  0  0  0  0  0  0  0  0  0
   46.2904    3.0851    4.6856 C   0  0  1  0  0  0  0  0  0  0  0  0
   37.5250    8.8317    3.4169 N   0  0  0  0  0  0  0  0  0  0  0  0
   46.8503    1.9654    4.0043 O   0  0  0  0  0  0  0  0  0  0  0  0
   42.2605    4.8432    6.8612 C   0  0  2  0  0  0  0  0  0  0  0  0
   43.1638    4.0598    7.6947 N   0  0  0  0  0  0  0  0  0  0  0  0
   35.2678    8.6579    4.4536 C   0  0  0  0  0  0  0  0  0  0  0  0
   34.7597    7.2230    4.1202 C   0  0  0  0  0  0  0  0  0  0  0  0
   36.1145    9.2879    3.3170 C   0  0  0  0  0  0  0  0  0  0  0  0
   35.8883    6.2639    3.9259 N   0  0  0  0  0  0  0  0  0  0  0  0
   37.2995    7.0014    6.2022 O   0  0  0  0  0  0  0  0  0  0  0  0
   47.3219    3.7494    5.6194 C   0  0  2  0  0  0  0  0  0  0  0  0
   47.8397    2.8450    6.5918 O   0  0  0  0  0  0  0  0  0  0  0  0
   43.0953    5.7175    5.9469 C   0  0  2  0  0  0  0  0  0  0  0  0
   46.7093    4.9660    6.3364 C   0  0  2  0  0  0  0  0  0  0  0  0
   46.1608    5.8935    5.3936 O   0  0  0  0  0  0  0  0  0  0  0  0
   42.1486    6.5709    5.0088 C   0  0  2  0  0  0  0  0  0  0  0  0
   42.9787    7.4165    4.1520 O   0  0  0  0  0  0  0  0  0  0  0  0
   47.7216    5.6807    7.1912 C   0  0  0  0  0  0  0  0  0  0  0  0
   48.7924    6.0904    6.4292 O   0  0  0  0  0  0  0  0  0  0  0  0
   41.2159    7.4562    5.9029 C   0  0  1  0  0  0  0  0  0  0  0  0
   40.3512    8.2448    5.1383 O   0  0  0  0  0  0  0  0  0  0  0  0
  1  2  1  1  0  0  0
  1  5  1  0  0  0  0
  1 30  1  0  0  0  0
  3  4  1  1  0  0  0
  3  7  1  0  0  0  0
  3 35  1  0  0  0  0
  5  6  1  6  0  0  0
  5 16  1  0  0  0  0
  7 19  1  0  0  0  0
  8  4  1  0  0  0  0
  8 25  2  0  0  0  0
  9  8  1  6  0  0  0
  9 10  1  0  0  0  0
  9 13  1  0  0  0  0
 10 11  1  0  0  0  0
 11 12  1  0  0  0  0
 14 15  1  0  0  0  0
 14 36  1  0  0  0  0
 15 17  1  0  0  0  0
 16 18  1  6  0  0  0
 16 26  1  0  0  0  0
 17 23  1  0  0  0  0
 19 20  1  1  0  0  0
 19 28  1  0  0  0  0
 21 22  1  0  0  0  0
 21 23  1  0  0  0  0
 22 24  1  0  0  0  0
 26 27  1  1  0  0  0
 26 29  1  0  0  0  0
 28  2  1  6  0  0  0
 28 31  1  0  0  0  0
 29 30  1  0  0  0  0
 29 33  1  6  0  0  0
 31 32  1  6  0  0  0
 31 35  1  0  0  0  0
 33 34  1  0  0  0  0
 35 36  1  6  0  0  0
M  END
>  <CHROM.1>
-173.69154931,-137.19578658,158.62495542,71.14708055,74.36424183,-104.78581038
-170.55609081,-165.06760639,-80.91760615,62.44539050,-83.68328981,-164.48697840
57.86235767,-175.15621202,41.37286913,6.45679094,5.77194819,0.07439404,0.37697676
-1.60295831

>  <Name>
2f4u_lig

>  <RI>
0

>  <Rbt.Current_Directory>
/home/itssahil/PROJECTS/Mol_Feturizer/New_Systems/rnas/2f4u

>  <Rbt.Executable>
rbdock ($Id: //depot/dev/client3/rdock/2013.1/src/exe/rbdock.cxx#4 $)

>  <Rbt.Library>
libRbt.so (2013.1, Build901 2013/11/27)

>  <Rbt.Parameter_File>
/export/apps/rDock/src/rDock_2013.1_src/data/scripts/dock_solv.prm

>  <Rbt.Receptor>
prm/pocket_docking_4.prm

>  <SCORE>
-11.6393

>  <SCORE.INTER>
-5.77342

>  <SCORE.INTER.CONST>
1

>  <SCORE.INTER.POLAR>
0

>  <SCORE.INTER.ROT>
14

>  <SCORE.INTER.SOLV>
9.9843

>  <SCORE.INTER.VDW>
-20.1104

>  <SCORE.INTER.norm>
-0.160373

>  <SCORE.INTRA>
-5.86586

>  <SCORE.INTRA.DIHEDRAL>
-14.0909

>  <SCORE.INTRA.DIHEDRAL.0>
26.3805

>  <SCORE.INTRA.POLAR>
0

>  <SCORE.INTRA.POLAR.0>
0

>  <SCORE.INTRA.REPUL>
0

>  <SCORE.INTRA.REPUL.0>
0

>  <SCORE.INTRA.SOLV>
7.82068

>  <SCORE.INTRA.SOLV.lig_0>
-98.5587

>  <SCORE.INTRA.VDW>
-2.73073

>  <SCORE.INTRA.VDW.0>
-2.91167

>  <SCORE.INTRA.norm>
-0.16294

>  <SCORE.RESTR>
0

>  <SCORE.RESTR.CAVITY>
0

>  <SCORE.RESTR.norm>
0

>  <SCORE.SYSTEM>
0

>  <SCORE.SYSTEM.CONST>
0

>  <SCORE.SYSTEM.DIHEDRAL>
0

>  <SCORE.SYSTEM.SOLV>
0

>  <SCORE.SYSTEM.norm>
0

>  <SCORE.heavy>
36

>  <SCORE.norm>
-0.323313

>  <RMSD>
8.970

$$$$
2f4u_lig
 OpenBabel11021811433D
libRbt.so/2013.1/901 2013/11/27
 36 37  0  0  0  0  0  0  0  0999 V2000
   42.5893    3.2423    6.6995 C   0  0  2  0  0  0  0  0  0  0  0  0
   42.2903    3.6562    8.0841 O   0  0  0  0  0  0  0  0  0  0  0  0
   38.1252    4.8745    7.8321 C   0  0  2  0  0  0  0  0  0  0  0  0
   36.7835    5.3559    8.2598 N   0  0  0  0  0  0  0  0  0  0  0  0
   43.9199    2.4293    6.7523 C   0  0  2  0  0  0  0  0  0  0  0  0
   43.8314    1.2514    7.6348 N   0  0  0  0  0  0  0  0  0  0  0  0
   38.5336    3.5543    8.5760 C   0  0  0  0  0  0  0  0  0  0  0  0
   36.7951    5.8573    9.9733 C   0  0  0  0  0  0  0  0  0  0  0  0
   35.3191    6.0208    9.7876 C   0  0  1  0  0  0  0  0  0  0  0  0
   34.7283    6.3868   11.1537 C   0  0  0  0  0  0  0  0  0  0  0  0
   33.1970    6.2771   11.2738 C   0  0  0  0  0  0  0  0  0  0  0  0
   32.5882    7.0491   10.1888 N   0  0  0  0  0  0  0  0  0  0  0  0
   35.0539    7.0826    8.9120 O   0  0  0  0  0  0  0  0  0  0  0  0
   38.7203    8.5088    7.0599 C   0  0  0  0  0  0  0  0  0  0  0  0
   37.7931    8.6448    5.8613 C   0  0  0  0  0  0  0  0  0  0  0  0
   45.0704    3.3749    7.2329 C   0  0  1  0  0  0  0  0  0  0  0  0
   37.6348   10.0298    5.3737 N   0  0  0  0  0  0  0  0  0  0  0  0
   46.3097    2.6751    7.3088 O   0  0  0  0  0  0  0  0  0  0  0  0
   39.9477    3.0945    8.1669 C   0  0  2  0  0  0  0  0  0  0  0  0
   40.3444    1.8938    8.8916 N   0  0  0  0  0  0  0  0  0  0  0  0
   36.3710   10.0138    3.2284 C   0  0  0  0  0  0  0  0  0  0  0  0
   36.4093   10.2100    1.6829 C   0  0  0  0  0  0  0  0  0  0  0  0
   37.7282   10.3112    3.9178 C   0  0  0  0  0  0  0  0  0  0  0  0
   36.8639   11.5823    1.3069 N   0  0  0  0  0  0  0  0  0  0  0  0
   37.5308    5.9294   10.7575 O   0  0  0  0  0  0  0  0  0  0  0  0
   45.1548    4.5649    6.2561 C   0  0  2  0  0  0  0  0  0  0  0  0
   46.1740    5.4943    6.6152 O   0  0  0  0  0  0  0  0  0  0  0  0
   40.9618    4.1826    8.4582 C   0  0  2  0  0  0  0  0  0  0  0  0
   43.8060    5.3018    6.1714 C   0  0  2  0  0  0  0  0  0  0  0  0
   42.7492    4.3983    5.8292 O   0  0  0  0  0  0  0  0  0  0  0  0
   40.5767    5.5001    7.6707 C   0  0  2  0  0  0  0  0  0  0  0  0
   41.5598    6.5361    7.9842 O   0  0  0  0  0  0  0  0  0  0  0  0
   43.8396    6.4177    5.1616 C   0  0  0  0  0  0  0  0  0  0  0  0
   42.6934    7.1757    5.2427 O   0  0  0  0  0  0  0  0  0  0  0  0
   39.1471    5.9570    8.1188 C   0  0  1  0  0  0  0  0  0  0  0  0
   38.7407    7.1238    7.4648 O   0  0  0  0  0  0  0  0  0  0  0  0
  1  2  1  1  0  0  0
  1  5  1  0  0  0  0
  1 30  1  0  0  0  0
  3  4  1  1  0  0  0
  3  7  1  0  0  0  0
  3 35  1  0  0  0  0
  5  6  1  1  0  0  0
  5 16  1  0  0  0  0
  7 19  1  0  0  0  0
  8  4  1  0  0  0  0
  8 25  2  0  0  0  0
  9  8  1  1  0  0  0
  9 10  1  0  0  0  0
  9 13  1  0  0  0  0
 10 11  1  0  0  0  0
 11 12  1  0  0  0  0
 14 15  1  0  0  0  0
 14 36  1  0  0  0  0
 15 17  1  0  0  0  0
 16 18  1  6  0  0  0
 16 26  1  0  0  0  0
 17 23  1  0  0  0  0
 19 20  1  1  0  0  0
 19 28  1  0  0  0  0
 21 22  1  0  0  0  0
 21 23  1  0  0  0  0
 22 24  1  0  0  0  0
 26 27  1  1  0  0  0
 26 29  1  0  0  0  0
 28  2  1  6  0  0  0
 28 31  1  0  0  0  0
 29 30  1  0  0  0  0
 29 33  1  6  0  0  0
 31 32  1  1  0  0  0
 31 35  1  0  0  0  0
 33 34  1  0  0  0  0
 35 36  1  6  0  0  0
M  END
>  <CHROM.1>
-166.25311353,65.88470893,175.44464625,-166.04429300,-53.04558299,177.64873848
167.35986267,133.73444157,82.29074803,-55.90018241,-176.83468005,60.58310115
-171.41623986,172.97249137,39.75640420,5.90857304,7.24094546,0.26442160,-0.38334347
2.30622675

>  <Name>
2f4u_lig

>  <RI>
0

>  <Rbt.Current_Directory>
/home/itssahil/PROJECTS/Mol_Feturizer/New_Systems/rnas/2f4u

>  <Rbt.Executable>
rbdock ($Id: //depot/dev/client3/rdock/2013.1/src/exe/rbdock.cxx#4 $)

>  <Rbt.Library>
libRbt.so (2013.1, Build901 2013/11/27)

>  <Rbt.Parameter_File>
/export/apps/rDock/src/rDock_2013.1_src/data/scripts/dock_solv.prm

>  <Rbt.Receptor>
prm/pocket_docking_3.prm

>  <SCORE>
-15.6332

>  <SCORE.INTER>
-5.95486

>  <SCORE.INTER.CONST>
1

>  <SCORE.INTER.POLAR>
-1.81417

>  <SCORE.INTER.ROT>
14

>  <SCORE.INTER.SOLV>
16.1443

>  <SCORE.INTER.VDW>
-16.2374

>  <SCORE.INTER.norm>
-0.165413

>  <SCORE.INTRA>
-9.68452

>  <SCORE.INTRA.DIHEDRAL>
-20.9906

>  <SCORE.INTRA.DIHEDRAL.0>
26.3805

>  <SCORE.INTRA.POLAR>
0

>  <SCORE.INTRA.POLAR.0>
0

>  <SCORE.INTRA.REPUL>
0

>  <SCORE.INTRA.REPUL.0>
0

>  <SCORE.INTRA.SOLV>
4.02487

>  <SCORE.INTRA.SOLV.lig_0>
-98.5587

>  <SCORE.INTRA.VDW>
-1.20168

>  <SCORE.INTRA.VDW.0>
-2.91167

>  <SCORE.INTRA.norm>
-0.269015

>  <SCORE.RESTR>
0.00618036

>  <SCORE.RESTR.CAVITY>
0.00618036

>  <SCORE.RESTR.norm>
0.000171677

>  <SCORE.SYSTEM>
0

>  <SCORE.SYSTEM.CONST>
0

>  <SCORE.SYSTEM.DIHEDRAL>
0

>  <SCORE.SYSTEM.SOLV>
0

>  <SCORE.SYSTEM.norm>
0

>  <SCORE.heavy>
36

>  <SCORE.norm>
-0.434256

>  <RMSD>
8.991

$$$$
2f4u_lig
 OpenBabel11021811433D
libRbt.so/2013.1/901 2013/11/27
 36 37  0  0  0  0  0  0  0  0999 V2000
   45.1493    5.1010    6.2494 C   0  0  2  0  0  0  0  0  0  0  0  0
   44.1556    4.0133    6.3362 O   0  0  0  0  0  0  0  0  0  0  0  0
   40.1975    3.6092    8.0869 C   0  0  2  0  0  0  0  0  0  0  0  0
   39.1156    3.6203    9.1088 N   0  0  0  0  0  0  0  0  0  0  0  0
   45.7073    5.0829    4.7926 C   0  0  2  0  0  0  0  0  0  0  0  0
   44.6531    5.2657    3.7780 N   0  0  0  0  0  0  0  0  0  0  0  0
   41.3534    2.6210    8.4749 C   0  0  0  0  0  0  0  0  0  0  0  0
   38.5638    1.9636    9.4808 C   0  0  0  0  0  0  0  0  0  0  0  0
   37.5201    2.6493   10.3056 C   0  0  1  0  0  0  0  0  0  0  0  0
   36.2931    1.7314   10.3383 C   0  0  0  0  0  0  0  0  0  0  0  0
   35.0237    2.3303   10.9717 C   0  0  0  0  0  0  0  0  0  0  0  0
   33.9859    1.2977   11.0008 N   0  0  0  0  0  0  0  0  0  0  0  0
   37.9683    2.8063   11.6242 O   0  0  0  0  0  0  0  0  0  0  0  0
   38.9916    7.0934    7.3290 C   0  0  0  0  0  0  0  0  0  0  0  0
   39.6637    7.7536    6.1344 C   0  0  0  0  0  0  0  0  0  0  0  0
   46.4526    3.7278    4.5543 C   0  0  1  0  0  0  0  0  0  0  0  0
   39.8220    6.8671    4.9638 N   0  0  0  0  0  0  0  0  0  0  0  0
   46.9736    3.6565    3.2295 O   0  0  0  0  0  0  0  0  0  0  0  0
   42.4945    2.6581    7.4381 C   0  0  2  0  0  0  0  0  0  0  0  0
   43.5879    1.7742    7.8221 N   0  0  0  0  0  0  0  0  0  0  0  0
   40.7985    6.1350    2.7934 C   0  0  0  0  0  0  0  0  0  0  0  0
   41.1450    4.7066    3.3111 C   0  0  0  0  0  0  0  0  0  0  0  0
   40.8112    7.2114    3.9100 C   0  0  0  0  0  0  0  0  0  0  0  0
   41.0468    3.6827    2.2279 N   0  0  0  0  0  0  0  0  0  0  0  0
   38.8382    0.9663    9.1784 O   0  0  0  0  0  0  0  0  0  0  0  0
   47.5721    3.6028    5.6070 C   0  0  2  0  0  0  0  0  0  0  0  0
   48.3086    2.3891    5.4788 O   0  0  0  0  0  0  0  0  0  0  0  0
   43.0438    4.0647    7.3073 C   0  0  2  0  0  0  0  0  0  0  0  0
   46.9981    3.6973    7.0321 C   0  0  2  0  0  0  0  0  0  0  0  0
   46.2345    4.8971    7.1983 O   0  0  0  0  0  0  0  0  0  0  0  0
   41.8885    5.0537    6.8699 C   0  0  2  0  0  0  0  0  0  0  0  0
   42.4418    6.4035    6.7695 O   0  0  0  0  0  0  0  0  0  0  0  0
   48.0819    3.6607    8.0763 C   0  0  0  0  0  0  0  0  0  0  0  0
   47.5479    3.3890    9.3157 O   0  0  0  0  0  0  0  0  0  0  0  0
   40.7532    5.0129    7.9482 C   0  0  1  0  0  0  0  0  0  0  0  0
   39.6960    5.8701    7.6291 O   0  0  0  0  0  0  0  0  0  0  0  0
  1  2  1  6  0  0  0
  1  5  1  0  0  0  0
  1 30  1  0  0  0  0
  3  4  1  1  0  0  0
  3  7  1  0  0  0  0
  3 35  1  0  0  0  0
  5  6  1  6  0  0  0
  5 16  1  0  0  0  0
  7 19  1  0  0  0  0
  8  4  1  0  0  0  0
  8 25  2  0  0  0  0
  9  8  1  6  0  0  0
  9 10  1  0  0  0  0
  9 13  1  0  0  0  0
 10 11  1  0  0  0  0
 11 12  1  0  0  0  0
 14 15  1  0  0  0  0
 14 36  1  0  0  0  0
 15 17  1  0  0  0  0
 16 18  1  6  0  0  0
 16 26  1  0  0  0  0
 17 23  1  0  0  0  0
 19 20  1  1  0  0  0
 19 28  1  0  0  0  0
 21 22  1  0  0  0  0
 21 23  1  0  0  0  0
 22 24  1  0  0  0  0
 26 27  1  1  0  0  0
 26 29  1  0  0  0  0
 28  2  1  6  0  0  0
 28 31  1  0  0  0  0
 29 30  1  0  0  0  0
 29 33  1  1  0  0  0
 31 32  1  1  0  0  0
 31 35  1  0  0  0  0
 33 34  1  0  0  0  0
 35 36  1  6  0  0  0
M  END
>  <CHROM.1>
-153.80610562,-51.28610337,151.48377445,-171.75335191,-176.28652189,52.64053926
56.44154859,-160.85529048,179.79693805,176.70227405,-59.63480129,-162.64741031
-164.00880471,177.75932591,42.06180485,4.06650602,7.02497581,-0.41697609
-0.15627715,2.19196264

>  <Name>
2f4u_lig

>  <RI>
0

>  <Rbt.Current_Directory>
/home/itssahil/PROJECTS/Mol_Feturizer/New_Systems/rnas/2f4u

>  <Rbt.Executable>
rbdock ($Id: //depot/dev/client3/rdock/2013.1/src/exe/rbdock.cxx#4 $)

>  <Rbt.Library>
libRbt.so (2013.1, Build901 2013/11/27)

>  <Rbt.Parameter_File>
/export/apps/rDock/src/rDock_2013.1_src/data/scripts/dock_solv.prm

>  <Rbt.Receptor>
prm/pocket_docking_6.prm

>  <SCORE>
-17.2958

>  <SCORE.INTER>
-6.7394

>  <SCORE.INTER.CONST>
1

>  <SCORE.INTER.POLAR>
-1.58797

>  <SCORE.INTER.ROT>
14

>  <SCORE.INTER.SOLV>
10.0153

>  <SCORE.INTER.VDW>
-15.4715

>  <SCORE.INTER.norm>
-0.187206

>  <SCORE.INTRA>
-10.5564

>  <SCORE.INTRA.DIHEDRAL>
-18.7887

>  <SCORE.INTRA.DIHEDRAL.0>
26.3805

>  <SCORE.INTRA.POLAR>
0

>  <SCORE.INTRA.POLAR.0>
0

>  <SCORE.INTRA.REPUL>
0

>  <SCORE.INTRA.REPUL.0>
0

>  <SCORE.INTRA.SOLV>
2.89409

>  <SCORE.INTRA.SOLV.lig_0>
-98.5587

>  <SCORE.INTRA.VDW>
-2.60905

>  <SCORE.INTRA.VDW.0>
-2.91167

>  <SCORE.INTRA.norm>
-0.293232

>  <SCORE.RESTR>
0

>  <SCORE.RESTR.CAVITY>
0

>  <SCORE.RESTR.norm>
0

>  <SCORE.SYSTEM>
0

>  <SCORE.SYSTEM.CONST>
0

>  <SCORE.SYSTEM.DIHEDRAL>
0

>  <SCORE.SYSTEM.SOLV>
0

>  <SCORE.SYSTEM.norm>
0

>  <SCORE.heavy>
36

>  <SCORE.norm>
-0.480438

>  <RMSD>
8.994

$$$$
2f4u_lig
 OpenBabel11021811433D
libRbt.so/2013.1/901 2013/11/27
 36 37  0  0  0  0  0  0  0  0999 V2000
   39.6019    5.1315   10.4320 C   0  0  2  0  0  0  0  0  0  0  0  0
   38.4836    5.3355    9.4909 O   0  0  0  0  0  0  0  0  0  0  0  0
   38.1671    7.7735    5.9060 C   0  0  2  0  0  0  0  0  0  0  0  0
   38.0637    8.9834    5.0456 N   0  0  0  0  0  0  0  0  0  0  0  0
   39.6167    3.6125   10.7878 C   0  0  2  0  0  0  0  0  0  0  0  0
   39.7783    2.7525    9.6009 N   0  0  0  0  0  0  0  0  0  0  0  0
   36.9753    7.6798    6.9229 C   0  0  0  0  0  0  0  0  0  0  0  0
   36.7654    8.8028    3.8334 C   0  0  0  0  0  0  0  0  0  0  0  0
   37.2802   10.1019    3.2976 C   0  0  1  0  0  0  0  0  0  0  0  0
   36.4922   10.4089    2.0192 C   0  0  0  0  0  0  0  0  0  0  0  0
   36.7635   11.7819    1.3770 C   0  0  0  0  0  0  0  0  0  0  0  0
   38.2028   11.9089    1.1397 N   0  0  0  0  0  0  0  0  0  0  0  0
   37.0305   11.1369    4.2091 O   0  0  0  0  0  0  0  0  0  0  0  0
   41.4456    7.5564    4.6940 C   0  0  0  0  0  0  0  0  0  0  0  0
   42.4191    6.5379    5.2680 C   0  0  0  0  0  0  0  0  0  0  0  0
   38.2876    3.2555   11.5325 C   0  0  1  0  0  0  0  0  0  0  0  0
   41.7792    5.3024    5.7632 N   0  0  0  0  0  0  0  0  0  0  0  0
   38.2467    1.8716   11.8710 O   0  0  0  0  0  0  0  0  0  0  0  0
   37.1212    6.4532    7.8463 C   0  0  2  0  0  0  0  0  0  0  0  0
   36.0385    6.3918    8.8201 N   0  0  0  0  0  0  0  0  0  0  0  0
   43.3231    4.2561    7.4129 C   0  0  0  0  0  0  0  0  0  0  0  0
   44.1113    2.9823    7.8420 C   0  0  0  0  0  0  0  0  0  0  0  0
   42.6126    4.1046    6.0425 C   0  0  0  0  0  0  0  0  0  0  0  0
   45.2307    2.6767    6.9013 N   0  0  0  0  0  0  0  0  0  0  0  0
   36.0239    8.0586    3.5932 O   0  0  0  0  0  0  0  0  0  0  0  0
   38.1854    4.1454   12.7875 C   0  0  2  0  0  0  0  0  0  0  0  0
   36.9962    3.9008   13.5343 O   0  0  0  0  0  0  0  0  0  0  0  0
   38.4351    6.5123    8.5994 C   0  0  2  0  0  0  0  0  0  0  0  0
   38.2468    5.6362   12.4093 C   0  0  2  0  0  0  0  0  0  0  0  0
   39.4209    5.9219   11.6411 O   0  0  0  0  0  0  0  0  0  0  0  0
   39.6398    6.5589    7.5742 C   0  0  2  0  0  0  0  0  0  0  0  0
   40.8913    6.6338    8.3268 O   0  0  0  0  0  0  0  0  0  0  0  0
   38.2319    6.5237   13.6252 C   0  0  0  0  0  0  0  0  0  0  0  0
   38.1152    7.8448   13.2562 O   0  0  0  0  0  0  0  0  0  0  0  0
   39.4794    7.8229    6.6633 C   0  0  1  0  0  0  0  0  0  0  0  0
   40.5159    7.9326    5.7317 O   0  0  0  0  0  0  0  0  0  0  0  0
  1  2  1  6  0  0  0
  1  5  1  0  0  0  0
  1 30  1  0  0  0  0
  3  4  1  1  0  0  0
  3  7  1  0  0  0  0
  3 35  1  0  0  0  0
  5  6  1  6  0  0  0
  5 16  1  0  0  0  0
  7 19  1  0  0  0  0
  8  4  1  0  0  0  0
  8 25  2  0  0  0  0
  9  8  1  1  0  0  0
  9 10  1  0  0  0  0
  9 13  1  0  0  0  0
 10 11  1  0  0  0  0
 11 12  1  0  0  0  0
 14 15  1  0  0  0  0
 14 36  1  0  0  0  0
 15 17  1  0  0  0  0
 16 18  1  1  0  0  0
 16 26  1  0  0  0  0
 17 23  1  0  0  0  0
 19 20  1  1  0  0  0
 19 28  1  0  0  0  0
 21 22  1  0  0  0  0
 21 23  1  0  0  0  0
 22 24  1  0  0  0  0
 26 27  1  6  0  0  0
 26 29  1  0  0  0  0
 28  2  1  1  0  0  0
 28 31  1  0  0  0  0
 29 30  1  0  0  0  0
 29 33  1  1  0  0  0
 31 32  1  1  0  0  0
 31 35  1  0  0  0  0
 33 34  1  0  0  0  0
 35 36  1  6  0  0  0
M  END
>  <CHROM.1>
-159.06802571,-73.09202943,175.35983113,173.98402728,54.83717526,60.12555573
-67.96965461,165.33561551,79.10679805,63.49302049,174.54613117,-176.24773241
-172.32827061,-72.25193734,39.10861523,6.50835234,7.69891911,1.38994453,-0.55200688
2.07751399

>  <Name>
2f4u_lig

>  <RI>
0

>  <Rbt.Current_Directory>
/home/itssahil/PROJECTS/Mol_Feturizer/New_Systems/rnas/2f4u

>  <Rbt.Executable>
rbdock ($Id: //depot/dev/client3/rdock/2013.1/src/exe/rbdock.cxx#4 $)

>  <Rbt.Library>
libRbt.so (2013.1, Build901 2013/11/27)

>  <Rbt.Parameter_File>
/export/apps/rDock/src/rDock_2013.1_src/data/scripts/dock_solv.prm

>  <Rbt.Receptor>
prm/pocket_docking_5.prm

>  <SCORE>
-19.8845

>  <SCORE.INTER>
-9.58514

>  <SCORE.INTER.CONST>
1

>  <SCORE.INTER.POLAR>
0

>  <SCORE.INTER.ROT>
14

>  <SCORE.INTER.SOLV>
13.1332

>  <SCORE.INTER.VDW>
-23.7012

>  <SCORE.INTER.norm>
-0.266254

>  <SCORE.INTRA>
-10.2993

>  <SCORE.INTRA.DIHEDRAL>
-21.3212

>  <SCORE.INTRA.DIHEDRAL.0>
26.3805

>  <SCORE.INTRA.POLAR>
0

>  <SCORE.INTRA.POLAR.0>
0

>  <SCORE.INTRA.REPUL>
0

>  <SCORE.INTRA.REPUL.0>
0

>  <SCORE.INTRA.SOLV>
3.10043

>  <SCORE.INTRA.SOLV.lig_0>
-98.5587

>  <SCORE.INTRA.VDW>
-1.18892

>  <SCORE.INTRA.VDW.0>
-2.91167

>  <SCORE.INTRA.norm>
-0.286092

>  <SCORE.RESTR>
0

>  <SCORE.RESTR.CAVITY>
0

>  <SCORE.RESTR.norm>
0

>  <SCORE.SYSTEM>
0

>  <SCORE.SYSTEM.CONST>
0

>  <SCORE.SYSTEM.DIHEDRAL>
0

>  <SCORE.SYSTEM.SOLV>
0

>  <SCORE.SYSTEM.norm>
0

>  <SCORE.heavy>
36

>  <SCORE.norm>
-0.552346

>  <RMSD>
9.014

$$$$
2f4u_lig
 OpenBabel11021811433D
libRbt.so/2013.1/901 2013/11/27
 36 37  0  0  0  0  0  0  0  0999 V2000
   43.8254    4.6787    6.7535 C   0  0  2  0  0  0  0  0  0  0  0  0
   42.6963    3.8061    7.1297 O   0  0  0  0  0  0  0  0  0  0  0  0
   38.8185    4.7636    8.8446 C   0  0  2  0  0  0  0  0  0  0  0  0
   37.7988    5.1705    9.8493 N   0  0  0  0  0  0  0  0  0  0  0  0
   44.0142    4.5278    5.2121 C   0  0  2  0  0  0  0  0  0  0  0  0
   42.8044    4.8940    4.4529 N   0  0  0  0  0  0  0  0  0  0  0  0
   39.6063    3.4852    9.3009 C   0  0  0  0  0  0  0  0  0  0  0  0
   38.5496    5.4847   11.4384 C   0  0  0  0  0  0  0  0  0  0  0  0
   37.1393    5.6391   11.9148 C   0  0  1  0  0  0  0  0  0  0  0  0
   36.6750    4.2645   12.4092 C   0  0  0  0  0  0  0  0  0  0  0  0
   35.1622    3.9930   12.3139 C   0  0  0  0  0  0  0  0  0  0  0  0
   34.4546    5.0279   13.0703 N   0  0  0  0  0  0  0  0  0  0  0  0
   37.0875    6.5213   13.0026 O   0  0  0  0  0  0  0  0  0  0  0  0
   38.2552    7.9194    7.4397 C   0  0  0  0  0  0  0  0  0  0  0  0
   39.1085    8.3904    6.2715 C   0  0  0  0  0  0  0  0  0  0  0  0
   44.4197    3.0499    4.8956 C   0  0  1  0  0  0  0  0  0  0  0  0
   38.5146    9.4991    5.4975 N   0  0  0  0  0  0  0  0  0  0  0  0
   44.5942    2.8562    3.4944 O   0  0  0  0  0  0  0  0  0  0  0  0
   40.6973    3.1046    8.2794 C   0  0  2  0  0  0  0  0  0  0  0  0
   41.4586    1.9444    8.7253 N   0  0  0  0  0  0  0  0  0  0  0  0
   39.4223   10.3670    3.3474 C   0  0  0  0  0  0  0  0  0  0  0  0
   39.0368   11.8667    3.5228 C   0  0  0  0  0  0  0  0  0  0  0  0
   38.4184    9.3936    4.0186 C   0  0  0  0  0  0  0  0  0  0  0  0
   39.9466   12.7690    2.7550 N   0  0  0  0  0  0  0  0  0  0  0  0
   39.5500    5.4859   11.8392 O   0  0  0  0  0  0  0  0  0  0  0  0
   45.7115    2.7283    5.6736 C   0  0  2  0  0  0  0  0  0  0  0  0
   46.1604    1.3929    5.4574 O   0  0  0  0  0  0  0  0  0  0  0  0
   41.6607    4.2578    8.0812 C   0  0  2  0  0  0  0  0  0  0  0  0
   45.5141    2.9569    7.1830 C   0  0  2  0  0  0  0  0  0  0  0  0
   45.0455    4.2847    7.4431 O   0  0  0  0  0  0  0  0  0  0  0  0
   40.8735    5.5341    7.5755 C   0  0  2  0  0  0  0  0  0  0  0  0
   41.8229    6.6338    7.4107 O   0  0  0  0  0  0  0  0  0  0  0  0
   46.7860    2.7287    7.9553 C   0  0  0  0  0  0  0  0  0  0  0  0
   47.7603    3.6134    7.5513 O   0  0  0  0  0  0  0  0  0  0  0  0
   39.7870    5.9116    8.6387 C   0  0  1  0  0  0  0  0  0  0  0  0
   39.0520    7.0387    8.2596 O   0  0  0  0  0  0  0  0  0  0  0  0
  1  2  1  1  0  0  0
  1  5  1  0  0  0  0
  1 30  1  0  0  0  0
  3  4  1  1  0  0  0
  3  7  1  0  0  0  0
  3 35  1  0  0  0  0
  5  6  1  6  0  0  0
  5 16  1  0  0  0  0
  7 19  1  0  0  0  0
  8  4  1  0  0  0  0
  8 25  2  0  0  0  0
  9  8  1  1  0  0  0
  9 10  1  0  0  0  0
  9 13  1  0  0  0  0
 10 11  1  0  0  0  0
 11 12  1  0  0  0  0
 14 15  1  0  0  0  0
 14 36  1  0  0  0  0
 15 17  1  0  0  0  0
 16 18  1  6  0  0  0
 16 26  1  0  0  0  0
 17 23  1  0  0  0  0
 19 20  1  1  0  0  0
 19 28  1  0  0  0  0
 21 22  1  0  0  0  0
 21 23  1  0  0  0  0
 22 24  1  0  0  0  0
 26 27  1  1  0  0  0
 26 29  1  0  0  0  0
 28  2  1  6  0  0  0
 28 31  1  0  0  0  0
 29 30  1  0  0  0  0
 29 33  1  1  0  0  0
 31 32  1  1  0  0  0
 31 35  1  0  0  0  0
 33 34  1  0  0  0  0
 35 36  1  6  0  0  0
M  END
>  <CHROM.1>
-137.31806941,57.91941236,91.79851693,-151.97908695,-57.41714531,-168.62445432
-66.56903901,-129.42281150,-109.13157046,-174.43485913,-69.61890328,-177.74068894
61.61569368,-71.63619688,40.94080860,5.44024482,7.69212162,-0.13110358,-0.56823919
2.32393797

>  <Name>
2f4u_lig

>  <RI>
0

>  <Rbt.Current_Directory>
/home/itssahil/PROJECTS/Mol_Feturizer/New_Systems/rnas/2f4u

>  <Rbt.Executable>
rbdock ($Id: //depot/dev/client3/rdock/2013.1/src/exe/rbdock.cxx#4 $)

>  <Rbt.Library>
libRbt.so (2013.1, Build901 2013/11/27)

>  <Rbt.Parameter_File>
/export/apps/rDock/src/rDock_2013.1_src/data/scripts/dock_solv.prm

>  <Rbt.Receptor>
prm/pocket_docking_3.prm

>  <SCORE>
-12.8059

>  <SCORE.INTER>
-6.37636

>  <SCORE.INTER.CONST>
1

>  <SCORE.INTER.POLAR>
-1.8596

>  <SCORE.INTER.ROT>
14

>  <SCORE.INTER.SOLV>
13.5353

>  <SCORE.INTER.VDW>
-15.4973

>  <SCORE.INTER.norm>
-0.177121

>  <SCORE.INTRA>
-6.4484

>  <SCORE.INTRA.DIHEDRAL>
-12.3351

>  <SCORE.INTRA.DIHEDRAL.0>
26.3805

>  <SCORE.INTRA.POLAR>
0

>  <SCORE.INTRA.POLAR.0>
0

>  <SCORE.INTRA.REPUL>
0

>  <SCORE.INTRA.REPUL.0>
0

>  <SCORE.INTRA.SOLV>
2.26657

>  <SCORE.INTRA.SOLV.lig_0>
-98.5587

>  <SCORE.INTRA.VDW>
-1.41411

>  <SCORE.INTRA.VDW.0>
-2.91167

>  <SCORE.INTRA.norm>
-0.179122

>  <SCORE.RESTR>
0.0188619

>  <SCORE.RESTR.CAVITY>
0.0188619

>  <SCORE.RESTR.norm>
0.000523941

>  <SCORE.SYSTEM>
0

>  <SCORE.SYSTEM.CONST>
0

>  <SCORE.SYSTEM.DIHEDRAL>
0

>  <SCORE.SYSTEM.SOLV>
0

>  <SCORE.SYSTEM.norm>
0

>  <SCORE.heavy>
36

>  <SCORE.norm>
-0.355719

>  <RMSD>
9.024

$$$$
2f4u_lig
 OpenBabel11021811433D
libRbt.so/2013.1/901 2013/11/27
 36 37  0  0  0  0  0  0  0  0999 V2000
   32.4880   10.1004   11.0077 C   0  0  2  0  0  0  0  0  0  0  0  0
   33.8993   10.3871   10.6853 O   0  0  0  0  0  0  0  0  0  0  0  0
   36.2804    8.7675    7.4291 C   0  0  2  0  0  0  0  0  0  0  0  0
   37.1384    7.8232    6.6630 N   0  0  0  0  0  0  0  0  0  0  0  0
   32.0185   11.2142   11.9941 C   0  0  2  0  0  0  0  0  0  0  0  0
   32.1529   12.5688   11.4272 N   0  0  0  0  0  0  0  0  0  0  0  0
   36.9526    9.1982    8.7804 C   0  0  0  0  0  0  0  0  0  0  0  0
   38.8369    8.3724    6.6368 C   0  0  0  0  0  0  0  0  0  0  0  0
   39.0434    7.2277    5.6952 C   0  0  1  0  0  0  0  0  0  0  0  0
   40.4439    7.3839    5.0921 C   0  0  0  0  0  0  0  0  0  0  0  0
   40.8708    6.2911    4.0947 C   0  0  0  0  0  0  0  0  0  0  0  0
   42.3004    6.4453    3.8185 N   0  0  0  0  0  0  0  0  0  0  0  0
   39.0148    6.0127    6.3933 O   0  0  0  0  0  0  0  0  0  0  0  0
   34.2993    7.1359    5.1705 C   0  0  0  0  0  0  0  0  0  0  0  0
   32.8324    7.0883    4.7697 C   0  0  0  0  0  0  0  0  0  0  0  0
   32.8484   11.1006   13.3158 C   0  0  1  0  0  0  0  0  0  0  0  0
   32.5538    6.2360    3.5963 N   0  0  0  0  0  0  0  0  0  0  0  0
   32.4640   12.1067   14.2494 O   0  0  0  0  0  0  0  0  0  0  0  0
   36.0322   10.1325    9.5918 C   0  0  2  0  0  0  0  0  0  0  0  0
   36.6378   10.4957   10.8668 N   0  0  0  0  0  0  0  0  0  0  0  0
   31.5555    4.2840    2.4161 C   0  0  0  0  0  0  0  0  0  0  0  0
   30.8901    2.8798    2.5334 C   0  0  0  0  0  0  0  0  0  0  0  0
   31.9273    4.9027    3.7889 C   0  0  0  0  0  0  0  0  0  0  0  0
   31.8111    1.8766    3.1471 N   0  0  0  0  0  0  0  0  0  0  0  0
   39.3964    9.1903    7.0605 O   0  0  0  0  0  0  0  0  0  0  0  0
   32.6406    9.6867   13.8944 C   0  0  2  0  0  0  0  0  0  0  0  0
   33.3677    9.4793   15.1027 O   0  0  0  0  0  0  0  0  0  0  0  0
   34.7057    9.4548    9.8715 C   0  0  2  0  0  0  0  0  0  0  0  0
   33.0444    8.6103   12.8707 C   0  0  2  0  0  0  0  0  0  0  0  0
   32.3478    8.7933   11.6332 O   0  0  0  0  0  0  0  0  0  0  0  0
   34.0051    9.0627    8.5077 C   0  0  2  0  0  0  0  0  0  0  0  0
   32.7389    8.3958    8.8076 O   0  0  0  0  0  0  0  0  0  0  0  0
   32.7729    7.2208   13.3823 C   0  0  0  0  0  0  0  0  0  0  0  0
   33.2720    6.2800   12.5099 O   0  0  0  0  0  0  0  0  0  0  0  0
   34.9499    8.0987    7.7132 C   0  0  1  0  0  0  0  0  0  0  0  0
   34.3915    7.7047    6.4937 O   0  0  0  0  0  0  0  0  0  0  0  0
  1  2  1  1  0  0  0
  1  5  1  0  0  0  0
  1 30  1  0  0  0  0
  3  4  1  1  0  0  0
  3  7  1  0  0  0  0
  3 35  1  0  0  0  0
  5  6  1  6  0  0  0
  5 16  1  0  0  0  0
  7 19  1  0  0  0  0
  8  4  1  0  0  0  0
  8 25  2  0  0  0  0
  9  8  1  1  0  0  0
  9 10  1  0  0  0  0
  9 13  1  0  0  0  0
 10 11  1  0  0  0  0
 11 12  1  0  0  0  0
 14 15  1  0  0  0  0
 14 36  1  0  0  0  0
 15 17  1  0  0  0  0
 16 18  1  1  0  0  0
 16 26  1  0  0  0  0
 17 23  1  0  0  0  0
 19 20  1  1  0  0  0
 19 28  1  0  0  0  0
 21 22  1  0  0  0  0
 21 23  1  0  0  0  0
 22 24  1  0  0  0  0
 26 27  1  1  0  0  0
 26 29  1  0  0  0  0
 28  2  1  6  0  0  0
 28 31  1  0  0  0  0
 29 30  1  0  0  0  0
 29 33  1  1  0  0  0
 31 32  1  1  0  0  0
 31 35  1  0  0  0  0
 33 34  1  0  0  0  0
 35 36  1  6  0  0  0
M  END
>  <CHROM.1>
174.11357905,-44.96813545,169.29300306,179.41431806,-169.28879014,-165.67504717
170.42993103,104.46618075,172.18306793,-62.70079869,-179.96994401,173.03743892
-173.63278470,45.56561758,34.78776735,8.10299575,8.39771699,1.90495481,0.22275524
1.02383092

>  <Name>
2f4u_lig

>  <RI>
0

>  <Rbt.Current_Directory>
/home/itssahil/PROJECTS/Mol_Feturizer/New_Systems/rnas/2f4u

>  <Rbt.Executable>
rbdock ($Id: //depot/dev/client3/rdock/2013.1/src/exe/rbdock.cxx#4 $)

>  <Rbt.Library>
libRbt.so (2013.1, Build901 2013/11/27)

>  <Rbt.Parameter_File>
/export/apps/rDock/src/rDock_2013.1_src/data/scripts/dock_solv.prm

>  <Rbt.Receptor>
prm/pocket_docking_8.prm

>  <SCORE>
-8.32718

>  <SCORE.INTER>
2.45045

>  <SCORE.INTER.CONST>
1

>  <SCORE.INTER.POLAR>
-0.0928923

>  <SCORE.INTER.ROT>
14

>  <SCORE.INTER.SOLV>
16.9142

>  <SCORE.INTER.VDW>
-16.6281

>  <SCORE.INTER.norm>
0.068068

>  <SCORE.INTRA>
-10.7843

>  <SCORE.INTRA.DIHEDRAL>
-21.073

>  <SCORE.INTRA.DIHEDRAL.0>
26.3805

>  <SCORE.INTRA.POLAR>
0

>  <SCORE.INTRA.POLAR.0>
0

>  <SCORE.INTRA.REPUL>
0

>  <SCORE.INTRA.REPUL.0>
0

>  <SCORE.INTRA.SOLV>
-0.90944

>  <SCORE.INTRA.SOLV.lig_0>
-98.5587

>  <SCORE.INTRA.VDW>
0.206903

>  <SCORE.INTRA.VDW.0>
-2.91167

>  <SCORE.INTRA.norm>
-0.299564

>  <SCORE.RESTR>
0.00666358

>  <SCORE.RESTR.CAVITY>
0.00666358

>  <SCORE.RESTR.norm>
0.0001851

>  <SCORE.SYSTEM>
0

>  <SCORE.SYSTEM.CONST>
0

>  <SCORE.SYSTEM.DIHEDRAL>
0

>  <SCORE.SYSTEM.SOLV>
0

>  <SCORE.SYSTEM.norm>
0

>  <SCORE.heavy>
36

>  <SCORE.norm>
-0.231311

>  <RMSD>
9.028

$$$$
2f4u_lig
 OpenBabel11021811433D
libRbt.so/2013.1/901 2013/11/27
 36 37  0  0  0  0  0  0  0  0999 V2000
   45.1976    4.4520    6.0492 C   0  0  2  0  0  0  0  0  0  0  0  0
   43.8602    3.8814    6.3011 O   0  0  0  0  0  0  0  0  0  0  0  0
   40.1754    5.2156    8.1820 C   0  0  2  0  0  0  0  0  0  0  0  0
   39.2607    5.8066    9.1962 N   0  0  0  0  0  0  0  0  0  0  0  0
   45.7644    3.7265    4.7896 C   0  0  2  0  0  0  0  0  0  0  0  0
   44.9027    3.8895    3.6042 N   0  0  0  0  0  0  0  0  0  0  0  0
   40.9815    4.0012    8.7637 C   0  0  0  0  0  0  0  0  0  0  0  0
   40.1307    6.1765   10.7107 C   0  0  0  0  0  0  0  0  0  0  0  0
   38.7724    6.5120   11.2419 C   0  0  1  0  0  0  0  0  0  0  0  0
   38.9014    6.6463   12.7633 C   0  0  0  0  0  0  0  0  0  0  0  0
   38.9859    5.3246   13.5489 C   0  0  0  0  0  0  0  0  0  0  0  0
   37.7315    4.5921   13.3646 N   0  0  0  0  0  0  0  0  0  0  0  0
   38.3466    7.7498   10.7409 O   0  0  0  0  0  0  0  0  0  0  0  0
   39.4014    8.0848    6.4597 C   0  0  0  0  0  0  0  0  0  0  0  0
   39.7123    7.9063    4.9811 C   0  0  0  0  0  0  0  0  0  0  0  0
   45.9419    2.2072    5.1194 C   0  0  1  0  0  0  0  0  0  0  0  0
   38.9042    8.7591    4.0863 N   0  0  0  0  0  0  0  0  0  0  0  0
   46.4487    1.4951    3.9936 O   0  0  0  0  0  0  0  0  0  0  0  0
   41.9662    3.4312    7.7224 C   0  0  2  0  0  0  0  0  0  0  0  0
   42.7468    2.3327    8.2775 N   0  0  0  0  0  0  0  0  0  0  0  0
   36.7069    9.9160    3.9030 C   0  0  0  0  0  0  0  0  0  0  0  0
   37.0436   10.7014    2.5999 C   0  0  0  0  0  0  0  0  0  0  0  0
   37.4357    8.5503    4.0011 C   0  0  0  0  0  0  0  0  0  0  0  0
   36.5701    9.9831    1.3787 N   0  0  0  0  0  0  0  0  0  0  0  0
   41.1485    6.1106   11.0587 O   0  0  0  0  0  0  0  0  0  0  0  0
   46.8844    2.0853    6.3335 C   0  0  2  0  0  0  0  0  0  0  0  0
   47.1036    0.7311    6.7204 O   0  0  0  0  0  0  0  0  0  0  0  0
   42.9254    4.5087    7.2574 C   0  0  2  0  0  0  0  0  0  0  0  0
   46.3335    2.8716    7.5368 C   0  0  2  0  0  0  0  0  0  0  0  0
   46.0824    4.2367    7.1851 O   0  0  0  0  0  0  0  0  0  0  0  0
   42.1152    5.7133    6.6274 C   0  0  2  0  0  0  0  0  0  0  0  0
   43.0628    6.7437    6.2050 O   0  0  0  0  0  0  0  0  0  0  0  0
   47.2773    2.8358    8.7090 C   0  0  0  0  0  0  0  0  0  0  0  0
   48.5122    3.3260    8.3486 O   0  0  0  0  0  0  0  0  0  0  0  0
   41.1389    6.2865    7.7097 C   0  0  1  0  0  0  0  0  0  0  0  0
   40.3901    7.3621    7.2232 O   0  0  0  0  0  0  0  0  0  0  0  0
  1  2  1  1  0  0  0
  1  5  1  0  0  0  0
  1 30  1  0  0  0  0
  3  4  1  1  0  0  0
  3  7  1  0  0  0  0
  3 35  1  0  0  0  0
  5  6  1  6  0  0  0
  5 16  1  0  0  0  0
  7 19  1  0  0  0  0
  8  4  1  0  0  0  0
  8 25  2  0  0  0  0
  9  8  1  6  0  0  0
  9 10  1  0  0  0  0
  9 13  1  0  0  0  0
 10 11  1  0  0  0  0
 11 12  1  0  0  0  0
 14 15  1  0  0  0  0
 14 36  1  0  0  0  0
 15 17  1  0  0  0  0
 16 18  1  6  0  0  0
 16 26  1  0  0  0  0
 17 23  1  0  0  0  0
 19 20  1  1  0  0  0
 19 28  1  0  0  0  0
 21 22  1  0  0  0  0
 21 23  1  0  0  0  0
 22 24  1  0  0  0  0
 26 27  1  1  0  0  0
 26 29  1  0  0  0  0
 28  2  1  6  0  0  0
 28 31  1  0  0  0  0
 29 30  1  0  0  0  0
 29 33  1  1  0  0  0
 31 32  1  1  0  0  0
 31 35  1  0  0  0  0
 33 34  1  0  0  0  0
 35 36  1  6  0  0  0
M  END
>  <CHROM.1>
-168.12322179,51.60260682,167.69396174,-77.23368838,-63.59688194,-171.14296225
-61.90308218,-65.24122741,140.93551759,64.26664110,64.41303125,-156.20213718
56.95652586,-51.31350973,41.95705982,5.38754906,7.29520407,-0.13140195,0.57722413
-1.29271720

>  <Name>
2f4u_lig

>  <RI>
0

>  <Rbt.Current_Directory>
/home/itssahil/PROJECTS/Mol_Feturizer/New_Systems/rnas/2f4u

>  <Rbt.Executable>
rbdock ($Id: //depot/dev/client3/rdock/2013.1/src/exe/rbdock.cxx#4 $)

>  <Rbt.Library>
libRbt.so (2013.1, Build901 2013/11/27)

>  <Rbt.Parameter_File>
/export/apps/rDock/src/rDock_2013.1_src/data/scripts/dock_solv.prm

>  <Rbt.Receptor>
prm/pocket_docking_4.prm

>  <SCORE>
-22.4037

>  <SCORE.INTER>
-13.1743

>  <SCORE.INTER.CONST>
1

>  <SCORE.INTER.POLAR>
-2.23462

>  <SCORE.INTER.ROT>
14

>  <SCORE.INTER.SOLV>
20.0646

>  <SCORE.INTER.VDW>
-20.9557

>  <SCORE.INTER.norm>
-0.365954

>  <SCORE.INTRA>
-9.24316

>  <SCORE.INTRA.DIHEDRAL>
-19.4951

>  <SCORE.INTRA.DIHEDRAL.0>
26.3805

>  <SCORE.INTRA.POLAR>
0

>  <SCORE.INTRA.POLAR.0>
0

>  <SCORE.INTRA.REPUL>
0

>  <SCORE.INTRA.REPUL.0>
0

>  <SCORE.INTRA.SOLV>
3.00102

>  <SCORE.INTRA.SOLV.lig_0>
-98.5587

>  <SCORE.INTRA.VDW>
-0.996091

>  <SCORE.INTRA.VDW.0>
-2.91167

>  <SCORE.INTRA.norm>
-0.256754

>  <SCORE.RESTR>
0.0137983

>  <SCORE.RESTR.CAVITY>
0.0137983

>  <SCORE.RESTR.norm>
0.000383285

>  <SCORE.SYSTEM>
0

>  <SCORE.SYSTEM.CONST>
0

>  <SCORE.SYSTEM.DIHEDRAL>
0

>  <SCORE.SYSTEM.SOLV>
0

>  <SCORE.SYSTEM.norm>
0

>  <SCORE.heavy>
36

>  <SCORE.norm>
-0.622325

>  <RMSD>
9.038

$$$$
2f4u_lig
 OpenBabel11021811433D
libRbt.so/2013.1/901 2013/11/27
 36 37  0  0  0  0  0  0  0  0999 V2000
   36.6581    5.3144    9.6385 C   0  0  2  0  0  0  0  0  0  0  0  0
   36.3889    6.7265    9.9722 O   0  0  0  0  0  0  0  0  0  0  0  0
   37.0907    8.9294    6.2911 C   0  0  2  0  0  0  0  0  0  0  0  0
   37.3969   10.0675    5.3825 N   0  0  0  0  0  0  0  0  0  0  0  0
   35.7736    4.4523   10.5916 C   0  0  2  0  0  0  0  0  0  0  0  0
   34.3356    4.7490   10.4556 N   0  0  0  0  0  0  0  0  0  0  0  0
   35.8189    9.2106    7.1668 C   0  0  0  0  0  0  0  0  0  0  0  0
   36.8033    9.7495    3.7290 C   0  0  0  0  0  0  0  0  0  0  0  0
   37.5085   11.0237    3.3840 C   0  0  1  0  0  0  0  0  0  0  0  0
   38.9954   10.6888    3.2209 C   0  0  0  0  0  0  0  0  0  0  0  0
   39.9433   11.8942    3.0807 C   0  0  0  0  0  0  0  0  0  0  0  0
   39.6363   12.5848    1.8266 N   0  0  0  0  0  0  0  0  0  0  0  0
   37.0473   11.5174    2.1561 O   0  0  0  0  0  0  0  0  0  0  0  0
   40.3045    7.7981    5.4753 C   0  0  0  0  0  0  0  0  0  0  0  0
   39.4949    7.2613    4.3044 C   0  0  0  0  0  0  0  0  0  0  0  0
   36.2349    4.6963   12.0668 C   0  0  1  0  0  0  0  0  0  0  0  0
   40.2647    6.4060    3.3788 N   0  0  0  0  0  0  0  0  0  0  0  0
   35.4481    3.9371   12.9811 O   0  0  0  0  0  0  0  0  0  0  0  0
   35.5427    8.0493    8.1435 C   0  0  2  0  0  0  0  0  0  0  0  0
   34.3885    8.3309    8.9879 N   0  0  0  0  0  0  0  0  0  0  0  0
   40.5389    4.7095    1.5770 C   0  0  0  0  0  0  0  0  0  0  0  0
   41.7218    3.9477    2.2468 C   0  0  0  0  0  0  0  0  0  0  0  0
   39.5656    5.3514    2.5999 C   0  0  0  0  0  0  0  0  0  0  0  0
   42.6492    3.3587    1.2347 N   0  0  0  0  0  0  0  0  0  0  0  0
   36.2552    8.9625    3.2375 O   0  0  0  0  0  0  0  0  0  0  0  0
   37.7289    4.3298   12.1706 C   0  0  2  0  0  0  0  0  0  0  0  0
   38.2494    4.5277   13.4827 O   0  0  0  0  0  0  0  0  0  0  0  0
   36.7423    7.8167    9.0402 C   0  0  2  0  0  0  0  0  0  0  0  0
   38.5647    5.1450   11.1673 C   0  0  2  0  0  0  0  0  0  0  0  0
   38.0630    4.9875    9.8355 O   0  0  0  0  0  0  0  0  0  0  0  0
   38.0149    7.4863    8.1594 C   0  0  2  0  0  0  0  0  0  0  0  0
   39.1586    7.2848    9.0478 O   0  0  0  0  0  0  0  0  0  0  0  0
   40.0159    4.7456   11.1920 C   0  0  0  0  0  0  0  0  0  0  0  0
   40.7204    5.4291   10.2269 O   0  0  0  0  0  0  0  0  0  0  0  0
   38.2857    8.6881    7.1921 C   0  0  1  0  0  0  0  0  0  0  0  0
   39.4039    8.4677    6.3826 O   0  0  0  0  0  0  0  0  0  0  0  0
  1  2  1  1  0  0  0
  1  5  1  0  0  0  0
  1 30  1  0  0  0  0
  3  4  1  6  0  0  0
  3  7  1  0  0  0  0
  3 35  1  0  0  0  0
  5  6  1  1  0  0  0
  5 16  1  0  0  0  0
  7 19  1  0  0  0  0
  8  4  1  0  0  0  0
  8 25  2  0  0  0  0
  9  8  1  6  0  0  0
  9 10  1  0  0  0  0
  9 13  1  0  0  0  0
 10 11  1  0  0  0  0
 11 12  1  0  0  0  0
 14 15  1  0  0  0  0
 14 36  1  0  0  0  0
 15 17  1  0  0  0  0
 16 18  1  1  0  0  0
 16 26  1  0  0  0  0
 17 23  1  0  0  0  0
 19 20  1  1  0  0  0
 19 28  1  0  0  0  0
 21 22  1  0  0  0  0
 21 23  1  0  0  0  0
 22 24  1  0  0  0  0
 26 27  1  1  0  0  0
 26 29  1  0  0  0  0
 28  2  1  1  0  0  0
 28 31  1  0  0  0  0
 29 30  1  0  0  0  0
 29 33  1  6  0  0  0
 31 32  1  1  0  0  0
 31 35  1  0  0  0  0
 33 34  1  0  0  0  0
 35 36  1  6  0  0  0
M  END
>  <CHROM.1>
-162.31869874,-99.67736782,80.49622953,-170.76443710,-65.49385744,-172.78817618
48.71143872,152.25846563,172.96273842,-179.20275918,64.47645907,90.21234286
176.14552773,-72.64189069,38.09510792,7.16900422,7.00078143,-1.90971968,0.84319332
-0.89045024

>  <Name>
2f4u_lig

>  <RI>
0

>  <Rbt.Current_Directory>
/home/itssahil/PROJECTS/Mol_Feturizer/New_Systems/rnas/2f4u

>  <Rbt.Executable>
rbdock ($Id: //depot/dev/client3/rdock/2013.1/src/exe/rbdock.cxx#4 $)

>  <Rbt.Library>
libRbt.so (2013.1, Build901 2013/11/27)

>  <Rbt.Parameter_File>
/export/apps/rDock/src/rDock_2013.1_src/data/scripts/dock_solv.prm

>  <Rbt.Receptor>
prm/pocket_docking_7.prm

>  <SCORE>
-17.6226

>  <SCORE.INTER>
-9.17424

>  <SCORE.INTER.CONST>
1

>  <SCORE.INTER.POLAR>
-0.879124

>  <SCORE.INTER.ROT>
14

>  <SCORE.INTER.SOLV>
10.1274

>  <SCORE.INTER.VDW>
-19.4949

>  <SCORE.INTER.norm>
-0.25484

>  <SCORE.INTRA>
-8.44838

>  <SCORE.INTRA.DIHEDRAL>
-16.393

>  <SCORE.INTRA.DIHEDRAL.0>
26.3805

>  <SCORE.INTRA.POLAR>
0

>  <SCORE.INTRA.POLAR.0>
0

>  <SCORE.INTRA.REPUL>
0

>  <SCORE.INTRA.REPUL.0>
0

>  <SCORE.INTRA.SOLV>
2.79972

>  <SCORE.INTRA.SOLV.lig_0>
-98.5587

>  <SCORE.INTRA.VDW>
-1.65176

>  <SCORE.INTRA.VDW.0>
-2.91167

>  <SCORE.INTRA.norm>
-0.234677

>  <SCORE.RESTR>
0

>  <SCORE.RESTR.CAVITY>
0

>  <SCORE.RESTR.norm>
0

>  <SCORE.SYSTEM>
0

>  <SCORE.SYSTEM.CONST>
0

>  <SCORE.SYSTEM.DIHEDRAL>
0

>  <SCORE.SYSTEM.SOLV>
0

>  <SCORE.SYSTEM.norm>
0

>  <SCORE.heavy>
36

>  <SCORE.norm>
-0.489517

>  <RMSD>
9.042

$$$$
2f4u_lig
 OpenBabel11021811433D
libRbt.so/2013.1/901 2013/11/27
 36 37  0  0  0  0  0  0  0  0999 V2000
   45.5674    3.7976    6.2677 C   0  0  2  0  0  0  0  0  0  0  0  0
   44.5805    2.7025    6.2005 O   0  0  0  0  0  0  0  0  0  0  0  0
   40.6900    2.5981    8.1366 C   0  0  2  0  0  0  0  0  0  0  0  0
   39.6588    2.3738    9.1860 N   0  0  0  0  0  0  0  0  0  0  0  0
   46.5661    3.5737    5.0902 C   0  0  2  0  0  0  0  0  0  0  0  0
   45.8999    3.5602    3.7749 N   0  0  0  0  0  0  0  0  0  0  0  0
   41.4394    1.2701    7.7648 C   0  0  0  0  0  0  0  0  0  0  0  0
   38.2767    1.4445    8.5429 C   0  0  0  0  0  0  0  0  0  0  0  0
   37.6572    1.7144    9.8782 C   0  0  1  0  0  0  0  0  0  0  0  0
   36.1484    1.4872    9.7320 C   0  0  0  0  0  0  0  0  0  0  0  0
   35.2724    2.0449   10.8691 C   0  0  0  0  0  0  0  0  0  0  0  0
   35.3625    3.5063   10.8525 N   0  0  0  0  0  0  0  0  0  0  0  0
   38.1339    0.8014   10.8288 O   0  0  0  0  0  0  0  0  0  0  0  0
   40.2284    5.9977    8.8332 C   0  0  0  0  0  0  0  0  0  0  0  0
   39.4506    6.2464   10.1169 C   0  0  0  0  0  0  0  0  0  0  0  0
   47.3250    2.2249    5.3215 C   0  0  1  0  0  0  0  0  0  0  0  0
   38.5096    7.3822   10.0431 N   0  0  0  0  0  0  0  0  0  0  0  0
   48.2450    1.9676    4.2638 O   0  0  0  0  0  0  0  0  0  0  0  0
   42.5428    1.5233    6.7174 C   0  0  2  0  0  0  0  0  0  0  0  0
   43.2684    0.2982    6.4061 N   0  0  0  0  0  0  0  0  0  0  0  0
   36.8457    8.7908    8.8402 C   0  0  0  0  0  0  0  0  0  0  0  0
   35.6763    8.8506    7.8119 C   0  0  0  0  0  0  0  0  0  0  0  0
   37.4084    7.3602    9.0460 C   0  0  0  0  0  0  0  0  0  0  0  0
   34.4930    8.0612    8.2678 N   0  0  0  0  0  0  0  0  0  0  0  0
   38.0203    0.9815    7.6041 O   0  0  0  0  0  0  0  0  0  0  0  0
   48.0416    2.3036    6.6844 C   0  0  2  0  0  0  0  0  0  0  0  0
   48.7589    1.1113    6.9934 O   0  0  0  0  0  0  0  0  0  0  0  0
   43.5355    2.5461    7.2327 C   0  0  2  0  0  0  0  0  0  0  0  0
   47.0393    2.5976    7.8151 C   0  0  2  0  0  0  0  0  0  0  0  0
   46.2838    3.7812    7.5350 O   0  0  0  0  0  0  0  0  0  0  0  0
   42.7877    3.9011    7.5631 C   0  0  2  0  0  0  0  0  0  0  0  0
   43.7646    4.8614    8.0743 O   0  0  0  0  0  0  0  0  0  0  0  0
   47.7264    2.7610    9.1445 C   0  0  0  0  0  0  0  0  0  0  0  0
   48.6681    3.7631    9.0802 O   0  0  0  0  0  0  0  0  0  0  0  0
   41.6879    3.6210    8.6425 C   0  0  1  0  0  0  0  0  0  0  0  0
   40.9863    4.7794    8.9889 O   0  0  0  0  0  0  0  0  0  0  0  0
  1  2  1  1  0  0  0
  1  5  1  0  0  0  0
  1 30  1  0  0  0  0
  3  4  1  1  0  0  0
  3  7  1  0  0  0  0
  3 35  1  0  0  0  0
  5  6  1  6  0  0  0
  5 16  1  0  0  0  0
  7 19  1  0  0  0  0
  8  4  1  0  0  0  0
  8 25  2  0  0  0  0
  9  8  1  6  0  0  0
  9 10  1  0  0  0  0
  9 13  1  0  0  0  0
 10 11  1  0  0  0  0
 11 12  1  0  0  0  0
 14 15  1  0  0  0  0
 14 36  1  0  0  0  0
 15 17  1  0  0  0  0
 16 18  1  6  0  0  0
 16 26  1  0  0  0  0
 17 23  1  0  0  0  0
 19 20  1  1  0  0  0
 19 28  1  0  0  0  0
 21 22  1  0  0  0  0
 21 23  1  0  0  0  0
 22 24  1  0  0  0  0
 26 27  1  1  0  0  0
 26 29  1  0  0  0  0
 28  2  1  6  0  0  0
 28 31  1  0  0  0  0
 29 30  1  0  0  0  0
 29 33  1  1  0  0  0
 31 32  1  1  0  0  0
 31 35  1  0  0  0  0
 33 34  1  0  0  0  0
 35 36  1  6  0  0  0
M  END
>  <CHROM.1>
175.51343624,-70.46006553,161.44428990,-165.07397377,66.07489090,-173.42164008
156.61589409,60.36946100,-162.18901843,62.93283259,-179.61726582,168.67925055
57.20204105,-71.88419724,41.89805095,3.51398942,8.00967276,-0.19298997,0.28819128
-0.07582286

>  <Name>
2f4u_lig

>  <RI>
0

>  <Rbt.Current_Directory>
/home/itssahil/PROJECTS/Mol_Feturizer/New_Systems/rnas/2f4u

>  <Rbt.Executable>
rbdock ($Id: //depot/dev/client3/rdock/2013.1/src/exe/rbdock.cxx#4 $)

>  <Rbt.Library>
libRbt.so (2013.1, Build901 2013/11/27)

>  <Rbt.Parameter_File>
/export/apps/rDock/src/rDock_2013.1_src/data/scripts/dock_solv.prm

>  <Rbt.Receptor>
prm/pocket_docking_5.prm

>  <SCORE>
-15.5356

>  <SCORE.INTER>
-5.55356

>  <SCORE.INTER.CONST>
1

>  <SCORE.INTER.POLAR>
-1.76001

>  <SCORE.INTER.ROT>
14

>  <SCORE.INTER.SOLV>
9.31318

>  <SCORE.INTER.VDW>
-13.8734

>  <SCORE.INTER.norm>
-0.154265

>  <SCORE.INTRA>
-9.98206

>  <SCORE.INTRA.DIHEDRAL>
-20.0882

>  <SCORE.INTRA.DIHEDRAL.0>
26.3805

>  <SCORE.INTRA.POLAR>
0

>  <SCORE.INTRA.POLAR.0>
0

>  <SCORE.INTRA.REPUL>
0

>  <SCORE.INTRA.REPUL.0>
0

>  <SCORE.INTRA.SOLV>
0.367896

>  <SCORE.INTRA.SOLV.lig_0>
-98.5587

>  <SCORE.INTRA.VDW>
-0.121924

>  <SCORE.INTRA.VDW.0>
-2.91167

>  <SCORE.INTRA.norm>
-0.27728

>  <SCORE.RESTR>
0

>  <SCORE.RESTR.CAVITY>
0

>  <SCORE.RESTR.norm>
0

>  <SCORE.SYSTEM>
0

>  <SCORE.SYSTEM.CONST>
0

>  <SCORE.SYSTEM.DIHEDRAL>
0

>  <SCORE.SYSTEM.SOLV>
0

>  <SCORE.SYSTEM.norm>
0

>  <SCORE.heavy>
36

>  <SCORE.norm>
-0.431545

>  <RMSD>
9.052

$$$$
2f4u_lig
 OpenBabel11021811433D
libRbt.so/2013.1/901 2013/11/27
 36 37  0  0  0  0  0  0  0  0999 V2000
   37.6331    4.5393    8.3949 C   0  0  2  0  0  0  0  0  0  0  0  0
   38.0564    5.7946    9.0453 O   0  0  0  0  0  0  0  0  0  0  0  0
   38.5251    8.5223    5.6935 C   0  0  2  0  0  0  0  0  0  0  0  0
   38.8557    9.7611    4.9378 N   0  0  0  0  0  0  0  0  0  0  0  0
   37.1696    3.5788    9.5336 C   0  0  2  0  0  0  0  0  0  0  0  0
   36.0680    4.1401   10.3371 N   0  0  0  0  0  0  0  0  0  0  0  0
   37.4465    8.7882    6.8021 C   0  0  0  0  0  0  0  0  0  0  0  0
   37.5933   10.1367    3.7325 C   0  0  0  0  0  0  0  0  0  0  0  0
   38.5300   11.2205    3.2993 C   0  0  1  0  0  0  0  0  0  0  0  0
   38.2115   11.5355    1.8334 C   0  0  0  0  0  0  0  0  0  0  0  0
   36.8339   12.1702    1.5674 C   0  0  0  0  0  0  0  0  0  0  0  0
   36.7236   12.4612    0.1366 N   0  0  0  0  0  0  0  0  0  0  0  0
   38.3021   12.3861    4.0433 O   0  0  0  0  0  0  0  0  0  0  0  0
   42.0122    7.5267    4.6991 C   0  0  0  0  0  0  0  0  0  0  0  0
   42.5663    6.2265    5.2624 C   0  0  0  0  0  0  0  0  0  0  0  0
   38.3946    3.2573   10.4527 C   0  0  1  0  0  0  0  0  0  0  0  0
   43.9714    5.9588    4.8951 N   0  0  0  0  0  0  0  0  0  0  0  0
   38.0202    2.3888   11.5190 O   0  0  0  0  0  0  0  0  0  0  0  0
   37.1518    7.5113    7.6154 C   0  0  2  0  0  0  0  0  0  0  0  0
   36.1839    7.7694    8.6740 N   0  0  0  0  0  0  0  0  0  0  0  0
   46.0554    4.5964    4.9239 C   0  0  0  0  0  0  0  0  0  0  0  0
   46.7220    5.2017    6.1957 C   0  0  0  0  0  0  0  0  0  0  0  0
   44.5061    4.5762    4.9946 C   0  0  0  0  0  0  0  0  0  0  0  0
   46.5190    4.3363    7.3962 N   0  0  0  0  0  0  0  0  0  0  0  0
   36.6456    9.7140    3.4415 O   0  0  0  0  0  0  0  0  0  0  0  0
   39.5005    2.6319    9.5791 C   0  0  2  0  0  0  0  0  0  0  0  0
   40.6700    2.3096   10.3273 O   0  0  0  0  0  0  0  0  0  0  0  0
   38.4230    6.9851    8.2514 C   0  0  2  0  0  0  0  0  0  0  0  0
   39.8839    3.5728    8.4227 C   0  0  2  0  0  0  0  0  0  0  0  0
   38.7316    3.9359    7.6542 O   0  0  0  0  0  0  0  0  0  0  0  0
   39.4947    6.6720    7.1299 C   0  0  2  0  0  0  0  0  0  0  0  0
   40.7144    6.1842    7.7721 O   0  0  0  0  0  0  0  0  0  0  0  0
   40.9035    2.9492    7.5075 C   0  0  0  0  0  0  0  0  0  0  0  0
   40.4059    1.7943    6.9474 O   0  0  0  0  0  0  0  0  0  0  0  0
   39.7912    7.9874    6.3331 C   0  0  1  0  0  0  0  0  0  0  0  0
   40.7377    7.7870    5.3240 O   0  0  0  0  0  0  0  0  0  0  0  0
  1  2  1  1  0  0  0
  1  5  1  0  0  0  0
  1 30  1  0  0  0  0
  3  4  1  1  0  0  0
  3  7  1  0  0  0  0
  3 35  1  0  0  0  0
  5  6  1  1  0  0  0
  5 16  1  0  0  0  0
  7 19  1  0  0  0  0
  8  4  1  0  0  0  0
  8 25  2  0  0  0  0
  9  8  1  1  0  0  0
  9 10  1  0  0  0  0
  9 13  1  0  0  0  0
 10 11  1  0  0  0  0
 11 12  1  0  0  0  0
 14 15  1  0  0  0  0
 14 36  1  0  0  0  0
 15 17  1  0  0  0  0
 16 18  1  1  0  0  0
 16 26  1  0  0  0  0
 17 23  1  0  0  0  0
 19 20  1  1  0  0  0
 19 28  1  0  0  0  0
 21 22  1  0  0  0  0
 21 23  1  0  0  0  0
 22 24  1  0  0  0  0
 26 27  1  1  0  0  0
 26 29  1  0  0  0  0
 28  2  1  6  0  0  0
 28 31  1  0  0  0  0
 29 30  1  0  0  0  0
 29 33  1  6  0  0  0
 31 32  1  1  0  0  0
 31 35  1  0  0  0  0
 33 34  1  0  0  0  0
 35 36  1  6  0  0  0
M  END
>  <CHROM.1>
-173.42084724,-78.11873007,155.27129897,66.69017340,177.31762724,-169.59315118
54.47448275,-160.75180272,-165.23706240,67.42480109,70.42799831,69.57297437
60.55536209,168.50240172,39.67874070,6.55134999,6.53284102,1.27236972,-0.32197234
2.40241184

>  <Name>
2f4u_lig

>  <RI>
0

>  <Rbt.Current_Directory>
/home/itssahil/PROJECTS/Mol_Feturizer/New_Systems/rnas/2f4u

>  <Rbt.Executable>
rbdock ($Id: //depot/dev/client3/rdock/2013.1/src/exe/rbdock.cxx#4 $)

>  <Rbt.Library>
libRbt.so (2013.1, Build901 2013/11/27)

>  <Rbt.Parameter_File>
/export/apps/rDock/src/rDock_2013.1_src/data/scripts/dock_solv.prm

>  <Rbt.Receptor>
prm/pocket_docking_4.prm

>  <SCORE>
-20.5421

>  <SCORE.INTER>
-9.81304

>  <SCORE.INTER.CONST>
1

>  <SCORE.INTER.POLAR>
-1.81858

>  <SCORE.INTER.ROT>
14

>  <SCORE.INTER.SOLV>
14.6878

>  <SCORE.INTER.VDW>
-18.3094

>  <SCORE.INTER.norm>
-0.272584

>  <SCORE.INTRA>
-10.729

>  <SCORE.INTRA.DIHEDRAL>
-21.728

>  <SCORE.INTRA.DIHEDRAL.0>
26.3805

>  <SCORE.INTRA.POLAR>
0

>  <SCORE.INTRA.POLAR.0>
0

>  <SCORE.INTRA.REPUL>
0

>  <SCORE.INTRA.REPUL.0>
0

>  <SCORE.INTRA.SOLV>
1.94401

>  <SCORE.INTRA.SOLV.lig_0>
-98.5587

>  <SCORE.INTRA.VDW>
-0.837043

>  <SCORE.INTRA.VDW.0>
-2.91167

>  <SCORE.INTRA.norm>
-0.298028

>  <SCORE.RESTR>
0

>  <SCORE.RESTR.CAVITY>
0

>  <SCORE.RESTR.norm>
0

>  <SCORE.SYSTEM>
0

>  <SCORE.SYSTEM.CONST>
0

>  <SCORE.SYSTEM.DIHEDRAL>
0

>  <SCORE.SYSTEM.SOLV>
0

>  <SCORE.SYSTEM.norm>
0

>  <SCORE.heavy>
36

>  <SCORE.norm>
-0.570613

>  <RMSD>
9.081

$$$$
2f4u_lig
 OpenBabel11021811433D
libRbt.so/2013.1/901 2013/11/27
 36 37  0  0  0  0  0  0  0  0999 V2000
   36.9716    3.3958    9.9809 C   0  0  2  0  0  0  0  0  0  0  0  0
   36.5166    4.6572    9.3648 O   0  0  0  0  0  0  0  0  0  0  0  0
   37.2887    3.9801    5.1410 C   0  0  2  0  0  0  0  0  0  0  0  0
   37.3057    4.2104    3.6708 N   0  0  0  0  0  0  0  0  0  0  0  0
   36.7420    3.5391   11.5174 C   0  0  2  0  0  0  0  0  0  0  0  0
   35.3316    3.8004   11.8592 N   0  0  0  0  0  0  0  0  0  0  0  0
   35.8253    3.9446    5.7070 C   0  0  0  0  0  0  0  0  0  0  0  0
   36.5378    5.7673    3.2538 C   0  0  0  0  0  0  0  0  0  0  0  0
   36.7212    5.3160    1.8387 C   0  0  1  0  0  0  0  0  0  0  0  0
   35.4997    4.4657    1.4724 C   0  0  0  0  0  0  0  0  0  0  0  0
   35.5683    3.7424    0.1146 C   0  0  0  0  0  0  0  0  0  0  0  0
   34.3471    2.9525   -0.0547 N   0  0  0  0  0  0  0  0  0  0  0  0
   36.7443    6.4200    0.9755 O   0  0  0  0  0  0  0  0  0  0  0  0
   40.7247    5.5150    5.0542 C   0  0  0  0  0  0  0  0  0  0  0  0
   40.7421    7.0074    4.7595 C   0  0  0  0  0  0  0  0  0  0  0  0
   37.6482    4.6948   12.0576 C   0  0  1  0  0  0  0  0  0  0  0  0
   42.0719    7.5361    4.3948 N   0  0  0  0  0  0  0  0  0  0  0  0
   37.4670    4.8742   13.4598 O   0  0  0  0  0  0  0  0  0  0  0  0
   35.8207    3.7608    7.2383 C   0  0  2  0  0  0  0  0  0  0  0  0
   34.4632    3.7734    7.7689 N   0  0  0  0  0  0  0  0  0  0  0  0
   44.4327    6.7624    4.2265 C   0  0  0  0  0  0  0  0  0  0  0  0
   45.5593    5.9387    4.9198 C   0  0  0  0  0  0  0  0  0  0  0  0
   43.2653    7.1280    5.1801 C   0  0  0  0  0  0  0  0  0  0  0  0
   45.0750    4.5976    5.3650 N   0  0  0  0  0  0  0  0  0  0  0  0
   36.0997    6.5885    3.7971 O   0  0  0  0  0  0  0  0  0  0  0  0
   39.1135    4.3558   11.7181 C   0  0  2  0  0  0  0  0  0  0  0  0
   40.0229    5.3589   12.1636 O   0  0  0  0  0  0  0  0  0  0  0  0
   36.6026    4.8742    7.9062 C   0  0  2  0  0  0  0  0  0  0  0  0
   39.2919    4.1490   10.2032 C   0  0  2  0  0  0  0  0  0  0  0  0
   38.3824    3.1589    9.7107 O   0  0  0  0  0  0  0  0  0  0  0  0
   38.0917    4.8805    7.3707 C   0  0  2  0  0  0  0  0  0  0  0  0
   38.8163    5.9737    8.0172 O   0  0  0  0  0  0  0  0  0  0  0  0
   40.6972    3.7359    9.8558 C   0  0  0  0  0  0  0  0  0  0  0  0
   40.9935    2.5148   10.4181 O   0  0  0  0  0  0  0  0  0  0  0  0
   38.0696    5.0889    5.8185 C   0  0  1  0  0  0  0  0  0  0  0  0
   39.3570    5.1103    5.2741 O   0  0  0  0  0  0  0  0  0  0  0  0
  1  2  1  6  0  0  0
  1  5  1  0  0  0  0
  1 30  1  0  0  0  0
  3  4  1  6  0  0  0
  3  7  1  0  0  0  0
  3 35  1  0  0  0  0
  5  6  1  6  0  0  0
  5 16  1  0  0  0  0
  7 19  1  0  0  0  0
  8  4  1  0  0  0  0
  8 25  2  0  0  0  0
  9  8  1  1  0  0  0
  9 10  1  0  0  0  0
  9 13  1  0  0  0  0
 10 11  1  0  0  0  0
 11 12  1  0  0  0  0
 14 15  1  0  0  0  0
 14 36  1  0  0  0  0
 15 17  1  0  0  0  0
 16 18  1  1  0  0  0
 16 26  1  0  0  0  0
 17 23  1  0  0  0  0
 19 20  1  1  0  0  0
 19 28  1  0  0  0  0
 21 22  1  0  0  0  0
 21 23  1  0  0  0  0
 22 24  1  0  0  0  0
 26 27  1  6  0  0  0
 26 29  1  0  0  0  0
 28  2  1  1  0  0  0
 28 31  1  0  0  0  0
 29 30  1  0  0  0  0
 29 33  1  1  0  0  0
 31 32  1  1  0  0  0
 31 35  1  0  0  0  0
 33 34  1  0  0  0  0
 35 36  1  6  0  0  0
M  END
>  <CHROM.1>
179.39793573,60.18465524,86.55253477,-172.24360949,178.36892011,-174.82814052
-54.29705532,-44.56269879,134.79338210,64.80149363,-163.05333881,57.40527354
63.48488674,-179.42179510,38.47243529,4.83249206,6.73876672,1.49557308,0.22257368
1.69947493

>  <Name>
2f4u_lig

>  <RI>
0

>  <Rbt.Current_Directory>
/home/itssahil/PROJECTS/Mol_Feturizer/New_Systems/rnas/2f4u

>  <Rbt.Executable>
rbdock ($Id: //depot/dev/client3/rdock/2013.1/src/exe/rbdock.cxx#4 $)

>  <Rbt.Library>
libRbt.so (2013.1, Build901 2013/11/27)

>  <Rbt.Parameter_File>
/export/apps/rDock/src/rDock_2013.1_src/data/scripts/dock_solv.prm

>  <Rbt.Receptor>
prm/pocket_docking_7.prm

>  <SCORE>
-10.8033

>  <SCORE.INTER>
0.106692

>  <SCORE.INTER.CONST>
1

>  <SCORE.INTER.POLAR>
0

>  <SCORE.INTER.ROT>
14

>  <SCORE.INTER.SOLV>
10.0563

>  <SCORE.INTER.VDW>
-16.2143

>  <SCORE.INTER.norm>
0.00296368

>  <SCORE.INTRA>
-10.91

>  <SCORE.INTRA.DIHEDRAL>
-21.8814

>  <SCORE.INTRA.DIHEDRAL.0>
26.3805

>  <SCORE.INTRA.POLAR>
0

>  <SCORE.INTRA.POLAR.0>
0

>  <SCORE.INTRA.REPUL>
0

>  <SCORE.INTRA.REPUL.0>
0

>  <SCORE.INTRA.SOLV>
1.24281

>  <SCORE.INTRA.SOLV.lig_0>
-98.5587

>  <SCORE.INTRA.VDW>
-0.590687

>  <SCORE.INTRA.VDW.0>
-2.91167

>  <SCORE.INTRA.norm>
-0.303056

>  <SCORE.RESTR>
0

>  <SCORE.RESTR.CAVITY>
0

>  <SCORE.RESTR.norm>
0

>  <SCORE.SYSTEM>
0

>  <SCORE.SYSTEM.CONST>
0

>  <SCORE.SYSTEM.DIHEDRAL>
0

>  <SCORE.SYSTEM.SOLV>
0

>  <SCORE.SYSTEM.norm>
0

>  <SCORE.heavy>
36

>  <SCORE.norm>
-0.300092

>  <RMSD>
9.090

$$$$
2f4u_lig
 OpenBabel11021811433D
libRbt.so/2013.1/901 2013/11/27
 36 37  0  0  0  0  0  0  0  0999 V2000
   36.2582    6.8144   10.1304 C   0  0  2  0  0  0  0  0  0  0  0  0
   37.1197    6.5362    8.9649 O   0  0  0  0  0  0  0  0  0  0  0  0
   38.0943    8.9169    5.4610 C   0  0  2  0  0  0  0  0  0  0  0  0
   38.5766   10.0618    4.6416 N   0  0  0  0  0  0  0  0  0  0  0  0
   37.1672    7.4771   11.2115 C   0  0  2  0  0  0  0  0  0  0  0  0
   37.8055    8.7177   10.7343 N   0  0  0  0  0  0  0  0  0  0  0  0
   36.9285    9.3407    6.4226 C   0  0  0  0  0  0  0  0  0  0  0  0
   37.3727   10.5223    3.4063 C   0  0  0  0  0  0  0  0  0  0  0  0
   38.4368   11.4570    2.9228 C   0  0  1  0  0  0  0  0  0  0  0  0
   38.1167   11.7909    1.4614 C   0  0  0  0  0  0  0  0  0  0  0  0
   36.7919   12.5372    1.2182 C   0  0  0  0  0  0  0  0  0  0  0  0
   36.7020   12.8754   -0.2036 N   0  0  0  0  0  0  0  0  0  0  0  0
   38.3991   12.6545    3.6500 O   0  0  0  0  0  0  0  0  0  0  0  0
   41.5912    7.6379    4.9305 C   0  0  0  0  0  0  0  0  0  0  0  0
   41.9817    6.3499    5.6400 C   0  0  0  0  0  0  0  0  0  0  0  0
   38.2592    6.4471   11.6532 C   0  0  1  0  0  0  0  0  0  0  0  0
   43.3719    5.9193    5.3891 N   0  0  0  0  0  0  0  0  0  0  0  0
   39.1254    7.0094   12.6355 O   0  0  0  0  0  0  0  0  0  0  0  0
   36.4736    8.1612    7.3061 C   0  0  2  0  0  0  0  0  0  0  0  0
   35.4223    8.5668    8.2305 N   0  0  0  0  0  0  0  0  0  0  0  0
   43.4562    3.7429    6.5958 C   0  0  0  0  0  0  0  0  0  0  0  0
   44.2030    2.8424    7.6252 C   0  0  0  0  0  0  0  0  0  0  0  0
   44.0994    5.1441    6.4271 C   0  0  0  0  0  0  0  0  0  0  0  0
   43.5346    1.5172    7.7938 N   0  0  0  0  0  0  0  0  0  0  0  0
   36.3808   10.2038    3.1303 O   0  0  0  0  0  0  0  0  0  0  0  0
   37.5459    5.1883   12.1859 C   0  0  2  0  0  0  0  0  0  0  0  0
   38.4608    4.1800   12.6078 O   0  0  0  0  0  0  0  0  0  0  0  0
   37.6386    7.6276    8.1156 C   0  0  2  0  0  0  0  0  0  0  0  0
   36.6021    4.6006   11.1212 C   0  0  2  0  0  0  0  0  0  0  0  0
   35.6755    5.5885   10.6567 O   0  0  0  0  0  0  0  0  0  0  0  0
   38.7958    7.1561    7.1446 C   0  0  2  0  0  0  0  0  0  0  0  0
   39.9116    6.6641    7.9515 O   0  0  0  0  0  0  0  0  0  0  0  0
   35.8320    3.4185   11.6463 C   0  0  0  0  0  0  0  0  0  0  0  0
   35.0530    3.7889   12.7192 O   0  0  0  0  0  0  0  0  0  0  0  0
   39.2533    8.3753    6.2743 C   0  0  1  0  0  0  0  0  0  0  0  0
   40.2820    8.0328    5.3918 O   0  0  0  0  0  0  0  0  0  0  0  0
  1  2  1  6  0  0  0
  1  5  1  0  0  0  0
  1 30  1  0  0  0  0
  3  4  1  1  0  0  0
  3  7  1  0  0  0  0
  3 35  1  0  0  0  0
  5  6  1  6  0  0  0
  5 16  1  0  0  0  0
  7 19  1  0  0  0  0
  8  4  1  0  0  0  0
  8 25  2  0  0  0  0
  9  8  1  1  0  0  0
  9 10  1  0  0  0  0
  9 13  1  0  0  0  0
 10 11  1  0  0  0  0
 11 12  1  0  0  0  0
 14 15  1  0  0  0  0
 14 36  1  0  0  0  0
 15 17  1  0  0  0  0
 16 18  1  1  0  0  0
 16 26  1  0  0  0  0
 17 23  1  0  0  0  0
 19 20  1  1  0  0  0
 19 28  1  0  0  0  0
 21 22  1  0  0  0  0
 21 23  1  0  0  0  0
 22 24  1  0  0  0  0
 26 27  1  6  0  0  0
 26 29  1  0  0  0  0
 28  2  1  6  0  0  0
 28 31  1  0  0  0  0
 29 30  1  0  0  0  0
 29 33  1  1  0  0  0
 31 32  1  1  0  0  0
 31 35  1  0  0  0  0
 33 34  1  0  0  0  0
 35 36  1  6  0  0  0
M  END
>  <CHROM.1>
-70.77876462,-71.12689864,158.47490337,63.26342756,175.16673691,-172.76334651
54.48966810,150.57632468,67.24656006,178.28612536,177.45503208,-72.31432792
60.73019373,169.71418613,38.62837755,7.41869400,7.34685073,1.53873496,-0.51158266
2.20679852

>  <Name>
2f4u_lig

>  <RI>
0

>  <Rbt.Current_Directory>
/home/itssahil/PROJECTS/Mol_Feturizer/New_Systems/rnas/2f4u

>  <Rbt.Executable>
rbdock ($Id: //depot/dev/client3/rdock/2013.1/src/exe/rbdock.cxx#4 $)

>  <Rbt.Library>
libRbt.so (2013.1, Build901 2013/11/27)

>  <Rbt.Parameter_File>
/export/apps/rDock/src/rDock_2013.1_src/data/scripts/dock_solv.prm

>  <Rbt.Receptor>
prm/pocket_docking_5.prm

>  <SCORE>
-23.1254

>  <SCORE.INTER>
-14.5367

>  <SCORE.INTER.CONST>
1

>  <SCORE.INTER.POLAR>
-2.60489

>  <SCORE.INTER.ROT>
14

>  <SCORE.INTER.SOLV>
17.0688

>  <SCORE.INTER.VDW>
-19.6311

>  <SCORE.INTER.norm>
-0.403796

>  <SCORE.INTRA>
-8.5887

>  <SCORE.INTRA.DIHEDRAL>
-22.156

>  <SCORE.INTRA.DIHEDRAL.0>
26.3805

>  <SCORE.INTRA.POLAR>
0

>  <SCORE.INTRA.POLAR.0>
0

>  <SCORE.INTRA.REPUL>
0

>  <SCORE.INTRA.REPUL.0>
0

>  <SCORE.INTRA.SOLV>
3.48378

>  <SCORE.INTRA.SOLV.lig_0>
-98.5587

>  <SCORE.INTRA.VDW>
0.747421

>  <SCORE.INTRA.VDW.0>
-2.91167

>  <SCORE.INTRA.norm>
-0.238575

>  <SCORE.RESTR>
0

>  <SCORE.RESTR.CAVITY>
0

>  <SCORE.RESTR.norm>
0

>  <SCORE.SYSTEM>
0

>  <SCORE.SYSTEM.CONST>
0

>  <SCORE.SYSTEM.DIHEDRAL>
0

>  <SCORE.SYSTEM.SOLV>
0

>  <SCORE.SYSTEM.norm>
0

>  <SCORE.heavy>
36

>  <SCORE.norm>
-0.642371

>  <RMSD>
9.112

$$$$
2f4u_lig
 OpenBabel11021811433D
libRbt.so/2013.1/901 2013/11/27
 36 37  0  0  0  0  0  0  0  0999 V2000
   37.9419    4.0418    7.7889 C   0  0  2  0  0  0  0  0  0  0  0  0
   37.9352    5.3075    8.5477 O   0  0  0  0  0  0  0  0  0  0  0  0
   38.4666    8.4171    5.5572 C   0  0  2  0  0  0  0  0  0  0  0  0
   38.8044    9.7392    4.9632 N   0  0  0  0  0  0  0  0  0  0  0  0
   36.9333    3.0875    8.5003 C   0  0  2  0  0  0  0  0  0  0  0  0
   35.5696    3.6451    8.5610 N   0  0  0  0  0  0  0  0  0  0  0  0
   37.3551    8.5415    6.6582 C   0  0  0  0  0  0  0  0  0  0  0  0
   37.6754   10.1612    3.6462 C   0  0  0  0  0  0  0  0  0  0  0  0
   38.5847   11.3307    3.4337 C   0  0  1  0  0  0  0  0  0  0  0  0
   38.4489   11.7495    1.9655 C   0  0  0  0  0  0  0  0  0  0  0  0
   37.0498   12.2222    1.5292 C   0  0  0  0  0  0  0  0  0  0  0  0
   37.1135   12.6322    0.1250 N   0  0  0  0  0  0  0  0  0  0  0  0
   38.1763   12.4139    4.2238 O   0  0  0  0  0  0  0  0  0  0  0  0
   41.3305    7.3920    3.9201 C   0  0  0  0  0  0  0  0  0  0  0  0
   41.8463    5.9652    4.0336 C   0  0  0  0  0  0  0  0  0  0  0  0
   37.4553    2.7873    9.9446 C   0  0  1  0  0  0  0  0  0  0  0  0
   43.1000    5.8352    4.8033 N   0  0  0  0  0  0  0  0  0  0  0  0
   36.5606    1.9252   10.6430 O   0  0  0  0  0  0  0  0  0  0  0  0
   37.0519    7.1750    7.3058 C   0  0  2  0  0  0  0  0  0  0  0  0
   36.0524    7.2984    8.3594 N   0  0  0  0  0  0  0  0  0  0  0  0
   45.5846    5.8939    4.9563 C   0  0  0  0  0  0  0  0  0  0  0  0
   45.8983    4.4919    4.3528 C   0  0  0  0  0  0  0  0  0  0  0  0
   44.3188    6.5532    4.3490 C   0  0  0  0  0  0  0  0  0  0  0  0
   44.8223    3.5013    4.6567 N   0  0  0  0  0  0  0  0  0  0  0  0
   36.7997    9.7182    3.2008 O   0  0  0  0  0  0  0  0  0  0  0  0
   38.8611    2.1650    9.8284 C   0  0  2  0  0  0  0  0  0  0  0  0
   39.4304    1.8618   11.0995 O   0  0  0  0  0  0  0  0  0  0  0  0
   38.3106    6.5865    7.9112 C   0  0  2  0  0  0  0  0  0  0  0  0
   39.8125    3.0987    9.0585 C   0  0  2  0  0  0  0  0  0  0  0  0
   39.2686    3.4427    7.7794 O   0  0  0  0  0  0  0  0  0  0  0  0
   39.4161    6.4166    6.7916 C   0  0  2  0  0  0  0  0  0  0  0  0
   40.6229    5.8653    7.4062 O   0  0  0  0  0  0  0  0  0  0  0  0
   41.1690    2.4768    8.8603 C   0  0  0  0  0  0  0  0  0  0  0  0
   42.0834    3.4292    8.4704 O   0  0  0  0  0  0  0  0  0  0  0  0
   39.7203    7.8195    6.1650 C   0  0  1  0  0  0  0  0  0  0  0  0
   40.6963    7.7473    5.1668 O   0  0  0  0  0  0  0  0  0  0  0  0
  1  2  1  1  0  0  0
  1  5  1  0  0  0  0
  1 30  1  0  0  0  0
  3  4  1  1  0  0  0
  3  7  1  0  0  0  0
  3 35  1  0  0  0  0
  5  6  1  1  0  0  0
  5 16  1  0  0  0  0
  7 19  1  0  0  0  0
  8  4  1  0  0  0  0
  8 25  2  0  0  0  0
  9  8  1  6  0  0  0
  9 10  1  0  0  0  0
  9 13  1  0  0  0  0
 10 11  1  0  0  0  0
 11 12  1  0  0  0  0
 14 15  1  0  0  0  0
 14 36  1  0  0  0  0
 15 17  1  0  0  0  0
 16 18  1  6  0  0  0
 16 26  1  0  0  0  0
 17 23  1  0  0  0  0
 19 20  1  1  0  0  0
 19 28  1  0  0  0  0
 21 22  1  0  0  0  0
 21 23  1  0  0  0  0
 22 24  1  0  0  0  0
 26 27  1  1  0  0  0
 26 29  1  0  0  0  0
 28  2  1  6  0  0  0
 28 31  1  0  0  0  0
 29 30  1  0  0  0  0
 29 33  1  6  0  0  0
 31 32  1  1  0  0  0
 31 35  1  0  0  0  0
 33 34  1  0  0  0  0
 35 36  1  6  0  0  0
M  END
>  <CHROM.1>
-154.92194318,-84.52121444,154.07085802,62.22181466,177.70995491,-77.68645802
-79.01499732,-59.68809158,-159.42532851,-64.00558474,70.54202418,88.37169749
-165.43862303,-57.83936700,39.46798701,6.44123289,6.26156149,1.47343002,-0.34402745
2.44869083

>  <Name>
2f4u_lig

>  <RI>
0

>  <Rbt.Current_Directory>
/home/itssahil/PROJECTS/Mol_Feturizer/New_Systems/rnas/2f4u

>  <Rbt.Executable>
rbdock ($Id: //depot/dev/client3/rdock/2013.1/src/exe/rbdock.cxx#4 $)

>  <Rbt.Library>
libRbt.so (2013.1, Build901 2013/11/27)

>  <Rbt.Parameter_File>
/export/apps/rDock/src/rDock_2013.1_src/data/scripts/dock_solv.prm

>  <Rbt.Receptor>
prm/pocket_docking_6.prm

>  <SCORE>
-15.2506

>  <SCORE.INTER>
-9.59041

>  <SCORE.INTER.CONST>
1

>  <SCORE.INTER.POLAR>
-0.961671

>  <SCORE.INTER.ROT>
14

>  <SCORE.INTER.SOLV>
9.02008

>  <SCORE.INTER.VDW>
-19.1281

>  <SCORE.INTER.norm>
-0.2664

>  <SCORE.INTRA>
-5.66019

>  <SCORE.INTRA.DIHEDRAL>
-14.274

>  <SCORE.INTRA.DIHEDRAL.0>
26.3805

>  <SCORE.INTRA.POLAR>
0

>  <SCORE.INTRA.POLAR.0>
0

>  <SCORE.INTRA.REPUL>
0

>  <SCORE.INTRA.REPUL.0>
0

>  <SCORE.INTRA.SOLV>
4.78228

>  <SCORE.INTRA.SOLV.lig_0>
-98.5587

>  <SCORE.INTRA.VDW>
-0.914331

>  <SCORE.INTRA.VDW.0>
-2.91167

>  <SCORE.INTRA.norm>
-0.157227

>  <SCORE.RESTR>
0

>  <SCORE.RESTR.CAVITY>
0

>  <SCORE.RESTR.norm>
0

>  <SCORE.SYSTEM>
0

>  <SCORE.SYSTEM.CONST>
0

>  <SCORE.SYSTEM.DIHEDRAL>
0

>  <SCORE.SYSTEM.SOLV>
0

>  <SCORE.SYSTEM.norm>
0

>  <SCORE.heavy>
36

>  <SCORE.norm>
-0.423628

>  <RMSD>
9.113

$$$$
2f4u_lig
 OpenBabel11021811433D
libRbt.so/2013.1/901 2013/11/27
 36 37  0  0  0  0  0  0  0  0999 V2000
   36.2359    8.4761    9.4525 C   0  0  2  0  0  0  0  0  0  0  0  0
   36.9906    7.8903    8.3278 O   0  0  0  0  0  0  0  0  0  0  0  0
   37.8028    9.0661    4.2225 C   0  0  2  0  0  0  0  0  0  0  0  0
   38.1400    9.9306    3.0590 N   0  0  0  0  0  0  0  0  0  0  0  0
   36.6665    7.6983   10.7346 C   0  0  2  0  0  0  0  0  0  0  0  0
   38.1167    7.7801   10.9886 N   0  0  0  0  0  0  0  0  0  0  0  0
   36.5103    9.5633    4.9609 C   0  0  0  0  0  0  0  0  0  0  0  0
   38.4203   11.6181    3.5700 C   0  0  0  0  0  0  0  0  0  0  0  0
   38.5119   11.8972    2.1026 C   0  0  1  0  0  0  0  0  0  0  0  0
   38.4583   13.4189    1.9265 C   0  0  0  0  0  0  0  0  0  0  0  0
   38.2601   13.9210    0.4843 C   0  0  0  0  0  0  0  0  0  0  0  0
   39.4197   13.5169   -0.3131 N   0  0  0  0  0  0  0  0  0  0  0  0
   39.7428   11.4546    1.5995 O   0  0  0  0  0  0  0  0  0  0  0  0
   40.9642    7.8211    3.6724 C   0  0  0  0  0  0  0  0  0  0  0  0
   41.0699    6.4478    4.3185 C   0  0  0  0  0  0  0  0  0  0  0  0
   36.2308    6.2025   10.5877 C   0  0  1  0  0  0  0  0  0  0  0  0
   41.8196    5.4591    3.5176 N   0  0  0  0  0  0  0  0  0  0  0  0
   36.6123    5.4438   11.7323 O   0  0  0  0  0  0  0  0  0  0  0  0
   36.2012    8.6942    6.1969 C   0  0  2  0  0  0  0  0  0  0  0  0
   35.0269    9.1837    6.9081 N   0  0  0  0  0  0  0  0  0  0  0  0
   42.2587    4.0174    1.5354 C   0  0  0  0  0  0  0  0  0  0  0  0
   43.6217    4.6783    1.1701 C   0  0  0  0  0  0  0  0  0  0  0  0
   41.2671    4.9950    2.2188 C   0  0  0  0  0  0  0  0  0  0  0  0
   44.5563    3.7076    0.5254 N   0  0  0  0  0  0  0  0  0  0  0  0
   38.4390   12.1548    4.5044 O   0  0  0  0  0  0  0  0  0  0  0  0
   34.7049    6.1651   10.3703 C   0  0  2  0  0  0  0  0  0  0  0  0
   34.2083    4.8380   10.2152 O   0  0  0  0  0  0  0  0  0  0  0  0
   37.3752    8.7024    7.1554 C   0  0  2  0  0  0  0  0  0  0  0  0
   34.3052    7.0010    9.1411 C   0  0  2  0  0  0  0  0  0  0  0  0
   34.8008    8.3400    9.2490 O   0  0  0  0  0  0  0  0  0  0  0  0
   38.6685    8.1563    6.4248 C   0  0  2  0  0  0  0  0  0  0  0  0
   39.7872    8.1925    7.3657 O   0  0  0  0  0  0  0  0  0  0  0  0
   32.8119    7.0472    8.9565 C   0  0  0  0  0  0  0  0  0  0  0  0
   32.2109    7.6481   10.0395 O   0  0  0  0  0  0  0  0  0  0  0  0
   38.9722    9.0671    5.1873 C   0  0  1  0  0  0  0  0  0  0  0  0
   40.1100    8.6456    4.4929 O   0  0  0  0  0  0  0  0  0  0  0  0
  1  2  1  6  0  0  0
  1  5  1  0  0  0  0
  1 30  1  0  0  0  0
  3  4  1  6  0  0  0
  3  7  1  0  0  0  0
  3 35  1  0  0  0  0
  5  6  1  6  0  0  0
  5 16  1  0  0  0  0
  7 19  1  0  0  0  0
  8  4  1  0  0  0  0
  8 25  2  0  0  0  0
  9  8  1  1  0  0  0
  9 10  1  0  0  0  0
  9 13  1  0  0  0  0
 10 11  1  0  0  0  0
 11 12  1  0  0  0  0
 14 15  1  0  0  0  0
 14 36  1  0  0  0  0
 15 17  1  0  0  0  0
 16 18  1  1  0  0  0
 16 26  1  0  0  0  0
 17 23  1  0  0  0  0
 19 20  1  1  0  0  0
 19 28  1  0  0  0  0
 21 22  1  0  0  0  0
 21 23  1  0  0  0  0
 22 24  1  0  0  0  0
 26 27  1  6  0  0  0
 26 29  1  0  0  0  0
 28  2  1  1  0  0  0
 28 31  1  0  0  0  0
 29 30  1  0  0  0  0
 29 33  1  1  0  0  0
 31 32  1  1  0  0  0
 31 35  1  0  0  0  0
 33 34  1  0  0  0  0
 35 36  1  6  0  0  0
M  END
>  <CHROM.1>
-149.50927042,59.59238016,167.38155669,-168.45685848,-63.72281181,174.74642693
-57.77644478,-66.40478858,177.29155688,179.49964035,-63.19964214,-85.32252703
62.00651271,-53.74013384,38.02287794,8.28797813,5.77286668,2.45303537,-0.75761324
2.48863807

>  <Name>
2f4u_lig

>  <RI>
0

>  <Rbt.Current_Directory>
/home/itssahil/PROJECTS/Mol_Feturizer/New_Systems/rnas/2f4u

>  <Rbt.Executable>
rbdock ($Id: //depot/dev/client3/rdock/2013.1/src/exe/rbdock.cxx#4 $)

>  <Rbt.Library>
libRbt.so (2013.1, Build901 2013/11/27)

>  <Rbt.Parameter_File>
/export/apps/rDock/src/rDock_2013.1_src/data/scripts/dock_solv.prm

>  <Rbt.Receptor>
prm/pocket_docking_6.prm

>  <SCORE>
-16.2564

>  <SCORE.INTER>
-8.96855

>  <SCORE.INTER.CONST>
1

>  <SCORE.INTER.POLAR>
-1.5964

>  <SCORE.INTER.ROT>
14

>  <SCORE.INTER.SOLV>
14.2039

>  <SCORE.INTER.VDW>
-18.3257

>  <SCORE.INTER.norm>
-0.249126

>  <SCORE.INTRA>
-7.28787

>  <SCORE.INTRA.DIHEDRAL>
-18.1078

>  <SCORE.INTRA.DIHEDRAL.0>
26.3805

>  <SCORE.INTRA.POLAR>
0

>  <SCORE.INTRA.POLAR.0>
0

>  <SCORE.INTRA.REPUL>
0

>  <SCORE.INTRA.REPUL.0>
0

>  <SCORE.INTRA.SOLV>
4.66987

>  <SCORE.INTRA.SOLV.lig_0>
-98.5587

>  <SCORE.INTRA.VDW>
-0.568927

>  <SCORE.INTRA.VDW.0>
-2.91167

>  <SCORE.INTRA.norm>
-0.202441

>  <SCORE.RESTR>
0

>  <SCORE.RESTR.CAVITY>
0

>  <SCORE.RESTR.norm>
0

>  <SCORE.SYSTEM>
0

>  <SCORE.SYSTEM.CONST>
0

>  <SCORE.SYSTEM.DIHEDRAL>
0

>  <SCORE.SYSTEM.SOLV>
0

>  <SCORE.SYSTEM.norm>
0

>  <SCORE.heavy>
36

>  <SCORE.norm>
-0.451567

>  <RMSD>
9.114

$$$$
2f4u_lig
 OpenBabel11021811433D
libRbt.so/2013.1/901 2013/11/27
 36 37  0  0  0  0  0  0  0  0999 V2000
   35.5970    5.6175   10.3824 C   0  0  2  0  0  0  0  0  0  0  0  0
   35.7343    7.0818   10.5042 O   0  0  0  0  0  0  0  0  0  0  0  0
   35.7523    8.3796    6.3556 C   0  0  2  0  0  0  0  0  0  0  0  0
   35.7331    9.2887    5.1776 N   0  0  0  0  0  0  0  0  0  0  0  0
   35.7274    5.0338   11.8234 C   0  0  2  0  0  0  0  0  0  0  0  0
   34.7126    5.5716   12.7482 N   0  0  0  0  0  0  0  0  0  0  0  0
   34.4743    8.5585    7.2489 C   0  0  0  0  0  0  0  0  0  0  0  0
   36.2738    8.4422    3.7016 C   0  0  0  0  0  0  0  0  0  0  0  0
   36.1884    9.7945    3.0663 C   0  0  1  0  0  0  0  0  0  0  0  0
   37.5678   10.4483    3.2053 C   0  0  0  0  0  0  0  0  0  0  0  0
   37.7448   11.8002    2.4895 C   0  0  0  0  0  0  0  0  0  0  0  0
   39.1253   12.2501    2.6784 N   0  0  0  0  0  0  0  0  0  0  0  0
   35.9125    9.6721    1.6976 O   0  0  0  0  0  0  0  0  0  0  0  0
   39.4914    8.4886    5.9377 C   0  0  0  0  0  0  0  0  0  0  0  0
   39.5503    8.0194    4.4917 C   0  0  0  0  0  0  0  0  0  0  0  0
   37.1632    5.3409   12.3644 C   0  0  1  0  0  0  0  0  0  0  0  0
   40.9202    7.8459    3.9678 N   0  0  0  0  0  0  0  0  0  0  0  0
   37.3305    4.8361   13.6867 O   0  0  0  0  0  0  0  0  0  0  0  0
   34.5301    7.6523    8.4956 C   0  0  2  0  0  0  0  0  0  0  0  0
   33.3648    7.8520    9.3480 N   0  0  0  0  0  0  0  0  0  0  0  0
   42.5786    6.0574    4.4689 C   0  0  0  0  0  0  0  0  0  0  0  0
   43.8533    6.9308    4.2678 C   0  0  0  0  0  0  0  0  0  0  0  0
   41.3897    6.4927    3.5729 C   0  0  0  0  0  0  0  0  0  0  0  0
   45.0468    6.3377    4.9426 N   0  0  0  0  0  0  0  0  0  0  0  0
   36.5754    7.4395    3.4466 O   0  0  0  0  0  0  0  0  0  0  0  0
   38.1865    4.7214   11.3916 C   0  0  2  0  0  0  0  0  0  0  0  0
   39.5335    4.9557   11.7946 O   0  0  0  0  0  0  0  0  0  0  0  0
   35.7724    7.9514    9.3108 C   0  0  2  0  0  0  0  0  0  0  0  0
   37.9846    5.2628    9.9649 C   0  0  2  0  0  0  0  0  0  0  0  0
   36.6361    5.0625    9.5270 O   0  0  0  0  0  0  0  0  0  0  0  0
   37.0636    7.7253    8.4243 C   0  0  2  0  0  0  0  0  0  0  0  0
   38.2437    8.0381    9.2291 O   0  0  0  0  0  0  0  0  0  0  0  0
   38.9186    4.6107    8.9807 C   0  0  0  0  0  0  0  0  0  0  0  0
   38.7504    5.1512    7.7258 O   0  0  0  0  0  0  0  0  0  0  0  0
   36.9924    8.6706    7.1775 C   0  0  1  0  0  0  0  0  0  0  0  0
   38.1082    8.5284    6.3474 O   0  0  0  0  0  0  0  0  0  0  0  0
  1  2  1  1  0  0  0
  1  5  1  0  0  0  0
  1 30  1  0  0  0  0
  3  4  1  6  0  0  0
  3  7  1  0  0  0  0
  3 35  1  0  0  0  0
  5  6  1  1  0  0  0
  5 16  1  0  0  0  0
  7 19  1  0  0  0  0
  8  4  1  0  0  0  0
  8 25  2  0  0  0  0
  9  8  1  6  0  0  0
  9 10  1  0  0  0  0
  9 13  1  0  0  0  0
 10 11  1  0  0  0  0
 11 12  1  0  0  0  0
 14 15  1  0  0  0  0
 14 36  1  0  0  0  0
 15 17  1  0  0  0  0
 16 18  1  1  0  0  0
 16 26  1  0  0  0  0
 17 23  1  0  0  0  0
 19 20  1  1  0  0  0
 19 28  1  0  0  0  0
 21 22  1  0  0  0  0
 21 23  1  0  0  0  0
 22 24  1  0  0  0  0
 26 27  1  1  0  0  0
 26 29  1  0  0  0  0
 28  2  1  1  0  0  0
 28 31  1  0  0  0  0
 29 30  1  0  0  0  0
 29 33  1  6  0  0  0
 31 32  1  1  0  0  0
 31 35  1  0  0  0  0
 33 34  1  0  0  0  0
 35 36  1  6  0  0  0
M  END
>  <CHROM.1>
174.88012142,-137.39108059,91.40705168,174.08043883,-177.66876087,-176.14869616
174.07912045,115.66007478,-116.86586453,-169.25587209,-65.79170424,54.72883127
-177.68498916,-177.49360665,37.75970186,7.36999671,7.23126076,1.87462569
-0.33975586,2.08421673

>  <Name>
2f4u_lig

>  <RI>
0

>  <Rbt.Current_Directory>
/home/itssahil/PROJECTS/Mol_Feturizer/New_Systems/rnas/2f4u

>  <Rbt.Executable>
rbdock ($Id: //depot/dev/client3/rdock/2013.1/src/exe/rbdock.cxx#4 $)

>  <Rbt.Library>
libRbt.so (2013.1, Build901 2013/11/27)

>  <Rbt.Parameter_File>
/export/apps/rDock/src/rDock_2013.1_src/data/scripts/dock_solv.prm

>  <Rbt.Receptor>
prm/pocket_docking_4.prm

>  <SCORE>
-21.3398

>  <SCORE.INTER>
-9.28295

>  <SCORE.INTER.CONST>
1

>  <SCORE.INTER.POLAR>
-0.748331

>  <SCORE.INTER.ROT>
14

>  <SCORE.INTER.SOLV>
14.3443

>  <SCORE.INTER.VDW>
-21.409

>  <SCORE.INTER.norm>
-0.25786

>  <SCORE.INTRA>
-12.0569

>  <SCORE.INTRA.DIHEDRAL>
-19.9628

>  <SCORE.INTRA.DIHEDRAL.0>
26.3805

>  <SCORE.INTRA.POLAR>
0

>  <SCORE.INTRA.POLAR.0>
0

>  <SCORE.INTRA.REPUL>
0

>  <SCORE.INTRA.REPUL.0>
0

>  <SCORE.INTRA.SOLV>
1.32061

>  <SCORE.INTRA.SOLV.lig_0>
-98.5587

>  <SCORE.INTRA.VDW>
-2.73577

>  <SCORE.INTRA.VDW.0>
-2.91167

>  <SCORE.INTRA.norm>
-0.334913

>  <SCORE.RESTR>
0

>  <SCORE.RESTR.CAVITY>
0

>  <SCORE.RESTR.norm>
0

>  <SCORE.SYSTEM>
0

>  <SCORE.SYSTEM.CONST>
0

>  <SCORE.SYSTEM.DIHEDRAL>
0

>  <SCORE.SYSTEM.SOLV>
0

>  <SCORE.SYSTEM.norm>
0

>  <SCORE.heavy>
36

>  <SCORE.norm>
-0.592773

>  <RMSD>
9.117

$$$$
2f4u_lig
 OpenBabel11021811433D
libRbt.so/2013.1/901 2013/11/27
 36 37  0  0  0  0  0  0  0  0999 V2000
   42.3120    2.5644    5.8295 C   0  0  2  0  0  0  0  0  0  0  0  0
   41.3647    3.3150    6.6763 O   0  0  0  0  0  0  0  0  0  0  0  0
   37.6882    5.4126    5.6870 C   0  0  2  0  0  0  0  0  0  0  0  0
   36.7817    6.4551    5.1335 N   0  0  0  0  0  0  0  0  0  0  0  0
   43.2832    1.8185    6.7962 C   0  0  2  0  0  0  0  0  0  0  0  0
   42.5794    0.9060    7.7161 N   0  0  0  0  0  0  0  0  0  0  0  0
   38.7052    6.0151    6.7194 C   0  0  0  0  0  0  0  0  0  0  0  0
   37.6971    7.6851    4.2190 C   0  0  0  0  0  0  0  0  0  0  0  0
   36.3809    8.3917    4.1287 C   0  0  1  0  0  0  0  0  0  0  0  0
   36.4986    9.6763    4.9565 C   0  0  0  0  0  0  0  0  0  0  0  0
   36.6957    9.4828    6.4715 C   0  0  0  0  0  0  0  0  0  0  0  0
   35.5132    8.8100    7.0129 N   0  0  0  0  0  0  0  0  0  0  0  0
   36.1185    8.7633    2.8031 O   0  0  0  0  0  0  0  0  0  0  0  0
   36.4195    4.2446    2.6902 C   0  0  0  0  0  0  0  0  0  0  0  0
   36.7614    5.1765    1.5372 C   0  0  0  0  0  0  0  0  0  0  0  0
   44.0979    2.8781    7.6100 C   0  0  1  0  0  0  0  0  0  0  0  0
   37.9048    4.7287    0.7167 N   0  0  0  0  0  0  0  0  0  0  0  0
   44.9952    2.2456    8.5189 O   0  0  0  0  0  0  0  0  0  0  0  0
   39.6753    4.9375    7.2450 C   0  0  2  0  0  0  0  0  0  0  0  0
   40.6483    5.5065    8.1691 N   0  0  0  0  0  0  0  0  0  0  0  0
   40.2214    3.8204    0.6250 C   0  0  0  0  0  0  0  0  0  0  0  0
   41.6716    3.8708    1.1931 C   0  0  0  0  0  0  0  0  0  0  0  0
   39.2889    4.9032    1.2281 C   0  0  0  0  0  0  0  0  0  0  0  0
   42.5610    2.8645    0.5394 N   0  0  0  0  0  0  0  0  0  0  0  0
   38.7268    7.8417    3.9422 O   0  0  0  0  0  0  0  0  0  0  0  0
   44.8509    3.7778    6.6098 C   0  0  2  0  0  0  0  0  0  0  0  0
   45.6206    4.7880    7.2569 O   0  0  0  0  0  0  0  0  0  0  0  0
   40.4286    4.2988    6.0953 C   0  0  2  0  0  0  0  0  0  0  0  0
   43.8722    4.4418    5.6245 C   0  0  2  0  0  0  0  0  0  0  0  0
   43.0655    3.4603    4.9641 O   0  0  0  0  0  0  0  0  0  0  0  0
   39.4051    3.6495    5.0778 C   0  0  2  0  0  0  0  0  0  0  0  0
   40.1571    3.0580    3.9720 O   0  0  0  0  0  0  0  0  0  0  0  0
   44.5917    5.2605    4.5862 C   0  0  0  0  0  0  0  0  0  0  0  0
   45.2312    6.3290    5.1731 O   0  0  0  0  0  0  0  0  0  0  0  0
   38.4460    4.7668    4.5438 C   0  0  1  0  0  0  0  0  0  0  0  0
   37.5132    4.2648    3.6315 O   0  0  0  0  0  0  0  0  0  0  0  0
  1  2  1  1  0  0  0
  1  5  1  0  0  0  0
  1 30  1  0  0  0  0
  3  4  1  6  0  0  0
  3  7  1  0  0  0  0
  3 35  1  0  0  0  0
  5  6  1  1  0  0  0
  5 16  1  0  0  0  0
  7 19  1  0  0  0  0
  8  4  1  0  0  0  0
  8 25  2  0  0  0  0
  9  8  1  6  0  0  0
  9 10  1  0  0  0  0
  9 13  1  0  0  0  0
 10 11  1  0  0  0  0
 11 12  1  0  0  0  0
 14 15  1  0  0  0  0
 14 36  1  0  0  0  0
 15 17  1  0  0  0  0
 16 18  1  1  0  0  0
 16 26  1  0  0  0  0
 17 23  1  0  0  0  0
 19 20  1  1  0  0  0
 19 28  1  0  0  0  0
 21 22  1  0  0  0  0
 21 23  1  0  0  0  0
 22 24  1  0  0  0  0
 26 27  1  1  0  0  0
 26 29  1  0  0  0  0
 28  2  1  1  0  0  0
 28 31  1  0  0  0  0
 29 30  1  0  0  0  0
 29 33  1  6  0  0  0
 31 32  1  6  0  0  0
 31 35  1  0  0  0  0
 33 34  1  0  0  0  0
 35 36  1  6  0  0  0
M  END
>  <CHROM.1>
170.64044415,62.98713131,112.77710517,-65.24430214,-63.10229461,66.21452759
59.16701004,-76.74276229,152.35784467,-176.94234263,-175.79123185,-176.47664414
-65.27050338,58.82979700,40.25213915,5.01300020,4.87195522,-0.09762869,0.56896659
-1.95764210

>  <Name>
2f4u_lig

>  <RI>
0

>  <Rbt.Current_Directory>
/home/itssahil/PROJECTS/Mol_Feturizer/New_Systems/rnas/2f4u

>  <Rbt.Executable>
rbdock ($Id: //depot/dev/client3/rdock/2013.1/src/exe/rbdock.cxx#4 $)

>  <Rbt.Library>
libRbt.so (2013.1, Build901 2013/11/27)

>  <Rbt.Parameter_File>
/export/apps/rDock/src/rDock_2013.1_src/data/scripts/dock_solv.prm

>  <Rbt.Receptor>
prm/pocket_docking_7.prm

>  <SCORE>
-16.4607

>  <SCORE.INTER>
-3.90935

>  <SCORE.INTER.CONST>
1

>  <SCORE.INTER.POLAR>
-1.76621

>  <SCORE.INTER.ROT>
14

>  <SCORE.INTER.SOLV>
12.0863

>  <SCORE.INTER.VDW>
-13.681

>  <SCORE.INTER.norm>
-0.108593

>  <SCORE.INTRA>
-12.5513

>  <SCORE.INTRA.DIHEDRAL>
-22.1884

>  <SCORE.INTRA.DIHEDRAL.0>
26.3805

>  <SCORE.INTRA.POLAR>
0

>  <SCORE.INTRA.POLAR.0>
0

>  <SCORE.INTRA.REPUL>
0

>  <SCORE.INTRA.REPUL.0>
0

>  <SCORE.INTRA.SOLV>
3.94902

>  <SCORE.INTRA.SOLV.lig_0>
-98.5587

>  <SCORE.INTRA.VDW>
-3.43163

>  <SCORE.INTRA.VDW.0>
-2.91167

>  <SCORE.INTRA.norm>
-0.348648

>  <SCORE.RESTR>
0

>  <SCORE.RESTR.CAVITY>
0

>  <SCORE.RESTR.norm>
0

>  <SCORE.SYSTEM>
0

>  <SCORE.SYSTEM.CONST>
0

>  <SCORE.SYSTEM.DIHEDRAL>
0

>  <SCORE.SYSTEM.SOLV>
0

>  <SCORE.SYSTEM.norm>
0

>  <SCORE.heavy>
36

>  <SCORE.norm>
-0.457241

>  <RMSD>
9.123

$$$$
2f4u_lig
 OpenBabel11021811433D
libRbt.so/2013.1/901 2013/11/27
 36 37  0  0  0  0  0  0  0  0999 V2000
   36.6840    6.5002    9.9449 C   0  0  2  0  0  0  0  0  0  0  0  0
   35.8975    6.4931    8.6962 O   0  0  0  0  0  0  0  0  0  0  0  0
   36.3989    8.7933    5.0420 C   0  0  2  0  0  0  0  0  0  0  0  0
   36.3763    9.9514    4.1076 N   0  0  0  0  0  0  0  0  0  0  0  0
   36.5853    5.0634   10.5448 C   0  0  2  0  0  0  0  0  0  0  0  0
   37.0889    4.0275    9.6242 N   0  0  0  0  0  0  0  0  0  0  0  0
   34.9676    8.4652    5.5960 C   0  0  0  0  0  0  0  0  0  0  0  0
   36.2661    9.4079    2.4106 C   0  0  0  0  0  0  0  0  0  0  0  0
   36.4464   10.8572    2.0840 C   0  0  1  0  0  0  0  0  0  0  0  0
   37.9501   11.1498    2.1361 C   0  0  0  0  0  0  0  0  0  0  0  0
   38.3831   12.2680    3.1022 C   0  0  0  0  0  0  0  0  0  0  0  0
   38.1586   11.8105    4.4748 N   0  0  0  0  0  0  0  0  0  0  0  0
   36.0077   11.1197    0.7790 O   0  0  0  0  0  0  0  0  0  0  0  0
   39.7869    9.3065    4.8758 C   0  0  0  0  0  0  0  0  0  0  0  0
   40.4791    8.0038    5.2483 C   0  0  0  0  0  0  0  0  0  0  0  0
   35.0931    4.7726   10.9156 C   0  0  1  0  0  0  0  0  0  0  0  0
   41.8317    7.8526    4.6752 N   0  0  0  0  0  0  0  0  0  0  0  0
   34.9470    3.4634   11.4596 O   0  0  0  0  0  0  0  0  0  0  0  0
   35.0104    7.2998    6.6052 C   0  0  2  0  0  0  0  0  0  0  0  0
   33.6882    7.0253    7.1535 N   0  0  0  0  0  0  0  0  0  0  0  0
   44.1705    7.0004    4.6141 C   0  0  0  0  0  0  0  0  0  0  0  0
   43.9904    5.8863    3.5396 C   0  0  0  0  0  0  0  0  0  0  0  0
   42.9063    7.2223    5.4849 C   0  0  0  0  0  0  0  0  0  0  0  0
   43.7125    4.5555    4.1586 N   0  0  0  0  0  0  0  0  0  0  0  0
   36.1791    8.4623    1.9010 O   0  0  0  0  0  0  0  0  0  0  0  0
   34.6260    5.8519   11.9125 C   0  0  2  0  0  0  0  0  0  0  0  0
   33.2673    5.6788   12.3071 O   0  0  0  0  0  0  0  0  0  0  0  0
   35.9424    7.6298    7.7540 C   0  0  2  0  0  0  0  0  0  0  0  0
   34.8040    7.2610   11.3189 C   0  0  2  0  0  0  0  0  0  0  0  0
   36.1549    7.4703   10.8927 O   0  0  0  0  0  0  0  0  0  0  0  0
   37.3973    7.9143    7.2002 C   0  0  2  0  0  0  0  0  0  0  0  0
   38.2691    8.2471    8.3260 O   0  0  0  0  0  0  0  0  0  0  0  0
   34.4318    8.3356   12.3051 C   0  0  0  0  0  0  0  0  0  0  0  0
   35.1999    8.2324   13.4429 O   0  0  0  0  0  0  0  0  0  0  0  0
   37.3297    9.1135    6.1949 C   0  0  1  0  0  0  0  0  0  0  0  0
   38.5857    9.4261    5.6666 O   0  0  0  0  0  0  0  0  0  0  0  0
  1  2  1  6  0  0  0
  1  5  1  0  0  0  0
  1 30  1  0  0  0  0
  3  4  1  6  0  0  0
  3  7  1  0  0  0  0
  3 35  1  0  0  0  0
  5  6  1  6  0  0  0
  5 16  1  0  0  0  0
  7 19  1  0  0  0  0
  8  4  1  0  0  0  0
  8 25  2  0  0  0  0
  9  8  1  6  0  0  0
  9 10  1  0  0  0  0
  9 13  1  0  0  0  0
 10 11  1  0  0  0  0
 11 12  1  0  0  0  0
 14 15  1  0  0  0  0
 14 36  1  0  0  0  0
 15 17  1  0  0  0  0
 16 18  1  1  0  0  0
 16 26  1  0  0  0  0
 17 23  1  0  0  0  0
 19 20  1  1  0  0  0
 19 28  1  0  0  0  0
 21 22  1  0  0  0  0
 21 23  1  0  0  0  0
 22 24  1  0  0  0  0
 26 27  1  6  0  0  0
 26 29  1  0  0  0  0
 28  2  1  1  0  0  0
 28 31  1  0  0  0  0
 29 30  1  0  0  0  0
 29 33  1  1  0  0  0
 31 32  1  1  0  0  0
 31 35  1  0  0  0  0
 33 34  1  0  0  0  0
 35 36  1  6  0  0  0
M  END
>  <CHROM.1>
-170.30923920,-95.42976548,82.57202973,-123.24382874,68.20227829,-170.69307796
-59.17919163,141.81107275,172.36225071,-61.69420318,-70.20904827,-179.16321586
58.59093821,-49.89499979,37.34908133,7.82765431,6.88267509,-2.09639636,0.37100528
-1.00617922

>  <Name>
2f4u_lig

>  <RI>
0

>  <Rbt.Current_Directory>
/home/itssahil/PROJECTS/Mol_Feturizer/New_Systems/rnas/2f4u

>  <Rbt.Executable>
rbdock ($Id: //depot/dev/client3/rdock/2013.1/src/exe/rbdock.cxx#4 $)

>  <Rbt.Library>
libRbt.so (2013.1, Build901 2013/11/27)

>  <Rbt.Parameter_File>
/export/apps/rDock/src/rDock_2013.1_src/data/scripts/dock_solv.prm

>  <Rbt.Receptor>
prm/pocket_docking_4.prm

>  <SCORE>
-22.9336

>  <SCORE.INTER>
-16.608

>  <SCORE.INTER.CONST>
1

>  <SCORE.INTER.POLAR>
-1.90557

>  <SCORE.INTER.ROT>
14

>  <SCORE.INTER.SOLV>
16.4858

>  <SCORE.INTER.VDW>
-23.1487

>  <SCORE.INTER.norm>
-0.461333

>  <SCORE.INTRA>
-6.32565

>  <SCORE.INTRA.DIHEDRAL>
-16.2571

>  <SCORE.INTRA.DIHEDRAL.0>
26.3805

>  <SCORE.INTRA.POLAR>
0

>  <SCORE.INTRA.POLAR.0>
0

>  <SCORE.INTRA.REPUL>
0.00483816

>  <SCORE.INTRA.REPUL.0>
0

>  <SCORE.INTRA.SOLV>
6.58021

>  <SCORE.INTRA.SOLV.lig_0>
-98.5587

>  <SCORE.INTRA.VDW>
-1.51138

>  <SCORE.INTRA.VDW.0>
-2.91167

>  <SCORE.INTRA.norm>
-0.175712

>  <SCORE.RESTR>
0

>  <SCORE.RESTR.CAVITY>
0

>  <SCORE.RESTR.norm>
0

>  <SCORE.SYSTEM>
0

>  <SCORE.SYSTEM.CONST>
0

>  <SCORE.SYSTEM.DIHEDRAL>
0

>  <SCORE.SYSTEM.SOLV>
0

>  <SCORE.SYSTEM.norm>
0

>  <SCORE.heavy>
36

>  <SCORE.norm>
-0.637046

>  <RMSD>
9.135

$$$$
2f4u_lig
 OpenBabel11021811433D
libRbt.so/2013.1/901 2013/11/27
 36 37  0  0  0  0  0  0  0  0999 V2000
   39.8447    5.4634   11.2209 C   0  0  2  0  0  0  0  0  0  0  0  0
   38.9537    6.5291   10.7226 O   0  0  0  0  0  0  0  0  0  0  0  0
   35.8181    6.0483    7.7507 C   0  0  2  0  0  0  0  0  0  0  0  0
   35.1523    5.9916    6.4209 N   0  0  0  0  0  0  0  0  0  0  0  0
   39.2475    4.9783   12.5781 C   0  0  2  0  0  0  0  0  0  0  0  0
   37.8676    4.4761   12.4447 N   0  0  0  0  0  0  0  0  0  0  0  0
   36.4650    7.4531    8.0175 C   0  0  0  0  0  0  0  0  0  0  0  0
   33.8011    7.1547    6.3268 C   0  0  0  0  0  0  0  0  0  0  0  0
   33.5311    6.5160    5.0006 C   0  0  1  0  0  0  0  0  0  0  0  0
   32.4651    5.4378    5.2256 C   0  0  0  0  0  0  0  0  0  0  0  0
   32.0433    4.6403    3.9777 C   0  0  0  0  0  0  0  0  0  0  0  0
   33.2059    3.9004    3.4828 N   0  0  0  0  0  0  0  0  0  0  0  0
   33.0015    7.4567    4.1068 O   0  0  0  0  0  0  0  0  0  0  0  0
   35.5825    2.7120    6.8160 C   0  0  0  0  0  0  0  0  0  0  0  0
   35.4688    1.4885    7.7131 C   0  0  0  0  0  0  0  0  0  0  0  0
   39.2915    6.1619   13.6008 C   0  0  1  0  0  0  0  0  0  0  0  0
   34.7133    1.7218    8.9605 N   0  0  0  0  0  0  0  0  0  0  0  0
   38.7452    5.7722   14.8581 O   0  0  0  0  0  0  0  0  0  0  0  0
   37.1994    7.4839    9.3733 C   0  0  2  0  0  0  0  0  0  0  0  0
   37.8383    8.7742    9.6002 N   0  0  0  0  0  0  0  0  0  0  0  0
   33.9829    1.0125   11.2328 C   0  0  0  0  0  0  0  0  0  0  0  0
   32.9169   -0.0674   10.8782 C   0  0  0  0  0  0  0  0  0  0  0  0
   35.1565    1.0709   10.2204 C   0  0  0  0  0  0  0  0  0  0  0  0
   32.2790    0.1938    9.5530 N   0  0  0  0  0  0  0  0  0  0  0  0
   33.3729    7.9031    6.9733 O   0  0  0  0  0  0  0  0  0  0  0  0
   40.7564    6.6218   13.7416 C   0  0  2  0  0  0  0  0  0  0  0  0
   40.9016    7.7099   14.6508 O   0  0  0  0  0  0  0  0  0  0  0  0
   38.2676    6.4097    9.4199 C   0  0  2  0  0  0  0  0  0  0  0  0
   41.3388    7.0244   12.3748 C   0  0  2  0  0  0  0  0  0  0  0  0
   41.1969    5.9627   11.4247 O   0  0  0  0  0  0  0  0  0  0  0  0
   37.6090    4.9879    9.1982 C   0  0  2  0  0  0  0  0  0  0  0  0
   38.6629    3.9747    9.2299 O   0  0  0  0  0  0  0  0  0  0  0  0
   42.7935    7.3988   12.4739 C   0  0  0  0  0  0  0  0  0  0  0  0
   43.2347    7.9368   11.2860 O   0  0  0  0  0  0  0  0  0  0  0  0
   36.8884    4.9762    7.8076 C   0  0  1  0  0  0  0  0  0  0  0  0
   36.2850    3.7438    7.5402 O   0  0  0  0  0  0  0  0  0  0  0  0
  1  2  1  1  0  0  0
  1  5  1  0  0  0  0
  1 30  1  0  0  0  0
  3  4  1  6  0  0  0
  3  7  1  0  0  0  0
  3 35  1  0  0  0  0
  5  6  1  6  0  0  0
  5 16  1  0  0  0  0
  7 19  1  0  0  0  0
  8  4  1  0  0  0  0
  8 25  2  0  0  0  0
  9  8  1  1  0  0  0
  9 10  1  0  0  0  0
  9 13  1  0  0  0  0
 10 11  1  0  0  0  0
 11 12  1  0  0  0  0
 14 15  1  0  0  0  0
 14 36  1  0  0  0  0
 15 17  1  0  0  0  0
 16 18  1  1  0  0  0
 16 26  1  0  0  0  0
 17 23  1  0  0  0  0
 19 20  1  6  0  0  0
 19 28  1  0  0  0  0
 21 22  1  0  0  0  0
 21 23  1  0  0  0  0
 22 24  1  0  0  0  0
 26 27  1  1  0  0  0
 26 29  1  0  0  0  0
 28  2  1  1  0  0  0
 28 31  1  0  0  0  0
 29 30  1  0  0  0  0
 29 33  1  1  0  0  0
 31 32  1  6  0  0  0
 31 35  1  0  0  0  0
 33 34  1  0  0  0  0
 35 36  1  1  0  0  0
M  END
>  <CHROM.1>
-120.47143532,-62.80352536,95.32994305,-179.51296447,63.18244513,61.21567527
179.06014608,-142.32126994,-159.06177526,-61.26319399,74.56971345,166.52603360
-171.27686615,63.56080468,36.86322336,5.20826096,9.35873515,0.23253428,0.73051577
2.44955264

>  <Name>
2f4u_lig

>  <RI>
0

>  <Rbt.Current_Directory>
/home/itssahil/PROJECTS/Mol_Feturizer/New_Systems/rnas/2f4u

>  <Rbt.Executable>
rbdock ($Id: //depot/dev/client3/rdock/2013.1/src/exe/rbdock.cxx#4 $)

>  <Rbt.Library>
libRbt.so (2013.1, Build901 2013/11/27)

>  <Rbt.Parameter_File>
/export/apps/rDock/src/rDock_2013.1_src/data/scripts/dock_solv.prm

>  <Rbt.Receptor>
prm/pocket_docking_8.prm

>  <SCORE>
-21.6945

>  <SCORE.INTER>
-15.9985

>  <SCORE.INTER.CONST>
1

>  <SCORE.INTER.POLAR>
-1.72386

>  <SCORE.INTER.ROT>
14

>  <SCORE.INTER.SOLV>
16.2423

>  <SCORE.INTER.VDW>
-23.2669

>  <SCORE.INTER.norm>
-0.444403

>  <SCORE.INTRA>
-5.69601

>  <SCORE.INTRA.DIHEDRAL>
-14.0015

>  <SCORE.INTRA.DIHEDRAL.0>
26.3805

>  <SCORE.INTRA.POLAR>
0

>  <SCORE.INTRA.POLAR.0>
0

>  <SCORE.INTRA.REPUL>
0

>  <SCORE.INTRA.REPUL.0>
0

>  <SCORE.INTRA.SOLV>
5.31481

>  <SCORE.INTRA.SOLV.lig_0>
-98.5587

>  <SCORE.INTRA.VDW>
-1.35267

>  <SCORE.INTRA.VDW.0>
-2.91167

>  <SCORE.INTRA.norm>
-0.158222

>  <SCORE.RESTR>
0

>  <SCORE.RESTR.CAVITY>
0

>  <SCORE.RESTR.norm>
0

>  <SCORE.SYSTEM>
0

>  <SCORE.SYSTEM.CONST>
0

>  <SCORE.SYSTEM.DIHEDRAL>
0

>  <SCORE.SYSTEM.SOLV>
0

>  <SCORE.SYSTEM.norm>
0

>  <SCORE.heavy>
36

>  <SCORE.norm>
-0.602625

>  <RMSD>
9.140

$$$$
2f4u_lig
 OpenBabel11021811433D
libRbt.so/2013.1/901 2013/11/27
 36 37  0  0  0  0  0  0  0  0999 V2000
   37.2879    4.8112    9.0783 C   0  0  2  0  0  0  0  0  0  0  0  0
   38.0503    5.9905    9.5320 O   0  0  0  0  0  0  0  0  0  0  0  0
   38.1226    8.5070    5.9884 C   0  0  2  0  0  0  0  0  0  0  0  0
   38.4220    9.6683    5.1071 N   0  0  0  0  0  0  0  0  0  0  0  0
   36.8878    4.0161   10.3596 C   0  0  2  0  0  0  0  0  0  0  0  0
   36.0838    4.8196   11.2989 N   0  0  0  0  0  0  0  0  0  0  0  0
   37.3180    8.9384    7.2650 C   0  0  0  0  0  0  0  0  0  0  0  0
   37.0393   10.0415    4.0412 C   0  0  0  0  0  0  0  0  0  0  0  0
   37.9715   11.0315    3.4162 C   0  0  1  0  0  0  0  0  0  0  0  0
   37.2424   11.6451    2.2157 C   0  0  0  0  0  0  0  0  0  0  0  0
   38.0996   12.5270    1.2890 C   0  0  0  0  0  0  0  0  0  0  0  0
   37.2754   12.9502    0.1552 N   0  0  0  0  0  0  0  0  0  0  0  0
   38.2545   12.0680    4.3162 O   0  0  0  0  0  0  0  0  0  0  0  0
   40.8070    7.6612    3.9806 C   0  0  0  0  0  0  0  0  0  0  0  0
   41.3537    6.3033    3.5659 C   0  0  0  0  0  0  0  0  0  0  0  0
   38.1888    3.5079   11.0651 C   0  0  1  0  0  0  0  0  0  0  0  0
   42.3879    5.7655    4.4726 N   0  0  0  0  0  0  0  0  0  0  0  0
   37.8772    2.7821   12.2515 O   0  0  0  0  0  0  0  0  0  0  0  0
   37.0611    7.7376    8.1982 C   0  0  2  0  0  0  0  0  0  0  0  0
   36.3537    8.1468    9.4050 N   0  0  0  0  0  0  0  0  0  0  0  0
   44.5622    5.4087    3.3128 C   0  0  0  0  0  0  0  0  0  0  0  0
   45.2803    6.4318    4.2433 C   0  0  0  0  0  0  0  0  0  0  0  0
   43.3344    4.7329    3.9771 C   0  0  0  0  0  0  0  0  0  0  0  0
   44.4638    7.6656    4.4495 N   0  0  0  0  0  0  0  0  0  0  0  0
   36.0406    9.6614    3.9012 O   0  0  0  0  0  0  0  0  0  0  0  0
   38.9715    2.6374   10.0618 C   0  0  2  0  0  0  0  0  0  0  0  0
   40.1857    2.1308   10.6101 O   0  0  0  0  0  0  0  0  0  0  0  0
   38.3723    7.0982    8.6094 C   0  0  2  0  0  0  0  0  0  0  0  0
   39.2874    3.4280    8.7793 C   0  0  2  0  0  0  0  0  0  0  0  0
   38.0933    3.9701    8.2046 O   0  0  0  0  0  0  0  0  0  0  0  0
   39.1627    6.6202    7.3245 C   0  0  2  0  0  0  0  0  0  0  0  0
   40.4290    6.0250    7.7492 O   0  0  0  0  0  0  0  0  0  0  0  0
   39.9793    2.5738    7.7508 C   0  0  0  0  0  0  0  0  0  0  0  0
   40.3272    3.3282    6.6531 O   0  0  0  0  0  0  0  0  0  0  0  0
   39.4287    7.8597    6.4047 C   0  0  1  0  0  0  0  0  0  0  0  0
   40.1309    7.5123    5.2469 O   0  0  0  0  0  0  0  0  0  0  0  0
  1  2  1  1  0  0  0
  1  5  1  0  0  0  0
  1 30  1  0  0  0  0
  3  4  1  6  0  0  0
  3  7  1  0  0  0  0
  3 35  1  0  0  0  0
  5  6  1  1  0  0  0
  5 16  1  0  0  0  0
  7 19  1  0  0  0  0
  8  4  1  0  0  0  0
  8 25  2  0  0  0  0
  9  8  1  1  0  0  0
  9 10  1  0  0  0  0
  9 13  1  0  0  0  0
 10 11  1  0  0  0  0
 11 12  1  0  0  0  0
 14 15  1  0  0  0  0
 14 36  1  0  0  0  0
 15 17  1  0  0  0  0
 16 18  1  1  0  0  0
 16 26  1  0  0  0  0
 17 23  1  0  0  0  0
 19 20  1  1  0  0  0
 19 28  1  0  0  0  0
 21 22  1  0  0  0  0
 21 23  1  0  0  0  0
 22 24  1  0  0  0  0
 26 27  1  1  0  0  0
 26 29  1  0  0  0  0
 28  2  1  1  0  0  0
 28 31  1  0  0  0  0
 29 30  1  0  0  0  0
 29 33  1  6  0  0  0
 31 32  1  1  0  0  0
 31 35  1  0  0  0  0
 33 34  1  0  0  0  0
 35 36  1  6  0  0  0
M  END
>  <CHROM.1>
-168.46379467,-83.20724248,175.26039062,-170.51827534,176.11088251,-64.16883520
177.22794972,-158.46528907,87.37383976,-70.87385455,54.73367879,64.76559331
-176.03839191,58.75331594,39.18667415,6.80495276,6.52100428,1.59402705,-0.53078061
2.35885922

>  <Name>
2f4u_lig

>  <RI>
0

>  <Rbt.Current_Directory>
/home/itssahil/PROJECTS/Mol_Feturizer/New_Systems/rnas/2f4u

>  <Rbt.Executable>
rbdock ($Id: //depot/dev/client3/rdock/2013.1/src/exe/rbdock.cxx#4 $)

>  <Rbt.Library>
libRbt.so (2013.1, Build901 2013/11/27)

>  <Rbt.Parameter_File>
/export/apps/rDock/src/rDock_2013.1_src/data/scripts/dock_solv.prm

>  <Rbt.Receptor>
prm/pocket_docking_5.prm

>  <SCORE>
-19.7481

>  <SCORE.INTER>
-9.64189

>  <SCORE.INTER.CONST>
1

>  <SCORE.INTER.POLAR>
-1.30396

>  <SCORE.INTER.ROT>
14

>  <SCORE.INTER.SOLV>
16.8715

>  <SCORE.INTER.VDW>
-20.6386

>  <SCORE.INTER.norm>
-0.26783

>  <SCORE.INTRA>
-10.1062

>  <SCORE.INTRA.DIHEDRAL>
-22.4755

>  <SCORE.INTRA.DIHEDRAL.0>
26.3805

>  <SCORE.INTRA.POLAR>
0

>  <SCORE.INTRA.POLAR.0>
0

>  <SCORE.INTRA.REPUL>
0

>  <SCORE.INTRA.REPUL.0>
0

>  <SCORE.INTRA.SOLV>
5.51396

>  <SCORE.INTRA.SOLV.lig_0>
-98.5587

>  <SCORE.INTRA.VDW>
-1.62542

>  <SCORE.INTRA.VDW.0>
-2.91167

>  <SCORE.INTRA.norm>
-0.280727

>  <SCORE.RESTR>
0

>  <SCORE.RESTR.CAVITY>
0

>  <SCORE.RESTR.norm>
0

>  <SCORE.SYSTEM>
0

>  <SCORE.SYSTEM.CONST>
0

>  <SCORE.SYSTEM.DIHEDRAL>
0

>  <SCORE.SYSTEM.SOLV>
0

>  <SCORE.SYSTEM.norm>
0

>  <SCORE.heavy>
36

>  <SCORE.norm>
-0.548558

>  <RMSD>
9.146

$$$$
2f4u_lig
 OpenBabel11021811433D
libRbt.so/2013.1/901 2013/11/27
 36 37  0  0  0  0  0  0  0  0999 V2000
   39.9647    4.9851   10.0093 C   0  0  2  0  0  0  0  0  0  0  0  0
   38.8450    5.5549    9.2351 O   0  0  0  0  0  0  0  0  0  0  0  0
   38.6706    8.3163    5.8825 C   0  0  2  0  0  0  0  0  0  0  0  0
   38.8115    9.5765    5.1035 N   0  0  0  0  0  0  0  0  0  0  0  0
   39.5591    3.5235   10.3744 C   0  0  2  0  0  0  0  0  0  0  0  0
   39.2812    2.6970    9.1853 N   0  0  0  0  0  0  0  0  0  0  0  0
   37.7365    8.5050    7.1295 C   0  0  0  0  0  0  0  0  0  0  0  0
   37.3934    9.8464    4.0530 C   0  0  0  0  0  0  0  0  0  0  0  0
   38.1839   11.0020    3.5241 C   0  0  1  0  0  0  0  0  0  0  0  0
   37.3039   11.7194    2.4943 C   0  0  0  0  0  0  0  0  0  0  0  0
   36.8510   10.8712    1.2915 C   0  0  0  0  0  0  0  0  0  0  0  0
   36.2927   11.7650    0.2750 N   0  0  0  0  0  0  0  0  0  0  0  0
   38.4618   11.9123    4.5528 O   0  0  0  0  0  0  0  0  0  0  0  0
   41.3457    7.2331    3.9476 C   0  0  0  0  0  0  0  0  0  0  0  0
   41.7130    5.7672    4.1239 C   0  0  0  0  0  0  0  0  0  0  0  0
   38.3013    3.5661   11.3044 C   0  0  1  0  0  0  0  0  0  0  0  0
   42.7695    5.5253    5.1271 N   0  0  0  0  0  0  0  0  0  0  0  0
   37.8825    2.2507   11.6590 O   0  0  0  0  0  0  0  0  0  0  0  0
   37.6415    7.2091    7.9602 C   0  0  2  0  0  0  0  0  0  0  0  0
   36.8105    7.3979    9.1427 N   0  0  0  0  0  0  0  0  0  0  0  0
   44.1113    4.1368    6.6993 C   0  0  0  0  0  0  0  0  0  0  0  0
   45.4774    4.7959    6.3422 C   0  0  0  0  0  0  0  0  0  0  0  0
   43.1058    4.1319    5.5183 C   0  0  0  0  0  0  0  0  0  0  0  0
   46.1473    4.1049    5.1998 N   0  0  0  0  0  0  0  0  0  0  0  0
   36.4560    9.3477    3.8686 O   0  0  0  0  0  0  0  0  0  0  0  0
   38.6537    4.4004   12.5522 C   0  0  2  0  0  0  0  0  0  0  0  0
   37.5626    4.5069   13.4632 O   0  0  0  0  0  0  0  0  0  0  0  0
   39.0196    6.7696    8.4129 C   0  0  2  0  0  0  0  0  0  0  0  0
   39.1194    5.8126   12.1543 C   0  0  2  0  0  0  0  0  0  0  0  0
   40.2059    5.7505   11.2239 O   0  0  0  0  0  0  0  0  0  0  0  0
   39.9482    6.5332    7.1534 C   0  0  2  0  0  0  0  0  0  0  0  0
   41.2738    6.1285    7.6196 O   0  0  0  0  0  0  0  0  0  0  0  0
   39.5477    6.6192   13.3510 C   0  0  0  0  0  0  0  0  0  0  0  0
   40.6048    6.0105   13.9891 O   0  0  0  0  0  0  0  0  0  0  0  0
   40.0447    7.8677    6.3393 C   0  0  1  0  0  0  0  0  0  0  0  0
   40.8573    7.7349    5.2095 O   0  0  0  0  0  0  0  0  0  0  0  0
  1  2  1  1  0  0  0
  1  5  1  0  0  0  0
  1 30  1  0  0  0  0
  3  4  1  1  0  0  0
  3  7  1  0  0  0  0
  3 35  1  0  0  0  0
  5  6  1  6  0  0  0
  5 16  1  0  0  0  0
  7 19  1  0  0  0  0
  8  4  1  0  0  0  0
  8 25  2  0  0  0  0
  9  8  1  1  0  0  0
  9 10  1  0  0  0  0
  9 13  1  0  0  0  0
 10 11  1  0  0  0  0
 11 12  1  0  0  0  0
 14 15  1  0  0  0  0
 14 36  1  0  0  0  0
 15 17  1  0  0  0  0
 16 18  1  1  0  0  0
 16 26  1  0  0  0  0
 17 23  1  0  0  0  0
 19 20  1  1  0  0  0
 19 28  1  0  0  0  0
 21 22  1  0  0  0  0
 21 23  1  0  0  0  0
 22 24  1  0  0  0  0
 26 27  1  1  0  0  0
 26 29  1  0  0  0  0
 28  2  1  6  0  0  0
 28 31  1  0  0  0  0
 29 30  1  0  0  0  0
 29 33  1  1  0  0  0
 31 32  1  1  0  0  0
 31 35  1  0  0  0  0
 33 34  1  0  0  0  0
 35 36  1  6  0  0  0
M  END
>  <CHROM.1>
-162.88894025,-79.55930931,-177.50913789,-59.72765978,-167.29038280,-60.67562823
-61.85067914,172.51611796,-173.12867431,-58.89527304,-62.77384175,-170.30821722
60.85786711,-64.13822290,39.61479278,6.76424586,7.41493707,1.40071616,-0.55270125
2.07606639

>  <Name>
2f4u_lig

>  <RI>
0

>  <Rbt.Current_Directory>
/home/itssahil/PROJECTS/Mol_Feturizer/New_Systems/rnas/2f4u

>  <Rbt.Executable>
rbdock ($Id: //depot/dev/client3/rdock/2013.1/src/exe/rbdock.cxx#4 $)

>  <Rbt.Library>
libRbt.so (2013.1, Build901 2013/11/27)

>  <Rbt.Parameter_File>
/export/apps/rDock/src/rDock_2013.1_src/data/scripts/dock_solv.prm

>  <Rbt.Receptor>
prm/pocket_docking_5.prm

>  <SCORE>
-24.8

>  <SCORE.INTER>
-14.3274

>  <SCORE.INTER.CONST>
1

>  <SCORE.INTER.POLAR>
-1.38797

>  <SCORE.INTER.ROT>
14

>  <SCORE.INTER.SOLV>
15.2014

>  <SCORE.INTER.VDW>
-22.9255

>  <SCORE.INTER.norm>
-0.397983

>  <SCORE.INTRA>
-10.4865

>  <SCORE.INTRA.DIHEDRAL>
-22.6204

>  <SCORE.INTRA.DIHEDRAL.0>
26.3805

>  <SCORE.INTRA.POLAR>
0

>  <SCORE.INTRA.POLAR.0>
0

>  <SCORE.INTRA.REPUL>
0

>  <SCORE.INTRA.REPUL.0>
0

>  <SCORE.INTRA.SOLV>
2.72853

>  <SCORE.INTRA.SOLV.lig_0>
-98.5587

>  <SCORE.INTRA.VDW>
-0.540532

>  <SCORE.INTRA.VDW.0>
-2.91167

>  <SCORE.INTRA.norm>
-0.291291

>  <SCORE.RESTR>
0.0138643

>  <SCORE.RESTR.CAVITY>
0.0138643

>  <SCORE.RESTR.norm>
0.000385119

>  <SCORE.SYSTEM>
0

>  <SCORE.SYSTEM.CONST>
0

>  <SCORE.SYSTEM.DIHEDRAL>
0

>  <SCORE.SYSTEM.SOLV>
0

>  <SCORE.SYSTEM.norm>
0

>  <SCORE.heavy>
36

>  <SCORE.norm>
-0.688889

>  <RMSD>
9.164

$$$$
2f4u_lig
 OpenBabel11021811433D
libRbt.so/2013.1/901 2013/11/27
 36 37  0  0  0  0  0  0  0  0999 V2000
   38.0248    5.9848   10.2289 C   0  0  2  0  0  0  0  0  0  0  0  0
   36.9996    6.4300    9.2652 O   0  0  0  0  0  0  0  0  0  0  0  0
   37.2057    9.1078    5.8473 C   0  0  2  0  0  0  0  0  0  0  0  0
   37.3452   10.3680    5.0679 N   0  0  0  0  0  0  0  0  0  0  0  0
   37.6097    4.5553   10.6963 C   0  0  2  0  0  0  0  0  0  0  0  0
   37.5040    3.6002    9.5779 N   0  0  0  0  0  0  0  0  0  0  0  0
   36.0003    9.1749    6.8501 C   0  0  0  0  0  0  0  0  0  0  0  0
   37.0686   10.0829    3.3273 C   0  0  0  0  0  0  0  0  0  0  0  0
   37.4847   11.5121    3.1727 C   0  0  1  0  0  0  0  0  0  0  0  0
   39.0114   11.5274    3.0368 C   0  0  0  0  0  0  0  0  0  0  0  0
   39.6704   12.9191    3.0275 C   0  0  0  0  0  0  0  0  0  0  0  0
   41.1215   12.7468    2.9344 N   0  0  0  0  0  0  0  0  0  0  0  0
   36.9482   12.0500    1.9949 O   0  0  0  0  0  0  0  0  0  0  0  0
   40.3712    8.3886    4.5981 C   0  0  0  0  0  0  0  0  0  0  0  0
   40.8909    6.9962    4.9232 C   0  0  0  0  0  0  0  0  0  0  0  0
   36.2434    4.6487   11.4534 C   0  0  1  0  0  0  0  0  0  0  0  0
   42.0172    6.5580    4.0744 N   0  0  0  0  0  0  0  0  0  0  0  0
   35.8132    3.3630   11.8930 O   0  0  0  0  0  0  0  0  0  0  0  0
   35.8985    7.8863    7.6914 C   0  0  2  0  0  0  0  0  0  0  0  0
   34.8070    7.9673    8.6539 N   0  0  0  0  0  0  0  0  0  0  0  0
   44.3344    5.6574    3.9344 C   0  0  0  0  0  0  0  0  0  0  0  0
   45.7413    5.5930    4.6012 C   0  0  0  0  0  0  0  0  0  0  0  0
   43.4119    6.7400    4.5531 C   0  0  0  0  0  0  0  0  0  0  0  0
   46.6215    4.5786    3.9473 N   0  0  0  0  0  0  0  0  0  0  0  0
   36.7960    9.2422    2.7107 O   0  0  0  0  0  0  0  0  0  0  0  0
   36.4152    5.6205   12.6380 C   0  0  2  0  0  0  0  0  0  0  0  0
   35.2152    5.7814   13.3902 O   0  0  0  0  0  0  0  0  0  0  0  0
   37.1873    7.6494    8.4529 C   0  0  2  0  0  0  0  0  0  0  0  0
   36.8952    6.9996   12.1511 C   0  0  2  0  0  0  0  0  0  0  0  0
   38.0922    6.8806   11.3745 O   0  0  0  0  0  0  0  0  0  0  0  0
   38.3967    7.5343    7.4388 C   0  0  2  0  0  0  0  0  0  0  0  0
   39.6271    7.3247    8.2005 O   0  0  0  0  0  0  0  0  0  0  0  0
   37.1495    7.9412   13.2977 C   0  0  0  0  0  0  0  0  0  0  0  0
   38.0896    7.4145   14.1545 O   0  0  0  0  0  0  0  0  0  0  0  0
   38.4911    8.8615    6.6123 C   0  0  1  0  0  0  0  0  0  0  0  0
   39.5455    8.8338    5.6948 O   0  0  0  0  0  0  0  0  0  0  0  0
  1  2  1  6  0  0  0
  1  5  1  0  0  0  0
  1 30  1  0  0  0  0
  3  4  1  1  0  0  0
  3  7  1  0  0  0  0
  3 35  1  0  0  0  0
  5  6  1  6  0  0  0
  5 16  1  0  0  0  0
  7 19  1  0  0  0  0
  8  4  1  0  0  0  0
  8 25  2  0  0  0  0
  9  8  1  6  0  0  0
  9 10  1  0  0  0  0
  9 13  1  0  0  0  0
 10 11  1  0  0  0  0
 11 12  1  0  0  0  0
 14 15  1  0  0  0  0
 14 36  1  0  0  0  0
 15 17  1  0  0  0  0
 16 18  1  1  0  0  0
 16 26  1  0  0  0  0
 17 23  1  0  0  0  0
 19 20  1  1  0  0  0
 19 28  1  0  0  0  0
 21 22  1  0  0  0  0
 21 23  1  0  0  0  0
 22 24  1  0  0  0  0
 26 27  1  6  0  0  0
 26 29  1  0  0  0  0
 28  2  1  6  0  0  0
 28 31  1  0  0  0  0
 29 30  1  0  0  0  0
 29 33  1  1  0  0  0
 31 32  1  1  0  0  0
 31 35  1  0  0  0  0
 33 34  1  0  0  0  0
 35 36  1  6  0  0  0
M  END
>  <CHROM.1>
-169.90225086,-115.80950309,87.50216184,-173.26699420,178.24735037,-164.79840709
-61.32140298,95.42428157,151.87171078,-177.75425952,-168.22368677,-174.18803444
58.28502838,-65.19085361,38.60740329,7.72784887,7.29782009,-2.04636696,0.50775846
-0.93092413

>  <Name>
2f4u_lig

>  <RI>
0

>  <Rbt.Current_Directory>
/home/itssahil/PROJECTS/Mol_Feturizer/New_Systems/rnas/2f4u

>  <Rbt.Executable>
rbdock ($Id: //depot/dev/client3/rdock/2013.1/src/exe/rbdock.cxx#4 $)

>  <Rbt.Library>
libRbt.so (2013.1, Build901 2013/11/27)

>  <Rbt.Parameter_File>
/export/apps/rDock/src/rDock_2013.1_src/data/scripts/dock_solv.prm

>  <Rbt.Receptor>
prm/pocket_docking_5.prm

>  <SCORE>
-24.6219

>  <SCORE.INTER>
-12.5352

>  <SCORE.INTER.CONST>
1

>  <SCORE.INTER.POLAR>
-0.946441

>  <SCORE.INTER.ROT>
14

>  <SCORE.INTER.SOLV>
15.3373

>  <SCORE.INTER.VDW>
-23.2478

>  <SCORE.INTER.norm>
-0.348201

>  <SCORE.INTRA>
-12.0867

>  <SCORE.INTRA.DIHEDRAL>
-19.8946

>  <SCORE.INTRA.DIHEDRAL.0>
26.3805

>  <SCORE.INTRA.POLAR>
0

>  <SCORE.INTRA.POLAR.0>
0

>  <SCORE.INTRA.REPUL>
0

>  <SCORE.INTRA.REPUL.0>
0

>  <SCORE.INTRA.SOLV>
-1.10824

>  <SCORE.INTRA.SOLV.lig_0>
-98.5587

>  <SCORE.INTRA.VDW>
-1.5853

>  <SCORE.INTRA.VDW.0>
-2.91167

>  <SCORE.INTRA.norm>
-0.335742

>  <SCORE.RESTR>
0

>  <SCORE.RESTR.CAVITY>
0

>  <SCORE.RESTR.norm>
0

>  <SCORE.SYSTEM>
0

>  <SCORE.SYSTEM.CONST>
0

>  <SCORE.SYSTEM.DIHEDRAL>
0

>  <SCORE.SYSTEM.SOLV>
0

>  <SCORE.SYSTEM.norm>
0

>  <SCORE.heavy>
36

>  <SCORE.norm>
-0.683943

>  <RMSD>
9.169

$$$$
2f4u_lig
 OpenBabel11021811433D
libRbt.so/2013.1/901 2013/11/27
 36 37  0  0  0  0  0  0  0  0999 V2000
   42.1745    1.9955    4.2065 C   0  0  2  0  0  0  0  0  0  0  0  0
   40.7859    2.2735    4.6215 O   0  0  0  0  0  0  0  0  0  0  0  0
   38.8900    5.6459    6.6033 C   0  0  2  0  0  0  0  0  0  0  0  0
   38.5691    6.6436    7.6600 N   0  0  0  0  0  0  0  0  0  0  0  0
   42.0904    1.1127    2.9229 C   0  0  2  0  0  0  0  0  0  0  0  0
   41.3472    1.7675    1.8307 N   0  0  0  0  0  0  0  0  0  0  0  0
   38.6341    4.1772    7.0936 C   0  0  0  0  0  0  0  0  0  0  0  0
   36.9272    7.3093    7.4403 C   0  0  0  0  0  0  0  0  0  0  0  0
   37.3021    8.2244    8.5635 C   0  0  1  0  0  0  0  0  0  0  0  0
   36.2587    9.3466    8.6013 C   0  0  0  0  0  0  0  0  0  0  0  0
   36.3817   10.3381    9.7731 C   0  0  0  0  0  0  0  0  0  0  0  0
   37.7324   10.9034    9.7652 N   0  0  0  0  0  0  0  0  0  0  0  0
   37.2382    7.5438    9.7871 O   0  0  0  0  0  0  0  0  0  0  0  0
   40.3716    8.3546    5.0630 C   0  0  0  0  0  0  0  0  0  0  0  0
   38.9874    8.9075    5.3680 C   0  0  0  0  0  0  0  0  0  0  0  0
   41.4144   -0.2498    3.2908 C   0  0  1  0  0  0  0  0  0  0  0  0
   38.7206   10.2320    4.7716 N   0  0  0  0  0  0  0  0  0  0  0  0
   41.3035   -1.0915    2.1460 O   0  0  0  0  0  0  0  0  0  0  0  0
   39.0219    3.1491    6.0113 C   0  0  2  0  0  0  0  0  0  0  0  0
   38.8269    1.7841    6.4836 N   0  0  0  0  0  0  0  0  0  0  0  0
   36.9167   10.6690    3.1118 C   0  0  0  0  0  0  0  0  0  0  0  0
   35.9674    9.4903    3.4831 C   0  0  0  0  0  0  0  0  0  0  0  0
   38.4172   10.3367    3.3209 C   0  0  0  0  0  0  0  0  0  0  0  0
   36.2431    8.2734    2.6619 N   0  0  0  0  0  0  0  0  0  0  0  0
   36.1066    7.1467    6.7608 O   0  0  0  0  0  0  0  0  0  0  0  0
   42.2501   -0.9172    4.4014 C   0  0  2  0  0  0  0  0  0  0  0  0
   41.7076   -2.1687    4.8151 O   0  0  0  0  0  0  0  0  0  0  0  0
   40.4776    3.3145    5.6231 C   0  0  2  0  0  0  0  0  0  0  0  0
   42.3753    0.0084    5.6250 C   0  0  2  0  0  0  0  0  0  0  0  0
   42.9017    1.2859    5.2492 O   0  0  0  0  0  0  0  0  0  0  0  0
   40.7260    4.7815    5.0839 C   0  0  2  0  0  0  0  0  0  0  0  0
   42.1394    4.9179    4.7347 O   0  0  0  0  0  0  0  0  0  0  0  0
   43.2560   -0.5875    6.6905 C   0  0  0  0  0  0  0  0  0  0  0  0
   43.2346    0.1920    7.8250 O   0  0  0  0  0  0  0  0  0  0  0  0
   40.3447    5.8041    6.2073 C   0  0  1  0  0  0  0  0  0  0  0  0
   40.5443    7.1269    5.8018 O   0  0  0  0  0  0  0  0  0  0  0  0
  1  2  1  1  0  0  0
  1  5  1  0  0  0  0
  1 30  1  0  0  0  0
  3  4  1  1  0  0  0
  3  7  1  0  0  0  0
  3 35  1  0  0  0  0
  5  6  1  6  0  0  0
  5 16  1  0  0  0  0
  7 19  1  0  0  0  0
  8  4  1  0  0  0  0
  8 25  2  0  0  0  0
  9  8  1  6  0  0  0
  9 10  1  0  0  0  0
  9 13  1  0  0  0  0
 10 11  1  0  0  0  0
 11 12  1  0  0  0  0
 14 15  1  0  0  0  0
 14 36  1  0  0  0  0
 15 17  1  0  0  0  0
 16 18  1  6  0  0  0
 16 26  1  0  0  0  0
 17 23  1  0  0  0  0
 19 20  1  1  0  0  0
 19 28  1  0  0  0  0
 21 22  1  0  0  0  0
 21 23  1  0  0  0  0
 22 24  1  0  0  0  0
 26 27  1  1  0  0  0
 26 29  1  0  0  0  0
 28  2  1  6  0  0  0
 28 31  1  0  0  0  0
 29 30  1  0  0  0  0
 29 33  1  1  0  0  0
 31 32  1  1  0  0  0
 31 35  1  0  0  0  0
 33 34  1  0  0  0  0
 35 36  1  6  0  0  0
M  END
>  <CHROM.1>
-166.62798466,-96.88514100,166.32147488,174.61633552,55.44041746,174.71096313
65.23992611,76.38478447,107.92053179,-59.99140411,-69.81553706,-169.02022886
-173.57889315,-56.50037771,39.65230314,4.91152007,5.65350640,-0.00973107
1.10845720,-1.34321033

>  <Name>
2f4u_lig

>  <RI>
0

>  <Rbt.Current_Directory>
/home/itssahil/PROJECTS/Mol_Feturizer/New_Systems/rnas/2f4u

>  <Rbt.Executable>
rbdock ($Id: //depot/dev/client3/rdock/2013.1/src/exe/rbdock.cxx#4 $)

>  <Rbt.Library>
libRbt.so (2013.1, Build901 2013/11/27)

>  <Rbt.Parameter_File>
/export/apps/rDock/src/rDock_2013.1_src/data/scripts/dock_solv.prm

>  <Rbt.Receptor>
prm/pocket_docking_8.prm

>  <SCORE>
-19.7864

>  <SCORE.INTER>
-9.19229

>  <SCORE.INTER.CONST>
1

>  <SCORE.INTER.POLAR>
-2.85402

>  <SCORE.INTER.ROT>
14

>  <SCORE.INTER.SOLV>
15.7827

>  <SCORE.INTER.VDW>
-14.809

>  <SCORE.INTER.norm>
-0.255341

>  <SCORE.INTRA>
-10.5941

>  <SCORE.INTRA.DIHEDRAL>
-20.8972

>  <SCORE.INTRA.DIHEDRAL.0>
26.3805

>  <SCORE.INTRA.POLAR>
0

>  <SCORE.INTRA.POLAR.0>
0

>  <SCORE.INTRA.REPUL>
0

>  <SCORE.INTRA.REPUL.0>
0

>  <SCORE.INTRA.SOLV>
2.99546

>  <SCORE.INTRA.SOLV.lig_0>
-98.5587

>  <SCORE.INTRA.VDW>
-1.64327

>  <SCORE.INTRA.VDW.0>
-2.91167

>  <SCORE.INTRA.norm>
-0.294282

>  <SCORE.RESTR>
0

>  <SCORE.RESTR.CAVITY>
0

>  <SCORE.RESTR.norm>
0

>  <SCORE.SYSTEM>
0

>  <SCORE.SYSTEM.CONST>
0

>  <SCORE.SYSTEM.DIHEDRAL>
0

>  <SCORE.SYSTEM.SOLV>
0

>  <SCORE.SYSTEM.norm>
0

>  <SCORE.heavy>
36

>  <SCORE.norm>
-0.549623

>  <RMSD>
9.173

$$$$
2f4u_lig
 OpenBabel11021811433D
libRbt.so/2013.1/901 2013/11/27
 36 37  0  0  0  0  0  0  0  0999 V2000
   39.0792    4.9687   10.3857 C   0  0  2  0  0  0  0  0  0  0  0  0
   37.9582    5.8778   10.0779 O   0  0  0  0  0  0  0  0  0  0  0  0
   37.3082    8.5941    6.7470 C   0  0  2  0  0  0  0  0  0  0  0  0
   37.4670    9.7794    5.8612 N   0  0  0  0  0  0  0  0  0  0  0  0
   38.5082    3.8509   11.3122 C   0  0  2  0  0  0  0  0  0  0  0  0
   37.3981    3.1076   10.6881 N   0  0  0  0  0  0  0  0  0  0  0  0
   36.9234    9.0096    8.2107 C   0  0  0  0  0  0  0  0  0  0  0  0
   36.9585    9.4079    4.1906 C   0  0  0  0  0  0  0  0  0  0  0  0
   37.4813   10.7751    3.8791 C   0  0  1  0  0  0  0  0  0  0  0  0
   38.9774   10.6306    3.5787 C   0  0  0  0  0  0  0  0  0  0  0  0
   39.7533   11.9467    3.3859 C   0  0  0  0  0  0  0  0  0  0  0  0
   39.3026   12.5754    2.1428 N   0  0  0  0  0  0  0  0  0  0  0  0
   36.8638   11.2809    2.7270 O   0  0  0  0  0  0  0  0  0  0  0  0
   39.7137    7.0193    4.3227 C   0  0  0  0  0  0  0  0  0  0  0  0
   40.0693    5.5593    4.5603 C   0  0  0  0  0  0  0  0  0  0  0  0
   38.0317    4.5013   12.6533 C   0  0  1  0  0  0  0  0  0  0  0  0
   40.8285    4.9349    3.4582 N   0  0  0  0  0  0  0  0  0  0  0  0
   37.4895    3.5202   13.5335 O   0  0  0  0  0  0  0  0  0  0  0  0
   36.8156    7.7783    9.1332 C   0  0  2  0  0  0  0  0  0  0  0  0
   36.5029    8.1683   10.5023 N   0  0  0  0  0  0  0  0  0  0  0  0
   43.2127    5.1310    4.1491 C   0  0  0  0  0  0  0  0  0  0  0  0
   44.6137    5.7499    3.8621 C   0  0  0  0  0  0  0  0  0  0  0  0
   42.1533    5.4871    3.0737 C   0  0  0  0  0  0  0  0  0  0  0  0
   45.6296    5.3194    4.8690 N   0  0  0  0  0  0  0  0  0  0  0  0
   36.5385    8.5592    3.6761 O   0  0  0  0  0  0  0  0  0  0  0  0
   39.2343    5.2261   13.2903 C   0  0  2  0  0  0  0  0  0  0  0  0
   38.8983    5.8631   14.5204 O   0  0  0  0  0  0  0  0  0  0  0  0
   38.1224    7.0106    9.1442 C   0  0  2  0  0  0  0  0  0  0  0  0
   39.8198    6.2712   12.3236 C   0  0  2  0  0  0  0  0  0  0  0  0
   40.1555    5.6744   11.0661 O   0  0  0  0  0  0  0  0  0  0  0  0
   38.4870    6.5503    7.6746 C   0  0  2  0  0  0  0  0  0  0  0  0
   39.7585    5.8293    7.7127 O   0  0  0  0  0  0  0  0  0  0  0  0
   41.0462    6.9344   12.8914 C   0  0  0  0  0  0  0  0  0  0  0  0
   40.7285    7.6423   14.0285 O   0  0  0  0  0  0  0  0  0  0  0  0
   38.6107    7.8186    6.7640 C   0  0  1  0  0  0  0  0  0  0  0  0
   38.9376    7.4875    5.4457 O   0  0  0  0  0  0  0  0  0  0  0  0
  1  2  1  1  0  0  0
  1  5  1  0  0  0  0
  1 30  1  0  0  0  0
  3  4  1  6  0  0  0
  3  7  1  0  0  0  0
  3 35  1  0  0  0  0
  5  6  1  6  0  0  0
  5 16  1  0  0  0  0
  7 19  1  0  0  0  0
  8  4  1  0  0  0  0
  8 25  2  0  0  0  0
  9  8  1  6  0  0  0
  9 10  1  0  0  0  0
  9 13  1  0  0  0  0
 10 11  1  0  0  0  0
 11 12  1  0  0  0  0
 14 15  1  0  0  0  0
 14 36  1  0  0  0  0
 15 17  1  0  0  0  0
 16 18  1  1  0  0  0
 16 26  1  0  0  0  0
 17 23  1  0  0  0  0
 19 20  1  1  0  0  0
 19 28  1  0  0  0  0
 21 22  1  0  0  0  0
 21 23  1  0  0  0  0
 22 24  1  0  0  0  0
 26 27  1  1  0  0  0
 26 29  1  0  0  0  0
 28  2  1  1  0  0  0
 28 31  1  0  0  0  0
 29 30  1  0  0  0  0
 29 33  1  1  0  0  0
 31 32  1  1  0  0  0
 31 35  1  0  0  0  0
 33 34  1  0  0  0  0
 35 36  1  6  0  0  0
M  END
>  <CHROM.1>
-175.93498533,-146.72949093,87.16764585,-173.35475832,-68.46419970,177.94874501
61.14302480,60.46059614,72.93847247,-176.47398912,-176.47534588,-176.31706653
-63.51486899,169.20554845,39.15661373,7.09846712,7.69225178,-1.64775890,0.66873793
-1.13305912

>  <Name>
2f4u_lig

>  <RI>
0

>  <Rbt.Current_Directory>
/home/itssahil/PROJECTS/Mol_Feturizer/New_Systems/rnas/2f4u

>  <Rbt.Executable>
rbdock ($Id: //depot/dev/client3/rdock/2013.1/src/exe/rbdock.cxx#4 $)

>  <Rbt.Library>
libRbt.so (2013.1, Build901 2013/11/27)

>  <Rbt.Parameter_File>
/export/apps/rDock/src/rDock_2013.1_src/data/scripts/dock_solv.prm

>  <Rbt.Receptor>
prm/pocket_docking_6.prm

>  <SCORE>
-24.878

>  <SCORE.INTER>
-13.3109

>  <SCORE.INTER.CONST>
1

>  <SCORE.INTER.POLAR>
-0.621771

>  <SCORE.INTER.ROT>
14

>  <SCORE.INTER.SOLV>
12.2981

>  <SCORE.INTER.VDW>
-23.834

>  <SCORE.INTER.norm>
-0.369746

>  <SCORE.INTRA>
-11.5671

>  <SCORE.INTRA.DIHEDRAL>
-22.6178

>  <SCORE.INTRA.DIHEDRAL.0>
26.3805

>  <SCORE.INTRA.POLAR>
0

>  <SCORE.INTRA.POLAR.0>
0

>  <SCORE.INTRA.REPUL>
0

>  <SCORE.INTRA.REPUL.0>
0

>  <SCORE.INTRA.SOLV>
1.1853

>  <SCORE.INTRA.SOLV.lig_0>
-98.5587

>  <SCORE.INTRA.VDW>
-0.850837

>  <SCORE.INTRA.VDW.0>
-2.91167

>  <SCORE.INTRA.norm>
-0.321308

>  <SCORE.RESTR>
0

>  <SCORE.RESTR.CAVITY>
0

>  <SCORE.RESTR.norm>
0

>  <SCORE.SYSTEM>
0

>  <SCORE.SYSTEM.CONST>
0

>  <SCORE.SYSTEM.DIHEDRAL>
0

>  <SCORE.SYSTEM.SOLV>
0

>  <SCORE.SYSTEM.norm>
0

>  <SCORE.heavy>
36

>  <SCORE.norm>
-0.691054

>  <RMSD>
9.198

$$$$
2f4u_lig
 OpenBabel11021811433D
libRbt.so/2013.1/901 2013/11/27
 36 37  0  0  0  0  0  0  0  0999 V2000
   44.8283    5.3753    6.2841 C   0  0  2  0  0  0  0  0  0  0  0  0
   43.5991    4.6090    6.5663 O   0  0  0  0  0  0  0  0  0  0  0  0
   39.4680    5.8825    7.0225 C   0  0  2  0  0  0  0  0  0  0  0  0
   38.2596    6.5122    7.6209 N   0  0  0  0  0  0  0  0  0  0  0  0
   45.0854    5.2606    4.7495 C   0  0  2  0  0  0  0  0  0  0  0  0
   43.9615    5.7744    3.9451 N   0  0  0  0  0  0  0  0  0  0  0  0
   40.0817    4.7892    7.9667 C   0  0  0  0  0  0  0  0  0  0  0  0
   36.8067    5.5133    7.3403 C   0  0  0  0  0  0  0  0  0  0  0  0
   36.0717    6.6636    7.9535 C   0  0  1  0  0  0  0  0  0  0  0  0
   35.0404    7.1422    6.9255 C   0  0  0  0  0  0  0  0  0  0  0  0
   34.2088    8.3729    7.3321 C   0  0  0  0  0  0  0  0  0  0  0  0
   33.3466    8.0019    8.4559 N   0  0  0  0  0  0  0  0  0  0  0  0
   35.3720    6.2419    9.0923 O   0  0  0  0  0  0  0  0  0  0  0  0
   39.2668    8.5155    4.7854 C   0  0  0  0  0  0  0  0  0  0  0  0
   37.9050    7.8589    4.6146 C   0  0  0  0  0  0  0  0  0  0  0  0
   45.3586    3.7613    4.3941 C   0  0  1  0  0  0  0  0  0  0  0  0
   37.1398    8.3483    3.4501 N   0  0  0  0  0  0  0  0  0  0  0  0
   45.5895    3.6006    2.9969 O   0  0  0  0  0  0  0  0  0  0  0  0
   41.3643    4.1823    7.3624 C   0  0  2  0  0  0  0  0  0  0  0  0
   41.9589    3.1998    8.2598 N   0  0  0  0  0  0  0  0  0  0  0  0
   36.7649   10.6410    2.5540 C   0  0  0  0  0  0  0  0  0  0  0  0
   38.2394   11.1009    2.7605 C   0  0  0  0  0  0  0  0  0  0  0  0
   36.3069    9.5718    3.5801 C   0  0  0  0  0  0  0  0  0  0  0  0
   38.4769   11.6036    4.1469 N   0  0  0  0  0  0  0  0  0  0  0  0
   36.5939    4.5623    6.8800 O   0  0  0  0  0  0  0  0  0  0  0  0
   46.5673    3.2829    5.2232 C   0  0  2  0  0  0  0  0  0  0  0  0
   46.8923    1.9173    4.9760 O   0  0  0  0  0  0  0  0  0  0  0  0
   42.3891    5.2676    7.0995 C   0  0  2  0  0  0  0  0  0  0  0  0
   46.3112    3.4768    6.7286 C   0  0  2  0  0  0  0  0  0  0  0  0
   45.9635    4.8352    7.0184 O   0  0  0  0  0  0  0  0  0  0  0  0
   41.7873    6.3458    6.1097 C   0  0  2  0  0  0  0  0  0  0  0  0
   42.7890    7.3879    5.8887 O   0  0  0  0  0  0  0  0  0  0  0  0
   47.5098    3.0935    7.5548 C   0  0  0  0  0  0  0  0  0  0  0  0
   47.2105    3.1580    8.8970 O   0  0  0  0  0  0  0  0  0  0  0  0
   40.4994    6.9608    6.7549 C   0  0  1  0  0  0  0  0  0  0  0  0
   39.9137    7.9296    5.9348 O   0  0  0  0  0  0  0  0  0  0  0  0
  1  2  1  6  0  0  0
  1  5  1  0  0  0  0
  1 30  1  0  0  0  0
  3  4  1  1  0  0  0
  3  7  1  0  0  0  0
  3 35  1  0  0  0  0
  5  6  1  6  0  0  0
  5 16  1  0  0  0  0
  7 19  1  0  0  0  0
  8  4  1  0  0  0  0
  8 25  2  0  0  0  0
  9  8  1  6  0  0  0
  9 10  1  0  0  0  0
  9 13  1  0  0  0  0
 10 11  1  0  0  0  0
 11 12  1  0  0  0  0
 14 15  1  0  0  0  0
 14 36  1  0  0  0  0
 15 17  1  0  0  0  0
 16 18  1  6  0  0  0
 16 26  1  0  0  0  0
 17 23  1  0  0  0  0
 19 20  1  1  0  0  0
 19 28  1  0  0  0  0
 21 22  1  0  0  0  0
 21 23  1  0  0  0  0
 22 24  1  0  0  0  0
 26 27  1  1  0  0  0
 26 29  1  0  0  0  0
 28  2  1  6  0  0  0
 28 31  1  0  0  0  0
 29 30  1  0  0  0  0
 29 33  1  1  0  0  0
 31 32  1  1  0  0  0
 31 35  1  0  0  0  0
 33 34  1  0  0  0  0
 35 36  1  6  0  0  0
M  END
>  <CHROM.1>
-117.15422902,-82.66356158,122.16678324,-177.32784407,-66.79259792,-178.82352604
62.54430052,-85.23973767,121.53656611,-55.53522887,-61.47548109,-176.00005143
-174.40105543,-59.90601890,40.84312820,6.11323263,6.09266512,-0.29538524
0.32605100,-0.84225574

>  <Name>
2f4u_lig

>  <RI>
0

>  <Rbt.Current_Directory>
/home/itssahil/PROJECTS/Mol_Feturizer/New_Systems/rnas/2f4u

>  <Rbt.Executable>
rbdock ($Id: //depot/dev/client3/rdock/2013.1/src/exe/rbdock.cxx#4 $)

>  <Rbt.Library>
libRbt.so (2013.1, Build901 2013/11/27)

>  <Rbt.Parameter_File>
/export/apps/rDock/src/rDock_2013.1_src/data/scripts/dock_solv.prm

>  <Rbt.Receptor>
prm/pocket_docking_4.prm

>  <SCORE>
-14.7672

>  <SCORE.INTER>
-8.60384

>  <SCORE.INTER.CONST>
1

>  <SCORE.INTER.POLAR>
-1.85306

>  <SCORE.INTER.ROT>
14

>  <SCORE.INTER.SOLV>
13.7999

>  <SCORE.INTER.VDW>
-17.0923

>  <SCORE.INTER.norm>
-0.238996

>  <SCORE.INTRA>
-6.16334

>  <SCORE.INTRA.DIHEDRAL>
-14.2111

>  <SCORE.INTRA.DIHEDRAL.0>
26.3805

>  <SCORE.INTRA.POLAR>
0

>  <SCORE.INTRA.POLAR.0>
0

>  <SCORE.INTRA.REPUL>
0

>  <SCORE.INTRA.REPUL.0>
0

>  <SCORE.INTRA.SOLV>
6.25855

>  <SCORE.INTRA.SOLV.lig_0>
-98.5587

>  <SCORE.INTRA.VDW>
-2.18704

>  <SCORE.INTRA.VDW.0>
-2.91167

>  <SCORE.INTRA.norm>
-0.171204

>  <SCORE.RESTR>
0

>  <SCORE.RESTR.CAVITY>
0

>  <SCORE.RESTR.norm>
0

>  <SCORE.SYSTEM>
0

>  <SCORE.SYSTEM.CONST>
0

>  <SCORE.SYSTEM.DIHEDRAL>
0

>  <SCORE.SYSTEM.SOLV>
0

>  <SCORE.SYSTEM.norm>
0

>  <SCORE.heavy>
36

>  <SCORE.norm>
-0.410199

>  <RMSD>
9.207

$$$$
2f4u_lig
 OpenBabel11021811433D
libRbt.so/2013.1/901 2013/11/27
 36 37  0  0  0  0  0  0  0  0999 V2000
   42.8933    5.4569    6.2630 C   0  0  2  0  0  0  0  0  0  0  0  0
   41.9522    5.0258    5.2112 O   0  0  0  0  0  0  0  0  0  0  0  0
   37.7326    5.9483    4.7216 C   0  0  2  0  0  0  0  0  0  0  0  0
   36.2605    5.9045    4.9351 N   0  0  0  0  0  0  0  0  0  0  0  0
   44.2577    4.7662    5.9540 C   0  0  2  0  0  0  0  0  0  0  0  0
   44.7811    5.1135    4.6200 N   0  0  0  0  0  0  0  0  0  0  0  0
   38.3023    4.5452    4.3096 C   0  0  0  0  0  0  0  0  0  0  0  0
   35.4389    7.2040    4.0276 C   0  0  0  0  0  0  0  0  0  0  0  0
   34.2123    6.7348    4.7452 C   0  0  1  0  0  0  0  0  0  0  0  0
   34.1245    7.5240    6.0562 C   0  0  0  0  0  0  0  0  0  0  0  0
   32.9574    7.1492    6.9883 C   0  0  0  0  0  0  0  0  0  0  0  0
   33.1396    5.7650    7.4294 N   0  0  0  0  0  0  0  0  0  0  0  0
   33.0665    7.0304    3.9940 O   0  0  0  0  0  0  0  0  0  0  0  0
   37.5647    8.8256    7.1395 C   0  0  0  0  0  0  0  0  0  0  0  0
   36.7304    9.7756    6.2932 C   0  0  0  0  0  0  0  0  0  0  0  0
   44.0773    3.2164    6.0732 C   0  0  1  0  0  0  0  0  0  0  0  0
   37.5053   10.5254    5.2842 N   0  0  0  0  0  0  0  0  0  0  0  0
   45.2969    2.5361    5.7886 O   0  0  0  0  0  0  0  0  0  0  0  0
   39.8352    4.5887    4.1448 C   0  0  2  0  0  0  0  0  0  0  0  0
   40.3688    3.2753    3.8066 N   0  0  0  0  0  0  0  0  0  0  0  0
   39.1207   10.5952    3.3906 C   0  0  0  0  0  0  0  0  0  0  0  0
   38.8173   12.0855    3.0512 C   0  0  0  0  0  0  0  0  0  0  0  0
   37.9150    9.8532    4.0241 C   0  0  0  0  0  0  0  0  0  0  0  0
   39.9841   12.7581    2.4049 N   0  0  0  0  0  0  0  0  0  0  0  0
   35.7357    7.9831    3.3447 O   0  0  0  0  0  0  0  0  0  0  0  0
   43.5739    2.8986    7.4954 C   0  0  2  0  0  0  0  0  0  0  0  0
   43.3686    1.5034    7.7024 O   0  0  0  0  0  0  0  0  0  0  0  0
   40.4916    5.0521    5.4300 C   0  0  2  0  0  0  0  0  0  0  0  0
   42.2654    3.6518    7.7954 C   0  0  2  0  0  0  0  0  0  0  0  0
   42.4239    5.0588    7.5824 O   0  0  0  0  0  0  0  0  0  0  0  0
   39.9525    6.4877    5.8208 C   0  0  2  0  0  0  0  0  0  0  0  0
   40.5878    6.9010    7.0713 O   0  0  0  0  0  0  0  0  0  0  0  0
   41.7979    3.4222    9.2077 C   0  0  0  0  0  0  0  0  0  0  0  0
   41.2841    2.1524    9.3448 O   0  0  0  0  0  0  0  0  0  0  0  0
   38.3986    6.4119    6.0021 C   0  0  1  0  0  0  0  0  0  0  0  0
   37.8510    7.6488    6.3547 O   0  0  0  0  0  0  0  0  0  0  0  0
  1  2  1  6  0  0  0
  1  5  1  0  0  0  0
  1 30  1  0  0  0  0
  3  4  1  1  0  0  0
  3  7  1  0  0  0  0
  3 35  1  0  0  0  0
  5  6  1  6  0  0  0
  5 16  1  0  0  0  0
  7 19  1  0  0  0  0
  8  4  1  0  0  0  0
  8 25  2  0  0  0  0
  9  8  1  6  0  0  0
  9 10  1  0  0  0  0
  9 13  1  0  0  0  0
 10 11  1  0  0  0  0
 11 12  1  0  0  0  0
 14 15  1  0  0  0  0
 14 36  1  0  0  0  0
 15 17  1  0  0  0  0
 16 18  1  1  0  0  0
 16 26  1  0  0  0  0
 17 23  1  0  0  0  0
 19 20  1  1  0  0  0
 19 28  1  0  0  0  0
 21 22  1  0  0  0  0
 21 23  1  0  0  0  0
 22 24  1  0  0  0  0
 26 27  1  6  0  0  0
 26 29  1  0  0  0  0
 28  2  1  6  0  0  0
 28 31  1  0  0  0  0
 29 30  1  0  0  0  0
 29 33  1  1  0  0  0
 31 32  1  1  0  0  0
 31 35  1  0  0  0  0
 33 34  1  0  0  0  0
 35 36  1  6  0  0  0
M  END
>  <CHROM.1>
156.89445465,-129.47104338,89.66155382,-177.34071941,63.93409362,-77.27185163
174.71368220,78.04378168,-158.57551717,-178.23902985,-59.50245607,178.34972179
-73.63320090,171.48774302,39.29522165,6.24277950,5.68478929,-0.61995635,0.08490767
-0.48018323

>  <Name>
2f4u_lig

>  <RI>
0

>  <Rbt.Current_Directory>
/home/itssahil/PROJECTS/Mol_Feturizer/New_Systems/rnas/2f4u

>  <Rbt.Executable>
rbdock ($Id: //depot/dev/client3/rdock/2013.1/src/exe/rbdock.cxx#4 $)

>  <Rbt.Library>
libRbt.so (2013.1, Build901 2013/11/27)

>  <Rbt.Parameter_File>
/export/apps/rDock/src/rDock_2013.1_src/data/scripts/dock_solv.prm

>  <Rbt.Receptor>
prm/pocket_docking_4.prm

>  <SCORE>
-20.1824

>  <SCORE.INTER>
-9.78257

>  <SCORE.INTER.CONST>
1

>  <SCORE.INTER.POLAR>
-1.87422

>  <SCORE.INTER.ROT>
14

>  <SCORE.INTER.SOLV>
11.8785

>  <SCORE.INTER.VDW>
-17.1671

>  <SCORE.INTER.norm>
-0.271738

>  <SCORE.INTRA>
-10.4111

>  <SCORE.INTRA.DIHEDRAL>
-18.3039

>  <SCORE.INTRA.DIHEDRAL.0>
26.3805

>  <SCORE.INTRA.POLAR>
0

>  <SCORE.INTRA.POLAR.0>
0

>  <SCORE.INTRA.REPUL>
0

>  <SCORE.INTRA.REPUL.0>
0

>  <SCORE.INTRA.SOLV>
2.53384

>  <SCORE.INTRA.SOLV.lig_0>
-98.5587

>  <SCORE.INTRA.VDW>
-2.52609

>  <SCORE.INTRA.VDW.0>
-2.91167

>  <SCORE.INTRA.norm>
-0.289198

>  <SCORE.RESTR>
0.0113168

>  <SCORE.RESTR.CAVITY>
0.0113168

>  <SCORE.RESTR.norm>
0.000314355

>  <SCORE.SYSTEM>
0

>  <SCORE.SYSTEM.CONST>
0

>  <SCORE.SYSTEM.DIHEDRAL>
0

>  <SCORE.SYSTEM.SOLV>
0

>  <SCORE.SYSTEM.norm>
0

>  <SCORE.heavy>
36

>  <SCORE.norm>
-0.560622

>  <RMSD>
9.209

$$$$
2f4u_lig
 OpenBabel11021811433D
libRbt.so/2013.1/901 2013/11/27
 36 37  0  0  0  0  0  0  0  0999 V2000
   44.8318    1.2042    6.6112 C   0  0  2  0  0  0  0  0  0  0  0  0
   43.8081    1.1868    7.6741 O   0  0  0  0  0  0  0  0  0  0  0  0
   40.4981    3.6974    8.9531 C   0  0  2  0  0  0  0  0  0  0  0  0
   39.3633    4.6571    8.8758 N   0  0  0  0  0  0  0  0  0  0  0  0
   45.5146   -0.1986    6.6238 C   0  0  2  0  0  0  0  0  0  0  0  0
   44.5580   -1.2982    6.4002 N   0  0  0  0  0  0  0  0  0  0  0  0
   41.8336    4.3330    8.4280 C   0  0  0  0  0  0  0  0  0  0  0  0
   39.2513    5.3932    7.2531 C   0  0  0  0  0  0  0  0  0  0  0  0
   38.1824    6.2414    7.8677 C   0  0  1  0  0  0  0  0  0  0  0  0
   38.2514    7.6162    7.1936 C   0  0  0  0  0  0  0  0  0  0  0  0
   37.3396    8.7034    7.7918 C   0  0  0  0  0  0  0  0  0  0  0  0
   37.6766    8.8670    9.2073 N   0  0  0  0  0  0  0  0  0  0  0  0
   36.9179    5.6999    7.5994 O   0  0  0  0  0  0  0  0  0  0  0  0
   37.5750    1.8972    9.0270 C   0  0  0  0  0  0  0  0  0  0  0  0
   37.4273    2.7471   10.2803 C   0  0  0  0  0  0  0  0  0  0  0  0
   46.2446   -0.3924    7.9942 C   0  0  1  0  0  0  0  0  0  0  0  0
   36.0802    2.7049   10.8840 N   0  0  0  0  0  0  0  0  0  0  0  0
   46.8777   -1.6676    8.0608 O   0  0  0  0  0  0  0  0  0  0  0  0
   42.9905    3.3135    8.4605 C   0  0  2  0  0  0  0  0  0  0  0  0
   44.2195    3.8904    7.9304 N   0  0  0  0  0  0  0  0  0  0  0  0
   35.0235    4.9400   10.5878 C   0  0  0  0  0  0  0  0  0  0  0  0
   34.2614    6.1200   11.2625 C   0  0  0  0  0  0  0  0  0  0  0  0
   35.5595    3.8966   11.6025 C   0  0  0  0  0  0  0  0  0  0  0  0
   35.1230    6.8549   12.2366 N   0  0  0  0  0  0  0  0  0  0  0  0
   39.7737    5.2925    6.3159 O   0  0  0  0  0  0  0  0  0  0  0  0
   47.2643    0.7518    8.1623 C   0  0  2  0  0  0  0  0  0  0  0  0
   47.9793    0.6692    9.3926 O   0  0  0  0  0  0  0  0  0  0  0  0
   42.6423    2.0929    7.6322 C   0  0  2  0  0  0  0  0  0  0  0  0
   46.5702    2.1228    8.0724 C   0  0  2  0  0  0  0  0  0  0  0  0
   45.8245    2.2407    6.8558 O   0  0  0  0  0  0  0  0  0  0  0  0
   41.3213    1.4240    8.1908 C   0  0  2  0  0  0  0  0  0  0  0  0
   40.9999    0.2621    7.3633 O   0  0  0  0  0  0  0  0  0  0  0  0
   47.5572    3.2567    8.1511 C   0  0  0  0  0  0  0  0  0  0  0  0
   48.0276    3.3977    9.4371 O   0  0  0  0  0  0  0  0  0  0  0  0
   40.1589    2.4718    8.1279 C   0  0  1  0  0  0  0  0  0  0  0  0
   38.9536    1.9468    8.6032 O   0  0  0  0  0  0  0  0  0  0  0  0
  1  2  1  1  0  0  0
  1  5  1  0  0  0  0
  1 30  1  0  0  0  0
  3  4  1  6  0  0  0
  3  7  1  0  0  0  0
  3 35  1  0  0  0  0
  5  6  1  1  0  0  0
  5 16  1  0  0  0  0
  7 19  1  0  0  0  0
  8  4  1  0  0  0  0
  8 25  2  0  0  0  0
  9  8  1  6  0  0  0
  9 10  1  0  0  0  0
  9 13  1  0  0  0  0
 10 11  1  0  0  0  0
 11 12  1  0  0  0  0
 14 15  1  0  0  0  0
 14 36  1  0  0  0  0
 15 17  1  0  0  0  0
 16 18  1  6  0  0  0
 16 26  1  0  0  0  0
 17 23  1  0  0  0  0
 19 20  1  6  0  0  0
 19 28  1  0  0  0  0
 21 22  1  0  0  0  0
 21 23  1  0  0  0  0
 22 24  1  0  0  0  0
 26 27  1  1  0  0  0
 26 29  1  0  0  0  0
 28  2  1  1  0  0  0
 28 31  1  0  0  0  0
 29 30  1  0  0  0  0
 29 33  1  6  0  0  0
 31 32  1  6  0  0  0
 31 35  1  0  0  0  0
 33 34  1  0  0  0  0
 35 36  1  1  0  0  0
M  END
>  <CHROM.1>
-156.06020704,50.47329603,146.68608862,-173.19790146,57.91330827,-175.64966552
-64.87567040,-148.75914269,80.00763772,58.74012988,171.09159842,-94.94013403
-73.44737989,50.98059564,41.32402157,3.20919987,8.47359440,0.42351173,-0.23496609
3.01750482

>  <Name>
2f4u_lig

>  <RI>
0

>  <Rbt.Current_Directory>
/home/itssahil/PROJECTS/Mol_Feturizer/New_Systems/rnas/2f4u

>  <Rbt.Executable>
rbdock ($Id: //depot/dev/client3/rdock/2013.1/src/exe/rbdock.cxx#4 $)

>  <Rbt.Library>
libRbt.so (2013.1, Build901 2013/11/27)

>  <Rbt.Parameter_File>
/export/apps/rDock/src/rDock_2013.1_src/data/scripts/dock_solv.prm

>  <Rbt.Receptor>
prm/pocket_docking_7.prm

>  <SCORE>
-11.065

>  <SCORE.INTER>
-4.66993

>  <SCORE.INTER.CONST>
1

>  <SCORE.INTER.POLAR>
-2.24204

>  <SCORE.INTER.ROT>
14

>  <SCORE.INTER.SOLV>
14.061

>  <SCORE.INTER.VDW>
-13.2601

>  <SCORE.INTER.norm>
-0.12972

>  <SCORE.INTRA>
-6.39504

>  <SCORE.INTRA.DIHEDRAL>
-15.0144

>  <SCORE.INTRA.DIHEDRAL.0>
26.3805

>  <SCORE.INTRA.POLAR>
0

>  <SCORE.INTRA.POLAR.0>
0

>  <SCORE.INTRA.REPUL>
0

>  <SCORE.INTRA.REPUL.0>
0

>  <SCORE.INTRA.SOLV>
5.14457

>  <SCORE.INTRA.SOLV.lig_0>
-98.5587

>  <SCORE.INTRA.VDW>
-1.46013

>  <SCORE.INTRA.VDW.0>
-2.91167

>  <SCORE.INTRA.norm>
-0.17764

>  <SCORE.RESTR>
0

>  <SCORE.RESTR.CAVITY>
0

>  <SCORE.RESTR.norm>
0

>  <SCORE.SYSTEM>
0

>  <SCORE.SYSTEM.CONST>
0

>  <SCORE.SYSTEM.DIHEDRAL>
0

>  <SCORE.SYSTEM.SOLV>
0

>  <SCORE.SYSTEM.norm>
0

>  <SCORE.heavy>
36

>  <SCORE.norm>
-0.307361

>  <RMSD>
9.216

$$$$
2f4u_lig
 OpenBabel11021811433D
libRbt.so/2013.1/901 2013/11/27
 36 37  0  0  0  0  0  0  0  0999 V2000
   46.5453    3.8527    4.3794 C   0  0  2  0  0  0  0  0  0  0  0  0
   45.6498    3.1725    5.3351 O   0  0  0  0  0  0  0  0  0  0  0  0
   42.2539    4.5711    7.6603 C   0  0  2  0  0  0  0  0  0  0  0  0
   41.4783    5.3190    8.6869 N   0  0  0  0  0  0  0  0  0  0  0  0
   47.4690    2.7528    3.7702 C   0  0  2  0  0  0  0  0  0  0  0  0
   46.7105    1.6839    3.0947 N   0  0  0  0  0  0  0  0  0  0  0  0
   43.3552    3.6623    8.3117 C   0  0  0  0  0  0  0  0  0  0  0  0
   40.7920    4.2126    9.9084 C   0  0  0  0  0  0  0  0  0  0  0  0
   40.1063    5.4380   10.4259 C   0  0  1  0  0  0  0  0  0  0  0  0
   38.6001    5.1547   10.4114 C   0  0  0  0  0  0  0  0  0  0  0  0
   37.6897    6.3459   10.7632 C   0  0  0  0  0  0  0  0  0  0  0  0
   37.9606    7.4334    9.8209 N   0  0  0  0  0  0  0  0  0  0  0  0
   40.4802    5.6797   11.7549 O   0  0  0  0  0  0  0  0  0  0  0  0
   41.2790    7.3999    5.3763 C   0  0  0  0  0  0  0  0  0  0  0  0
   39.7754    7.3358    5.5995 C   0  0  0  0  0  0  0  0  0  0  0  0
   48.3516    2.1461    4.9110 C   0  0  1  0  0  0  0  0  0  0  0  0
   39.0057    8.3250    4.8185 N   0  0  0  0  0  0  0  0  0  0  0  0
   49.2088    1.1252    4.4066 O   0  0  0  0  0  0  0  0  0  0  0  0
   44.1890    2.9345    7.2376 C   0  0  2  0  0  0  0  0  0  0  0  0
   45.2407    2.1262    7.8415 N   0  0  0  0  0  0  0  0  0  0  0  0
   36.7465    9.3676    4.7259 C   0  0  0  0  0  0  0  0  0  0  0  0
   37.2000   10.5393    3.8042 C   0  0  0  0  0  0  0  0  0  0  0  0
   37.5725    8.0710    4.5203 C   0  0  0  0  0  0  0  0  0  0  0  0
   38.4770   11.1555    4.2744 N   0  0  0  0  0  0  0  0  0  0  0  0
   40.8264    3.1535   10.1050 O   0  0  0  0  0  0  0  0  0  0  0  0
   49.1584    3.2910    5.5556 C   0  0  2  0  0  0  0  0  0  0  0  0
   49.9926    2.8390    6.6194 O   0  0  0  0  0  0  0  0  0  0  0  0
   44.8370    3.9366    6.3032 C   0  0  2  0  0  0  0  0  0  0  0  0
   48.2218    4.3936    6.0816 C   0  0  2  0  0  0  0  0  0  0  0  0
   47.3526    4.8644    5.0458 O   0  0  0  0  0  0  0  0  0  0  0  0
   43.7236    4.8221    5.6098 C   0  0  2  0  0  0  0  0  0  0  0  0
   44.3770    5.7899    4.7298 O   0  0  0  0  0  0  0  0  0  0  0  0
   48.9898    5.5609    6.6417 C   0  0  0  0  0  0  0  0  0  0  0  0
   48.1270    6.5123    7.1371 O   0  0  0  0  0  0  0  0  0  0  0  0
   42.9056    5.5654    6.7196 C   0  0  1  0  0  0  0  0  0  0  0  0
   41.9024    6.3745    6.1781 O   0  0  0  0  0  0  0  0  0  0  0  0
  1  2  1  1  0  0  0
  1  5  1  0  0  0  0
  1 30  1  0  0  0  0
  3  4  1  1  0  0  0
  3  7  1  0  0  0  0
  3 35  1  0  0  0  0
  5  6  1  1  0  0  0
  5 16  1  0  0  0  0
  7 19  1  0  0  0  0
  8  4  1  0  0  0  0
  8 25  2  0  0  0  0
  9  8  1  1  0  0  0
  9 10  1  0  0  0  0
  9 13  1  0  0  0  0
 10 11  1  0  0  0  0
 11 12  1  0  0  0  0
 14 15  1  0  0  0  0
 14 36  1  0  0  0  0
 15 17  1  0  0  0  0
 16 18  1  6  0  0  0
 16 26  1  0  0  0  0
 17 23  1  0  0  0  0
 19 20  1  1  0  0  0
 19 28  1  0  0  0  0
 21 22  1  0  0  0  0
 21 23  1  0  0  0  0
 22 24  1  0  0  0  0
 26 27  1  1  0  0  0
 26 29  1  0  0  0  0
 28  2  1  6  0  0  0
 28 31  1  0  0  0  0
 29 30  1  0  0  0  0
 29 33  1  6  0  0  0
 31 32  1  6  0  0  0
 31 35  1  0  0  0  0
 33 34  1  0  0  0  0
 35 36  1  6  0  0  0
M  END
>  <CHROM.1>
166.95354163,-54.19940101,122.70577061,-173.57759629,58.04669232,-179.14433771
177.01076375,156.76291559,137.03501841,-75.31873424,60.35103069,-172.61392214
-178.32851727,-178.21749300,43.27652667,5.19415148,6.62873709,-0.06072139
0.46847822,-1.05656204

>  <Name>
2f4u_lig

>  <RI>
0

>  <Rbt.Current_Directory>
/home/itssahil/PROJECTS/Mol_Feturizer/New_Systems/rnas/2f4u

>  <Rbt.Executable>
rbdock ($Id: //depot/dev/client3/rdock/2013.1/src/exe/rbdock.cxx#4 $)

>  <Rbt.Library>
libRbt.so (2013.1, Build901 2013/11/27)

>  <Rbt.Parameter_File>
/export/apps/rDock/src/rDock_2013.1_src/data/scripts/dock_solv.prm

>  <Rbt.Receptor>
prm/pocket_docking_8.prm

>  <SCORE>
-18.5107

>  <SCORE.INTER>
-8.40727

>  <SCORE.INTER.CONST>
1

>  <SCORE.INTER.POLAR>
-1.72813

>  <SCORE.INTER.ROT>
14

>  <SCORE.INTER.SOLV>
15.9324

>  <SCORE.INTER.VDW>
-18.0885

>  <SCORE.INTER.norm>
-0.233535

>  <SCORE.INTRA>
-10.1034

>  <SCORE.INTRA.DIHEDRAL>
-20.3743

>  <SCORE.INTRA.DIHEDRAL.0>
26.3805

>  <SCORE.INTRA.POLAR>
0

>  <SCORE.INTRA.POLAR.0>
0

>  <SCORE.INTRA.REPUL>
0

>  <SCORE.INTRA.REPUL.0>
0

>  <SCORE.INTRA.SOLV>
2.87274

>  <SCORE.INTRA.SOLV.lig_0>
-98.5587

>  <SCORE.INTRA.VDW>
-1.35265

>  <SCORE.INTRA.VDW.0>
-2.91167

>  <SCORE.INTRA.norm>
-0.28065

>  <SCORE.RESTR>
0

>  <SCORE.RESTR.CAVITY>
0

>  <SCORE.RESTR.norm>
0

>  <SCORE.SYSTEM>
0

>  <SCORE.SYSTEM.CONST>
0

>  <SCORE.SYSTEM.DIHEDRAL>
0

>  <SCORE.SYSTEM.SOLV>
0

>  <SCORE.SYSTEM.norm>
0

>  <SCORE.heavy>
36

>  <SCORE.norm>
-0.514186

>  <RMSD>
9.223

$$$$
2f4u_lig
 OpenBabel11021811433D
libRbt.so/2013.1/901 2013/11/27
 36 37  0  0  0  0  0  0  0  0999 V2000
   43.5049    1.1354    3.8249 C   0  0  2  0  0  0  0  0  0  0  0  0
   42.8607    1.1032    5.1523 O   0  0  0  0  0  0  0  0  0  0  0  0
   41.5642    4.3282    7.7627 C   0  0  2  0  0  0  0  0  0  0  0  0
   41.6407    5.4718    8.7119 N   0  0  0  0  0  0  0  0  0  0  0  0
   43.3388   -0.2895    3.2116 C   0  0  2  0  0  0  0  0  0  0  0  0
   41.9263   -0.6944    3.0894 N   0  0  0  0  0  0  0  0  0  0  0  0
   42.2375    3.0383    8.3511 C   0  0  0  0  0  0  0  0  0  0  0  0
   41.0291    5.0122   10.3250 C   0  0  0  0  0  0  0  0  0  0  0  0
   41.2077    6.4623   10.6489 C   0  0  1  0  0  0  0  0  0  0  0  0
   40.6325    6.6875   12.0517 C   0  0  0  0  0  0  0  0  0  0  0  0
   39.1170    6.4585   12.2003 C   0  0  0  0  0  0  0  0  0  0  0  0
   38.7446    6.6964   13.5963 N   0  0  0  0  0  0  0  0  0  0  0  0
   42.5706    6.7866   10.6917 O   0  0  0  0  0  0  0  0  0  0  0  0
   41.3280    7.2832    5.8557 C   0  0  0  0  0  0  0  0  0  0  0  0
   40.0991    7.4116    4.9680 C   0  0  0  0  0  0  0  0  0  0  0  0
   44.1165   -1.3156    4.1010 C   0  0  1  0  0  0  0  0  0  0  0  0
   39.9430    6.3163    3.9898 N   0  0  0  0  0  0  0  0  0  0  0  0
   43.9868   -2.6389    3.5877 O   0  0  0  0  0  0  0  0  0  0  0  0
   42.2020    1.8756    7.3385 C   0  0  2  0  0  0  0  0  0  0  0  0
   42.8674    0.6919    7.8680 N   0  0  0  0  0  0  0  0  0  0  0  0
   40.5711    4.9450    2.0086 C   0  0  0  0  0  0  0  0  0  0  0  0
   39.1418    4.9695    1.3883 C   0  0  0  0  0  0  0  0  0  0  0  0
   40.8941    6.2048    2.8538 C   0  0  0  0  0  0  0  0  0  0  0  0
   38.0808    4.8131    2.4280 N   0  0  0  0  0  0  0  0  0  0  0  0
   40.6536    4.1141   10.7874 O   0  0  0  0  0  0  0  0  0  0  0  0
   45.5935   -0.8774    4.1616 C   0  0  2  0  0  0  0  0  0  0  0  0
   46.3888   -1.7491    4.9611 O   0  0  0  0  0  0  0  0  0  0  0  0
   42.8952    2.2749    6.0512 C   0  0  2  0  0  0  0  0  0  0  0  0
   45.7180    0.5584    4.7023 C   0  0  2  0  0  0  0  0  0  0  0  0
   44.9184    1.4656    3.9356 O   0  0  0  0  0  0  0  0  0  0  0  0
   42.1867    3.5475    5.4324 C   0  0  2  0  0  0  0  0  0  0  0  0
   42.8861    3.9205    4.2036 O   0  0  0  0  0  0  0  0  0  0  0  0
   47.1447    1.0387    4.6932 C   0  0  0  0  0  0  0  0  0  0  0  0
   47.6228    1.1046    3.4040 O   0  0  0  0  0  0  0  0  0  0  0  0
   42.2545    4.7183    6.4706 C   0  0  1  0  0  0  0  0  0  0  0  0
   41.6496    5.8826    5.9881 O   0  0  0  0  0  0  0  0  0  0  0  0
  1  2  1  1  0  0  0
  1  5  1  0  0  0  0
  1 30  1  0  0  0  0
  3  4  1  1  0  0  0
  3  7  1  0  0  0  0
  3 35  1  0  0  0  0
  5  6  1  1  0  0  0
  5 16  1  0  0  0  0
  7 19  1  0  0  0  0
  8  4  1  0  0  0  0
  8 25  2  0  0  0  0
  9  8  1  1  0  0  0
  9 10  1  0  0  0  0
  9 13  1  0  0  0  0
 10 11  1  0  0  0  0
 11 12  1  0  0  0  0
 14 15  1  0  0  0  0
 14 36  1  0  0  0  0
 15 17  1  0  0  0  0
 16 18  1  6  0  0  0
 16 26  1  0  0  0  0
 17 23  1  0  0  0  0
 19 20  1  1  0  0  0
 19 28  1  0  0  0  0
 21 22  1  0  0  0  0
 21 23  1  0  0  0  0
 22 24  1  0  0  0  0
 26 27  1  1  0  0  0
 26 29  1  0  0  0  0
 28  2  1  6  0  0  0
 28 31  1  0  0  0  0
 29 30  1  0  0  0  0
 29 33  1  6  0  0  0
 31 32  1  6  0  0  0
 31 35  1  0  0  0  0
 33 34  1  0  0  0  0
 35 36  1  6  0  0  0
M  END
>  <CHROM.1>
176.59927970,-51.69356756,173.93345395,-64.55018472,179.16839730,-27.98719091
-168.04159527,-69.35052967,177.23927439,-69.84745582,60.85518592,-177.41418926
63.60608600,78.72871547,42.35653288,3.28161490,6.11434197,0.79538318,0.89845391
-1.71497485

>  <Name>
2f4u_lig

>  <RI>
0

>  <Rbt.Current_Directory>
/home/itssahil/PROJECTS/Mol_Feturizer/New_Systems/rnas/2f4u

>  <Rbt.Executable>
rbdock ($Id: //depot/dev/client3/rdock/2013.1/src/exe/rbdock.cxx#4 $)

>  <Rbt.Library>
libRbt.so (2013.1, Build901 2013/11/27)

>  <Rbt.Parameter_File>
/export/apps/rDock/src/rDock_2013.1_src/data/scripts/dock_solv.prm

>  <Rbt.Receptor>
prm/pocket_docking_8.prm

>  <SCORE>
-9.02358

>  <SCORE.INTER>
-0.406063

>  <SCORE.INTER.CONST>
1

>  <SCORE.INTER.POLAR>
-0.809018

>  <SCORE.INTER.ROT>
14

>  <SCORE.INTER.SOLV>
10.8983

>  <SCORE.INTER.VDW>
-14.1401

>  <SCORE.INTER.norm>
-0.0112795

>  <SCORE.INTRA>
-8.61752

>  <SCORE.INTRA.DIHEDRAL>
-19.5053

>  <SCORE.INTRA.DIHEDRAL.0>
26.3805

>  <SCORE.INTRA.POLAR>
0

>  <SCORE.INTRA.POLAR.0>
0

>  <SCORE.INTRA.REPUL>
0

>  <SCORE.INTRA.REPUL.0>
0

>  <SCORE.INTRA.SOLV>
3.54085

>  <SCORE.INTRA.SOLV.lig_0>
-98.5587

>  <SCORE.INTRA.VDW>
-0.635277

>  <SCORE.INTRA.VDW.0>
-2.91167

>  <SCORE.INTRA.norm>
-0.239376

>  <SCORE.RESTR>
0

>  <SCORE.RESTR.CAVITY>
0

>  <SCORE.RESTR.norm>
0

>  <SCORE.SYSTEM>
0

>  <SCORE.SYSTEM.CONST>
0

>  <SCORE.SYSTEM.DIHEDRAL>
0

>  <SCORE.SYSTEM.SOLV>
0

>  <SCORE.SYSTEM.norm>
0

>  <SCORE.heavy>
36

>  <SCORE.norm>
-0.250655

>  <RMSD>
9.227

$$$$
2f4u_lig
 OpenBabel11021811433D
libRbt.so/2013.1/901 2013/11/27
 36 37  0  0  0  0  0  0  0  0999 V2000
   43.8490    4.4314    6.4574 C   0  0  2  0  0  0  0  0  0  0  0  0
   42.6161    3.8237    6.9946 O   0  0  0  0  0  0  0  0  0  0  0  0
   39.2309    5.3037    9.2849 C   0  0  2  0  0  0  0  0  0  0  0  0
   38.4652    5.9382   10.3921 N   0  0  0  0  0  0  0  0  0  0  0  0
   44.0633    3.8273    5.0350 C   0  0  2  0  0  0  0  0  0  0  0  0
   42.9264    4.0834    4.1317 N   0  0  0  0  0  0  0  0  0  0  0  0
   40.0641    4.0715    9.7858 C   0  0  0  0  0  0  0  0  0  0  0  0
   36.7105    5.6733   10.1963 C   0  0  0  0  0  0  0  0  0  0  0  0
   36.5851    6.5922   11.3709 C   0  0  1  0  0  0  0  0  0  0  0  0
   35.1132    7.0094   11.4648 C   0  0  0  0  0  0  0  0  0  0  0  0
   34.1140    5.8797   11.7754 C   0  0  0  0  0  0  0  0  0  0  0  0
   32.7730    6.4587   11.8768 N   0  0  0  0  0  0  0  0  0  0  0  0
   36.9110    5.9157   12.5544 O   0  0  0  0  0  0  0  0  0  0  0  0
   38.4377    8.1998    7.5113 C   0  0  0  0  0  0  0  0  0  0  0  0
   38.9979    8.4179    6.1137 C   0  0  0  0  0  0  0  0  0  0  0  0
   44.3040    2.2871    5.1717 C   0  0  1  0  0  0  0  0  0  0  0  0
   38.3712    9.5352    5.3789 N   0  0  0  0  0  0  0  0  0  0  0  0
   44.4951    1.6838    3.8946 O   0  0  0  0  0  0  0  0  0  0  0  0
   40.8964    3.4554    8.6429 C   0  0  2  0  0  0  0  0  0  0  0  0
   41.7046    2.3397    9.1185 N   0  0  0  0  0  0  0  0  0  0  0  0
   36.6982    9.5991    3.5358 C   0  0  0  0  0  0  0  0  0  0  0  0
   37.2527   10.9230    2.9291 C   0  0  0  0  0  0  0  0  0  0  0  0
   36.9194    9.4867    5.0668 C   0  0  0  0  0  0  0  0  0  0  0  0
   36.9604   11.0313    1.4682 N   0  0  0  0  0  0  0  0  0  0  0  0
   36.0763    5.1462    9.5026 O   0  0  0  0  0  0  0  0  0  0  0  0
   45.5268    2.0705    6.0854 C   0  0  2  0  0  0  0  0  0  0  0  0
   45.8242    0.6902    6.2808 O   0  0  0  0  0  0  0  0  0  0  0  0
   41.8246    4.4944    8.0461 C   0  0  2  0  0  0  0  0  0  0  0  0
   45.3139    2.7403    7.4549 C   0  0  2  0  0  0  0  0  0  0  0  0
   44.9949    4.1278    7.3025 O   0  0  0  0  0  0  0  0  0  0  0  0
   40.9812    5.7161    7.4979 C   0  0  2  0  0  0  0  0  0  0  0  0
   41.9016    6.7090    6.9455 O   0  0  0  0  0  0  0  0  0  0  0  0
   46.5281    2.6130    8.3357 C   0  0  0  0  0  0  0  0  0  0  0  0
   47.6158    3.2178    7.7472 O   0  0  0  0  0  0  0  0  0  0  0  0
   40.1623    6.3359    8.6804 C   0  0  1  0  0  0  0  0  0  0  0  0
   39.3933    7.4286    8.2695 O   0  0  0  0  0  0  0  0  0  0  0  0
  1  2  1  1  0  0  0
  1  5  1  0  0  0  0
  1 30  1  0  0  0  0
  3  4  1  1  0  0  0
  3  7  1  0  0  0  0
  3 35  1  0  0  0  0
  5  6  1  6  0  0  0
  5 16  1  0  0  0  0
  7 19  1  0  0  0  0
  8  4  1  0  0  0  0
  8 25  2  0  0  0  0
  9  8  1  6  0  0  0
  9 10  1  0  0  0  0
  9 13  1  0  0  0  0
 10 11  1  0  0  0  0
 11 12  1  0  0  0  0
 14 15  1  0  0  0  0
 14 36  1  0  0  0  0
 15 17  1  0  0  0  0
 16 18  1  6  0  0  0
 16 26  1  0  0  0  0
 17 23  1  0  0  0  0
 19 20  1  1  0  0  0
 19 28  1  0  0  0  0
 21 22  1  0  0  0  0
 21 23  1  0  0  0  0
 22 24  1  0  0  0  0
 26 27  1  1  0  0  0
 26 29  1  0  0  0  0
 28  2  1  6  0  0  0
 28 31  1  0  0  0  0
 29 30  1  0  0  0  0
 29 33  1  1  0  0  0
 31 32  1  1  0  0  0
 31 35  1  0  0  0  0
 33 34  1  0  0  0  0
 35 36  1  6  0  0  0
M  END
>  <CHROM.1>
-156.27164550,-110.72946318,166.50521551,64.76499120,177.95441920,-160.77860333
-69.65000565,-61.87459848,-122.31541454,-177.01618202,-60.11660947,-163.66059076
60.45727319,-67.97020748,40.44717713,5.46315887,7.55803922,-0.07681216,0.53613246
-1.01145829

>  <Name>
2f4u_lig

>  <RI>
0

>  <Rbt.Current_Directory>
/home/itssahil/PROJECTS/Mol_Feturizer/New_Systems/rnas/2f4u

>  <Rbt.Executable>
rbdock ($Id: //depot/dev/client3/rdock/2013.1/src/exe/rbdock.cxx#4 $)

>  <Rbt.Library>
libRbt.so (2013.1, Build901 2013/11/27)

>  <Rbt.Parameter_File>
/export/apps/rDock/src/rDock_2013.1_src/data/scripts/dock_solv.prm

>  <Rbt.Receptor>
prm/pocket_docking_3.prm

>  <SCORE>
-13.7087

>  <SCORE.INTER>
-5.00572

>  <SCORE.INTER.CONST>
1

>  <SCORE.INTER.POLAR>
-1.9568

>  <SCORE.INTER.ROT>
14

>  <SCORE.INTER.SOLV>
14.6854

>  <SCORE.INTER.VDW>
-14.6429

>  <SCORE.INTER.norm>
-0.139048

>  <SCORE.INTRA>
-8.70793

>  <SCORE.INTRA.DIHEDRAL>
-17.2463

>  <SCORE.INTRA.DIHEDRAL.0>
26.3805

>  <SCORE.INTRA.POLAR>
0

>  <SCORE.INTRA.POLAR.0>
0

>  <SCORE.INTRA.REPUL>
0

>  <SCORE.INTRA.REPUL.0>
0

>  <SCORE.INTRA.SOLV>
0.370316

>  <SCORE.INTRA.SOLV.lig_0>
-98.5587

>  <SCORE.INTRA.VDW>
-0.269919

>  <SCORE.INTRA.VDW.0>
-2.91167

>  <SCORE.INTRA.norm>
-0.241887

>  <SCORE.RESTR>
0.00498305

>  <SCORE.RESTR.CAVITY>
0.00498305

>  <SCORE.RESTR.norm>
0.000138418

>  <SCORE.SYSTEM>
0

>  <SCORE.SYSTEM.CONST>
0

>  <SCORE.SYSTEM.DIHEDRAL>
0

>  <SCORE.SYSTEM.SOLV>
0

>  <SCORE.SYSTEM.norm>
0

>  <SCORE.heavy>
36

>  <SCORE.norm>
-0.380796

>  <RMSD>
9.267

$$$$
2f4u_lig
 OpenBabel11021811433D
libRbt.so/2013.1/901 2013/11/27
 36 37  0  0  0  0  0  0  0  0999 V2000
   38.2450    5.6495   10.3873 C   0  0  2  0  0  0  0  0  0  0  0  0
   37.3793    6.1397    9.2973 O   0  0  0  0  0  0  0  0  0  0  0  0
   38.1693    8.5729    5.7829 C   0  0  2  0  0  0  0  0  0  0  0  0
   38.5326    9.7573    4.9583 N   0  0  0  0  0  0  0  0  0  0  0  0
   37.6387    4.2940   10.8660 C   0  0  2  0  0  0  0  0  0  0  0  0
   37.5559    3.2951    9.7844 N   0  0  0  0  0  0  0  0  0  0  0  0
   36.9268    8.8603    6.6976 C   0  0  0  0  0  0  0  0  0  0  0  0
   37.2134   10.1898    3.8357 C   0  0  0  0  0  0  0  0  0  0  0  0
   38.1924   11.1835    3.2937 C   0  0  1  0  0  0  0  0  0  0  0  0
   37.4657   11.9928    2.2138 C   0  0  0  0  0  0  0  0  0  0  0  0
   38.3517   12.9156    1.3566 C   0  0  0  0  0  0  0  0  0  0  0  0
   37.4934   13.6573    0.4309 N   0  0  0  0  0  0  0  0  0  0  0  0
   38.5866   12.0760    4.2999 O   0  0  0  0  0  0  0  0  0  0  0  0
   41.2514    7.3893    4.7508 C   0  0  0  0  0  0  0  0  0  0  0  0
   41.4732    5.9192    5.0734 C   0  0  0  0  0  0  0  0  0  0  0  0
   36.2162    4.5596   11.4614 C   0  0  1  0  0  0  0  0  0  0  0  0
   42.3478    5.2151    4.1140 N   0  0  0  0  0  0  0  0  0  0  0  0
   35.6125    3.3470   11.9047 O   0  0  0  0  0  0  0  0  0  0  0  0
   36.5928    7.6460    7.5878 C   0  0  2  0  0  0  0  0  0  0  0  0
   35.4673    7.9293    8.4693 N   0  0  0  0  0  0  0  0  0  0  0  0
   42.8913    4.9369    1.7001 C   0  0  0  0  0  0  0  0  0  0  0  0
   44.1021    3.9775    1.9039 C   0  0  0  0  0  0  0  0  0  0  0  0
   41.8042    4.7936    2.7970 C   0  0  0  0  0  0  0  0  0  0  0  0
   43.7241    2.5492    1.6838 N   0  0  0  0  0  0  0  0  0  0  0  0
   36.2175    9.8321    3.6315 O   0  0  0  0  0  0  0  0  0  0  0  0
   36.3590    5.5721   12.6154 C   0  0  2  0  0  0  0  0  0  0  0  0
   35.1083    5.8885   13.2215 O   0  0  0  0  0  0  0  0  0  0  0  0
   37.7865    7.2753    8.4450 C   0  0  2  0  0  0  0  0  0  0  0  0
   37.0264    6.8703   12.1267 C   0  0  2  0  0  0  0  0  0  0  0  0
   38.2810    6.5945   11.4941 O   0  0  0  0  0  0  0  0  0  0  0  0
   39.0270    6.9392    7.5215 C   0  0  2  0  0  0  0  0  0  0  0  0
   40.1667    6.6036    8.3738 O   0  0  0  0  0  0  0  0  0  0  0  0
   37.2518    7.8428   13.2534 C   0  0  0  0  0  0  0  0  0  0  0  0
   38.1072    7.3064   14.1892 O   0  0  0  0  0  0  0  0  0  0  0  0
   39.3580    8.1935    6.6439 C   0  0  1  0  0  0  0  0  0  0  0  0
   40.4517    7.9705    5.8022 O   0  0  0  0  0  0  0  0  0  0  0  0
  1  2  1  6  0  0  0
  1  5  1  0  0  0  0
  1 30  1  0  0  0  0
  3  4  1  1  0  0  0
  3  7  1  0  0  0  0
  3 35  1  0  0  0  0
  5  6  1  6  0  0  0
  5 16  1  0  0  0  0
  7 19  1  0  0  0  0
  8  4  1  0  0  0  0
  8 25  2  0  0  0  0
  9  8  1  1  0  0  0
  9 10  1  0  0  0  0
  9 13  1  0  0  0  0
 10 11  1  0  0  0  0
 11 12  1  0  0  0  0
 14 15  1  0  0  0  0
 14 36  1  0  0  0  0
 15 17  1  0  0  0  0
 16 18  1  1  0  0  0
 16 26  1  0  0  0  0
 17 23  1  0  0  0  0
 19 20  1  1  0  0  0
 19 28  1  0  0  0  0
 21 22  1  0  0  0  0
 21 23  1  0  0  0  0
 22 24  1  0  0  0  0
 26 27  1  6  0  0  0
 26 29  1  0  0  0  0
 28  2  1  6  0  0  0
 28 31  1  0  0  0  0
 29 30  1  0  0  0  0
 29 33  1  1  0  0  0
 31 32  1  1  0  0  0
 31 35  1  0  0  0  0
 33 34  1  0  0  0  0
 35 36  1  6  0  0  0
M  END
>  <CHROM.1>
-168.84240675,-62.75670857,-176.53620386,-170.11353910,-177.14124307,-176.61346633
-62.30120449,-77.66113821,143.99995666,68.75500451,65.21355884,-171.39912304
62.21478627,-59.32199834,38.56238311,7.32160587,7.04752215,-2.04115886,0.84964879
-0.88411978

>  <Name>
2f4u_lig

>  <RI>
0

>  <Rbt.Current_Directory>
/home/itssahil/PROJECTS/Mol_Feturizer/New_Systems/rnas/2f4u

>  <Rbt.Executable>
rbdock ($Id: //depot/dev/client3/rdock/2013.1/src/exe/rbdock.cxx#4 $)

>  <Rbt.Library>
libRbt.so (2013.1, Build901 2013/11/27)

>  <Rbt.Parameter_File>
/export/apps/rDock/src/rDock_2013.1_src/data/scripts/dock_solv.prm

>  <Rbt.Receptor>
prm/pocket_docking_5.prm

>  <SCORE>
-22.0968

>  <SCORE.INTER>
-11.1129

>  <SCORE.INTER.CONST>
1

>  <SCORE.INTER.POLAR>
-1.5266

>  <SCORE.INTER.ROT>
14

>  <SCORE.INTER.SOLV>
10.252

>  <SCORE.INTER.VDW>
-18.6706

>  <SCORE.INTER.norm>
-0.308691

>  <SCORE.INTRA>
-10.9911

>  <SCORE.INTRA.DIHEDRAL>
-22.6856

>  <SCORE.INTRA.DIHEDRAL.0>
26.3805

>  <SCORE.INTRA.POLAR>
0

>  <SCORE.INTRA.POLAR.0>
0

>  <SCORE.INTRA.REPUL>
0

>  <SCORE.INTRA.REPUL.0>
0

>  <SCORE.INTRA.SOLV>
0.387517

>  <SCORE.INTRA.SOLV.lig_0>
-98.5587

>  <SCORE.INTRA.VDW>
0.157919

>  <SCORE.INTRA.VDW.0>
-2.91167

>  <SCORE.INTRA.norm>
-0.30531

>  <SCORE.RESTR>
0.00718897

>  <SCORE.RESTR.CAVITY>
0.00718897

>  <SCORE.RESTR.norm>
0.000199694

>  <SCORE.SYSTEM>
0

>  <SCORE.SYSTEM.CONST>
0

>  <SCORE.SYSTEM.DIHEDRAL>
0

>  <SCORE.SYSTEM.SOLV>
0

>  <SCORE.SYSTEM.norm>
0

>  <SCORE.heavy>
36

>  <SCORE.norm>
-0.613801

>  <RMSD>
9.283

$$$$
2f4u_lig
 OpenBabel11021811433D
libRbt.so/2013.1/901 2013/11/27
 36 37  0  0  0  0  0  0  0  0999 V2000
   44.9172    4.0051    6.1600 C   0  0  2  0  0  0  0  0  0  0  0  0
   43.6564    3.3203    6.5056 O   0  0  0  0  0  0  0  0  0  0  0  0
   39.7677    4.8282    7.7302 C   0  0  2  0  0  0  0  0  0  0  0  0
   38.7220    5.4721    8.5708 N   0  0  0  0  0  0  0  0  0  0  0  0
   45.5273    3.2356    4.9476 C   0  0  2  0  0  0  0  0  0  0  0  0
   44.6233    3.2013    3.7832 N   0  0  0  0  0  0  0  0  0  0  0  0
   40.4160    3.5948    8.4523 C   0  0  0  0  0  0  0  0  0  0  0  0
   39.3071    5.7366   10.2366 C   0  0  0  0  0  0  0  0  0  0  0  0
   37.9017    6.1729   10.5090 C   0  0  1  0  0  0  0  0  0  0  0  0
   37.1139    4.9272   10.9297 C   0  0  0  0  0  0  0  0  0  0  0  0
   37.5125    4.3059   12.2811 C   0  0  0  0  0  0  0  0  0  0  0  0
   37.0697    5.1993   13.3533 N   0  0  0  0  0  0  0  0  0  0  0  0
   37.8721    7.0760   11.5804 O   0  0  0  0  0  0  0  0  0  0  0  0
   39.3155    8.0482    6.5914 C   0  0  0  0  0  0  0  0  0  0  0  0
   39.6392    8.6968    5.2538 C   0  0  0  0  0  0  0  0  0  0  0  0
   45.8771    1.7787    5.3988 C   0  0  1  0  0  0  0  0  0  0  0  0
   38.7834    9.8532    4.9199 N   0  0  0  0  0  0  0  0  0  0  0  0
   46.4296    1.0280    4.3206 O   0  0  0  0  0  0  0  0  0  0  0  0
   41.5359    2.9688    7.5964 C   0  0  2  0  0  0  0  0  0  0  0  0
   42.1682    1.8517    8.2868 N   0  0  0  0  0  0  0  0  0  0  0  0
   37.7046   11.4332    3.3263 C   0  0  0  0  0  0  0  0  0  0  0  0
   37.2822   11.7175    1.8535 C   0  0  0  0  0  0  0  0  0  0  0  0
   38.2463    9.9959    3.5420 C   0  0  0  0  0  0  0  0  0  0  0  0
   36.2040   10.7910    1.3946 N   0  0  0  0  0  0  0  0  0  0  0  0
   40.2296    5.5789   10.7711 O   0  0  0  0  0  0  0  0  0  0  0  0
   46.8577    1.8649    6.5855 C   0  0  2  0  0  0  0  0  0  0  0  0
   47.2324    0.5809    7.0781 O   0  0  0  0  0  0  0  0  0  0  0  0
   42.6020    4.0002    7.2853 C   0  0  2  0  0  0  0  0  0  0  0  0
   46.2553    2.6913    7.7360 C   0  0  2  0  0  0  0  0  0  0  0  0
   45.8485    3.9857    7.2787 O   0  0  0  0  0  0  0  0  0  0  0  0
   41.9573    5.2230    6.5149 C   0  0  2  0  0  0  0  0  0  0  0  0
   43.0030    6.2086    6.2443 O   0  0  0  0  0  0  0  0  0  0  0  0
   47.2267    2.8592    8.8737 C   0  0  0  0  0  0  0  0  0  0  0  0
   48.1307    3.8584    8.5920 O   0  0  0  0  0  0  0  0  0  0  0  0
   40.8389    5.8528    7.4126 C   0  0  1  0  0  0  0  0  0  0  0  0
   40.2256    6.9470    6.7955 O   0  0  0  0  0  0  0  0  0  0  0  0
  1  2  1  1  0  0  0
  1  5  1  0  0  0  0
  1 30  1  0  0  0  0
  3  4  1  1  0  0  0
  3  7  1  0  0  0  0
  3 35  1  0  0  0  0
  5  6  1  6  0  0  0
  5 16  1  0  0  0  0
  7 19  1  0  0  0  0
  8  4  1  0  0  0  0
  8 25  2  0  0  0  0
  9  8  1  1  0  0  0
  9 10  1  0  0  0  0
  9 13  1  0  0  0  0
 10 11  1  0  0  0  0
 11 12  1  0  0  0  0
 14 15  1  0  0  0  0
 14 36  1  0  0  0  0
 15 17  1  0  0  0  0
 16 18  1  6  0  0  0
 16 26  1  0  0  0  0
 17 23  1  0  0  0  0
 19 20  1  1  0  0  0
 19 28  1  0  0  0  0
 21 22  1  0  0  0  0
 21 23  1  0  0  0  0
 22 24  1  0  0  0  0
 26 27  1  1  0  0  0
 26 29  1  0  0  0  0
 28  2  1  6  0  0  0
 28 31  1  0  0  0  0
 29 30  1  0  0  0  0
 29 33  1  1  0  0  0
 31 32  1  1  0  0  0
 31 35  1  0  0  0  0
 33 34  1  0  0  0  0
 35 36  1  6  0  0  0
M  END
>  <CHROM.1>
-159.61488008,47.79600579,89.71556411,67.44192205,70.97625270,-179.57956583
179.88256696,-136.68668334,-165.24485337,59.91596729,172.97573818,-173.40146062
80.02644061,54.86337265,41.65864279,5.24120404,7.19362992,-0.35494749,0.56046679
-1.04925402

>  <Name>
2f4u_lig

>  <RI>
0

>  <Rbt.Current_Directory>
/home/itssahil/PROJECTS/Mol_Feturizer/New_Systems/rnas/2f4u

>  <Rbt.Executable>
rbdock ($Id: //depot/dev/client3/rdock/2013.1/src/exe/rbdock.cxx#4 $)

>  <Rbt.Library>
libRbt.so (2013.1, Build901 2013/11/27)

>  <Rbt.Parameter_File>
/export/apps/rDock/src/rDock_2013.1_src/data/scripts/dock_solv.prm

>  <Rbt.Receptor>
prm/pocket_docking_3.prm

>  <SCORE>
-16.7222

>  <SCORE.INTER>
-8.85036

>  <SCORE.INTER.CONST>
1

>  <SCORE.INTER.POLAR>
-2.57181

>  <SCORE.INTER.ROT>
14

>  <SCORE.INTER.SOLV>
18.696

>  <SCORE.INTER.VDW>
-16.4929

>  <SCORE.INTER.norm>
-0.245843

>  <SCORE.INTRA>
-8.5536

>  <SCORE.INTRA.DIHEDRAL>
-18.996

>  <SCORE.INTRA.DIHEDRAL.0>
26.3805

>  <SCORE.INTRA.POLAR>
0

>  <SCORE.INTRA.POLAR.0>
0

>  <SCORE.INTRA.REPUL>
0

>  <SCORE.INTRA.REPUL.0>
0

>  <SCORE.INTRA.SOLV>
2.629

>  <SCORE.INTRA.SOLV.lig_0>
-98.5587

>  <SCORE.INTRA.VDW>
-0.370128

>  <SCORE.INTRA.VDW.0>
-2.91167

>  <SCORE.INTRA.norm>
-0.2376

>  <SCORE.RESTR>
0.681741

>  <SCORE.RESTR.CAVITY>
0.681741

>  <SCORE.RESTR.norm>
0.0189372

>  <SCORE.SYSTEM>
0

>  <SCORE.SYSTEM.CONST>
0

>  <SCORE.SYSTEM.DIHEDRAL>
0

>  <SCORE.SYSTEM.SOLV>
0

>  <SCORE.SYSTEM.norm>
0

>  <SCORE.heavy>
36

>  <SCORE.norm>
-0.464506

>  <RMSD>
9.290

$$$$
2f4u_lig
 OpenBabel11021811433D
libRbt.so/2013.1/901 2013/11/27
 36 37  0  0  0  0  0  0  0  0999 V2000
   39.9358    5.4787   10.3287 C   0  0  2  0  0  0  0  0  0  0  0  0
   39.2563    5.5685    9.0218 O   0  0  0  0  0  0  0  0  0  0  0  0
   38.6028    8.4601    5.8427 C   0  0  2  0  0  0  0  0  0  0  0  0
   38.7582    9.6930    5.0238 N   0  0  0  0  0  0  0  0  0  0  0  0
   40.2344    3.9674   10.5756 C   0  0  2  0  0  0  0  0  0  0  0  0
   41.0720    3.3734    9.5173 N   0  0  0  0  0  0  0  0  0  0  0  0
   38.2114    8.7928    7.3257 C   0  0  0  0  0  0  0  0  0  0  0  0
   37.3337    9.9573    3.9806 C   0  0  0  0  0  0  0  0  0  0  0  0
   38.1394   11.0810    3.4078 C   0  0  1  0  0  0  0  0  0  0  0  0
   37.3216   11.6867    2.2617 C   0  0  0  0  0  0  0  0  0  0  0  0
   38.0208   12.7928    1.4499 C   0  0  0  0  0  0  0  0  0  0  0  0
   37.2109   13.0840    0.2654 N   0  0  0  0  0  0  0  0  0  0  0  0
   38.3292   12.0826    4.3696 O   0  0  0  0  0  0  0  0  0  0  0  0
   41.0331    7.0606    3.3407 C   0  0  0  0  0  0  0  0  0  0  0  0
   41.7960    5.7882    3.6779 C   0  0  0  0  0  0  0  0  0  0  0  0
   38.8774    3.1957   10.6828 C   0  0  1  0  0  0  0  0  0  0  0  0
   42.8955    5.9810    4.6449 N   0  0  0  0  0  0  0  0  0  0  0  0
   39.0960    1.8038   10.8983 O   0  0  0  0  0  0  0  0  0  0  0  0
   38.1070    7.5123    8.1789 C   0  0  2  0  0  0  0  0  0  0  0  0
   37.7881    7.8250    9.5662 N   0  0  0  0  0  0  0  0  0  0  0  0
   44.6055    4.9960    6.1633 C   0  0  0  0  0  0  0  0  0  0  0  0
   45.7445    3.9497    6.3533 C   0  0  0  0  0  0  0  0  0  0  0  0
   43.9696    4.9598    4.7490 C   0  0  0  0  0  0  0  0  0  0  0  0
   46.8580    4.1555    5.3791 N   0  0  0  0  0  0  0  0  0  0  0  0
   36.3852    9.4710    3.8217 O   0  0  0  0  0  0  0  0  0  0  0  0
   38.0576    3.8209   11.8292 C   0  0  2  0  0  0  0  0  0  0  0  0
   36.7917    3.1891   12.0023 O   0  0  0  0  0  0  0  0  0  0  0  0
   39.4176    6.7516    8.1522 C   0  0  2  0  0  0  0  0  0  0  0  0
   37.8426    5.3265   11.5920 C   0  0  2  0  0  0  0  0  0  0  0  0
   39.0920    5.9977   11.3955 O   0  0  0  0  0  0  0  0  0  0  0  0
   39.7891    6.3743    6.6608 C   0  0  2  0  0  0  0  0  0  0  0  0
   41.0642    5.6587    6.6635 O   0  0  0  0  0  0  0  0  0  0  0  0
   37.1153    5.9761   12.7389 C   0  0  0  0  0  0  0  0  0  0  0  0
   35.7819    5.6344   12.7194 O   0  0  0  0  0  0  0  0  0  0  0  0
   39.9092    7.6913    5.8215 C   0  0  1  0  0  0  0  0  0  0  0  0
   40.2418    7.4346    4.4881 O   0  0  0  0  0  0  0  0  0  0  0  0
  1  2  1  6  0  0  0
  1  5  1  0  0  0  0
  1 30  1  0  0  0  0
  3  4  1  6  0  0  0
  3  7  1  0  0  0  0
  3 35  1  0  0  0  0
  5  6  1  6  0  0  0
  5 16  1  0  0  0  0
  7 19  1  0  0  0  0
  8  4  1  0  0  0  0
  8 25  2  0  0  0  0
  9  8  1  1  0  0  0
  9 10  1  0  0  0  0
  9 13  1  0  0  0  0
 10 11  1  0  0  0  0
 11 12  1  0  0  0  0
 14 15  1  0  0  0  0
 14 36  1  0  0  0  0
 15 17  1  0  0  0  0
 16 18  1  1  0  0  0
 16 26  1  0  0  0  0
 17 23  1  0  0  0  0
 19 20  1  1  0  0  0
 19 28  1  0  0  0  0
 21 22  1  0  0  0  0
 21 23  1  0  0  0  0
 22 24  1  0  0  0  0
 26 27  1  6  0  0  0
 26 29  1  0  0  0  0
 28  2  1  1  0  0  0
 28 31  1  0  0  0  0
 29 30  1  0  0  0  0
 29 33  1  1  0  0  0
 31 32  1  1  0  0  0
 31 35  1  0  0  0  0
 33 34  1  0  0  0  0
 35 36  1  6  0  0  0
M  END
>  <CHROM.1>
-148.64861391,-102.53914156,176.45740187,-175.07779721,169.88519790,-71.46187255
45.38252773,-161.14309198,-154.25104212,59.45759301,179.96810329,-108.47992720
-74.28285056,165.84608181,39.55661897,6.82945389,7.10795454,1.51934620,-0.53854826
2.21858349

>  <Name>
2f4u_lig

>  <RI>
0

>  <Rbt.Current_Directory>
/home/itssahil/PROJECTS/Mol_Feturizer/New_Systems/rnas/2f4u

>  <Rbt.Executable>
rbdock ($Id: //depot/dev/client3/rdock/2013.1/src/exe/rbdock.cxx#4 $)

>  <Rbt.Library>
libRbt.so (2013.1, Build901 2013/11/27)

>  <Rbt.Parameter_File>
/export/apps/rDock/src/rDock_2013.1_src/data/scripts/dock_solv.prm

>  <Rbt.Receptor>
prm/pocket_docking_3.prm

>  <SCORE>
-16.4869

>  <SCORE.INTER>
-12.2364

>  <SCORE.INTER.CONST>
1

>  <SCORE.INTER.POLAR>
-1.58378

>  <SCORE.INTER.ROT>
14

>  <SCORE.INTER.SOLV>
14.6507

>  <SCORE.INTER.VDW>
-20.6952

>  <SCORE.INTER.norm>
-0.3399

>  <SCORE.INTRA>
-4.26288

>  <SCORE.INTRA.DIHEDRAL>
-9.86541

>  <SCORE.INTRA.DIHEDRAL.0>
26.3805

>  <SCORE.INTRA.POLAR>
0

>  <SCORE.INTRA.POLAR.0>
0

>  <SCORE.INTRA.REPUL>
0

>  <SCORE.INTRA.REPUL.0>
0

>  <SCORE.INTRA.SOLV>
4.22048

>  <SCORE.INTRA.SOLV.lig_0>
-98.5587

>  <SCORE.INTRA.VDW>
-1.44041

>  <SCORE.INTRA.VDW.0>
-2.91167

>  <SCORE.INTRA.norm>
-0.118413

>  <SCORE.RESTR>
0.0124219

>  <SCORE.RESTR.CAVITY>
0.0124219

>  <SCORE.RESTR.norm>
0.000345052

>  <SCORE.SYSTEM>
0

>  <SCORE.SYSTEM.CONST>
0

>  <SCORE.SYSTEM.DIHEDRAL>
0

>  <SCORE.SYSTEM.SOLV>
0

>  <SCORE.SYSTEM.norm>
0

>  <SCORE.heavy>
36

>  <SCORE.norm>
-0.457968

>  <RMSD>
9.293

$$$$
2f4u_lig
 OpenBabel11021811433D
libRbt.so/2013.1/901 2013/11/27
 36 37  0  0  0  0  0  0  0  0999 V2000
   36.3785    7.1884   11.2259 C   0  0  2  0  0  0  0  0  0  0  0  0
   37.0662    6.7452    9.9977 O   0  0  0  0  0  0  0  0  0  0  0  0
   37.8301    8.6388    6.1603 C   0  0  2  0  0  0  0  0  0  0  0  0
   38.2566    9.6653    5.1707 N   0  0  0  0  0  0  0  0  0  0  0  0
   36.9626    6.3398   12.3976 C   0  0  2  0  0  0  0  0  0  0  0  0
   38.4221    6.4952   12.5392 N   0  0  0  0  0  0  0  0  0  0  0  0
   36.7121    9.1834    7.1176 C   0  0  0  0  0  0  0  0  0  0  0  0
   36.9337   10.0565    4.0375 C   0  0  0  0  0  0  0  0  0  0  0  0
   37.9689   10.8791    3.3365 C   0  0  1  0  0  0  0  0  0  0  0  0
   37.2576   11.6406    2.2123 C   0  0  0  0  0  0  0  0  0  0  0  0
   38.1629   12.4854    1.2969 C   0  0  0  0  0  0  0  0  0  0  0  0
   37.3437   13.0458    0.2204 N   0  0  0  0  0  0  0  0  0  0  0  0
   38.5124   11.8273    4.2139 O   0  0  0  0  0  0  0  0  0  0  0  0
   40.6900    6.9149    5.1345 C   0  0  0  0  0  0  0  0  0  0  0  0
   40.9874    5.5790    5.7990 C   0  0  0  0  0  0  0  0  0  0  0  0
   36.6036    4.8355   12.1592 C   0  0  1  0  0  0  0  0  0  0  0  0
   41.6798    4.6102    4.9254 N   0  0  0  0  0  0  0  0  0  0  0  0
   37.1257    4.0138   13.2001 O   0  0  0  0  0  0  0  0  0  0  0  0
   36.3167    8.1312    8.1737 C   0  0  2  0  0  0  0  0  0  0  0  0
   35.3111    8.6532    9.0905 N   0  0  0  0  0  0  0  0  0  0  0  0
   44.0850    5.0845    5.3617 C   0  0  0  0  0  0  0  0  0  0  0  0
   45.4235    5.6577    4.8066 C   0  0  0  0  0  0  0  0  0  0  0  0
   42.9690    4.9856    4.2891 C   0  0  0  0  0  0  0  0  0  0  0  0
   45.2751    7.0703    4.3442 N   0  0  0  0  0  0  0  0  0  0  0  0
   35.9043    9.7630    3.9128 O   0  0  0  0  0  0  0  0  0  0  0  0
   35.0693    4.7164   12.0639 C   0  0  2  0  0  0  0  0  0  0  0  0
   34.6392    3.3766   11.8367 O   0  0  0  0  0  0  0  0  0  0  0  0
   37.5282    7.7149    8.9838 C   0  0  2  0  0  0  0  0  0  0  0  0
   34.5172    5.6205   10.9471 C   0  0  2  0  0  0  0  0  0  0  0  0
   34.9416    6.9759   11.1285 O   0  0  0  0  0  0  0  0  0  0  0  0
   38.6378    7.1216    8.0239 C   0  0  2  0  0  0  0  0  0  0  0  0
   39.7995    6.7460    8.8285 O   0  0  0  0  0  0  0  0  0  0  0  0
   33.0134    5.5841   10.8888 C   0  0  0  0  0  0  0  0  0  0  0  0
   32.5760    4.3362   10.5061 O   0  0  0  0  0  0  0  0  0  0  0  0
   39.0360    8.2150    6.9754 C   0  0  1  0  0  0  0  0  0  0  0  0
   40.0205    7.7610    6.0929 O   0  0  0  0  0  0  0  0  0  0  0  0
  1  2  1  6  0  0  0
  1  5  1  0  0  0  0
  1 30  1  0  0  0  0
  3  4  1  6  0  0  0
  3  7  1  0  0  0  0
  3 35  1  0  0  0  0
  5  6  1  6  0  0  0
  5 16  1  0  0  0  0
  7 19  1  0  0  0  0
  8  4  1  0  0  0  0
  8 25  2  0  0  0  0
  9  8  1  1  0  0  0
  9 10  1  0  0  0  0
  9 13  1  0  0  0  0
 10 11  1  0  0  0  0
 11 12  1  0  0  0  0
 14 15  1  0  0  0  0
 14 36  1  0  0  0  0
 15 17  1  0  0  0  0
 16 18  1  1  0  0  0
 16 26  1  0  0  0  0
 17 23  1  0  0  0  0
 19 20  1  1  0  0  0
 19 28  1  0  0  0  0
 21 22  1  0  0  0  0
 21 23  1  0  0  0  0
 22 24  1  0  0  0  0
 26 27  1  6  0  0  0
 26 29  1  0  0  0  0
 28  2  1  1  0  0  0
 28 31  1  0  0  0  0
 29 30  1  0  0  0  0
 29 33  1  1  0  0  0
 31 32  1  1  0  0  0
 31 35  1  0  0  0  0
 33 34  1  0  0  0  0
 35 36  1  6  0  0  0
M  END
>  <CHROM.1>
-137.80335178,-66.14225370,-174.27063853,-176.10039136,175.20250988,-179.85247849
-63.55879043,56.16235479,69.65357758,64.08193661,-172.30393090,-78.35404034
-66.47612782,-69.67440963,38.03564086,7.40829496,7.45422785,2.09139056,-0.41149698
2.24734045

>  <Name>
2f4u_lig

>  <RI>
0

>  <Rbt.Current_Directory>
/home/itssahil/PROJECTS/Mol_Feturizer/New_Systems/rnas/2f4u

>  <Rbt.Executable>
rbdock ($Id: //depot/dev/client3/rdock/2013.1/src/exe/rbdock.cxx#4 $)

>  <Rbt.Library>
libRbt.so (2013.1, Build901 2013/11/27)

>  <Rbt.Parameter_File>
/export/apps/rDock/src/rDock_2013.1_src/data/scripts/dock_solv.prm

>  <Rbt.Receptor>
prm/pocket_docking_4.prm

>  <SCORE>
-14.2808

>  <SCORE.INTER>
-8.56001

>  <SCORE.INTER.CONST>
1

>  <SCORE.INTER.POLAR>
-1.63489

>  <SCORE.INTER.ROT>
14

>  <SCORE.INTER.SOLV>
15.5138

>  <SCORE.INTER.VDW>
-18.3616

>  <SCORE.INTER.norm>
-0.237778

>  <SCORE.INTRA>
-5.72076

>  <SCORE.INTRA.DIHEDRAL>
-16.9991

>  <SCORE.INTRA.DIHEDRAL.0>
26.3805

>  <SCORE.INTRA.POLAR>
0

>  <SCORE.INTRA.POLAR.0>
0

>  <SCORE.INTRA.REPUL>
0

>  <SCORE.INTRA.REPUL.0>
0

>  <SCORE.INTRA.SOLV>
2.25049

>  <SCORE.INTRA.SOLV.lig_0>
-98.5587

>  <SCORE.INTRA.VDW>
1.65354

>  <SCORE.INTRA.VDW.0>
-2.91167

>  <SCORE.INTRA.norm>
-0.15891

>  <SCORE.RESTR>
0

>  <SCORE.RESTR.CAVITY>
0

>  <SCORE.RESTR.norm>
0

>  <SCORE.SYSTEM>
0

>  <SCORE.SYSTEM.CONST>
0

>  <SCORE.SYSTEM.DIHEDRAL>
0

>  <SCORE.SYSTEM.SOLV>
0

>  <SCORE.SYSTEM.norm>
0

>  <SCORE.heavy>
36

>  <SCORE.norm>
-0.396688

>  <RMSD>
9.293

$$$$
2f4u_lig
 OpenBabel11021811433D
libRbt.so/2013.1/901 2013/11/27
 36 37  0  0  0  0  0  0  0  0999 V2000
   43.6213    6.4382    4.2017 C   0  0  2  0  0  0  0  0  0  0  0  0
   42.5505    5.9810    5.1085 O   0  0  0  0  0  0  0  0  0  0  0  0
   38.6687    7.6085    6.1938 C   0  0  2  0  0  0  0  0  0  0  0  0
   37.6532    8.5451    6.7475 N   0  0  0  0  0  0  0  0  0  0  0  0
   43.6957    5.4018    3.0379 C   0  0  2  0  0  0  0  0  0  0  0  0
   42.4210    5.2748    2.3077 N   0  0  0  0  0  0  0  0  0  0  0  0
   39.6742    7.1229    7.2967 C   0  0  0  0  0  0  0  0  0  0  0  0
   36.2541    7.6582    7.4132 C   0  0  0  0  0  0  0  0  0  0  0  0
   35.6585    9.0192    7.5941 C   0  0  1  0  0  0  0  0  0  0  0  0
   34.1431    8.8358    7.7337 C   0  0  0  0  0  0  0  0  0  0  0  0
   33.6761    8.0091    8.9460 C   0  0  0  0  0  0  0  0  0  0  0  0
   33.7954    8.8367   10.1480 N   0  0  0  0  0  0  0  0  0  0  0  0
   36.1268    9.6010    8.7800 O   0  0  0  0  0  0  0  0  0  0  0  0
   37.3464    9.4137    3.5816 C   0  0  0  0  0  0  0  0  0  0  0  0
   37.2467   10.8020    4.1958 C   0  0  0  0  0  0  0  0  0  0  0  0
   44.1192    4.0141    3.6241 C   0  0  1  0  0  0  0  0  0  0  0  0
   38.5069   11.5712    4.1591 N   0  0  0  0  0  0  0  0  0  0  0  0
   44.1914    3.0263    2.5992 O   0  0  0  0  0  0  0  0  0  0  0  0
   40.7548    6.1971    6.7018 C   0  0  2  0  0  0  0  0  0  0  0  0
   41.7146    5.7829    7.7174 N   0  0  0  0  0  0  0  0  0  0  0  0
   40.2414   12.8365    2.8979 C   0  0  0  0  0  0  0  0  0  0  0  0
   40.9917   11.6521    2.2178 C   0  0  0  0  0  0  0  0  0  0  0  0
   38.7242   12.5744    3.0849 C   0  0  0  0  0  0  0  0  0  0  0  0
   40.7751   11.6309    0.7400 N   0  0  0  0  0  0  0  0  0  0  0  0
   35.9790    6.6244    7.5431 O   0  0  0  0  0  0  0  0  0  0  0  0
   45.4756    4.1864    4.3366 C   0  0  2  0  0  0  0  0  0  0  0  0
   45.9458    2.9719    4.9158 O   0  0  0  0  0  0  0  0  0  0  0  0
   41.5094    6.9083    5.5964 C   0  0  2  0  0  0  0  0  0  0  0  0
   45.3878    5.2667    5.4296 C   0  0  2  0  0  0  0  0  0  0  0  0
   44.9017    6.5014    4.8916 O   0  0  0  0  0  0  0  0  0  0  0  0
   40.5021    7.3565    4.4611 C   0  0  2  0  0  0  0  0  0  0  0  0
   41.2533    8.0545    3.4187 O   0  0  0  0  0  0  0  0  0  0  0  0
   46.7213    5.5114    6.0838 C   0  0  0  0  0  0  0  0  0  0  0  0
   46.6980    5.0953    7.3958 O   0  0  0  0  0  0  0  0  0  0  0  0
   39.4287    8.3108    5.0859 C   0  0  1  0  0  0  0  0  0  0  0  0
   38.5036    8.7529    4.1356 O   0  0  0  0  0  0  0  0  0  0  0  0
  1  2  1  1  0  0  0
  1  5  1  0  0  0  0
  1 30  1  0  0  0  0
  3  4  1  1  0  0  0
  3  7  1  0  0  0  0
  3 35  1  0  0  0  0
  5  6  1  1  0  0  0
  5 16  1  0  0  0  0
  7 19  1  0  0  0  0
  8  4  1  0  0  0  0
  8 25  2  0  0  0  0
  9  8  1  1  0  0  0
  9 10  1  0  0  0  0
  9 13  1  0  0  0  0
 10 11  1  0  0  0  0
 11 12  1  0  0  0  0
 14 15  1  0  0  0  0
 14 36  1  0  0  0  0
 15 17  1  0  0  0  0
 16 18  1  6  0  0  0
 16 26  1  0  0  0  0
 17 23  1  0  0  0  0
 19 20  1  1  0  0  0
 19 28  1  0  0  0  0
 21 22  1  0  0  0  0
 21 23  1  0  0  0  0
 22 24  1  0  0  0  0
 26 27  1  1  0  0  0
 26 29  1  0  0  0  0
 28  2  1  6  0  0  0
 28 31  1  0  0  0  0
 29 30  1  0  0  0  0
 29 33  1  6  0  0  0
 31 32  1  6  0  0  0
 31 35  1  0  0  0  0
 33 34  1  0  0  0  0
 35 36  1  6  0  0  0
M  END
>  <CHROM.1>
-132.02170737,-86.87154988,160.45675247,62.18838323,75.60979651,49.23961760
44.43082018,98.14460831,-157.78438283,78.33964779,72.22383058,-168.85191896
-112.68283894,52.93868334,40.44935632,7.57315046,5.28673764,-0.16494050,0.49003877
-0.76934505

>  <Name>
2f4u_lig

>  <RI>
0

>  <Rbt.Current_Directory>
/home/itssahil/PROJECTS/Mol_Feturizer/New_Systems/rnas/2f4u

>  <Rbt.Executable>
rbdock ($Id: //depot/dev/client3/rdock/2013.1/src/exe/rbdock.cxx#4 $)

>  <Rbt.Library>
libRbt.so (2013.1, Build901 2013/11/27)

>  <Rbt.Parameter_File>
/export/apps/rDock/src/rDock_2013.1_src/data/scripts/dock_solv.prm

>  <Rbt.Receptor>
prm/pocket_docking_5.prm

>  <SCORE>
-18.9387

>  <SCORE.INTER>
-16.1984

>  <SCORE.INTER.CONST>
1

>  <SCORE.INTER.POLAR>
-1.85158

>  <SCORE.INTER.ROT>
14

>  <SCORE.INTER.SOLV>
16.0784

>  <SCORE.INTER.VDW>
-22.9198

>  <SCORE.INTER.norm>
-0.449955

>  <SCORE.INTRA>
-2.74033

>  <SCORE.INTRA.DIHEDRAL>
-6.97604

>  <SCORE.INTRA.DIHEDRAL.0>
26.3805

>  <SCORE.INTRA.POLAR>
0

>  <SCORE.INTRA.POLAR.0>
0

>  <SCORE.INTRA.REPUL>
0

>  <SCORE.INTRA.REPUL.0>
0

>  <SCORE.INTRA.SOLV>
4.86729

>  <SCORE.INTRA.SOLV.lig_0>
-98.5587

>  <SCORE.INTRA.VDW>
-1.68595

>  <SCORE.INTRA.VDW.0>
-2.91167

>  <SCORE.INTRA.norm>
-0.0761202

>  <SCORE.RESTR>
0

>  <SCORE.RESTR.CAVITY>
0

>  <SCORE.RESTR.norm>
0

>  <SCORE.SYSTEM>
0

>  <SCORE.SYSTEM.CONST>
0

>  <SCORE.SYSTEM.DIHEDRAL>
0

>  <SCORE.SYSTEM.SOLV>
0

>  <SCORE.SYSTEM.norm>
0

>  <SCORE.heavy>
36

>  <SCORE.norm>
-0.526075

>  <RMSD>
9.294

$$$$
2f4u_lig
 OpenBabel11021811433D
libRbt.so/2013.1/901 2013/11/27
 36 37  0  0  0  0  0  0  0  0999 V2000
   37.0340    5.5611    9.7732 C   0  0  2  0  0  0  0  0  0  0  0  0
   37.7505    5.5409    8.4832 O   0  0  0  0  0  0  0  0  0  0  0  0
   38.2941    8.5825    5.4256 C   0  0  2  0  0  0  0  0  0  0  0  0
   38.6678    9.8788    4.7974 N   0  0  0  0  0  0  0  0  0  0  0  0
   38.0874    5.9241   10.8653 C   0  0  2  0  0  0  0  0  0  0  0  0
   38.7386    7.2235   10.6170 N   0  0  0  0  0  0  0  0  0  0  0  0
   37.2412    8.7749    6.5735 C   0  0  0  0  0  0  0  0  0  0  0  0
   37.4197   10.4171    3.6398 C   0  0  0  0  0  0  0  0  0  0  0  0
   38.3937   11.5060    3.3150 C   0  0  1  0  0  0  0  0  0  0  0  0
   37.8156   12.2934    2.1338 C   0  0  0  0  0  0  0  0  0  0  0  0
   38.6039   13.5477    1.7134 C   0  0  0  0  0  0  0  0  0  0  0  0
   39.8948   13.1251    1.1667 N   0  0  0  0  0  0  0  0  0  0  0  0
   38.5136   12.3895    4.3963 O   0  0  0  0  0  0  0  0  0  0  0  0
   41.7189    7.5363    4.2741 C   0  0  0  0  0  0  0  0  0  0  0  0
   42.1414    6.1091    4.5893 C   0  0  0  0  0  0  0  0  0  0  0  0
   39.1619    4.7883   10.9275 C   0  0  1  0  0  0  0  0  0  0  0  0
   43.4250    5.7097    3.9779 N   0  0  0  0  0  0  0  0  0  0  0  0
   40.1568    5.0783   11.9060 O   0  0  0  0  0  0  0  0  0  0  0  0
   36.9025    7.4332    7.2545 C   0  0  2  0  0  0  0  0  0  0  0  0
   35.9592    7.6188    8.3500 N   0  0  0  0  0  0  0  0  0  0  0  0
   44.8871    4.4757    5.5714 C   0  0  0  0  0  0  0  0  0  0  0  0
   46.1962    4.4712    6.4167 C   0  0  0  0  0  0  0  0  0  0  0  0
   44.6755    5.7904    4.7761 C   0  0  0  0  0  0  0  0  0  0  0  0
   47.4106    4.6404    5.5635 N   0  0  0  0  0  0  0  0  0  0  0  0
   36.4582   10.0588    3.3105 O   0  0  0  0  0  0  0  0  0  0  0  0
   38.4411    3.4603   11.2340 C   0  0  2  0  0  0  0  0  0  0  0  0
   39.3389    2.3553   11.3027 O   0  0  0  0  0  0  0  0  0  0  0  0
   38.1577    6.7918    7.8114 C   0  0  2  0  0  0  0  0  0  0  0  0
   37.3590    3.1673   10.1792 C   0  0  2  0  0  0  0  0  0  0  0  0
   36.4440    4.2628   10.0660 O   0  0  0  0  0  0  0  0  0  0  0  0
   39.2015    6.5540    6.6459 C   0  0  2  0  0  0  0  0  0  0  0  0
   40.4071    5.9522    7.2138 O   0  0  0  0  0  0  0  0  0  0  0  0
   36.5852    1.9172   10.5026 C   0  0  0  0  0  0  0  0  0  0  0  0
   35.6451    1.6668    9.5287 O   0  0  0  0  0  0  0  0  0  0  0  0
   39.5439    7.9322    5.9853 C   0  0  1  0  0  0  0  0  0  0  0  0
   40.4688    7.7997    4.9454 O   0  0  0  0  0  0  0  0  0  0  0  0
  1  2  1  6  0  0  0
  1  5  1  0  0  0  0
  1 30  1  0  0  0  0
  3  4  1  1  0  0  0
  3  7  1  0  0  0  0
  3 35  1  0  0  0  0
  5  6  1  6  0  0  0
  5 16  1  0  0  0  0
  7 19  1  0  0  0  0
  8  4  1  0  0  0  0
  8 25  2  0  0  0  0
  9  8  1  1  0  0  0
  9 10  1  0  0  0  0
  9 13  1  0  0  0  0
 10 11  1  0  0  0  0
 11 12  1  0  0  0  0
 14 15  1  0  0  0  0
 14 36  1  0  0  0  0
 15 17  1  0  0  0  0
 16 18  1  1  0  0  0
 16 26  1  0  0  0  0
 17 23  1  0  0  0  0
 19 20  1  1  0  0  0
 19 28  1  0  0  0  0
 21 22  1  0  0  0  0
 21 23  1  0  0  0  0
 22 24  1  0  0  0  0
 26 27  1  6  0  0  0
 26 29  1  0  0  0  0
 28  2  1  6  0  0  0
 28 31  1  0  0  0  0
 29 30  1  0  0  0  0
 29 33  1  1  0  0  0
 31 32  1  1  0  0  0
 31 35  1  0  0  0  0
 33 34  1  0  0  0  0
 35 36  1  6  0  0  0
M  END
>  <CHROM.1>
-74.83283996,-78.99729292,174.25323905,174.72538503,67.12382760,-179.12395271
57.93300142,96.64203021,87.56437459,-60.07264428,178.93995379,-72.79721373
-178.76453008,170.59971899,39.36175560,6.92028943,6.83428600,1.66214979,-0.35818344
2.39031991

>  <Name>
2f4u_lig

>  <RI>
0

>  <Rbt.Current_Directory>
/home/itssahil/PROJECTS/Mol_Feturizer/New_Systems/rnas/2f4u

>  <Rbt.Executable>
rbdock ($Id: //depot/dev/client3/rdock/2013.1/src/exe/rbdock.cxx#4 $)

>  <Rbt.Library>
libRbt.so (2013.1, Build901 2013/11/27)

>  <Rbt.Parameter_File>
/export/apps/rDock/src/rDock_2013.1_src/data/scripts/dock_solv.prm

>  <Rbt.Receptor>
prm/pocket_docking_6.prm

>  <SCORE>
-21.4293

>  <SCORE.INTER>
-13.2686

>  <SCORE.INTER.CONST>
1

>  <SCORE.INTER.POLAR>
-1.91891

>  <SCORE.INTER.ROT>
14

>  <SCORE.INTER.SOLV>
12.9129

>  <SCORE.INTER.VDW>
-19.687

>  <SCORE.INTER.norm>
-0.368573

>  <SCORE.INTRA>
-8.1607

>  <SCORE.INTRA.DIHEDRAL>
-21.3814

>  <SCORE.INTRA.DIHEDRAL.0>
26.3805

>  <SCORE.INTRA.POLAR>
0

>  <SCORE.INTRA.POLAR.0>
0

>  <SCORE.INTRA.REPUL>
0

>  <SCORE.INTRA.REPUL.0>
0

>  <SCORE.INTRA.SOLV>
4.42188

>  <SCORE.INTRA.SOLV.lig_0>
-98.5587

>  <SCORE.INTRA.VDW>
0.319046

>  <SCORE.INTRA.VDW.0>
-2.91167

>  <SCORE.INTRA.norm>
-0.226686

>  <SCORE.RESTR>
0

>  <SCORE.RESTR.CAVITY>
0

>  <SCORE.RESTR.norm>
0

>  <SCORE.SYSTEM>
0

>  <SCORE.SYSTEM.CONST>
0

>  <SCORE.SYSTEM.DIHEDRAL>
0

>  <SCORE.SYSTEM.SOLV>
0

>  <SCORE.SYSTEM.norm>
0

>  <SCORE.heavy>
36

>  <SCORE.norm>
-0.595259

>  <RMSD>
9.299

$$$$
2f4u_lig
 OpenBabel11021811433D
libRbt.so/2013.1/901 2013/11/27
 36 37  0  0  0  0  0  0  0  0999 V2000
   45.0538    4.4877    6.0259 C   0  0  2  0  0  0  0  0  0  0  0  0
   43.7491    3.8676    6.3278 O   0  0  0  0  0  0  0  0  0  0  0  0
   39.9732    5.1182    8.0811 C   0  0  2  0  0  0  0  0  0  0  0  0
   39.0164    5.7562    9.0257 N   0  0  0  0  0  0  0  0  0  0  0  0
   45.5898    3.7972    4.7335 C   0  0  2  0  0  0  0  0  0  0  0  0
   44.6721    3.9437    3.5887 N   0  0  0  0  0  0  0  0  0  0  0  0
   40.8837    4.0618    8.8010 C   0  0  0  0  0  0  0  0  0  0  0  0
   37.4034    4.9984    8.9186 C   0  0  0  0  0  0  0  0  0  0  0  0
   36.9863    6.0882    9.8557 C   0  0  1  0  0  0  0  0  0  0  0  0
   35.4541    6.0883    9.8972 C   0  0  0  0  0  0  0  0  0  0  0  0
   34.8044    7.2361   10.6921 C   0  0  0  0  0  0  0  0  0  0  0  0
   33.3509    7.0626   10.6570 N   0  0  0  0  0  0  0  0  0  0  0  0
   37.4461    5.8173   11.1517 O   0  0  0  0  0  0  0  0  0  0  0  0
   39.5876    8.2649    6.0554 C   0  0  0  0  0  0  0  0  0  0  0  0
   38.1353    8.5797    6.3817 C   0  0  0  0  0  0  0  0  0  0  0  0
   45.8339    2.2813    5.0354 C   0  0  1  0  0  0  0  0  0  0  0  0
   37.6030    9.7679    5.6847 N   0  0  0  0  0  0  0  0  0  0  0  0
   46.3154    1.6006    3.8794 O   0  0  0  0  0  0  0  0  0  0  0  0
   41.9082    3.4470    7.8258 C   0  0  2  0  0  0  0  0  0  0  0  0
   42.7831    2.4996    8.5049 N   0  0  0  0  0  0  0  0  0  0  0  0
   37.2035    9.9259    3.2321 C   0  0  0  0  0  0  0  0  0  0  0  0
   37.8769   11.3300    3.1756 C   0  0  0  0  0  0  0  0  0  0  0  0
   36.5848    9.5980    4.6161 C   0  0  0  0  0  0  0  0  0  0  0  0
   38.9969   11.4503    4.1566 N   0  0  0  0  0  0  0  0  0  0  0  0
   36.9629    4.1814    8.3711 O   0  0  0  0  0  0  0  0  0  0  0  0
   46.8322    2.1785    6.2059 C   0  0  2  0  0  0  0  0  0  0  0  0
   47.1147    0.8284    6.5650 O   0  0  0  0  0  0  0  0  0  0  0  0
   42.7689    4.5323    7.2105 C   0  0  2  0  0  0  0  0  0  0  0  0
   46.3074    2.9309    7.4420 C   0  0  2  0  0  0  0  0  0  0  0  0
   45.9942    4.2904    7.1195 O   0  0  0  0  0  0  0  0  0  0  0  0
   41.8550    5.5723    6.4440 C   0  0  2  0  0  0  0  0  0  0  0  0
   42.7084    6.6156    5.8772 O   0  0  0  0  0  0  0  0  0  0  0  0
   47.3021    2.9147    8.5718 C   0  0  0  0  0  0  0  0  0  0  0  0
   48.5063    3.4404    8.1613 O   0  0  0  0  0  0  0  0  0  0  0  0
   40.8387    6.1964    7.4594 C   0  0  1  0  0  0  0  0  0  0  0  0
   39.9978    7.1327    6.8508 O   0  0  0  0  0  0  0  0  0  0  0  0
  1  2  1  1  0  0  0
  1  5  1  0  0  0  0
  1 30  1  0  0  0  0
  3  4  1  1  0  0  0
  3  7  1  0  0  0  0
  3 35  1  0  0  0  0
  5  6  1  6  0  0  0
  5 16  1  0  0  0  0
  7 19  1  0  0  0  0
  8  4  1  0  0  0  0
  8 25  2  0  0  0  0
  9  8  1  6  0  0  0
  9 10  1  0  0  0  0
  9 13  1  0  0  0  0
 10 11  1  0  0  0  0
 11 12  1  0  0  0  0
 14 15  1  0  0  0  0
 14 36  1  0  0  0  0
 15 17  1  0  0  0  0
 16 18  1  6  0  0  0
 16 26  1  0  0  0  0
 17 23  1  0  0  0  0
 19 20  1  1  0  0  0
 19 28  1  0  0  0  0
 21 22  1  0  0  0  0
 21 23  1  0  0  0  0
 22 24  1  0  0  0  0
 26 27  1  1  0  0  0
 26 29  1  0  0  0  0
 28  2  1  6  0  0  0
 28 31  1  0  0  0  0
 29 30  1  0  0  0  0
 29 33  1  1  0  0  0
 31 32  1  1  0  0  0
 31 35  1  0  0  0  0
 33 34  1  0  0  0  0
 35 36  1  6  0  0  0
M  END
>  <CHROM.1>
-160.81691573,-98.78311578,167.79194490,-173.75918575,-178.52461058,177.02207165
-166.63576358,110.20174351,-109.85569144,60.69249228,-53.81861632,-153.74181603
56.38922605,-171.70381260,41.27714301,5.48048833,7.01485405,-0.22793809,0.45576073
-0.85816270

>  <Name>
2f4u_lig

>  <RI>
0

>  <Rbt.Current_Directory>
/home/itssahil/PROJECTS/Mol_Feturizer/New_Systems/rnas/2f4u

>  <Rbt.Executable>
rbdock ($Id: //depot/dev/client3/rdock/2013.1/src/exe/rbdock.cxx#4 $)

>  <Rbt.Library>
libRbt.so (2013.1, Build901 2013/11/27)

>  <Rbt.Parameter_File>
/export/apps/rDock/src/rDock_2013.1_src/data/scripts/dock_solv.prm

>  <Rbt.Receptor>
prm/pocket_docking_4.prm

>  <SCORE>
-18.2996

>  <SCORE.INTER>
-11.0423

>  <SCORE.INTER.CONST>
1

>  <SCORE.INTER.POLAR>
-3.01376

>  <SCORE.INTER.ROT>
14

>  <SCORE.INTER.SOLV>
13.924

>  <SCORE.INTER.VDW>
-14.8903

>  <SCORE.INTER.norm>
-0.30673

>  <SCORE.INTRA>
-7.25733

>  <SCORE.INTRA.DIHEDRAL>
-16.2376

>  <SCORE.INTRA.DIHEDRAL.0>
26.3805

>  <SCORE.INTRA.POLAR>
0

>  <SCORE.INTRA.POLAR.0>
0

>  <SCORE.INTRA.REPUL>
0

>  <SCORE.INTRA.REPUL.0>
0

>  <SCORE.INTRA.SOLV>
3.89218

>  <SCORE.INTRA.SOLV.lig_0>
-98.5587

>  <SCORE.INTRA.VDW>
-1.08459

>  <SCORE.INTRA.VDW.0>
-2.91167

>  <SCORE.INTRA.norm>
-0.201592

>  <SCORE.RESTR>
0

>  <SCORE.RESTR.CAVITY>
0

>  <SCORE.RESTR.norm>
0

>  <SCORE.SYSTEM>
0

>  <SCORE.SYSTEM.CONST>
0

>  <SCORE.SYSTEM.DIHEDRAL>
0

>  <SCORE.SYSTEM.SOLV>
0

>  <SCORE.SYSTEM.norm>
0

>  <SCORE.heavy>
36

>  <SCORE.norm>
-0.508322

>  <RMSD>
9.357

$$$$
2f4u_lig
 OpenBabel11021811433D
libRbt.so/2013.1/901 2013/11/27
 36 37  0  0  0  0  0  0  0  0999 V2000
   44.2565    2.1268    7.8167 C   0  0  2  0  0  0  0  0  0  0  0  0
   43.3352    2.8665    6.9324 O   0  0  0  0  0  0  0  0  0  0  0  0
   39.0317    3.4779    6.9721 C   0  0  2  0  0  0  0  0  0  0  0  0
   37.6751    3.8194    7.4799 N   0  0  0  0  0  0  0  0  0  0  0  0
   45.7036    2.4938    7.3636 C   0  0  2  0  0  0  0  0  0  0  0  0
   45.9715    3.9420    7.4355 N   0  0  0  0  0  0  0  0  0  0  0  0
   39.6868    2.3163    7.7996 C   0  0  0  0  0  0  0  0  0  0  0  0
   37.7553    4.4843    9.1349 C   0  0  0  0  0  0  0  0  0  0  0  0
   36.2608    4.4343    9.0744 C   0  0  1  0  0  0  0  0  0  0  0  0
   35.8039    3.3471   10.0535 C   0  0  0  0  0  0  0  0  0  0  0  0
   36.2115    1.9062    9.6944 C   0  0  0  0  0  0  0  0  0  0  0  0
   35.6193    0.9961   10.6767 N   0  0  0  0  0  0  0  0  0  0  0  0
   35.7158    5.6511    9.5063 O   0  0  0  0  0  0  0  0  0  0  0  0
   39.0535    7.0389    5.7528 C   0  0  0  0  0  0  0  0  0  0  0  0
   37.8577    6.9487    4.8165 C   0  0  0  0  0  0  0  0  0  0  0  0
   45.9205    1.9796    5.9017 C   0  0  1  0  0  0  0  0  0  0  0  0
   37.5505    8.2062    4.1055 N   0  0  0  0  0  0  0  0  0  0  0  0
   47.2285    2.3007    5.4352 O   0  0  0  0  0  0  0  0  0  0  0  0
   41.1132    2.0078    7.3009 C   0  0  2  0  0  0  0  0  0  0  0  0
   41.7381    0.9603    8.0987 N   0  0  0  0  0  0  0  0  0  0  0  0
   35.1852    8.7837    3.5840 C   0  0  0  0  0  0  0  0  0  0  0  0
   34.6191    7.9766    4.7908 C   0  0  0  0  0  0  0  0  0  0  0  0
   36.5190    8.2123    3.0361 C   0  0  0  0  0  0  0  0  0  0  0  0
   34.3059    6.5643    4.4184 N   0  0  0  0  0  0  0  0  0  0  0  0
   38.5348    4.7288    9.8377 O   0  0  0  0  0  0  0  0  0  0  0  0
   45.6749    0.4576    5.8856 C   0  0  2  0  0  0  0  0  0  0  0  0
   45.8401   -0.1080    4.5877 O   0  0  0  0  0  0  0  0  0  0  0  0
   41.9807    3.2481    7.3814 C   0  0  2  0  0  0  0  0  0  0  0  0
   44.2653    0.1239    6.4064 C   0  0  2  0  0  0  0  0  0  0  0  0
   44.0514    0.6899    7.7041 O   0  0  0  0  0  0  0  0  0  0  0  0
   41.3452    4.4052    6.5086 C   0  0  2  0  0  0  0  0  0  0  0  0
   42.1915    5.5926    6.6193 O   0  0  0  0  0  0  0  0  0  0  0  0
   44.0316   -1.3615    6.4778 C   0  0  0  0  0  0  0  0  0  0  0  0
   44.0534   -1.9140    5.2171 O   0  0  0  0  0  0  0  0  0  0  0  0
   39.9072    4.7131    7.0478 C   0  0  1  0  0  0  0  0  0  0  0  0
   39.2836    5.7339    6.3243 O   0  0  0  0  0  0  0  0  0  0  0  0
  1  2  1  6  0  0  0
  1  5  1  0  0  0  0
  1 30  1  0  0  0  0
  3  4  1  1  0  0  0
  3  7  1  0  0  0  0
  3 35  1  0  0  0  0
  5  6  1  6  0  0  0
  5 16  1  0  0  0  0
  7 19  1  0  0  0  0
  8  4  1  0  0  0  0
  8 25  2  0  0  0  0
  9  8  1  1  0  0  0
  9 10  1  0  0  0  0
  9 13  1  0  0  0  0
 10 11  1  0  0  0  0
 11 12  1  0  0  0  0
 14 15  1  0  0  0  0
 14 36  1  0  0  0  0
 15 17  1  0  0  0  0
 16 18  1  1  0  0  0
 16 26  1  0  0  0  0
 17 23  1  0  0  0  0
 19 20  1  1  0  0  0
 19 28  1  0  0  0  0
 21 22  1  0  0  0  0
 21 23  1  0  0  0  0
 22 24  1  0  0  0  0
 26 27  1  6  0  0  0
 26 29  1  0  0  0  0
 28  2  1  6  0  0  0
 28 31  1  0  0  0  0
 29 30  1  0  0  0  0
 29 33  1  1  0  0  0
 31 32  1  1  0  0  0
 31 35  1  0  0  0  0
 33 34  1  0  0  0  0
 35 36  1  6  0  0  0
M  END
>  <CHROM.1>
-152.94703157,65.04479899,111.11515601,-65.79916509,-176.13794895,-177.04375077
172.81678016,172.32433070,100.75167449,-61.75398667,-59.06659027,-77.57472046
-64.98458681,177.90107679,40.45776045,3.57749689,6.85426062,0.39272556,-0.37838865
2.42149461

>  <Name>
2f4u_lig

>  <RI>
0

>  <Rbt.Current_Directory>
/home/itssahil/PROJECTS/Mol_Feturizer/New_Systems/rnas/2f4u

>  <Rbt.Executable>
rbdock ($Id: //depot/dev/client3/rdock/2013.1/src/exe/rbdock.cxx#4 $)

>  <Rbt.Library>
libRbt.so (2013.1, Build901 2013/11/27)

>  <Rbt.Parameter_File>
/export/apps/rDock/src/rDock_2013.1_src/data/scripts/dock_solv.prm

>  <Rbt.Receptor>
prm/pocket_docking_8.prm

>  <SCORE>
-10.6462

>  <SCORE.INTER>
-4.56357

>  <SCORE.INTER.CONST>
1

>  <SCORE.INTER.POLAR>
-2.5505

>  <SCORE.INTER.ROT>
14

>  <SCORE.INTER.SOLV>
12.9561

>  <SCORE.INTER.VDW>
-11.7927

>  <SCORE.INTER.norm>
-0.126766

>  <SCORE.INTRA>
-6.08266

>  <SCORE.INTRA.DIHEDRAL>
-17.8947

>  <SCORE.INTRA.DIHEDRAL.0>
26.3805

>  <SCORE.INTRA.POLAR>
0

>  <SCORE.INTRA.POLAR.0>
0

>  <SCORE.INTRA.REPUL>
0

>  <SCORE.INTRA.REPUL.0>
0

>  <SCORE.INTRA.SOLV>
5.31643

>  <SCORE.INTRA.SOLV.lig_0>
-98.5587

>  <SCORE.INTRA.VDW>
0.206481

>  <SCORE.INTRA.VDW.0>
-2.91167

>  <SCORE.INTRA.norm>
-0.168963

>  <SCORE.RESTR>
0

>  <SCORE.RESTR.CAVITY>
0

>  <SCORE.RESTR.norm>
0

>  <SCORE.SYSTEM>
0

>  <SCORE.SYSTEM.CONST>
0

>  <SCORE.SYSTEM.DIHEDRAL>
0

>  <SCORE.SYSTEM.SOLV>
0

>  <SCORE.SYSTEM.norm>
0

>  <SCORE.heavy>
36

>  <SCORE.norm>
-0.295729

>  <RMSD>
9.357

$$$$
2f4u_lig
 OpenBabel11021811433D
libRbt.so/2013.1/901 2013/11/27
 36 37  0  0  0  0  0  0  0  0999 V2000
   38.8787    4.9678    9.6246 C   0  0  2  0  0  0  0  0  0  0  0  0
   37.8958    5.6422    8.7544 O   0  0  0  0  0  0  0  0  0  0  0  0
   38.4557    8.5236    5.5483 C   0  0  2  0  0  0  0  0  0  0  0  0
   38.7492    9.8136    4.8666 N   0  0  0  0  0  0  0  0  0  0  0  0
   39.0442    3.5176    9.0736 C   0  0  2  0  0  0  0  0  0  0  0  0
   39.4948    3.4911    7.6698 N   0  0  0  0  0  0  0  0  0  0  0  0
   37.2513    8.6543    6.5461 C   0  0  0  0  0  0  0  0  0  0  0  0
   37.4392   10.2585    3.7382 C   0  0  0  0  0  0  0  0  0  0  0  0
   38.3517   11.3775    3.3445 C   0  0  1  0  0  0  0  0  0  0  0  0
   37.6819   12.1214    2.1838 C   0  0  0  0  0  0  0  0  0  0  0  0
   38.5297   13.2162    1.5100 C   0  0  0  0  0  0  0  0  0  0  0  0
   37.7420   13.8183    0.4326 N   0  0  0  0  0  0  0  0  0  0  0  0
   38.4945   12.2840    4.4039 O   0  0  0  0  0  0  0  0  0  0  0  0
   41.5599    7.5094    4.2979 C   0  0  0  0  0  0  0  0  0  0  0  0
   42.1337    6.1562    4.6905 C   0  0  0  0  0  0  0  0  0  0  0  0
   37.6792    2.7655    9.2136 C   0  0  1  0  0  0  0  0  0  0  0  0
   43.1281    5.6220    3.7382 N   0  0  0  0  0  0  0  0  0  0  0  0
   37.7745    1.4347    8.7124 O   0  0  0  0  0  0  0  0  0  0  0  0
   36.9910    7.3274    7.2877 C   0  0  2  0  0  0  0  0  0  0  0  0
   35.9019    7.4618    8.2470 N   0  0  0  0  0  0  0  0  0  0  0  0
   45.2870    5.6760    4.9776 C   0  0  0  0  0  0  0  0  0  0  0  0
   46.4120    4.8565    5.6785 C   0  0  0  0  0  0  0  0  0  0  0  0
   44.2513    4.7884    4.2394 C   0  0  0  0  0  0  0  0  0  0  0  0
   47.2860    4.1536    4.6919 N   0  0  0  0  0  0  0  0  0  0  0  0
   36.4838    9.8480    3.4551 O   0  0  0  0  0  0  0  0  0  0  0  0
   37.2726    2.7793   10.7008 C   0  0  2  0  0  0  0  0  0  0  0  0
   36.0292    2.1220   10.9326 O   0  0  0  0  0  0  0  0  0  0  0  0
   38.2332    6.8886    8.0371 C   0  0  2  0  0  0  0  0  0  0  0  0
   37.1889    4.2212   11.2333 C   0  0  2  0  0  0  0  0  0  0  0  0
   38.4152    4.9239   11.0039 O   0  0  0  0  0  0  0  0  0  0  0  0
   39.4362    6.7107    7.0245 C   0  0  2  0  0  0  0  0  0  0  0  0
   40.6235    6.3056    7.7758 O   0  0  0  0  0  0  0  0  0  0  0  0
   36.8740    4.2575   12.7049 C   0  0  0  0  0  0  0  0  0  0  0  0
   37.8824    3.6618   13.4283 O   0  0  0  0  0  0  0  0  0  0  0  0
   39.6933    8.0756    6.3005 C   0  0  1  0  0  0  0  0  0  0  0  0
   40.7509    7.9950    5.3899 O   0  0  0  0  0  0  0  0  0  0  0  0
  1  2  1  6  0  0  0
  1  5  1  0  0  0  0
  1 30  1  0  0  0  0
  3  4  1  1  0  0  0
  3  7  1  0  0  0  0
  3 35  1  0  0  0  0
  5  6  1  6  0  0  0
  5 16  1  0  0  0  0
  7 19  1  0  0  0  0
  8  4  1  0  0  0  0
  8 25  2  0  0  0  0
  9  8  1  1  0  0  0
  9 10  1  0  0  0  0
  9 13  1  0  0  0  0
 10 11  1  0  0  0  0
 11 12  1  0  0  0  0
 14 15  1  0  0  0  0
 14 36  1  0  0  0  0
 15 17  1  0  0  0  0
 16 18  1  1  0  0  0
 16 26  1  0  0  0  0
 17 23  1  0  0  0  0
 19 20  1  1  0  0  0
 19 28  1  0  0  0  0
 21 22  1  0  0  0  0
 21 23  1  0  0  0  0
 22 24  1  0  0  0  0
 26 27  1  6  0  0  0
 26 29  1  0  0  0  0
 28  2  1  6  0  0  0
 28 31  1  0  0  0  0
 29 30  1  0  0  0  0
 29 33  1  1  0  0  0
 31 32  1  1  0  0  0
 31 35  1  0  0  0  0
 33 34  1  0  0  0  0
 35 36  1  6  0  0  0
M  END
>  <CHROM.1>
-122.47004481,-68.62916305,175.66100890,-173.06053870,-179.98521260,-172.27236172
-67.62326691,147.49465580,-73.30028130,66.47280254,173.22789704,-177.95983493
63.07931583,-70.72979324,39.30647655,6.73095344,6.74464575,1.69178252,-0.42923945
2.39522603

>  <Name>
2f4u_lig

>  <RI>
0

>  <Rbt.Current_Directory>
/home/itssahil/PROJECTS/Mol_Feturizer/New_Systems/rnas/2f4u

>  <Rbt.Executable>
rbdock ($Id: //depot/dev/client3/rdock/2013.1/src/exe/rbdock.cxx#4 $)

>  <Rbt.Library>
libRbt.so (2013.1, Build901 2013/11/27)

>  <Rbt.Parameter_File>
/export/apps/rDock/src/rDock_2013.1_src/data/scripts/dock_solv.prm

>  <Rbt.Receptor>
prm/pocket_docking_5.prm

>  <SCORE>
-18.6462

>  <SCORE.INTER>
-10.9016

>  <SCORE.INTER.CONST>
1

>  <SCORE.INTER.POLAR>
-1.29658

>  <SCORE.INTER.ROT>
14

>  <SCORE.INTER.SOLV>
10.8208

>  <SCORE.INTER.VDW>
-19.4861

>  <SCORE.INTER.norm>
-0.302822

>  <SCORE.INTRA>
-7.74459

>  <SCORE.INTRA.DIHEDRAL>
-15.8945

>  <SCORE.INTRA.DIHEDRAL.0>
26.3805

>  <SCORE.INTRA.POLAR>
0

>  <SCORE.INTRA.POLAR.0>
0

>  <SCORE.INTRA.REPUL>
0

>  <SCORE.INTRA.REPUL.0>
0

>  <SCORE.INTRA.SOLV>
1.06789

>  <SCORE.INTRA.SOLV.lig_0>
-98.5587

>  <SCORE.INTRA.VDW>
-0.331298

>  <SCORE.INTRA.VDW.0>
-2.91167

>  <SCORE.INTRA.norm>
-0.215127

>  <SCORE.RESTR>
0

>  <SCORE.RESTR.CAVITY>
0

>  <SCORE.RESTR.norm>
0

>  <SCORE.SYSTEM>
0

>  <SCORE.SYSTEM.CONST>
0

>  <SCORE.SYSTEM.DIHEDRAL>
0

>  <SCORE.SYSTEM.SOLV>
0

>  <SCORE.SYSTEM.norm>
0

>  <SCORE.heavy>
36

>  <SCORE.norm>
-0.517949

>  <RMSD>
9.364

$$$$
2f4u_lig
 OpenBabel11021811433D
libRbt.so/2013.1/901 2013/11/27
 36 37  0  0  0  0  0  0  0  0999 V2000
   46.0223    4.1740    6.1854 C   0  0  2  0  0  0  0  0  0  0  0  0
   44.7342    3.4563    6.2443 O   0  0  0  0  0  0  0  0  0  0  0  0
   40.6184    4.6917    6.8995 C   0  0  2  0  0  0  0  0  0  0  0  0
   39.4265    5.2741    7.5742 N   0  0  0  0  0  0  0  0  0  0  0  0
   46.8850    3.4578    5.1005 C   0  0  2  0  0  0  0  0  0  0  0  0
   46.2387    3.4490    3.7752 N   0  0  0  0  0  0  0  0  0  0  0  0
   41.2532    3.5295    7.7418 C   0  0  0  0  0  0  0  0  0  0  0  0
   39.8681    6.0110    9.1392 C   0  0  0  0  0  0  0  0  0  0  0  0
   38.3926    6.1971    9.3061 C   0  0  1  0  0  0  0  0  0  0  0  0
   37.9406    5.2534   10.4261 C   0  0  0  0  0  0  0  0  0  0  0  0
   38.0941    3.7484   10.1383 C   0  0  0  0  0  0  0  0  0  0  0  0
   37.5638    2.9995   11.2793 N   0  0  0  0  0  0  0  0  0  0  0  0
   38.1111    7.5076    9.7156 O   0  0  0  0  0  0  0  0  0  0  0  0
   40.5156    7.5427    4.8296 C   0  0  0  0  0  0  0  0  0  0  0  0
   39.7266    6.5743    3.9612 C   0  0  0  0  0  0  0  0  0  0  0  0
   47.1698    1.9921    5.5687 C   0  0  1  0  0  0  0  0  0  0  0  0
   40.5374    5.4854    3.3798 N   0  0  0  0  0  0  0  0  0  0  0  0
   47.9483    1.2890    4.6038 O   0  0  0  0  0  0  0  0  0  0  0  0
   42.5191    2.9703    7.0611 C   0  0  2  0  0  0  0  0  0  0  0  0
   43.1338    1.9221    7.8658 N   0  0  0  0  0  0  0  0  0  0  0  0
   41.4960    3.1878    3.4259 C   0  0  0  0  0  0  0  0  0  0  0  0
   41.7594    3.0962    1.8927 C   0  0  0  0  0  0  0  0  0  0  0  0
   40.2795    4.0799    3.7865 C   0  0  0  0  0  0  0  0  0  0  0  0
   42.3499    4.3576    1.3528 N   0  0  0  0  0  0  0  0  0  0  0  0
   40.7774    6.1675    9.6960 O   0  0  0  0  0  0  0  0  0  0  0  0
   47.8853    2.0532    6.9330 C   0  0  2  0  0  0  0  0  0  0  0  0
   48.1820    0.7593    7.4521 O   0  0  0  0  0  0  0  0  0  0  0  0
   43.5392    4.0724    6.8562 C   0  0  2  0  0  0  0  0  0  0  0  0
   47.0414    2.8285    7.9608 C   0  0  2  0  0  0  0  0  0  0  0  0
   46.7060    4.1311    7.4699 O   0  0  0  0  0  0  0  0  0  0  0  0
   42.9151    5.2231    5.9670 C   0  0  2  0  0  0  0  0  0  0  0  0
   43.9131    6.2789    5.8012 O   0  0  0  0  0  0  0  0  0  0  0  0
   47.7560    2.9729    9.2778 C   0  0  0  0  0  0  0  0  0  0  0  0
   48.9215    3.6878    9.1179 O   0  0  0  0  0  0  0  0  0  0  0  0
   41.6450    5.7872    6.6892 C   0  0  1  0  0  0  0  0  0  0  0  0
   41.0410    6.8159    5.9603 O   0  0  0  0  0  0  0  0  0  0  0  0
  1  2  1  1  0  0  0
  1  5  1  0  0  0  0
  1 30  1  0  0  0  0
  3  4  1  1  0  0  0
  3  7  1  0  0  0  0
  3 35  1  0  0  0  0
  5  6  1  6  0  0  0
  5 16  1  0  0  0  0
  7 19  1  0  0  0  0
  8  4  1  0  0  0  0
  8 25  2  0  0  0  0
  9  8  1  1  0  0  0
  9 10  1  0  0  0  0
  9 13  1  0  0  0  0
 10 11  1  0  0  0  0
 11 12  1  0  0  0  0
 14 15  1  0  0  0  0
 14 36  1  0  0  0  0
 15 17  1  0  0  0  0
 16 18  1  6  0  0  0
 16 26  1  0  0  0  0
 17 23  1  0  0  0  0
 19 20  1  1  0  0  0
 19 28  1  0  0  0  0
 21 22  1  0  0  0  0
 21 23  1  0  0  0  0
 22 24  1  0  0  0  0
 26 27  1  1  0  0  0
 26 29  1  0  0  0  0
 28  2  1  6  0  0  0
 28 31  1  0  0  0  0
 29 30  1  0  0  0  0
 29 33  1  1  0  0  0
 31 32  1  1  0  0  0
 31 35  1  0  0  0  0
 33 34  1  0  0  0  0
 35 36  1  6  0  0  0
M  END
>  <CHROM.1>
-161.84847243,62.61275999,111.04369851,-64.55296413,-177.51595991,-63.08919215
43.38319583,114.87365501,-161.96310366,73.72803287,-63.92578983,-166.16756168
61.82958667,-78.66432512,42.90114229,4.25746171,6.69014584,-0.17166877,-0.35723454
1.63832174

>  <Name>
2f4u_lig

>  <RI>
0

>  <Rbt.Current_Directory>
/home/itssahil/PROJECTS/Mol_Feturizer/New_Systems/rnas/2f4u

>  <Rbt.Executable>
rbdock ($Id: //depot/dev/client3/rdock/2013.1/src/exe/rbdock.cxx#4 $)

>  <Rbt.Library>
libRbt.so (2013.1, Build901 2013/11/27)

>  <Rbt.Parameter_File>
/export/apps/rDock/src/rDock_2013.1_src/data/scripts/dock_solv.prm

>  <Rbt.Receptor>
prm/pocket_docking_5.prm

>  <SCORE>
-14.1757

>  <SCORE.INTER>
-4.31809

>  <SCORE.INTER.CONST>
1

>  <SCORE.INTER.POLAR>
-2.45216

>  <SCORE.INTER.ROT>
14

>  <SCORE.INTER.SOLV>
9.82286

>  <SCORE.INTER.VDW>
-10.9125

>  <SCORE.INTER.norm>
-0.119947

>  <SCORE.INTRA>
-9.89645

>  <SCORE.INTRA.DIHEDRAL>
-16.3413

>  <SCORE.INTRA.DIHEDRAL.0>
26.3805

>  <SCORE.INTRA.POLAR>
0

>  <SCORE.INTRA.POLAR.0>
0

>  <SCORE.INTRA.REPUL>
0

>  <SCORE.INTRA.REPUL.0>
0

>  <SCORE.INTRA.SOLV>
4.17732

>  <SCORE.INTRA.SOLV.lig_0>
-98.5587

>  <SCORE.INTRA.VDW>
-3.81448

>  <SCORE.INTRA.VDW.0>
-2.91167

>  <SCORE.INTRA.norm>
-0.274901

>  <SCORE.RESTR>
0.0388346

>  <SCORE.RESTR.CAVITY>
0.0388346

>  <SCORE.RESTR.norm>
0.00107874

>  <SCORE.SYSTEM>
0

>  <SCORE.SYSTEM.CONST>
0

>  <SCORE.SYSTEM.DIHEDRAL>
0

>  <SCORE.SYSTEM.SOLV>
0

>  <SCORE.SYSTEM.norm>
0

>  <SCORE.heavy>
36

>  <SCORE.norm>
-0.39377

>  <RMSD>
9.372

$$$$
2f4u_lig
 OpenBabel11021811433D
libRbt.so/2013.1/901 2013/11/27
 36 37  0  0  0  0  0  0  0  0999 V2000
   41.9456    4.8330    5.1337 C   0  0  2  0  0  0  0  0  0  0  0  0
   40.6749    4.1230    4.8902 O   0  0  0  0  0  0  0  0  0  0  0  0
   36.4583    5.1780    4.8458 C   0  0  2  0  0  0  0  0  0  0  0  0
   35.1564    5.7439    5.2926 N   0  0  0  0  0  0  0  0  0  0  0  0
   43.0880    3.8831    4.6577 C   0  0  2  0  0  0  0  0  0  0  0  0
   42.9666    3.5169    3.2345 N   0  0  0  0  0  0  0  0  0  0  0  0
   37.0120    4.1195    5.8637 C   0  0  0  0  0  0  0  0  0  0  0  0
   35.3424    6.6699    6.8077 C   0  0  0  0  0  0  0  0  0  0  0  0
   33.8498    6.7697    6.7627 C   0  0  1  0  0  0  0  0  0  0  0  0
   33.3903    7.3044    8.1237 C   0  0  0  0  0  0  0  0  0  0  0  0
   31.9254    7.0138    8.4991 C   0  0  0  0  0  0  0  0  0  0  0  0
   31.7838    5.5773    8.7451 N   0  0  0  0  0  0  0  0  0  0  0  0
   33.4536    7.6948    5.7873 O   0  0  0  0  0  0  0  0  0  0  0  0
   36.3843    7.7941    2.5825 C   0  0  0  0  0  0  0  0  0  0  0  0
   35.7825    9.1564    2.8934 C   0  0  0  0  0  0  0  0  0  0  0  0
   43.0766    2.5951    5.5463 C   0  0  1  0  0  0  0  0  0  0  0  0
   36.7778   10.1945    3.2291 N   0  0  0  0  0  0  0  0  0  0  0  0
   44.0983    1.6866    5.1435 O   0  0  0  0  0  0  0  0  0  0  0  0
   38.3869    3.5802    5.4196 C   0  0  2  0  0  0  0  0  0  0  0  0
   38.9214    2.6311    6.3881 N   0  0  0  0  0  0  0  0  0  0  0  0
   38.3444   12.0689    2.7468 C   0  0  0  0  0  0  0  0  0  0  0  0
   39.6006   11.3364    3.3069 C   0  0  0  0  0  0  0  0  0  0  0  0
   37.2798   11.1023    2.1654 C   0  0  0  0  0  0  0  0  0  0  0  0
   39.2785   10.5269    4.5202 N   0  0  0  0  0  0  0  0  0  0  0  0
   36.1586    6.9466    7.4547 O   0  0  0  0  0  0  0  0  0  0  0  0
   43.2520    3.0236    7.0169 C   0  0  2  0  0  0  0  0  0  0  0  0
   43.2456    1.9149    7.9127 O   0  0  0  0  0  0  0  0  0  0  0  0
   39.3778    4.7176    5.2719 C   0  0  2  0  0  0  0  0  0  0  0  0
   42.1520    4.0164    7.4340 C   0  0  2  0  0  0  0  0  0  0  0  0
   42.1127    5.1397    6.5470 O   0  0  0  0  0  0  0  0  0  0  0  0
   38.8420    5.7617    4.2102 C   0  0  2  0  0  0  0  0  0  0  0  0
   39.8071    6.8549    4.1017 O   0  0  0  0  0  0  0  0  0  0  0  0
   42.3497    4.5130    8.8412 C   0  0  0  0  0  0  0  0  0  0  0  0
   41.2923    5.3065    9.2253 O   0  0  0  0  0  0  0  0  0  0  0  0
   37.4565    6.3088    4.6942 C   0  0  1  0  0  0  0  0  0  0  0  0
   36.9224    7.2447    3.8037 O   0  0  0  0  0  0  0  0  0  0  0  0
  1  2  1  1  0  0  0
  1  5  1  0  0  0  0
  1 30  1  0  0  0  0
  3  4  1  1  0  0  0
  3  7  1  0  0  0  0
  3 35  1  0  0  0  0
  5  6  1  6  0  0  0
  5 16  1  0  0  0  0
  7 19  1  0  0  0  0
  8  4  1  0  0  0  0
  8 25  2  0  0  0  0
  9  8  1  1  0  0  0
  9 10  1  0  0  0  0
  9 13  1  0  0  0  0
 10 11  1  0  0  0  0
 11 12  1  0  0  0  0
 14 15  1  0  0  0  0
 14 36  1  0  0  0  0
 15 17  1  0  0  0  0
 16 18  1  6  0  0  0
 16 26  1  0  0  0  0
 17 23  1  0  0  0  0
 19 20  1  1  0  0  0
 19 28  1  0  0  0  0
 21 22  1  0  0  0  0
 21 23  1  0  0  0  0
 22 24  1  0  0  0  0
 26 27  1  1  0  0  0
 26 29  1  0  0  0  0
 28  2  1  6  0  0  0
 28 31  1  0  0  0  0
 29 30  1  0  0  0  0
 29 33  1  1  0  0  0
 31 32  1  1  0  0  0
 31 35  1  0  0  0  0
 33 34  1  0  0  0  0
 35 36  1  6  0  0  0
M  END
>  <CHROM.1>
177.79674129,64.64656078,168.29303736,-158.50453805,69.22502237,69.36391351
167.41236118,94.68664118,-178.11192741,-67.32657580,61.75261765,-157.44973506
-174.83328771,-59.64181238,38.58149266,6.02350331,5.54495198,-0.49973782
0.29827934,-0.66099345

>  <Name>
2f4u_lig

>  <RI>
0

>  <Rbt.Current_Directory>
/home/itssahil/PROJECTS/Mol_Feturizer/New_Systems/rnas/2f4u

>  <Rbt.Executable>
rbdock ($Id: //depot/dev/client3/rdock/2013.1/src/exe/rbdock.cxx#4 $)

>  <Rbt.Library>
libRbt.so (2013.1, Build901 2013/11/27)

>  <Rbt.Parameter_File>
/export/apps/rDock/src/rDock_2013.1_src/data/scripts/dock_solv.prm

>  <Rbt.Receptor>
prm/pocket_docking_4.prm

>  <SCORE>
-17.2101

>  <SCORE.INTER>
-8.1161

>  <SCORE.INTER.CONST>
1

>  <SCORE.INTER.POLAR>
-1.83354

>  <SCORE.INTER.ROT>
14

>  <SCORE.INTER.SOLV>
10.8026

>  <SCORE.INTER.VDW>
-15.8331

>  <SCORE.INTER.norm>
-0.225447

>  <SCORE.INTRA>
-9.09526

>  <SCORE.INTRA.DIHEDRAL>
-19.2817

>  <SCORE.INTRA.DIHEDRAL.0>
26.3805

>  <SCORE.INTRA.POLAR>
0

>  <SCORE.INTRA.POLAR.0>
0

>  <SCORE.INTRA.REPUL>
0

>  <SCORE.INTRA.REPUL.0>
0

>  <SCORE.INTRA.SOLV>
5.22707

>  <SCORE.INTRA.SOLV.lig_0>
-98.5587

>  <SCORE.INTRA.VDW>
-2.06795

>  <SCORE.INTRA.VDW.0>
-2.91167

>  <SCORE.INTRA.norm>
-0.252646

>  <SCORE.RESTR>
0.00123671

>  <SCORE.RESTR.CAVITY>
0.00123671

>  <SCORE.RESTR.norm>
3.4353e-05

>  <SCORE.SYSTEM>
0

>  <SCORE.SYSTEM.CONST>
0

>  <SCORE.SYSTEM.DIHEDRAL>
0

>  <SCORE.SYSTEM.SOLV>
0

>  <SCORE.SYSTEM.norm>
0

>  <SCORE.heavy>
36

>  <SCORE.norm>
-0.478059

>  <RMSD>
9.380

$$$$
2f4u_lig
 OpenBabel11021811433D
libRbt.so/2013.1/901 2013/11/27
 36 37  0  0  0  0  0  0  0  0999 V2000
   36.4004    6.5350   10.5741 C   0  0  2  0  0  0  0  0  0  0  0  0
   36.9697    6.2232    9.2487 O   0  0  0  0  0  0  0  0  0  0  0  0
   37.8554    8.6811    5.7746 C   0  0  2  0  0  0  0  0  0  0  0  0
   38.4109    9.7937    4.9571 N   0  0  0  0  0  0  0  0  0  0  0  0
   37.6055    6.7128   11.5489 C   0  0  2  0  0  0  0  0  0  0  0  0
   38.5299    7.7790   11.1211 N   0  0  0  0  0  0  0  0  0  0  0  0
   36.9184    9.2107    6.9168 C   0  0  0  0  0  0  0  0  0  0  0  0
   37.2093   10.3893    3.7785 C   0  0  0  0  0  0  0  0  0  0  0  0
   38.3367   11.2320    3.2699 C   0  0  1  0  0  0  0  0  0  0  0  0
   37.7627   12.1493    2.1843 C   0  0  0  0  0  0  0  0  0  0  0  0
   38.7904   12.9886    1.4027 C   0  0  0  0  0  0  0  0  0  0  0  0
   38.0690   13.8664    0.4792 N   0  0  0  0  0  0  0  0  0  0  0  0
   38.8350   12.0475    4.2951 O   0  0  0  0  0  0  0  0  0  0  0  0
   40.9418    6.8294    4.6727 C   0  0  0  0  0  0  0  0  0  0  0  0
   42.2333    7.4100    5.2292 C   0  0  0  0  0  0  0  0  0  0  0  0
   38.3700    5.3520   11.6598 C   0  0  1  0  0  0  0  0  0  0  0  0
   43.4441    7.0200    4.4789 N   0  0  0  0  0  0  0  0  0  0  0  0
   39.4905    5.4644   12.5335 O   0  0  0  0  0  0  0  0  0  0  0  0
   36.3924    8.0546    7.7918 C   0  0  2  0  0  0  0  0  0  0  0  0
   35.5590    8.5508    8.8796 N   0  0  0  0  0  0  0  0  0  0  0  0
   44.8449    5.4632    5.8257 C   0  0  0  0  0  0  0  0  0  0  0  0
   45.3043    3.9941    6.0687 C   0  0  0  0  0  0  0  0  0  0  0  0
   43.9478    5.6252    4.5709 C   0  0  0  0  0  0  0  0  0  0  0  0
   46.1070    3.8617    7.3215 N   0  0  0  0  0  0  0  0  0  0  0  0
   36.1825   10.1695    3.5364 O   0  0  0  0  0  0  0  0  0  0  0  0
   37.3767    4.2809   12.1530 C   0  0  2  0  0  0  0  0  0  0  0  0
   37.9788    2.9951   12.2787 O   0  0  0  0  0  0  0  0  0  0  0  0
   37.5478    7.2798    8.3935 C   0  0  2  0  0  0  0  0  0  0  0  0
   36.1645    4.1811   11.2096 C   0  0  2  0  0  0  0  0  0  0  0  0
   35.5394    5.4583   11.0418 O   0  0  0  0  0  0  0  0  0  0  0  0
   38.4671    6.7053    7.2405 C   0  0  2  0  0  0  0  0  0  0  0  0
   39.5811    5.9794    7.8491 O   0  0  0  0  0  0  0  0  0  0  0  0
   35.1407    3.1998   11.7148 C   0  0  0  0  0  0  0  0  0  0  0  0
   34.6941    3.5694   12.9634 O   0  0  0  0  0  0  0  0  0  0  0  0
   39.0041    7.8990    6.3804 C   0  0  1  0  0  0  0  0  0  0  0  0
   39.8318    7.4653    5.3407 O   0  0  0  0  0  0  0  0  0  0  0  0
  1  2  1  6  0  0  0
  1  5  1  0  0  0  0
  1 30  1  0  0  0  0
  3  4  1  1  0  0  0
  3  7  1  0  0  0  0
  3 35  1  0  0  0  0
  5  6  1  6  0  0  0
  5 16  1  0  0  0  0
  7 19  1  0  0  0  0
  8  4  1  0  0  0  0
  8 25  2  0  0  0  0
  9  8  1  1  0  0  0
  9 10  1  0  0  0  0
  9 13  1  0  0  0  0
 10 11  1  0  0  0  0
 11 12  1  0  0  0  0
 14 15  1  0  0  0  0
 14 36  1  0  0  0  0
 15 17  1  0  0  0  0
 16 18  1  1  0  0  0
 16 26  1  0  0  0  0
 17 23  1  0  0  0  0
 19 20  1  1  0  0  0
 19 28  1  0  0  0  0
 21 22  1  0  0  0  0
 21 23  1  0  0  0  0
 22 24  1  0  0  0  0
 26 27  1  6  0  0  0
 26 29  1  0  0  0  0
 28  2  1  6  0  0  0
 28 31  1  0  0  0  0
 29 30  1  0  0  0  0
 29 33  1  1  0  0  0
 31 32  1  1  0  0  0
 31 35  1  0  0  0  0
 33 34  1  0  0  0  0
 35 36  1  6  0  0  0
M  END
>  <CHROM.1>
-77.91647739,-78.84361990,-174.88160662,-172.90913324,-176.15586993,-170.13101987
-56.61919655,-71.61346739,-84.41309085,-177.07333300,174.54123939,-75.79837591
58.97749374,179.07545154,38.76666181,7.31421320,7.38687063,1.80046337,-0.41083196
2.27392500

>  <Name>
2f4u_lig

>  <RI>
0

>  <Rbt.Current_Directory>
/home/itssahil/PROJECTS/Mol_Feturizer/New_Systems/rnas/2f4u

>  <Rbt.Executable>
rbdock ($Id: //depot/dev/client3/rdock/2013.1/src/exe/rbdock.cxx#4 $)

>  <Rbt.Library>
libRbt.so (2013.1, Build901 2013/11/27)

>  <Rbt.Parameter_File>
/export/apps/rDock/src/rDock_2013.1_src/data/scripts/dock_solv.prm

>  <Rbt.Receptor>
prm/pocket_docking_4.prm

>  <SCORE>
-26.1222

>  <SCORE.INTER>
-17.7901

>  <SCORE.INTER.CONST>
1

>  <SCORE.INTER.POLAR>
-3.13725

>  <SCORE.INTER.ROT>
14

>  <SCORE.INTER.SOLV>
17.4832

>  <SCORE.INTER.VDW>
-20.1636

>  <SCORE.INTER.norm>
-0.49417

>  <SCORE.INTRA>
-8.33206

>  <SCORE.INTRA.DIHEDRAL>
-21.256

>  <SCORE.INTRA.DIHEDRAL.0>
26.3805

>  <SCORE.INTRA.POLAR>
0

>  <SCORE.INTRA.POLAR.0>
0

>  <SCORE.INTRA.REPUL>
0

>  <SCORE.INTRA.REPUL.0>
0

>  <SCORE.INTRA.SOLV>
2.34089

>  <SCORE.INTRA.SOLV.lig_0>
-98.5587

>  <SCORE.INTRA.VDW>
1.12547

>  <SCORE.INTRA.VDW.0>
-2.91167

>  <SCORE.INTRA.norm>
-0.231446

>  <SCORE.RESTR>
0

>  <SCORE.RESTR.CAVITY>
0

>  <SCORE.RESTR.norm>
0

>  <SCORE.SYSTEM>
0

>  <SCORE.SYSTEM.CONST>
0

>  <SCORE.SYSTEM.DIHEDRAL>
0

>  <SCORE.SYSTEM.SOLV>
0

>  <SCORE.SYSTEM.norm>
0

>  <SCORE.heavy>
36

>  <SCORE.norm>
-0.725616

>  <RMSD>
9.387

$$$$
2f4u_lig
 OpenBabel11021811433D
libRbt.so/2013.1/901 2013/11/27
 36 37  0  0  0  0  0  0  0  0999 V2000
   39.5942    4.3988   10.0285 C   0  0  2  0  0  0  0  0  0  0  0  0
   38.5507    4.8551    9.0900 O   0  0  0  0  0  0  0  0  0  0  0  0
   38.5443    7.5227    5.6580 C   0  0  2  0  0  0  0  0  0  0  0  0
   38.6990    8.7680    4.8579 N   0  0  0  0  0  0  0  0  0  0  0  0
   39.2775    2.9075   10.3602 C   0  0  2  0  0  0  0  0  0  0  0  0
   39.2534    2.0513    9.1600 N   0  0  0  0  0  0  0  0  0  0  0  0
   37.5039    7.7033    6.8190 C   0  0  0  0  0  0  0  0  0  0  0  0
   37.1236    9.3363    4.2395 C   0  0  0  0  0  0  0  0  0  0  0  0
   37.9400   10.3497    3.5004 C   0  0  1  0  0  0  0  0  0  0  0  0
   37.0156   11.0161    2.4753 C   0  0  0  0  0  0  0  0  0  0  0  0
   37.6964   11.9754    1.4815 C   0  0  0  0  0  0  0  0  0  0  0  0
   36.6758   12.5131    0.5797 N   0  0  0  0  0  0  0  0  0  0  0  0
   38.3890   11.3459    4.3780 O   0  0  0  0  0  0  0  0  0  0  0  0
   41.5634    7.3627    4.0067 C   0  0  0  0  0  0  0  0  0  0  0  0
   42.2896    6.1168    3.5219 C   0  0  0  0  0  0  0  0  0  0  0  0
   37.8995    2.8362   11.0982 C   0  0  1  0  0  0  0  0  0  0  0  0
   43.3417    5.6348    4.4394 N   0  0  0  0  0  0  0  0  0  0  0  0
   37.5577    1.4892   11.4147 O   0  0  0  0  0  0  0  0  0  0  0  0
   37.3920    6.4255    7.6754 C   0  0  2  0  0  0  0  0  0  0  0  0
   36.4595    6.6087    8.7805 N   0  0  0  0  0  0  0  0  0  0  0  0
   45.7533    5.4653    5.0354 C   0  0  0  0  0  0  0  0  0  0  0  0
   46.1766    4.4305    3.9499 C   0  0  0  0  0  0  0  0  0  0  0  0
   44.6066    6.4025    4.5746 C   0  0  0  0  0  0  0  0  0  0  0  0
   45.0802    3.4627    3.6455 N   0  0  0  0  0  0  0  0  0  0  0  0
   36.0955    9.0252    4.3275 O   0  0  0  0  0  0  0  0  0  0  0  0
   37.9877    3.7077   12.3671 C   0  0  2  0  0  0  0  0  0  0  0  0
   36.7707    3.7157   13.1091 O   0  0  0  0  0  0  0  0  0  0  0  0
   38.7444    6.0552    8.2509 C   0  0  2  0  0  0  0  0  0  0  0  0
   38.3729    5.1553   12.0127 C   0  0  2  0  0  0  0  0  0  0  0  0
   39.5841    5.1909   11.2499 O   0  0  0  0  0  0  0  0  0  0  0  0
   39.7823    5.8266    7.0783 C   0  0  2  0  0  0  0  0  0  0  0  0
   41.0799    5.4892    7.6620 O   0  0  0  0  0  0  0  0  0  0  0  0
   38.5459    6.0061   13.2425 C   0  0  0  0  0  0  0  0  0  0  0  0
   39.5985    5.5471   14.0018 O   0  0  0  0  0  0  0  0  0  0  0  0
   39.8928    7.1434    6.2375 C   0  0  1  0  0  0  0  0  0  0  0  0
   40.8003    7.0166    5.1817 O   0  0  0  0  0  0  0  0  0  0  0  0
  1  2  1  6  0  0  0
  1  5  1  0  0  0  0
  1 30  1  0  0  0  0
  3  4  1  1  0  0  0
  3  7  1  0  0  0  0
  3 35  1  0  0  0  0
  5  6  1  6  0  0  0
  5 16  1  0  0  0  0
  7 19  1  0  0  0  0
  8  4  1  0  0  0  0
  8 25  2  0  0  0  0
  9  8  1  1  0  0  0
  9 10  1  0  0  0  0
  9 13  1  0  0  0  0
 10 11  1  0  0  0  0
 11 12  1  0  0  0  0
 14 15  1  0  0  0  0
 14 36  1  0  0  0  0
 15 17  1  0  0  0  0
 16 18  1  1  0  0  0
 16 26  1  0  0  0  0
 17 23  1  0  0  0  0
 19 20  1  1  0  0  0
 19 28  1  0  0  0  0
 21 22  1  0  0  0  0
 21 23  1  0  0  0  0
 22 24  1  0  0  0  0
 26 27  1  6  0  0  0
 26 29  1  0  0  0  0
 28  2  1  6  0  0  0
 28 31  1  0  0  0  0
 29 30  1  0  0  0  0
 29 33  1  1  0  0  0
 31 32  1  1  0  0  0
 31 35  1  0  0  0  0
 33 34  1  0  0  0  0
 35 36  1  6  0  0  0
M  END
>  <CHROM.1>
-161.20384207,-54.83101316,168.01537322,-172.70939142,179.76707826,-67.12778366
-171.53084237,-71.76885384,-154.77226802,-65.08642663,68.84256931,-166.58004212
64.12292626,54.73001068,39.48990755,6.40170702,7.14073098,-1.66392983,0.49887941
-0.95619682

>  <Name>
2f4u_lig

>  <RI>
0

>  <Rbt.Current_Directory>
/home/itssahil/PROJECTS/Mol_Feturizer/New_Systems/rnas/2f4u

>  <Rbt.Executable>
rbdock ($Id: //depot/dev/client3/rdock/2013.1/src/exe/rbdock.cxx#4 $)

>  <Rbt.Library>
libRbt.so (2013.1, Build901 2013/11/27)

>  <Rbt.Parameter_File>
/export/apps/rDock/src/rDock_2013.1_src/data/scripts/dock_solv.prm

>  <Rbt.Receptor>
prm/pocket_docking_4.prm

>  <SCORE>
-22.631

>  <SCORE.INTER>
-13.2152

>  <SCORE.INTER.CONST>
1

>  <SCORE.INTER.POLAR>
-0.979796

>  <SCORE.INTER.ROT>
14

>  <SCORE.INTER.SOLV>
11.5108

>  <SCORE.INTER.VDW>
-22.3144

>  <SCORE.INTER.norm>
-0.367088

>  <SCORE.INTRA>
-9.87686

>  <SCORE.INTRA.DIHEDRAL>
-21.1026

>  <SCORE.INTRA.DIHEDRAL.0>
26.3805

>  <SCORE.INTRA.POLAR>
0

>  <SCORE.INTRA.POLAR.0>
0

>  <SCORE.INTRA.REPUL>
0

>  <SCORE.INTRA.REPUL.0>
0

>  <SCORE.INTRA.SOLV>
2.82825

>  <SCORE.INTRA.SOLV.lig_0>
-98.5587

>  <SCORE.INTRA.VDW>
-0.739664

>  <SCORE.INTRA.VDW.0>
-2.91167

>  <SCORE.INTRA.norm>
-0.274357

>  <SCORE.RESTR>
0.46108

>  <SCORE.RESTR.CAVITY>
0.46108

>  <SCORE.RESTR.norm>
0.0128078

>  <SCORE.SYSTEM>
0

>  <SCORE.SYSTEM.CONST>
0

>  <SCORE.SYSTEM.DIHEDRAL>
0

>  <SCORE.SYSTEM.SOLV>
0

>  <SCORE.SYSTEM.norm>
0

>  <SCORE.heavy>
36

>  <SCORE.norm>
-0.628638

>  <RMSD>
9.420

$$$$
2f4u_lig
 OpenBabel11021811433D
libRbt.so/2013.1/901 2013/11/27
 36 37  0  0  0  0  0  0  0  0999 V2000
   46.6060    3.1559    5.1440 C   0  0  2  0  0  0  0  0  0  0  0  0
   45.5981    2.7679    6.1498 O   0  0  0  0  0  0  0  0  0  0  0  0
   41.8657    4.8183    7.0217 C   0  0  2  0  0  0  0  0  0  0  0  0
   40.9157    5.7894    7.6294 N   0  0  0  0  0  0  0  0  0  0  0  0
   47.5383    1.9210    4.9444 C   0  0  2  0  0  0  0  0  0  0  0  0
   46.8046    0.7207    4.5025 N   0  0  0  0  0  0  0  0  0  0  0  0
   42.5735    3.9381    8.1114 C   0  0  0  0  0  0  0  0  0  0  0  0
   39.4124    4.9797    8.1507 C   0  0  0  0  0  0  0  0  0  0  0  0
   38.9358    6.3674    8.4459 C   0  0  1  0  0  0  0  0  0  0  0  0
   37.4288    6.2819    8.7122 C   0  0  0  0  0  0  0  0  0  0  0  0
   36.6969    7.6281    8.8652 C   0  0  0  0  0  0  0  0  0  0  0  0
   37.4515    8.4648    9.8004 N   0  0  0  0  0  0  0  0  0  0  0  0
   39.5459    6.8535    9.6103 O   0  0  0  0  0  0  0  0  0  0  0  0
   42.0460    7.3383    4.2317 C   0  0  0  0  0  0  0  0  0  0  0  0
   40.5644    7.3752    3.8880 C   0  0  0  0  0  0  0  0  0  0  0  0
   48.2847    1.6294    6.2885 C   0  0  1  0  0  0  0  0  0  0  0  0
   39.7071    7.9093    4.9655 N   0  0  0  0  0  0  0  0  0  0  0  0
   49.1440    0.4995    6.1618 O   0  0  0  0  0  0  0  0  0  0  0  0
   43.5960    2.9739    7.4760 C   0  0  2  0  0  0  0  0  0  0  0  0
   44.2856    2.1888    8.4920 N   0  0  0  0  0  0  0  0  0  0  0  0
   37.6828    9.2771    4.4843 C   0  0  0  0  0  0  0  0  0  0  0  0
   36.1744    9.2772    4.0933 C   0  0  0  0  0  0  0  0  0  0  0  0
   38.2293    7.8645    4.8187 C   0  0  0  0  0  0  0  0  0  0  0  0
   35.3138    8.7481    5.1936 N   0  0  0  0  0  0  0  0  0  0  0  0
   39.0384    3.9691    8.1657 O   0  0  0  0  0  0  0  0  0  0  0  0
   49.0723    2.8941    6.6855 C   0  0  2  0  0  0  0  0  0  0  0  0
   49.7839    2.7317    7.9098 O   0  0  0  0  0  0  0  0  0  0  0  0
   44.6336    3.7485    6.6883 C   0  0  2  0  0  0  0  0  0  0  0  0
   48.1352    4.1096    6.8032 C   0  0  2  0  0  0  0  0  0  0  0  0
   47.3867    4.2980    5.5972 O   0  0  0  0  0  0  0  0  0  0  0  0
   43.9244    4.5999    5.5584 C   0  0  2  0  0  0  0  0  0  0  0  0
   44.9455    5.3493    4.8277 O   0  0  0  0  0  0  0  0  0  0  0  0
   48.8930    5.3737    7.1093 C   0  0  0  0  0  0  0  0  0  0  0  0
   48.0451    6.4582    7.0997 O   0  0  0  0  0  0  0  0  0  0  0  0
   42.9078    5.5839    6.2304 C   0  0  1  0  0  0  0  0  0  0  0  0
   42.2443    6.3759    5.2887 O   0  0  0  0  0  0  0  0  0  0  0  0
  1  2  1  1  0  0  0
  1  5  1  0  0  0  0
  1 30  1  0  0  0  0
  3  4  1  1  0  0  0
  3  7  1  0  0  0  0
  3 35  1  0  0  0  0
  5  6  1  1  0  0  0
  5 16  1  0  0  0  0
  7 19  1  0  0  0  0
  8  4  1  0  0  0  0
  8 25  2  0  0  0  0
  9  8  1  1  0  0  0
  9 10  1  0  0  0  0
  9 13  1  0  0  0  0
 10 11  1  0  0  0  0
 11 12  1  0  0  0  0
 14 15  1  0  0  0  0
 14 36  1  0  0  0  0
 15 17  1  0  0  0  0
 16 18  1  6  0  0  0
 16 26  1  0  0  0  0
 17 23  1  0  0  0  0
 19 20  1  1  0  0  0
 19 28  1  0  0  0  0
 21 22  1  0  0  0  0
 21 23  1  0  0  0  0
 22 24  1  0  0  0  0
 26 27  1  1  0  0  0
 26 29  1  0  0  0  0
 28  2  1  6  0  0  0
 28 31  1  0  0  0  0
 29 30  1  0  0  0  0
 29 33  1  6  0  0  0
 31 32  1  1  0  0  0
 31 35  1  0  0  0  0
 33 34  1  0  0  0  0
 35 36  1  6  0  0  0
M  END
>  <CHROM.1>
173.50889505,-75.90324995,168.51560883,-172.61231475,-48.42647458,66.69783745
177.53780753,-173.42383426,-104.64634046,60.03433918,170.88467908,169.35605743
175.05987011,176.67019192,42.97149034,5.12124823,6.53429947,-0.20702844,0.39885333
-1.00410814

>  <Name>
2f4u_lig

>  <RI>
0

>  <Rbt.Current_Directory>
/home/itssahil/PROJECTS/Mol_Feturizer/New_Systems/rnas/2f4u

>  <Rbt.Executable>
rbdock ($Id: //depot/dev/client3/rdock/2013.1/src/exe/rbdock.cxx#4 $)

>  <Rbt.Library>
libRbt.so (2013.1, Build901 2013/11/27)

>  <Rbt.Parameter_File>
/export/apps/rDock/src/rDock_2013.1_src/data/scripts/dock_solv.prm

>  <Rbt.Receptor>
prm/pocket_docking_5.prm

>  <SCORE>
-13.4497

>  <SCORE.INTER>
-2.71922

>  <SCORE.INTER.CONST>
1

>  <SCORE.INTER.POLAR>
-1.37725

>  <SCORE.INTER.ROT>
14

>  <SCORE.INTER.SOLV>
15.9402

>  <SCORE.INTER.VDW>
-15.4687

>  <SCORE.INTER.norm>
-0.0755339

>  <SCORE.INTRA>
-10.7305

>  <SCORE.INTRA.DIHEDRAL>
-22.1453

>  <SCORE.INTRA.DIHEDRAL.0>
26.3805

>  <SCORE.INTRA.POLAR>
0

>  <SCORE.INTRA.POLAR.0>
0

>  <SCORE.INTRA.REPUL>
0

>  <SCORE.INTRA.REPUL.0>
0

>  <SCORE.INTRA.SOLV>
2.96492

>  <SCORE.INTRA.SOLV.lig_0>
-98.5587

>  <SCORE.INTRA.VDW>
-1.14031

>  <SCORE.INTRA.VDW.0>
-2.91167

>  <SCORE.INTRA.norm>
-0.298069

>  <SCORE.RESTR>
0

>  <SCORE.RESTR.CAVITY>
0

>  <SCORE.RESTR.norm>
0

>  <SCORE.SYSTEM>
0

>  <SCORE.SYSTEM.CONST>
0

>  <SCORE.SYSTEM.DIHEDRAL>
0

>  <SCORE.SYSTEM.SOLV>
0

>  <SCORE.SYSTEM.norm>
0

>  <SCORE.heavy>
36

>  <SCORE.norm>
-0.373603

>  <RMSD>
9.430

$$$$
2f4u_lig
 OpenBabel11021811433D
libRbt.so/2013.1/901 2013/11/27
 36 37  0  0  0  0  0  0  0  0999 V2000
   41.5869    2.9810    8.0652 C   0  0  2  0  0  0  0  0  0  0  0  0
   40.1176    3.0997    7.9957 O   0  0  0  0  0  0  0  0  0  0  0  0
   37.1409    3.9377   11.0505 C   0  0  2  0  0  0  0  0  0  0  0  0
   36.2725    3.7439   12.2435 N   0  0  0  0  0  0  0  0  0  0  0  0
   42.1475    3.5689    6.7332 C   0  0  2  0  0  0  0  0  0  0  0  0
   41.7532    4.9739    6.5218 N   0  0  0  0  0  0  0  0  0  0  0  0
   36.8886    2.8350    9.9626 C   0  0  0  0  0  0  0  0  0  0  0  0
   34.6234    4.3604   11.9469 C   0  0  0  0  0  0  0  0  0  0  0  0
   34.4011    4.0510   13.3942 C   0  0  1  0  0  0  0  0  0  0  0  0
   33.3282    5.0193   13.9049 C   0  0  0  0  0  0  0  0  0  0  0  0
   32.9506    4.8792   15.3912 C   0  0  0  0  0  0  0  0  0  0  0  0
   31.8730    5.8247   15.6891 N   0  0  0  0  0  0  0  0  0  0  0  0
   33.9033    2.7492   13.5421 O   0  0  0  0  0  0  0  0  0  0  0  0
   39.4517    5.7210   13.4255 C   0  0  0  0  0  0  0  0  0  0  0  0
   38.4018    6.4890   14.2145 C   0  0  0  0  0  0  0  0  0  0  0  0
   41.6476    2.6859    5.5419 C   0  0  1  0  0  0  0  0  0  0  0  0
   37.4907    7.2982   13.3801 N   0  0  0  0  0  0  0  0  0  0  0  0
   42.1249    3.1890    4.2967 O   0  0  0  0  0  0  0  0  0  0  0  0
   37.8317    3.0124    8.7552 C   0  0  2  0  0  0  0  0  0  0  0  0
   37.6283    1.9617    7.7657 N   0  0  0  0  0  0  0  0  0  0  0  0
   35.4751    8.6884   12.9275 C   0  0  0  0  0  0  0  0  0  0  0  0
   34.2711    9.4836   13.5159 C   0  0  0  0  0  0  0  0  0  0  0  0
   36.3424    7.9978   14.0122 C   0  0  0  0  0  0  0  0  0  0  0  0
   33.3542    9.9785   12.4456 N   0  0  0  0  0  0  0  0  0  0  0  0
   34.0960    4.8026   11.1176 O   0  0  0  0  0  0  0  0  0  0  0  0
   42.1217    1.2389    5.7835 C   0  0  2  0  0  0  0  0  0  0  0  0
   41.7060    0.3489    4.7506 O   0  0  0  0  0  0  0  0  0  0  0  0
   39.2786    2.9689    9.2043 C   0  0  2  0  0  0  0  0  0  0  0  0
   41.6128    0.7138    7.1380 C   0  0  2  0  0  0  0  0  0  0  0  0
   41.9951    1.5904    8.2036 O   0  0  0  0  0  0  0  0  0  0  0  0
   39.5456    4.1112   10.2665 C   0  0  2  0  0  0  0  0  0  0  0  0
   40.9415    4.0341   10.6949 O   0  0  0  0  0  0  0  0  0  0  0  0
   42.1314   -0.6682    7.4338 C   0  0  0  0  0  0  0  0  0  0  0  0
   41.6530   -1.5702    6.5105 O   0  0  0  0  0  0  0  0  0  0  0  0
   38.5913    3.8967   11.4898 C   0  0  1  0  0  0  0  0  0  0  0  0
   38.7754    4.8707   12.4755 O   0  0  0  0  0  0  0  0  0  0  0  0
  1  2  1  6  0  0  0
  1  5  1  0  0  0  0
  1 30  1  0  0  0  0
  3  4  1  1  0  0  0
  3  7  1  0  0  0  0
  3 35  1  0  0  0  0
  5  6  1  6  0  0  0
  5 16  1  0  0  0  0
  7 19  1  0  0  0  0
  8  4  1  0  0  0  0
  8 25  2  0  0  0  0
  9  8  1  6  0  0  0
  9 10  1  0  0  0  0
  9 13  1  0  0  0  0
 10 11  1  0  0  0  0
 11 12  1  0  0  0  0
 14 15  1  0  0  0  0
 14 36  1  0  0  0  0
 15 17  1  0  0  0  0
 16 18  1  6  0  0  0
 16 26  1  0  0  0  0
 17 23  1  0  0  0  0
 19 20  1  6  0  0  0
 19 28  1  0  0  0  0
 21 22  1  0  0  0  0
 21 23  1  0  0  0  0
 22 24  1  0  0  0  0
 26 27  1  6  0  0  0
 26 29  1  0  0  0  0
 28  2  1  6  0  0  0
 28 31  1  0  0  0  0
 29 30  1  0  0  0  0
 29 33  1  1  0  0  0
 31 32  1  1  0  0  0
 31 35  1  0  0  0  0
 33 34  1  0  0  0  0
 35 36  1  1  0  0  0
M  END
>  <CHROM.1>
-164.04290833,-79.71321888,151.69832124,-179.56647774,-177.10971332,-57.33783921
-173.81061867,174.40030363,-175.72900627,-172.22408851,-178.21473004,-174.77182703
-63.93201633,-173.56845457,38.18003512,3.99359809,10.30113981,-0.68354594
0.61283092,0.36592174

>  <Name>
2f4u_lig

>  <RI>
0

>  <Rbt.Current_Directory>
/home/itssahil/PROJECTS/Mol_Feturizer/New_Systems/rnas/2f4u

>  <Rbt.Executable>
rbdock ($Id: //depot/dev/client3/rdock/2013.1/src/exe/rbdock.cxx#4 $)

>  <Rbt.Library>
libRbt.so (2013.1, Build901 2013/11/27)

>  <Rbt.Parameter_File>
/export/apps/rDock/src/rDock_2013.1_src/data/scripts/dock_solv.prm

>  <Rbt.Receptor>
prm/pocket_docking_7.prm

>  <SCORE>
-17.7485

>  <SCORE.INTER>
-4.55856

>  <SCORE.INTER.CONST>
1

>  <SCORE.INTER.POLAR>
-0.778777

>  <SCORE.INTER.ROT>
14

>  <SCORE.INTER.SOLV>
7.74518

>  <SCORE.INTER.VDW>
-15.9582

>  <SCORE.INTER.norm>
-0.126627

>  <SCORE.INTRA>
-13.1899

>  <SCORE.INTRA.DIHEDRAL>
-22.5139

>  <SCORE.INTRA.DIHEDRAL.0>
26.3805

>  <SCORE.INTRA.POLAR>
0

>  <SCORE.INTRA.POLAR.0>
0

>  <SCORE.INTRA.REPUL>
0

>  <SCORE.INTRA.REPUL.0>
0

>  <SCORE.INTRA.SOLV>
-0.32168

>  <SCORE.INTRA.SOLV.lig_0>
-98.5587

>  <SCORE.INTRA.VDW>
-1.7721

>  <SCORE.INTRA.VDW.0>
-2.91167

>  <SCORE.INTRA.norm>
-0.366386

>  <SCORE.RESTR>
0

>  <SCORE.RESTR.CAVITY>
0

>  <SCORE.RESTR.norm>
0

>  <SCORE.SYSTEM>
0

>  <SCORE.SYSTEM.CONST>
0

>  <SCORE.SYSTEM.DIHEDRAL>
0

>  <SCORE.SYSTEM.SOLV>
0

>  <SCORE.SYSTEM.norm>
0

>  <SCORE.heavy>
36

>  <SCORE.norm>
-0.493013

>  <RMSD>
9.447

$$$$
2f4u_lig
 OpenBabel11021811433D
libRbt.so/2013.1/901 2013/11/27
 36 37  0  0  0  0  0  0  0  0999 V2000
   36.3229    6.7489   10.0518 C   0  0  2  0  0  0  0  0  0  0  0  0
   37.2513    6.5628    8.9198 O   0  0  0  0  0  0  0  0  0  0  0  0
   38.0563    8.9907    5.4051 C   0  0  2  0  0  0  0  0  0  0  0  0
   38.4210   10.1745    4.5802 N   0  0  0  0  0  0  0  0  0  0  0  0
   37.1448    7.4102   11.2012 C   0  0  2  0  0  0  0  0  0  0  0  0
   37.7397    8.7000   10.8050 N   0  0  0  0  0  0  0  0  0  0  0  0
   36.8067    9.2759    6.3108 C   0  0  0  0  0  0  0  0  0  0  0  0
   37.1111   10.5948    3.4422 C   0  0  0  0  0  0  0  0  0  0  0  0
   38.0897   11.5928    2.9071 C   0  0  1  0  0  0  0  0  0  0  0  0
   37.4409   12.2537    1.6858 C   0  0  0  0  0  0  0  0  0  0  0  0
   38.2706   13.3536    0.9980 C   0  0  0  0  0  0  0  0  0  0  0  0
   37.4956   13.8896   -0.1227 N   0  0  0  0  0  0  0  0  0  0  0  0
   38.3287   12.5962    3.8560 O   0  0  0  0  0  0  0  0  0  0  0  0
   41.1733    7.7767    4.4383 C   0  0  0  0  0  0  0  0  0  0  0  0
   41.7457    6.4914    5.0172 C   0  0  0  0  0  0  0  0  0  0  0  0
   38.2668    6.4183   11.6549 C   0  0  1  0  0  0  0  0  0  0  0  0
   42.8163    5.8849    4.2005 N   0  0  0  0  0  0  0  0  0  0  0  0
   39.0558    6.9816   12.6997 O   0  0  0  0  0  0  0  0  0  0  0  0
   36.4710    8.0625    7.2016 C   0  0  2  0  0  0  0  0  0  0  0  0
   35.3386    8.3439    8.0750 N   0  0  0  0  0  0  0  0  0  0  0  0
   45.1505    5.8939    5.0674 C   0  0  0  0  0  0  0  0  0  0  0  0
   45.5233    4.4367    4.6603 C   0  0  0  0  0  0  0  0  0  0  0  0
   44.1363    6.5598    4.1012 C   0  0  0  0  0  0  0  0  0  0  0  0
   46.4818    3.8172    5.6241 N   0  0  0  0  0  0  0  0  0  0  0  0
   36.1197   10.2303    3.2287 O   0  0  0  0  0  0  0  0  0  0  0  0
   37.5954    5.1044   12.1021 C   0  0  2  0  0  0  0  0  0  0  0  0
   38.5406    4.1262   12.5282 O   0  0  0  0  0  0  0  0  0  0  0  0
   37.6603    7.6979    8.0676 C   0  0  2  0  0  0  0  0  0  0  0  0
   36.7342    4.5155   10.9703 C   0  0  2  0  0  0  0  0  0  0  0  0
   35.7805    5.4745   10.5004 O   0  0  0  0  0  0  0  0  0  0  0  0
   38.9080    7.3639    7.1532 C   0  0  2  0  0  0  0  0  0  0  0  0
   40.0432    7.0342    8.0137 O   0  0  0  0  0  0  0  0  0  0  0  0
   36.0026    3.2756   11.4103 C   0  0  0  0  0  0  0  0  0  0  0  0
   35.0709    3.5829   12.3760 O   0  0  0  0  0  0  0  0  0  0  0  0
   39.2405    8.6174    6.2748 C   0  0  1  0  0  0  0  0  0  0  0  0
   40.3406    8.3963    5.4410 O   0  0  0  0  0  0  0  0  0  0  0  0
  1  2  1  6  0  0  0
  1  5  1  0  0  0  0
  1 30  1  0  0  0  0
  3  4  1  1  0  0  0
  3  7  1  0  0  0  0
  3 35  1  0  0  0  0
  5  6  1  6  0  0  0
  5 16  1  0  0  0  0
  7 19  1  0  0  0  0
  8  4  1  0  0  0  0
  8 25  2  0  0  0  0
  9  8  1  1  0  0  0
  9 10  1  0  0  0  0
  9 13  1  0  0  0  0
 10 11  1  0  0  0  0
 11 12  1  0  0  0  0
 14 15  1  0  0  0  0
 14 36  1  0  0  0  0
 15 17  1  0  0  0  0
 16 18  1  1  0  0  0
 16 26  1  0  0  0  0
 17 23  1  0  0  0  0
 19 20  1  1  0  0  0
 19 28  1  0  0  0  0
 21 22  1  0  0  0  0
 21 23  1  0  0  0  0
 22 24  1  0  0  0  0
 26 27  1  6  0  0  0
 26 29  1  0  0  0  0
 28  2  1  6  0  0  0
 28 31  1  0  0  0  0
 29 30  1  0  0  0  0
 29 33  1  1  0  0  0
 31 32  1  1  0  0  0
 31 35  1  0  0  0  0
 33 34  1  0  0  0  0
 35 36  1  6  0  0  0
M  END
>  <CHROM.1>
-76.15012109,-63.04190973,175.45085428,178.33140471,-178.89352057,-168.93560082
-73.85719188,69.53315203,99.56796761,-178.98089468,67.44188650,-72.87881748
66.05832387,-66.34810108,38.79381389,7.70430687,7.00744008,1.78347404,-0.46464007
2.22847215

>  <Name>
2f4u_lig

>  <RI>
0

>  <Rbt.Current_Directory>
/home/itssahil/PROJECTS/Mol_Feturizer/New_Systems/rnas/2f4u

>  <Rbt.Executable>
rbdock ($Id: //depot/dev/client3/rdock/2013.1/src/exe/rbdock.cxx#4 $)

>  <Rbt.Library>
libRbt.so (2013.1, Build901 2013/11/27)

>  <Rbt.Parameter_File>
/export/apps/rDock/src/rDock_2013.1_src/data/scripts/dock_solv.prm

>  <Rbt.Receptor>
prm/pocket_docking_5.prm

>  <SCORE>
-22.1385

>  <SCORE.INTER>
-13.8157

>  <SCORE.INTER.CONST>
1

>  <SCORE.INTER.POLAR>
-1.71408

>  <SCORE.INTER.ROT>
14

>  <SCORE.INTER.SOLV>
13.2935

>  <SCORE.INTER.VDW>
-20.8614

>  <SCORE.INTER.norm>
-0.38377

>  <SCORE.INTRA>
-8.32275

>  <SCORE.INTRA.DIHEDRAL>
-20.6648

>  <SCORE.INTRA.DIHEDRAL.0>
26.3805

>  <SCORE.INTRA.POLAR>
0

>  <SCORE.INTRA.POLAR.0>
0

>  <SCORE.INTRA.REPUL>
0

>  <SCORE.INTRA.REPUL.0>
0

>  <SCORE.INTRA.SOLV>
2.98418

>  <SCORE.INTRA.SOLV.lig_0>
-98.5587

>  <SCORE.INTRA.VDW>
0.517564

>  <SCORE.INTRA.VDW.0>
-2.91167

>  <SCORE.INTRA.norm>
-0.231187

>  <SCORE.RESTR>
0

>  <SCORE.RESTR.CAVITY>
0

>  <SCORE.RESTR.norm>
0

>  <SCORE.SYSTEM>
0

>  <SCORE.SYSTEM.CONST>
0

>  <SCORE.SYSTEM.DIHEDRAL>
0

>  <SCORE.SYSTEM.SOLV>
0

>  <SCORE.SYSTEM.norm>
0

>  <SCORE.heavy>
36

>  <SCORE.norm>
-0.614957

>  <RMSD>
9.472

$$$$
2f4u_lig
 OpenBabel11021811433D
libRbt.so/2013.1/901 2013/11/27
 36 37  0  0  0  0  0  0  0  0999 V2000
   35.6969    4.7636   11.8411 C   0  0  2  0  0  0  0  0  0  0  0  0
   34.9703    5.1955   10.6313 O   0  0  0  0  0  0  0  0  0  0  0  0
   36.5688    6.5028    6.8063 C   0  0  2  0  0  0  0  0  0  0  0  0
   37.1793    7.3888    5.7781 N   0  0  0  0  0  0  0  0  0  0  0  0
   34.8040    3.6930   12.5417 C   0  0  2  0  0  0  0  0  0  0  0  0
   34.5158    2.5369   11.6730 N   0  0  0  0  0  0  0  0  0  0  0  0
   35.2268    7.0967    7.3625 C   0  0  0  0  0  0  0  0  0  0  0  0
   37.1233    9.0994    6.2864 C   0  0  0  0  0  0  0  0  0  0  0  0
   37.6540    9.3763    4.9147 C   0  0  1  0  0  0  0  0  0  0  0  0
   36.4849    9.9010    4.0739 C   0  0  0  0  0  0  0  0  0  0  0  0
   35.3991    8.8692    3.7165 C   0  0  0  0  0  0  0  0  0  0  0  0
   35.9853    7.8654    2.8262 N   0  0  0  0  0  0  0  0  0  0  0  0
   38.6272   10.3836    4.9643 O   0  0  0  0  0  0  0  0  0  0  0  0
   39.9251    5.7281    6.5847 C   0  0  0  0  0  0  0  0  0  0  0  0
   40.8547    6.8758    6.9497 C   0  0  0  0  0  0  0  0  0  0  0  0
   33.4681    4.3691   12.9963 C   0  0  1  0  0  0  0  0  0  0  0  0
   42.1408    6.8661    6.2238 N   0  0  0  0  0  0  0  0  0  0  0  0
   32.6095    3.4274   13.6346 O   0  0  0  0  0  0  0  0  0  0  0  0
   34.6312    6.1990    8.4661 C   0  0  2  0  0  0  0  0  0  0  0  0
   33.4090    6.7738    9.0140 N   0  0  0  0  0  0  0  0  0  0  0  0
   43.1910    6.3408    4.0281 C   0  0  0  0  0  0  0  0  0  0  0  0
   44.6717    6.6153    4.4288 C   0  0  0  0  0  0  0  0  0  0  0  0
   42.1752    7.2357    4.7852 C   0  0  0  0  0  0  0  0  0  0  0  0
   45.6194    5.7092    3.7131 N   0  0  0  0  0  0  0  0  0  0  0  0
   36.7917    9.6415    7.1568 O   0  0  0  0  0  0  0  0  0  0  0  0
   33.8172    5.5402   13.9365 C   0  0  2  0  0  0  0  0  0  0  0  0
   32.6599    6.2306   14.4010 O   0  0  0  0  0  0  0  0  0  0  0  0
   35.6237    6.0248    9.5982 C   0  0  2  0  0  0  0  0  0  0  0  0
   34.7572    6.5410   13.2405 C   0  0  2  0  0  0  0  0  0  0  0  0
   35.9274    5.8833   12.7424 O   0  0  0  0  0  0  0  0  0  0  0  0
   36.9603    5.3819    9.0462 C   0  0  2  0  0  0  0  0  0  0  0  0
   37.9042    5.2426   10.1542 O   0  0  0  0  0  0  0  0  0  0  0  0
   35.1784    7.6509   14.1662 C   0  0  0  0  0  0  0  0  0  0  0  0
   34.1006    8.4441   14.4893 O   0  0  0  0  0  0  0  0  0  0  0  0
   37.5550    6.3216    7.9433 C   0  0  1  0  0  0  0  0  0  0  0  0
   38.7453    5.8175    7.4111 O   0  0  0  0  0  0  0  0  0  0  0  0
  1  2  1  6  0  0  0
  1  5  1  0  0  0  0
  1 30  1  0  0  0  0
  3  4  1  6  0  0  0
  3  7  1  0  0  0  0
  3 35  1  0  0  0  0
  5  6  1  6  0  0  0
  5 16  1  0  0  0  0
  7 19  1  0  0  0  0
  8  4  1  0  0  0  0
  8 25  2  0  0  0  0
  9  8  1  1  0  0  0
  9 10  1  0  0  0  0
  9 13  1  0  0  0  0
 10 11  1  0  0  0  0
 11 12  1  0  0  0  0
 14 15  1  0  0  0  0
 14 36  1  0  0  0  0
 15 17  1  0  0  0  0
 16 18  1  1  0  0  0
 16 26  1  0  0  0  0
 17 23  1  0  0  0  0
 19 20  1  1  0  0  0
 19 28  1  0  0  0  0
 21 22  1  0  0  0  0
 21 23  1  0  0  0  0
 22 24  1  0  0  0  0
 26 27  1  6  0  0  0
 26 29  1  0  0  0  0
 28  2  1  1  0  0  0
 28 31  1  0  0  0  0
 29 30  1  0  0  0  0
 29 33  1  1  0  0  0
 31 32  1  1  0  0  0
 31 35  1  0  0  0  0
 33 34  1  0  0  0  0
 35 36  1  6  0  0  0
M  END
>  <CHROM.1>
-168.96549424,43.92480495,103.61091124,-70.27951888,-66.13649598,177.01083330
65.43386315,72.92408431,-142.08160747,178.25070899,-68.27714820,176.16261641
-66.99081915,56.93725630,37.01476358,6.60731443,8.61739527,-2.29864759,0.35082041
-1.03942258

>  <Name>
2f4u_lig

>  <RI>
0

>  <Rbt.Current_Directory>
/home/itssahil/PROJECTS/Mol_Feturizer/New_Systems/rnas/2f4u

>  <Rbt.Executable>
rbdock ($Id: //depot/dev/client3/rdock/2013.1/src/exe/rbdock.cxx#4 $)

>  <Rbt.Library>
libRbt.so (2013.1, Build901 2013/11/27)

>  <Rbt.Parameter_File>
/export/apps/rDock/src/rDock_2013.1_src/data/scripts/dock_solv.prm

>  <Rbt.Receptor>
prm/pocket_docking_6.prm

>  <SCORE>
-16.4092

>  <SCORE.INTER>
-5.81564

>  <SCORE.INTER.CONST>
1

>  <SCORE.INTER.POLAR>
-0.979796

>  <SCORE.INTER.ROT>
14

>  <SCORE.INTER.SOLV>
13.7461

>  <SCORE.INTER.VDW>
-18.1265

>  <SCORE.INTER.norm>
-0.161546

>  <SCORE.INTRA>
-10.5936

>  <SCORE.INTRA.DIHEDRAL>
-21.0972

>  <SCORE.INTRA.DIHEDRAL.0>
26.3805

>  <SCORE.INTRA.POLAR>
0

>  <SCORE.INTRA.POLAR.0>
0

>  <SCORE.INTRA.REPUL>
0

>  <SCORE.INTRA.REPUL.0>
0

>  <SCORE.INTRA.SOLV>
1.76706

>  <SCORE.INTRA.SOLV.lig_0>
-98.5587

>  <SCORE.INTRA.VDW>
-0.928493

>  <SCORE.INTRA.VDW.0>
-2.91167

>  <SCORE.INTRA.norm>
-0.294266

>  <SCORE.RESTR>
0

>  <SCORE.RESTR.CAVITY>
0

>  <SCORE.RESTR.norm>
0

>  <SCORE.SYSTEM>
0

>  <SCORE.SYSTEM.CONST>
0

>  <SCORE.SYSTEM.DIHEDRAL>
0

>  <SCORE.SYSTEM.SOLV>
0

>  <SCORE.SYSTEM.norm>
0

>  <SCORE.heavy>
36

>  <SCORE.norm>
-0.455811

>  <RMSD>
9.473

$$$$
2f4u_lig
 OpenBabel11021811433D
libRbt.so/2013.1/901 2013/11/27
 36 37  0  0  0  0  0  0  0  0999 V2000
   45.8533    4.4901    6.0658 C   0  0  2  0  0  0  0  0  0  0  0  0
   44.5526    3.8029    6.1831 O   0  0  0  0  0  0  0  0  0  0  0  0
   40.5828    4.8075    7.6416 C   0  0  2  0  0  0  0  0  0  0  0  0
   39.5156    5.3206    8.5429 N   0  0  0  0  0  0  0  0  0  0  0  0
   46.6323    3.7814    4.9147 C   0  0  2  0  0  0  0  0  0  0  0  0
   45.9096    3.8229    3.6300 N   0  0  0  0  0  0  0  0  0  0  0  0
   41.4299    3.6783    8.3276 C   0  0  0  0  0  0  0  0  0  0  0  0
   40.2116    6.0395   10.0215 C   0  0  0  0  0  0  0  0  0  0  0  0
   38.7868    6.1562   10.4642 C   0  0  1  0  0  0  0  0  0  0  0  0
   38.7225    5.6715   11.9169 C   0  0  0  0  0  0  0  0  0  0  0  0
   37.3133    5.5735   12.5300 C   0  0  0  0  0  0  0  0  0  0  0  0
   36.5763    4.5151   11.8368 N   0  0  0  0  0  0  0  0  0  0  0  0
   38.3802    7.4973   10.4456 O   0  0  0  0  0  0  0  0  0  0  0  0
   39.6614    7.9460    6.5290 C   0  0  0  0  0  0  0  0  0  0  0  0
   39.8279    8.6280    5.1792 C   0  0  0  0  0  0  0  0  0  0  0  0
   46.9057    2.2975    5.3291 C   0  0  1  0  0  0  0  0  0  0  0  0
   38.9212    9.7738    4.9649 N   0  0  0  0  0  0  0  0  0  0  0  0
   47.6080    1.6009    4.3030 O   0  0  0  0  0  0  0  0  0  0  0  0
   42.5673    3.1925    7.4062 C   0  0  2  0  0  0  0  0  0  0  0  0
   43.3814    2.1761    8.0609 N   0  0  0  0  0  0  0  0  0  0  0  0
   38.3914   11.8739    3.7365 C   0  0  0  0  0  0  0  0  0  0  0  0
   38.3352   12.6119    2.3652 C   0  0  0  0  0  0  0  0  0  0  0  0
   38.8197   10.3881    3.6158 C   0  0  0  0  0  0  0  0  0  0  0  0
   39.6688   12.6396    1.6927 N   0  0  0  0  0  0  0  0  0  0  0  0
   41.2018    6.2230   10.4051 O   0  0  0  0  0  0  0  0  0  0  0  0
   47.7011    2.3056    6.6499 C   0  0  2  0  0  0  0  0  0  0  0  0
   47.9938    0.9918    7.1187 O   0  0  0  0  0  0  0  0  0  0  0  0
   43.4683    4.3498    7.0240 C   0  0  2  0  0  0  0  0  0  0  0  0
   46.9391    3.0744    7.7444 C   0  0  2  0  0  0  0  0  0  0  0  0
   46.6095    4.3972    7.3063 O   0  0  0  0  0  0  0  0  0  0  0  0
   42.6232    5.4683    6.2898 C   0  0  2  0  0  0  0  0  0  0  0  0
   43.5125    6.5780    5.9496 O   0  0  0  0  0  0  0  0  0  0  0  0
   47.7329    3.1669    9.0201 C   0  0  0  0  0  0  0  0  0  0  0  0
   48.9257    3.8178    8.7993 O   0  0  0  0  0  0  0  0  0  0  0  0
   41.4894    5.9586    7.2527 C   0  0  1  0  0  0  0  0  0  0  0  0
   40.7016    6.9557    6.6701 O   0  0  0  0  0  0  0  0  0  0  0  0
  1  2  1  1  0  0  0
  1  5  1  0  0  0  0
  1 30  1  0  0  0  0
  3  4  1  1  0  0  0
  3  7  1  0  0  0  0
  3 35  1  0  0  0  0
  5  6  1  6  0  0  0
  5 16  1  0  0  0  0
  7 19  1  0  0  0  0
  8  4  1  0  0  0  0
  8 25  2  0  0  0  0
  9  8  1  1  0  0  0
  9 10  1  0  0  0  0
  9 13  1  0  0  0  0
 10 11  1  0  0  0  0
 11 12  1  0  0  0  0
 14 15  1  0  0  0  0
 14 36  1  0  0  0  0
 15 17  1  0  0  0  0
 16 18  1  6  0  0  0
 16 26  1  0  0  0  0
 17 23  1  0  0  0  0
 19 20  1  1  0  0  0
 19 28  1  0  0  0  0
 21 22  1  0  0  0  0
 21 23  1  0  0  0  0
 22 24  1  0  0  0  0
 26 27  1  1  0  0  0
 26 29  1  0  0  0  0
 28  2  1  6  0  0  0
 28 31  1  0  0  0  0
 29 30  1  0  0  0  0
 29 33  1  1  0  0  0
 31 32  1  1  0  0  0
 31 35  1  0  0  0  0
 33 34  1  0  0  0  0
 35 36  1  6  0  0  0
M  END
>  <CHROM.1>
-169.82913520,61.27573754,134.72676364,-174.08079990,66.69184406,-173.38120149
176.45209314,-169.99503015,-153.64931702,-61.16925188,176.95408590,-155.98359417
59.81936456,58.03309996,42.47340660,5.59535761,7.11307315,-0.38000400,0.53271368
-0.93550413

>  <Name>
2f4u_lig

>  <RI>
0

>  <Rbt.Current_Directory>
/home/itssahil/PROJECTS/Mol_Feturizer/New_Systems/rnas/2f4u

>  <Rbt.Executable>
rbdock ($Id: //depot/dev/client3/rdock/2013.1/src/exe/rbdock.cxx#4 $)

>  <Rbt.Library>
libRbt.so (2013.1, Build901 2013/11/27)

>  <Rbt.Parameter_File>
/export/apps/rDock/src/rDock_2013.1_src/data/scripts/dock_solv.prm

>  <Rbt.Receptor>
prm/pocket_docking_7.prm

>  <SCORE>
-28.1215

>  <SCORE.INTER>
-17.3582

>  <SCORE.INTER.CONST>
1

>  <SCORE.INTER.POLAR>
-3.25732

>  <SCORE.INTER.ROT>
14

>  <SCORE.INTER.SOLV>
12.9485

>  <SCORE.INTER.VDW>
-17.9639

>  <SCORE.INTER.norm>
-0.482172

>  <SCORE.INTRA>
-10.7633

>  <SCORE.INTRA.DIHEDRAL>
-20.0757

>  <SCORE.INTRA.DIHEDRAL.0>
26.3805

>  <SCORE.INTRA.POLAR>
0

>  <SCORE.INTRA.POLAR.0>
0

>  <SCORE.INTRA.REPUL>
0

>  <SCORE.INTRA.REPUL.0>
0

>  <SCORE.INTRA.SOLV>
1.81774

>  <SCORE.INTRA.SOLV.lig_0>
-98.5587

>  <SCORE.INTRA.VDW>
-1.63439

>  <SCORE.INTRA.VDW.0>
-2.91167

>  <SCORE.INTRA.norm>
-0.298982

>  <SCORE.RESTR>
0

>  <SCORE.RESTR.CAVITY>
0

>  <SCORE.RESTR.norm>
0

>  <SCORE.SYSTEM>
0

>  <SCORE.SYSTEM.CONST>
0

>  <SCORE.SYSTEM.DIHEDRAL>
0

>  <SCORE.SYSTEM.SOLV>
0

>  <SCORE.SYSTEM.norm>
0

>  <SCORE.heavy>
36

>  <SCORE.norm>
-0.781154

>  <RMSD>
9.485

$$$$
2f4u_lig
 OpenBabel11021811433D
libRbt.so/2013.1/901 2013/11/27
 36 37  0  0  0  0  0  0  0  0999 V2000
   42.8531   -0.4933    4.6596 C   0  0  2  0  0  0  0  0  0  0  0  0
   41.6576   -1.0259    5.3414 O   0  0  0  0  0  0  0  0  0  0  0  0
   39.6145    2.5780    6.6579 C   0  0  2  0  0  0  0  0  0  0  0  0
   38.5920    3.4463    7.3024 N   0  0  0  0  0  0  0  0  0  0  0  0
   43.4423   -1.6617    3.8100 C   0  0  2  0  0  0  0  0  0  0  0  0
   42.4799   -2.1899    2.8256 N   0  0  0  0  0  0  0  0  0  0  0  0
   38.9812    1.6486    5.5631 C   0  0  0  0  0  0  0  0  0  0  0  0
   39.0239    5.1719    7.1501 C   0  0  0  0  0  0  0  0  0  0  0  0
   37.8406    5.3996    8.0376 C   0  0  1  0  0  0  0  0  0  0  0  0
   38.0384    6.7595    8.7166 C   0  0  0  0  0  0  0  0  0  0  0  0
   36.9952    7.1338    9.7857 C   0  0  0  0  0  0  0  0  0  0  0  0
   35.6847    7.2384    9.1412 N   0  0  0  0  0  0  0  0  0  0  0  0
   36.6674    5.4728    7.2743 O   0  0  0  0  0  0  0  0  0  0  0  0
   40.8651    3.6308    9.6874 C   0  0  0  0  0  0  0  0  0  0  0  0
   39.6700    3.4786   10.6165 C   0  0  0  0  0  0  0  0  0  0  0  0
   43.9051   -2.8037    4.7745 C   0  0  1  0  0  0  0  0  0  0  0  0
   39.5658    4.5333   11.6450 N   0  0  0  0  0  0  0  0  0  0  0  0
   44.4429   -3.9033    4.0445 O   0  0  0  0  0  0  0  0  0  0  0  0
   40.0387    0.7144    4.9406 C   0  0  2  0  0  0  0  0  0  0  0  0
   39.4417   -0.1797    3.9565 N   0  0  0  0  0  0  0  0  0  0  0  0
   38.6335    5.2600   13.8366 C   0  0  0  0  0  0  0  0  0  0  0  0
   39.1086    6.7430   13.7790 C   0  0  0  0  0  0  0  0  0  0  0  0
   38.3175    4.6630   12.4404 C   0  0  0  0  0  0  0  0  0  0  0  0
   40.4171    6.8815   13.0720 N   0  0  0  0  0  0  0  0  0  0  0  0
   39.8140    5.7376    6.6842 O   0  0  0  0  0  0  0  0  0  0  0  0
   44.9418   -2.2164    5.7530 C   0  0  2  0  0  0  0  0  0  0  0  0
   45.4211   -3.1826    6.6849 O   0  0  0  0  0  0  0  0  0  0  0  0
   40.6946   -0.1306    6.0144 C   0  0  2  0  0  0  0  0  0  0  0  0
   44.3534   -1.0203    6.5229 C   0  0  2  0  0  0  0  0  0  0  0  0
   43.8436   -0.0316    5.6214 O   0  0  0  0  0  0  0  0  0  0  0  0
   41.3744    0.8060    7.0939 C   0  0  2  0  0  0  0  0  0  0  0  0
   41.9822   -0.0340    8.1250 O   0  0  0  0  0  0  0  0  0  0  0  0
   45.3734   -0.3781    7.4248 C   0  0  0  0  0  0  0  0  0  0  0  0
   44.7688    0.5251    8.2697 O   0  0  0  0  0  0  0  0  0  0  0  0
   40.2773    1.7289    7.7247 C   0  0  1  0  0  0  0  0  0  0  0  0
   40.8067    2.5843    8.6954 O   0  0  0  0  0  0  0  0  0  0  0  0
  1  2  1  1  0  0  0
  1  5  1  0  0  0  0
  1 30  1  0  0  0  0
  3  4  1  1  0  0  0
  3  7  1  0  0  0  0
  3 35  1  0  0  0  0
  5  6  1  6  0  0  0
  5 16  1  0  0  0  0
  7 19  1  0  0  0  0
  8  4  1  0  0  0  0
  8 25  2  0  0  0  0
  9  8  1  6  0  0  0
  9 10  1  0  0  0  0
  9 13  1  0  0  0  0
 10 11  1  0  0  0  0
 11 12  1  0  0  0  0
 14 15  1  0  0  0  0
 14 36  1  0  0  0  0
 15 17  1  0  0  0  0
 16 18  1  6  0  0  0
 16 26  1  0  0  0  0
 17 23  1  0  0  0  0
 19 20  1  6  0  0  0
 19 28  1  0  0  0  0
 21 22  1  0  0  0  0
 21 23  1  0  0  0  0
 22 24  1  0  0  0  0
 26 27  1  1  0  0  0
 26 29  1  0  0  0  0
 28  2  1  6  0  0  0
 28 31  1  0  0  0  0
 29 30  1  0  0  0  0
 29 33  1  6  0  0  0
 31 32  1  1  0  0  0
 31 35  1  0  0  0  0
 33 34  1  0  0  0  0
 35 36  1  1  0  0  0
M  END
>  <CHROM.1>
-167.52152115,-123.38934031,157.55219960,-174.25070073,-63.11789238,-176.98524653
46.32705984,168.00219337,151.50062665,-65.07709694,67.58293402,65.94574288
-169.30781373,53.93044651,40.86484075,2.00337312,7.60887731,0.88782824,0.66863791
-2.06580113

>  <Name>
2f4u_lig

>  <RI>
0

>  <Rbt.Current_Directory>
/home/itssahil/PROJECTS/Mol_Feturizer/New_Systems/rnas/2f4u

>  <Rbt.Executable>
rbdock ($Id: //depot/dev/client3/rdock/2013.1/src/exe/rbdock.cxx#4 $)

>  <Rbt.Library>
libRbt.so (2013.1, Build901 2013/11/27)

>  <Rbt.Parameter_File>
/export/apps/rDock/src/rDock_2013.1_src/data/scripts/dock_solv.prm

>  <Rbt.Receptor>
prm/pocket_docking_8.prm

>  <SCORE>
-12.43

>  <SCORE.INTER>
-2.29462

>  <SCORE.INTER.CONST>
1

>  <SCORE.INTER.POLAR>
-1.06844

>  <SCORE.INTER.ROT>
14

>  <SCORE.INTER.SOLV>
10.1787

>  <SCORE.INTER.VDW>
-14.2945

>  <SCORE.INTER.norm>
-0.0637394

>  <SCORE.INTRA>
-10.1353

>  <SCORE.INTRA.DIHEDRAL>
-20.4001

>  <SCORE.INTRA.DIHEDRAL.0>
26.3805

>  <SCORE.INTRA.POLAR>
0

>  <SCORE.INTRA.POLAR.0>
0

>  <SCORE.INTRA.REPUL>
0

>  <SCORE.INTRA.REPUL.0>
0

>  <SCORE.INTRA.SOLV>
6.43055

>  <SCORE.INTRA.SOLV.lig_0>
-98.5587

>  <SCORE.INTRA.VDW>
-3.15059

>  <SCORE.INTRA.VDW.0>
-2.91167

>  <SCORE.INTRA.norm>
-0.281537

>  <SCORE.RESTR>
0

>  <SCORE.RESTR.CAVITY>
0

>  <SCORE.RESTR.norm>
0

>  <SCORE.SYSTEM>
0

>  <SCORE.SYSTEM.CONST>
0

>  <SCORE.SYSTEM.DIHEDRAL>
0

>  <SCORE.SYSTEM.SOLV>
0

>  <SCORE.SYSTEM.norm>
0

>  <SCORE.heavy>
36

>  <SCORE.norm>
-0.345277

>  <RMSD>
9.490

$$$$
2f4u_lig
 OpenBabel11021811433D
libRbt.so/2013.1/901 2013/11/27
 36 37  0  0  0  0  0  0  0  0999 V2000
   39.6324    5.1670    9.9555 C   0  0  2  0  0  0  0  0  0  0  0  0
   38.5529    5.7353    9.1252 O   0  0  0  0  0  0  0  0  0  0  0  0
   38.5053    8.4565    5.7357 C   0  0  2  0  0  0  0  0  0  0  0  0
   38.6963    9.7009    4.9422 N   0  0  0  0  0  0  0  0  0  0  0  0
   39.9416    3.7501    9.3802 C   0  0  2  0  0  0  0  0  0  0  0  0
   40.3472    3.7884    7.9630 N   0  0  0  0  0  0  0  0  0  0  0  0
   37.5655    8.6928    6.9703 C   0  0  0  0  0  0  0  0  0  0  0  0
   37.3230    9.9762    3.8351 C   0  0  0  0  0  0  0  0  0  0  0  0
   38.1519   11.1096    3.3174 C   0  0  1  0  0  0  0  0  0  0  0  0
   37.3690   11.7560    2.1691 C   0  0  0  0  0  0  0  0  0  0  0  0
   38.1247   12.8271    1.3611 C   0  0  0  0  0  0  0  0  0  0  0  0
   37.3645   13.1143    0.1431 N   0  0  0  0  0  0  0  0  0  0  0  0
   38.3240   12.0806    4.3134 O   0  0  0  0  0  0  0  0  0  0  0  0
   41.1642    7.2566    3.8453 C   0  0  0  0  0  0  0  0  0  0  0  0
   41.5559    5.8034    4.0683 C   0  0  0  0  0  0  0  0  0  0  0  0
   38.6745    2.8481    9.5518 C   0  0  1  0  0  0  0  0  0  0  0  0
   41.5204    4.9736    2.8471 N   0  0  0  0  0  0  0  0  0  0  0  0
   38.9023    1.5415    9.0299 O   0  0  0  0  0  0  0  0  0  0  0  0
   37.4186    7.4118    7.8165 C   0  0  2  0  0  0  0  0  0  0  0  0
   36.5824    7.6438    8.9875 N   0  0  0  0  0  0  0  0  0  0  0  0
   42.4877    3.8693    0.8360 C   0  0  0  0  0  0  0  0  0  0  0  0
   43.7696    3.5695    0.0022 C   0  0  0  0  0  0  0  0  0  0  0  0
   42.7273    4.8829    1.9853 C   0  0  0  0  0  0  0  0  0  0  0  0
   43.5279    2.5196   -1.0325 N   0  0  0  0  0  0  0  0  0  0  0  0
   36.3847    9.4898    3.6240 O   0  0  0  0  0  0  0  0  0  0  0  0
   38.3168    2.8012   11.0507 C   0  0  2  0  0  0  0  0  0  0  0  0
   37.1629    2.0061   11.3117 O   0  0  0  0  0  0  0  0  0  0  0  0
   38.7765    6.9325    8.2893 C   0  0  2  0  0  0  0  0  0  0  0  0
   38.0892    4.2191   11.6050 C   0  0  2  0  0  0  0  0  0  0  0  0
   39.2211    5.0575   11.3477 O   0  0  0  0  0  0  0  0  0  0  0  0
   39.7095    6.6487    7.0430 C   0  0  2  0  0  0  0  0  0  0  0  0
   41.0159    6.2061    7.5283 O   0  0  0  0  0  0  0  0  0  0  0  0
   37.8194    4.2051   13.0860 C   0  0  0  0  0  0  0  0  0  0  0  0
   37.6444    5.4871   13.5560 O   0  0  0  0  0  0  0  0  0  0  0  0
   39.8590    7.9684    6.2128 C   0  0  1  0  0  0  0  0  0  0  0  0
   40.6781    7.7936    5.0935 O   0  0  0  0  0  0  0  0  0  0  0  0
  1  2  1  6  0  0  0
  1  5  1  0  0  0  0
  1 30  1  0  0  0  0
  3  4  1  1  0  0  0
  3  7  1  0  0  0  0
  3 35  1  0  0  0  0
  5  6  1  6  0  0  0
  5 16  1  0  0  0  0
  7 19  1  0  0  0  0
  8  4  1  0  0  0  0
  8 25  2  0  0  0  0
  9  8  1  1  0  0  0
  9 10  1  0  0  0  0
  9 13  1  0  0  0  0
 10 11  1  0  0  0  0
 11 12  1  0  0  0  0
 14 15  1  0  0  0  0
 14 36  1  0  0  0  0
 15 17  1  0  0  0  0
 16 18  1  1  0  0  0
 16 26  1  0  0  0  0
 17 23  1  0  0  0  0
 19 20  1  1  0  0  0
 19 28  1  0  0  0  0
 21 22  1  0  0  0  0
 21 23  1  0  0  0  0
 22 24  1  0  0  0  0
 26 27  1  6  0  0  0
 26 29  1  0  0  0  0
 28  2  1  6  0  0  0
 28 31  1  0  0  0  0
 29 30  1  0  0  0  0
 29 33  1  1  0  0  0
 31 32  1  1  0  0  0
 31 35  1  0  0  0  0
 33 34  1  0  0  0  0
 35 36  1  6  0  0  0
M  END
>  <CHROM.1>
-115.17311492,-81.38624177,178.14522197,-171.92496644,167.31836194,155.37043093
-64.67691312,88.56256251,175.34678425,175.96044122,-172.09770588,-168.11222183
178.91175953,-64.57383979,39.24342646,6.57299687,6.34268422,1.76685502,-0.96250625
2.24742574

>  <Name>
2f4u_lig

>  <RI>
0

>  <Rbt.Current_Directory>
/home/itssahil/PROJECTS/Mol_Feturizer/New_Systems/rnas/2f4u

>  <Rbt.Executable>
rbdock ($Id: //depot/dev/client3/rdock/2013.1/src/exe/rbdock.cxx#4 $)

>  <Rbt.Library>
libRbt.so (2013.1, Build901 2013/11/27)

>  <Rbt.Parameter_File>
/export/apps/rDock/src/rDock_2013.1_src/data/scripts/dock_solv.prm

>  <Rbt.Receptor>
prm/pocket_docking_7.prm

>  <SCORE>
-19.5814

>  <SCORE.INTER>
-13.0116

>  <SCORE.INTER.CONST>
1

>  <SCORE.INTER.POLAR>
-1.27995

>  <SCORE.INTER.ROT>
14

>  <SCORE.INTER.SOLV>
10.3482

>  <SCORE.INTER.VDW>
-20.7907

>  <SCORE.INTER.norm>
-0.361434

>  <SCORE.INTRA>
-6.56975

>  <SCORE.INTRA.DIHEDRAL>
-13.5725

>  <SCORE.INTRA.DIHEDRAL.0>
26.3805

>  <SCORE.INTRA.POLAR>
0

>  <SCORE.INTRA.POLAR.0>
0

>  <SCORE.INTRA.REPUL>
0

>  <SCORE.INTRA.REPUL.0>
0

>  <SCORE.INTRA.SOLV>
0.729691

>  <SCORE.INTRA.SOLV.lig_0>
-98.5587

>  <SCORE.INTRA.VDW>
-0.148328

>  <SCORE.INTRA.VDW.0>
-2.91167

>  <SCORE.INTRA.norm>
-0.182493

>  <SCORE.RESTR>
0

>  <SCORE.RESTR.CAVITY>
0

>  <SCORE.RESTR.norm>
0

>  <SCORE.SYSTEM>
0

>  <SCORE.SYSTEM.CONST>
0

>  <SCORE.SYSTEM.DIHEDRAL>
0

>  <SCORE.SYSTEM.SOLV>
0

>  <SCORE.SYSTEM.norm>
0

>  <SCORE.heavy>
36

>  <SCORE.norm>
-0.543927

>  <RMSD>
9.585

$$$$
2f4u_lig
 OpenBabel11021811433D
libRbt.so/2013.1/901 2013/11/27
 36 37  0  0  0  0  0  0  0  0999 V2000
   38.4863    2.5386    7.0556 C   0  0  2  0  0  0  0  0  0  0  0  0
   37.9499    2.5812    8.4298 O   0  0  0  0  0  0  0  0  0  0  0  0
   36.1576    5.8772   10.6252 C   0  0  2  0  0  0  0  0  0  0  0  0
   36.0501    7.1423   11.4014 N   0  0  0  0  0  0  0  0  0  0  0  0
   38.7081    1.0340    6.7076 C   0  0  2  0  0  0  0  0  0  0  0  0
   37.4691    0.2403    6.8022 N   0  0  0  0  0  0  0  0  0  0  0  0
   37.0632    4.8230   11.3544 C   0  0  0  0  0  0  0  0  0  0  0  0
   35.6935    6.8155   13.1199 C   0  0  0  0  0  0  0  0  0  0  0  0
   35.5641    8.3025   13.2285 C   0  0  1  0  0  0  0  0  0  0  0  0
   35.0635    8.6116   14.6439 C   0  0  0  0  0  0  0  0  0  0  0  0
   34.7069   10.0834   14.9231 C   0  0  0  0  0  0  0  0  0  0  0  0
   33.4669   10.4049   14.2139 N   0  0  0  0  0  0  0  0  0  0  0  0
   36.8174    8.9118   13.0789 O   0  0  0  0  0  0  0  0  0  0  0  0
   35.2590    8.4082    8.4217 C   0  0  0  0  0  0  0  0  0  0  0  0
   34.4184    8.2856    7.1596 C   0  0  0  0  0  0  0  0  0  0  0  0
   39.7954    0.4486    7.6688 C   0  0  1  0  0  0  0  0  0  0  0  0
   35.1769    7.8559    5.9675 N   0  0  0  0  0  0  0  0  0  0  0  0
   40.0277   -0.9313    7.3983 O   0  0  0  0  0  0  0  0  0  0  0  0
   37.2130    3.5370   10.5162 C   0  0  2  0  0  0  0  0  0  0  0  0
   38.0907    2.5764   11.1728 N   0  0  0  0  0  0  0  0  0  0  0  0
   35.2176    8.6759    3.6167 C   0  0  0  0  0  0  0  0  0  0  0  0
   36.6838    8.2307    3.3333 C   0  0  0  0  0  0  0  0  0  0  0  0
   34.4928    7.7756    4.6510 C   0  0  0  0  0  0  0  0  0  0  0  0
   36.7560    6.8108    2.8750 N   0  0  0  0  0  0  0  0  0  0  0  0
   35.5711    5.9396   13.7358 O   0  0  0  0  0  0  0  0  0  0  0  0
   41.0832    1.2798    7.5015 C   0  0  2  0  0  0  0  0  0  0  0  0
   42.1378    0.8279    8.3472 O   0  0  0  0  0  0  0  0  0  0  0  0
   37.7949    3.8591    9.1543 C   0  0  2  0  0  0  0  0  0  0  0  0
   40.8147    2.7695    7.7808 C   0  0  2  0  0  0  0  0  0  0  0  0
   39.7474    3.2600    6.9620 O   0  0  0  0  0  0  0  0  0  0  0  0
   36.8571    4.8860    8.3991 C   0  0  2  0  0  0  0  0  0  0  0  0
   37.4510    5.1920    7.0984 O   0  0  0  0  0  0  0  0  0  0  0  0
   42.0385    3.6134    7.5436 C   0  0  0  0  0  0  0  0  0  0  0  0
   41.7748    4.9348    7.8257 O   0  0  0  0  0  0  0  0  0  0  0  0
   36.7382    6.1891    9.2600 C   0  0  1  0  0  0  0  0  0  0  0  0
   35.9246    7.1482    8.6496 O   0  0  0  0  0  0  0  0  0  0  0  0
  1  2  1  1  0  0  0
  1  5  1  0  0  0  0
  1 30  1  0  0  0  0
  3  4  1  1  0  0  0
  3  7  1  0  0  0  0
  3 35  1  0  0  0  0
  5  6  1  1  0  0  0
  5 16  1  0  0  0  0
  7 19  1  0  0  0  0
  8  4  1  0  0  0  0
  8 25  2  0  0  0  0
  9  8  1  1  0  0  0
  9 10  1  0  0  0  0
  9 13  1  0  0  0  0
 10 11  1  0  0  0  0
 11 12  1  0  0  0  0
 14 15  1  0  0  0  0
 14 36  1  0  0  0  0
 15 17  1  0  0  0  0
 16 18  1  6  0  0  0
 16 26  1  0  0  0  0
 17 23  1  0  0  0  0
 19 20  1  1  0  0  0
 19 28  1  0  0  0  0
 21 22  1  0  0  0  0
 21 23  1  0  0  0  0
 22 24  1  0  0  0  0
 26 27  1  1  0  0  0
 26 29  1  0  0  0  0
 28  2  1  6  0  0  0
 28 31  1  0  0  0  0
 29 30  1  0  0  0  0
 29 33  1  6  0  0  0
 31 32  1  6  0  0  0
 31 35  1  0  0  0  0
 33 34  1  0  0  0  0
 35 36  1  6  0  0  0
M  END
>  <CHROM.1>
171.51258890,-47.19678311,173.66260582,-173.33961905,71.90657401,-55.32952153
-179.90398976,-176.32866378,122.56288126,56.38694238,62.91470523,179.51974980
-178.85652815,63.95933321,37.37452897,5.23933422,8.89501508,0.53370397,0.96295960
-1.53490064

>  <Name>
2f4u_lig

>  <RI>
0

>  <Rbt.Current_Directory>
/home/itssahil/PROJECTS/Mol_Feturizer/New_Systems/rnas/2f4u

>  <Rbt.Executable>
rbdock ($Id: //depot/dev/client3/rdock/2013.1/src/exe/rbdock.cxx#4 $)

>  <Rbt.Library>
libRbt.so (2013.1, Build901 2013/11/27)

>  <Rbt.Parameter_File>
/export/apps/rDock/src/rDock_2013.1_src/data/scripts/dock_solv.prm

>  <Rbt.Receptor>
prm/pocket_docking_7.prm

>  <SCORE>
-13.011

>  <SCORE.INTER>
-2.33267

>  <SCORE.INTER.CONST>
1

>  <SCORE.INTER.POLAR>
-0.89275

>  <SCORE.INTER.ROT>
14

>  <SCORE.INTER.SOLV>
9.83108

>  <SCORE.INTER.VDW>
-14.7896

>  <SCORE.INTER.norm>
-0.0647963

>  <SCORE.INTRA>
-10.6783

>  <SCORE.INTRA.DIHEDRAL>
-22.9341

>  <SCORE.INTRA.DIHEDRAL.0>
26.3805

>  <SCORE.INTRA.POLAR>
0

>  <SCORE.INTRA.POLAR.0>
0

>  <SCORE.INTRA.REPUL>
0

>  <SCORE.INTRA.REPUL.0>
0

>  <SCORE.INTRA.SOLV>
2.33788

>  <SCORE.INTRA.SOLV.lig_0>
-98.5587

>  <SCORE.INTRA.VDW>
-0.380197

>  <SCORE.INTRA.VDW.0>
-2.91167

>  <SCORE.INTRA.norm>
-0.29662

>  <SCORE.RESTR>
0

>  <SCORE.RESTR.CAVITY>
0

>  <SCORE.RESTR.norm>
0

>  <SCORE.SYSTEM>
0

>  <SCORE.SYSTEM.CONST>
0

>  <SCORE.SYSTEM.DIHEDRAL>
0

>  <SCORE.SYSTEM.SOLV>
0

>  <SCORE.SYSTEM.norm>
0

>  <SCORE.heavy>
36

>  <SCORE.norm>
-0.361416

>  <RMSD>
9.592

$$$$
2f4u_lig
 OpenBabel11021811433D
libRbt.so/2013.1/901 2013/11/27
 36 37  0  0  0  0  0  0  0  0999 V2000
   43.1468    2.8176    8.1962 C   0  0  2  0  0  0  0  0  0  0  0  0
   42.3552    3.7371    7.3562 O   0  0  0  0  0  0  0  0  0  0  0  0
   38.9864    6.2768    8.4032 C   0  0  2  0  0  0  0  0  0  0  0  0
   38.2047    7.3546    9.0681 N   0  0  0  0  0  0  0  0  0  0  0  0
   44.5391    2.6684    7.5082 C   0  0  2  0  0  0  0  0  0  0  0  0
   45.2382    3.9576    7.3550 N   0  0  0  0  0  0  0  0  0  0  0  0
   39.5871    5.2676    9.4443 C   0  0  0  0  0  0  0  0  0  0  0  0
   36.5406    6.8162    9.4263 C   0  0  0  0  0  0  0  0  0  0  0  0
   36.3245    8.2356    9.8488 C   0  0  1  0  0  0  0  0  0  0  0  0
   34.8214    8.5161    9.7428 C   0  0  0  0  0  0  0  0  0  0  0  0
   34.3857    9.9620   10.0442 C   0  0  0  0  0  0  0  0  0  0  0  0
   34.6525   10.2442   11.4560 N   0  0  0  0  0  0  0  0  0  0  0  0
   36.6946    8.4054   11.1899 O   0  0  0  0  0  0  0  0  0  0  0  0
   39.4578    8.8418    5.6896 C   0  0  0  0  0  0  0  0  0  0  0  0
   40.2664    8.3877    4.4836 C   0  0  0  0  0  0  0  0  0  0  0  0
   44.3414    1.9954    6.1094 C   0  0  1  0  0  0  0  0  0  0  0  0
   39.8753    7.0645    3.9570 N   0  0  0  0  0  0  0  0  0  0  0  0
   45.5870    1.8460    5.4330 O   0  0  0  0  0  0  0  0  0  0  0  0
   40.4406    4.1871    8.7497 C   0  0  2  0  0  0  0  0  0  0  0  0
   41.0353    3.2770    9.7205 N   0  0  0  0  0  0  0  0  0  0  0  0
   40.1672    5.1157    2.4348 C   0  0  0  0  0  0  0  0  0  0  0  0
   41.1506    4.2294    1.6129 C   0  0  0  0  0  0  0  0  0  0  0  0
   40.8781    6.2320    3.2437 C   0  0  0  0  0  0  0  0  0  0  0  0
   40.4367    3.1492    0.8679 N   0  0  0  0  0  0  0  0  0  0  0  0
   35.9768    5.9048    9.3131 O   0  0  0  0  0  0  0  0  0  0  0  0
   43.6503    0.6339    6.3240 C   0  0  2  0  0  0  0  0  0  0  0  0
   43.4164   -0.0581    5.1000 O   0  0  0  0  0  0  0  0  0  0  0  0
   41.5588    4.8288    7.9527 C   0  0  2  0  0  0  0  0  0  0  0  0
   42.3147    0.8080    7.0692 C   0  0  2  0  0  0  0  0  0  0  0  0
   42.5031    1.5159    8.2995 O   0  0  0  0  0  0  0  0  0  0  0  0
   40.9514    5.8110    6.8706 C   0  0  2  0  0  0  0  0  0  0  0  0
   42.0510    6.4283    6.1304 O   0  0  0  0  0  0  0  0  0  0  0  0
   41.6607   -0.5155    7.3634 C   0  0  0  0  0  0  0  0  0  0  0  0
   40.4423   -0.3255    7.9754 O   0  0  0  0  0  0  0  0  0  0  0  0
   40.1074    6.9091    7.6022 C   0  0  1  0  0  0  0  0  0  0  0  0
   39.5416    7.8196    6.7049 O   0  0  0  0  0  0  0  0  0  0  0  0
  1  2  1  6  0  0  0
  1  5  1  0  0  0  0
  1 30  1  0  0  0  0
  3  4  1  1  0  0  0
  3  7  1  0  0  0  0
  3 35  1  0  0  0  0
  5  6  1  6  0  0  0
  5 16  1  0  0  0  0
  7 19  1  0  0  0  0
  8  4  1  0  0  0  0
  8 25  2  0  0  0  0
  9  8  1  1  0  0  0
  9 10  1  0  0  0  0
  9 13  1  0  0  0  0
 10 11  1  0  0  0  0
 11 12  1  0  0  0  0
 14 15  1  0  0  0  0
 14 36  1  0  0  0  0
 15 17  1  0  0  0  0
 16 18  1  1  0  0  0
 16 26  1  0  0  0  0
 17 23  1  0  0  0  0
 19 20  1  1  0  0  0
 19 28  1  0  0  0  0
 21 22  1  0  0  0  0
 21 23  1  0  0  0  0
 22 24  1  0  0  0  0
 26 27  1  6  0  0  0
 26 29  1  0  0  0  0
 28  2  1  6  0  0  0
 28 31  1  0  0  0  0
 29 30  1  0  0  0  0
 29 33  1  1  0  0  0
 31 32  1  1  0  0  0
 31 35  1  0  0  0  0
 33 34  1  0  0  0  0
 35 36  1  6  0  0  0
M  END
>  <CHROM.1>
-135.19989949,-83.11002478,156.63649542,-176.04965854,-65.87328504,54.92813832
53.92716229,-152.61391005,-163.36039197,178.88304076,177.83254943,-66.74923754
-177.30020910,175.60144722,40.38032961,4.92884255,7.15918250,-0.01446218
-0.83891360,2.04602279

>  <Name>
2f4u_lig

>  <RI>
0

>  <Rbt.Current_Directory>
/home/itssahil/PROJECTS/Mol_Feturizer/New_Systems/rnas/2f4u

>  <Rbt.Executable>
rbdock ($Id: //depot/dev/client3/rdock/2013.1/src/exe/rbdock.cxx#4 $)

>  <Rbt.Library>
libRbt.so (2013.1, Build901 2013/11/27)

>  <Rbt.Parameter_File>
/export/apps/rDock/src/rDock_2013.1_src/data/scripts/dock_solv.prm

>  <Rbt.Receptor>
prm/pocket_docking_7.prm

>  <SCORE>
-14.7386

>  <SCORE.INTER>
-7.78736

>  <SCORE.INTER.CONST>
1

>  <SCORE.INTER.POLAR>
-2.34492

>  <SCORE.INTER.ROT>
14

>  <SCORE.INTER.SOLV>
11.8549

>  <SCORE.INTER.VDW>
-14.2601

>  <SCORE.INTER.norm>
-0.216316

>  <SCORE.INTRA>
-6.95128

>  <SCORE.INTRA.DIHEDRAL>
-17.0384

>  <SCORE.INTRA.DIHEDRAL.0>
26.3805

>  <SCORE.INTRA.POLAR>
0

>  <SCORE.INTRA.POLAR.0>
0

>  <SCORE.INTRA.REPUL>
0

>  <SCORE.INTRA.REPUL.0>
0

>  <SCORE.INTRA.SOLV>
4.73497

>  <SCORE.INTRA.SOLV.lig_0>
-98.5587

>  <SCORE.INTRA.VDW>
-0.799594

>  <SCORE.INTRA.VDW.0>
-2.91167

>  <SCORE.INTRA.norm>
-0.193091

>  <SCORE.RESTR>
0

>  <SCORE.RESTR.CAVITY>
0

>  <SCORE.RESTR.norm>
0

>  <SCORE.SYSTEM>
0

>  <SCORE.SYSTEM.CONST>
0

>  <SCORE.SYSTEM.DIHEDRAL>
0

>  <SCORE.SYSTEM.SOLV>
0

>  <SCORE.SYSTEM.norm>
0

>  <SCORE.heavy>
36

>  <SCORE.norm>
-0.409407

>  <RMSD>
9.607

$$$$
2f4u_lig
 OpenBabel11021811433D
libRbt.so/2013.1/901 2013/11/27
 36 37  0  0  0  0  0  0  0  0999 V2000
   35.5297    6.7443   10.4061 C   0  0  2  0  0  0  0  0  0  0  0  0
   36.2642    7.1532    9.1932 O   0  0  0  0  0  0  0  0  0  0  0  0
   36.2381    6.1351    4.9673 C   0  0  2  0  0  0  0  0  0  0  0  0
   35.7230    5.7115    3.6369 N   0  0  0  0  0  0  0  0  0  0  0  0
   35.8242    7.8237   11.4935 C   0  0  2  0  0  0  0  0  0  0  0  0
   35.4160    9.1775   11.0754 N   0  0  0  0  0  0  0  0  0  0  0  0
   35.9966    5.0358    6.0610 C   0  0  0  0  0  0  0  0  0  0  0  0
   36.9752    4.8414    2.7084 C   0  0  0  0  0  0  0  0  0  0  0  0
   35.9736    4.8768    1.5970 C   0  0  1  0  0  0  0  0  0  0  0  0
   36.6913    4.4113    0.3251 C   0  0  0  0  0  0  0  0  0  0  0  0
   35.8138    4.2902   -0.9345 C   0  0  0  0  0  0  0  0  0  0  0  0
   36.6236    3.7208   -2.0134 N   0  0  0  0  0  0  0  0  0  0  0  0
   34.9325    3.9738    1.8518 O   0  0  0  0  0  0  0  0  0  0  0  0
   35.7267    8.9815    3.0633 C   0  0  0  0  0  0  0  0  0  0  0  0
   36.5178   10.2795    3.1266 C   0  0  0  0  0  0  0  0  0  0  0  0
   37.3534    7.8024   11.8247 C   0  0  1  0  0  0  0  0  0  0  0  0
   36.7340   10.9202    1.8137 N   0  0  0  0  0  0  0  0  0  0  0  0
   37.6775    8.7814   12.8085 O   0  0  0  0  0  0  0  0  0  0  0  0
   36.4837    5.5067    7.4465 C   0  0  2  0  0  0  0  0  0  0  0  0
   36.2180    4.5038    8.4702 N   0  0  0  0  0  0  0  0  0  0  0  0
   38.9220   12.0269    2.2470 C   0  0  0  0  0  0  0  0  0  0  0  0
   39.7292   13.3590    2.2962 C   0  0  0  0  0  0  0  0  0  0  0  0
   37.4684   12.2096    1.7375 C   0  0  0  0  0  0  0  0  0  0  0  0
   39.8381   13.9942    0.9486 N   0  0  0  0  0  0  0  0  0  0  0  0
   37.9893    4.5203    2.8817 O   0  0  0  0  0  0  0  0  0  0  0  0
   37.7230    6.3830   12.2998 C   0  0  2  0  0  0  0  0  0  0  0  0
   39.1064    6.2575   12.6194 O   0  0  0  0  0  0  0  0  0  0  0  0
   35.7825    6.7899    7.8449 C   0  0  2  0  0  0  0  0  0  0  0  0
   37.3534    5.3345   11.2351 C   0  0  2  0  0  0  0  0  0  0  0  0
   35.9722    5.4380   10.8721 O   0  0  0  0  0  0  0  0  0  0  0  0
   36.0647    7.9130    6.7662 C   0  0  2  0  0  0  0  0  0  0  0  0
   35.3627    9.1318    7.1659 O   0  0  0  0  0  0  0  0  0  0  0  0
   37.6290    3.9327   11.7098 C   0  0  0  0  0  0  0  0  0  0  0  0
   36.9241    3.6669   12.8621 O   0  0  0  0  0  0  0  0  0  0  0  0
   35.5429    7.4193    5.3744 C   0  0  1  0  0  0  0  0  0  0  0  0
   35.7550    8.3670    4.3688 O   0  0  0  0  0  0  0  0  0  0  0  0
  1  2  1  6  0  0  0
  1  5  1  0  0  0  0
  1 30  1  0  0  0  0
  3  4  1  6  0  0  0
  3  7  1  0  0  0  0
  3 35  1  0  0  0  0
  5  6  1  6  0  0  0
  5 16  1  0  0  0  0
  7 19  1  0  0  0  0
  8  4  1  0  0  0  0
  8 25  2  0  0  0  0
  9  8  1  1  0  0  0
  9 10  1  0  0  0  0
  9 13  1  0  0  0  0
 10 11  1  0  0  0  0
 11 12  1  0  0  0  0
 14 15  1  0  0  0  0
 14 36  1  0  0  0  0
 15 17  1  0  0  0  0
 16 18  1  1  0  0  0
 16 26  1  0  0  0  0
 17 23  1  0  0  0  0
 19 20  1  1  0  0  0
 19 28  1  0  0  0  0
 21 22  1  0  0  0  0
 21 23  1  0  0  0  0
 22 24  1  0  0  0  0
 26 27  1  6  0  0  0
 26 29  1  0  0  0  0
 28  2  1  1  0  0  0
 28 31  1  0  0  0  0
 29 30  1  0  0  0  0
 29 33  1  1  0  0  0
 31 32  1  1  0  0  0
 31 35  1  0  0  0  0
 33 34  1  0  0  0  0
 35 36  1  6  0  0  0
M  END
>  <CHROM.1>
-151.41554736,-89.68967765,169.81140328,176.42589498,-174.83206400,171.79199465
-175.32454829,178.74236459,62.55739972,-60.06627144,-175.82005260,-94.02082624
58.46988461,60.38018160,36.72385411,7.14370854,6.21272118,-1.62052569,-1.34729328
-1.45257195

>  <Name>
2f4u_lig

>  <RI>
0

>  <Rbt.Current_Directory>
/home/itssahil/PROJECTS/Mol_Feturizer/New_Systems/rnas/2f4u

>  <Rbt.Executable>
rbdock ($Id: //depot/dev/client3/rdock/2013.1/src/exe/rbdock.cxx#4 $)

>  <Rbt.Library>
libRbt.so (2013.1, Build901 2013/11/27)

>  <Rbt.Parameter_File>
/export/apps/rDock/src/rDock_2013.1_src/data/scripts/dock_solv.prm

>  <Rbt.Receptor>
prm/pocket_docking_8.prm

>  <SCORE>
-10.7447

>  <SCORE.INTER>
-3.66658

>  <SCORE.INTER.CONST>
1

>  <SCORE.INTER.POLAR>
0

>  <SCORE.INTER.ROT>
14

>  <SCORE.INTER.SOLV>
9.22826

>  <SCORE.INTER.VDW>
-18.4538

>  <SCORE.INTER.norm>
-0.101849

>  <SCORE.INTRA>
-7.07812

>  <SCORE.INTRA.DIHEDRAL>
-16.6321

>  <SCORE.INTRA.DIHEDRAL.0>
26.3805

>  <SCORE.INTRA.POLAR>
0

>  <SCORE.INTRA.POLAR.0>
0

>  <SCORE.INTRA.REPUL>
0

>  <SCORE.INTRA.REPUL.0>
0

>  <SCORE.INTRA.SOLV>
2.64162

>  <SCORE.INTRA.SOLV.lig_0>
-98.5587

>  <SCORE.INTRA.VDW>
-0.0828734

>  <SCORE.INTRA.VDW.0>
-2.91167

>  <SCORE.INTRA.norm>
-0.196615

>  <SCORE.RESTR>
0

>  <SCORE.RESTR.CAVITY>
0

>  <SCORE.RESTR.norm>
0

>  <SCORE.SYSTEM>
0

>  <SCORE.SYSTEM.CONST>
0

>  <SCORE.SYSTEM.DIHEDRAL>
0

>  <SCORE.SYSTEM.SOLV>
0

>  <SCORE.SYSTEM.norm>
0

>  <SCORE.heavy>
36

>  <SCORE.norm>
-0.298464

>  <RMSD>
9.629

$$$$
2f4u_lig
 OpenBabel11021811433D
libRbt.so/2013.1/901 2013/11/27
 36 37  0  0  0  0  0  0  0  0999 V2000
   44.9927    1.7855    6.9258 C   0  0  2  0  0  0  0  0  0  0  0  0
   44.0487    1.8483    8.0584 O   0  0  0  0  0  0  0  0  0  0  0  0
   40.8417    4.5400    6.8900 C   0  0  2  0  0  0  0  0  0  0  0  0
   39.7509    5.5456    7.0080 N   0  0  0  0  0  0  0  0  0  0  0  0
   45.5271    0.3208    6.8686 C   0  0  2  0  0  0  0  0  0  0  0  0
   44.4495   -0.6709    6.6971 N   0  0  0  0  0  0  0  0  0  0  0  0
   40.5441    3.2569    7.7434 C   0  0  0  0  0  0  0  0  0  0  0  0
   39.5351    6.0662    8.7021 C   0  0  0  0  0  0  0  0  0  0  0  0
   38.3511    6.8127    8.1724 C   0  0  1  0  0  0  0  0  0  0  0  0
   37.1053    5.9874    8.5136 C   0  0  0  0  0  0  0  0  0  0  0  0
   37.0136    4.6031    7.8454 C   0  0  0  0  0  0  0  0  0  0  0  0
   35.7385    3.9886    8.2200 N   0  0  0  0  0  0  0  0  0  0  0  0
   38.2294    8.0514    8.8166 O   0  0  0  0  0  0  0  0  0  0  0  0
   42.4297    7.1881    5.4415 C   0  0  0  0  0  0  0  0  0  0  0  0
   41.0348    7.3050    4.8454 C   0  0  0  0  0  0  0  0  0  0  0  0
   46.3265    0.0236    8.1805 C   0  0  1  0  0  0  0  0  0  0  0  0
   40.8842    8.4041    3.8706 N   0  0  0  0  0  0  0  0  0  0  0  0
   46.8283   -1.3104    8.1827 O   0  0  0  0  0  0  0  0  0  0  0  0
   41.7051    2.2452    7.6583 C   0  0  2  0  0  0  0  0  0  0  0  0
   41.4485    1.0739    8.4868 N   0  0  0  0  0  0  0  0  0  0  0  0
   38.4382    8.7404    4.1930 C   0  0  0  0  0  0  0  0  0  0  0  0
   37.2545    9.7520    4.2542 C   0  0  0  0  0  0  0  0  0  0  0  0
   39.8245    9.4256    4.0731 C   0  0  0  0  0  0  0  0  0  0  0  0
   35.9327    9.0591    4.3190 N   0  0  0  0  0  0  0  0  0  0  0  0
   40.0141    5.8615    9.6455 O   0  0  0  0  0  0  0  0  0  0  0  0
   47.4674    1.0545    8.2928 C   0  0  2  0  0  0  0  0  0  0  0  0
   48.2537    0.8725    9.4677 O   0  0  0  0  0  0  0  0  0  0  0  0
   42.9977    2.8841    8.1254 C   0  0  2  0  0  0  0  0  0  0  0  0
   46.9132    2.4905    8.2732 C   0  0  2  0  0  0  0  0  0  0  0  0
   46.1010    2.7103    7.1146 O   0  0  0  0  0  0  0  0  0  0  0  0
   43.3230    4.1510    7.2345 C   0  0  2  0  0  0  0  0  0  0  0  0
   44.5629    4.7565    7.7183 O   0  0  0  0  0  0  0  0  0  0  0  0
   48.0144    3.5165    8.2985 C   0  0  0  0  0  0  0  0  0  0  0  0
   48.6262    3.5365    9.5315 O   0  0  0  0  0  0  0  0  0  0  0  0
   42.1399    5.1703    7.3545 C   0  0  1  0  0  0  0  0  0  0  0  0
   42.3612    6.3222    6.5940 O   0  0  0  0  0  0  0  0  0  0  0  0
  1  2  1  1  0  0  0
  1  5  1  0  0  0  0
  1 30  1  0  0  0  0
  3  4  1  1  0  0  0
  3  7  1  0  0  0  0
  3 35  1  0  0  0  0
  5  6  1  1  0  0  0
  5 16  1  0  0  0  0
  7 19  1  0  0  0  0
  8  4  1  0  0  0  0
  8 25  2  0  0  0  0
  9  8  1  1  0  0  0
  9 10  1  0  0  0  0
  9 13  1  0  0  0  0
 10 11  1  0  0  0  0
 11 12  1  0  0  0  0
 14 15  1  0  0  0  0
 14 36  1  0  0  0  0
 15 17  1  0  0  0  0
 16 18  1  6  0  0  0
 16 26  1  0  0  0  0
 17 23  1  0  0  0  0
 19 20  1  1  0  0  0
 19 28  1  0  0  0  0
 21 22  1  0  0  0  0
 21 23  1  0  0  0  0
 22 24  1  0  0  0  0
 26 27  1  1  0  0  0
 26 29  1  0  0  0  0
 28  2  1  6  0  0  0
 28 31  1  0  0  0  0
 29 30  1  0  0  0  0
 29 33  1  6  0  0  0
 31 32  1  1  0  0  0
 31 35  1  0  0  0  0
 33 34  1  0  0  0  0
 35 36  1  6  0  0  0
M  END
>  <CHROM.1>
-157.20455747,59.92581843,100.94583787,-64.03149012,-176.94572381,165.90260010
60.48123543,-124.65383353,-55.78601681,177.91778693,-173.81374946,99.63517405
-70.64445459,-42.42287354,42.24793277,4.37153930,7.29132850,-0.65622989,0.14266405
-0.49496981

>  <Name>
2f4u_lig

>  <RI>
0

>  <Rbt.Current_Directory>
/home/itssahil/PROJECTS/Mol_Feturizer/New_Systems/rnas/2f4u

>  <Rbt.Executable>
rbdock ($Id: //depot/dev/client3/rdock/2013.1/src/exe/rbdock.cxx#4 $)

>  <Rbt.Library>
libRbt.so (2013.1, Build901 2013/11/27)

>  <Rbt.Parameter_File>
/export/apps/rDock/src/rDock_2013.1_src/data/scripts/dock_solv.prm

>  <Rbt.Receptor>
prm/pocket_docking_4.prm

>  <SCORE>
-18.9016

>  <SCORE.INTER>
-12.3753

>  <SCORE.INTER.CONST>
1

>  <SCORE.INTER.POLAR>
-2.79944

>  <SCORE.INTER.ROT>
14

>  <SCORE.INTER.SOLV>
18.7254

>  <SCORE.INTER.VDW>
-18.0939

>  <SCORE.INTER.norm>
-0.343758

>  <SCORE.INTRA>
-6.5263

>  <SCORE.INTRA.DIHEDRAL>
-12.5991

>  <SCORE.INTRA.DIHEDRAL.0>
26.3805

>  <SCORE.INTRA.POLAR>
0

>  <SCORE.INTRA.POLAR.0>
0

>  <SCORE.INTRA.REPUL>
0

>  <SCORE.INTRA.REPUL.0>
0

>  <SCORE.INTRA.SOLV>
0.93227

>  <SCORE.INTRA.SOLV.lig_0>
-98.5587

>  <SCORE.INTRA.VDW>
-0.692856

>  <SCORE.INTRA.VDW.0>
-2.91167

>  <SCORE.INTRA.norm>
-0.181286

>  <SCORE.RESTR>
0

>  <SCORE.RESTR.CAVITY>
0

>  <SCORE.RESTR.norm>
0

>  <SCORE.SYSTEM>
0

>  <SCORE.SYSTEM.CONST>
0

>  <SCORE.SYSTEM.DIHEDRAL>
0

>  <SCORE.SYSTEM.SOLV>
0

>  <SCORE.SYSTEM.norm>
0

>  <SCORE.heavy>
36

>  <SCORE.norm>
-0.525044

>  <RMSD>
9.639

$$$$
2f4u_lig
 OpenBabel11021811433D
libRbt.so/2013.1/901 2013/11/27
 36 37  0  0  0  0  0  0  0  0999 V2000
   35.5466    7.7452    4.2014 C   0  0  2  0  0  0  0  0  0  0  0  0
   34.6328    8.3758    5.1736 O   0  0  0  0  0  0  0  0  0  0  0  0
   31.6898    6.7057    7.9020 C   0  0  2  0  0  0  0  0  0  0  0  0
   31.1079    5.8645    8.9831 N   0  0  0  0  0  0  0  0  0  0  0  0
   36.8846    7.4722    4.9560 C   0  0  2  0  0  0  0  0  0  0  0  0
   36.7057    6.6034    6.1339 N   0  0  0  0  0  0  0  0  0  0  0  0
   32.3120    5.8316    6.7566 C   0  0  0  0  0  0  0  0  0  0  0  0
   29.7942    4.8298    8.3579 C   0  0  0  0  0  0  0  0  0  0  0  0
   29.5928    4.4622    9.7945 C   0  0  1  0  0  0  0  0  0  0  0  0
   28.2698    3.6934    9.8843 C   0  0  0  0  0  0  0  0  0  0  0  0
   27.8927    3.1676   11.2817 C   0  0  0  0  0  0  0  0  0  0  0  0
   28.8490    2.1258   11.6612 N   0  0  0  0  0  0  0  0  0  0  0  0
   30.6133    3.6030   10.2242 O   0  0  0  0  0  0  0  0  0  0  0  0
   31.3239    9.2975   10.1923 C   0  0  0  0  0  0  0  0  0  0  0  0
   31.5965    9.2321   11.6877 C   0  0  0  0  0  0  0  0  0  0  0  0
   37.5087    8.8406    5.3880 C   0  0  1  0  0  0  0  0  0  0  0  0
   30.5137    8.6056   12.4726 N   0  0  0  0  0  0  0  0  0  0  0  0
   38.7317    8.6451    6.0934 O   0  0  0  0  0  0  0  0  0  0  0  0
   32.9608    6.7118    5.6690 C   0  0  2  0  0  0  0  0  0  0  0  0
   33.5782    5.8989    4.6286 N   0  0  0  0  0  0  0  0  0  0  0  0
   29.3863    6.6920   13.5983 C   0  0  0  0  0  0  0  0  0  0  0  0
   29.3689    5.1530   13.8417 C   0  0  0  0  0  0  0  0  0  0  0  0
   30.3798    7.1260   12.4891 C   0  0  0  0  0  0  0  0  0  0  0  0
   28.4884    4.7806   14.9894 N   0  0  0  0  0  0  0  0  0  0  0  0
   29.3445    4.6396    7.3972 O   0  0  0  0  0  0  0  0  0  0  0  0
   37.7195    9.6945    4.1216 C   0  0  2  0  0  0  0  0  0  0  0  0
   38.2793   10.9726    4.4124 O   0  0  0  0  0  0  0  0  0  0  0  0
   34.0293    7.5993    6.2757 C   0  0  2  0  0  0  0  0  0  0  0  0
   36.3946    9.8843    3.3613 C   0  0  2  0  0  0  0  0  0  0  0  0
   35.7889    8.6213    3.0643 O   0  0  0  0  0  0  0  0  0  0  0  0
   33.3927    8.5150    7.3985 C   0  0  2  0  0  0  0  0  0  0  0  0
   34.4475    9.3457    7.9776 O   0  0  0  0  0  0  0  0  0  0  0  0
   36.5896   10.6455    2.0773 C   0  0  0  0  0  0  0  0  0  0  0  0
   37.0006   11.9332    2.3381 O   0  0  0  0  0  0  0  0  0  0  0  0
   32.7597    7.5982    8.4994 C   0  0  1  0  0  0  0  0  0  0  0  0
   32.1800    8.3421    9.5313 O   0  0  0  0  0  0  0  0  0  0  0  0
  1  2  1  1  0  0  0
  1  5  1  0  0  0  0
  1 30  1  0  0  0  0
  3  4  1  1  0  0  0
  3  7  1  0  0  0  0
  3 35  1  0  0  0  0
  5  6  1  1  0  0  0
  5 16  1  0  0  0  0
  7 19  1  0  0  0  0
  8  4  1  0  0  0  0
  8 25  2  0  0  0  0
  9  8  1  6  0  0  0
  9 10  1  0  0  0  0
  9 13  1  0  0  0  0
 10 11  1  0  0  0  0
 11 12  1  0  0  0  0
 14 15  1  0  0  0  0
 14 36  1  0  0  0  0
 15 17  1  0  0  0  0
 16 18  1  6  0  0  0
 16 26  1  0  0  0  0
 17 23  1  0  0  0  0
 19 20  1  6  0  0  0
 19 28  1  0  0  0  0
 21 22  1  0  0  0  0
 21 23  1  0  0  0  0
 22 24  1  0  0  0  0
 26 27  1  1  0  0  0
 26 29  1  0  0  0  0
 28  2  1  6  0  0  0
 28 31  1  0  0  0  0
 29 30  1  0  0  0  0
 29 33  1  6  0  0  0
 31 32  1  1  0  0  0
 31 35  1  0  0  0  0
 33 34  1  0  0  0  0
 35 36  1  1  0  0  0
M  END
>  <CHROM.1>
-72.08329194,-60.97611918,168.93664868,177.68821486,-67.22911140,-108.06182794
178.76030089,78.00323431,167.98434684,175.27987116,-170.35643083,-73.48429513
-65.14610232,-65.15989114,32.97210488,7.23680495,7.83470501,0.32878119,-0.82158121
-2.18623694

>  <Name>
2f4u_lig

>  <RI>
0

>  <Rbt.Current_Directory>
/home/itssahil/PROJECTS/Mol_Feturizer/New_Systems/rnas/2f4u

>  <Rbt.Executable>
rbdock ($Id: //depot/dev/client3/rdock/2013.1/src/exe/rbdock.cxx#4 $)

>  <Rbt.Library>
libRbt.so (2013.1, Build901 2013/11/27)

>  <Rbt.Parameter_File>
/export/apps/rDock/src/rDock_2013.1_src/data/scripts/dock_solv.prm

>  <Rbt.Receptor>
prm/pocket_docking_8.prm

>  <SCORE>
-20.004

>  <SCORE.INTER>
-13.8282

>  <SCORE.INTER.CONST>
1

>  <SCORE.INTER.POLAR>
-0.979796

>  <SCORE.INTER.ROT>
14

>  <SCORE.INTER.SOLV>
11.0795

>  <SCORE.INTER.VDW>
-22.5793

>  <SCORE.INTER.norm>
-0.384116

>  <SCORE.INTRA>
-6.17585

>  <SCORE.INTRA.DIHEDRAL>
-17.6834

>  <SCORE.INTRA.DIHEDRAL.0>
26.3805

>  <SCORE.INTRA.POLAR>
0

>  <SCORE.INTRA.POLAR.0>
0

>  <SCORE.INTRA.REPUL>
0

>  <SCORE.INTRA.REPUL.0>
0

>  <SCORE.INTRA.SOLV>
6.61926

>  <SCORE.INTRA.SOLV.lig_0>
-98.5587

>  <SCORE.INTRA.VDW>
-0.643787

>  <SCORE.INTRA.VDW.0>
-2.91167

>  <SCORE.INTRA.norm>
-0.171551

>  <SCORE.RESTR>
0

>  <SCORE.RESTR.CAVITY>
0

>  <SCORE.RESTR.norm>
0

>  <SCORE.SYSTEM>
0

>  <SCORE.SYSTEM.CONST>
0

>  <SCORE.SYSTEM.DIHEDRAL>
0

>  <SCORE.SYSTEM.SOLV>
0

>  <SCORE.SYSTEM.norm>
0

>  <SCORE.heavy>
36

>  <SCORE.norm>
-0.555667

>  <RMSD>
9.652

$$$$
2f4u_lig
 OpenBabel11021811433D
libRbt.so/2013.1/901 2013/11/27
 36 37  0  0  0  0  0  0  0  0999 V2000
   46.7721    1.8326    8.4388 C   0  0  2  0  0  0  0  0  0  0  0  0
   46.7173    2.7903    7.3174 O   0  0  0  0  0  0  0  0  0  0  0  0
   43.2232    5.2190    6.4297 C   0  0  2  0  0  0  0  0  0  0  0  0
   41.9525    5.6547    5.7893 N   0  0  0  0  0  0  0  0  0  0  0  0
   48.2817    1.5525    8.7157 C   0  0  2  0  0  0  0  0  0  0  0  0
   49.0354    2.7762    9.0455 N   0  0  0  0  0  0  0  0  0  0  0  0
   44.3777    5.0563    5.3791 C   0  0  0  0  0  0  0  0  0  0  0  0
   42.2201    7.0543    4.7136 C   0  0  0  0  0  0  0  0  0  0  0  0
   40.7291    7.0586    4.5838 C   0  0  1  0  0  0  0  0  0  0  0  0
   40.2773    8.5232    4.5976 C   0  0  0  0  0  0  0  0  0  0  0  0
   38.7553    8.7557    4.6238 C   0  0  0  0  0  0  0  0  0  0  0  0
   38.5026   10.1958    4.5463 N   0  0  0  0  0  0  0  0  0  0  0  0
   40.3468    6.5078    3.3530 O   0  0  0  0  0  0  0  0  0  0  0  0
   40.9824    3.7594    9.0785 C   0  0  0  0  0  0  0  0  0  0  0  0
   40.2347    5.0342    9.4399 C   0  0  0  0  0  0  0  0  0  0  0  0
   48.9055    0.8602    7.4586 C   0  0  1  0  0  0  0  0  0  0  0  0
   39.3321    4.8970   10.6008 N   0  0  0  0  0  0  0  0  0  0  0  0
   50.2911    0.5921    7.6570 O   0  0  0  0  0  0  0  0  0  0  0  0
   45.6743    4.5515    6.0444 C   0  0  2  0  0  0  0  0  0  0  0  0
   46.7328    4.3572    5.0615 N   0  0  0  0  0  0  0  0  0  0  0  0
   37.8949    3.2900   11.8465 C   0  0  0  0  0  0  0  0  0  0  0  0
   37.5836    4.2573   13.0280 C   0  0  0  0  0  0  0  0  0  0  0  0
   38.1345    4.0233   10.5009 C   0  0  0  0  0  0  0  0  0  0  0  0
   36.3214    5.0237   12.8024 N   0  0  0  0  0  0  0  0  0  0  0  0
   43.0680    7.6352    4.3897 O   0  0  0  0  0  0  0  0  0  0  0  0
   48.1156   -0.4344    7.1807 C   0  0  2  0  0  0  0  0  0  0  0  0
   48.6044   -1.1379    6.0415 O   0  0  0  0  0  0  0  0  0  0  0  0
   45.4284    3.2305    6.7457 C   0  0  2  0  0  0  0  0  0  0  0  0
   46.6190   -0.1326    6.9843 C   0  0  2  0  0  0  0  0  0  0  0  0
   46.0914    0.5906    8.1018 O   0  0  0  0  0  0  0  0  0  0  0  0
   44.2971    3.4052    7.8384 C   0  0  2  0  0  0  0  0  0  0  0  0
   44.0684    2.1138    8.4850 O   0  0  0  0  0  0  0  0  0  0  0  0
   45.8141   -1.3903    6.7935 C   0  0  0  0  0  0  0  0  0  0  0  0
   44.4928   -1.0855    6.5564 O   0  0  0  0  0  0  0  0  0  0  0  0
   42.9872    3.8980    7.1351 C   0  0  1  0  0  0  0  0  0  0  0  0
   41.9379    4.0703    8.0426 O   0  0  0  0  0  0  0  0  0  0  0  0
  1  2  1  6  0  0  0
  1  5  1  0  0  0  0
  1 30  1  0  0  0  0
  3  4  1  6  0  0  0
  3  7  1  0  0  0  0
  3 35  1  0  0  0  0
  5  6  1  6  0  0  0
  5 16  1  0  0  0  0
  7 19  1  0  0  0  0
  8  4  1  0  0  0  0
  8 25  2  0  0  0  0
  9  8  1  6  0  0  0
  9 10  1  0  0  0  0
  9 13  1  0  0  0  0
 10 11  1  0  0  0  0
 11 12  1  0  0  0  0
 14 15  1  0  0  0  0
 14 36  1  0  0  0  0
 15 17  1  0  0  0  0
 16 18  1  1  0  0  0
 16 26  1  0  0  0  0
 17 23  1  0  0  0  0
 19 20  1  6  0  0  0
 19 28  1  0  0  0  0
 21 22  1  0  0  0  0
 21 23  1  0  0  0  0
 22 24  1  0  0  0  0
 26 27  1  6  0  0  0
 26 29  1  0  0  0  0
 28  2  1  1  0  0  0
 28 31  1  0  0  0  0
 29 30  1  0  0  0  0
 29 33  1  1  0  0  0
 31 32  1  6  0  0  0
 31 35  1  0  0  0  0
 33 34  1  0  0  0  0
 35 36  1  1  0  0  0
M  END
>  <CHROM.1>
177.06816987,-49.20911490,139.90086844,-173.79542736,-176.36735371,-173.21576656
173.64766620,-66.60462586,142.80027372,62.74307259,63.04413085,158.08009519
-177.10190637,-177.03303240,43.48255388,3.69459502,7.36332782,0.33696500
-0.49624998,2.28020548

>  <Name>
2f4u_lig

>  <RI>
0

>  <Rbt.Current_Directory>
/home/itssahil/PROJECTS/Mol_Feturizer/New_Systems/rnas/2f4u

>  <Rbt.Executable>
rbdock ($Id: //depot/dev/client3/rdock/2013.1/src/exe/rbdock.cxx#4 $)

>  <Rbt.Library>
libRbt.so (2013.1, Build901 2013/11/27)

>  <Rbt.Parameter_File>
/export/apps/rDock/src/rDock_2013.1_src/data/scripts/dock_solv.prm

>  <Rbt.Receptor>
prm/pocket_docking_4.prm

>  <SCORE>
-17.4871

>  <SCORE.INTER>
-7.74925

>  <SCORE.INTER.CONST>
1

>  <SCORE.INTER.POLAR>
-1.39588

>  <SCORE.INTER.ROT>
14

>  <SCORE.INTER.SOLV>
12.3332

>  <SCORE.INTER.VDW>
-17.5576

>  <SCORE.INTER.norm>
-0.215257

>  <SCORE.INTRA>
-9.73782

>  <SCORE.INTRA.DIHEDRAL>
-20.5948

>  <SCORE.INTRA.DIHEDRAL.0>
26.3805

>  <SCORE.INTRA.POLAR>
0

>  <SCORE.INTRA.POLAR.0>
0

>  <SCORE.INTRA.REPUL>
0

>  <SCORE.INTRA.REPUL.0>
0

>  <SCORE.INTRA.SOLV>
0.0654141

>  <SCORE.INTRA.SOLV.lig_0>
-98.5587

>  <SCORE.INTRA.VDW>
0.526875

>  <SCORE.INTRA.VDW.0>
-2.91167

>  <SCORE.INTRA.norm>
-0.270495

>  <SCORE.RESTR>
0

>  <SCORE.RESTR.CAVITY>
0

>  <SCORE.RESTR.norm>
0

>  <SCORE.SYSTEM>
0

>  <SCORE.SYSTEM.CONST>
0

>  <SCORE.SYSTEM.DIHEDRAL>
0

>  <SCORE.SYSTEM.SOLV>
0

>  <SCORE.SYSTEM.norm>
0

>  <SCORE.heavy>
36

>  <SCORE.norm>
-0.485752

>  <RMSD>
9.659

$$$$
2f4u_lig
 OpenBabel11021811433D
libRbt.so/2013.1/901 2013/11/27
 36 37  0  0  0  0  0  0  0  0999 V2000
   41.9560    4.7521    4.9214 C   0  0  2  0  0  0  0  0  0  0  0  0
   40.8583    4.5657    3.9529 O   0  0  0  0  0  0  0  0  0  0  0  0
   37.0480    6.5364    3.2506 C   0  0  2  0  0  0  0  0  0  0  0  0
   35.6796    7.0614    3.5091 N   0  0  0  0  0  0  0  0  0  0  0  0
   43.2640    4.2833    4.2119 C   0  0  2  0  0  0  0  0  0  0  0  0
   43.5377    5.0327    2.9719 N   0  0  0  0  0  0  0  0  0  0  0  0
   37.1236    4.9828    3.4594 C   0  0  0  0  0  0  0  0  0  0  0  0
   35.1949    6.7891    5.2057 C   0  0  0  0  0  0  0  0  0  0  0  0
   33.8665    7.3159    4.7615 C   0  0  1  0  0  0  0  0  0  0  0  0
   33.0595    6.1239    4.2346 C   0  0  0  0  0  0  0  0  0  0  0  0
   32.8508    4.9641    5.2258 C   0  0  0  0  0  0  0  0  0  0  0  0
   31.9890    5.4305    6.3137 N   0  0  0  0  0  0  0  0  0  0  0  0
   33.1677    7.8534    5.8510 O   0  0  0  0  0  0  0  0  0  0  0  0
   37.3198    9.9210    3.9665 C   0  0  0  0  0  0  0  0  0  0  0  0
   36.1873    9.9171    2.9505 C   0  0  0  0  0  0  0  0  0  0  0  0
   43.1491    2.7540    3.9007 C   0  0  1  0  0  0  0  0  0  0  0  0
   36.5789   10.3891    1.6071 N   0  0  0  0  0  0  0  0  0  0  0  0
   44.3186    2.2771    3.2401 O   0  0  0  0  0  0  0  0  0  0  0  0
   38.5573    4.4571    3.2432 C   0  0  2  0  0  0  0  0  0  0  0  0
   38.6364    3.0214    3.4814 N   0  0  0  0  0  0  0  0  0  0  0  0
   37.1819   12.1096   -0.0889 C   0  0  0  0  0  0  0  0  0  0  0  0
   36.3727   11.4856   -1.2653 C   0  0  0  0  0  0  0  0  0  0  0  0
   36.5474   11.8427    1.3011 C   0  0  0  0  0  0  0  0  0  0  0  0
   35.1045   12.2306   -1.5258 N   0  0  0  0  0  0  0  0  0  0  0  0
   35.6534    6.3742    6.0884 O   0  0  0  0  0  0  0  0  0  0  0  0
   42.9097    2.0093    5.2293 C   0  0  2  0  0  0  0  0  0  0  0  0
   42.7813    0.6011    5.0500 O   0  0  0  0  0  0  0  0  0  0  0  0
   39.5214    5.1492    4.1858 C   0  0  2  0  0  0  0  0  0  0  0  0
   41.6534    2.5448    5.9397 C   0  0  2  0  0  0  0  0  0  0  0  0
   41.7343    3.9624    6.1242 O   0  0  0  0  0  0  0  0  0  0  0  0
   39.4804    6.7125    3.9430 C   0  0  2  0  0  0  0  0  0  0  0  0
   40.4047    7.3548    4.8765 O   0  0  0  0  0  0  0  0  0  0  0  0
   41.4452    1.8899    7.2790 C   0  0  0  0  0  0  0  0  0  0  0  0
   42.6274    1.8460    7.9830 O   0  0  0  0  0  0  0  0  0  0  0  0
   38.0204    7.2238    4.1887 C   0  0  1  0  0  0  0  0  0  0  0  0
   37.9091    8.6040    3.9965 O   0  0  0  0  0  0  0  0  0  0  0  0
  1  2  1  6  0  0  0
  1  5  1  0  0  0  0
  1 30  1  0  0  0  0
  3  4  1  1  0  0  0
  3  7  1  0  0  0  0
  3 35  1  0  0  0  0
  5  6  1  6  0  0  0
  5 16  1  0  0  0  0
  7 19  1  0  0  0  0
  8  4  1  0  0  0  0
  8 25  2  0  0  0  0
  9  8  1  1  0  0  0
  9 10  1  0  0  0  0
  9 13  1  0  0  0  0
 10 11  1  0  0  0  0
 11 12  1  0  0  0  0
 14 15  1  0  0  0  0
 14 36  1  0  0  0  0
 15 17  1  0  0  0  0
 16 18  1  1  0  0  0
 16 26  1  0  0  0  0
 17 23  1  0  0  0  0
 19 20  1  1  0  0  0
 19 28  1  0  0  0  0
 21 22  1  0  0  0  0
 21 23  1  0  0  0  0
 22 24  1  0  0  0  0
 26 27  1  6  0  0  0
 26 29  1  0  0  0  0
 28  2  1  6  0  0  0
 28 31  1  0  0  0  0
 29 30  1  0  0  0  0
 29 33  1  1  0  0  0
 31 32  1  1  0  0  0
 31 35  1  0  0  0  0
 33 34  1  0  0  0  0
 35 36  1  6  0  0  0
M  END
>  <CHROM.1>
-167.82725687,62.65467060,87.76195792,57.28399020,67.10982656,-94.84918611
-63.84342002,-86.27010711,172.15988884,72.76846367,65.22878750,-164.11833067
45.79147855,62.75882274,38.46851685,6.10022703,4.01928635,-0.75392480,0.26769002
-0.66338387

>  <Name>
2f4u_lig

>  <RI>
0

>  <Rbt.Current_Directory>
/home/itssahil/PROJECTS/Mol_Feturizer/New_Systems/rnas/2f4u

>  <Rbt.Executable>
rbdock ($Id: //depot/dev/client3/rdock/2013.1/src/exe/rbdock.cxx#4 $)

>  <Rbt.Library>
libRbt.so (2013.1, Build901 2013/11/27)

>  <Rbt.Parameter_File>
/export/apps/rDock/src/rDock_2013.1_src/data/scripts/dock_solv.prm

>  <Rbt.Receptor>
prm/pocket_docking_5.prm

>  <SCORE>
-12.0227

>  <SCORE.INTER>
-4.9342

>  <SCORE.INTER.CONST>
1

>  <SCORE.INTER.POLAR>
-0.884577

>  <SCORE.INTER.ROT>
14

>  <SCORE.INTER.SOLV>
12.3097

>  <SCORE.INTER.VDW>
-17.3774

>  <SCORE.INTER.norm>
-0.137061

>  <SCORE.INTRA>
-7.08848

>  <SCORE.INTRA.DIHEDRAL>
-17.1308

>  <SCORE.INTRA.DIHEDRAL.0>
26.3805

>  <SCORE.INTRA.POLAR>
0

>  <SCORE.INTRA.POLAR.0>
0

>  <SCORE.INTRA.REPUL>
0

>  <SCORE.INTRA.REPUL.0>
0

>  <SCORE.INTRA.SOLV>
4.98687

>  <SCORE.INTRA.SOLV.lig_0>
-98.5587

>  <SCORE.INTRA.VDW>
-1.01649

>  <SCORE.INTRA.VDW.0>
-2.91167

>  <SCORE.INTRA.norm>
-0.196902

>  <SCORE.RESTR>
0

>  <SCORE.RESTR.CAVITY>
0

>  <SCORE.RESTR.norm>
0

>  <SCORE.SYSTEM>
0

>  <SCORE.SYSTEM.CONST>
0

>  <SCORE.SYSTEM.DIHEDRAL>
0

>  <SCORE.SYSTEM.SOLV>
0

>  <SCORE.SYSTEM.norm>
0

>  <SCORE.heavy>
36

>  <SCORE.norm>
-0.333963

>  <RMSD>
9.873

$$$$
2f4u_lig
 OpenBabel11021811433D
libRbt.so/2013.1/901 2013/11/27
 36 37  0  0  0  0  0  0  0  0999 V2000
   44.2031    2.8296    7.8993 C   0  0  2  0  0  0  0  0  0  0  0  0
   43.5653    3.7454    6.9338 O   0  0  0  0  0  0  0  0  0  0  0  0
   40.0068    6.1643    7.5512 C   0  0  2  0  0  0  0  0  0  0  0  0
   39.1286    7.2482    8.0698 N   0  0  0  0  0  0  0  0  0  0  0  0
   45.6826    2.6509    7.4374 C   0  0  2  0  0  0  0  0  0  0  0  0
   46.4169    3.9281    7.3759 N   0  0  0  0  0  0  0  0  0  0  0  0
   40.5943    5.2867    8.7122 C   0  0  0  0  0  0  0  0  0  0  0  0
   37.6468    7.4028    7.0861 C   0  0  0  0  0  0  0  0  0  0  0  0
   37.3774    8.6033    7.9381 C   0  0  1  0  0  0  0  0  0  0  0  0
   36.1160    9.2768    7.3862 C   0  0  0  0  0  0  0  0  0  0  0  0
   34.7764    8.6785    7.8540 C   0  0  0  0  0  0  0  0  0  0  0  0
   34.6692    7.3136    7.3348 N   0  0  0  0  0  0  0  0  0  0  0  0
   37.1079    8.2129    9.2569 O   0  0  0  0  0  0  0  0  0  0  0  0
   40.5084    8.4347    4.5923 C   0  0  0  0  0  0  0  0  0  0  0  0
   39.0832    8.9525    4.4685 C   0  0  0  0  0  0  0  0  0  0  0  0
   45.6932    1.9575    6.0346 C   0  0  1  0  0  0  0  0  0  0  0  0
   38.9659   10.4229    4.5406 N   0  0  0  0  0  0  0  0  0  0  0  0
   47.0259    1.7806    5.5614 O   0  0  0  0  0  0  0  0  0  0  0  0
   41.5461    4.2018    8.1684 C   0  0  2  0  0  0  0  0  0  0  0  0
   42.1265    3.4162    9.2502 N   0  0  0  0  0  0  0  0  0  0  0  0
   38.8466   12.6327    3.3992 C   0  0  0  0  0  0  0  0  0  0  0  0
   39.3963   13.5587    2.2729 C   0  0  0  0  0  0  0  0  0  0  0  0
   39.5672   11.2611    3.4713 C   0  0  0  0  0  0  0  0  0  0  0  0
   39.3335   12.9027    0.9324 N   0  0  0  0  0  0  0  0  0  0  0  0
   37.2181    6.8910    6.2401 O   0  0  0  0  0  0  0  0  0  0  0  0
   44.9562    0.6089    6.1590 C   0  0  2  0  0  0  0  0  0  0  0  0
   44.9036   -0.1001    4.9236 O   0  0  0  0  0  0  0  0  0  0  0  0
   42.6760    4.8362    7.3823 C   0  0  2  0  0  0  0  0  0  0  0  0
   43.5243    0.8128    6.6859 C   0  0  2  0  0  0  0  0  0  0  0  0
   43.5312    1.5383    7.9203 O   0  0  0  0  0  0  0  0  0  0  0  0
   42.0859    5.6831    6.1827 C   0  0  2  0  0  0  0  0  0  0  0  0
   43.1951    6.2971    5.4541 O   0  0  0  0  0  0  0  0  0  0  0  0
   42.8122   -0.4971    6.8942 C   0  0  0  0  0  0  0  0  0  0  0  0
   42.8142   -0.8400    8.2274 O   0  0  0  0  0  0  0  0  0  0  0  0
   41.1404    6.7892    6.7621 C   0  0  1  0  0  0  0  0  0  0  0  0
   40.5840    7.5834    5.7552 O   0  0  0  0  0  0  0  0  0  0  0  0
  1  2  1  6  0  0  0
  1  5  1  0  0  0  0
  1 30  1  0  0  0  0
  3  4  1  1  0  0  0
  3  7  1  0  0  0  0
  3 35  1  0  0  0  0
  5  6  1  6  0  0  0
  5 16  1  0  0  0  0
  7 19  1  0  0  0  0
  8  4  1  0  0  0  0
  8 25  2  0  0  0  0
  9  8  1  6  0  0  0
  9 10  1  0  0  0  0
  9 13  1  0  0  0  0
 10 11  1  0  0  0  0
 11 12  1  0  0  0  0
 14 15  1  0  0  0  0
 14 36  1  0  0  0  0
 15 17  1  0  0  0  0
 16 18  1  1  0  0  0
 16 26  1  0  0  0  0
 17 23  1  0  0  0  0
 19 20  1  1  0  0  0
 19 28  1  0  0  0  0
 21 22  1  0  0  0  0
 21 23  1  0  0  0  0
 22 24  1  0  0  0  0
 26 27  1  6  0  0  0
 26 29  1  0  0  0  0
 28  2  1  6  0  0  0
 28 31  1  0  0  0  0
 29 30  1  0  0  0  0
 29 33  1  1  0  0  0
 31 32  1  1  0  0  0
 31 35  1  0  0  0  0
 33 34  1  0  0  0  0
 35 36  1  6  0  0  0
M  END
>  <CHROM.1>
-136.76118514,-136.94630441,175.11304898,82.58522727,-65.02489402,119.25111029
-171.56195122,65.34009076,155.88219044,56.18022211,-178.47389877,-58.06567998
101.06984481,-174.07059043,41.09824616,5.80982742,6.43942819,-0.83712651
0.48971222,-0.60243981

>  <Name>
2f4u_lig

>  <RI>
0

>  <Rbt.Current_Directory>
/home/itssahil/PROJECTS/Mol_Feturizer/New_Systems/rnas/2f4u

>  <Rbt.Executable>
rbdock ($Id: //depot/dev/client3/rdock/2013.1/src/exe/rbdock.cxx#4 $)

>  <Rbt.Library>
libRbt.so (2013.1, Build901 2013/11/27)

>  <Rbt.Parameter_File>
/export/apps/rDock/src/rDock_2013.1_src/data/scripts/dock_solv.prm

>  <Rbt.Receptor>
prm/pocket_docking_6.prm

>  <SCORE>
-14.5103

>  <SCORE.INTER>
-16.6137

>  <SCORE.INTER.CONST>
1

>  <SCORE.INTER.POLAR>
-2.93079

>  <SCORE.INTER.ROT>
14

>  <SCORE.INTER.SOLV>
16.0888

>  <SCORE.INTER.VDW>
-19.6027

>  <SCORE.INTER.norm>
-0.461491

>  <SCORE.INTRA>
2.1034

>  <SCORE.INTRA.DIHEDRAL>
-6.36436

>  <SCORE.INTRA.DIHEDRAL.0>
26.3805

>  <SCORE.INTRA.POLAR>
0

>  <SCORE.INTRA.POLAR.0>
0

>  <SCORE.INTRA.REPUL>
0

>  <SCORE.INTRA.REPUL.0>
0

>  <SCORE.INTRA.SOLV>
6.88184

>  <SCORE.INTRA.SOLV.lig_0>
-98.5587

>  <SCORE.INTRA.VDW>
1.84466

>  <SCORE.INTRA.VDW.0>
-2.91167

>  <SCORE.INTRA.norm>
0.0584279

>  <SCORE.RESTR>
0

>  <SCORE.RESTR.CAVITY>
0

>  <SCORE.RESTR.norm>
0

>  <SCORE.SYSTEM>
0

>  <SCORE.SYSTEM.CONST>
0

>  <SCORE.SYSTEM.DIHEDRAL>
0

>  <SCORE.SYSTEM.SOLV>
0

>  <SCORE.SYSTEM.norm>
0

>  <SCORE.heavy>
36

>  <SCORE.norm>
-0.403063

>  <RMSD>
9.878

$$$$
2f4u_lig
 OpenBabel11021811433D
libRbt.so/2013.1/901 2013/11/27
 36 37  0  0  0  0  0  0  0  0999 V2000
   45.3852    2.3168    4.3901 C   0  0  2  0  0  0  0  0  0  0  0  0
   44.3206    1.9270    5.3349 O   0  0  0  0  0  0  0  0  0  0  0  0
   40.3076    3.5121    5.8631 C   0  0  2  0  0  0  0  0  0  0  0  0
   39.2151    4.4412    6.2604 N   0  0  0  0  0  0  0  0  0  0  0  0
   46.3681    1.1085    4.2993 C   0  0  2  0  0  0  0  0  0  0  0  0
   45.7063   -0.1296    3.8482 N   0  0  0  0  0  0  0  0  0  0  0  0
   41.1619    3.0572    7.0986 C   0  0  0  0  0  0  0  0  0  0  0  0
   37.9227    3.5779    7.1388 C   0  0  0  0  0  0  0  0  0  0  0  0
   37.1992    4.8862    7.0719 C   0  0  1  0  0  0  0  0  0  0  0  0
   35.7779    4.5934    6.5783 C   0  0  0  0  0  0  0  0  0  0  0  0
   35.6690    3.9923    5.1647 C   0  0  0  0  0  0  0  0  0  0  0  0
   34.2535    3.9188    4.7976 N   0  0  0  0  0  0  0  0  0  0  0  0
   37.0967    5.4509    8.3506 O   0  0  0  0  0  0  0  0  0  0  0  0
   40.0478    5.2132    2.5153 C   0  0  0  0  0  0  0  0  0  0  0  0
   38.5581    5.0004    2.2912 C   0  0  0  0  0  0  0  0  0  0  0  0
   47.0250    0.8857    5.7019 C   0  0  1  0  0  0  0  0  0  0  0  0
   38.0596    5.5245    1.0036 N   0  0  0  0  0  0  0  0  0  0  0  0
   47.9266   -0.2178    5.6751 O   0  0  0  0  0  0  0  0  0  0  0  0
   42.3244    2.1392    6.6692 C   0  0  2  0  0  0  0  0  0  0  0  0
   43.1443    1.7538    7.8109 N   0  0  0  0  0  0  0  0  0  0  0  0
   36.3989    4.2669   -0.3604 C   0  0  0  0  0  0  0  0  0  0  0  0
   34.9136    4.1162   -0.8069 C   0  0  0  0  0  0  0  0  0  0  0  0
   36.6165    5.4047    0.6710 C   0  0  0  0  0  0  0  0  0  0  0  0
   34.7418    3.0231   -1.8103 N   0  0  0  0  0  0  0  0  0  0  0  0
   37.7533    2.5694    7.4789 O   0  0  0  0  0  0  0  0  0  0  0  0
   47.7417    2.1885    6.1099 C   0  0  2  0  0  0  0  0  0  0  0  0
   48.3685    2.0896    7.3863 O   0  0  0  0  0  0  0  0  0  0  0  0
   43.2116    2.8457    5.6637 C   0  0  2  0  0  0  0  0  0  0  0  0
   46.7605    3.3745    6.1194 C   0  0  2  0  0  0  0  0  0  0  0  0
   46.0948    3.4987    4.8578 O   0  0  0  0  0  0  0  0  0  0  0  0
   42.3604    3.2626    4.3964 C   0  0  2  0  0  0  0  0  0  0  0  0
   43.2359    3.9567    3.4531 O   0  0  0  0  0  0  0  0  0  0  0  0
   47.4540    4.6729    6.4347 C   0  0  0  0  0  0  0  0  0  0  0  0
   46.7859    5.3463    7.4323 O   0  0  0  0  0  0  0  0  0  0  0  0
   41.2006    4.2097    4.8561 C   0  0  1  0  0  0  0  0  0  0  0  0
   40.4060    4.6244    3.7832 O   0  0  0  0  0  0  0  0  0  0  0  0
  1  2  1  1  0  0  0
  1  5  1  0  0  0  0
  1 30  1  0  0  0  0
  3  4  1  1  0  0  0
  3  7  1  0  0  0  0
  3 35  1  0  0  0  0
  5  6  1  1  0  0  0
  5 16  1  0  0  0  0
  7 19  1  0  0  0  0
  8  4  1  0  0  0  0
  8 25  2  0  0  0  0
  9  8  1  1  0  0  0
  9 10  1  0  0  0  0
  9 13  1  0  0  0  0
 10 11  1  0  0  0  0
 11 12  1  0  0  0  0
 14 15  1  0  0  0  0
 14 36  1  0  0  0  0
 15 17  1  0  0  0  0
 16 18  1  6  0  0  0
 16 26  1  0  0  0  0
 17 23  1  0  0  0  0
 19 20  1  1  0  0  0
 19 28  1  0  0  0  0
 21 22  1  0  0  0  0
 21 23  1  0  0  0  0
 22 24  1  0  0  0  0
 26 27  1  1  0  0  0
 26 29  1  0  0  0  0
 28  2  1  6  0  0  0
 28 31  1  0  0  0  0
 29 30  1  0  0  0  0
 29 33  1  6  0  0  0
 31 32  1  6  0  0  0
 31 35  1  0  0  0  0
 33 34  1  0  0  0  0
 35 36  1  6  0  0  0
M  END
>  <CHROM.1>
179.84047158,-72.04338943,131.74413525,-62.65770492,-173.69018916,-178.37506844
177.40558509,-178.83980464,-103.93900396,179.36931514,-177.60701269,-179.12131538
-130.13825292,-178.96275834,41.47157775,3.40736613,4.83543729,-0.27346513
0.21690350,-1.61823531

>  <Name>
2f4u_lig

>  <RI>
0

>  <Rbt.Current_Directory>
/home/itssahil/PROJECTS/Mol_Feturizer/New_Systems/rnas/2f4u

>  <Rbt.Executable>
rbdock ($Id: //depot/dev/client3/rdock/2013.1/src/exe/rbdock.cxx#4 $)

>  <Rbt.Library>
libRbt.so (2013.1, Build901 2013/11/27)

>  <Rbt.Parameter_File>
/export/apps/rDock/src/rDock_2013.1_src/data/scripts/dock_solv.prm

>  <Rbt.Receptor>
prm/pocket_docking_8.prm

>  <SCORE>
-10.0323

>  <SCORE.INTER>
1.02922

>  <SCORE.INTER.CONST>
1

>  <SCORE.INTER.POLAR>
-1.75141

>  <SCORE.INTER.ROT>
14

>  <SCORE.INTER.SOLV>
7.95052

>  <SCORE.INTER.VDW>
-9.05933

>  <SCORE.INTER.norm>
0.0285895

>  <SCORE.INTRA>
-11.0615

>  <SCORE.INTRA.DIHEDRAL>
-17.854

>  <SCORE.INTRA.DIHEDRAL.0>
26.3805

>  <SCORE.INTRA.POLAR>
0

>  <SCORE.INTRA.POLAR.0>
0

>  <SCORE.INTRA.REPUL>
0

>  <SCORE.INTRA.REPUL.0>
0

>  <SCORE.INTRA.SOLV>
-1.56823

>  <SCORE.INTRA.SOLV.lig_0>
-98.5587

>  <SCORE.INTRA.VDW>
-1.35042

>  <SCORE.INTRA.VDW.0>
-2.91167

>  <SCORE.INTRA.norm>
-0.307265

>  <SCORE.RESTR>
0

>  <SCORE.RESTR.CAVITY>
0

>  <SCORE.RESTR.norm>
0

>  <SCORE.SYSTEM>
0

>  <SCORE.SYSTEM.CONST>
0

>  <SCORE.SYSTEM.DIHEDRAL>
0

>  <SCORE.SYSTEM.SOLV>
0

>  <SCORE.SYSTEM.norm>
0

>  <SCORE.heavy>
36

>  <SCORE.norm>
-0.278675

>  <RMSD>
9.917

$$$$
2f4u_lig
 OpenBabel11021811433D
libRbt.so/2013.1/901 2013/11/27
 36 37  0  0  0  0  0  0  0  0999 V2000
   35.8994    7.6503    5.8698 C   0  0  2  0  0  0  0  0  0  0  0  0
   35.5955    8.6941    4.8718 O   0  0  0  0  0  0  0  0  0  0  0  0
   38.1324   11.4042    2.6102 C   0  0  2  0  0  0  0  0  0  0  0  0
   39.2237   11.8728    1.7135 N   0  0  0  0  0  0  0  0  0  0  0  0
   34.5850    6.8369    6.0820 C   0  0  2  0  0  0  0  0  0  0  0  0
   34.0860    6.2283    4.8351 N   0  0  0  0  0  0  0  0  0  0  0  0
   38.6941   10.6228    3.8501 C   0  0  0  0  0  0  0  0  0  0  0  0
   40.6455   10.7977    1.8127 C   0  0  0  0  0  0  0  0  0  0  0  0
   41.3003   11.8181    0.9353 C   0  0  1  0  0  0  0  0  0  0  0  0
   42.0380   12.7989    1.8535 C   0  0  0  0  0  0  0  0  0  0  0  0
   42.9064   13.8561    1.1468 C   0  0  0  0  0  0  0  0  0  0  0  0
   42.0328   14.7191    0.3494 N   0  0  0  0  0  0  0  0  0  0  0  0
   42.2553   11.2087    0.1101 O   0  0  0  0  0  0  0  0  0  0  0  0
   36.1023   12.2639   -0.0527 C   0  0  0  0  0  0  0  0  0  0  0  0
   36.6945   13.6000    0.3702 C   0  0  0  0  0  0  0  0  0  0  0  0
   33.4978    7.7841    6.6897 C   0  0  1  0  0  0  0  0  0  0  0  0
   36.1458   14.7619   -0.3578 N   0  0  0  0  0  0  0  0  0  0  0  0
   32.2700    7.0894    6.8932 O   0  0  0  0  0  0  0  0  0  0  0  0
   37.5534   10.0940    4.7434 C   0  0  2  0  0  0  0  0  0  0  0  0
   38.0741    9.3299    5.8700 N   0  0  0  0  0  0  0  0  0  0  0  0
   37.1587   16.6606    0.8949 C   0  0  0  0  0  0  0  0  0  0  0  0
   38.1031   17.1329   -0.2511 C   0  0  0  0  0  0  0  0  0  0  0  0
   35.8452   16.0160    0.3801 C   0  0  0  0  0  0  0  0  0  0  0  0
   37.5347   18.2951   -0.9978 N   0  0  0  0  0  0  0  0  0  0  0  0
   40.8961    9.8853    2.3287 O   0  0  0  0  0  0  0  0  0  0  0  0
   34.0450    8.3592    8.0114 C   0  0  2  0  0  0  0  0  0  0  0  0
   33.1258    9.2474    8.6420 O   0  0  0  0  0  0  0  0  0  0  0  0
   36.6308    9.1950    3.9449 C   0  0  2  0  0  0  0  0  0  0  0  0
   35.3784    9.0927    7.7800 C   0  0  2  0  0  0  0  0  0  0  0  0
   36.3269    8.2388    7.1309 O   0  0  0  0  0  0  0  0  0  0  0  0
   36.0269    9.9965    2.7212 C   0  0  2  0  0  0  0  0  0  0  0  0
   35.1568    9.1012    1.9598 O   0  0  0  0  0  0  0  0  0  0  0  0
   35.9742    9.5920    9.0692 C   0  0  0  0  0  0  0  0  0  0  0  0
   37.0418   10.4236    8.8164 O   0  0  0  0  0  0  0  0  0  0  0  0
   37.2030   10.5042    1.8200 C   0  0  1  0  0  0  0  0  0  0  0  0
   36.7423   11.2201    0.7111 O   0  0  0  0  0  0  0  0  0  0  0  0
  1  2  1  6  0  0  0
  1  5  1  0  0  0  0
  1 30  1  0  0  0  0
  3  4  1  6  0  0  0
  3  7  1  0  0  0  0
  3 35  1  0  0  0  0
  5  6  1  6  0  0  0
  5 16  1  0  0  0  0
  7 19  1  0  0  0  0
  8  4  1  0  0  0  0
  8 25  2  0  0  0  0
  9  8  1  1  0  0  0
  9 10  1  0  0  0  0
  9 13  1  0  0  0  0
 10 11  1  0  0  0  0
 11 12  1  0  0  0  0
 14 15  1  0  0  0  0
 14 36  1  0  0  0  0
 15 17  1  0  0  0  0
 16 18  1  1  0  0  0
 16 26  1  0  0  0  0
 17 23  1  0  0  0  0
 19 20  1  1  0  0  0
 19 28  1  0  0  0  0
 21 22  1  0  0  0  0
 21 23  1  0  0  0  0
 22 24  1  0  0  0  0
 26 27  1  6  0  0  0
 26 29  1  0  0  0  0
 28  2  1  1  0  0  0
 28 31  1  0  0  0  0
 29 30  1  0  0  0  0
 29 33  1  1  0  0  0
 31 32  1  6  0  0  0
 31 35  1  0  0  0  0
 33 34  1  0  0  0  0
 35 36  1  6  0  0  0
M  END
>  <CHROM.1>
-149.25440846,28.35342054,93.57142127,173.96354131,63.93803191,178.79151424
54.29528013,138.95877567,66.80126767,68.51804300,64.73927747,-74.59967277
-170.26211637,-58.70729809,37.23044933,10.99357691,3.44225624,-2.05090092
0.19078653,-0.72318473

>  <Name>
2f4u_lig

>  <RI>
0

>  <Rbt.Current_Directory>
/home/itssahil/PROJECTS/Mol_Feturizer/New_Systems/rnas/2f4u

>  <Rbt.Executable>
rbdock ($Id: //depot/dev/client3/rdock/2013.1/src/exe/rbdock.cxx#4 $)

>  <Rbt.Library>
libRbt.so (2013.1, Build901 2013/11/27)

>  <Rbt.Parameter_File>
/export/apps/rDock/src/rDock_2013.1_src/data/scripts/dock_solv.prm

>  <Rbt.Receptor>
prm/pocket_docking_8.prm

>  <SCORE>
-20.7433

>  <SCORE.INTER>
-16.7058

>  <SCORE.INTER.CONST>
1

>  <SCORE.INTER.POLAR>
-0.789808

>  <SCORE.INTER.ROT>
14

>  <SCORE.INTER.SOLV>
15.4196

>  <SCORE.INTER.VDW>
-26.5777

>  <SCORE.INTER.norm>
-0.464049

>  <SCORE.INTRA>
-4.03758

>  <SCORE.INTRA.DIHEDRAL>
-17.0408

>  <SCORE.INTRA.DIHEDRAL.0>
26.3805

>  <SCORE.INTRA.POLAR>
0

>  <SCORE.INTRA.POLAR.0>
0

>  <SCORE.INTRA.REPUL>
0

>  <SCORE.INTRA.REPUL.0>
0

>  <SCORE.INTRA.SOLV>
5.44692

>  <SCORE.INTRA.SOLV.lig_0>
-98.5587

>  <SCORE.INTRA.VDW>
1.75938

>  <SCORE.INTRA.VDW.0>
-2.91167

>  <SCORE.INTRA.norm>
-0.112155

>  <SCORE.RESTR>
0

>  <SCORE.RESTR.CAVITY>
0

>  <SCORE.RESTR.norm>
0

>  <SCORE.SYSTEM>
0

>  <SCORE.SYSTEM.CONST>
0

>  <SCORE.SYSTEM.DIHEDRAL>
0

>  <SCORE.SYSTEM.SOLV>
0

>  <SCORE.SYSTEM.norm>
0

>  <SCORE.heavy>
36

>  <SCORE.norm>
-0.576204

>  <RMSD>
9.921

$$$$
2f4u_lig
 OpenBabel11021811433D
libRbt.so/2013.1/901 2013/11/27
 36 37  0  0  0  0  0  0  0  0999 V2000
   32.2086    4.2558   11.7817 C   0  0  2  0  0  0  0  0  0  0  0  0
   33.6345    4.3320   11.4091 O   0  0  0  0  0  0  0  0  0  0  0  0
   35.8076    6.8570    8.6167 C   0  0  2  0  0  0  0  0  0  0  0  0
   36.2562    7.4460    7.3257 N   0  0  0  0  0  0  0  0  0  0  0  0
   32.1399    3.4833   13.1355 C   0  0  2  0  0  0  0  0  0  0  0  0
   32.9176    4.1381   14.2035 N   0  0  0  0  0  0  0  0  0  0  0  0
   36.0655    5.3098    8.6705 C   0  0  0  0  0  0  0  0  0  0  0  0
   38.0288    7.3316    7.1467 C   0  0  0  0  0  0  0  0  0  0  0  0
   37.8140    8.1491    5.9117 C   0  0  1  0  0  0  0  0  0  0  0  0
   39.1902    8.6389    5.4475 C   0  0  0  0  0  0  0  0  0  0  0  0
   39.1913    9.5824    4.2304 C   0  0  0  0  0  0  0  0  0  0  0  0
   38.5916   10.8574    4.6289 N   0  0  0  0  0  0  0  0  0  0  0  0
   37.2792    7.3537    4.8891 O   0  0  0  0  0  0  0  0  0  0  0  0
   33.4395    9.7818    8.6985 C   0  0  0  0  0  0  0  0  0  0  0  0
   32.7570    9.9714   10.0449 C   0  0  0  0  0  0  0  0  0  0  0  0
   32.6590    2.0243   12.9109 C   0  0  1  0  0  0  0  0  0  0  0  0
   31.4610    9.2742   10.1692 N   0  0  0  0  0  0  0  0  0  0  0  0
   32.6267    1.2774   14.1243 O   0  0  0  0  0  0  0  0  0  0  0  0
   35.5471    4.7005    9.9891 C   0  0  2  0  0  0  0  0  0  0  0  0
   35.7457    3.2569   10.0194 N   0  0  0  0  0  0  0  0  0  0  0  0
   30.6553    9.5568   12.5082 C   0  0  0  0  0  0  0  0  0  0  0  0
   30.6798    8.0324   12.8301 C   0  0  0  0  0  0  0  0  0  0  0  0
   30.3879    9.8630   11.0114 C   0  0  0  0  0  0  0  0  0  0  0  0
   30.8717    7.7742   14.2889 N   0  0  0  0  0  0  0  0  0  0  0  0
   38.8430    6.9172    7.7184 O   0  0  0  0  0  0  0  0  0  0  0  0
   31.7887    1.3663   11.8215 C   0  0  2  0  0  0  0  0  0  0  0  0
   32.1903    0.0288   11.5362 O   0  0  0  0  0  0  0  0  0  0  0  0
   34.0666    4.9803   10.1541 C   0  0  2  0  0  0  0  0  0  0  0  0
   31.8197    2.1911   10.5222 C   0  0  2  0  0  0  0  0  0  0  0  0
   31.4385    3.5492   10.7683 O   0  0  0  0  0  0  0  0  0  0  0  0
   33.8114    6.5421   10.1475 C   0  0  2  0  0  0  0  0  0  0  0  0
   32.3760    6.7817   10.2897 O   0  0  0  0  0  0  0  0  0  0  0  0
   30.9118    1.6130    9.4698 C   0  0  0  0  0  0  0  0  0  0  0  0
   31.0630    2.2877    8.2794 O   0  0  0  0  0  0  0  0  0  0  0  0
   34.3272    7.1325    8.7915 C   0  0  1  0  0  0  0  0  0  0  0  0
   34.1290    8.5141    8.7122 O   0  0  0  0  0  0  0  0  0  0  0  0
  1  2  1  6  0  0  0
  1  5  1  0  0  0  0
  1 30  1  0  0  0  0
  3  4  1  6  0  0  0
  3  7  1  0  0  0  0
  3 35  1  0  0  0  0
  5  6  1  1  0  0  0
  5 16  1  0  0  0  0
  7 19  1  0  0  0  0
  8  4  1  0  0  0  0
  8 25  2  0  0  0  0
  9  8  1  1  0  0  0
  9 10  1  0  0  0  0
  9 13  1  0  0  0  0
 10 11  1  0  0  0  0
 11 12  1  0  0  0  0
 14 15  1  0  0  0  0
 14 36  1  0  0  0  0
 15 17  1  0  0  0  0
 16 18  1  1  0  0  0
 16 26  1  0  0  0  0
 17 23  1  0  0  0  0
 19 20  1  6  0  0  0
 19 28  1  0  0  0  0
 21 22  1  0  0  0  0
 21 23  1  0  0  0  0
 22 24  1  0  0  0  0
 26 27  1  6  0  0  0
 26 29  1  0  0  0  0
 28  2  1  1  0  0  0
 28 31  1  0  0  0  0
 29 30  1  0  0  0  0
 29 33  1  6  0  0  0
 31 32  1  6  0  0  0
 31 35  1  0  0  0  0
 33 34  1  0  0  0  0
 35 36  1  1  0  0  0
M  END
>  <CHROM.1>
178.73670629,-65.69916564,167.76262842,-176.22198039,68.65795169,-81.67902036
61.52980714,-148.01669650,-79.61453362,-177.16736580,-61.01178305,-171.75147870
-173.85045818,179.08989524,33.94338793,5.94927661,9.78031276,2.45891873,-0.72499156
2.99140875

>  <Name>
2f4u_lig

>  <RI>
0

>  <Rbt.Current_Directory>
/home/itssahil/PROJECTS/Mol_Feturizer/New_Systems/rnas/2f4u

>  <Rbt.Executable>
rbdock ($Id: //depot/dev/client3/rdock/2013.1/src/exe/rbdock.cxx#4 $)

>  <Rbt.Library>
libRbt.so (2013.1, Build901 2013/11/27)

>  <Rbt.Parameter_File>
/export/apps/rDock/src/rDock_2013.1_src/data/scripts/dock_solv.prm

>  <Rbt.Receptor>
prm/pocket_docking_7.prm

>  <SCORE>
-10.4698

>  <SCORE.INTER>
0.987121

>  <SCORE.INTER.CONST>
1

>  <SCORE.INTER.POLAR>
-0.979796

>  <SCORE.INTER.ROT>
14

>  <SCORE.INTER.SOLV>
10.6877

>  <SCORE.INTER.VDW>
-12.5718

>  <SCORE.INTER.norm>
0.02742

>  <SCORE.INTRA>
-11.4569

>  <SCORE.INTRA.DIHEDRAL>
-22.019

>  <SCORE.INTRA.DIHEDRAL.0>
26.3805

>  <SCORE.INTRA.POLAR>
0

>  <SCORE.INTRA.POLAR.0>
0

>  <SCORE.INTRA.REPUL>
0

>  <SCORE.INTRA.REPUL.0>
0

>  <SCORE.INTRA.SOLV>
2.23799

>  <SCORE.INTRA.SOLV.lig_0>
-98.5587

>  <SCORE.INTRA.VDW>
-1.56641

>  <SCORE.INTRA.VDW.0>
-2.91167

>  <SCORE.INTRA.norm>
-0.318248

>  <SCORE.RESTR>
0

>  <SCORE.RESTR.CAVITY>
0

>  <SCORE.RESTR.norm>
0

>  <SCORE.SYSTEM>
0

>  <SCORE.SYSTEM.CONST>
0

>  <SCORE.SYSTEM.DIHEDRAL>
0

>  <SCORE.SYSTEM.SOLV>
0

>  <SCORE.SYSTEM.norm>
0

>  <SCORE.heavy>
36

>  <SCORE.norm>
-0.290828

>  <RMSD>
9.969

$$$$
2f4u_lig
 OpenBabel11021811433D
libRbt.so/2013.1/901 2013/11/27
 36 37  0  0  0  0  0  0  0  0999 V2000
   41.1853    3.1753    5.1149 C   0  0  2  0  0  0  0  0  0  0  0  0
   39.8470    2.5706    5.2605 O   0  0  0  0  0  0  0  0  0  0  0  0
   35.9040    4.2304    6.0307 C   0  0  2  0  0  0  0  0  0  0  0  0
   34.7978    4.9282    6.7408 N   0  0  0  0  0  0  0  0  0  0  0  0
   42.1055    2.0816    4.4894 C   0  0  2  0  0  0  0  0  0  0  0  0
   41.6120    1.6016    3.1854 N   0  0  0  0  0  0  0  0  0  0  0  0
   36.4304    2.9964    6.8451 C   0  0  0  0  0  0  0  0  0  0  0  0
   33.5495    5.4898    5.5945 C   0  0  0  0  0  0  0  0  0  0  0  0
   32.9466    6.1492    6.7950 C   0  0  1  0  0  0  0  0  0  0  0  0
   32.8152    7.6422    6.4739 C   0  0  0  0  0  0  0  0  0  0  0  0
   32.4492    8.5540    7.6596 C   0  0  0  0  0  0  0  0  0  0  0  0
   31.0943    8.2202    8.1030 N   0  0  0  0  0  0  0  0  0  0  0  0
   31.6579    5.6499    7.0281 O   0  0  0  0  0  0  0  0  0  0  0  0
   35.9496    7.0713    4.0232 C   0  0  0  0  0  0  0  0  0  0  0  0
   35.7239    8.4955    4.5084 C   0  0  0  0  0  0  0  0  0  0  0  0
   42.2222    0.8862    5.4923 C   0  0  1  0  0  0  0  0  0  0  0  0
   35.5047    9.4754    3.4255 N   0  0  0  0  0  0  0  0  0  0  0  0
   43.0466   -0.1483    4.9616 O   0  0  0  0  0  0  0  0  0  0  0  0
   37.6126    2.3138    6.1273 C   0  0  2  0  0  0  0  0  0  0  0  0
   38.1304    1.1957    6.9058 N   0  0  0  0  0  0  0  0  0  0  0  0
   36.2989   10.9259    1.5640 C   0  0  0  0  0  0  0  0  0  0  0  0
   37.2779   12.0625    1.1423 C   0  0  0  0  0  0  0  0  0  0  0  0
   36.6403   10.3031    2.9428 C   0  0  0  0  0  0  0  0  0  0  0  0
   36.8905   12.6751   -0.1638 N   0  0  0  0  0  0  0  0  0  0  0  0
   33.3821    5.4213    4.5321 O   0  0  0  0  0  0  0  0  0  0  0  0
   42.7840    1.4272    6.8224 C   0  0  2  0  0  0  0  0  0  0  0  0
   42.9201    0.4096    7.8112 O   0  0  0  0  0  0  0  0  0  0  0  0
   38.7398    3.3030    5.9083 C   0  0  2  0  0  0  0  0  0  0  0  0
   41.8933    2.5539    7.3761 C   0  0  2  0  0  0  0  0  0  0  0  0
   41.7164    3.5911    6.4050 O   0  0  0  0  0  0  0  0  0  0  0  0
   38.2217    4.5251    5.0466 C   0  0  2  0  0  0  0  0  0  0  0  0
   39.3228    5.4703    4.8667 O   0  0  0  0  0  0  0  0  0  0  0  0
   42.4659    3.1546    8.6321 C   0  0  0  0  0  0  0  0  0  0  0  0
   41.6225    4.1210    9.1320 O   0  0  0  0  0  0  0  0  0  0  0  0
   37.0368    5.2125    5.8060 C   0  0  1  0  0  0  0  0  0  0  0  0
   36.5294    6.3091    5.1028 O   0  0  0  0  0  0  0  0  0  0  0  0
  1  2  1  1  0  0  0
  1  5  1  0  0  0  0
  1 30  1  0  0  0  0
  3  4  1  1  0  0  0
  3  7  1  0  0  0  0
  3 35  1  0  0  0  0
  5  6  1  6  0  0  0
  5 16  1  0  0  0  0
  7 19  1  0  0  0  0
  8  4  1  0  0  0  0
  8 25  2  0  0  0  0
  9  8  1  6  0  0  0
  9 10  1  0  0  0  0
  9 13  1  0  0  0  0
 10 11  1  0  0  0  0
 11 12  1  0  0  0  0
 14 15  1  0  0  0  0
 14 36  1  0  0  0  0
 15 17  1  0  0  0  0
 16 18  1  6  0  0  0
 16 26  1  0  0  0  0
 17 23  1  0  0  0  0
 19 20  1  1  0  0  0
 19 28  1  0  0  0  0
 21 22  1  0  0  0  0
 21 23  1  0  0  0  0
 22 24  1  0  0  0  0
 26 27  1  1  0  0  0
 26 29  1  0  0  0  0
 28  2  1  6  0  0  0
 28 31  1  0  0  0  0
 29 30  1  0  0  0  0
 29 33  1  1  0  0  0
 31 32  1  1  0  0  0
 31 35  1  0  0  0  0
 33 34  1  0  0  0  0
 35 36  1  6  0  0  0
M  END
>  <CHROM.1>
175.91010310,-141.85971262,123.78832543,-169.53902173,-66.16412372,163.35390794
176.21725120,-97.39436463,163.08243373,-177.81425637,166.42715761,-169.35773950
-177.61295241,-65.40909892,37.75782461,5.10201646,5.50408448,-0.70055824
0.35305812,-0.65050612

>  <Name>
2f4u_lig

>  <RI>
0

>  <Rbt.Current_Directory>
/home/itssahil/PROJECTS/Mol_Feturizer/New_Systems/rnas/2f4u

>  <Rbt.Executable>
rbdock ($Id: //depot/dev/client3/rdock/2013.1/src/exe/rbdock.cxx#4 $)

>  <Rbt.Library>
libRbt.so (2013.1, Build901 2013/11/27)

>  <Rbt.Parameter_File>
/export/apps/rDock/src/rDock_2013.1_src/data/scripts/dock_solv.prm

>  <Rbt.Receptor>
prm/pocket_docking_6.prm

>  <SCORE>
-15.028

>  <SCORE.INTER>
-3.79853

>  <SCORE.INTER.CONST>
1

>  <SCORE.INTER.POLAR>
-0.894427

>  <SCORE.INTER.ROT>
14

>  <SCORE.INTER.SOLV>
12.3626

>  <SCORE.INTER.VDW>
-16.6051

>  <SCORE.INTER.norm>
-0.105515

>  <SCORE.INTRA>
-11.2295

>  <SCORE.INTRA.DIHEDRAL>
-18.99

>  <SCORE.INTRA.DIHEDRAL.0>
26.3805

>  <SCORE.INTRA.POLAR>
0

>  <SCORE.INTRA.POLAR.0>
0

>  <SCORE.INTRA.REPUL>
0

>  <SCORE.INTRA.REPUL.0>
0

>  <SCORE.INTRA.SOLV>
1.1717

>  <SCORE.INTRA.SOLV.lig_0>
-98.5587

>  <SCORE.INTRA.VDW>
-2.32032

>  <SCORE.INTRA.VDW.0>
-2.91167

>  <SCORE.INTRA.norm>
-0.311929

>  <SCORE.RESTR>
0

>  <SCORE.RESTR.CAVITY>
0

>  <SCORE.RESTR.norm>
0

>  <SCORE.SYSTEM>
0

>  <SCORE.SYSTEM.CONST>
0

>  <SCORE.SYSTEM.DIHEDRAL>
0

>  <SCORE.SYSTEM.SOLV>
0

>  <SCORE.SYSTEM.norm>
0

>  <SCORE.heavy>
36

>  <SCORE.norm>
-0.417444

>  <RMSD>
10.083

$$$$
2f4u_lig
 OpenBabel11021811433D
libRbt.so/2013.1/901 2013/11/27
 36 37  0  0  0  0  0  0  0  0999 V2000
   47.9332    4.0790    7.9349 C   0  0  2  0  0  0  0  0  0  0  0  0
   47.2673    3.0001    7.1795 O   0  0  0  0  0  0  0  0  0  0  0  0
   43.1824    1.5677    6.7833 C   0  0  2  0  0  0  0  0  0  0  0  0
   41.8366    1.0634    7.1697 N   0  0  0  0  0  0  0  0  0  0  0  0
   49.0528    4.6488    7.0096 C   0  0  2  0  0  0  0  0  0  0  0  0
   48.5268    5.1630    5.7317 N   0  0  0  0  0  0  0  0  0  0  0  0
   44.3253    0.6128    7.2784 C   0  0  0  0  0  0  0  0  0  0  0  0
   40.9201    0.5129    5.7398 C   0  0  0  0  0  0  0  0  0  0  0  0
   39.7904    0.3428    6.7066 C   0  0  1  0  0  0  0  0  0  0  0  0
   38.4967    0.2876    5.8865 C   0  0  0  0  0  0  0  0  0  0  0  0
   37.1887    0.2486    6.6983 C   0  0  0  0  0  0  0  0  0  0  0  0
   36.0606    0.3242    5.7680 N   0  0  0  0  0  0  0  0  0  0  0  0
   39.9133   -0.8755    7.3885 O   0  0  0  0  0  0  0  0  0  0  0  0
   41.4986    4.5287    6.0452 C   0  0  0  0  0  0  0  0  0  0  0  0
   42.3440    5.6351    5.4322 C   0  0  0  0  0  0  0  0  0  0  0  0
   50.1076    3.5243    6.7424 C   0  0  1  0  0  0  0  0  0  0  0  0
   41.7059    6.3214    4.2908 N   0  0  0  0  0  0  0  0  0  0  0  0
   51.1497    3.9924    5.8901 O   0  0  0  0  0  0  0  0  0  0  0  0
   45.7175    1.1722    6.9215 C   0  0  2  0  0  0  0  0  0  0  0  0
   46.7794    0.3080    7.4212 N   0  0  0  0  0  0  0  0  0  0  0  0
   39.4204    7.2209    4.6994 C   0  0  0  0  0  0  0  0  0  0  0  0
   38.4748    8.4138    4.3664 C   0  0  0  0  0  0  0  0  0  0  0  0
   40.9231    7.5625    4.5241 C   0  0  0  0  0  0  0  0  0  0  0  0
   38.8021    9.6264    5.1749 N   0  0  0  0  0  0  0  0  0  0  0  0
   41.1082    0.4243    4.6824 O   0  0  0  0  0  0  0  0  0  0  0  0
   50.6615    3.0515    8.1014 C   0  0  2  0  0  0  0  0  0  0  0  0
   51.6299    2.0145    7.9650 O   0  0  0  0  0  0  0  0  0  0  0  0
   45.9032    2.5505    7.5241 C   0  0  2  0  0  0  0  0  0  0  0  0
   49.5246    2.5637    9.0175 C   0  0  2  0  0  0  0  0  0  0  0  0
   48.5192    3.5721    9.1674 O   0  0  0  0  0  0  0  0  0  0  0  0
   44.7787    3.5266    6.9881 C   0  0  2  0  0  0  0  0  0  0  0  0
   44.9712    4.8413    7.5987 O   0  0  0  0  0  0  0  0  0  0  0  0
   50.0314    2.1741   10.3804 C   0  0  0  0  0  0  0  0  0  0  0  0
   49.2090    1.2270   10.9477 O   0  0  0  0  0  0  0  0  0  0  0  0
   43.3775    2.9473    7.3809 C   0  0  1  0  0  0  0  0  0  0  0  0
   42.3310    3.7638    6.9423 O   0  0  0  0  0  0  0  0  0  0  0  0
  1  2  1  6  0  0  0
  1  5  1  0  0  0  0
  1 30  1  0  0  0  0
  3  4  1  1  0  0  0
  3  7  1  0  0  0  0
  3 35  1  0  0  0  0
  5  6  1  6  0  0  0
  5 16  1  0  0  0  0
  7 19  1  0  0  0  0
  8  4  1  0  0  0  0
  8 25  2  0  0  0  0
  9  8  1  6  0  0  0
  9 10  1  0  0  0  0
  9 13  1  0  0  0  0
 10 11  1  0  0  0  0
 11 12  1  0  0  0  0
 14 15  1  0  0  0  0
 14 36  1  0  0  0  0
 15 17  1  0  0  0  0
 16 18  1  6  0  0  0
 16 26  1  0  0  0  0
 17 23  1  0  0  0  0
 19 20  1  1  0  0  0
 19 28  1  0  0  0  0
 21 22  1  0  0  0  0
 21 23  1  0  0  0  0
 22 24  1  0  0  0  0
 26 27  1  6  0  0  0
 26 29  1  0  0  0  0
 28  2  1  6  0  0  0
 28 31  1  0  0  0  0
 29 30  1  0  0  0  0
 29 33  1  1  0  0  0
 31 32  1  1  0  0  0
 31 35  1  0  0  0  0
 33 34  1  0  0  0  0
 35 36  1  6  0  0  0
M  END
>  <CHROM.1>
-158.80336240,-110.62554571,161.32495677,-174.42020357,174.79595004,167.98274213
-61.25179781,93.54393363,-94.12543920,-55.95234763,-156.27749638,-160.53724172
-152.92373176,-67.32074848,44.29943456,3.10452560,6.83601998,-0.11516407
-0.21206164,-0.28560785

>  <Name>
2f4u_lig

>  <RI>
0

>  <Rbt.Current_Directory>
/home/itssahil/PROJECTS/Mol_Feturizer/New_Systems/rnas/2f4u

>  <Rbt.Executable>
rbdock ($Id: //depot/dev/client3/rdock/2013.1/src/exe/rbdock.cxx#4 $)

>  <Rbt.Library>
libRbt.so (2013.1, Build901 2013/11/27)

>  <Rbt.Parameter_File>
/export/apps/rDock/src/rDock_2013.1_src/data/scripts/dock_solv.prm

>  <Rbt.Receptor>
prm/pocket_docking_7.prm

>  <SCORE>
-17.1029

>  <SCORE.INTER>
-8.79386

>  <SCORE.INTER.CONST>
1

>  <SCORE.INTER.POLAR>
-2.38387

>  <SCORE.INTER.ROT>
14

>  <SCORE.INTER.SOLV>
12.1748

>  <SCORE.INTER.VDW>
-14.9079

>  <SCORE.INTER.norm>
-0.244274

>  <SCORE.INTRA>
-8.30907

>  <SCORE.INTRA.DIHEDRAL>
-13.8235

>  <SCORE.INTRA.DIHEDRAL.0>
26.3805

>  <SCORE.INTRA.POLAR>
0

>  <SCORE.INTRA.POLAR.0>
0

>  <SCORE.INTRA.REPUL>
0

>  <SCORE.INTRA.REPUL.0>
0

>  <SCORE.INTRA.SOLV>
-0.0658636

>  <SCORE.INTRA.SOLV.lig_0>
-98.5587

>  <SCORE.INTRA.VDW>
-1.3644

>  <SCORE.INTRA.VDW.0>
-2.91167

>  <SCORE.INTRA.norm>
-0.230808

>  <SCORE.RESTR>
0

>  <SCORE.RESTR.CAVITY>
0

>  <SCORE.RESTR.norm>
0

>  <SCORE.SYSTEM>
0

>  <SCORE.SYSTEM.CONST>
0

>  <SCORE.SYSTEM.DIHEDRAL>
0

>  <SCORE.SYSTEM.SOLV>
0

>  <SCORE.SYSTEM.norm>
0

>  <SCORE.heavy>
36

>  <SCORE.norm>
-0.475082

>  <RMSD>
10.343

$$$$
2f4u_lig
 OpenBabel11021811433D
libRbt.so/2013.1/901 2013/11/27
 36 37  0  0  0  0  0  0  0  0999 V2000
   46.7887    1.8888    7.4614 C   0  0  2  0  0  0  0  0  0  0  0  0
   45.6247    2.2807    8.2796 O   0  0  0  0  0  0  0  0  0  0  0  0
   42.6676    3.4100    5.3005 C   0  0  2  0  0  0  0  0  0  0  0  0
   41.3988    3.9271    4.7194 N   0  0  0  0  0  0  0  0  0  0  0  0
   47.7412    1.0799    8.3955 C   0  0  2  0  0  0  0  0  0  0  0  0
   47.0929   -0.1115    8.9739 N   0  0  0  0  0  0  0  0  0  0  0  0
   42.4136    2.2005    6.2678 C   0  0  0  0  0  0  0  0  0  0  0  0
   40.7251    2.7848    3.5242 C   0  0  0  0  0  0  0  0  0  0  0  0
   39.7240    3.8669    3.2662 C   0  0  1  0  0  0  0  0  0  0  0  0
   39.1176    3.6030    1.8835 C   0  0  0  0  0  0  0  0  0  0  0  0
   40.0319    3.9031    0.6813 C   0  0  0  0  0  0  0  0  0  0  0  0
   40.9638    2.7861    0.5146 N   0  0  0  0  0  0  0  0  0  0  0  0
   38.6852    3.8020    4.2049 O   0  0  0  0  0  0  0  0  0  0  0  0
   44.0364    6.3506    4.0475 C   0  0  0  0  0  0  0  0  0  0  0  0
   43.9296    5.4776    2.8060 C   0  0  0  0  0  0  0  0  0  0  0  0
   48.2487    2.0223    9.5370 C   0  0  1  0  0  0  0  0  0  0  0  0
   44.6469    4.1907    2.9085 N   0  0  0  0  0  0  0  0  0  0  0  0
   49.1170    1.3259   10.4272 O   0  0  0  0  0  0  0  0  0  0  0  0
   43.7280    1.7080    6.9069 C   0  0  2  0  0  0  0  0  0  0  0  0
   43.4859    0.6145    7.8396 N   0  0  0  0  0  0  0  0  0  0  0  0
   45.3566    1.9433    2.1051 C   0  0  0  0  0  0  0  0  0  0  0  0
   46.7265    2.0319    2.8425 C   0  0  0  0  0  0  0  0  0  0  0  0
   44.7844    3.3286    1.7062 C   0  0  0  0  0  0  0  0  0  0  0  0
   47.3105    0.6808    3.0968 N   0  0  0  0  0  0  0  0  0  0  0  0
   40.9869    1.8099    3.1468 O   0  0  0  0  0  0  0  0  0  0  0  0
   48.9577    3.2271    8.8866 C   0  0  2  0  0  0  0  0  0  0  0  0
   49.4513    4.1547    9.8497 O   0  0  0  0  0  0  0  0  0  0  0  0
   44.4034    2.8357    7.6614 C   0  0  2  0  0  0  0  0  0  0  0  0
   48.0143    3.9604    7.9161 C   0  0  2  0  0  0  0  0  0  0  0  0
   47.4813    3.0583    6.9402 O   0  0  0  0  0  0  0  0  0  0  0  0
   44.7028    4.0373    6.6759 C   0  0  2  0  0  0  0  0  0  0  0  0
   45.3365    5.1158    7.4330 O   0  0  0  0  0  0  0  0  0  0  0  0
   48.7095    5.0914    7.2063 C   0  0  0  0  0  0  0  0  0  0  0  0
   49.7584    4.6152    6.4527 O   0  0  0  0  0  0  0  0  0  0  0  0
   43.3516    4.5317    6.0569 C   0  0  1  0  0  0  0  0  0  0  0  0
   43.5388    5.6005    5.1756 O   0  0  0  0  0  0  0  0  0  0  0  0
  1  2  1  1  0  0  0
  1  5  1  0  0  0  0
  1 30  1  0  0  0  0
  3  4  1  1  0  0  0
  3  7  1  0  0  0  0
  3 35  1  0  0  0  0
  5  6  1  1  0  0  0
  5 16  1  0  0  0  0
  7 19  1  0  0  0  0
  8  4  1  0  0  0  0
  8 25  2  0  0  0  0
  9  8  1  1  0  0  0
  9 10  1  0  0  0  0
  9 13  1  0  0  0  0
 10 11  1  0  0  0  0
 11 12  1  0  0  0  0
 14 15  1  0  0  0  0
 14 36  1  0  0  0  0
 15 17  1  0  0  0  0
 16 18  1  1  0  0  0
 16 26  1  0  0  0  0
 17 23  1  0  0  0  0
 19 20  1  1  0  0  0
 19 28  1  0  0  0  0
 21 22  1  0  0  0  0
 21 23  1  0  0  0  0
 22 24  1  0  0  0  0
 26 27  1  1  0  0  0
 26 29  1  0  0  0  0
 28  2  1  6  0  0  0
 28 31  1  0  0  0  0
 29 30  1  0  0  0  0
 29 33  1  6  0  0  0
 31 32  1  1  0  0  0
 31 35  1  0  0  0  0
 33 34  1  0  0  0  0
 35 36  1  6  0  0  0
M  END
>  <CHROM.1>
-168.16826363,-71.47994798,159.61920974,-73.05690530,79.43904000,-57.21959226
46.57069078,-171.49045818,-170.58077324,-174.58904720,-56.93119853,70.17220025
61.35113424,-64.87108732,44.72803419,3.16171189,5.60658496,0.67184856,0.14842336
1.89475340

>  <Name>
2f4u_lig

>  <RI>
0

>  <Rbt.Current_Directory>
/home/itssahil/PROJECTS/Mol_Feturizer/New_Systems/rnas/2f4u

>  <Rbt.Executable>
rbdock ($Id: //depot/dev/client3/rdock/2013.1/src/exe/rbdock.cxx#4 $)

>  <Rbt.Library>
libRbt.so (2013.1, Build901 2013/11/27)

>  <Rbt.Parameter_File>
/export/apps/rDock/src/rDock_2013.1_src/data/scripts/dock_solv.prm

>  <Rbt.Receptor>
prm/pocket_docking_8.prm

>  <SCORE>
-15.8832

>  <SCORE.INTER>
-5.26283

>  <SCORE.INTER.CONST>
1

>  <SCORE.INTER.POLAR>
-2.01013

>  <SCORE.INTER.ROT>
14

>  <SCORE.INTER.SOLV>
13.3821

>  <SCORE.INTER.VDW>
-14.2021

>  <SCORE.INTER.norm>
-0.14619

>  <SCORE.INTRA>
-10.6204

>  <SCORE.INTRA.DIHEDRAL>
-20.7685

>  <SCORE.INTRA.DIHEDRAL.0>
26.3805

>  <SCORE.INTRA.POLAR>
0

>  <SCORE.INTRA.POLAR.0>
0

>  <SCORE.INTRA.REPUL>
0

>  <SCORE.INTRA.REPUL.0>
0

>  <SCORE.INTRA.SOLV>
6.14108

>  <SCORE.INTRA.SOLV.lig_0>
-98.5587

>  <SCORE.INTRA.VDW>
-3.30669

>  <SCORE.INTRA.VDW.0>
-2.91167

>  <SCORE.INTRA.norm>
-0.29501

>  <SCORE.RESTR>
0

>  <SCORE.RESTR.CAVITY>
0

>  <SCORE.RESTR.norm>
0

>  <SCORE.SYSTEM>
0

>  <SCORE.SYSTEM.CONST>
0

>  <SCORE.SYSTEM.DIHEDRAL>
0

>  <SCORE.SYSTEM.SOLV>
0

>  <SCORE.SYSTEM.norm>
0

>  <SCORE.heavy>
36

>  <SCORE.norm>
-0.4412

>  <RMSD>
10.512

$$$$
2f4u_lig
 OpenBabel11021811433D
libRbt.so/2013.1/901 2013/11/27
 36 37  0  0  0  0  0  0  0  0999 V2000
   39.5403    1.5893    4.7260 C   0  0  2  0  0  0  0  0  0  0  0  0
   38.3294    0.8015    4.4242 O   0  0  0  0  0  0  0  0  0  0  0  0
   34.0719    1.5439    4.8911 C   0  0  2  0  0  0  0  0  0  0  0  0
   32.7682    1.8236    5.5520 N   0  0  0  0  0  0  0  0  0  0  0  0
   40.6160    1.1787    3.6733 C   0  0  2  0  0  0  0  0  0  0  0  0
   40.1757    1.4207    2.2870 N   0  0  0  0  0  0  0  0  0  0  0  0
   34.7201    0.2169    5.4222 C   0  0  0  0  0  0  0  0  0  0  0  0
   32.9831    2.1267    7.2983 C   0  0  0  0  0  0  0  0  0  0  0  0
   31.4871    2.1469    7.3338 C   0  0  1  0  0  0  0  0  0  0  0  0
   31.0686    2.1280    8.8082 C   0  0  0  0  0  0  0  0  0  0  0  0
   31.5239    3.3340    9.6506 C   0  0  0  0  0  0  0  0  0  0  0  0
   31.1159    3.1129   11.0393 N   0  0  0  0  0  0  0  0  0  0  0  0
   31.0034    3.3356    6.7703 O   0  0  0  0  0  0  0  0  0  0  0  0
   33.7645    4.8025    3.7801 C   0  0  0  0  0  0  0  0  0  0  0  0
   33.3320    6.0287    4.5700 C   0  0  0  0  0  0  0  0  0  0  0  0
   40.9629   -0.3345    3.8699 C   0  0  1  0  0  0  0  0  0  0  0  0
   34.4366    6.9464    4.9145 N   0  0  0  0  0  0  0  0  0  0  0  0
   41.9368   -0.7635    2.9218 O   0  0  0  0  0  0  0  0  0  0  0  0
   36.0956   -0.0348    4.7717 C   0  0  2  0  0  0  0  0  0  0  0  0
   36.7173   -1.2432    5.2986 N   0  0  0  0  0  0  0  0  0  0  0  0
   36.1122    8.7043    4.3647 C   0  0  0  0  0  0  0  0  0  0  0  0
   36.4573    9.9708    3.5250 C   0  0  0  0  0  0  0  0  0  0  0  0
   34.7068    8.1267    4.0534 C   0  0  0  0  0  0  0  0  0  0  0  0
   36.5186    9.6701    2.0631 N   0  0  0  0  0  0  0  0  0  0  0  0
   33.8154    2.1901    7.9799 O   0  0  0  0  0  0  0  0  0  0  0  0
   41.4607   -0.5299    5.3160 C   0  0  2  0  0  0  0  0  0  0  0  0
   41.7959   -1.8861    5.5990 O   0  0  0  0  0  0  0  0  0  0  0  0
   37.0260    1.1323    5.0355 C   0  0  2  0  0  0  0  0  0  0  0  0
   40.4064   -0.0481    6.3289 C   0  0  2  0  0  0  0  0  0  0  0  0
   40.0281    1.3081    6.0685 O   0  0  0  0  0  0  0  0  0  0  0  0
   36.3944    2.4635    4.4579 C   0  0  2  0  0  0  0  0  0  0  0  0
   37.3030    3.5734    4.7421 O   0  0  0  0  0  0  0  0  0  0  0  0
   40.9026   -0.1523    7.7463 C   0  0  0  0  0  0  0  0  0  0  0  0
   42.0197    0.6322    7.9248 O   0  0  0  0  0  0  0  0  0  0  0  0
   35.0098    2.7068    5.1485 C   0  0  1  0  0  0  0  0  0  0  0  0
   34.3927    3.8739    4.6889 O   0  0  0  0  0  0  0  0  0  0  0  0
  1  2  1  6  0  0  0
  1  5  1  0  0  0  0
  1 30  1  0  0  0  0
  3  4  1  1  0  0  0
  3  7  1  0  0  0  0
  3 35  1  0  0  0  0
  5  6  1  6  0  0  0
  5 16  1  0  0  0  0
  7 19  1  0  0  0  0
  8  4  1  0  0  0  0
  8 25  2  0  0  0  0
  9  8  1  1  0  0  0
  9 10  1  0  0  0  0
  9 13  1  0  0  0  0
 10 11  1  0  0  0  0
 11 12  1  0  0  0  0
 14 15  1  0  0  0  0
 14 36  1  0  0  0  0
 15 17  1  0  0  0  0
 16 18  1  6  0  0  0
 16 26  1  0  0  0  0
 17 23  1  0  0  0  0
 19 20  1  1  0  0  0
 19 28  1  0  0  0  0
 21 22  1  0  0  0  0
 21 23  1  0  0  0  0
 22 24  1  0  0  0  0
 26 27  1  1  0  0  0
 26 29  1  0  0  0  0
 28  2  1  6  0  0  0
 28 31  1  0  0  0  0
 29 30  1  0  0  0  0
 29 33  1  1  0  0  0
 31 32  1  1  0  0  0
 31 35  1  0  0  0  0
 33 34  1  0  0  0  0
 35 36  1  6  0  0  0
M  END
>  <CHROM.1>
-166.98827995,64.65855765,169.12551951,62.21093010,-176.43536522,76.52464574
176.23935076,96.17137580,-164.32872164,-63.41165987,-178.53307041,-167.32416723
60.93560651,-58.48682689,36.45564562,2.54790716,5.48274498,-0.43745925,0.40326392
-0.46287881

>  <Name>
2f4u_lig

>  <RI>
0

>  <Rbt.Current_Directory>
/home/itssahil/PROJECTS/Mol_Feturizer/New_Systems/rnas/2f4u

>  <Rbt.Executable>
rbdock ($Id: //depot/dev/client3/rdock/2013.1/src/exe/rbdock.cxx#4 $)

>  <Rbt.Library>
libRbt.so (2013.1, Build901 2013/11/27)

>  <Rbt.Parameter_File>
/export/apps/rDock/src/rDock_2013.1_src/data/scripts/dock_solv.prm

>  <Rbt.Receptor>
prm/pocket_docking_8.prm

>  <SCORE>
-8.53344

>  <SCORE.INTER>
2.50305

>  <SCORE.INTER.CONST>
1

>  <SCORE.INTER.POLAR>
-0.894427

>  <SCORE.INTER.ROT>
14

>  <SCORE.INTER.SOLV>
10.5809

>  <SCORE.INTER.VDW>
-11.8102

>  <SCORE.INTER.norm>
0.0695292

>  <SCORE.INTRA>
-11.0365

>  <SCORE.INTRA.DIHEDRAL>
-21.7376

>  <SCORE.INTRA.DIHEDRAL.0>
26.3805

>  <SCORE.INTRA.POLAR>
0

>  <SCORE.INTRA.POLAR.0>
0

>  <SCORE.INTRA.REPUL>
0

>  <SCORE.INTRA.REPUL.0>
0

>  <SCORE.INTRA.SOLV>
1.1653

>  <SCORE.INTRA.SOLV.lig_0>
-98.5587

>  <SCORE.INTRA.VDW>
-0.750357

>  <SCORE.INTRA.VDW.0>
-2.91167

>  <SCORE.INTRA.norm>
-0.306569

>  <SCORE.RESTR>
0

>  <SCORE.RESTR.CAVITY>
0

>  <SCORE.RESTR.norm>
0

>  <SCORE.SYSTEM>
0

>  <SCORE.SYSTEM.CONST>
0

>  <SCORE.SYSTEM.DIHEDRAL>
0

>  <SCORE.SYSTEM.SOLV>
0

>  <SCORE.SYSTEM.norm>
0

>  <SCORE.heavy>
36

>  <SCORE.norm>
-0.23704

>  <RMSD>
10.555

$$$$
2f4u_lig
 OpenBabel11021811433D
libRbt.so/2013.1/901 2013/11/27
 36 37  0  0  0  0  0  0  0  0999 V2000
   48.5376    3.6532    6.5095 C   0  0  2  0  0  0  0  0  0  0  0  0
   47.4024    2.7837    6.1443 O   0  0  0  0  0  0  0  0  0  0  0  0
   43.1123    3.4662    6.3002 C   0  0  2  0  0  0  0  0  0  0  0  0
   41.7494    3.6595    6.8659 N   0  0  0  0  0  0  0  0  0  0  0  0
   49.7898    3.0900    5.7687 C   0  0  2  0  0  0  0  0  0  0  0  0
   49.6165    3.0561    4.3048 N   0  0  0  0  0  0  0  0  0  0  0  0
   43.7218    2.0801    6.7127 C   0  0  0  0  0  0  0  0  0  0  0  0
   41.6951    3.1938    8.5886 C   0  0  0  0  0  0  0  0  0  0  0  0
   40.2238    3.4362    8.4607 C   0  0  1  0  0  0  0  0  0  0  0  0
   39.5366    2.6581    9.5884 C   0  0  0  0  0  0  0  0  0  0  0  0
   37.9969    2.6593    9.5630 C   0  0  0  0  0  0  0  0  0  0  0  0
   37.5114    1.9050   10.7203 N   0  0  0  0  0  0  0  0  0  0  0  0
   39.9371    4.7955    8.6466 O   0  0  0  0  0  0  0  0  0  0  0  0
   42.8386    6.8262    5.6042 C   0  0  0  0  0  0  0  0  0  0  0  0
   43.8138    7.1532    4.4831 C   0  0  0  0  0  0  0  0  0  0  0  0
   50.0904    1.6518    6.3071 C   0  0  1  0  0  0  0  0  0  0  0  0
   44.1797    5.9948    3.6433 N   0  0  0  0  0  0  0  0  0  0  0  0
   51.2230    1.0866    5.6520 O   0  0  0  0  0  0  0  0  0  0  0  0
   45.1549    1.9131    6.1677 C   0  0  2  0  0  0  0  0  0  0  0  0
   45.7372    0.6452    6.5890 N   0  0  0  0  0  0  0  0  0  0  0  0
   43.5184    5.0147    1.4519 C   0  0  0  0  0  0  0  0  0  0  0  0
   44.7733    4.1063    1.2839 C   0  0  0  0  0  0  0  0  0  0  0  0
   43.1168    5.2372    2.9334 C   0  0  0  0  0  0  0  0  0  0  0  0
   44.5158    2.7096    1.7468 N   0  0  0  0  0  0  0  0  0  0  0  0
   42.4025    2.8432    9.3221 O   0  0  0  0  0  0  0  0  0  0  0  0
   50.3092    1.7444    7.8305 C   0  0  2  0  0  0  0  0  0  0  0  0
   50.5826    0.4760    8.4205 O   0  0  0  0  0  0  0  0  0  0  0  0
   46.0440    3.0341    6.6677 C   0  0  2  0  0  0  0  0  0  0  0  0
   49.0857    2.3708    8.5234 C   0  0  2  0  0  0  0  0  0  0  0  0
   48.7658    3.6420    7.9473 O   0  0  0  0  0  0  0  0  0  0  0  0
   45.4553    4.4304    6.2115 C   0  0  2  0  0  0  0  0  0  0  0  0
   46.3214    5.4921    6.7221 O   0  0  0  0  0  0  0  0  0  0  0  0
   49.3085    2.5476   10.0016 C   0  0  0  0  0  0  0  0  0  0  0  0
   49.1507    1.3487   10.6596 O   0  0  0  0  0  0  0  0  0  0  0  0
   44.0096    4.5839    6.7941 C   0  0  1  0  0  0  0  0  0  0  0  0
   43.4259    5.8021    6.4343 O   0  0  0  0  0  0  0  0  0  0  0  0
  1  2  1  1  0  0  0
  1  5  1  0  0  0  0
  1 30  1  0  0  0  0
  3  4  1  1  0  0  0
  3  7  1  0  0  0  0
  3 35  1  0  0  0  0
  5  6  1  6  0  0  0
  5 16  1  0  0  0  0
  7 19  1  0  0  0  0
  8  4  1  0  0  0  0
  8 25  2  0  0  0  0
  9  8  1  1  0  0  0
  9 10  1  0  0  0  0
  9 13  1  0  0  0  0
 10 11  1  0  0  0  0
 11 12  1  0  0  0  0
 14 15  1  0  0  0  0
 14 36  1  0  0  0  0
 15 17  1  0  0  0  0
 16 18  1  6  0  0  0
 16 26  1  0  0  0  0
 17 23  1  0  0  0  0
 19 20  1  1  0  0  0
 19 28  1  0  0  0  0
 21 22  1  0  0  0  0
 21 23  1  0  0  0  0
 22 24  1  0  0  0  0
 26 27  1  1  0  0  0
 26 29  1  0  0  0  0
 28  2  1  6  0  0  0
 28 31  1  0  0  0  0
 29 30  1  0  0  0  0
 29 33  1  1  0  0  0
 31 32  1  1  0  0  0
 31 35  1  0  0  0  0
 33 34  1  0  0  0  0
 35 36  1  6  0  0  0
M  END
>  <CHROM.1>
-179.66723369,45.62891925,158.36295493,-174.35331355,-178.57076026,57.94841884
-56.05070608,58.16072087,132.33753484,65.47316479,65.08093812,-176.46727612
-78.15852324,-53.83960753,45.16323308,3.36380619,6.68163868,0.00264102,0.19643242
-1.15061912

>  <Name>
2f4u_lig

>  <RI>
0

>  <Rbt.Current_Directory>
/home/itssahil/PROJECTS/Mol_Feturizer/New_Systems/rnas/2f4u

>  <Rbt.Executable>
rbdock ($Id: //depot/dev/client3/rdock/2013.1/src/exe/rbdock.cxx#4 $)

>  <Rbt.Library>
libRbt.so (2013.1, Build901 2013/11/27)

>  <Rbt.Parameter_File>
/export/apps/rDock/src/rDock_2013.1_src/data/scripts/dock_solv.prm

>  <Rbt.Receptor>
prm/pocket_docking_6.prm

>  <SCORE>
-14.2832

>  <SCORE.INTER>
-2.89653

>  <SCORE.INTER.CONST>
1

>  <SCORE.INTER.POLAR>
-0.787114

>  <SCORE.INTER.ROT>
14

>  <SCORE.INTER.SOLV>
8.72196

>  <SCORE.INTER.VDW>
-15.148

>  <SCORE.INTER.norm>
-0.0804593

>  <SCORE.INTRA>
-11.3867

>  <SCORE.INTRA.DIHEDRAL>
-22.1788

>  <SCORE.INTRA.DIHEDRAL.0>
26.3805

>  <SCORE.INTRA.POLAR>
0

>  <SCORE.INTRA.POLAR.0>
0

>  <SCORE.INTRA.REPUL>
0

>  <SCORE.INTRA.REPUL.0>
0

>  <SCORE.INTRA.SOLV>
2.34628

>  <SCORE.INTRA.SOLV.lig_0>
-98.5587

>  <SCORE.INTRA.VDW>
-1.47041

>  <SCORE.INTRA.VDW.0>
-2.91167

>  <SCORE.INTRA.norm>
-0.316297

>  <SCORE.RESTR>
0

>  <SCORE.RESTR.CAVITY>
0

>  <SCORE.RESTR.norm>
0

>  <SCORE.SYSTEM>
0

>  <SCORE.SYSTEM.CONST>
0

>  <SCORE.SYSTEM.DIHEDRAL>
0

>  <SCORE.SYSTEM.SOLV>
0

>  <SCORE.SYSTEM.norm>
0

>  <SCORE.heavy>
36

>  <SCORE.norm>
-0.396756

>  <RMSD>
10.779

$$$$
2f4u_lig
 OpenBabel11021811433D
libRbt.so/2013.1/901 2013/11/27
 36 37  0  0  0  0  0  0  0  0999 V2000
   49.5460    0.9349    7.8818 C   0  0  2  0  0  0  0  0  0  0  0  0
   48.7358    0.6239    9.0755 O   0  0  0  0  0  0  0  0  0  0  0  0
   44.6802    0.5553    7.5125 C   0  0  2  0  0  0  0  0  0  0  0  0
   43.1950    0.4648    7.4888 N   0  0  0  0  0  0  0  0  0  0  0  0
   51.0402    0.7685    8.2986 C   0  0  2  0  0  0  0  0  0  0  0  0
   51.3454   -0.5879    8.7897 N   0  0  0  0  0  0  0  0  0  0  0  0
   45.3319   -0.7389    8.1155 C   0  0  0  0  0  0  0  0  0  0  0  0
   42.6489   -0.9032    6.4799 C   0  0  0  0  0  0  0  0  0  0  0  0
   41.2787   -0.3556    6.7301 C   0  0  1  0  0  0  0  0  0  0  0  0
   40.5747   -0.2582    5.3721 C   0  0  0  0  0  0  0  0  0  0  0  0
   39.2282    0.4889    5.3663 C   0  0  0  0  0  0  0  0  0  0  0  0
   38.3060   -0.2062    6.2664 N   0  0  0  0  0  0  0  0  0  0  0  0
   40.5403   -1.2395    7.5287 O   0  0  0  0  0  0  0  0  0  0  0  0
   44.1042    3.8953    6.8229 C   0  0  0  0  0  0  0  0  0  0  0  0
   43.0642    4.8126    7.4488 C   0  0  0  0  0  0  0  0  0  0  0  0
   51.3777    1.8270    9.4006 C   0  0  1  0  0  0  0  0  0  0  0  0
   41.8193    4.1282    7.8524 N   0  0  0  0  0  0  0  0  0  0  0  0
   52.7333    1.7093    9.8249 O   0  0  0  0  0  0  0  0  0  0  0  0
   46.8673   -0.6126    8.1867 C   0  0  2  0  0  0  0  0  0  0  0  0
   47.4686   -1.7961    8.7885 N   0  0  0  0  0  0  0  0  0  0  0  0
   40.8525    5.3104    9.8190 C   0  0  0  0  0  0  0  0  0  0  0  0
   39.4203    5.5672    9.2611 C   0  0  0  0  0  0  0  0  0  0  0  0
   41.4880    3.9963    9.2948 C   0  0  0  0  0  0  0  0  0  0  0  0
   38.8377    6.8384    9.7863 N   0  0  0  0  0  0  0  0  0  0  0  0
   43.1212   -1.6915    5.9170 O   0  0  0  0  0  0  0  0  0  0  0  0
   51.0870    3.2282    8.8269 C   0  0  2  0  0  0  0  0  0  0  0  0
   51.3561    4.2680    9.7639 O   0  0  0  0  0  0  0  0  0  0  0  0
   47.2602    0.5940    9.0155 C   0  0  2  0  0  0  0  0  0  0  0  0
   49.6248    3.3365    8.3580 C   0  0  2  0  0  0  0  0  0  0  0  0
   49.3074    2.2968    7.4261 O   0  0  0  0  0  0  0  0  0  0  0  0
   46.6424    1.9054    8.3808 C   0  0  2  0  0  0  0  0  0  0  0  0
   47.0216    3.0490    9.2094 O   0  0  0  0  0  0  0  0  0  0  0  0
   49.3389    4.6688    7.7182 C   0  0  0  0  0  0  0  0  0  0  0  0
   48.0216    4.7417    7.3250 O   0  0  0  0  0  0  0  0  0  0  0  0
   45.0834    1.7605    8.3390 C   0  0  1  0  0  0  0  0  0  0  0  0
   44.4664    2.8895    7.7923 O   0  0  0  0  0  0  0  0  0  0  0  0
  1  2  1  1  0  0  0
  1  5  1  0  0  0  0
  1 30  1  0  0  0  0
  3  4  1  1  0  0  0
  3  7  1  0  0  0  0
  3 35  1  0  0  0  0
  5  6  1  1  0  0  0
  5 16  1  0  0  0  0
  7 19  1  0  0  0  0
  8  4  1  0  0  0  0
  8 25  2  0  0  0  0
  9  8  1  6  0  0  0
  9 10  1  0  0  0  0
  9 13  1  0  0  0  0
 10 11  1  0  0  0  0
 11 12  1  0  0  0  0
 14 15  1  0  0  0  0
 14 36  1  0  0  0  0
 15 17  1  0  0  0  0
 16 18  1  6  0  0  0
 16 26  1  0  0  0  0
 17 23  1  0  0  0  0
 19 20  1  1  0  0  0
 19 28  1  0  0  0  0
 21 22  1  0  0  0  0
 21 23  1  0  0  0  0
 22 24  1  0  0  0  0
 26 27  1  1  0  0  0
 26 29  1  0  0  0  0
 28  2  1  6  0  0  0
 28 31  1  0  0  0  0
 29 30  1  0  0  0  0
 29 33  1  6  0  0  0
 31 32  1  1  0  0  0
 31 35  1  0  0  0  0
 33 34  1  0  0  0  0
 35 36  1  6  0  0  0
M  END
>  <CHROM.1>
-175.85552313,-60.89632770,130.72566695,-170.73499599,-60.18809308,-60.67433983
176.24104474,111.90633304,81.18879333,179.94429020,70.11686372,69.41847639
-179.25194704,-59.24294866,45.49288623,1.86455808,8.04770190,-0.03139096
0.13171178,-2.86651442

>  <Name>
2f4u_lig

>  <RI>
0

>  <Rbt.Current_Directory>
/home/itssahil/PROJECTS/Mol_Feturizer/New_Systems/rnas/2f4u

>  <Rbt.Executable>
rbdock ($Id: //depot/dev/client3/rdock/2013.1/src/exe/rbdock.cxx#4 $)

>  <Rbt.Library>
libRbt.so (2013.1, Build901 2013/11/27)

>  <Rbt.Parameter_File>
/export/apps/rDock/src/rDock_2013.1_src/data/scripts/dock_solv.prm

>  <Rbt.Receptor>
prm/pocket_docking_8.prm

>  <SCORE>
-15.3255

>  <SCORE.INTER>
-4.75323

>  <SCORE.INTER.CONST>
1

>  <SCORE.INTER.POLAR>
-1.87583

>  <SCORE.INTER.ROT>
14

>  <SCORE.INTER.SOLV>
18.1515

>  <SCORE.INTER.VDW>
-15.8999

>  <SCORE.INTER.norm>
-0.132034

>  <SCORE.INTRA>
-10.5723

>  <SCORE.INTRA.DIHEDRAL>
-21.3365

>  <SCORE.INTRA.DIHEDRAL.0>
26.3805

>  <SCORE.INTRA.POLAR>
0

>  <SCORE.INTRA.POLAR.0>
0

>  <SCORE.INTRA.REPUL>
0

>  <SCORE.INTRA.REPUL.0>
0

>  <SCORE.INTRA.SOLV>
3.16826

>  <SCORE.INTRA.SOLV.lig_0>
-98.5587

>  <SCORE.INTRA.VDW>
-1.48817

>  <SCORE.INTRA.VDW.0>
-2.91167

>  <SCORE.INTRA.norm>
-0.293674

>  <SCORE.RESTR>
0

>  <SCORE.RESTR.CAVITY>
0

>  <SCORE.RESTR.norm>
0

>  <SCORE.SYSTEM>
0

>  <SCORE.SYSTEM.CONST>
0

>  <SCORE.SYSTEM.DIHEDRAL>
0

>  <SCORE.SYSTEM.SOLV>
0

>  <SCORE.SYSTEM.norm>
0

>  <SCORE.heavy>
36

>  <SCORE.norm>
-0.425709

>  <RMSD>
10.861

$$$$
2f4u_lig
 OpenBabel11021811433D
libRbt.so/2013.1/901 2013/11/27
 36 37  0  0  0  0  0  0  0  0999 V2000
   39.0741    8.6765    6.0018 C   0  0  2  0  0  0  0  0  0  0  0  0
   38.1215    8.3909    4.9114 O   0  0  0  0  0  0  0  0  0  0  0  0
   36.9550   10.9234    1.5766 C   0  0  2  0  0  0  0  0  0  0  0  0
   36.2611   11.9982    0.8163 N   0  0  0  0  0  0  0  0  0  0  0  0
   39.8167    7.3394    6.3097 C   0  0  2  0  0  0  0  0  0  0  0  0
   40.5250    6.7992    5.1346 N   0  0  0  0  0  0  0  0  0  0  0  0
   35.9378    9.9114    2.2123 C   0  0  0  0  0  0  0  0  0  0  0  0
   36.1917   11.6131   -0.9257 C   0  0  0  0  0  0  0  0  0  0  0  0
   35.6192   12.9892   -1.0617 C   0  0  1  0  0  0  0  0  0  0  0  0
   36.6122   13.8132   -1.8890 C   0  0  0  0  0  0  0  0  0  0  0  0
   36.7988   13.3684   -3.3514 C   0  0  0  0  0  0  0  0  0  0  0  0
   37.9598   14.0672   -3.9062 N   0  0  0  0  0  0  0  0  0  0  0  0
   34.4104   12.9451   -1.7696 O   0  0  0  0  0  0  0  0  0  0  0  0
   39.6448   13.0048    1.1572 C   0  0  0  0  0  0  0  0  0  0  0  0
   40.0650   14.3815    1.6498 C   0  0  0  0  0  0  0  0  0  0  0  0
   38.7778    6.2949    6.8373 C   0  0  1  0  0  0  0  0  0  0  0  0
   41.3373   14.3927    2.3996 N   0  0  0  0  0  0  0  0  0  0  0  0
   39.4062    5.0482    7.1239 O   0  0  0  0  0  0  0  0  0  0  0  0
   36.6639    8.8341    3.0435 C   0  0  2  0  0  0  0  0  0  0  0  0
   35.7164    7.9214    3.6708 N   0  0  0  0  0  0  0  0  0  0  0  0
   43.2226   15.4712    3.6173 C   0  0  0  0  0  0  0  0  0  0  0  0
   43.7098   16.6858    4.4632 C   0  0  0  0  0  0  0  0  0  0  0  0
   41.7753   15.6363    3.0848 C   0  0  0  0  0  0  0  0  0  0  0  0
   45.1278   16.5242    4.9043 N   0  0  0  0  0  0  0  0  0  0  0  0
   36.4937   10.7904   -1.5528 O   0  0  0  0  0  0  0  0  0  0  0  0
   38.0974    6.8834    8.0894 C   0  0  2  0  0  0  0  0  0  0  0  0
   37.1208    6.0052    8.6434 O   0  0  0  0  0  0  0  0  0  0  0  0
   37.4952    9.4797    4.1341 C   0  0  2  0  0  0  0  0  0  0  0  0
   37.4367    8.2366    7.7699 C   0  0  2  0  0  0  0  0  0  0  0  0
   38.3820    9.1448    7.1939 O   0  0  0  0  0  0  0  0  0  0  0  0
   38.5533   10.4649    3.4904 C   0  0  2  0  0  0  0  0  0  0  0  0
   39.3274   11.0859    4.5643 O   0  0  0  0  0  0  0  0  0  0  0  0
   36.8365    8.8704    8.9963 C   0  0  0  0  0  0  0  0  0  0  0  0
   36.0975    9.9799    8.6527 O   0  0  0  0  0  0  0  0  0  0  0  0
   37.7905   11.5596    2.6700 C   0  0  1  0  0  0  0  0  0  0  0  0
   38.6655   12.4726    2.0739 O   0  0  0  0  0  0  0  0  0  0  0  0
  1  2  1  6  0  0  0
  1  5  1  0  0  0  0
  1 30  1  0  0  0  0
  3  4  1  1  0  0  0
  3  7  1  0  0  0  0
  3 35  1  0  0  0  0
  5  6  1  6  0  0  0
  5 16  1  0  0  0  0
  7 19  1  0  0  0  0
  8  4  1  0  0  0  0
  8 25  2  0  0  0  0
  9  8  1  6  0  0  0
  9 10  1  0  0  0  0
  9 13  1  0  0  0  0
 10 11  1  0  0  0  0
 11 12  1  0  0  0  0
 14 15  1  0  0  0  0
 14 36  1  0  0  0  0
 15 17  1  0  0  0  0
 16 18  1  1  0  0  0
 16 26  1  0  0  0  0
 17 23  1  0  0  0  0
 19 20  1  1  0  0  0
 19 28  1  0  0  0  0
 21 22  1  0  0  0  0
 21 23  1  0  0  0  0
 22 24  1  0  0  0  0
 26 27  1  6  0  0  0
 26 29  1  0  0  0  0
 28  2  1  6  0  0  0
 28 31  1  0  0  0  0
 29 30  1  0  0  0  0
 29 33  1  1  0  0  0
 31 32  1  1  0  0  0
 31 35  1  0  0  0  0
 33 34  1  0  0  0  0
 35 36  1  6  0  0  0
M  END
>  <CHROM.1>
-164.38123230,-96.44841922,115.77191654,65.65032575,-168.47628698,99.02475454
-172.76170227,-172.19338108,-171.53863458,-177.23831713,-174.72545712,175.91716003
-171.71808953,-48.47891982,38.38097787,10.87467254,3.38471189,-1.60026348
-0.69830415,-0.90014759

>  <Name>
2f4u_lig

>  <RI>
0

>  <Rbt.Current_Directory>
/home/itssahil/PROJECTS/Mol_Feturizer/New_Systems/rnas/2f4u

>  <Rbt.Executable>
rbdock ($Id: //depot/dev/client3/rdock/2013.1/src/exe/rbdock.cxx#4 $)

>  <Rbt.Library>
libRbt.so (2013.1, Build901 2013/11/27)

>  <Rbt.Parameter_File>
/export/apps/rDock/src/rDock_2013.1_src/data/scripts/dock_solv.prm

>  <Rbt.Receptor>
prm/pocket_docking_8.prm

>  <SCORE>
-27.1376

>  <SCORE.INTER>
-17.5892

>  <SCORE.INTER.CONST>
1

>  <SCORE.INTER.POLAR>
-1.60275

>  <SCORE.INTER.ROT>
14

>  <SCORE.INTER.SOLV>
16.5285

>  <SCORE.INTER.VDW>
-24.8265

>  <SCORE.INTER.norm>
-0.488589

>  <SCORE.INTRA>
-9.54835

>  <SCORE.INTRA.DIHEDRAL>
-15.8774

>  <SCORE.INTRA.DIHEDRAL.0>
26.3805

>  <SCORE.INTRA.POLAR>
0

>  <SCORE.INTRA.POLAR.0>
0

>  <SCORE.INTRA.REPUL>
0

>  <SCORE.INTRA.REPUL.0>
0

>  <SCORE.INTRA.SOLV>
-1.28382

>  <SCORE.INTRA.SOLV.lig_0>
-98.5587

>  <SCORE.INTRA.VDW>
-0.96772

>  <SCORE.INTRA.VDW.0>
-2.91167

>  <SCORE.INTRA.norm>
-0.265232

>  <SCORE.RESTR>
0

>  <SCORE.RESTR.CAVITY>
0

>  <SCORE.RESTR.norm>
0

>  <SCORE.SYSTEM>
0

>  <SCORE.SYSTEM.CONST>
0

>  <SCORE.SYSTEM.DIHEDRAL>
0

>  <SCORE.SYSTEM.SOLV>
0

>  <SCORE.SYSTEM.norm>
0

>  <SCORE.heavy>
36

>  <SCORE.norm>
-0.753821

>  <RMSD>
10.884

$$$$
2f4u_lig
 OpenBabel11021811433D
libRbt.so/2013.1/901 2013/11/27
 36 37  0  0  0  0  0  0  0  0999 V2000
   37.8229    7.2021    5.7388 C   0  0  2  0  0  0  0  0  0  0  0  0
   38.4279    8.2653    4.9132 O   0  0  0  0  0  0  0  0  0  0  0  0
   36.7463   10.6862    1.7184 C   0  0  2  0  0  0  0  0  0  0  0  0
   35.8471   11.6428    1.0177 N   0  0  0  0  0  0  0  0  0  0  0  0
   38.6063    7.1818    7.0878 C   0  0  2  0  0  0  0  0  0  0  0  0
   38.5550    8.4751    7.7942 N   0  0  0  0  0  0  0  0  0  0  0  0
   35.9525    9.4667    2.3066 C   0  0  0  0  0  0  0  0  0  0  0  0
   36.6212   12.2954   -0.4528 C   0  0  0  0  0  0  0  0  0  0  0  0
   35.4132   13.1759   -0.5257 C   0  0  1  0  0  0  0  0  0  0  0  0
   35.7012   14.4124    0.3331 C   0  0  0  0  0  0  0  0  0  0  0  0
   34.4810   15.2823    0.6875 C   0  0  0  0  0  0  0  0  0  0  0  0
   33.9782   15.9017   -0.5403 N   0  0  0  0  0  0  0  0  0  0  0  0
   35.2079   13.6115   -1.8420 O   0  0  0  0  0  0  0  0  0  0  0  0
   39.0993   13.2508    1.5104 C   0  0  0  0  0  0  0  0  0  0  0  0
   40.4752   13.0319    2.1216 C   0  0  0  0  0  0  0  0  0  0  0  0
   40.0927    6.7846    6.8024 C   0  0  1  0  0  0  0  0  0  0  0  0
   41.0165   11.6726    1.9207 N   0  0  0  0  0  0  0  0  0  0  0  0
   40.8563    6.7622    8.0056 O   0  0  0  0  0  0  0  0  0  0  0  0
   36.8847    8.5102    3.0779 C   0  0  2  0  0  0  0  0  0  0  0  0
   36.1401    7.4020    3.6623 N   0  0  0  0  0  0  0  0  0  0  0  0
   42.7626   11.8111    0.1510 C   0  0  0  0  0  0  0  0  0  0  0  0
   42.7545   13.3637    0.0178 C   0  0  0  0  0  0  0  0  0  0  0  0
   41.3848   11.2233    0.5533 C   0  0  0  0  0  0  0  0  0  0  0  0
   44.0650   13.8874   -0.4718 N   0  0  0  0  0  0  0  0  0  0  0  0
   37.5535   12.1462   -0.9724 O   0  0  0  0  0  0  0  0  0  0  0  0
   40.0980    5.4088    6.1065 C   0  0  2  0  0  0  0  0  0  0  0  0
   41.4144    4.9602    5.7945 O   0  0  0  0  0  0  0  0  0  0  0  0
   37.5923    9.2497    4.1958 C   0  0  2  0  0  0  0  0  0  0  0  0
   39.2570    5.4427    4.8177 C   0  0  2  0  0  0  0  0  0  0  0  0
   37.9287    5.9058    5.0847 O   0  0  0  0  0  0  0  0  0  0  0  0
   38.4311   10.4511    3.5981 C   0  0  2  0  0  0  0  0  0  0  0  0
   39.0870   11.1562    4.6985 O   0  0  0  0  0  0  0  0  0  0  0  0
   39.1792    4.0890    4.1637 C   0  0  0  0  0  0  0  0  0  0  0  0
   40.4147    3.7119    3.6879 O   0  0  0  0  0  0  0  0  0  0  0  0
   37.4597   11.4170    2.8387 C   0  0  1  0  0  0  0  0  0  0  0  0
   38.1335   12.5100    2.2858 O   0  0  0  0  0  0  0  0  0  0  0  0
  1  2  1  6  0  0  0
  1  5  1  0  0  0  0
  1 30  1  0  0  0  0
  3  4  1  1  0  0  0
  3  7  1  0  0  0  0
  3 35  1  0  0  0  0
  5  6  1  6  0  0  0
  5 16  1  0  0  0  0
  7 19  1  0  0  0  0
  8  4  1  0  0  0  0
  8 25  2  0  0  0  0
  9  8  1  6  0  0  0
  9 10  1  0  0  0  0
  9 13  1  0  0  0  0
 10 11  1  0  0  0  0
 11 12  1  0  0  0  0
 14 15  1  0  0  0  0
 14 36  1  0  0  0  0
 15 17  1  0  0  0  0
 16 18  1  1  0  0  0
 16 26  1  0  0  0  0
 17 23  1  0  0  0  0
 19 20  1  1  0  0  0
 19 28  1  0  0  0  0
 21 22  1  0  0  0  0
 21 23  1  0  0  0  0
 22 24  1  0  0  0  0
 26 27  1  6  0  0  0
 26 29  1  0  0  0  0
 28  2  1  6  0  0  0
 28 31  1  0  0  0  0
 29 30  1  0  0  0  0
 29 33  1  1  0  0  0
 31 32  1  1  0  0  0
 31 35  1  0  0  0  0
 33 34  1  0  0  0  0
 35 36  1  6  0  0  0
M  END
>  <CHROM.1>
-133.51335767,-141.54013727,86.55781929,-165.35934535,-67.12194669,70.90953815
-66.86473264,67.42474906,78.82636353,-175.60279161,-65.33017991,-69.56760408
-67.17980202,-67.74222127,38.51197044,10.02486539,2.83894354,1.33694022,-0.02971469
2.48537426

>  <Name>
2f4u_lig

>  <RI>
0

>  <Rbt.Current_Directory>
/home/itssahil/PROJECTS/Mol_Feturizer/New_Systems/rnas/2f4u

>  <Rbt.Executable>
rbdock ($Id: //depot/dev/client3/rdock/2013.1/src/exe/rbdock.cxx#4 $)

>  <Rbt.Library>
libRbt.so (2013.1, Build901 2013/11/27)

>  <Rbt.Parameter_File>
/export/apps/rDock/src/rDock_2013.1_src/data/scripts/dock_solv.prm

>  <Rbt.Receptor>
prm/pocket_docking_8.prm

>  <SCORE>
-19.4186

>  <SCORE.INTER>
-14.1642

>  <SCORE.INTER.CONST>
1

>  <SCORE.INTER.POLAR>
-1.07735

>  <SCORE.INTER.ROT>
14

>  <SCORE.INTER.SOLV>
15.8208

>  <SCORE.INTER.VDW>
-24.0586

>  <SCORE.INTER.norm>
-0.393449

>  <SCORE.INTRA>
-5.25437

>  <SCORE.INTRA.DIHEDRAL>
-14.5964

>  <SCORE.INTRA.DIHEDRAL.0>
26.3805

>  <SCORE.INTRA.POLAR>
0

>  <SCORE.INTRA.POLAR.0>
0

>  <SCORE.INTRA.REPUL>
0

>  <SCORE.INTRA.REPUL.0>
0

>  <SCORE.INTRA.SOLV>
5.58763

>  <SCORE.INTRA.SOLV.lig_0>
-98.5587

>  <SCORE.INTRA.VDW>
-0.749967

>  <SCORE.INTRA.VDW.0>
-2.91167

>  <SCORE.INTRA.norm>
-0.145955

>  <SCORE.RESTR>
0

>  <SCORE.RESTR.CAVITY>
0

>  <SCORE.RESTR.norm>
0

>  <SCORE.SYSTEM>
0

>  <SCORE.SYSTEM.CONST>
0

>  <SCORE.SYSTEM.DIHEDRAL>
0

>  <SCORE.SYSTEM.SOLV>
0

>  <SCORE.SYSTEM.norm>
0

>  <SCORE.heavy>
36

>  <SCORE.norm>
-0.539404

>  <RMSD>
10.921

$$$$
2f4u_lig
 OpenBabel11021811433D
libRbt.so/2013.1/901 2013/11/27
 36 37  0  0  0  0  0  0  0  0999 V2000
   38.9616    8.5769    5.9284 C   0  0  2  0  0  0  0  0  0  0  0  0
   38.0294    8.3155    4.8146 O   0  0  0  0  0  0  0  0  0  0  0  0
   36.9941   10.9863    1.5451 C   0  0  2  0  0  0  0  0  0  0  0  0
   36.3097   12.0744    0.7951 N   0  0  0  0  0  0  0  0  0  0  0  0
   39.5628    7.1981    6.3426 C   0  0  2  0  0  0  0  0  0  0  0  0
   40.2622    6.5264    5.2318 N   0  0  0  0  0  0  0  0  0  0  0  0
   35.9793    9.9000    2.0485 C   0  0  0  0  0  0  0  0  0  0  0  0
   36.3228   11.7532   -0.9611 C   0  0  0  0  0  0  0  0  0  0  0  0
   35.7268   13.1215   -1.0716 C   0  0  1  0  0  0  0  0  0  0  0  0
   36.3415   13.7849   -2.3091 C   0  0  0  0  0  0  0  0  0  0  0  0
   36.0009   15.2730   -2.5117 C   0  0  0  0  0  0  0  0  0  0  0  0
   36.4964   16.0256   -1.3575 N   0  0  0  0  0  0  0  0  0  0  0  0
   34.3435   13.0339   -1.2797 O   0  0  0  0  0  0  0  0  0  0  0  0
   39.7136   13.1603    1.5537 C   0  0  0  0  0  0  0  0  0  0  0  0
   39.6813   14.6645    1.7801 C   0  0  0  0  0  0  0  0  0  0  0  0
   38.4107    6.2864    6.8811 C   0  0  1  0  0  0  0  0  0  0  0  0
   40.9562   15.3480    1.4824 N   0  0  0  0  0  0  0  0  0  0  0  0
   38.9076    5.0066    7.2640 O   0  0  0  0  0  0  0  0  0  0  0  0
   36.6907    8.8066    2.8713 C   0  0  2  0  0  0  0  0  0  0  0  0
   35.7417    7.8226    3.3767 N   0  0  0  0  0  0  0  0  0  0  0  0
   42.6305   17.0129    2.2726 C   0  0  0  0  0  0  0  0  0  0  0  0
   43.1098   16.1688    3.4917 C   0  0  0  0  0  0  0  0  0  0  0  0
   41.1464   16.7616    1.8985 C   0  0  0  0  0  0  0  0  0  0  0  0
   44.5162   16.4941    3.8759 N   0  0  0  0  0  0  0  0  0  0  0  0
   36.6691   10.9607   -1.6041 O   0  0  0  0  0  0  0  0  0  0  0  0
   37.7406    7.0082    8.0674 C   0  0  2  0  0  0  0  0  0  0  0  0
   36.6651    6.2576    8.6257 O   0  0  0  0  0  0  0  0  0  0  0  0
   37.4132    9.4212    4.0534 C   0  0  2  0  0  0  0  0  0  0  0  0
   37.2229    8.3947    7.6443 C   0  0  2  0  0  0  0  0  0  0  0  0
   38.2710    9.1767    7.0609 O   0  0  0  0  0  0  0  0  0  0  0  0
   38.4703   10.4828    3.5436 C   0  0  2  0  0  0  0  0  0  0  0  0
   39.1380   11.0716    4.7037 O   0  0  0  0  0  0  0  0  0  0  0  0
   36.6379    9.1527    8.8059 C   0  0  0  0  0  0  0  0  0  0  0  0
   37.5312    9.1952    9.8526 O   0  0  0  0  0  0  0  0  0  0  0  0
   37.7209   11.5915    2.7298 C   0  0  1  0  0  0  0  0  0  0  0  0
   38.5953   12.5711    2.2501 O   0  0  0  0  0  0  0  0  0  0  0  0
  1  2  1  6  0  0  0
  1  5  1  0  0  0  0
  1 30  1  0  0  0  0
  3  4  1  1  0  0  0
  3  7  1  0  0  0  0
  3 35  1  0  0  0  0
  5  6  1  6  0  0  0
  5 16  1  0  0  0  0
  7 19  1  0  0  0  0
  8  4  1  0  0  0  0
  8 25  2  0  0  0  0
  9  8  1  6  0  0  0
  9 10  1  0  0  0  0
  9 13  1  0  0  0  0
 10 11  1  0  0  0  0
 11 12  1  0  0  0  0
 14 15  1  0  0  0  0
 14 36  1  0  0  0  0
 15 17  1  0  0  0  0
 16 18  1  1  0  0  0
 16 26  1  0  0  0  0
 17 23  1  0  0  0  0
 19 20  1  1  0  0  0
 19 28  1  0  0  0  0
 21 22  1  0  0  0  0
 21 23  1  0  0  0  0
 22 24  1  0  0  0  0
 26 27  1  6  0  0  0
 26 29  1  0  0  0  0
 28  2  1  6  0  0  0
 28 31  1  0  0  0  0
 29 30  1  0  0  0  0
 29 33  1  1  0  0  0
 31 32  1  1  0  0  0
 31 35  1  0  0  0  0
 33 34  1  0  0  0  0
 35 36  1  6  0  0  0
M  END
>  <CHROM.1>
-171.76662859,-94.10785584,141.78882777,-172.50312291,60.75764771,162.56150186
-179.48084509,-168.51016503,146.70597188,-176.59706951,-62.89945094,171.68117370
52.47404383,-66.25632712,38.18785310,11.07581841,3.36401779,-1.63752324,-0.69239788
-0.82141435

>  <Name>
2f4u_lig

>  <RI>
0

>  <Rbt.Current_Directory>
/home/itssahil/PROJECTS/Mol_Feturizer/New_Systems/rnas/2f4u

>  <Rbt.Executable>
rbdock ($Id: //depot/dev/client3/rdock/2013.1/src/exe/rbdock.cxx#4 $)

>  <Rbt.Library>
libRbt.so (2013.1, Build901 2013/11/27)

>  <Rbt.Parameter_File>
/export/apps/rDock/src/rDock_2013.1_src/data/scripts/dock_solv.prm

>  <Rbt.Receptor>
prm/pocket_docking_8.prm

>  <SCORE>
-26.23

>  <SCORE.INTER>
-15.1152

>  <SCORE.INTER.CONST>
1

>  <SCORE.INTER.POLAR>
-1.55895

>  <SCORE.INTER.ROT>
14

>  <SCORE.INTER.SOLV>
12.9975

>  <SCORE.INTER.VDW>
-22.1461

>  <SCORE.INTER.norm>
-0.419867

>  <SCORE.INTRA>
-11.1148

>  <SCORE.INTRA.DIHEDRAL>
-20.5459

>  <SCORE.INTRA.DIHEDRAL.0>
26.3805

>  <SCORE.INTRA.POLAR>
0

>  <SCORE.INTRA.POLAR.0>
0

>  <SCORE.INTRA.REPUL>
0

>  <SCORE.INTRA.REPUL.0>
0

>  <SCORE.INTRA.SOLV>
0.00247723

>  <SCORE.INTRA.SOLV.lig_0>
-98.5587

>  <SCORE.INTRA.VDW>
-0.843103

>  <SCORE.INTRA.VDW.0>
-2.91167

>  <SCORE.INTRA.norm>
-0.308745

>  <SCORE.RESTR>
0

>  <SCORE.RESTR.CAVITY>
0

>  <SCORE.RESTR.norm>
0

>  <SCORE.SYSTEM>
0

>  <SCORE.SYSTEM.CONST>
0

>  <SCORE.SYSTEM.DIHEDRAL>
0

>  <SCORE.SYSTEM.SOLV>
0

>  <SCORE.SYSTEM.norm>
0

>  <SCORE.heavy>
36

>  <SCORE.norm>
-0.728612

>  <RMSD>
11.133

$$$$
2f4u_lig
 OpenBabel11021811433D
libRbt.so/2013.1/901 2013/11/27
 36 37  0  0  0  0  0  0  0  0999 V2000
   27.9240   25.7570    6.3481 C   0  0  2  0  0  0  0  0  0  0  0  0
   27.1695   25.2169    5.2005 O   0  0  0  0  0  0  0  0  0  0  0  0
   23.0331   26.1715    6.1355 C   0  0  2  0  0  0  0  0  0  0  0  0
   21.5468   26.1588    6.0618 N   0  0  0  0  0  0  0  0  0  0  0  0
   28.4227   27.1747    5.9292 C   0  0  2  0  0  0  0  0  0  0  0  0
   27.3180   28.0813    5.5658 N   0  0  0  0  0  0  0  0  0  0  0  0
   23.6785   26.6317    4.7809 C   0  0  0  0  0  0  0  0  0  0  0  0
   20.8217   26.7931    7.5648 C   0  0  0  0  0  0  0  0  0  0  0  0
   19.5241   26.3771    6.9459 C   0  0  1  0  0  0  0  0  0  0  0  0
   18.6999   25.6899    8.0403 C   0  0  0  0  0  0  0  0  0  0  0  0
   18.0697   26.6225    9.0913 C   0  0  0  0  0  0  0  0  0  0  0  0
   19.1425   27.2062    9.8990 N   0  0  0  0  0  0  0  0  0  0  0  0
   18.8069   27.5025    6.5177 O   0  0  0  0  0  0  0  0  0  0  0  0
   22.4564   24.4474    9.0474 C   0  0  0  0  0  0  0  0  0  0  0  0
   22.0560   23.0456    9.4823 C   0  0  0  0  0  0  0  0  0  0  0  0
   29.4132   27.0265    4.7269 C   0  0  1  0  0  0  0  0  0  0  0  0
   21.3498   22.9933   10.7783 N   0  0  0  0  0  0  0  0  0  0  0  0
   29.8908   28.2989    4.2977 O   0  0  0  0  0  0  0  0  0  0  0  0
   25.2186   26.5884    4.8502 C   0  0  2  0  0  0  0  0  0  0  0  0
   25.8168   26.9722    3.5778 N   0  0  0  0  0  0  0  0  0  0  0  0
   21.3571   23.0317   13.2680 C   0  0  0  0  0  0  0  0  0  0  0  0
   21.0578   24.5606   13.2371 C   0  0  0  0  0  0  0  0  0  0  0  0
   22.0701   22.5207   11.9889 C   0  0  0  0  0  0  0  0  0  0  0  0
   20.4991   25.0451   14.5350 N   0  0  0  0  0  0  0  0  0  0  0  0
   21.1873   27.2097    8.4891 O   0  0  0  0  0  0  0  0  0  0  0  0
   30.5716   26.1098    5.1681 C   0  0  2  0  0  0  0  0  0  0  0  0
   31.5293   25.9040    4.1326 O   0  0  0  0  0  0  0  0  0  0  0  0
   25.6926   25.1910    5.1961 C   0  0  2  0  0  0  0  0  0  0  0  0
   30.0409   24.7454    5.6439 C   0  0  2  0  0  0  0  0  0  0  0  0
   29.0608   24.9083    6.6749 O   0  0  0  0  0  0  0  0  0  0  0  0
   25.0799   24.7447    6.5853 C   0  0  2  0  0  0  0  0  0  0  0  0
   25.5384   23.3889    6.8844 O   0  0  0  0  0  0  0  0  0  0  0  0
   31.1466   23.8623    6.1574 C   0  0  0  0  0  0  0  0  0  0  0  0
   31.8284   24.4874    7.1769 O   0  0  0  0  0  0  0  0  0  0  0  0
   23.5173   24.7774    6.4821 C   0  0  1  0  0  0  0  0  0  0  0  0
   22.9049   24.3882    7.6770 O   0  0  0  0  0  0  0  0  0  0  0  0
  1  2  1  6  0  0  0
  1  5  1  0  0  0  0
  1 30  1  0  0  0  0
  3  4  1  6  0  0  0
  3  7  1  0  0  0  0
  3 35  1  0  0  0  0
  5  6  1  6  0  0  0
  5 16  1  0  0  0  0
  7 19  1  0  0  0  0
  8  4  1  0  0  0  0
  8 25  2  0  0  0  0
  9  8  1  1  0  0  0
  9 10  1  0  0  0  0
  9 13  1  0  0  0  0
 10 11  1  0  0  0  0
 11 12  1  0  0  0  0
 14 15  1  0  0  0  0
 14 36  1  0  0  0  0
 15 17  1  0  0  0  0
 16 18  1  1  0  0  0
 16 26  1  0  0  0  0
 17 23  1  0  0  0  0
 19 20  1  6  0  0  0
 19 28  1  0  0  0  0
 21 22  1  0  0  0  0
 21 23  1  0  0  0  0
 22 24  1  0  0  0  0
 26 27  1  6  0  0  0
 26 29  1  0  0  0  0
 28  2  1  1  0  0  0
 28 31  1  0  0  0  0
 29 30  1  0  0  0  0
 29 33  1  1  0  0  0
 31 32  1  6  0  0  0
 31 35  1  0  0  0  0
 33 34  1  0  0  0  0
 35 36  1  1  0  0  0
M  END
>  <CHROM.1>
-103.09984355,-139.20231485,136.35915120,74.85662735,-68.15793262,-169.51510004
-164.37712755,-104.31137130,158.95859968,-174.19935360,-49.73505712,79.07529102
56.91544567,-50.63891611,24.58464816,25.53840103,7.33427486,-0.43317791,-0.19671398
2.10571630

>  <Name>
2f4u_lig

>  <RI>
0

>  <Rbt.Current_Directory>
/home/itssahil/PROJECTS/Mol_Feturizer/New_Systems/rnas/2f4u

>  <Rbt.Executable>
rbdock ($Id: //depot/dev/client3/rdock/2013.1/src/exe/rbdock.cxx#4 $)

>  <Rbt.Library>
libRbt.so (2013.1, Build901 2013/11/27)

>  <Rbt.Parameter_File>
/export/apps/rDock/src/rDock_2013.1_src/data/scripts/dock_solv.prm

>  <Rbt.Receptor>
prm/blind_docking_100.prm

>  <SCORE>
2.08516

>  <SCORE.INTER>
-0.0936393

>  <SCORE.INTER.CONST>
1

>  <SCORE.INTER.POLAR>
0

>  <SCORE.INTER.ROT>
14

>  <SCORE.INTER.SOLV>
17.8714

>  <SCORE.INTER.VDW>
-18.9529

>  <SCORE.INTER.norm>
-0.00260109

>  <SCORE.INTRA>
-0.884184

>  <SCORE.INTRA.DIHEDRAL>
-10.9813

>  <SCORE.INTRA.DIHEDRAL.0>
26.3805

>  <SCORE.INTRA.POLAR>
0

>  <SCORE.INTRA.POLAR.0>
0

>  <SCORE.INTRA.REPUL>
0

>  <SCORE.INTRA.REPUL.0>
0

>  <SCORE.INTRA.SOLV>
9.1361

>  <SCORE.INTRA.SOLV.lig_0>
-98.5587

>  <SCORE.INTRA.VDW>
0.0384078

>  <SCORE.INTRA.VDW.0>
-2.91167

>  <SCORE.INTRA.norm>
-0.0245607

>  <SCORE.RESTR>
3.06298

>  <SCORE.RESTR.CAVITY>
3.06298

>  <SCORE.RESTR.norm>
0.0850828

>  <SCORE.SYSTEM>
0

>  <SCORE.SYSTEM.CONST>
0

>  <SCORE.SYSTEM.DIHEDRAL>
0

>  <SCORE.SYSTEM.SOLV>
0

>  <SCORE.SYSTEM.norm>
0

>  <SCORE.heavy>
36

>  <SCORE.norm>
0.0579211

>  <RMSD>
25.703

$$$$
2f4u_lig
 OpenBabel11021811433D
libRbt.so/2013.1/901 2013/11/27
 36 37  0  0  0  0  0  0  0  0999 V2000
   20.6673   24.9083    6.4684 C   0  0  2  0  0  0  0  0  0  0  0  0
   21.9744   24.6592    7.1066 O   0  0  0  0  0  0  0  0  0  0  0  0
   26.0599   26.1406    7.0073 C   0  0  2  0  0  0  0  0  0  0  0  0
   27.2339   26.9726    6.6276 N   0  0  0  0  0  0  0  0  0  0  0  0
   20.1319   26.2519    7.0533 C   0  0  2  0  0  0  0  0  0  0  0  0
   21.0475   27.3820    6.8111 N   0  0  0  0  0  0  0  0  0  0  0  0
   25.4385   25.4107    5.7646 C   0  0  0  0  0  0  0  0  0  0  0  0
   28.2168   26.1660    5.3743 C   0  0  0  0  0  0  0  0  0  0  0  0
   29.1636   27.3057    5.5855 C   0  0  1  0  0  0  0  0  0  0  0  0
   30.3500   26.7657    6.3919 C   0  0  0  0  0  0  0  0  0  0  0  0
   31.1858   25.6703    5.7042 C   0  0  0  0  0  0  0  0  0  0  0  0
   32.1915   25.1874    6.6526 N   0  0  0  0  0  0  0  0  0  0  0  0
   29.6581   27.7611    4.3557 O   0  0  0  0  0  0  0  0  0  0  0  0
   26.1159   27.9044   10.0656 C   0  0  0  0  0  0  0  0  0  0  0  0
   24.9395   28.1876   10.9880 C   0  0  0  0  0  0  0  0  0  0  0  0
   19.8931   26.0741    8.5896 C   0  0  1  0  0  0  0  0  0  0  0  0
   24.1858   26.9840   11.3932 N   0  0  0  0  0  0  0  0  0  0  0  0
   19.4123   27.2811    9.1756 O   0  0  0  0  0  0  0  0  0  0  0  0
   24.1900   24.5958    6.1594 C   0  0  2  0  0  0  0  0  0  0  0  0
   23.5869   23.9548    4.9976 N   0  0  0  0  0  0  0  0  0  0  0  0
   22.5699   27.8982   13.0525 C   0  0  0  0  0  0  0  0  0  0  0  0
   22.8903   29.4156   12.9009 C   0  0  0  0  0  0  0  0  0  0  0  0
   22.7443   27.1002   11.7340 C   0  0  0  0  0  0  0  0  0  0  0  0
   23.1147   30.0723   14.2237 N   0  0  0  0  0  0  0  0  0  0  0  0
   28.1550   25.2524    4.8061 O   0  0  0  0  0  0  0  0  0  0  0  0
   18.8968   24.9148    8.7906 C   0  0  2  0  0  0  0  0  0  0  0  0
   18.6192   24.6663   10.1665 O   0  0  0  0  0  0  0  0  0  0  0  0
   23.1516   25.4964    6.7980 C   0  0  2  0  0  0  0  0  0  0  0  0
   19.4208   23.6221    8.1395 C   0  0  2  0  0  0  0  0  0  0  0  0
   19.7290   23.8333    6.7573 O   0  0  0  0  0  0  0  0  0  0  0  0
   23.7629   26.1965    8.0788 C   0  0  2  0  0  0  0  0  0  0  0  0
   22.7472   27.0714    8.6628 O   0  0  0  0  0  0  0  0  0  0  0  0
   18.4276   22.4963    8.2510 C   0  0  0  0  0  0  0  0  0  0  0  0
   17.2889   22.7853    7.5335 O   0  0  0  0  0  0  0  0  0  0  0  0
   25.0152   27.0329    7.6482 C   0  0  1  0  0  0  0  0  0  0  0  0
   25.6071   27.6867    8.7328 O   0  0  0  0  0  0  0  0  0  0  0  0
  1  2  1  1  0  0  0
  1  5  1  0  0  0  0
  1 30  1  0  0  0  0
  3  4  1  6  0  0  0
  3  7  1  0  0  0  0
  3 35  1  0  0  0  0
  5  6  1  1  0  0  0
  5 16  1  0  0  0  0
  7 19  1  0  0  0  0
  8  4  1  0  0  0  0
  8 25  2  0  0  0  0
  9  8  1  6  0  0  0
  9 10  1  0  0  0  0
  9 13  1  0  0  0  0
 10 11  1  0  0  0  0
 11 12  1  0  0  0  0
 14 15  1  0  0  0  0
 14 36  1  0  0  0  0
 15 17  1  0  0  0  0
 16 18  1  6  0  0  0
 16 26  1  0  0  0  0
 17 23  1  0  0  0  0
 19 20  1  6  0  0  0
 19 28  1  0  0  0  0
 21 22  1  0  0  0  0
 21 23  1  0  0  0  0
 22 24  1  0  0  0  0
 26 27  1  1  0  0  0
 26 29  1  0  0  0  0
 28  2  1  1  0  0  0
 28 31  1  0  0  0  0
 29 30  1  0  0  0  0
 29 33  1  6  0  0  0
 31 32  1  6  0  0  0
 31 35  1  0  0  0  0
 33 34  1  0  0  0  0
 35 36  1  1  0  0  0
M  END
>  <CHROM.1>
-69.57285087,-38.10878333,104.86708953,63.01595420,-174.90059417,78.10127458
-78.68589021,-152.17390464,-68.51798388,-162.90983055,70.93352932,-117.00898531
64.98191783,-80.44674746,23.78927847,26.13490117,8.02236518,2.96511565,0.26335469
1.00406580

>  <Name>
2f4u_lig

>  <RI>
0

>  <Rbt.Current_Directory>
/home/itssahil/PROJECTS/Mol_Feturizer/New_Systems/rnas/2f4u

>  <Rbt.Executable>
rbdock ($Id: //depot/dev/client3/rdock/2013.1/src/exe/rbdock.cxx#4 $)

>  <Rbt.Library>
libRbt.so (2013.1, Build901 2013/11/27)

>  <Rbt.Parameter_File>
/export/apps/rDock/src/rDock_2013.1_src/data/scripts/dock_solv.prm

>  <Rbt.Receptor>
prm/blind_docking_100.prm

>  <SCORE>
-8.71897

>  <SCORE.INTER>
-8.62632

>  <SCORE.INTER.CONST>
1

>  <SCORE.INTER.POLAR>
-1.13406

>  <SCORE.INTER.ROT>
14

>  <SCORE.INTER.SOLV>
20.1246

>  <SCORE.INTER.VDW>
-21.6122

>  <SCORE.INTER.norm>
-0.23962

>  <SCORE.INTRA>
-1.47038

>  <SCORE.INTRA.DIHEDRAL>
-9.22595

>  <SCORE.INTRA.DIHEDRAL.0>
26.3805

>  <SCORE.INTRA.POLAR>
0

>  <SCORE.INTRA.POLAR.0>
0

>  <SCORE.INTRA.REPUL>
0

>  <SCORE.INTRA.REPUL.0>
0

>  <SCORE.INTRA.SOLV>
5.45062

>  <SCORE.INTRA.SOLV.lig_0>
-98.5587

>  <SCORE.INTRA.VDW>
0.417288

>  <SCORE.INTRA.VDW.0>
-2.91167

>  <SCORE.INTRA.norm>
-0.0408438

>  <SCORE.RESTR>
1.37773

>  <SCORE.RESTR.CAVITY>
1.37773

>  <SCORE.RESTR.norm>
0.0382702

>  <SCORE.SYSTEM>
0

>  <SCORE.SYSTEM.CONST>
0

>  <SCORE.SYSTEM.DIHEDRAL>
0

>  <SCORE.SYSTEM.SOLV>
0

>  <SCORE.SYSTEM.norm>
0

>  <SCORE.heavy>
36

>  <SCORE.norm>
-0.242194

>  <RMSD>
26.027

$$$$
2f4u_lig
 OpenBabel11021811433D
libRbt.so/2013.1/901 2013/11/27
 36 37  0  0  0  0  0  0  0  0999 V2000
   21.0615   23.9726    7.8271 C   0  0  2  0  0  0  0  0  0  0  0  0
   21.0696   25.3678    7.3461 O   0  0  0  0  0  0  0  0  0  0  0  0
   25.3172   26.2426    7.0506 C   0  0  2  0  0  0  0  0  0  0  0  0
   26.5719   26.9820    6.7444 N   0  0  0  0  0  0  0  0  0  0  0  0
   19.5683   23.5228    7.8721 C   0  0  2  0  0  0  0  0  0  0  0  0
   18.9060   23.6190    6.5581 N   0  0  0  0  0  0  0  0  0  0  0  0
   24.4533   26.0049    5.7620 C   0  0  0  0  0  0  0  0  0  0  0  0
   27.6267   26.0383    5.6561 C   0  0  0  0  0  0  0  0  0  0  0  0
   28.6142   27.1377    5.8925 C   0  0  1  0  0  0  0  0  0  0  0  0
   30.0025   26.5787    5.5616 C   0  0  0  0  0  0  0  0  0  0  0  0
   30.6704   25.7422    6.6686 C   0  0  0  0  0  0  0  0  0  0  0  0
   29.8775   24.5294    6.8786 N   0  0  0  0  0  0  0  0  0  0  0  0
   28.3684   28.2075    5.0211 O   0  0  0  0  0  0  0  0  0  0  0  0
   25.7003   27.6504   10.5181 C   0  0  0  0  0  0  0  0  0  0  0  0
   25.4509   29.1440   10.6652 C   0  0  0  0  0  0  0  0  0  0  0  0
   18.8083   24.3999    8.9217 C   0  0  1  0  0  0  0  0  0  0  0  0
   24.0226   29.5160   10.7169 N   0  0  0  0  0  0  0  0  0  0  0  0
   17.4325   24.0347    8.9934 O   0  0  0  0  0  0  0  0  0  0  0  0
   23.1303   25.2872    6.0984 C   0  0  2  0  0  0  0  0  0  0  0  0
   22.3082   25.1073    4.9084 N   0  0  0  0  0  0  0  0  0  0  0  0
   23.3011   29.3648   13.0952 C   0  0  0  0  0  0  0  0  0  0  0  0
   22.1935   28.8942   14.0852 C   0  0  0  0  0  0  0  0  0  0  0  0
   23.1137   28.8122   11.6582 C   0  0  0  0  0  0  0  0  0  0  0  0
   22.0677   27.4060   14.1135 N   0  0  0  0  0  0  0  0  0  0  0  0
   27.5679   25.0917    5.1443 O   0  0  0  0  0  0  0  0  0  0  0  0
   19.5073   24.2316   10.2856 C   0  0  2  0  0  0  0  0  0  0  0  0
   18.8909   25.0031   11.3135 O   0  0  0  0  0  0  0  0  0  0  0  0
   22.3355   26.0907    7.1083 C   0  0  2  0  0  0  0  0  0  0  0  0
   20.9953   24.6139   10.1904 C   0  0  2  0  0  0  0  0  0  0  0  0
   21.6495   23.8721    9.1551 O   0  0  0  0  0  0  0  0  0  0  0  0
   23.1884   26.2902    8.4264 C   0  0  2  0  0  0  0  0  0  0  0  0
   22.4057   27.0824    9.3740 O   0  0  0  0  0  0  0  0  0  0  0  0
   21.7184   24.3793   11.4897 C   0  0  0  0  0  0  0  0  0  0  0  0
   23.0349   24.0518   11.2562 O   0  0  0  0  0  0  0  0  0  0  0  0
   24.5151   27.0383    8.0613 C   0  0  1  0  0  0  0  0  0  0  0  0
   25.3206   27.2548    9.1832 O   0  0  0  0  0  0  0  0  0  0  0  0
  1  2  1  1  0  0  0
  1  5  1  0  0  0  0
  1 30  1  0  0  0  0
  3  4  1  6  0  0  0
  3  7  1  0  0  0  0
  3 35  1  0  0  0  0
  5  6  1  6  0  0  0
  5 16  1  0  0  0  0
  7 19  1  0  0  0  0
  8  4  1  0  0  0  0
  8 25  2  0  0  0  0
  9  8  1  6  0  0  0
  9 10  1  0  0  0  0
  9 13  1  0  0  0  0
 10 11  1  0  0  0  0
 11 12  1  0  0  0  0
 14 15  1  0  0  0  0
 14 36  1  0  0  0  0
 15 17  1  0  0  0  0
 16 18  1  1  0  0  0
 16 26  1  0  0  0  0
 17 23  1  0  0  0  0
 19 20  1  6  0  0  0
 19 28  1  0  0  0  0
 21 22  1  0  0  0  0
 21 23  1  0  0  0  0
 22 24  1  0  0  0  0
 26 27  1  1  0  0  0
 26 29  1  0  0  0  0
 28  2  1  1  0  0  0
 28 31  1  0  0  0  0
 29 30  1  0  0  0  0
 29 33  1  1  0  0  0
 31 32  1  1  0  0  0
 31 35  1  0  0  0  0
 33 34  1  0  0  0  0
 35 36  1  1  0  0  0
M  END
>  <CHROM.1>
-176.49786646,-63.32088375,158.94381903,-81.43126350,65.19143493,70.98055969
-61.24906150,50.36959866,78.34372614,54.50413249,168.22536111,57.71741416
149.05053121,-171.34834517,23.61514389,26.06890160,8.62294727,2.83448807
0.36646593,1.05152333

>  <Name>
2f4u_lig

>  <RI>
0

>  <Rbt.Current_Directory>
/home/itssahil/PROJECTS/Mol_Feturizer/New_Systems/rnas/2f4u

>  <Rbt.Executable>
rbdock ($Id: //depot/dev/client3/rdock/2013.1/src/exe/rbdock.cxx#4 $)

>  <Rbt.Library>
libRbt.so (2013.1, Build901 2013/11/27)

>  <Rbt.Parameter_File>
/export/apps/rDock/src/rDock_2013.1_src/data/scripts/dock_solv.prm

>  <Rbt.Receptor>
prm/blind_docking_100.prm

>  <SCORE>
-10.0506

>  <SCORE.INTER>
-3.72002

>  <SCORE.INTER.CONST>
1

>  <SCORE.INTER.POLAR>
0

>  <SCORE.INTER.ROT>
14

>  <SCORE.INTER.SOLV>
12.1339

>  <SCORE.INTER.VDW>
-19.458

>  <SCORE.INTER.norm>
-0.103334

>  <SCORE.INTRA>
-7.55702

>  <SCORE.INTRA.DIHEDRAL>
-19.0416

>  <SCORE.INTRA.DIHEDRAL.0>
26.3805

>  <SCORE.INTRA.POLAR>
0

>  <SCORE.INTRA.POLAR.0>
0

>  <SCORE.INTRA.REPUL>
0

>  <SCORE.INTRA.REPUL.0>
0

>  <SCORE.INTRA.SOLV>
5.88122

>  <SCORE.INTRA.SOLV.lig_0>
-98.5587

>  <SCORE.INTRA.VDW>
-0.976852

>  <SCORE.INTRA.VDW.0>
-2.91167

>  <SCORE.INTRA.norm>
-0.209917

>  <SCORE.RESTR>
1.22646

>  <SCORE.RESTR.CAVITY>
1.22646

>  <SCORE.RESTR.norm>
0.0340683

>  <SCORE.SYSTEM>
0

>  <SCORE.SYSTEM.CONST>
0

>  <SCORE.SYSTEM.DIHEDRAL>
0

>  <SCORE.SYSTEM.SOLV>
0

>  <SCORE.SYSTEM.norm>
0

>  <SCORE.heavy>
36

>  <SCORE.norm>
-0.279183

>  <RMSD>
26.167

$$$$
2f4u_lig
 OpenBabel11021811433D
libRbt.so/2013.1/901 2013/11/27
 36 37  0  0  0  0  0  0  0  0999 V2000
   21.8435   27.6548   10.0639 C   0  0  2  0  0  0  0  0  0  0  0  0
   23.2902   27.9442   10.0326 O   0  0  0  0  0  0  0  0  0  0  0  0
   26.2527   26.3793    7.2631 C   0  0  2  0  0  0  0  0  0  0  0  0
   27.2470   25.4498    6.6612 N   0  0  0  0  0  0  0  0  0  0  0  0
   21.2180   28.6115   11.1258 C   0  0  2  0  0  0  0  0  0  0  0  0
   21.4527   30.0341   10.8172 N   0  0  0  0  0  0  0  0  0  0  0  0
   26.6563   26.7978    8.7209 C   0  0  0  0  0  0  0  0  0  0  0  0
   28.8856   26.1582    6.6810 C   0  0  0  0  0  0  0  0  0  0  0  0
   29.2640   24.9478    5.8864 C   0  0  1  0  0  0  0  0  0  0  0  0
   30.4461   25.3428    4.9942 C   0  0  0  0  0  0  0  0  0  0  0  0
   30.1357   26.3596    3.8802 C   0  0  0  0  0  0  0  0  0  0  0  0
   30.0610   27.6950    4.4761 N   0  0  0  0  0  0  0  0  0  0  0  0
   29.6987   23.9233    6.7383 O   0  0  0  0  0  0  0  0  0  0  0  0
   23.8343   24.7568    4.8781 C   0  0  0  0  0  0  0  0  0  0  0  0
   22.5544   25.5617    4.7089 C   0  0  0  0  0  0  0  0  0  0  0  0
   21.8108   28.2622   12.5313 C   0  0  1  0  0  0  0  0  0  0  0  0
   21.4930   25.2201    5.6772 N   0  0  0  0  0  0  0  0  0  0  0  0
   21.2778   29.1182   13.5384 O   0  0  0  0  0  0  0  0  0  0  0  0
   25.5923   27.7164    9.3554 C   0  0  2  0  0  0  0  0  0  0  0  0
   25.9453   28.0680   10.7252 N   0  0  0  0  0  0  0  0  0  0  0  0
   19.2108   25.4425    6.6478 C   0  0  0  0  0  0  0  0  0  0  0  0
   19.4578   25.3608    8.1842 C   0  0  0  0  0  0  0  0  0  0  0  0
   20.3553   26.1540    5.8800 C   0  0  0  0  0  0  0  0  0  0  0  0
   18.2791   24.7974    8.9085 N   0  0  0  0  0  0  0  0  0  0  0  0
   29.3356   27.0669    7.0461 O   0  0  0  0  0  0  0  0  0  0  0  0
   21.5016   26.7815   12.8294 C   0  0  2  0  0  0  0  0  0  0  0  0
   22.0119   26.3610   14.0921 O   0  0  0  0  0  0  0  0  0  0  0  0
   24.2427   27.0269    9.3743 C   0  0  2  0  0  0  0  0  0  0  0  0
   22.0688   25.8698   11.7263 C   0  0  2  0  0  0  0  0  0  0  0  0
   21.5933   26.2698   10.4363 O   0  0  0  0  0  0  0  0  0  0  0  0
   23.8133   26.6470    7.8993 C   0  0  2  0  0  0  0  0  0  0  0  0
   22.5190   25.9685    7.9495 O   0  0  0  0  0  0  0  0  0  0  0  0
   21.7082   24.4258   11.9526 C   0  0  0  0  0  0  0  0  0  0  0  0
   22.3115   23.9519   13.0956 O   0  0  0  0  0  0  0  0  0  0  0  0
   24.8983   25.6986    7.2856 C   0  0  1  0  0  0  0  0  0  0  0  0
   24.5815   25.3159    5.9789 O   0  0  0  0  0  0  0  0  0  0  0  0
  1  2  1  1  0  0  0
  1  5  1  0  0  0  0
  1 30  1  0  0  0  0
  3  4  1  1  0  0  0
  3  7  1  0  0  0  0
  3 35  1  0  0  0  0
  5  6  1  6  0  0  0
  5 16  1  0  0  0  0
  7 19  1  0  0  0  0
  8  4  1  0  0  0  0
  8 25  2  0  0  0  0
  9  8  1  1  0  0  0
  9 10  1  0  0  0  0
  9 13  1  0  0  0  0
 10 11  1  0  0  0  0
 11 12  1  0  0  0  0
 14 15  1  0  0  0  0
 14 36  1  0  0  0  0
 15 17  1  0  0  0  0
 16 18  1  1  0  0  0
 16 26  1  0  0  0  0
 17 23  1  0  0  0  0
 19 20  1  1  0  0  0
 19 28  1  0  0  0  0
 21 22  1  0  0  0  0
 21 23  1  0  0  0  0
 22 24  1  0  0  0  0
 26 27  1  1  0  0  0
 26 29  1  0  0  0  0
 28  2  1  6  0  0  0
 28 31  1  0  0  0  0
 29 30  1  0  0  0  0
 29 33  1  1  0  0  0
 31 32  1  1  0  0  0
 31 35  1  0  0  0  0
 33 34  1  0  0  0  0
 35 36  1  6  0  0  0
M  END
>  <CHROM.1>
165.81073120,-55.89098180,150.98816970,-67.44806622,77.83263630,-78.84370257
64.08766261,163.18002874,165.70987482,174.18473761,79.59301385,172.09692763
-65.54593990,-179.40280312,24.06441179,26.34936975,8.58818148,-2.52041871
-0.11290201,-1.87684330

>  <Name>
2f4u_lig

>  <RI>
0

>  <Rbt.Current_Directory>
/home/itssahil/PROJECTS/Mol_Feturizer/New_Systems/rnas/2f4u

>  <Rbt.Executable>
rbdock ($Id: //depot/dev/client3/rdock/2013.1/src/exe/rbdock.cxx#4 $)

>  <Rbt.Library>
libRbt.so (2013.1, Build901 2013/11/27)

>  <Rbt.Parameter_File>
/export/apps/rDock/src/rDock_2013.1_src/data/scripts/dock_solv.prm

>  <Rbt.Receptor>
prm/blind_docking_100.prm

>  <SCORE>
-2.30368

>  <SCORE.INTER>
3.69959

>  <SCORE.INTER.CONST>
1

>  <SCORE.INTER.POLAR>
0

>  <SCORE.INTER.ROT>
14

>  <SCORE.INTER.SOLV>
12.1249

>  <SCORE.INTER.VDW>
-14.5086

>  <SCORE.INTER.norm>
0.102766

>  <SCORE.INTRA>
-8.65037

>  <SCORE.INTRA.DIHEDRAL>
-19.0311

>  <SCORE.INTRA.DIHEDRAL.0>
26.3805

>  <SCORE.INTRA.POLAR>
0

>  <SCORE.INTRA.POLAR.0>
0

>  <SCORE.INTRA.REPUL>
0

>  <SCORE.INTRA.REPUL.0>
0

>  <SCORE.INTRA.SOLV>
4.62437

>  <SCORE.INTRA.SOLV.lig_0>
-98.5587

>  <SCORE.INTRA.VDW>
-1.44701

>  <SCORE.INTRA.VDW.0>
-2.91167

>  <SCORE.INTRA.norm>
-0.240288

>  <SCORE.RESTR>
2.6471

>  <SCORE.RESTR.CAVITY>
2.6471

>  <SCORE.RESTR.norm>
0.0735307

>  <SCORE.SYSTEM>
0

>  <SCORE.SYSTEM.CONST>
0

>  <SCORE.SYSTEM.DIHEDRAL>
0

>  <SCORE.SYSTEM.SOLV>
0

>  <SCORE.SYSTEM.norm>
0

>  <SCORE.heavy>
36

>  <SCORE.norm>
-0.0639912

>  <RMSD>
26.269

$$$$
2f4u_lig
 OpenBabel11021811433D
libRbt.so/2013.1/901 2013/11/27
 36 37  0  0  0  0  0  0  0  0999 V2000
   21.1743   24.0781    7.8570 C   0  0  2  0  0  0  0  0  0  0  0  0
   21.1535   25.4492    7.3115 O   0  0  0  0  0  0  0  0  0  0  0  0
   25.3820   26.4028    6.9860 C   0  0  2  0  0  0  0  0  0  0  0  0
   26.6211   27.1560    6.6513 N   0  0  0  0  0  0  0  0  0  0  0  0
   19.6913   23.5975    7.9177 C   0  0  2  0  0  0  0  0  0  0  0  0
   19.0330   23.6176    6.5985 N   0  0  0  0  0  0  0  0  0  0  0  0
   24.5263   26.0937    5.7071 C   0  0  0  0  0  0  0  0  0  0  0  0
   27.7120   26.1801    5.6290 C   0  0  0  0  0  0  0  0  0  0  0  0
   28.6686   27.3162    5.8129 C   0  0  1  0  0  0  0  0  0  0  0  0
   29.9878   26.7207    6.3172 C   0  0  0  0  0  0  0  0  0  0  0  0
   30.7235   25.7910    5.3345 C   0  0  0  0  0  0  0  0  0  0  0  0
   31.9194   25.2661    5.9965 N   0  0  0  0  0  0  0  0  0  0  0  0
   28.9261   27.9387    4.5839 O   0  0  0  0  0  0  0  0  0  0  0  0
   25.7183   27.9090   10.4121 C   0  0  0  0  0  0  0  0  0  0  0  0
   24.8135   29.0612   10.8224 C   0  0  0  0  0  0  0  0  0  0  0  0
   18.9073   24.5052    8.9228 C   0  0  1  0  0  0  0  0  0  0  0  0
   23.5006   28.6399   11.3515 N   0  0  0  0  0  0  0  0  0  0  0  0
   17.5396   24.1129    9.0067 O   0  0  0  0  0  0  0  0  0  0  0  0
   23.2183   25.3620    6.0710 C   0  0  2  0  0  0  0  0  0  0  0  0
   22.4029   25.1156    4.8883 N   0  0  0  0  0  0  0  0  0  0  0  0
   21.8859   30.1728   12.4665 C   0  0  0  0  0  0  0  0  0  0  0  0
   22.0539   29.2423   13.7052 C   0  0  0  0  0  0  0  0  0  0  0  0
   22.3100   29.5018   11.1340 C   0  0  0  0  0  0  0  0  0  0  0  0
   23.4912   28.9628   14.0009 N   0  0  0  0  0  0  0  0  0  0  0  0
   27.6831   25.2050    5.1710 O   0  0  0  0  0  0  0  0  0  0  0  0
   19.6038   24.4162   10.2955 C   0  0  2  0  0  0  0  0  0  0  0  0
   18.9658   25.2206   11.2841 O   0  0  0  0  0  0  0  0  0  0  0  0
   22.4042   26.1890    7.0459 C   0  0  2  0  0  0  0  0  0  0  0  0
   21.0833   24.8269   10.1876 C   0  0  2  0  0  0  0  0  0  0  0  0
   21.7585   24.0526    9.1902 O   0  0  0  0  0  0  0  0  0  0  0  0
   23.2496   26.4609    8.3558 C   0  0  2  0  0  0  0  0  0  0  0  0
   22.4479   27.2743    9.2689 O   0  0  0  0  0  0  0  0  0  0  0  0
   21.8056   24.6692   11.4989 C   0  0  0  0  0  0  0  0  0  0  0  0
   21.8069   23.3501   11.8928 O   0  0  0  0  0  0  0  0  0  0  0  0
   24.5607   27.2219    7.9620 C   0  0  1  0  0  0  0  0  0  0  0  0
   25.3588   27.5017    9.0751 O   0  0  0  0  0  0  0  0  0  0  0  0
  1  2  1  1  0  0  0
  1  5  1  0  0  0  0
  1 30  1  0  0  0  0
  3  4  1  6  0  0  0
  3  7  1  0  0  0  0
  3 35  1  0  0  0  0
  5  6  1  6  0  0  0
  5 16  1  0  0  0  0
  7 19  1  0  0  0  0
  8  4  1  0  0  0  0
  8 25  2  0  0  0  0
  9  8  1  6  0  0  0
  9 10  1  0  0  0  0
  9 13  1  0  0  0  0
 10 11  1  0  0  0  0
 11 12  1  0  0  0  0
 14 15  1  0  0  0  0
 14 36  1  0  0  0  0
 15 17  1  0  0  0  0
 16 18  1  1  0  0  0
 16 26  1  0  0  0  0
 17 23  1  0  0  0  0
 19 20  1  6  0  0  0
 19 28  1  0  0  0  0
 21 22  1  0  0  0  0
 21 23  1  0  0  0  0
 22 24  1  0  0  0  0
 26 27  1  1  0  0  0
 26 29  1  0  0  0  0
 28  2  1  1  0  0  0
 28 31  1  0  0  0  0
 29 30  1  0  0  0  0
 29 33  1  1  0  0  0
 31 32  1  1  0  0  0
 31 35  1  0  0  0  0
 33 34  1  0  0  0  0
 35 36  1  1  0  0  0
M  END
>  <CHROM.1>
-176.55758200,-64.36827506,127.42095246,65.23467869,-177.34594534,83.42095641
-36.24763411,-148.20092427,-108.37356972,67.85247174,-37.40113934,58.08025654
62.22559298,-165.12031377,23.64892197,26.23147650,8.54416301,2.81943756,0.37487141
0.96741137

>  <Name>
2f4u_lig

>  <RI>
0

>  <Rbt.Current_Directory>
/home/itssahil/PROJECTS/Mol_Feturizer/New_Systems/rnas/2f4u

>  <Rbt.Executable>
rbdock ($Id: //depot/dev/client3/rdock/2013.1/src/exe/rbdock.cxx#4 $)

>  <Rbt.Library>
libRbt.so (2013.1, Build901 2013/11/27)

>  <Rbt.Parameter_File>
/export/apps/rDock/src/rDock_2013.1_src/data/scripts/dock_solv.prm

>  <Rbt.Receptor>
prm/blind_docking_100.prm

>  <SCORE>
-13.174

>  <SCORE.INTER>
-8.82867

>  <SCORE.INTER.CONST>
1

>  <SCORE.INTER.POLAR>
-1.03923

>  <SCORE.INTER.ROT>
14

>  <SCORE.INTER.SOLV>
16.0211

>  <SCORE.INTER.VDW>
-20.6954

>  <SCORE.INTER.norm>
-0.245241

>  <SCORE.INTRA>
-5.3272

>  <SCORE.INTRA.DIHEDRAL>
-14.7616

>  <SCORE.INTRA.DIHEDRAL.0>
26.3805

>  <SCORE.INTRA.POLAR>
0

>  <SCORE.INTRA.POLAR.0>
0

>  <SCORE.INTRA.REPUL>
0

>  <SCORE.INTRA.REPUL.0>
0

>  <SCORE.INTRA.SOLV>
5.95793

>  <SCORE.INTRA.SOLV.lig_0>
-98.5587

>  <SCORE.INTRA.VDW>
-0.925345

>  <SCORE.INTRA.VDW.0>
-2.91167

>  <SCORE.INTRA.norm>
-0.147978

>  <SCORE.RESTR>
0.981895

>  <SCORE.RESTR.CAVITY>
0.981895

>  <SCORE.RESTR.norm>
0.0272749

>  <SCORE.SYSTEM>
0

>  <SCORE.SYSTEM.CONST>
0

>  <SCORE.SYSTEM.DIHEDRAL>
0

>  <SCORE.SYSTEM.SOLV>
0

>  <SCORE.SYSTEM.norm>
0

>  <SCORE.heavy>
36

>  <SCORE.norm>
-0.365944

>  <RMSD>
26.291

$$$$
2f4u_lig
 OpenBabel11021811433D
libRbt.so/2013.1/901 2013/11/27
 36 37  0  0  0  0  0  0  0  0999 V2000
   20.9662   23.8804    7.9726 C   0  0  2  0  0  0  0  0  0  0  0  0
   21.0693   25.2704    7.4876 O   0  0  0  0  0  0  0  0  0  0  0  0
   25.3580   25.9747    7.4082 C   0  0  2  0  0  0  0  0  0  0  0  0
   26.6646   26.5926    7.0535 N   0  0  0  0  0  0  0  0  0  0  0  0
   19.4974   23.6839    8.4604 C   0  0  2  0  0  0  0  0  0  0  0  0
   18.5071   23.9336    7.3968 N   0  0  0  0  0  0  0  0  0  0  0  0
   24.6084   25.4321    6.1407 C   0  0  0  0  0  0  0  0  0  0  0  0
   26.7251   27.0221    5.3217 C   0  0  0  0  0  0  0  0  0  0  0  0
   28.1547   27.3642    5.6026 C   0  0  1  0  0  0  0  0  0  0  0  0
   28.9647   26.0697    5.4704 C   0  0  0  0  0  0  0  0  0  0  0  0
   28.9676   25.4194    4.0746 C   0  0  0  0  0  0  0  0  0  0  0  0
   29.8926   24.2845    4.0913 N   0  0  0  0  0  0  0  0  0  0  0  0
   28.6362   28.2662    4.6440 O   0  0  0  0  0  0  0  0  0  0  0  0
   25.4898   27.8583   10.5756 C   0  0  0  0  0  0  0  0  0  0  0  0
   24.6122   29.0436   10.9492 C   0  0  0  0  0  0  0  0  0  0  0  0
   19.2360   24.6388    9.6723 C   0  0  1  0  0  0  0  0  0  0  0  0
   23.1935   28.6989   11.1718 N   0  0  0  0  0  0  0  0  0  0  0  0
   17.8998   24.5052   10.1499 O   0  0  0  0  0  0  0  0  0  0  0  0
   23.2319   24.8440    6.5122 C   0  0  2  0  0  0  0  0  0  0  0  0
   22.5169   24.3815    5.3293 N   0  0  0  0  0  0  0  0  0  0  0  0
   22.9865   28.9713   13.6381 C   0  0  0  0  0  0  0  0  0  0  0  0
   22.1048   29.4656   14.8241 C   0  0  0  0  0  0  0  0  0  0  0  0
   22.4318   29.3821   12.2491 C   0  0  0  0  0  0  0  0  0  0  0  0
   22.0446   30.9567   14.8895 N   0  0  0  0  0  0  0  0  0  0  0  0
   26.0471   26.9771    4.4852 O   0  0  0  0  0  0  0  0  0  0  0  0
   20.2632   24.3101   10.7741 C   0  0  2  0  0  0  0  0  0  0  0  0
   20.1129   25.1378   11.9247 O   0  0  0  0  0  0  0  0  0  0  0  0
   22.3801   25.8895    7.2040 C   0  0  2  0  0  0  0  0  0  0  0  0
   21.7011   24.4427   10.2407 C   0  0  2  0  0  0  0  0  0  0  0  0
   21.8899   23.6382    9.0714 O   0  0  0  0  0  0  0  0  0  0  0  0
   23.1145   26.4028    8.5085 C   0  0  2  0  0  0  0  0  0  0  0  0
   22.2802   27.4215    9.1443 O   0  0  0  0  0  0  0  0  0  0  0  0
   22.7210   24.0469   11.2748 C   0  0  0  0  0  0  0  0  0  0  0  0
   22.5236   22.7437   11.6721 O   0  0  0  0  0  0  0  0  0  0  0  0
   24.4986   27.0131    8.1020 C   0  0  1  0  0  0  0  0  0  0  0  0
   25.2048   27.4939    9.2086 O   0  0  0  0  0  0  0  0  0  0  0  0
  1  2  1  1  0  0  0
  1  5  1  0  0  0  0
  1 30  1  0  0  0  0
  3  4  1  6  0  0  0
  3  7  1  0  0  0  0
  3 35  1  0  0  0  0
  5  6  1  6  0  0  0
  5 16  1  0  0  0  0
  7 19  1  0  0  0  0
  8  4  1  0  0  0  0
  8 25  2  0  0  0  0
  9  8  1  6  0  0  0
  9 10  1  0  0  0  0
  9 13  1  0  0  0  0
 10 11  1  0  0  0  0
 11 12  1  0  0  0  0
 14 15  1  0  0  0  0
 14 36  1  0  0  0  0
 15 17  1  0  0  0  0
 16 18  1  1  0  0  0
 16 26  1  0  0  0  0
 17 23  1  0  0  0  0
 19 20  1  6  0  0  0
 19 28  1  0  0  0  0
 21 22  1  0  0  0  0
 21 23  1  0  0  0  0
 22 24  1  0  0  0  0
 26 27  1  1  0  0  0
 26 29  1  0  0  0  0
 28  2  1  1  0  0  0
 28 31  1  0  0  0  0
 29 30  1  0  0  0  0
 29 33  1  1  0  0  0
 31 32  1  6  0  0  0
 31 35  1  0  0  0  0
 33 34  1  0  0  0  0
 35 36  1  1  0  0  0
M  END
>  <CHROM.1>
167.53758855,19.27255246,85.55844016,62.74683757,174.15106116,74.25036110
-68.07317401,142.55113607,-67.14036893,-63.01056865,-170.95613542,41.06506713
59.15504212,-127.45728675,23.49822342,26.15116910,8.70796109,2.56923800,0.51210022
0.92649630

>  <Name>
2f4u_lig

>  <RI>
0

>  <Rbt.Current_Directory>
/home/itssahil/PROJECTS/Mol_Feturizer/New_Systems/rnas/2f4u

>  <Rbt.Executable>
rbdock ($Id: //depot/dev/client3/rdock/2013.1/src/exe/rbdock.cxx#4 $)

>  <Rbt.Library>
libRbt.so (2013.1, Build901 2013/11/27)

>  <Rbt.Parameter_File>
/export/apps/rDock/src/rDock_2013.1_src/data/scripts/dock_solv.prm

>  <Rbt.Receptor>
prm/blind_docking_100.prm

>  <SCORE>
-10.1462

>  <SCORE.INTER>
-8.76934

>  <SCORE.INTER.CONST>
1

>  <SCORE.INTER.POLAR>
-0.999065

>  <SCORE.INTER.ROT>
14

>  <SCORE.INTER.SOLV>
19.1989

>  <SCORE.INTER.VDW>
-21.849

>  <SCORE.INTER.norm>
-0.243593

>  <SCORE.INTRA>
-2.48704

>  <SCORE.INTRA.DIHEDRAL>
-12.2054

>  <SCORE.INTRA.DIHEDRAL.0>
26.3805

>  <SCORE.INTRA.POLAR>
0

>  <SCORE.INTRA.POLAR.0>
0

>  <SCORE.INTRA.REPUL>
0

>  <SCORE.INTRA.REPUL.0>
0

>  <SCORE.INTRA.SOLV>
3.11955

>  <SCORE.INTRA.SOLV.lig_0>
-98.5587

>  <SCORE.INTRA.VDW>
2.05591

>  <SCORE.INTRA.VDW.0>
-2.91167

>  <SCORE.INTRA.norm>
-0.0690844

>  <SCORE.RESTR>
1.11018

>  <SCORE.RESTR.CAVITY>
1.11018

>  <SCORE.RESTR.norm>
0.0308384

>  <SCORE.SYSTEM>
0

>  <SCORE.SYSTEM.CONST>
0

>  <SCORE.SYSTEM.DIHEDRAL>
0

>  <SCORE.SYSTEM.SOLV>
0

>  <SCORE.SYSTEM.norm>
0

>  <SCORE.heavy>
36

>  <SCORE.norm>
-0.281839

>  <RMSD>
26.389

$$$$
2f4u_lig
 OpenBabel11021811433D
libRbt.so/2013.1/901 2013/11/27
 36 37  0  0  0  0  0  0  0  0999 V2000
   27.0123   26.4921    6.6123 C   0  0  2  0  0  0  0  0  0  0  0  0
   26.2875   25.3984    5.9366 O   0  0  0  0  0  0  0  0  0  0  0  0
   22.1719   25.8011    7.2763 C   0  0  2  0  0  0  0  0  0  0  0  0
   20.7587   25.4401    7.5721 N   0  0  0  0  0  0  0  0  0  0  0  0
   27.5048   27.4615    5.4934 C   0  0  2  0  0  0  0  0  0  0  0  0
   26.3985   28.0007    4.6813 N   0  0  0  0  0  0  0  0  0  0  0  0
   22.5089   25.6302    5.7530 C   0  0  0  0  0  0  0  0  0  0  0  0
   19.6646   26.8178    7.2678 C   0  0  0  0  0  0  0  0  0  0  0  0
   18.6140   25.9297    7.8571 C   0  0  1  0  0  0  0  0  0  0  0  0
   18.8084   25.9451    9.3774 C   0  0  0  0  0  0  0  0  0  0  0  0
   19.0840   27.3241   10.0048 C   0  0  0  0  0  0  0  0  0  0  0  0
   17.8195   27.8721   10.4994 N   0  0  0  0  0  0  0  0  0  0  0  0
   17.3375   26.4415    7.5870 O   0  0  0  0  0  0  0  0  0  0  0  0
   21.9864   24.9563   10.6722 C   0  0  0  0  0  0  0  0  0  0  0  0
   21.8250   26.3459   11.2702 C   0  0  0  0  0  0  0  0  0  0  0  0
   28.5215   26.7013    4.5785 C   0  0  1  0  0  0  0  0  0  0  0  0
   23.0433   27.1780   11.2033 N   0  0  0  0  0  0  0  0  0  0  0  0
   28.9947   27.5429    3.5301 O   0  0  0  0  0  0  0  0  0  0  0  0
   23.9894   25.9534    5.4666 C   0  0  2  0  0  0  0  0  0  0  0  0
   24.3131   25.7507    4.0600 N   0  0  0  0  0  0  0  0  0  0  0  0
   24.5796   28.8192   12.2739 C   0  0  0  0  0  0  0  0  0  0  0  0
   25.4199   29.1249   10.9976 C   0  0  0  0  0  0  0  0  0  0  0  0
   23.1048   28.4531   11.9635 C   0  0  0  0  0  0  0  0  0  0  0  0
   25.5409   27.9289   10.1109 N   0  0  0  0  0  0  0  0  0  0  0  0
   19.7663   27.8240    6.8956 O   0  0  0  0  0  0  0  0  0  0  0  0
   29.6801   26.1970    5.4621 C   0  0  2  0  0  0  0  0  0  0  0  0
   30.6611   25.4789    4.7180 O   0  0  0  0  0  0  0  0  0  0  0  0
   24.8942   25.0638    6.2955 C   0  0  2  0  0  0  0  0  0  0  0  0
   29.1538   25.3028    6.5991 C   0  0  2  0  0  0  0  0  0  0  0  0
   28.1508   25.9820    7.3625 O   0  0  0  0  0  0  0  0  0  0  0  0
   24.5874   25.2709    7.8342 C   0  0  2  0  0  0  0  0  0  0  0  0
   25.4603   24.3889    8.6076 O   0  0  0  0  0  0  0  0  0  0  0  0
   30.2577   24.8651    7.5243 C   0  0  0  0  0  0  0  0  0  0  0  0
   30.4297   23.5009    7.4577 O   0  0  0  0  0  0  0  0  0  0  0  0
   23.0853   24.9168    8.1019 C   0  0  1  0  0  0  0  0  0  0  0  0
   22.7420   25.0725    9.4481 O   0  0  0  0  0  0  0  0  0  0  0  0
  1  2  1  6  0  0  0
  1  5  1  0  0  0  0
  1 30  1  0  0  0  0
  3  4  1  6  0  0  0
  3  7  1  0  0  0  0
  3 35  1  0  0  0  0
  5  6  1  6  0  0  0
  5 16  1  0  0  0  0
  7 19  1  0  0  0  0
  8  4  1  0  0  0  0
  8 25  2  0  0  0  0
  9  8  1  6  0  0  0
  9 10  1  0  0  0  0
  9 13  1  0  0  0  0
 10 11  1  0  0  0  0
 11 12  1  0  0  0  0
 14 15  1  0  0  0  0
 14 36  1  0  0  0  0
 15 17  1  0  0  0  0
 16 18  1  6  0  0  0
 16 26  1  0  0  0  0
 17 23  1  0  0  0  0
 19 20  1  6  0  0  0
 19 28  1  0  0  0  0
 21 22  1  0  0  0  0
 21 23  1  0  0  0  0
 22 24  1  0  0  0  0
 26 27  1  6  0  0  0
 26 29  1  0  0  0  0
 28  2  1  1  0  0  0
 28 31  1  0  0  0  0
 29 30  1  0  0  0  0
 29 33  1  1  0  0  0
 31 32  1  1  0  0  0
 31 35  1  0  0  0  0
 33 34  1  0  0  0  0
 35 36  1  1  0  0  0
M  END
>  <CHROM.1>
-124.49907487,-84.47235636,77.17923156,43.33222180,96.09556613,-41.86492887
-129.29364332,-168.89269392,154.75657943,-63.67027730,65.00248356,86.77457905
-114.96777952,72.86364682,24.32050712,26.29672495,7.72927768,0.37341278,0.02246183
-1.76144027

>  <Name>
2f4u_lig

>  <RI>
0

>  <Rbt.Current_Directory>
/home/itssahil/PROJECTS/Mol_Feturizer/New_Systems/rnas/2f4u

>  <Rbt.Executable>
rbdock ($Id: //depot/dev/client3/rdock/2013.1/src/exe/rbdock.cxx#4 $)

>  <Rbt.Library>
libRbt.so (2013.1, Build901 2013/11/27)

>  <Rbt.Parameter_File>
/export/apps/rDock/src/rDock_2013.1_src/data/scripts/dock_solv.prm

>  <Rbt.Receptor>
prm/blind_docking_100.prm

>  <SCORE>
8.2201

>  <SCORE.INTER>
-3.15197

>  <SCORE.INTER.CONST>
1

>  <SCORE.INTER.POLAR>
0

>  <SCORE.INTER.ROT>
14

>  <SCORE.INTER.SOLV>
9.88464

>  <SCORE.INTER.VDW>
-18.3295

>  <SCORE.INTER.norm>
-0.0875548

>  <SCORE.INTRA>
6.94018

>  <SCORE.INTRA.DIHEDRAL>
4.47527

>  <SCORE.INTRA.DIHEDRAL.0>
26.3805

>  <SCORE.INTRA.POLAR>
0

>  <SCORE.INTRA.POLAR.0>
0

>  <SCORE.INTRA.REPUL>
0.166062

>  <SCORE.INTRA.REPUL.0>
0

>  <SCORE.INTRA.SOLV>
9.87423

>  <SCORE.INTRA.SOLV.lig_0>
-98.5587

>  <SCORE.INTRA.VDW>
-1.06488

>  <SCORE.INTRA.VDW.0>
-2.91167

>  <SCORE.INTRA.norm>
0.192783

>  <SCORE.RESTR>
4.43189

>  <SCORE.RESTR.CAVITY>
4.43189

>  <SCORE.RESTR.norm>
0.123108

>  <SCORE.SYSTEM>
0

>  <SCORE.SYSTEM.CONST>
0

>  <SCORE.SYSTEM.DIHEDRAL>
0

>  <SCORE.SYSTEM.SOLV>
0

>  <SCORE.SYSTEM.norm>
0

>  <SCORE.heavy>
36

>  <SCORE.norm>
0.228336

>  <RMSD>
26.518

$$$$
2f4u_lig
 OpenBabel11021811433D
libRbt.so/2013.1/901 2013/11/27
 36 37  0  0  0  0  0  0  0  0999 V2000
   26.8947   26.7678    6.4399 C   0  0  2  0  0  0  0  0  0  0  0  0
   25.9571   25.9710    5.6250 O   0  0  0  0  0  0  0  0  0  0  0  0
   21.6559   25.6869    6.1860 C   0  0  2  0  0  0  0  0  0  0  0  0
   20.3441   25.2073    6.6995 N   0  0  0  0  0  0  0  0  0  0  0  0
   27.5337   27.8228    5.4845 C   0  0  2  0  0  0  0  0  0  0  0  0
   26.5298   28.6973    4.8508 N   0  0  0  0  0  0  0  0  0  0  0  0
   22.4499   24.5433    5.4614 C   0  0  0  0  0  0  0  0  0  0  0  0
   20.5486   24.2426    8.1878 C   0  0  0  0  0  0  0  0  0  0  0  0
   19.0809   23.9836    8.0514 C   0  0  1  0  0  0  0  0  0  0  0  0
   18.8717   22.4725    8.2001 C   0  0  0  0  0  0  0  0  0  0  0  0
   17.4923   21.9404    7.7694 C   0  0  0  0  0  0  0  0  0  0  0  0
   16.4693   22.5610    8.6134 N   0  0  0  0  0  0  0  0  0  0  0  0
   18.3777   24.6137    9.0872 O   0  0  0  0  0  0  0  0  0  0  0  0
   20.6660   27.8281    8.7457 C   0  0  0  0  0  0  0  0  0  0  0  0
   20.7068   27.2769   10.1632 C   0  0  0  0  0  0  0  0  0  0  0  0
   28.3624   27.0745    4.3882 C   0  0  1  0  0  0  0  0  0  0  0  0
   19.9648   28.0887   11.1489 N   0  0  0  0  0  0  0  0  0  0  0  0
   28.9599   27.9965    3.4803 O   0  0  0  0  0  0  0  0  0  0  0  0
   23.8305   25.0360    4.9820 C   0  0  2  0  0  0  0  0  0  0  0  0
   24.5857   23.9617    4.3496 N   0  0  0  0  0  0  0  0  0  0  0  0
   21.3963   29.4457   12.6685 C   0  0  0  0  0  0  0  0  0  0  0  0
   22.7055   29.3316   11.8312 C   0  0  0  0  0  0  0  0  0  0  0  0
   20.4759   28.2040   12.5393 C   0  0  0  0  0  0  0  0  0  0  0  0
   23.4817   28.1027   12.1759 N   0  0  0  0  0  0  0  0  0  0  0  0
   21.3722   23.9520    8.8191 O   0  0  0  0  0  0  0  0  0  0  0  0
   29.4262   26.2108    5.0951 C   0  0  2  0  0  0  0  0  0  0  0  0
   30.2323   25.4777    4.1762 O   0  0  0  0  0  0  0  0  0  0  0  0
   24.6392   25.5612    6.1514 C   0  0  2  0  0  0  0  0  0  0  0  0
   28.7688   25.2311    6.0838 C   0  0  2  0  0  0  0  0  0  0  0  0
   27.9342   25.9271    7.0161 O   0  0  0  0  0  0  0  0  0  0  0  0
   23.8603   26.7463    6.8536 C   0  0  2  0  0  0  0  0  0  0  0  0
   24.6537   27.2204    7.9867 O   0  0  0  0  0  0  0  0  0  0  0  0
   29.7927   24.4339    6.8468 C   0  0  0  0  0  0  0  0  0  0  0  0
   30.6072   25.2693    7.5774 O   0  0  0  0  0  0  0  0  0  0  0  0
   22.4724   26.2154    7.3488 C   0  0  1  0  0  0  0  0  0  0  0  0
   21.7275   27.2115    7.9869 O   0  0  0  0  0  0  0  0  0  0  0  0
  1  2  1  6  0  0  0
  1  5  1  0  0  0  0
  1 30  1  0  0  0  0
  3  4  1  1  0  0  0
  3  7  1  0  0  0  0
  3 35  1  0  0  0  0
  5  6  1  6  0  0  0
  5 16  1  0  0  0  0
  7 19  1  0  0  0  0
  8  4  1  0  0  0  0
  8 25  2  0  0  0  0
  9  8  1  1  0  0  0
  9 10  1  0  0  0  0
  9 13  1  0  0  0  0
 10 11  1  0  0  0  0
 11 12  1  0  0  0  0
 14 15  1  0  0  0  0
 14 36  1  0  0  0  0
 15 17  1  0  0  0  0
 16 18  1  6  0  0  0
 16 26  1  0  0  0  0
 17 23  1  0  0  0  0
 19 20  1  1  0  0  0
 19 28  1  0  0  0  0
 21 22  1  0  0  0  0
 21 23  1  0  0  0  0
 22 24  1  0  0  0  0
 26 27  1  6  0  0  0
 26 29  1  0  0  0  0
 28  2  1  6  0  0  0
 28 31  1  0  0  0  0
 29 30  1  0  0  0  0
 29 33  1  1  0  0  0
 31 32  1  1  0  0  0
 31 35  1  0  0  0  0
 33 34  1  0  0  0  0
 35 36  1  6  0  0  0
M  END
>  <CHROM.1>
-139.47352948,76.61932847,131.16416418,-166.17460041,-61.64735232,162.60362631
64.66812478,-145.11453844,91.91488024,-55.86118197,-65.65549202,167.90270934
60.48865161,66.02820727,23.73532152,26.01348247,7.47988843,-0.23973204,0.34837309
0.83981705

>  <Name>
2f4u_lig

>  <RI>
0

>  <Rbt.Current_Directory>
/home/itssahil/PROJECTS/Mol_Feturizer/New_Systems/rnas/2f4u

>  <Rbt.Executable>
rbdock ($Id: //depot/dev/client3/rdock/2013.1/src/exe/rbdock.cxx#4 $)

>  <Rbt.Library>
libRbt.so (2013.1, Build901 2013/11/27)

>  <Rbt.Parameter_File>
/export/apps/rDock/src/rDock_2013.1_src/data/scripts/dock_solv.prm

>  <Rbt.Receptor>
prm/blind_docking_100.prm

>  <SCORE>
-5.36032

>  <SCORE.INTER>
-2.00794

>  <SCORE.INTER.CONST>
1

>  <SCORE.INTER.POLAR>
0

>  <SCORE.INTER.ROT>
14

>  <SCORE.INTER.SOLV>
15.0758

>  <SCORE.INTER.VDW>
-19.2972

>  <SCORE.INTER.norm>
-0.0557762

>  <SCORE.INTRA>
-5.71314

>  <SCORE.INTRA.DIHEDRAL>
-14.0967

>  <SCORE.INTRA.DIHEDRAL.0>
26.3805

>  <SCORE.INTRA.POLAR>
0

>  <SCORE.INTRA.POLAR.0>
0

>  <SCORE.INTRA.REPUL>
0

>  <SCORE.INTRA.REPUL.0>
0

>  <SCORE.INTRA.SOLV>
5.28779

>  <SCORE.INTRA.SOLV.lig_0>
-98.5587

>  <SCORE.INTRA.VDW>
-1.30868

>  <SCORE.INTRA.VDW.0>
-2.91167

>  <SCORE.INTRA.norm>
-0.158698

>  <SCORE.RESTR>
2.36076

>  <SCORE.RESTR.CAVITY>
2.36076

>  <SCORE.RESTR.norm>
0.0655767

>  <SCORE.SYSTEM>
0

>  <SCORE.SYSTEM.CONST>
0

>  <SCORE.SYSTEM.DIHEDRAL>
0

>  <SCORE.SYSTEM.SOLV>
0

>  <SCORE.SYSTEM.norm>
0

>  <SCORE.heavy>
36

>  <SCORE.norm>
-0.148898

>  <RMSD>
26.557

$$$$
2f4u_lig
 OpenBabel11021811433D
libRbt.so/2013.1/901 2013/11/27
 36 37  0  0  0  0  0  0  0  0999 V2000
   22.4560   25.0869   12.9616 C   0  0  2  0  0  0  0  0  0  0  0  0
   21.9039   25.7573   11.7684 O   0  0  0  0  0  0  0  0  0  0  0  0
   22.9904   26.5950    7.6437 C   0  0  2  0  0  0  0  0  0  0  0  0
   23.7507   26.5550    6.3650 N   0  0  0  0  0  0  0  0  0  0  0  0
   23.6640   24.2281   12.4744 C   0  0  2  0  0  0  0  0  0  0  0  0
   24.7034   25.0352   11.8093 N   0  0  0  0  0  0  0  0  0  0  0  0
   23.8758   27.1157    8.8304 C   0  0  0  0  0  0  0  0  0  0  0  0
   25.2202   25.5530    6.5203 C   0  0  0  0  0  0  0  0  0  0  0  0
   25.5266   26.0410    5.1391 C   0  0  1  0  0  0  0  0  0  0  0  0
   26.3819   27.3047    5.2844 C   0  0  0  0  0  0  0  0  0  0  0  0
   27.8895   27.0738    5.4972 C   0  0  0  0  0  0  0  0  0  0  0  0
   28.0625   25.9811    6.4564 N   0  0  0  0  0  0  0  0  0  0  0  0
   26.2878   25.0905    4.4453 O   0  0  0  0  0  0  0  0  0  0  0  0
   20.6155   24.6381    5.9595 C   0  0  0  0  0  0  0  0  0  0  0  0
   20.0345   26.0253    5.7290 C   0  0  0  0  0  0  0  0  0  0  0  0
   23.1372   23.1229   11.5000 C   0  0  1  0  0  0  0  0  0  0  0  0
   19.0912   26.4671    6.7759 N   0  0  0  0  0  0  0  0  0  0  0  0
   24.2071   22.3150   11.0164 O   0  0  0  0  0  0  0  0  0  0  0  0
   23.0955   27.1009   10.1606 C   0  0  2  0  0  0  0  0  0  0  0  0
   23.9319   27.5414   11.2700 N   0  0  0  0  0  0  0  0  0  0  0  0
   18.5738   26.8726    9.1775 C   0  0  0  0  0  0  0  0  0  0  0  0
   18.6091   25.4615    9.8375 C   0  0  0  0  0  0  0  0  0  0  0  0
   19.6151   27.0439    8.0409 C   0  0  0  0  0  0  0  0  0  0  0  0
   18.2944   24.3798    8.8565 N   0  0  0  0  0  0  0  0  0  0  0  0
   25.6719   24.9492    7.2902 O   0  0  0  0  0  0  0  0  0  0  0  0
   22.0894   22.2781   12.2521 C   0  0  2  0  0  0  0  0  0  0  0  0
   21.5393   21.2428   11.4414 O   0  0  0  0  0  0  0  0  0  0  0  0
   22.5988   25.7019   10.4661 C   0  0  2  0  0  0  0  0  0  0  0  0
   20.9482   23.1646   12.7826 C   0  0  2  0  0  0  0  0  0  0  0  0
   21.4605   24.2304   13.5900 O   0  0  0  0  0  0  0  0  0  0  0  0
   21.6673   25.1946    9.2916 C   0  0  2  0  0  0  0  0  0  0  0  0
   21.2183   23.8384    9.6037 O   0  0  0  0  0  0  0  0  0  0  0  0
   19.9547   22.3744   13.5916 C   0  0  0  0  0  0  0  0  0  0  0  0
   18.6790   22.8488   13.3849 O   0  0  0  0  0  0  0  0  0  0  0  0
   22.4883   25.1995    7.9577 C   0  0  1  0  0  0  0  0  0  0  0  0
   21.7272   24.7561    6.8721 O   0  0  0  0  0  0  0  0  0  0  0  0
  1  2  1  6  0  0  0
  1  5  1  0  0  0  0
  1 30  1  0  0  0  0
  3  4  1  6  0  0  0
  3  7  1  0  0  0  0
  3 35  1  0  0  0  0
  5  6  1  6  0  0  0
  5 16  1  0  0  0  0
  7 19  1  0  0  0  0
  8  4  1  0  0  0  0
  8 25  2  0  0  0  0
  9  8  1  1  0  0  0
  9 10  1  0  0  0  0
  9 13  1  0  0  0  0
 10 11  1  0  0  0  0
 11 12  1  0  0  0  0
 14 15  1  0  0  0  0
 14 36  1  0  0  0  0
 15 17  1  0  0  0  0
 16 18  1  1  0  0  0
 16 26  1  0  0  0  0
 17 23  1  0  0  0  0
 19 20  1  1  0  0  0
 19 28  1  0  0  0  0
 21 22  1  0  0  0  0
 21 23  1  0  0  0  0
 22 24  1  0  0  0  0
 26 27  1  6  0  0  0
 26 29  1  0  0  0  0
 28  2  1  1  0  0  0
 28 31  1  0  0  0  0
 29 30  1  0  0  0  0
 29 33  1  1  0  0  0
 31 32  1  1  0  0  0
 31 35  1  0  0  0  0
 33 34  1  0  0  0  0
 35 36  1  6  0  0  0
M  END
>  <CHROM.1>
-8.41262297,56.54767538,91.98081475,82.99649093,-42.82897227,-82.71633699
38.94937817,81.88364348,-155.92187492,-61.46888086,82.06544362,-111.96453927
-143.99842290,-73.94244558,22.53761272,25.07616247,9.23695922,-2.19656928
0.01509041,-1.16886628

>  <Name>
2f4u_lig

>  <RI>
0

>  <Rbt.Current_Directory>
/home/itssahil/PROJECTS/Mol_Feturizer/New_Systems/rnas/2f4u

>  <Rbt.Executable>
rbdock ($Id: //depot/dev/client3/rdock/2013.1/src/exe/rbdock.cxx#4 $)

>  <Rbt.Library>
libRbt.so (2013.1, Build901 2013/11/27)

>  <Rbt.Parameter_File>
/export/apps/rDock/src/rDock_2013.1_src/data/scripts/dock_solv.prm

>  <Rbt.Receptor>
prm/blind_docking_40.prm

>  <SCORE>
12.7568

>  <SCORE.INTER>
-0.806875

>  <SCORE.INTER.CONST>
1

>  <SCORE.INTER.POLAR>
0

>  <SCORE.INTER.ROT>
14

>  <SCORE.INTER.SOLV>
12.1626

>  <SCORE.INTER.VDW>
-17.5255

>  <SCORE.INTER.norm>
-0.0224132

>  <SCORE.INTRA>
10.588

>  <SCORE.INTRA.DIHEDRAL>
2.38714

>  <SCORE.INTRA.DIHEDRAL.0>
26.3805

>  <SCORE.INTRA.POLAR>
0

>  <SCORE.INTRA.POLAR.0>
0

>  <SCORE.INTRA.REPUL>
0

>  <SCORE.INTRA.REPUL.0>
0

>  <SCORE.INTRA.SOLV>
17.1676

>  <SCORE.INTRA.SOLV.lig_0>
-98.5587

>  <SCORE.INTRA.VDW>
0.81058

>  <SCORE.INTRA.VDW.0>
-2.91167

>  <SCORE.INTRA.norm>
0.29411

>  <SCORE.RESTR>
2.97571

>  <SCORE.RESTR.CAVITY>
2.97571

>  <SCORE.RESTR.norm>
0.0826587

>  <SCORE.SYSTEM>
0

>  <SCORE.SYSTEM.CONST>
0

>  <SCORE.SYSTEM.DIHEDRAL>
0

>  <SCORE.SYSTEM.SOLV>
0

>  <SCORE.SYSTEM.norm>
0

>  <SCORE.heavy>
36

>  <SCORE.norm>
0.354356

>  <RMSD>
26.579

$$$$
2f4u_lig
 OpenBabel11021811433D
libRbt.so/2013.1/901 2013/11/27
 36 37  0  0  0  0  0  0  0  0999 V2000
   22.6029   25.0460   12.9642 C   0  0  2  0  0  0  0  0  0  0  0  0
   22.1434   25.6307   11.6895 O   0  0  0  0  0  0  0  0  0  0  0  0
   23.8635   26.9970    7.9385 C   0  0  2  0  0  0  0  0  0  0  0  0
   24.8315   27.1405    6.8172 N   0  0  0  0  0  0  0  0  0  0  0  0
   22.7854   23.5166   12.7157 C   0  0  2  0  0  0  0  0  0  0  0  0
   23.7497   23.2271   11.6385 N   0  0  0  0  0  0  0  0  0  0  0  0
   24.5006   27.4082    9.3126 C   0  0  0  0  0  0  0  0  0  0  0  0
   25.9636   25.7611    6.7630 C   0  0  0  0  0  0  0  0  0  0  0  0
   26.6440   26.5455    5.6853 C   0  0  1  0  0  0  0  0  0  0  0  0
   27.9453   25.8113    5.3433 C   0  0  0  0  0  0  0  0  0  0  0  0
   28.7540   26.3911    4.1680 C   0  0  0  0  0  0  0  0  0  0  0  0
   29.0152   27.8067    4.4357 N   0  0  0  0  0  0  0  0  0  0  0  0
   25.8533   26.5693    4.5283 O   0  0  0  0  0  0  0  0  0  0  0  0
   22.8093   24.8934    5.3524 C   0  0  0  0  0  0  0  0  0  0  0  0
   21.3495   24.8557    4.9254 C   0  0  0  0  0  0  0  0  0  0  0  0
   21.3927   22.8914   12.3719 C   0  0  1  0  0  0  0  0  0  0  0  0
   20.3906   24.8723    6.0485 N   0  0  0  0  0  0  0  0  0  0  0  0
   21.5070   21.4924   12.1246 O   0  0  0  0  0  0  0  0  0  0  0  0
   23.5075   27.2035   10.4748 C   0  0  2  0  0  0  0  0  0  0  0  0
   24.1145   27.5424   11.7558 N   0  0  0  0  0  0  0  0  0  0  0  0
   18.6297   26.0127    7.3896 C   0  0  0  0  0  0  0  0  0  0  0  0
   18.7636   25.2972    8.7674 C   0  0  0  0  0  0  0  0  0  0  0  0
   19.9820   26.1696    6.6464 C   0  0  0  0  0  0  0  0  0  0  0  0
   19.0687   26.2604    9.8677 N   0  0  0  0  0  0  0  0  0  0  0  0
   26.0988   24.8440    7.3126 O   0  0  0  0  0  0  0  0  0  0  0  0
   20.4335   23.1794   13.5442 C   0  0  2  0  0  0  0  0  0  0  0  0
   19.1271   22.6545   13.3217 O   0  0  0  0  0  0  0  0  0  0  0  0
   23.0519   25.7590   10.5319 C   0  0  2  0  0  0  0  0  0  0  0  0
   20.3317   24.6920   13.8108 C   0  0  2  0  0  0  0  0  0  0  0  0
   21.6274   25.2631   14.0228 O   0  0  0  0  0  0  0  0  0  0  0  0
   22.3667   25.3577    9.1630 C   0  0  2  0  0  0  0  0  0  0  0  0
   21.9543   23.9570    9.2398 O   0  0  0  0  0  0  0  0  0  0  0  0
   19.4648   24.9934   15.0040 C   0  0  0  0  0  0  0  0  0  0  0  0
   19.6169   26.3058   15.3910 O   0  0  0  0  0  0  0  0  0  0  0  0
   23.4009   25.5548    8.0034 C   0  0  1  0  0  0  0  0  0  0  0  0
   22.8642   25.2132    6.7586 O   0  0  0  0  0  0  0  0  0  0  0  0
  1  2  1  6  0  0  0
  1  5  1  0  0  0  0
  1 30  1  0  0  0  0
  3  4  1  6  0  0  0
  3  7  1  0  0  0  0
  3 35  1  0  0  0  0
  5  6  1  6  0  0  0
  5 16  1  0  0  0  0
  7 19  1  0  0  0  0
  8  4  1  0  0  0  0
  8 25  2  0  0  0  0
  9  8  1  1  0  0  0
  9 10  1  0  0  0  0
  9 13  1  0  0  0  0
 10 11  1  0  0  0  0
 11 12  1  0  0  0  0
 14 15  1  0  0  0  0
 14 36  1  0  0  0  0
 15 17  1  0  0  0  0
 16 18  1  1  0  0  0
 16 26  1  0  0  0  0
 17 23  1  0  0  0  0
 19 20  1  1  0  0  0
 19 28  1  0  0  0  0
 21 22  1  0  0  0  0
 21 23  1  0  0  0  0
 22 24  1  0  0  0  0
 26 27  1  6  0  0  0
 26 29  1  0  0  0  0
 28  2  1  1  0  0  0
 28 31  1  0  0  0  0
 29 30  1  0  0  0  0
 29 33  1  1  0  0  0
 31 32  1  1  0  0  0
 31 35  1  0  0  0  0
 33 34  1  0  0  0  0
 35 36  1  6  0  0  0
M  END
>  <CHROM.1>
-71.40940207,79.22127056,172.67333466,175.24437680,54.86628899,-11.67944850
-171.03010712,84.71224011,158.46402204,87.46136881,76.26919835,-101.45619735
167.20928872,70.56799853,22.76297381,25.34247760,9.35046174,-2.19534939,-0.17515151
-1.45163687

>  <Name>
2f4u_lig

>  <RI>
0

>  <Rbt.Current_Directory>
/home/itssahil/PROJECTS/Mol_Feturizer/New_Systems/rnas/2f4u

>  <Rbt.Executable>
rbdock ($Id: //depot/dev/client3/rdock/2013.1/src/exe/rbdock.cxx#4 $)

>  <Rbt.Library>
libRbt.so (2013.1, Build901 2013/11/27)

>  <Rbt.Parameter_File>
/export/apps/rDock/src/rDock_2013.1_src/data/scripts/dock_solv.prm

>  <Rbt.Receptor>
prm/blind_docking_40.prm

>  <SCORE>
3.27093

>  <SCORE.INTER>
-0.818401

>  <SCORE.INTER.CONST>
1

>  <SCORE.INTER.POLAR>
0

>  <SCORE.INTER.ROT>
14

>  <SCORE.INTER.SOLV>
10.5142

>  <SCORE.INTER.VDW>
-16.9837

>  <SCORE.INTER.norm>
-0.0227334

>  <SCORE.INTRA>
-1.64572

>  <SCORE.INTRA.DIHEDRAL>
-8.20593

>  <SCORE.INTRA.DIHEDRAL.0>
26.3805

>  <SCORE.INTRA.POLAR>
0

>  <SCORE.INTRA.POLAR.0>
0

>  <SCORE.INTRA.REPUL>
0

>  <SCORE.INTRA.REPUL.0>
0

>  <SCORE.INTRA.SOLV>
9.38026

>  <SCORE.INTRA.SOLV.lig_0>
-98.5587

>  <SCORE.INTRA.VDW>
-2.23288

>  <SCORE.INTRA.VDW.0>
-2.91167

>  <SCORE.INTRA.norm>
-0.0457144

>  <SCORE.RESTR>
5.73505

>  <SCORE.RESTR.CAVITY>
5.73505

>  <SCORE.RESTR.norm>
0.159307

>  <SCORE.SYSTEM>
0

>  <SCORE.SYSTEM.CONST>
0

>  <SCORE.SYSTEM.DIHEDRAL>
0

>  <SCORE.SYSTEM.SOLV>
0

>  <SCORE.SYSTEM.norm>
0

>  <SCORE.heavy>
36

>  <SCORE.norm>
0.0908593

>  <RMSD>
26.624

$$$$
2f4u_lig
 OpenBabel11021811433D
libRbt.so/2013.1/901 2013/11/27
 36 37  0  0  0  0  0  0  0  0999 V2000
   24.5464   26.6526    5.3040 C   0  0  2  0  0  0  0  0  0  0  0  0
   23.9705   25.3661    5.7413 O   0  0  0  0  0  0  0  0  0  0  0  0
   21.5548   26.3094    9.2298 C   0  0  2  0  0  0  0  0  0  0  0  0
   20.8216   26.1234   10.5115 N   0  0  0  0  0  0  0  0  0  0  0  0
   24.8630   26.5079    3.7832 C   0  0  2  0  0  0  0  0  0  0  0  0
   23.6690   26.1790    2.9830 N   0  0  0  0  0  0  0  0  0  0  0  0
   21.0071   25.3627    8.1042 C   0  0  0  0  0  0  0  0  0  0  0  0
   20.9847   24.4493   11.1099 C   0  0  0  0  0  0  0  0  0  0  0  0
   20.0051   24.8792   12.1565 C   0  0  1  0  0  0  0  0  0  0  0  0
   19.5531   23.6173   12.8998 C   0  0  0  0  0  0  0  0  0  0  0  0
   20.6762   22.7636   13.5172 C   0  0  0  0  0  0  0  0  0  0  0  0
   21.1490   21.8149   12.5071 N   0  0  0  0  0  0  0  0  0  0  0  0
   20.6274   25.7210   13.0883 O   0  0  0  0  0  0  0  0  0  0  0  0
   23.6974   27.3693   11.8199 C   0  0  0  0  0  0  0  0  0  0  0  0
   23.9659   28.8641   11.7286 C   0  0  0  0  0  0  0  0  0  0  0  0
   25.9547   25.4023    3.5978 C   0  0  1  0  0  0  0  0  0  0  0  0
   22.8316   29.6509   11.2038 N   0  0  0  0  0  0  0  0  0  0  0  0
   26.2726   25.2231    2.2201 O   0  0  0  0  0  0  0  0  0  0  0  0
   21.8092   25.5235    6.7968 C   0  0  2  0  0  0  0  0  0  0  0  0
   21.3295   24.6119    5.7657 N   0  0  0  0  0  0  0  0  0  0  0  0
   20.3738   29.9062   11.5106 C   0  0  0  0  0  0  0  0  0  0  0  0
   19.7970   28.4847   11.7844 C   0  0  0  0  0  0  0  0  0  0  0  0
   21.7764   30.1290   12.1342 C   0  0  0  0  0  0  0  0  0  0  0  0
   18.4896   28.2718   11.0939 N   0  0  0  0  0  0  0  0  0  0  0  0
   21.5032   23.5583   10.7959 O   0  0  0  0  0  0  0  0  0  0  0  0
   27.1973   25.8115    4.4138 C   0  0  2  0  0  0  0  0  0  0  0  0
   28.2521   24.8577    4.3167 O   0  0  0  0  0  0  0  0  0  0  0  0
   23.2776   25.2366    7.0394 C   0  0  2  0  0  0  0  0  0  0  0  0
   26.8369   26.0171    5.8961 C   0  0  2  0  0  0  0  0  0  0  0  0
   25.7665   26.9575    6.0373 O   0  0  0  0  0  0  0  0  0  0  0  0
   23.8425   26.2228    8.1407 C   0  0  2  0  0  0  0  0  0  0  0  0
   25.2532   25.9118    8.3671 O   0  0  0  0  0  0  0  0  0  0  0  0
   28.0168   26.4973    6.6982 C   0  0  0  0  0  0  0  0  0  0  0  0
   28.6726   27.5083    6.0327 O   0  0  0  0  0  0  0  0  0  0  0  0
   23.0256   26.0253    9.4624 C   0  0  1  0  0  0  0  0  0  0  0  0
   23.4745   26.8645   10.4864 O   0  0  0  0  0  0  0  0  0  0  0  0
  1  2  1  1  0  0  0
  1  5  1  0  0  0  0
  1 30  1  0  0  0  0
  3  4  1  1  0  0  0
  3  7  1  0  0  0  0
  3 35  1  0  0  0  0
  5  6  1  6  0  0  0
  5 16  1  0  0  0  0
  7 19  1  0  0  0  0
  8  4  1  0  0  0  0
  8 25  2  0  0  0  0
  9  8  1  6  0  0  0
  9 10  1  0  0  0  0
  9 13  1  0  0  0  0
 10 11  1  0  0  0  0
 11 12  1  0  0  0  0
 14 15  1  0  0  0  0
 14 36  1  0  0  0  0
 15 17  1  0  0  0  0
 16 18  1  6  0  0  0
 16 26  1  0  0  0  0
 17 23  1  0  0  0  0
 19 20  1  6  0  0  0
 19 28  1  0  0  0  0
 21 22  1  0  0  0  0
 21 23  1  0  0  0  0
 22 24  1  0  0  0  0
 26 27  1  1  0  0  0
 26 29  1  0  0  0  0
 28  2  1  6  0  0  0
 28 31  1  0  0  0  0
 29 30  1  0  0  0  0
 29 33  1  1  0  0  0
 31 32  1  1  0  0  0
 31 35  1  0  0  0  0
 33 34  1  0  0  0  0
 35 36  1  1  0  0  0
M  END
>  <CHROM.1>
-166.12692310,60.47253493,169.69932169,55.65020892,-87.65177388,63.25214657
-157.23444556,86.45042675,-136.36093911,-176.13020635,86.23230418,90.77869424
45.51294511,78.66337321,23.24220086,26.12910436,8.55079292,-0.49517675,0.81957150
0.61588987

>  <Name>
2f4u_lig

>  <RI>
0

>  <Rbt.Current_Directory>
/home/itssahil/PROJECTS/Mol_Feturizer/New_Systems/rnas/2f4u

>  <Rbt.Executable>
rbdock ($Id: //depot/dev/client3/rdock/2013.1/src/exe/rbdock.cxx#4 $)

>  <Rbt.Library>
libRbt.so (2013.1, Build901 2013/11/27)

>  <Rbt.Parameter_File>
/export/apps/rDock/src/rDock_2013.1_src/data/scripts/dock_solv.prm

>  <Rbt.Receptor>
prm/blind_docking_40.prm

>  <SCORE>
10.114

>  <SCORE.INTER>
3.12499

>  <SCORE.INTER.CONST>
1

>  <SCORE.INTER.POLAR>
0

>  <SCORE.INTER.ROT>
14

>  <SCORE.INTER.SOLV>
16.1153

>  <SCORE.INTER.VDW>
-16.2218

>  <SCORE.INTER.norm>
0.0868052

>  <SCORE.INTRA>
-1.49519

>  <SCORE.INTRA.DIHEDRAL>
-9.9943

>  <SCORE.INTRA.DIHEDRAL.0>
26.3805

>  <SCORE.INTRA.POLAR>
0

>  <SCORE.INTRA.POLAR.0>
0

>  <SCORE.INTRA.REPUL>
0

>  <SCORE.INTRA.REPUL.0>
0

>  <SCORE.INTRA.SOLV>
8.18208

>  <SCORE.INTRA.SOLV.lig_0>
-98.5587

>  <SCORE.INTRA.VDW>
-0.589083

>  <SCORE.INTRA.VDW.0>
-2.91167

>  <SCORE.INTRA.norm>
-0.0415332

>  <SCORE.RESTR>
8.48422

>  <SCORE.RESTR.CAVITY>
8.48422

>  <SCORE.RESTR.norm>
0.235673

>  <SCORE.SYSTEM>
0

>  <SCORE.SYSTEM.CONST>
0

>  <SCORE.SYSTEM.DIHEDRAL>
0

>  <SCORE.SYSTEM.SOLV>
0

>  <SCORE.SYSTEM.norm>
0

>  <SCORE.heavy>
36

>  <SCORE.norm>
0.280945

>  <RMSD>
26.729

$$$$
2f4u_lig
 OpenBabel11021811433D
libRbt.so/2013.1/901 2013/11/27
 36 37  0  0  0  0  0  0  0  0999 V2000
   22.2201   22.6924   12.2684 C   0  0  2  0  0  0  0  0  0  0  0  0
   21.4242   22.9062   11.0441 O   0  0  0  0  0  0  0  0  0  0  0  0
   23.6912   25.9309    8.8977 C   0  0  2  0  0  0  0  0  0  0  0  0
   24.1902   26.7607    7.7676 N   0  0  0  0  0  0  0  0  0  0  0  0
   21.2381   22.8366   13.4721 C   0  0  2  0  0  0  0  0  0  0  0  0
   20.1193   21.8781   13.4106 N   0  0  0  0  0  0  0  0  0  0  0  0
   23.9636   24.4033    8.6618 C   0  0  0  0  0  0  0  0  0  0  0  0
   25.6087   26.0048    6.9905 C   0  0  0  0  0  0  0  0  0  0  0  0
   25.6703   27.2719    6.1964 C   0  0  1  0  0  0  0  0  0  0  0  0
   27.0909   27.3841    5.6318 C   0  0  0  0  0  0  0  0  0  0  0  0
   27.3920   26.5170    4.3953 C   0  0  0  0  0  0  0  0  0  0  0  0
   27.3149   25.1076    4.7848 N   0  0  0  0  0  0  0  0  0  0  0  0
   24.7857   27.2089    5.1112 O   0  0  0  0  0  0  0  0  0  0  0  0
   21.4840   28.7598    9.8039 C   0  0  0  0  0  0  0  0  0  0  0  0
   19.9988   28.5810   10.0815 C   0  0  0  0  0  0  0  0  0  0  0  0
   20.6888   24.3016   13.5028 C   0  0  1  0  0  0  0  0  0  0  0  0
   19.3391   27.5794    9.2197 N   0  0  0  0  0  0  0  0  0  0  0  0
   19.7754   24.4830   14.5817 O   0  0  0  0  0  0  0  0  0  0  0  0
   23.3938   23.5480    9.8118 C   0  0  2  0  0  0  0  0  0  0  0  0
   23.6069   22.1266    9.5702 N   0  0  0  0  0  0  0  0  0  0  0  0
   18.7180   26.5600    7.0346 C   0  0  0  0  0  0  0  0  0  0  0  0
   18.7089   25.1000    7.5792 C   0  0  0  0  0  0  0  0  0  0  0  0
   19.7099   27.4875    7.7839 C   0  0  0  0  0  0  0  0  0  0  0  0
   20.0198   24.4171    7.3637 N   0  0  0  0  0  0  0  0  0  0  0  0
   26.1675   25.0914    7.1124 O   0  0  0  0  0  0  0  0  0  0  0  0
   21.8890   25.2631   13.6135 C   0  0  2  0  0  0  0  0  0  0  0  0
   21.4911   26.6316   13.6397 O   0  0  0  0  0  0  0  0  0  0  0  0
   21.9045   23.7871    9.9601 C   0  0  2  0  0  0  0  0  0  0  0  0
   22.8750   25.0458   12.4516 C   0  0  2  0  0  0  0  0  0  0  0  0
   23.2873   23.6765   12.3789 O   0  0  0  0  0  0  0  0  0  0  0  0
   21.6326   25.3198   10.2452 C   0  0  2  0  0  0  0  0  0  0  0  0
   20.1897   25.5240   10.3653 O   0  0  0  0  0  0  0  0  0  0  0  0
   24.0962   25.9163   12.5828 C   0  0  0  0  0  0  0  0  0  0  0  0
   23.7547   27.2453   12.4725 O   0  0  0  0  0  0  0  0  0  0  0  0
   22.2015   26.1638    9.0548 C   0  0  1  0  0  0  0  0  0  0  0  0
   21.9918   27.5340    9.2363 O   0  0  0  0  0  0  0  0  0  0  0  0
  1  2  1  6  0  0  0
  1  5  1  0  0  0  0
  1 30  1  0  0  0  0
  3  4  1  6  0  0  0
  3  7  1  0  0  0  0
  3 35  1  0  0  0  0
  5  6  1  6  0  0  0
  5 16  1  0  0  0  0
  7 19  1  0  0  0  0
  8  4  1  0  0  0  0
  8 25  2  0  0  0  0
  9  8  1  6  0  0  0
  9 10  1  0  0  0  0
  9 13  1  0  0  0  0
 10 11  1  0  0  0  0
 11 12  1  0  0  0  0
 14 15  1  0  0  0  0
 14 36  1  0  0  0  0
 15 17  1  0  0  0  0
 16 18  1  1  0  0  0
 16 26  1  0  0  0  0
 17 23  1  0  0  0  0
 19 20  1  6  0  0  0
 19 28  1  0  0  0  0
 21 22  1  0  0  0  0
 21 23  1  0  0  0  0
 22 24  1  0  0  0  0
 26 27  1  6  0  0  0
 26 29  1  0  0  0  0
 28  2  1  1  0  0  0
 28 31  1  0  0  0  0
 29 30  1  0  0  0  0
 29 33  1  1  0  0  0
 31 32  1  6  0  0  0
 31 35  1  0  0  0  0
 33 34  1  0  0  0  0
 35 36  1  1  0  0  0
M  END
>  <CHROM.1>
133.81136671,-30.15809533,160.01284244,78.49515818,-65.34617050,-26.10589768
-43.79798329,-39.15601762,-169.69934064,-64.61160700,-61.06307409,39.85674536
-65.17773818,-132.51129000,22.53429503,25.49151668,9.68827837,-2.19462771
0.34626280,-1.04410919

>  <Name>
2f4u_lig

>  <RI>
0

>  <Rbt.Current_Directory>
/home/itssahil/PROJECTS/Mol_Feturizer/New_Systems/rnas/2f4u

>  <Rbt.Executable>
rbdock ($Id: //depot/dev/client3/rdock/2013.1/src/exe/rbdock.cxx#4 $)

>  <Rbt.Library>
libRbt.so (2013.1, Build901 2013/11/27)

>  <Rbt.Parameter_File>
/export/apps/rDock/src/rDock_2013.1_src/data/scripts/dock_solv.prm

>  <Rbt.Receptor>
prm/blind_docking_40.prm

>  <SCORE>
25.8165

>  <SCORE.INTER>
9.4307

>  <SCORE.INTER.CONST>
1

>  <SCORE.INTER.POLAR>
0

>  <SCORE.INTER.ROT>
14

>  <SCORE.INTER.SOLV>
23.324

>  <SCORE.INTER.VDW>
-14.4209

>  <SCORE.INTER.norm>
0.261964

>  <SCORE.INTRA>
13.7271

>  <SCORE.INTRA.DIHEDRAL>
-3.756

>  <SCORE.INTRA.DIHEDRAL.0>
26.3805

>  <SCORE.INTRA.POLAR>
0

>  <SCORE.INTRA.POLAR.0>
0

>  <SCORE.INTRA.REPUL>
0.0512846

>  <SCORE.INTRA.REPUL.0>
0

>  <SCORE.INTRA.SOLV>
14.5212

>  <SCORE.INTRA.SOLV.lig_0>
-98.5587

>  <SCORE.INTRA.VDW>
8.08808

>  <SCORE.INTRA.VDW.0>
-2.91167

>  <SCORE.INTRA.norm>
0.381309

>  <SCORE.RESTR>
2.65868

>  <SCORE.RESTR.CAVITY>
2.65868

>  <SCORE.RESTR.norm>
0.0738523

>  <SCORE.SYSTEM>
0

>  <SCORE.SYSTEM.CONST>
0

>  <SCORE.SYSTEM.DIHEDRAL>
0

>  <SCORE.SYSTEM.SOLV>
0

>  <SCORE.SYSTEM.norm>
0

>  <SCORE.heavy>
36

>  <SCORE.norm>
0.717125

>  <RMSD>
26.820

$$$$
2f4u_lig
 OpenBabel11021811433D
libRbt.so/2013.1/901 2013/11/27
 36 37  0  0  0  0  0  0  0  0999 V2000
   26.3889   25.6428    7.3181 C   0  0  2  0  0  0  0  0  0  0  0  0
   25.9439   27.0476    7.3970 O   0  0  0  0  0  0  0  0  0  0  0  0
   22.8630   26.9304   10.4612 C   0  0  2  0  0  0  0  0  0  0  0  0
   21.7650   27.3896   11.3548 N   0  0  0  0  0  0  0  0  0  0  0  0
   27.7191   25.6392    6.5030 C   0  0  2  0  0  0  0  0  0  0  0  0
   28.7647   26.4774    7.1181 N   0  0  0  0  0  0  0  0  0  0  0  0
   24.1711   27.7726   10.6676 C   0  0  0  0  0  0  0  0  0  0  0  0
   21.5463   29.1584   11.2500 C   0  0  0  0  0  0  0  0  0  0  0  0
   20.5678   28.9603   12.3649 C   0  0  1  0  0  0  0  0  0  0  0  0
   21.0649   29.7868   13.5562 C   0  0  0  0  0  0  0  0  0  0  0  0
   22.2215   29.1705   14.3647 C   0  0  0  0  0  0  0  0  0  0  0  0
   23.4706   29.8170   13.9579 N   0  0  0  0  0  0  0  0  0  0  0  0
   19.3085   29.4557   12.0002 O   0  0  0  0  0  0  0  0  0  0  0  0
   20.3541   25.1677    8.7441 C   0  0  0  0  0  0  0  0  0  0  0  0
   20.5648   24.2600    9.9468 C   0  0  0  0  0  0  0  0  0  0  0  0
   27.4213   26.1337    5.0486 C   0  0  1  0  0  0  0  0  0  0  0  0
   21.9122   23.6602   10.0227 N   0  0  0  0  0  0  0  0  0  0  0  0
   28.6104   26.1593    4.2633 O   0  0  0  0  0  0  0  0  0  0  0  0
   25.2847   27.3254    9.6988 C   0  0  2  0  0  0  0  0  0  0  0  0
   26.4841   28.1377    9.8596 N   0  0  0  0  0  0  0  0  0  0  0  0
   21.7106   22.6808   12.3031 C   0  0  0  0  0  0  0  0  0  0  0  0
   20.4821   23.4578   12.8646 C   0  0  0  0  0  0  0  0  0  0  0  0
   22.5841   23.5279   11.3413 C   0  0  0  0  0  0  0  0  0  0  0  0
   19.6980   22.6346   13.8336 N   0  0  0  0  0  0  0  0  0  0  0  0
   21.9834   29.9638   10.6827 O   0  0  0  0  0  0  0  0  0  0  0  0
   26.3591   25.2019    4.4316 C   0  0  2  0  0  0  0  0  0  0  0  0
   26.0107   25.5770    3.1013 O   0  0  0  0  0  0  0  0  0  0  0  0
   24.8161   27.4484    8.2626 C   0  0  2  0  0  0  0  0  0  0  0  0
   25.0868   25.1711    5.2975 C   0  0  2  0  0  0  0  0  0  0  0  0
   25.3957   24.8146    6.6494 O   0  0  0  0  0  0  0  0  0  0  0  0
   23.5240   26.5618    8.0417 C   0  0  2  0  0  0  0  0  0  0  0  0
   23.0845   26.7137    6.6554 O   0  0  0  0  0  0  0  0  0  0  0  0
   24.0661   24.2043    4.7594 C   0  0  0  0  0  0  0  0  0  0  0  0
   22.8322   24.4442    5.3208 O   0  0  0  0  0  0  0  0  0  0  0  0
   22.4034   27.0489    9.0215 C   0  0  1  0  0  0  0  0  0  0  0  0
   21.2248   26.3108    8.8784 O   0  0  0  0  0  0  0  0  0  0  0  0
  1  2  1  6  0  0  0
  1  5  1  0  0  0  0
  1 30  1  0  0  0  0
  3  4  1  1  0  0  0
  3  7  1  0  0  0  0
  3 35  1  0  0  0  0
  5  6  1  1  0  0  0
  5 16  1  0  0  0  0
  7 19  1  0  0  0  0
  8  4  1  0  0  0  0
  8 25  2  0  0  0  0
  9  8  1  6  0  0  0
  9 10  1  0  0  0  0
  9 13  1  0  0  0  0
 10 11  1  0  0  0  0
 11 12  1  0  0  0  0
 14 15  1  0  0  0  0
 14 36  1  0  0  0  0
 15 17  1  0  0  0  0
 16 18  1  6  0  0  0
 16 26  1  0  0  0  0
 17 23  1  0  0  0  0
 19 20  1  6  0  0  0
 19 28  1  0  0  0  0
 21 22  1  0  0  0  0
 21 23  1  0  0  0  0
 22 24  1  0  0  0  0
 26 27  1  6  0  0  0
 26 29  1  0  0  0  0
 28  2  1  6  0  0  0
 28 31  1  0  0  0  0
 29 30  1  0  0  0  0
 29 33  1  6  0  0  0
 31 32  1  6  0  0  0
 31 35  1  0  0  0  0
 33 34  1  0  0  0  0
 35 36  1  1  0  0  0
M  END
>  <CHROM.1>
-171.14193440,50.11760374,120.09807208,-78.20280068,100.81642520,-65.23482634
57.70602432,140.83622066,58.17358762,-177.42367013,-75.41264497,70.34322978
-164.16924144,-75.71870425,23.53781007,26.38195196,9.04531668,-0.65092122
0.73633836,0.63774566

>  <Name>
2f4u_lig

>  <RI>
0

>  <Rbt.Current_Directory>
/home/itssahil/PROJECTS/Mol_Feturizer/New_Systems/rnas/2f4u

>  <Rbt.Executable>
rbdock ($Id: //depot/dev/client3/rdock/2013.1/src/exe/rbdock.cxx#4 $)

>  <Rbt.Library>
libRbt.so (2013.1, Build901 2013/11/27)

>  <Rbt.Parameter_File>
/export/apps/rDock/src/rDock_2013.1_src/data/scripts/dock_solv.prm

>  <Rbt.Receptor>
prm/blind_docking_100.prm

>  <SCORE>
-8.39255

>  <SCORE.INTER>
-7.27715

>  <SCORE.INTER.CONST>
1

>  <SCORE.INTER.POLAR>
-1.21893

>  <SCORE.INTER.ROT>
14

>  <SCORE.INTER.SOLV>
24.9911

>  <SCORE.INTER.VDW>
-22.0521

>  <SCORE.INTER.norm>
-0.202143

>  <SCORE.INTRA>
-5.74819

>  <SCORE.INTRA.DIHEDRAL>
-13.6977

>  <SCORE.INTRA.DIHEDRAL.0>
26.3805

>  <SCORE.INTRA.POLAR>
0

>  <SCORE.INTRA.POLAR.0>
0

>  <SCORE.INTRA.REPUL>
0

>  <SCORE.INTRA.REPUL.0>
0

>  <SCORE.INTRA.SOLV>
5.70882

>  <SCORE.INTRA.SOLV.lig_0>
-98.5587

>  <SCORE.INTRA.VDW>
-1.75374

>  <SCORE.INTRA.VDW.0>
-2.91167

>  <SCORE.INTRA.norm>
-0.159672

>  <SCORE.RESTR>
4.63278

>  <SCORE.RESTR.CAVITY>
4.63278

>  <SCORE.RESTR.norm>
0.128688

>  <SCORE.SYSTEM>
0

>  <SCORE.SYSTEM.CONST>
0

>  <SCORE.SYSTEM.DIHEDRAL>
0

>  <SCORE.SYSTEM.SOLV>
0

>  <SCORE.SYSTEM.norm>
0

>  <SCORE.heavy>
36

>  <SCORE.norm>
-0.233126

>  <RMSD>
26.863

$$$$
2f4u_lig
 OpenBabel11021811433D
libRbt.so/2013.1/901 2013/11/27
 36 37  0  0  0  0  0  0  0  0999 V2000
   22.7977   22.7004   11.5033 C   0  0  2  0  0  0  0  0  0  0  0  0
   22.0570   22.8113   10.2317 O   0  0  0  0  0  0  0  0  0  0  0  0
   23.8267   26.2103    8.1798 C   0  0  2  0  0  0  0  0  0  0  0  0
   24.3259   27.0638    7.0676 N   0  0  0  0  0  0  0  0  0  0  0  0
   21.8297   22.0335   12.5291 C   0  0  2  0  0  0  0  0  0  0  0  0
   21.3607   20.7069   12.0883 N   0  0  0  0  0  0  0  0  0  0  0  0
   24.5639   24.8255    8.2258 C   0  0  0  0  0  0  0  0  0  0  0  0
   24.4602   26.1319    5.5507 C   0  0  0  0  0  0  0  0  0  0  0  0
   25.0903   27.3765    5.0088 C   0  0  1  0  0  0  0  0  0  0  0  0
   26.5442   27.3965    5.4938 C   0  0  0  0  0  0  0  0  0  0  0  0
   27.5480   26.6015    4.6383 C   0  0  0  0  0  0  0  0  0  0  0  0
   27.0677   25.2236    4.5167 N   0  0  0  0  0  0  0  0  0  0  0  0
   25.1105   27.3410    3.6079 O   0  0  0  0  0  0  0  0  0  0  0  0
   20.6645   28.2269    7.9415 C   0  0  0  0  0  0  0  0  0  0  0  0
   19.8418   28.0402    9.2076 C   0  0  0  0  0  0  0  0  0  0  0  0
   20.6088   22.9841   12.7627 C   0  0  1  0  0  0  0  0  0  0  0  0
   20.5050   28.5223   10.4360 N   0  0  0  0  0  0  0  0  0  0  0  0
   19.6860   22.4139   13.6871 O   0  0  0  0  0  0  0  0  0  0  0  0
   24.0012   23.9277    9.3465 C   0  0  2  0  0  0  0  0  0  0  0  0
   24.6549   22.6251    9.3598 N   0  0  0  0  0  0  0  0  0  0  0  0
   21.1425   30.5105   11.7927 C   0  0  0  0  0  0  0  0  0  0  0  0
   21.7556   29.6752   12.9566 C   0  0  0  0  0  0  0  0  0  0  0  0
   21.2475   29.8090   10.4133 C   0  0  0  0  0  0  0  0  0  0  0  0
   20.9337   28.4675   13.2684 N   0  0  0  0  0  0  0  0  0  0  0  0
   24.2409   25.1253    5.2344 O   0  0  0  0  0  0  0  0  0  0  0  0
   21.1440   24.3399   13.2653 C   0  0  2  0  0  0  0  0  0  0  0  0
   20.1026   25.2843   13.5004 O   0  0  0  0  0  0  0  0  0  0  0  0
   22.5137   23.7111    9.1530 C   0  0  2  0  0  0  0  0  0  0  0  0
   22.1511   24.9368   12.2657 C   0  0  2  0  0  0  0  0  0  0  0  0
   23.2072   24.0107   11.9879 O   0  0  0  0  0  0  0  0  0  0  0  0
   21.7637   25.1047    9.1540 C   0  0  2  0  0  0  0  0  0  0  0  0
   20.3357   24.8670    8.9477 O   0  0  0  0  0  0  0  0  0  0  0  0
   22.7499   26.2213   12.7732 C   0  0  0  0  0  0  0  0  0  0  0  0
   23.9167   25.9709   13.4595 O   0  0  0  0  0  0  0  0  0  0  0  0
   22.3383   25.9885    7.9956 C   0  0  1  0  0  0  0  0  0  0  0  0
   21.7163   27.2388    7.9322 O   0  0  0  0  0  0  0  0  0  0  0  0
  1  2  1  6  0  0  0
  1  5  1  0  0  0  0
  1 30  1  0  0  0  0
  3  4  1  6  0  0  0
  3  7  1  0  0  0  0
  3 35  1  0  0  0  0
  5  6  1  6  0  0  0
  5 16  1  0  0  0  0
  7 19  1  0  0  0  0
  8  4  1  0  0  0  0
  8 25  2  0  0  0  0
  9  8  1  1  0  0  0
  9 10  1  0  0  0  0
  9 13  1  0  0  0  0
 10 11  1  0  0  0  0
 11 12  1  0  0  0  0
 14 15  1  0  0  0  0
 14 36  1  0  0  0  0
 15 17  1  0  0  0  0
 16 18  1  1  0  0  0
 16 26  1  0  0  0  0
 17 23  1  0  0  0  0
 19 20  1  6  0  0  0
 19 28  1  0  0  0  0
 21 22  1  0  0  0  0
 21 23  1  0  0  0  0
 22 24  1  0  0  0  0
 26 27  1  6  0  0  0
 26 29  1  0  0  0  0
 28  2  1  1  0  0  0
 28 31  1  0  0  0  0
 29 30  1  0  0  0  0
 29 33  1  1  0  0  0
 31 32  1  6  0  0  0
 31 35  1  0  0  0  0
 33 34  1  0  0  0  0
 35 36  1  1  0  0  0
M  END
>  <CHROM.1>
163.13198371,45.73812602,79.32203174,84.48748596,-55.09158354,74.76599466
52.60836180,41.76162484,147.29355967,-70.10736545,61.23844240,23.78245952
91.98012369,-165.48942806,22.69759018,25.67932830,9.61029489,-2.60766700
0.98600142,-0.37060088

>  <Name>
2f4u_lig

>  <RI>
0

>  <Rbt.Current_Directory>
/home/itssahil/PROJECTS/Mol_Feturizer/New_Systems/rnas/2f4u

>  <Rbt.Executable>
rbdock ($Id: //depot/dev/client3/rdock/2013.1/src/exe/rbdock.cxx#4 $)

>  <Rbt.Library>
libRbt.so (2013.1, Build901 2013/11/27)

>  <Rbt.Parameter_File>
/export/apps/rDock/src/rDock_2013.1_src/data/scripts/dock_solv.prm

>  <Rbt.Receptor>
prm/blind_docking_40.prm

>  <SCORE>
11.0077

>  <SCORE.INTER>
4.0329

>  <SCORE.INTER.CONST>
1

>  <SCORE.INTER.POLAR>
0

>  <SCORE.INTER.ROT>
14

>  <SCORE.INTER.SOLV>
24.0746

>  <SCORE.INTER.VDW>
-18.2696

>  <SCORE.INTER.norm>
0.112025

>  <SCORE.INTRA>
2.24

>  <SCORE.INTRA.DIHEDRAL>
-10.6631

>  <SCORE.INTRA.DIHEDRAL.0>
26.3805

>  <SCORE.INTRA.POLAR>
0

>  <SCORE.INTRA.POLAR.0>
0

>  <SCORE.INTRA.REPUL>
0

>  <SCORE.INTRA.REPUL.0>
0

>  <SCORE.INTRA.SOLV>
12.14

>  <SCORE.INTRA.SOLV.lig_0>
-98.5587

>  <SCORE.INTRA.VDW>
1.50156

>  <SCORE.INTRA.VDW.0>
-2.91167

>  <SCORE.INTRA.norm>
0.0622221

>  <SCORE.RESTR>
4.73477

>  <SCORE.RESTR.CAVITY>
4.73477

>  <SCORE.RESTR.norm>
0.131521

>  <SCORE.SYSTEM>
0

>  <SCORE.SYSTEM.CONST>
0

>  <SCORE.SYSTEM.DIHEDRAL>
0

>  <SCORE.SYSTEM.SOLV>
0

>  <SCORE.SYSTEM.norm>
0

>  <SCORE.heavy>
36

>  <SCORE.norm>
0.305768

>  <RMSD>
26.887

$$$$
2f4u_lig
 OpenBabel11021811433D
libRbt.so/2013.1/901 2013/11/27
 36 37  0  0  0  0  0  0  0  0999 V2000
   19.6012   24.1833    9.2657 C   0  0  2  0  0  0  0  0  0  0  0  0
   19.8598   25.5899    8.9017 O   0  0  0  0  0  0  0  0  0  0  0  0
   24.0493   25.7063    7.7486 C   0  0  2  0  0  0  0  0  0  0  0  0
   25.2863   26.1011    7.0214 N   0  0  0  0  0  0  0  0  0  0  0  0
   18.5012   24.2017   10.3719 C   0  0  2  0  0  0  0  0  0  0  0  0
   17.2573   24.8558    9.9256 N   0  0  0  0  0  0  0  0  0  0  0  0
   22.9630   25.1266    6.7755 C   0  0  0  0  0  0  0  0  0  0  0  0
   24.9097   26.6721    5.3723 C   0  0  0  0  0  0  0  0  0  0  0  0
   26.3959   26.7148    5.2013 C   0  0  1  0  0  0  0  0  0  0  0  0
   27.0104   25.9668    6.3897 C   0  0  0  0  0  0  0  0  0  0  0  0
   28.5491   25.9189    6.4294 C   0  0  0  0  0  0  0  0  0  0  0  0
   28.9599   25.0667    7.5470 N   0  0  0  0  0  0  0  0  0  0  0  0
   26.7704   26.0369    4.0332 O   0  0  0  0  0  0  0  0  0  0  0  0
   25.1364   27.9082   10.5008 C   0  0  0  0  0  0  0  0  0  0  0  0
   24.3770   29.1297   10.9965 C   0  0  0  0  0  0  0  0  0  0  0  0
   19.0679   24.9310   11.6351 C   0  0  1  0  0  0  0  0  0  0  0  0
   23.1723   28.8118   11.7895 N   0  0  0  0  0  0  0  0  0  0  0  0
   18.0944   24.9844   12.6747 O   0  0  0  0  0  0  0  0  0  0  0  0
   21.6656   24.7723    7.5304 C   0  0  2  0  0  0  0  0  0  0  0  0
   20.6415   24.2765    6.6196 N   0  0  0  0  0  0  0  0  0  0  0  0
   22.3894   28.4848   14.1304 C   0  0  0  0  0  0  0  0  0  0  0  0
   20.9096   28.0793   13.8588 C   0  0  0  0  0  0  0  0  0  0  0  0
   22.9496   29.4913   13.0918 C   0  0  0  0  0  0  0  0  0  0  0  0
   20.7400   27.4620   12.5092 N   0  0  0  0  0  0  0  0  0  0  0  0
   24.0174   26.8323    4.7897 O   0  0  0  0  0  0  0  0  0  0  0  0
   20.3384   24.1862   12.0912 C   0  0  2  0  0  0  0  0  0  0  0  0
   20.9386   24.7829   13.2381 O   0  0  0  0  0  0  0  0  0  0  0  0
   21.1183   25.9935    8.2419 C   0  0  2  0  0  0  0  0  0  0  0  0
   21.3745   24.1219   10.9546 C   0  0  2  0  0  0  0  0  0  0  0  0
   20.8055   23.5432    9.7749 O   0  0  0  0  0  0  0  0  0  0  0  0
   22.1959   26.5506    9.2582 C   0  0  2  0  0  0  0  0  0  0  0  0
   21.6489   27.7367    9.9156 O   0  0  0  0  0  0  0  0  0  0  0  0
   22.5907   23.3276   11.3494 C   0  0  0  0  0  0  0  0  0  0  0  0
   22.2604   22.0055   11.5445 O   0  0  0  0  0  0  0  0  0  0  0  0
   23.4943   26.9217    8.4647 C   0  0  1  0  0  0  0  0  0  0  0  0
   24.4932   27.4280    9.3014 O   0  0  0  0  0  0  0  0  0  0  0  0
  1  2  1  1  0  0  0
  1  5  1  0  0  0  0
  1 30  1  0  0  0  0
  3  4  1  6  0  0  0
  3  7  1  0  0  0  0
  3 35  1  0  0  0  0
  5  6  1  6  0  0  0
  5 16  1  0  0  0  0
  7 19  1  0  0  0  0
  8  4  1  0  0  0  0
  8 25  2  0  0  0  0
  9  8  1  1  0  0  0
  9 10  1  0  0  0  0
  9 13  1  0  0  0  0
 10 11  1  0  0  0  0
 11 12  1  0  0  0  0
 14 15  1  0  0  0  0
 14 36  1  0  0  0  0
 15 17  1  0  0  0  0
 16 18  1  1  0  0  0
 16 26  1  0  0  0  0
 17 23  1  0  0  0  0
 19 20  1  6  0  0  0
 19 28  1  0  0  0  0
 21 22  1  0  0  0  0
 21 23  1  0  0  0  0
 22 24  1  0  0  0  0
 26 27  1  1  0  0  0
 26 29  1  0  0  0  0
 28  2  1  1  0  0  0
 28 31  1  0  0  0  0
 29 30  1  0  0  0  0
 29 33  1  1  0  0  0
 31 32  1  6  0  0  0
 31 35  1  0  0  0  0
 33 34  1  0  0  0  0
 35 36  1  1  0  0  0
M  END
>  <CHROM.1>
159.18430378,32.05350841,12.41272561,-178.59126590,-174.68923766,82.16264610
-60.05032131,131.47844174,-139.83522300,58.67111605,-72.06904688,24.29403869
65.80254245,-127.81828856,22.62042874,25.93524138,9.44278481,2.57423932,0.51559898
1.04051578

>  <Name>
2f4u_lig

>  <RI>
0

>  <Rbt.Current_Directory>
/home/itssahil/PROJECTS/Mol_Feturizer/New_Systems/rnas/2f4u

>  <Rbt.Executable>
rbdock ($Id: //depot/dev/client3/rdock/2013.1/src/exe/rbdock.cxx#4 $)

>  <Rbt.Library>
libRbt.so (2013.1, Build901 2013/11/27)

>  <Rbt.Parameter_File>
/export/apps/rDock/src/rDock_2013.1_src/data/scripts/dock_solv.prm

>  <Rbt.Receptor>
prm/blind_docking_40.prm

>  <SCORE>
17.0801

>  <SCORE.INTER>
-2.88951

>  <SCORE.INTER.CONST>
1

>  <SCORE.INTER.POLAR>
0

>  <SCORE.INTER.ROT>
14

>  <SCORE.INTER.SOLV>
8.66428

>  <SCORE.INTER.VDW>
-17.7478

>  <SCORE.INTER.norm>
-0.0802643

>  <SCORE.INTRA>
16.52

>  <SCORE.INTRA.DIHEDRAL>
-5.69538

>  <SCORE.INTRA.DIHEDRAL.0>
26.3805

>  <SCORE.INTRA.POLAR>
0

>  <SCORE.INTRA.POLAR.0>
0

>  <SCORE.INTRA.REPUL>
0

>  <SCORE.INTRA.REPUL.0>
0

>  <SCORE.INTRA.SOLV>
11.6556

>  <SCORE.INTRA.SOLV.lig_0>
-98.5587

>  <SCORE.INTRA.VDW>
13.5398

>  <SCORE.INTRA.VDW.0>
-2.91167

>  <SCORE.INTRA.norm>
0.458888

>  <SCORE.RESTR>
3.44961

>  <SCORE.RESTR.CAVITY>
3.44961

>  <SCORE.RESTR.norm>
0.0958225

>  <SCORE.SYSTEM>
0

>  <SCORE.SYSTEM.CONST>
0

>  <SCORE.SYSTEM.DIHEDRAL>
0

>  <SCORE.SYSTEM.SOLV>
0

>  <SCORE.SYSTEM.norm>
0

>  <SCORE.heavy>
36

>  <SCORE.norm>
0.474446

>  <RMSD>
26.890

$$$$
2f4u_lig
 OpenBabel11021811433D
libRbt.so/2013.1/901 2013/11/27
 36 37  0  0  0  0  0  0  0  0999 V2000
   22.4005   23.9716   12.5848 C   0  0  2  0  0  0  0  0  0  0  0  0
   21.8943   24.2989   11.2377 O   0  0  0  0  0  0  0  0  0  0  0  0
   23.7045   26.9714    8.3262 C   0  0  2  0  0  0  0  0  0  0  0  0
   24.6626   27.4856    7.3102 N   0  0  0  0  0  0  0  0  0  0  0  0
   21.5464   22.7745   13.1057 C   0  0  2  0  0  0  0  0  0  0  0  0
   21.6249   21.5946   12.2248 N   0  0  0  0  0  0  0  0  0  0  0  0
   24.4125   26.6747    9.6951 C   0  0  0  0  0  0  0  0  0  0  0  0
   25.8162   26.2173    6.8125 C   0  0  0  0  0  0  0  0  0  0  0  0
   26.4768   27.3191    6.0447 C   0  0  1  0  0  0  0  0  0  0  0  0
   27.7844   26.7553    5.4774 C   0  0  0  0  0  0  0  0  0  0  0  0
   27.6384   25.5687    4.5069 C   0  0  0  0  0  0  0  0  0  0  0  0
   28.9647   25.2213    3.9930 N   0  0  0  0  0  0  0  0  0  0  0  0
   25.6755   27.7050    4.9616 O   0  0  0  0  0  0  0  0  0  0  0  0
   21.6341   25.8406    5.4010 C   0  0  0  0  0  0  0  0  0  0  0  0
   20.1853   25.7468    5.8558 C   0  0  0  0  0  0  0  0  0  0  0  0
   20.0592   23.2398   13.2485 C   0  0  1  0  0  0  0  0  0  0  0  0
   19.8881   26.5058    7.0874 N   0  0  0  0  0  0  0  0  0  0  0  0
   19.2325   22.1756   13.7127 O   0  0  0  0  0  0  0  0  0  0  0  0
   23.4226   26.0904   10.7234 C   0  0  2  0  0  0  0  0  0  0  0  0
   24.0901   25.7728   11.9796 N   0  0  0  0  0  0  0  0  0  0  0  0
   18.9799   26.3951    9.4032 C   0  0  0  0  0  0  0  0  0  0  0  0
   19.5850   27.8009    9.6960 C   0  0  0  0  0  0  0  0  0  0  0  0
   18.6943   26.1521    7.8982 C   0  0  0  0  0  0  0  0  0  0  0  0
   19.8196   28.0131   11.1559 N   0  0  0  0  0  0  0  0  0  0  0  0
   25.9698   25.1744    7.0366 O   0  0  0  0  0  0  0  0  0  0  0  0
   20.0219   24.4430   14.2119 C   0  0  2  0  0  0  0  0  0  0  0  0
   18.7030   24.9491   14.4020 O   0  0  0  0  0  0  0  0  0  0  0  0
   22.7909   24.8216   10.1866 C   0  0  2  0  0  0  0  0  0  0  0  0
   20.9309   25.5782   13.7072 C   0  0  2  0  0  0  0  0  0  0  0  0
   22.2646   25.1066   13.4863 O   0  0  0  0  0  0  0  0  0  0  0  0
   22.0364   25.1300    8.8301 C   0  0  2  0  0  0  0  0  0  0  0  0
   21.4533   23.8871    8.3267 O   0  0  0  0  0  0  0  0  0  0  0  0
   20.9754   26.7318   14.6734 C   0  0  0  0  0  0  0  0  0  0  0  0
   21.5191   27.8439   14.0712 O   0  0  0  0  0  0  0  0  0  0  0  0
   23.0662   25.7019    7.7978 C   0  0  1  0  0  0  0  0  0  0  0  0
   22.4687   25.9941    6.5683 O   0  0  0  0  0  0  0  0  0  0  0  0
  1  2  1  6  0  0  0
  1  5  1  0  0  0  0
  1 30  1  0  0  0  0
  3  4  1  6  0  0  0
  3  7  1  0  0  0  0
  3 35  1  0  0  0  0
  5  6  1  6  0  0  0
  5 16  1  0  0  0  0
  7 19  1  0  0  0  0
  8  4  1  0  0  0  0
  8 25  2  0  0  0  0
  9  8  1  6  0  0  0
  9 10  1  0  0  0  0
  9 13  1  0  0  0  0
 10 11  1  0  0  0  0
 11 12  1  0  0  0  0
 14 15  1  0  0  0  0
 14 36  1  0  0  0  0
 15 17  1  0  0  0  0
 16 18  1  1  0  0  0
 16 26  1  0  0  0  0
 17 23  1  0  0  0  0
 19 20  1  1  0  0  0
 19 28  1  0  0  0  0
 21 22  1  0  0  0  0
 21 23  1  0  0  0  0
 22 24  1  0  0  0  0
 26 27  1  6  0  0  0
 26 29  1  0  0  0  0
 28  2  1  1  0  0  0
 28 31  1  0  0  0  0
 29 30  1  0  0  0  0
 29 33  1  1  0  0  0
 31 32  1  6  0  0  0
 31 35  1  0  0  0  0
 33 34  1  0  0  0  0
 35 36  1  6  0  0  0
M  END
>  <CHROM.1>
-147.76675937,68.58194919,172.92175306,61.16814798,176.05751365,31.03503080
60.45901987,-159.03735304,146.74479995,178.74802497,49.48486754,-57.75736220
-165.59977664,-165.43689582,22.48673629,25.59732572,9.61765911,-2.19023271
0.10950895,-1.28910697

>  <Name>
2f4u_lig

>  <RI>
0

>  <Rbt.Current_Directory>
/home/itssahil/PROJECTS/Mol_Feturizer/New_Systems/rnas/2f4u

>  <Rbt.Executable>
rbdock ($Id: //depot/dev/client3/rdock/2013.1/src/exe/rbdock.cxx#4 $)

>  <Rbt.Library>
libRbt.so (2013.1, Build901 2013/11/27)

>  <Rbt.Parameter_File>
/export/apps/rDock/src/rDock_2013.1_src/data/scripts/dock_solv.prm

>  <Rbt.Receptor>
prm/blind_docking_40.prm

>  <SCORE>
0.647454

>  <SCORE.INTER>
1.78268

>  <SCORE.INTER.CONST>
1

>  <SCORE.INTER.POLAR>
0

>  <SCORE.INTER.ROT>
14

>  <SCORE.INTER.SOLV>
18.8764

>  <SCORE.INTER.VDW>
-18.037

>  <SCORE.INTER.norm>
0.0495188

>  <SCORE.INTRA>
-3.87821

>  <SCORE.INTRA.DIHEDRAL>
-15.5944

>  <SCORE.INTRA.DIHEDRAL.0>
26.3805

>  <SCORE.INTRA.POLAR>
0

>  <SCORE.INTRA.POLAR.0>
0

>  <SCORE.INTRA.REPUL>
0

>  <SCORE.INTRA.REPUL.0>
0

>  <SCORE.INTRA.SOLV>
8.17888

>  <SCORE.INTRA.SOLV.lig_0>
-98.5587

>  <SCORE.INTRA.VDW>
-0.170463

>  <SCORE.INTRA.VDW.0>
-2.91167

>  <SCORE.INTRA.norm>
-0.107728

>  <SCORE.RESTR>
2.74299

>  <SCORE.RESTR.CAVITY>
2.74299

>  <SCORE.RESTR.norm>
0.0761942

>  <SCORE.SYSTEM>
0

>  <SCORE.SYSTEM.CONST>
0

>  <SCORE.SYSTEM.DIHEDRAL>
0

>  <SCORE.SYSTEM.SOLV>
0

>  <SCORE.SYSTEM.norm>
0

>  <SCORE.heavy>
36

>  <SCORE.norm>
0.0179848

>  <RMSD>
26.949

$$$$
2f4u_lig
 OpenBabel11021811433D
libRbt.so/2013.1/901 2013/11/27
 36 37  0  0  0  0  0  0  0  0999 V2000
   21.4579   25.4935   12.6007 C   0  0  2  0  0  0  0  0  0  0  0  0
   22.2090   24.5516   11.7484 O   0  0  0  0  0  0  0  0  0  0  0  0
   23.7928   27.0068    8.5300 C   0  0  2  0  0  0  0  0  0  0  0  0
   24.7168   27.4895    7.4679 N   0  0  0  0  0  0  0  0  0  0  0  0
   20.2273   24.7117   13.1563 C   0  0  2  0  0  0  0  0  0  0  0  0
   20.6147   23.5157   13.9268 N   0  0  0  0  0  0  0  0  0  0  0  0
   24.4885   26.9776    9.9365 C   0  0  0  0  0  0  0  0  0  0  0  0
   25.8563   26.2070    6.9737 C   0  0  0  0  0  0  0  0  0  0  0  0
   26.4898   27.2845    6.1507 C   0  0  1  0  0  0  0  0  0  0  0  0
   27.8124   26.7262    5.6137 C   0  0  0  0  0  0  0  0  0  0  0  0
   27.6910   25.6188    4.5506 C   0  0  0  0  0  0  0  0  0  0  0  0
   29.0378   25.2238    4.1334 N   0  0  0  0  0  0  0  0  0  0  0  0
   25.6808   27.5937    5.0487 O   0  0  0  0  0  0  0  0  0  0  0  0
   22.1944   25.2199    5.6387 C   0  0  0  0  0  0  0  0  0  0  0  0
   21.4601   26.3822    4.9870 C   0  0  0  0  0  0  0  0  0  0  0  0
   19.3060   24.3038   11.9591 C   0  0  1  0  0  0  0  0  0  0  0  0
   20.5286   27.0902    5.8882 N   0  0  0  0  0  0  0  0  0  0  0  0
   18.1688   23.5749   12.4139 O   0  0  0  0  0  0  0  0  0  0  0  0
   23.5405   26.4240   11.0196 C   0  0  2  0  0  0  0  0  0  0  0  0
   24.2016   26.3545   12.3167 N   0  0  0  0  0  0  0  0  0  0  0  0
   19.6873   25.3360    7.4422 C   0  0  0  0  0  0  0  0  0  0  0  0
   18.6995   24.1317    7.4910 C   0  0  0  0  0  0  0  0  0  0  0  0
   19.3085   26.3966    6.3758 C   0  0  0  0  0  0  0  0  0  0  0  0
   19.1952   23.0407    8.3827 N   0  0  0  0  0  0  0  0  0  0  0  0
   26.0189   25.1719    7.2256 O   0  0  0  0  0  0  0  0  0  0  0  0
   18.8904   25.5874   11.2128 C   0  0  2  0  0  0  0  0  0  0  0  0
   18.0511   25.3195   10.0922 O   0  0  0  0  0  0  0  0  0  0  0  0
   23.0719   25.0309   10.6496 C   0  0  2  0  0  0  0  0  0  0  0  0
   20.1275   26.3727   10.7412 C   0  0  2  0  0  0  0  0  0  0  0  0
   21.0076   26.6480   11.8365 O   0  0  0  0  0  0  0  0  0  0  0  0
   22.3283   25.0679    9.2531 C   0  0  2  0  0  0  0  0  0  0  0  0
   21.9042   23.7104    8.9134 O   0  0  0  0  0  0  0  0  0  0  0  0
   19.7485   27.6719   10.0819 C   0  0  0  0  0  0  0  0  0  0  0  0
   19.0228   28.4582   10.9481 O   0  0  0  0  0  0  0  0  0  0  0  0
   23.3176   25.6134    8.1682 C   0  0  1  0  0  0  0  0  0  0  0  0
   22.7280   25.6695    6.9020 O   0  0  0  0  0  0  0  0  0  0  0  0
  1  2  1  6  0  0  0
  1  5  1  0  0  0  0
  1 30  1  0  0  0  0
  3  4  1  6  0  0  0
  3  7  1  0  0  0  0
  3 35  1  0  0  0  0
  5  6  1  6  0  0  0
  5 16  1  0  0  0  0
  7 19  1  0  0  0  0
  8  4  1  0  0  0  0
  8 25  2  0  0  0  0
  9  8  1  1  0  0  0
  9 10  1  0  0  0  0
  9 13  1  0  0  0  0
 10 11  1  0  0  0  0
 11 12  1  0  0  0  0
 14 15  1  0  0  0  0
 14 36  1  0  0  0  0
 15 17  1  0  0  0  0
 16 18  1  1  0  0  0
 16 26  1  0  0  0  0
 17 23  1  0  0  0  0
 19 20  1  1  0  0  0
 19 28  1  0  0  0  0
 21 22  1  0  0  0  0
 21 23  1  0  0  0  0
 22 24  1  0  0  0  0
 26 27  1  6  0  0  0
 26 29  1  0  0  0  0
 28  2  1  1  0  0  0
 28 31  1  0  0  0  0
 29 30  1  0  0  0  0
 29 33  1  1  0  0  0
 31 32  1  6  0  0  0
 31 35  1  0  0  0  0
 33 34  1  0  0  0  0
 35 36  1  6  0  0  0
M  END
>  <CHROM.1>
154.57194278,77.87634807,170.30614777,69.55848509,178.89537053,-47.99699789
168.86577266,-67.52593315,73.44266928,171.79457946,-151.16677608,27.28701268
58.42389523,163.26161485,22.26232256,25.74423383,8.87924580,-2.42543566,-0.09945911
-1.48201593

>  <Name>
2f4u_lig

>  <RI>
0

>  <Rbt.Current_Directory>
/home/itssahil/PROJECTS/Mol_Feturizer/New_Systems/rnas/2f4u

>  <Rbt.Executable>
rbdock ($Id: //depot/dev/client3/rdock/2013.1/src/exe/rbdock.cxx#4 $)

>  <Rbt.Library>
libRbt.so (2013.1, Build901 2013/11/27)

>  <Rbt.Parameter_File>
/export/apps/rDock/src/rDock_2013.1_src/data/scripts/dock_solv.prm

>  <Rbt.Receptor>
prm/blind_docking_40.prm

>  <SCORE>
7.49945

>  <SCORE.INTER>
7.55505

>  <SCORE.INTER.CONST>
1

>  <SCORE.INTER.POLAR>
0

>  <SCORE.INTER.ROT>
14

>  <SCORE.INTER.SOLV>
17.1738

>  <SCORE.INTER.VDW>
-13.6212

>  <SCORE.INTER.norm>
0.209862

>  <SCORE.INTRA>
-2.48523

>  <SCORE.INTRA.DIHEDRAL>
-12.635

>  <SCORE.INTRA.DIHEDRAL.0>
26.3805

>  <SCORE.INTRA.POLAR>
0

>  <SCORE.INTRA.POLAR.0>
0

>  <SCORE.INTRA.REPUL>
0

>  <SCORE.INTRA.REPUL.0>
0

>  <SCORE.INTRA.SOLV>
8.11501

>  <SCORE.INTRA.SOLV.lig_0>
-98.5587

>  <SCORE.INTRA.VDW>
-0.225235

>  <SCORE.INTRA.VDW.0>
-2.91167

>  <SCORE.INTRA.norm>
-0.0690341

>  <SCORE.RESTR>
2.42962

>  <SCORE.RESTR.CAVITY>
2.42962

>  <SCORE.RESTR.norm>
0.0674895

>  <SCORE.SYSTEM>
0

>  <SCORE.SYSTEM.CONST>
0

>  <SCORE.SYSTEM.DIHEDRAL>
0

>  <SCORE.SYSTEM.SOLV>
0

>  <SCORE.SYSTEM.norm>
0

>  <SCORE.heavy>
36

>  <SCORE.norm>
0.208318

>  <RMSD>
26.956

$$$$
2f4u_lig
 OpenBabel11021811433D
libRbt.so/2013.1/901 2013/11/27
 36 37  0  0  0  0  0  0  0  0999 V2000
   22.5923   26.6600    4.8080 C   0  0  2  0  0  0  0  0  0  0  0  0
   21.3148   26.3292    5.4686 O   0  0  0  0  0  0  0  0  0  0  0  0
   19.8128   24.9847    9.3198 C   0  0  2  0  0  0  0  0  0  0  0  0
   19.8085   24.4137   10.6941 N   0  0  0  0  0  0  0  0  0  0  0  0
   23.0249   25.3918    4.0088 C   0  0  2  0  0  0  0  0  0  0  0  0
   22.0206   24.9787    3.0114 N   0  0  0  0  0  0  0  0  0  0  0  0
   20.3561   23.9573    8.2651 C   0  0  0  0  0  0  0  0  0  0  0  0
   21.4245   24.5281   11.4444 C   0  0  0  0  0  0  0  0  0  0  0  0
   20.8108   23.7287   12.5507 C   0  0  1  0  0  0  0  0  0  0  0  0
   21.3630   22.3031   12.4399 C   0  0  0  0  0  0  0  0  0  0  0  0
   22.8455   22.1869   12.0401 C   0  0  0  0  0  0  0  0  0  0  0  0
   23.6542   22.8841   13.0421 N   0  0  0  0  0  0  0  0  0  0  0  0
   21.2026   24.2403   13.7953 O   0  0  0  0  0  0  0  0  0  0  0  0
   19.7961   28.3525   10.9008 C   0  0  0  0  0  0  0  0  0  0  0  0
   21.0575   29.1129   11.2819 C   0  0  0  0  0  0  0  0  0  0  0  0
   23.2909   24.2257    5.0177 C   0  0  1  0  0  0  0  0  0  0  0  0
   21.5082   28.8795   12.6688 N   0  0  0  0  0  0  0  0  0  0  0  0
   23.6799   23.0369    4.3346 O   0  0  0  0  0  0  0  0  0  0  0  0
   20.4084   24.5771    6.8539 C   0  0  2  0  0  0  0  0  0  0  0  0
   20.9556   23.6378    5.8830 N   0  0  0  0  0  0  0  0  0  0  0  0
   23.8689   28.3939   13.2943 C   0  0  0  0  0  0  0  0  0  0  0  0
   24.1252   27.5907   11.9838 C   0  0  0  0  0  0  0  0  0  0  0  0
   22.7795   29.4871   13.1401 C   0  0  0  0  0  0  0  0  0  0  0  0
   25.3582   26.7527   12.0764 N   0  0  0  0  0  0  0  0  0  0  0  0
   22.3838   24.9331   11.1667 O   0  0  0  0  0  0  0  0  0  0  0  0
   24.3776   24.6862    6.0098 C   0  0  2  0  0  0  0  0  0  0  0  0
   24.6864   23.6905    6.9818 O   0  0  0  0  0  0  0  0  0  0  0  0
   21.2764   25.8197    6.8546 C   0  0  2  0  0  0  0  0  0  0  0  0
   23.9517   25.9791    6.7286 C   0  0  2  0  0  0  0  0  0  0  0  0
   23.6152   27.0025    5.7855 O   0  0  0  0  0  0  0  0  0  0  0  0
   20.7015   26.8755    7.8838 C   0  0  2  0  0  0  0  0  0  0  0  0
   21.5671   28.0540    7.8768 O   0  0  0  0  0  0  0  0  0  0  0  0
   25.0318   26.4939    7.6422 C   0  0  0  0  0  0  0  0  0  0  0  0
   24.4883   27.2673    8.6430 O   0  0  0  0  0  0  0  0  0  0  0  0
   20.6782   26.2294    9.3104 C   0  0  1  0  0  0  0  0  0  0  0  0
   20.1843   27.1104   10.2769 O   0  0  0  0  0  0  0  0  0  0  0  0
  1  2  1  1  0  0  0
  1  5  1  0  0  0  0
  1 30  1  0  0  0  0
  3  4  1  1  0  0  0
  3  7  1  0  0  0  0
  3 35  1  0  0  0  0
  5  6  1  6  0  0  0
  5 16  1  0  0  0  0
  7 19  1  0  0  0  0
  8  4  1  0  0  0  0
  8 25  2  0  0  0  0
  9  8  1  6  0  0  0
  9 10  1  0  0  0  0
  9 13  1  0  0  0  0
 10 11  1  0  0  0  0
 11 12  1  0  0  0  0
 14 15  1  0  0  0  0
 14 36  1  0  0  0  0
 15 17  1  0  0  0  0
 16 18  1  6  0  0  0
 16 26  1  0  0  0  0
 17 23  1  0  0  0  0
 19 20  1  6  0  0  0
 19 28  1  0  0  0  0
 21 22  1  0  0  0  0
 21 23  1  0  0  0  0
 22 24  1  0  0  0  0
 26 27  1  1  0  0  0
 26 29  1  0  0  0  0
 28  2  1  6  0  0  0
 28 31  1  0  0  0  0
 29 30  1  0  0  0  0
 29 33  1  1  0  0  0
 31 32  1  1  0  0  0
 31 35  1  0  0  0  0
 33 34  1  0  0  0  0
 35 36  1  1  0  0  0
M  END
>  <CHROM.1>
94.07500559,81.86106967,106.12338042,38.24849782,59.58264962,-93.89139936
-72.51614684,175.77864996,-107.76086461,168.09752653,56.74558930,-130.04262420
-155.35961858,-140.85621160,22.24446286,25.70145772,8.98903452,-0.99429256
1.40475140,0.85185708

>  <Name>
2f4u_lig

>  <RI>
0

>  <Rbt.Current_Directory>
/home/itssahil/PROJECTS/Mol_Feturizer/New_Systems/rnas/2f4u

>  <Rbt.Executable>
rbdock ($Id: //depot/dev/client3/rdock/2013.1/src/exe/rbdock.cxx#4 $)

>  <Rbt.Library>
libRbt.so (2013.1, Build901 2013/11/27)

>  <Rbt.Parameter_File>
/export/apps/rDock/src/rDock_2013.1_src/data/scripts/dock_solv.prm

>  <Rbt.Receptor>
prm/blind_docking_60.prm

>  <SCORE>
11.8427

>  <SCORE.INTER>
0.28105

>  <SCORE.INTER.CONST>
1

>  <SCORE.INTER.POLAR>
-0.87178

>  <SCORE.INTER.ROT>
14

>  <SCORE.INTER.SOLV>
17.7135

>  <SCORE.INTER.VDW>
-15.7445

>  <SCORE.INTER.norm>
0.00780693

>  <SCORE.INTRA>
7.70258

>  <SCORE.INTRA.DIHEDRAL>
1.75489

>  <SCORE.INTRA.DIHEDRAL.0>
26.3805

>  <SCORE.INTRA.POLAR>
0

>  <SCORE.INTRA.POLAR.0>
0

>  <SCORE.INTRA.REPUL>
0

>  <SCORE.INTRA.REPUL.0>
0

>  <SCORE.INTRA.SOLV>
12.1537

>  <SCORE.INTRA.SOLV.lig_0>
-98.5587

>  <SCORE.INTRA.VDW>
0.748287

>  <SCORE.INTRA.VDW.0>
-2.91167

>  <SCORE.INTRA.norm>
0.21396

>  <SCORE.RESTR>
3.85906

>  <SCORE.RESTR.CAVITY>
3.85906

>  <SCORE.RESTR.norm>
0.107196

>  <SCORE.SYSTEM>
0

>  <SCORE.SYSTEM.CONST>
0

>  <SCORE.SYSTEM.DIHEDRAL>
0

>  <SCORE.SYSTEM.SOLV>
0

>  <SCORE.SYSTEM.norm>
0

>  <SCORE.heavy>
36

>  <SCORE.norm>
0.328963

>  <RMSD>
26.959

$$$$
2f4u_lig
 OpenBabel11021811433D
libRbt.so/2013.1/901 2013/11/27
 36 37  0  0  0  0  0  0  0  0999 V2000
   25.8665   25.1556    6.3003 C   0  0  2  0  0  0  0  0  0  0  0  0
   25.2621   26.1513    7.2065 O   0  0  0  0  0  0  0  0  0  0  0  0
   21.0692   26.7317    8.1952 C   0  0  2  0  0  0  0  0  0  0  0  0
   19.7158   26.4601    8.7514 N   0  0  0  0  0  0  0  0  0  0  0  0
   27.3864   25.0979    6.6477 C   0  0  2  0  0  0  0  0  0  0  0  0
   27.6343   24.7322    8.0545 N   0  0  0  0  0  0  0  0  0  0  0  0
   21.5085   25.6279    7.1696 C   0  0  0  0  0  0  0  0  0  0  0  0
   19.3907   24.7062    8.8275 C   0  0  0  0  0  0  0  0  0  0  0  0
   18.0147   25.1237    9.2424 C   0  0  1  0  0  0  0  0  0  0  0  0
   18.1315   25.7455   10.6385 C   0  0  0  0  0  0  0  0  0  0  0  0
   18.3515   24.7559   11.7976 C   0  0  0  0  0  0  0  0  0  0  0  0
   19.7025   24.2023   11.6874 N   0  0  0  0  0  0  0  0  0  0  0  0
   17.5248   26.1115    8.3772 O   0  0  0  0  0  0  0  0  0  0  0  0
   20.7452   28.5032   11.1094 C   0  0  0  0  0  0  0  0  0  0  0  0
   20.2830   27.5800   12.2269 C   0  0  0  0  0  0  0  0  0  0  0  0
   28.0292   26.4896    6.3335 C   0  0  1  0  0  0  0  0  0  0  0  0
   20.9039   27.8594   13.5374 N   0  0  0  0  0  0  0  0  0  0  0  0
   29.4200   26.4928    6.6450 O   0  0  0  0  0  0  0  0  0  0  0  0
   22.9337   25.8888    6.6412 C   0  0  2  0  0  0  0  0  0  0  0  0
   23.3586   24.8391    5.7236 N   0  0  0  0  0  0  0  0  0  0  0  0
   23.2336   27.0601   13.1718 C   0  0  0  0  0  0  0  0  0  0  0  0
   24.0483   25.7334   13.1057 C   0  0  0  0  0  0  0  0  0  0  0  0
   21.9634   26.9559   14.0558 C   0  0  0  0  0  0  0  0  0  0  0  0
   25.3945   25.9367   12.4910 N   0  0  0  0  0  0  0  0  0  0  0  0
   19.9363   23.8039    8.6051 O   0  0  0  0  0  0  0  0  0  0  0  0
   27.7849   26.8072    4.8447 C   0  0  2  0  0  0  0  0  0  0  0  0
   28.3284   28.0673    4.4593 O   0  0  0  0  0  0  0  0  0  0  0  0
   23.9210   25.9444    7.7898 C   0  0  2  0  0  0  0  0  0  0  0  0
   26.2807   26.7848    4.5185 C   0  0  2  0  0  0  0  0  0  0  0  0
   25.6909   25.5392    4.9070 O   0  0  0  0  0  0  0  0  0  0  0  0
   23.5050   27.0892    8.8003 C   0  0  2  0  0  0  0  0  0  0  0  0
   24.4625   27.1078    9.9052 O   0  0  0  0  0  0  0  0  0  0  0  0
   26.0218   27.0108    3.0529 C   0  0  0  0  0  0  0  0  0  0  0  0
   24.6690   27.0156    2.7977 O   0  0  0  0  0  0  0  0  0  0  0  0
   22.0643   26.7902    9.3373 C   0  0  1  0  0  0  0  0  0  0  0  0
   21.6305   27.7621   10.2436 O   0  0  0  0  0  0  0  0  0  0  0  0
  1  2  1  1  0  0  0
  1  5  1  0  0  0  0
  1 30  1  0  0  0  0
  3  4  1  1  0  0  0
  3  7  1  0  0  0  0
  3 35  1  0  0  0  0
  5  6  1  1  0  0  0
  5 16  1  0  0  0  0
  7 19  1  0  0  0  0
  8  4  1  0  0  0  0
  8 25  2  0  0  0  0
  9  8  1  6  0  0  0
  9 10  1  0  0  0  0
  9 13  1  0  0  0  0
 10 11  1  0  0  0  0
 11 12  1  0  0  0  0
 14 15  1  0  0  0  0
 14 36  1  0  0  0  0
 15 17  1  0  0  0  0
 16 18  1  6  0  0  0
 16 26  1  0  0  0  0
 17 23  1  0  0  0  0
 19 20  1  6  0  0  0
 19 28  1  0  0  0  0
 21 22  1  0  0  0  0
 21 23  1  0  0  0  0
 22 24  1  0  0  0  0
 26 27  1  1  0  0  0
 26 29  1  0  0  0  0
 28  2  1  6  0  0  0
 28 31  1  0  0  0  0
 29 30  1  0  0  0  0
 29 33  1  6  0  0  0
 31 32  1  1  0  0  0
 31 35  1  0  0  0  0
 33 34  1  0  0  0  0
 35 36  1  1  0  0  0
M  END
>  <CHROM.1>
-141.69568213,30.59105399,-68.69347434,-74.43282006,70.10728132,106.26861505
63.84681571,-105.07342180,66.98954064,-168.19536754,-149.05121343,-62.40460946
-178.63107810,48.13969854,23.19514159,26.22810113,8.50900873,0.69481983,-0.12532055
-1.67360690

>  <Name>
2f4u_lig

>  <RI>
0

>  <Rbt.Current_Directory>
/home/itssahil/PROJECTS/Mol_Feturizer/New_Systems/rnas/2f4u

>  <Rbt.Executable>
rbdock ($Id: //depot/dev/client3/rdock/2013.1/src/exe/rbdock.cxx#4 $)

>  <Rbt.Library>
libRbt.so (2013.1, Build901 2013/11/27)

>  <Rbt.Parameter_File>
/export/apps/rDock/src/rDock_2013.1_src/data/scripts/dock_solv.prm

>  <Rbt.Receptor>
prm/blind_docking_40.prm

>  <SCORE>
14.056

>  <SCORE.INTER>
0.169336

>  <SCORE.INTER.CONST>
1

>  <SCORE.INTER.POLAR>
-0.605766

>  <SCORE.INTER.ROT>
14

>  <SCORE.INTER.SOLV>
9.41333

>  <SCORE.INTER.VDW>
-13.939

>  <SCORE.INTER.norm>
0.00470379

>  <SCORE.INTRA>
5.22365

>  <SCORE.INTRA.DIHEDRAL>
-8.64402

>  <SCORE.INTRA.DIHEDRAL.0>
26.3805

>  <SCORE.INTRA.POLAR>
0

>  <SCORE.INTRA.POLAR.0>
0

>  <SCORE.INTRA.REPUL>
0

>  <SCORE.INTRA.REPUL.0>
0

>  <SCORE.INTRA.SOLV>
9.186

>  <SCORE.INTRA.SOLV.lig_0>
-98.5587

>  <SCORE.INTRA.VDW>
4.95267

>  <SCORE.INTRA.VDW.0>
-2.91167

>  <SCORE.INTRA.norm>
0.145102

>  <SCORE.RESTR>
8.66305

>  <SCORE.RESTR.CAVITY>
8.66305

>  <SCORE.RESTR.norm>
0.24064

>  <SCORE.SYSTEM>
0

>  <SCORE.SYSTEM.CONST>
0

>  <SCORE.SYSTEM.DIHEDRAL>
0

>  <SCORE.SYSTEM.SOLV>
0

>  <SCORE.SYSTEM.norm>
0

>  <SCORE.heavy>
36

>  <SCORE.norm>
0.390446

>  <RMSD>
26.965

$$$$
2f4u_lig
 OpenBabel11021811433D
libRbt.so/2013.1/901 2013/11/27
 36 37  0  0  0  0  0  0  0  0999 V2000
   22.4300   24.0519   12.3666 C   0  0  2  0  0  0  0  0  0  0  0  0
   21.7827   24.3065   11.0651 O   0  0  0  0  0  0  0  0  0  0  0  0
   23.2098   26.7262    7.7479 C   0  0  2  0  0  0  0  0  0  0  0  0
   24.0552   27.1698    6.6063 N   0  0  0  0  0  0  0  0  0  0  0  0
   21.7025   22.8238   12.9964 C   0  0  2  0  0  0  0  0  0  0  0  0
   21.7713   21.6235   12.1428 N   0  0  0  0  0  0  0  0  0  0  0  0
   24.0391   26.6119    9.0754 C   0  0  0  0  0  0  0  0  0  0  0  0
   25.3971   26.0283    6.3166 C   0  0  0  0  0  0  0  0  0  0  0  0
   25.8547   27.0423    5.3155 C   0  0  1  0  0  0  0  0  0  0  0  0
   27.2280   26.5893    4.8072 C   0  0  0  0  0  0  0  0  0  0  0  0
   28.3753   26.6461    5.8326 C   0  0  0  0  0  0  0  0  0  0  0  0
   28.3196   25.4403    6.6613 N   0  0  0  0  0  0  0  0  0  0  0  0
   24.9834   27.0695    4.2181 O   0  0  0  0  0  0  0  0  0  0  0  0
   20.9855   26.0539    5.2311 C   0  0  0  0  0  0  0  0  0  0  0  0
   19.6532   26.3313    5.9112 C   0  0  0  0  0  0  0  0  0  0  0  0
   20.2092   23.2057   13.2663 C   0  0  1  0  0  0  0  0  0  0  0  0
   19.6938   27.4334    6.8935 N   0  0  0  0  0  0  0  0  0  0  0  0
   19.4955   22.1101   13.8336 O   0  0  0  0  0  0  0  0  0  0  0  0
   23.1668   26.0987   10.2392 C   0  0  2  0  0  0  0  0  0  0  0  0
   23.9479   25.9495   11.4606 N   0  0  0  0  0  0  0  0  0  0  0  0
   18.4052   26.7096    8.8973 C   0  0  0  0  0  0  0  0  0  0  0  0
   18.4656   26.1373   10.3455 C   0  0  0  0  0  0  0  0  0  0  0  0
   19.7937   27.1223    8.3429 C   0  0  0  0  0  0  0  0  0  0  0  0
   18.9860   24.7373   10.3697 N   0  0  0  0  0  0  0  0  0  0  0  0
   25.7250   25.0912    6.7357 O   0  0  0  0  0  0  0  0  0  0  0  0
   20.1875   24.4344   14.1975 C   0  0  2  0  0  0  0  0  0  0  0  0
   18.8634   24.8682   14.4976 O   0  0  0  0  0  0  0  0  0  0  0  0
   22.5636   24.7520    9.8931 C   0  0  2  0  0  0  0  0  0  0  0  0
   20.9749   25.6043   13.5804 C   0  0  2  0  0  0  0  0  0  0  0  0
   22.3089   25.2048   13.2473 O   0  0  0  0  0  0  0  0  0  0  0  0
   21.6884   24.8771    8.5806 C   0  0  2  0  0  0  0  0  0  0  0  0
   21.1349   23.5620    8.2609 O   0  0  0  0  0  0  0  0  0  0  0  0
   21.0378   26.7883   14.5079 C   0  0  0  0  0  0  0  0  0  0  0  0
   21.5019   27.8993   13.8404 O   0  0  0  0  0  0  0  0  0  0  0  0
   22.6008   25.3794    7.4108 C   0  0  1  0  0  0  0  0  0  0  0  0
   21.8928   25.5093    6.2125 O   0  0  0  0  0  0  0  0  0  0  0  0
  1  2  1  6  0  0  0
  1  5  1  0  0  0  0
  1 30  1  0  0  0  0
  3  4  1  6  0  0  0
  3  7  1  0  0  0  0
  3 35  1  0  0  0  0
  5  6  1  6  0  0  0
  5 16  1  0  0  0  0
  7 19  1  0  0  0  0
  8  4  1  0  0  0  0
  8 25  2  0  0  0  0
  9  8  1  1  0  0  0
  9 10  1  0  0  0  0
  9 13  1  0  0  0  0
 10 11  1  0  0  0  0
 11 12  1  0  0  0  0
 14 15  1  0  0  0  0
 14 36  1  0  0  0  0
 15 17  1  0  0  0  0
 16 18  1  1  0  0  0
 16 26  1  0  0  0  0
 17 23  1  0  0  0  0
 19 20  1  1  0  0  0
 19 28  1  0  0  0  0
 21 22  1  0  0  0  0
 21 23  1  0  0  0  0
 22 24  1  0  0  0  0
 26 27  1  6  0  0  0
 26 29  1  0  0  0  0
 28  2  1  1  0  0  0
 28 31  1  0  0  0  0
 29 30  1  0  0  0  0
 29 33  1  1  0  0  0
 31 32  1  6  0  0  0
 31 35  1  0  0  0  0
 33 34  1  0  0  0  0
 35 36  1  6  0  0  0
M  END
>  <CHROM.1>
-143.16530435,59.46583095,173.11471281,-68.04565180,82.11036870,68.51491322
-49.09744688,-99.92250228,-79.00246141,-76.15325662,170.26308982,-62.45605348
-167.82701080,-48.00828657,22.26721052,25.49348435,9.48551451,-2.14690874
0.05783986,-1.28985584

>  <Name>
2f4u_lig

>  <RI>
0

>  <Rbt.Current_Directory>
/home/itssahil/PROJECTS/Mol_Feturizer/New_Systems/rnas/2f4u

>  <Rbt.Executable>
rbdock ($Id: //depot/dev/client3/rdock/2013.1/src/exe/rbdock.cxx#4 $)

>  <Rbt.Library>
libRbt.so (2013.1, Build901 2013/11/27)

>  <Rbt.Parameter_File>
/export/apps/rDock/src/rDock_2013.1_src/data/scripts/dock_solv.prm

>  <Rbt.Receptor>
prm/blind_docking_40.prm

>  <SCORE>
0.757618

>  <SCORE.INTER>
0.0690278

>  <SCORE.INTER.CONST>
1

>  <SCORE.INTER.POLAR>
0

>  <SCORE.INTER.ROT>
14

>  <SCORE.INTER.SOLV>
17.06

>  <SCORE.INTER.VDW>
-18.574

>  <SCORE.INTER.norm>
0.00191744

>  <SCORE.INTRA>
-1.9997

>  <SCORE.INTRA.DIHEDRAL>
-14.2604

>  <SCORE.INTRA.DIHEDRAL.0>
26.3805

>  <SCORE.INTRA.POLAR>
0

>  <SCORE.INTRA.POLAR.0>
0

>  <SCORE.INTRA.REPUL>
0

>  <SCORE.INTRA.REPUL.0>
0

>  <SCORE.INTRA.SOLV>
13.1048

>  <SCORE.INTRA.SOLV.lig_0>
-98.5587

>  <SCORE.INTRA.VDW>
-1.42193

>  <SCORE.INTRA.VDW.0>
-2.91167

>  <SCORE.INTRA.norm>
-0.0555473

>  <SCORE.RESTR>
2.68829

>  <SCORE.RESTR.CAVITY>
2.68829

>  <SCORE.RESTR.norm>
0.0746749

>  <SCORE.SYSTEM>
0

>  <SCORE.SYSTEM.CONST>
0

>  <SCORE.SYSTEM.DIHEDRAL>
0

>  <SCORE.SYSTEM.SOLV>
0

>  <SCORE.SYSTEM.norm>
0

>  <SCORE.heavy>
36

>  <SCORE.norm>
0.0210449

>  <RMSD>
26.996

$$$$
2f4u_lig
 OpenBabel11021811433D
libRbt.so/2013.1/901 2013/11/27
 36 37  0  0  0  0  0  0  0  0999 V2000
   21.4964   26.3155    5.7436 C   0  0  2  0  0  0  0  0  0  0  0  0
   20.6920   25.5961    6.7503 O   0  0  0  0  0  0  0  0  0  0  0  0
   22.6538   26.5327   10.5145 C   0  0  2  0  0  0  0  0  0  0  0  0
   22.8368   26.7649   11.9731 N   0  0  0  0  0  0  0  0  0  0  0  0
   21.8050   25.2954    4.6043 C   0  0  2  0  0  0  0  0  0  0  0  0
   20.5837   24.7433    3.9897 N   0  0  0  0  0  0  0  0  0  0  0  0
   21.5853   27.5046    9.9007 C   0  0  0  0  0  0  0  0  0  0  0  0
   21.2671   26.7911   12.8232 C   0  0  0  0  0  0  0  0  0  0  0  0
   22.0806   27.1870   14.0153 C   0  0  1  0  0  0  0  0  0  0  0  0
   21.9407   28.7050   14.1755 C   0  0  0  0  0  0  0  0  0  0  0  0
   22.6046   29.5594   13.0798 C   0  0  0  0  0  0  0  0  0  0  0  0
   24.0484   29.5880   13.3222 N   0  0  0  0  0  0  0  0  0  0  0  0
   21.5678   26.5887   15.1743 O   0  0  0  0  0  0  0  0  0  0  0  0
   23.9859   23.6347   11.8976 C   0  0  0  0  0  0  0  0  0  0  0  0
   23.1302   22.6125   12.6307 C   0  0  0  0  0  0  0  0  0  0  0  0
   22.6830   24.1384    5.1869 C   0  0  1  0  0  0  0  0  0  0  0  0
   21.9689   23.1911   13.3363 N   0  0  0  0  0  0  0  0  0  0  0  0
   22.9845   23.1708    4.1849 O   0  0  0  0  0  0  0  0  0  0  0  0
   21.3630   27.2188    8.4015 C   0  0  2  0  0  0  0  0  0  0  0  0
   20.3379   28.0913    7.8426 N   0  0  0  0  0  0  0  0  0  0  0  0
   19.5873   23.8768   13.5763 C   0  0  0  0  0  0  0  0  0  0  0  0
   18.1668   23.8768   12.9356 C   0  0  0  0  0  0  0  0  0  0  0  0
   20.7015   23.4240   12.5968 C   0  0  0  0  0  0  0  0  0  0  0  0
   18.1134   24.7137   11.6995 N   0  0  0  0  0  0  0  0  0  0  0  0
   20.2336   26.6490   12.5525 O   0  0  0  0  0  0  0  0  0  0  0  0
   23.9662   24.7580    5.7757 C   0  0  2  0  0  0  0  0  0  0  0  0
   24.8338   23.7796    6.3429 O   0  0  0  0  0  0  0  0  0  0  0  0
   20.9274   25.7816    8.1967 C   0  0  2  0  0  0  0  0  0  0  0  0
   23.6260   25.8121    6.8445 C   0  0  2  0  0  0  0  0  0  0  0  0
   22.7400   26.8068    6.3193 O   0  0  0  0  0  0  0  0  0  0  0  0
   22.0269   24.8001    8.7731 C   0  0  2  0  0  0  0  0  0  0  0  0
   21.5729   23.4239    8.5787 O   0  0  0  0  0  0  0  0  0  0  0  0
   24.8606   26.4903    7.3755 C   0  0  0  0  0  0  0  0  0  0  0  0
   25.5770   25.6293    8.1757 O   0  0  0  0  0  0  0  0  0  0  0  0
   22.2187   25.0965   10.2991 C   0  0  1  0  0  0  0  0  0  0  0  0
   23.1764   24.2597   10.8793 O   0  0  0  0  0  0  0  0  0  0  0  0
  1  2  1  1  0  0  0
  1  5  1  0  0  0  0
  1 30  1  0  0  0  0
  3  4  1  1  0  0  0
  3  7  1  0  0  0  0
  3 35  1  0  0  0  0
  5  6  1  1  0  0  0
  5 16  1  0  0  0  0
  7 19  1  0  0  0  0
  8  4  1  0  0  0  0
  8 25  2  0  0  0  0
  9  8  1  6  0  0  0
  9 10  1  0  0  0  0
  9 13  1  0  0  0  0
 10 11  1  0  0  0  0
 11 12  1  0  0  0  0
 14 15  1  0  0  0  0
 14 36  1  0  0  0  0
 15 17  1  0  0  0  0
 16 18  1  6  0  0  0
 16 26  1  0  0  0  0
 17 23  1  0  0  0  0
 19 20  1  1  0  0  0
 19 28  1  0  0  0  0
 21 22  1  0  0  0  0
 21 23  1  0  0  0  0
 22 24  1  0  0  0  0
 26 27  1  1  0  0  0
 26 29  1  0  0  0  0
 28  2  1  6  0  0  0
 28 31  1  0  0  0  0
 29 30  1  0  0  0  0
 29 33  1  6  0  0  0
 31 32  1  1  0  0  0
 31 35  1  0  0  0  0
 33 34  1  0  0  0  0
 35 36  1  6  0  0  0
M  END
>  <CHROM.1>
138.87254771,50.15016362,100.45207114,-68.54909393,-76.99943031,-62.28186587
76.36922614,85.10403039,173.39978541,-55.67653407,-168.85948818,33.36806010
-71.90844721,64.66516977,22.07178152,25.59732370,9.72638545,-1.26858119,1.01626447
1.15807722

>  <Name>
2f4u_lig

>  <RI>
0

>  <Rbt.Current_Directory>
/home/itssahil/PROJECTS/Mol_Feturizer/New_Systems/rnas/2f4u

>  <Rbt.Executable>
rbdock ($Id: //depot/dev/client3/rdock/2013.1/src/exe/rbdock.cxx#4 $)

>  <Rbt.Library>
libRbt.so (2013.1, Build901 2013/11/27)

>  <Rbt.Parameter_File>
/export/apps/rDock/src/rDock_2013.1_src/data/scripts/dock_solv.prm

>  <Rbt.Receptor>
prm/blind_docking_60.prm

>  <SCORE>
-2.43067

>  <SCORE.INTER>
-4.53682

>  <SCORE.INTER.CONST>
1

>  <SCORE.INTER.POLAR>
-1.03923

>  <SCORE.INTER.ROT>
14

>  <SCORE.INTER.SOLV>
20.9119

>  <SCORE.INTER.VDW>
-19.4644

>  <SCORE.INTER.norm>
-0.126023

>  <SCORE.INTRA>
-1.07771

>  <SCORE.INTRA.DIHEDRAL>
-11.4296

>  <SCORE.INTRA.DIHEDRAL.0>
26.3805

>  <SCORE.INTRA.POLAR>
0

>  <SCORE.INTRA.POLAR.0>
0

>  <SCORE.INTRA.REPUL>
0

>  <SCORE.INTRA.REPUL.0>
0

>  <SCORE.INTRA.SOLV>
9.04211

>  <SCORE.INTRA.SOLV.lig_0>
-98.5587

>  <SCORE.INTRA.VDW>
0.116064

>  <SCORE.INTRA.VDW.0>
-2.91167

>  <SCORE.INTRA.norm>
-0.0299363

>  <SCORE.RESTR>
3.18385

>  <SCORE.RESTR.CAVITY>
3.18385

>  <SCORE.RESTR.norm>
0.0884403

>  <SCORE.SYSTEM>
0

>  <SCORE.SYSTEM.CONST>
0

>  <SCORE.SYSTEM.DIHEDRAL>
0

>  <SCORE.SYSTEM.SOLV>
0

>  <SCORE.SYSTEM.norm>
0

>  <SCORE.heavy>
36

>  <SCORE.norm>
-0.0675187

>  <RMSD>
27.018

$$$$
2f4u_lig
 OpenBabel11021811433D
libRbt.so/2013.1/901 2013/11/27
 36 37  0  0  0  0  0  0  0  0999 V2000
   21.9406   23.0144   12.7341 C   0  0  2  0  0  0  0  0  0  0  0  0
   21.6448   22.4797   11.3907 O   0  0  0  0  0  0  0  0  0  0  0  0
   23.0190   25.5984    8.6924 C   0  0  2  0  0  0  0  0  0  0  0  0
   23.5478   26.2450    7.4608 N   0  0  0  0  0  0  0  0  0  0  0  0
   20.5875   23.0508   13.5099 C   0  0  2  0  0  0  0  0  0  0  0  0
   19.9548   21.7228   13.6114 N   0  0  0  0  0  0  0  0  0  0  0  0
   24.0179   24.5308    9.2631 C   0  0  0  0  0  0  0  0  0  0  0  0
   24.0919   25.0256    6.2757 C   0  0  0  0  0  0  0  0  0  0  0  0
   24.5854   26.2069    5.5005 C   0  0  1  0  0  0  0  0  0  0  0  0
   25.8233   25.7514    4.7198 C   0  0  0  0  0  0  0  0  0  0  0  0
   27.1241   25.6309    5.5351 C   0  0  0  0  0  0  0  0  0  0  0  0
   27.3466   26.8913    6.2464 N   0  0  0  0  0  0  0  0  0  0  0  0
   23.6213   26.6137    4.5682 O   0  0  0  0  0  0  0  0  0  0  0  0
   19.9736   27.0573    7.7823 C   0  0  0  0  0  0  0  0  0  0  0  0
   20.7461   28.2633    8.2957 C   0  0  0  0  0  0  0  0  0  0  0  0
   19.6218   24.0523   12.7935 C   0  0  1  0  0  0  0  0  0  0  0  0
   21.1509   28.1634    9.7124 N   0  0  0  0  0  0  0  0  0  0  0  0
   18.3631   24.1141   13.4593 O   0  0  0  0  0  0  0  0  0  0  0  0
   23.4369   23.8276   10.5068 C   0  0  2  0  0  0  0  0  0  0  0  0
   24.3454   22.8047   11.0094 N   0  0  0  0  0  0  0  0  0  0  0  0
   21.1402   30.0673   11.3171 C   0  0  0  0  0  0  0  0  0  0  0  0
   22.4888   29.6666   11.9871 C   0  0  0  0  0  0  0  0  0  0  0  0
   20.3510   28.8558   10.7556 C   0  0  0  0  0  0  0  0  0  0  0  0
   23.4525   29.0938   11.0000 N   0  0  0  0  0  0  0  0  0  0  0  0
   24.1022   23.9496    6.2161 O   0  0  0  0  0  0  0  0  0  0  0  0
   20.3054   25.4336   12.7521 C   0  0  2  0  0  0  0  0  0  0  0  0
   19.5039   26.4199   12.1065 O   0  0  0  0  0  0  0  0  0  0  0  0
   22.1154   23.1661   10.1704 C   0  0  2  0  0  0  0  0  0  0  0  0
   21.6700   25.3494   12.0449 C   0  0  2  0  0  0  0  0  0  0  0  0
   22.5018   24.3553   12.6532 O   0  0  0  0  0  0  0  0  0  0  0  0
   21.0921   24.2502    9.6394 C   0  0  2  0  0  0  0  0  0  0  0  0
   19.8347   23.5824    9.3061 O   0  0  0  0  0  0  0  0  0  0  0  0
   22.3937   26.6693   12.0648 C   0  0  0  0  0  0  0  0  0  0  0  0
   23.7265   26.4926   11.7689 O   0  0  0  0  0  0  0  0  0  0  0  0
   21.6960   24.9341    8.3662 C   0  0  1  0  0  0  0  0  0  0  0  0
   20.8403   25.9046    7.8369 O   0  0  0  0  0  0  0  0  0  0  0  0
  1  2  1  6  0  0  0
  1  5  1  0  0  0  0
  1 30  1  0  0  0  0
  3  4  1  6  0  0  0
  3  7  1  0  0  0  0
  3 35  1  0  0  0  0
  5  6  1  6  0  0  0
  5 16  1  0  0  0  0
  7 19  1  0  0  0  0
  8  4  1  0  0  0  0
  8 25  2  0  0  0  0
  9  8  1  6  0  0  0
  9 10  1  0  0  0  0
  9 13  1  0  0  0  0
 10 11  1  0  0  0  0
 11 12  1  0  0  0  0
 14 15  1  0  0  0  0
 14 36  1  0  0  0  0
 15 17  1  0  0  0  0
 16 18  1  1  0  0  0
 16 26  1  0  0  0  0
 17 23  1  0  0  0  0
 19 20  1  6  0  0  0
 19 28  1  0  0  0  0
 21 22  1  0  0  0  0
 21 23  1  0  0  0  0
 22 24  1  0  0  0  0
 26 27  1  6  0  0  0
 26 29  1  0  0  0  0
 28  2  1  1  0  0  0
 28 31  1  0  0  0  0
 29 30  1  0  0  0  0
 29 33  1  1  0  0  0
 31 32  1  6  0  0  0
 31 35  1  0  0  0  0
 33 34  1  0  0  0  0
 35 36  1  1  0  0  0
M  END
>  <CHROM.1>
130.09259906,50.51544311,149.00497177,-77.48592462,-52.52575711,-63.66940331
56.54997691,-99.48065074,-108.85479521,65.17866581,-60.86262598,32.29582746
163.53653376,-70.86389289,22.25993175,25.53714338,9.80755568,-2.73947784
0.93744005,-0.24988766

>  <Name>
2f4u_lig

>  <RI>
0

>  <Rbt.Current_Directory>
/home/itssahil/PROJECTS/Mol_Feturizer/New_Systems/rnas/2f4u

>  <Rbt.Executable>
rbdock ($Id: //depot/dev/client3/rdock/2013.1/src/exe/rbdock.cxx#4 $)

>  <Rbt.Library>
libRbt.so (2013.1, Build901 2013/11/27)

>  <Rbt.Parameter_File>
/export/apps/rDock/src/rDock_2013.1_src/data/scripts/dock_solv.prm

>  <Rbt.Receptor>
prm/blind_docking_40.prm

>  <SCORE>
12.9678

>  <SCORE.INTER>
2.99985

>  <SCORE.INTER.CONST>
1

>  <SCORE.INTER.POLAR>
0

>  <SCORE.INTER.ROT>
14

>  <SCORE.INTER.SOLV>
20.3704

>  <SCORE.INTER.VDW>
-17.7236

>  <SCORE.INTER.norm>
0.0833291

>  <SCORE.INTRA>
7.20639

>  <SCORE.INTRA.DIHEDRAL>
-9.9606

>  <SCORE.INTRA.DIHEDRAL.0>
26.3805

>  <SCORE.INTRA.POLAR>
0

>  <SCORE.INTRA.POLAR.0>
0

>  <SCORE.INTRA.REPUL>
0

>  <SCORE.INTRA.REPUL.0>
0

>  <SCORE.INTRA.SOLV>
14.0269

>  <SCORE.INTRA.SOLV.lig_0>
-98.5587

>  <SCORE.INTRA.VDW>
5.17325

>  <SCORE.INTRA.VDW.0>
-2.91167

>  <SCORE.INTRA.norm>
0.200177

>  <SCORE.RESTR>
2.76154

>  <SCORE.RESTR.CAVITY>
2.76154

>  <SCORE.RESTR.norm>
0.0767094

>  <SCORE.SYSTEM>
0

>  <SCORE.SYSTEM.CONST>
0

>  <SCORE.SYSTEM.DIHEDRAL>
0

>  <SCORE.SYSTEM.SOLV>
0

>  <SCORE.SYSTEM.norm>
0

>  <SCORE.heavy>
36

>  <SCORE.norm>
0.360216

>  <RMSD>
27.019

$$$$
2f4u_lig
 OpenBabel11021811433D
libRbt.so/2013.1/901 2013/11/27
 36 37  0  0  0  0  0  0  0  0999 V2000
   24.3040   24.6217    5.4541 C   0  0  2  0  0  0  0  0  0  0  0  0
   23.3969   25.7124    5.8609 O   0  0  0  0  0  0  0  0  0  0  0  0
   20.0600   26.2983    8.5843 C   0  0  2  0  0  0  0  0  0  0  0  0
   19.1529   26.0894    9.7455 N   0  0  0  0  0  0  0  0  0  0  0  0
   25.1934   24.2930    6.6931 C   0  0  2  0  0  0  0  0  0  0  0  0
   24.4017   23.8929    7.8709 N   0  0  0  0  0  0  0  0  0  0  0  0
   20.1396   25.0236    7.6721 C   0  0  0  0  0  0  0  0  0  0  0  0
   19.8053   24.8555   10.8588 C   0  0  0  0  0  0  0  0  0  0  0  0
   18.4982   25.0121   11.5707 C   0  0  1  0  0  0  0  0  0  0  0  0
   18.4626   23.9637   12.6883 C   0  0  0  0  0  0  0  0  0  0  0  0
   19.5083   24.1376   13.8052 C   0  0  0  0  0  0  0  0  0  0  0  0
   20.7762   23.5643   13.3496 N   0  0  0  0  0  0  0  0  0  0  0  0
   18.4202   26.2760   12.1714 O   0  0  0  0  0  0  0  0  0  0  0  0
   20.9734   29.0907   10.3644 C   0  0  0  0  0  0  0  0  0  0  0  0
   21.7986   29.4313   11.5964 C   0  0  0  0  0  0  0  0  0  0  0  0
   26.0671   25.5457    7.0338 C   0  0  1  0  0  0  0  0  0  0  0  0
   21.6922   28.4420   12.6877 N   0  0  0  0  0  0  0  0  0  0  0  0
   26.8928   25.3001    8.1692 O   0  0  0  0  0  0  0  0  0  0  0  0
   21.1241   25.2311    6.5033 C   0  0  2  0  0  0  0  0  0  0  0  0
   21.2320   24.0315    5.6826 N   0  0  0  0  0  0  0  0  0  0  0  0
   24.0243   27.5938   12.8924 C   0  0  0  0  0  0  0  0  0  0  0  0
   23.6688   26.2152   12.2589 C   0  0  0  0  0  0  0  0  0  0  0  0
   22.8297   28.2578   13.6257 C   0  0  0  0  0  0  0  0  0  0  0  0
   23.1302   25.2590   13.2722 N   0  0  0  0  0  0  0  0  0  0  0  0
   20.6981   24.2548   10.9169 O   0  0  0  0  0  0  0  0  0  0  0  0
   26.9089   25.8977    5.7910 C   0  0  2  0  0  0  0  0  0  0  0  0
   27.7377   27.0385    5.9986 O   0  0  0  0  0  0  0  0  0  0  0  0
   22.5039   25.5730    7.0292 C   0  0  2  0  0  0  0  0  0  0  0  0
   26.0061   26.1448    4.5689 C   0  0  2  0  0  0  0  0  0  0  0  0
   25.1428   25.0266    4.3353 O   0  0  0  0  0  0  0  0  0  0  0  0
   22.4324   26.8855    7.9105 C   0  0  2  0  0  0  0  0  0  0  0  0
   23.7714   27.1808    8.4185 O   0  0  0  0  0  0  0  0  0  0  0  0
   26.8091   26.4093    3.3234 C   0  0  0  0  0  0  0  0  0  0  0  0
   27.6109   27.5155    3.4928 O   0  0  0  0  0  0  0  0  0  0  0  0
   21.4434   26.6419    9.1003 C   0  0  1  0  0  0  0  0  0  0  0  0
   21.3333   27.7629    9.9283 O   0  0  0  0  0  0  0  0  0  0  0  0
  1  2  1  1  0  0  0
  1  5  1  0  0  0  0
  1 30  1  0  0  0  0
  3  4  1  1  0  0  0
  3  7  1  0  0  0  0
  3 35  1  0  0  0  0
  5  6  1  1  0  0  0
  5 16  1  0  0  0  0
  7 19  1  0  0  0  0
  8  4  1  0  0  0  0
  8 25  2  0  0  0  0
  9  8  1  1  0  0  0
  9 10  1  0  0  0  0
  9 13  1  0  0  0  0
 10 11  1  0  0  0  0
 11 12  1  0  0  0  0
 14 15  1  0  0  0  0
 14 36  1  0  0  0  0
 15 17  1  0  0  0  0
 16 18  1  1  0  0  0
 16 26  1  0  0  0  0
 17 23  1  0  0  0  0
 19 20  1  1  0  0  0
 19 28  1  0  0  0  0
 21 22  1  0  0  0  0
 21 23  1  0  0  0  0
 22 24  1  0  0  0  0
 26 27  1  1  0  0  0
 26 29  1  0  0  0  0
 28  2  1  6  0  0  0
 28 31  1  0  0  0  0
 29 30  1  0  0  0  0
 29 33  1  6  0  0  0
 31 32  1  1  0  0  0
 31 35  1  0  0  0  0
 33 34  1  0  0  0  0
 35 36  1  6  0  0  0
M  END
>  <CHROM.1>
-56.42205608,66.09363016,174.66993649,64.87570486,-82.05872780,-54.38618422
-164.55880683,151.40011453,-69.31535126,-56.40529081,-57.94581508,-100.06911526
-59.55486315,-51.45909788,22.76421657,25.97822266,8.90769678,0.81507783,-0.40596798
-1.92096442

>  <Name>
2f4u_lig

>  <RI>
0

>  <Rbt.Current_Directory>
/home/itssahil/PROJECTS/Mol_Feturizer/New_Systems/rnas/2f4u

>  <Rbt.Executable>
rbdock ($Id: //depot/dev/client3/rdock/2013.1/src/exe/rbdock.cxx#4 $)

>  <Rbt.Library>
libRbt.so (2013.1, Build901 2013/11/27)

>  <Rbt.Parameter_File>
/export/apps/rDock/src/rDock_2013.1_src/data/scripts/dock_solv.prm

>  <Rbt.Receptor>
prm/blind_docking_40.prm

>  <SCORE>
4.67447

>  <SCORE.INTER>
-0.832904

>  <SCORE.INTER.CONST>
1

>  <SCORE.INTER.POLAR>
0

>  <SCORE.INTER.ROT>
14

>  <SCORE.INTER.SOLV>
12.7347

>  <SCORE.INTER.VDW>
-17.7335

>  <SCORE.INTER.norm>
-0.0231362

>  <SCORE.INTRA>
-1.33145

>  <SCORE.INTRA.DIHEDRAL>
-16.0438

>  <SCORE.INTRA.DIHEDRAL.0>
26.3805

>  <SCORE.INTRA.POLAR>
0

>  <SCORE.INTRA.POLAR.0>
0

>  <SCORE.INTRA.REPUL>
0.00434621

>  <SCORE.INTRA.REPUL.0>
0

>  <SCORE.INTRA.SOLV>
14.1815

>  <SCORE.INTRA.SOLV.lig_0>
-98.5587

>  <SCORE.INTRA.VDW>
-0.421991

>  <SCORE.INTRA.VDW.0>
-2.91167

>  <SCORE.INTRA.norm>
-0.0369848

>  <SCORE.RESTR>
6.83883

>  <SCORE.RESTR.CAVITY>
6.83883

>  <SCORE.RESTR.norm>
0.189967

>  <SCORE.SYSTEM>
0

>  <SCORE.SYSTEM.CONST>
0

>  <SCORE.SYSTEM.DIHEDRAL>
0

>  <SCORE.SYSTEM.SOLV>
0

>  <SCORE.SYSTEM.norm>
0

>  <SCORE.heavy>
36

>  <SCORE.norm>
0.129846

>  <RMSD>
27.037

$$$$
2f4u_lig
 OpenBabel11021811433D
libRbt.so/2013.1/901 2013/11/27
 36 37  0  0  0  0  0  0  0  0999 V2000
   23.0383   26.5226    4.3532 C   0  0  2  0  0  0  0  0  0  0  0  0
   22.2372   26.8451    5.5500 O   0  0  0  0  0  0  0  0  0  0  0  0
   21.9748   25.7670    9.7528 C   0  0  2  0  0  0  0  0  0  0  0  0
   22.1512   24.9853   11.0068 N   0  0  0  0  0  0  0  0  0  0  0  0
   22.5620   25.1214    3.8594 C   0  0  2  0  0  0  0  0  0  0  0  0
   21.1228   25.0904    3.5402 N   0  0  0  0  0  0  0  0  0  0  0  0
   21.1968   24.9491    8.6625 C   0  0  0  0  0  0  0  0  0  0  0  0
   20.5855   24.3791   11.6138 C   0  0  0  0  0  0  0  0  0  0  0  0
   21.3822   23.9218   12.7952 C   0  0  1  0  0  0  0  0  0  0  0  0
   21.0849   24.8910   13.9449 C   0  0  0  0  0  0  0  0  0  0  0  0
   21.5851   26.3346   13.7520 C   0  0  0  0  0  0  0  0  0  0  0  0
   21.4372   27.0521   15.0197 N   0  0  0  0  0  0  0  0  0  0  0  0
   20.9662   22.6453   13.1976 O   0  0  0  0  0  0  0  0  0  0  0  0
   24.4549   27.9655   11.0346 C   0  0  0  0  0  0  0  0  0  0  0  0
   23.2999   28.3937   11.9275 C   0  0  0  0  0  0  0  0  0  0  0  0
   22.8906   24.0596    4.9609 C   0  0  1  0  0  0  0  0  0  0  0  0
   22.7765   29.7430   11.6333 N   0  0  0  0  0  0  0  0  0  0  0  0
   22.4639   22.7596    4.5618 O   0  0  0  0  0  0  0  0  0  0  0  0
   21.0678   25.7469    7.3489 C   0  0  2  0  0  0  0  0  0  0  0  0
   20.3852   24.9695    6.3222 N   0  0  0  0  0  0  0  0  0  0  0  0
   20.3499   29.2183   11.4422 C   0  0  0  0  0  0  0  0  0  0  0  0
   20.7021   28.8207    9.9772 C   0  0  0  0  0  0  0  0  0  0  0  0
   21.4202   30.1239   12.1056 C   0  0  0  0  0  0  0  0  0  0  0  0
   19.6670   27.9249    9.3792 N   0  0  0  0  0  0  0  0  0  0  0  0
   19.5597   24.4090   11.2848 O   0  0  0  0  0  0  0  0  0  0  0  0
   24.4087   24.0968    5.2274 C   0  0  2  0  0  0  0  0  0  0  0  0
   24.8098   23.1653    6.2290 O   0  0  0  0  0  0  0  0  0  0  0  0
   22.4383   26.1269    6.8249 C   0  0  2  0  0  0  0  0  0  0  0  0
   24.8585   25.5094    5.6419 C   0  0  2  0  0  0  0  0  0  0  0  0
   24.4589   26.4804    4.6685 O   0  0  0  0  0  0  0  0  0  0  0  0
   23.2052   26.9921    7.9056 C   0  0  2  0  0  0  0  0  0  0  0  0
   24.5283   27.3283    7.3817 O   0  0  0  0  0  0  0  0  0  0  0  0
   26.3502   25.5904    5.8276 C   0  0  0  0  0  0  0  0  0  0  0  0
   26.7473   24.8054    6.8864 O   0  0  0  0  0  0  0  0  0  0  0  0
   23.3410   26.1529    9.2210 C   0  0  1  0  0  0  0  0  0  0  0  0
   24.0160   26.8553   10.2236 O   0  0  0  0  0  0  0  0  0  0  0  0
  1  2  1  1  0  0  0
  1  5  1  0  0  0  0
  1 30  1  0  0  0  0
  3  4  1  1  0  0  0
  3  7  1  0  0  0  0
  3 35  1  0  0  0  0
  5  6  1  1  0  0  0
  5 16  1  0  0  0  0
  7 19  1  0  0  0  0
  8  4  1  0  0  0  0
  8 25  2  0  0  0  0
  9  8  1  6  0  0  0
  9 10  1  0  0  0  0
  9 13  1  0  0  0  0
 10 11  1  0  0  0  0
 11 12  1  0  0  0  0
 14 15  1  0  0  0  0
 14 36  1  0  0  0  0
 15 17  1  0  0  0  0
 16 18  1  6  0  0  0
 16 26  1  0  0  0  0
 17 23  1  0  0  0  0
 19 20  1  6  0  0  0
 19 28  1  0  0  0  0
 21 22  1  0  0  0  0
 21 23  1  0  0  0  0
 22 24  1  0  0  0  0
 26 27  1  1  0  0  0
 26 29  1  0  0  0  0
 28  2  1  6  0  0  0
 28 31  1  0  0  0  0
 29 30  1  0  0  0  0
 29 33  1  6  0  0  0
 31 32  1  6  0  0  0
 31 35  1  0  0  0  0
 33 34  1  0  0  0  0
 35 36  1  1  0  0  0
M  END
>  <CHROM.1>
70.63695039,-54.00433011,104.52112819,-66.61835139,-169.95871434,-114.13625200
72.59821665,160.87742194,-62.73197139,178.72300832,-34.99131232,-133.53789228
-65.38384558,-86.74695669,22.51572088,25.97730159,8.74262492,-0.94948510
1.07256027,0.79797023

>  <Name>
2f4u_lig

>  <RI>
0

>  <Rbt.Current_Directory>
/home/itssahil/PROJECTS/Mol_Feturizer/New_Systems/rnas/2f4u

>  <Rbt.Executable>
rbdock ($Id: //depot/dev/client3/rdock/2013.1/src/exe/rbdock.cxx#4 $)

>  <Rbt.Library>
libRbt.so (2013.1, Build901 2013/11/27)

>  <Rbt.Parameter_File>
/export/apps/rDock/src/rDock_2013.1_src/data/scripts/dock_solv.prm

>  <Rbt.Receptor>
prm/blind_docking_60.prm

>  <SCORE>
13.8832

>  <SCORE.INTER>
3.08439

>  <SCORE.INTER.CONST>
1

>  <SCORE.INTER.POLAR>
0

>  <SCORE.INTER.ROT>
14

>  <SCORE.INTER.SOLV>
17.0522

>  <SCORE.INTER.VDW>
-16.5611

>  <SCORE.INTER.norm>
0.0856774

>  <SCORE.INTRA>
4.12484

>  <SCORE.INTRA.DIHEDRAL>
-5.08522

>  <SCORE.INTRA.DIHEDRAL.0>
26.3805

>  <SCORE.INTRA.POLAR>
0

>  <SCORE.INTRA.POLAR.0>
0

>  <SCORE.INTRA.REPUL>
0

>  <SCORE.INTRA.REPUL.0>
0

>  <SCORE.INTRA.SOLV>
12.6261

>  <SCORE.INTRA.SOLV.lig_0>
-98.5587

>  <SCORE.INTRA.VDW>
0.354409

>  <SCORE.INTRA.VDW.0>
-2.91167

>  <SCORE.INTRA.norm>
0.114579

>  <SCORE.RESTR>
6.67396

>  <SCORE.RESTR.CAVITY>
6.67396

>  <SCORE.RESTR.norm>
0.185388

>  <SCORE.SYSTEM>
0

>  <SCORE.SYSTEM.CONST>
0

>  <SCORE.SYSTEM.DIHEDRAL>
0

>  <SCORE.SYSTEM.SOLV>
0

>  <SCORE.SYSTEM.norm>
0

>  <SCORE.heavy>
36

>  <SCORE.norm>
0.385644

>  <RMSD>
27.047

$$$$
2f4u_lig
 OpenBabel11021811433D
libRbt.so/2013.1/901 2013/11/27
 36 37  0  0  0  0  0  0  0  0999 V2000
   22.3333   28.0772   11.5497 C   0  0  2  0  0  0  0  0  0  0  0  0
   23.6369   27.3989   11.6852 O   0  0  0  0  0  0  0  0  0  0  0  0
   25.0897   26.9608    7.6118 C   0  0  2  0  0  0  0  0  0  0  0  0
   25.8771   26.4460    6.4586 N   0  0  0  0  0  0  0  0  0  0  0  0
   22.1766   29.0003   12.7976 C   0  0  2  0  0  0  0  0  0  0  0  0
   23.2634   29.9903   12.9121 N   0  0  0  0  0  0  0  0  0  0  0  0
   26.0181   27.5348    8.7396 C   0  0  0  0  0  0  0  0  0  0  0  0
   27.5657   26.1094    6.9304 C   0  0  0  0  0  0  0  0  0  0  0  0
   27.7707   25.8452    5.4717 C   0  0  1  0  0  0  0  0  0  0  0  0
   28.2818   27.1463    4.8430 C   0  0  0  0  0  0  0  0  0  0  0  0
   27.3735   28.3776    5.0165 C   0  0  0  0  0  0  0  0  0  0  0  0
   26.0358   28.0428    4.5240 N   0  0  0  0  0  0  0  0  0  0  0  0
   28.7588   24.8683    5.2887 O   0  0  0  0  0  0  0  0  0  0  0  0
   22.4980   25.3012    6.0568 C   0  0  0  0  0  0  0  0  0  0  0  0
   21.2058   25.9400    6.5435 C   0  0  0  0  0  0  0  0  0  0  0  0
   22.1255   28.1082   14.0822 C   0  0  1  0  0  0  0  0  0  0  0  0
   20.7537   25.4584    7.8644 N   0  0  0  0  0  0  0  0  0  0  0  0
   21.9935   28.9072   15.2550 O   0  0  0  0  0  0  0  0  0  0  0  0
   25.1956   28.0147    9.9528 C   0  0  2  0  0  0  0  0  0  0  0  0
   26.0606   28.5057   11.0181 N   0  0  0  0  0  0  0  0  0  0  0  0
   18.3092   25.8031    8.1898 C   0  0  0  0  0  0  0  0  0  0  0  0
   17.9775   24.3237    8.5499 C   0  0  0  0  0  0  0  0  0  0  0  0
   19.7359   26.2335    8.6200 C   0  0  0  0  0  0  0  0  0  0  0  0
   18.8889   23.3642    7.8572 N   0  0  0  0  0  0  0  0  0  0  0  0
   28.1427   26.1536    7.8396 O   0  0  0  0  0  0  0  0  0  0  0  0
   20.9488   27.1226   13.9369 C   0  0  2  0  0  0  0  0  0  0  0  0
   20.8227   26.2541   15.0601 O   0  0  0  0  0  0  0  0  0  0  0  0
   24.3582   26.8788   10.5058 C   0  0  2  0  0  0  0  0  0  0  0  0
   21.0955   26.2776   12.6587 C   0  0  2  0  0  0  0  0  0  0  0  0
   21.2427   27.1139   11.5058 O   0  0  0  0  0  0  0  0  0  0  0  0
   23.3879   26.3307    9.3821 C   0  0  2  0  0  0  0  0  0  0  0  0
   22.6069   25.2261    9.9371 O   0  0  0  0  0  0  0  0  0  0  0  0
   19.9162   25.3651   12.4519 C   0  0  0  0  0  0  0  0  0  0  0  0
   20.0828   24.6136   11.3106 O   0  0  0  0  0  0  0  0  0  0  0  0
   24.2476   25.8315    8.1717 C   0  0  1  0  0  0  0  0  0  0  0  0
   23.4537   25.3264    7.1379 O   0  0  0  0  0  0  0  0  0  0  0  0
  1  2  1  1  0  0  0
  1  5  1  0  0  0  0
  1 30  1  0  0  0  0
  3  4  1  6  0  0  0
  3  7  1  0  0  0  0
  3 35  1  0  0  0  0
  5  6  1  1  0  0  0
  5 16  1  0  0  0  0
  7 19  1  0  0  0  0
  8  4  1  0  0  0  0
  8 25  2  0  0  0  0
  9  8  1  1  0  0  0
  9 10  1  0  0  0  0
  9 13  1  0  0  0  0
 10 11  1  0  0  0  0
 11 12  1  0  0  0  0
 14 15  1  0  0  0  0
 14 36  1  0  0  0  0
 15 17  1  0  0  0  0
 16 18  1  1  0  0  0
 16 26  1  0  0  0  0
 17 23  1  0  0  0  0
 19 20  1  1  0  0  0
 19 28  1  0  0  0  0
 21 22  1  0  0  0  0
 21 23  1  0  0  0  0
 22 24  1  0  0  0  0
 26 27  1  1  0  0  0
 26 29  1  0  0  0  0
 28  2  1  1  0  0  0
 28 31  1  0  0  0  0
 29 30  1  0  0  0  0
 29 33  1  6  0  0  0
 31 32  1  1  0  0  0
 31 35  1  0  0  0  0
 33 34  1  0  0  0  0
 35 36  1  6  0  0  0
M  END
>  <CHROM.1>
-155.86938151,19.99918789,94.52372159,-57.61080477,-54.17309805,-46.98032034
-52.80994704,163.68949857,86.75415567,-61.88326529,64.74492954,86.87529517
-179.36568113,-55.79101122,23.29417042,26.59452694,9.40636234,-2.39455647
-0.34446023,-1.95226183

>  <Name>
2f4u_lig

>  <RI>
0

>  <Rbt.Current_Directory>
/home/itssahil/PROJECTS/Mol_Feturizer/New_Systems/rnas/2f4u

>  <Rbt.Executable>
rbdock ($Id: //depot/dev/client3/rdock/2013.1/src/exe/rbdock.cxx#4 $)

>  <Rbt.Library>
libRbt.so (2013.1, Build901 2013/11/27)

>  <Rbt.Parameter_File>
/export/apps/rDock/src/rDock_2013.1_src/data/scripts/dock_solv.prm

>  <Rbt.Receptor>
prm/blind_docking_100.prm

>  <SCORE>
3.6506

>  <SCORE.INTER>
3.01065

>  <SCORE.INTER.CONST>
1

>  <SCORE.INTER.POLAR>
-0.289463

>  <SCORE.INTER.ROT>
14

>  <SCORE.INTER.SOLV>
15.8598

>  <SCORE.INTER.VDW>
-15.248

>  <SCORE.INTER.norm>
0.0836293

>  <SCORE.INTRA>
-2.30958

>  <SCORE.INTRA.DIHEDRAL>
-16.0902

>  <SCORE.INTRA.DIHEDRAL.0>
26.3805

>  <SCORE.INTRA.POLAR>
0

>  <SCORE.INTRA.POLAR.0>
0

>  <SCORE.INTRA.REPUL>
0

>  <SCORE.INTRA.REPUL.0>
0

>  <SCORE.INTRA.SOLV>
11.7324

>  <SCORE.INTRA.SOLV.lig_0>
-98.5587

>  <SCORE.INTRA.VDW>
-0.13069

>  <SCORE.INTRA.VDW.0>
-2.91167

>  <SCORE.INTRA.norm>
-0.064155

>  <SCORE.RESTR>
2.94952

>  <SCORE.RESTR.CAVITY>
2.94952

>  <SCORE.RESTR.norm>
0.0819312

>  <SCORE.SYSTEM>
0

>  <SCORE.SYSTEM.CONST>
0

>  <SCORE.SYSTEM.DIHEDRAL>
0

>  <SCORE.SYSTEM.SOLV>
0

>  <SCORE.SYSTEM.norm>
0

>  <SCORE.heavy>
36

>  <SCORE.norm>
0.101406

>  <RMSD>
27.067

$$$$
2f4u_lig
 OpenBabel11021811433D
libRbt.so/2013.1/901 2013/11/27
 36 37  0  0  0  0  0  0  0  0999 V2000
   22.1447   22.9213   12.2508 C   0  0  2  0  0  0  0  0  0  0  0  0
   21.4337   22.8063   10.9628 O   0  0  0  0  0  0  0  0  0  0  0  0
   23.3110   25.6420    8.2554 C   0  0  2  0  0  0  0  0  0  0  0  0
   23.8973   26.2017    7.0073 N   0  0  0  0  0  0  0  0  0  0  0  0
   21.0517   22.9732   13.3629 C   0  0  2  0  0  0  0  0  0  0  0  0
   20.1805   21.7836   13.3594 N   0  0  0  0  0  0  0  0  0  0  0  0
   24.0762   24.3572    8.7319 C   0  0  0  0  0  0  0  0  0  0  0  0
   23.7302   25.0571    5.6474 C   0  0  0  0  0  0  0  0  0  0  0  0
   24.5647   26.0475    4.8975 C   0  0  1  0  0  0  0  0  0  0  0  0
   25.9858   25.4779    4.8223 C   0  0  0  0  0  0  0  0  0  0  0  0
   26.8201   25.5833    6.1124 C   0  0  0  0  0  0  0  0  0  0  0  0
   27.0328   27.0000    6.4150 N   0  0  0  0  0  0  0  0  0  0  0  0
   24.0928   26.1860    3.5850 O   0  0  0  0  0  0  0  0  0  0  0  0
   20.7932   27.8401    7.5032 C   0  0  0  0  0  0  0  0  0  0  0  0
   20.5660   28.3265    8.9267 C   0  0  0  0  0  0  0  0  0  0  0  0
   20.1939   24.2673   13.1676 C   0  0  1  0  0  0  0  0  0  0  0  0
   21.7891   28.3701    9.7531 N   0  0  0  0  0  0  0  0  0  0  0  0
   19.1704   24.3567   14.1555 O   0  0  0  0  0  0  0  0  0  0  0  0
   23.4271   23.7537    9.9941 C   0  0  2  0  0  0  0  0  0  0  0  0
   24.1104   22.5353   10.4098 N   0  0  0  0  0  0  0  0  0  0  0  0
   21.0154   30.1966   11.2583 C   0  0  0  0  0  0  0  0  0  0  0  0
   20.6643   30.6182   12.7168 C   0  0  0  0  0  0  0  0  0  0  0  0
   21.7032   28.8092   11.1700 C   0  0  0  0  0  0  0  0  0  0  0  0
   21.8530   30.5465   13.6186 N   0  0  0  0  0  0  0  0  0  0  0  0
   23.2860   24.0866    5.4979 O   0  0  0  0  0  0  0  0  0  0  0  0
   21.1390   25.4841   13.2244 C   0  0  2  0  0  0  0  0  0  0  0  0
   20.4499   26.7191   13.0465 O   0  0  0  0  0  0  0  0  0  0  0  0
   21.9730   23.4171    9.7307 C   0  0  2  0  0  0  0  0  0  0  0  0
   22.2483   25.3672   12.1635 C   0  0  2  0  0  0  0  0  0  0  0  0
   22.9557   24.1294   12.2964 O   0  0  0  0  0  0  0  0  0  0  0  0
   21.1901   24.7219    9.2959 C   0  0  2  0  0  0  0  0  0  0  0  0
   19.7971   24.3647    9.0313 O   0  0  0  0  0  0  0  0  0  0  0  0
   23.2320   26.5031   12.2539 C   0  0  0  0  0  0  0  0  0  0  0  0
   24.0036   26.3833   13.3876 O   0  0  0  0  0  0  0  0  0  0  0  0
   21.8553   25.3027    8.0023 C   0  0  1  0  0  0  0  0  0  0  0  0
   21.2100   26.4593    7.5551 O   0  0  0  0  0  0  0  0  0  0  0  0
  1  2  1  6  0  0  0
  1  5  1  0  0  0  0
  1 30  1  0  0  0  0
  3  4  1  6  0  0  0
  3  7  1  0  0  0  0
  3 35  1  0  0  0  0
  5  6  1  6  0  0  0
  5 16  1  0  0  0  0
  7 19  1  0  0  0  0
  8  4  1  0  0  0  0
  8 25  2  0  0  0  0
  9  8  1  1  0  0  0
  9 10  1  0  0  0  0
  9 13  1  0  0  0  0
 10 11  1  0  0  0  0
 11 12  1  0  0  0  0
 14 15  1  0  0  0  0
 14 36  1  0  0  0  0
 15 17  1  0  0  0  0
 16 18  1  1  0  0  0
 16 26  1  0  0  0  0
 17 23  1  0  0  0  0
 19 20  1  6  0  0  0
 19 28  1  0  0  0  0
 21 22  1  0  0  0  0
 21 23  1  0  0  0  0
 22 24  1  0  0  0  0
 26 27  1  6  0  0  0
 26 29  1  0  0  0  0
 28  2  1  1  0  0  0
 28 31  1  0  0  0  0
 29 30  1  0  0  0  0
 29 33  1  1  0  0  0
 31 32  1  6  0  0  0
 31 35  1  0  0  0  0
 33 34  1  0  0  0  0
 35 36  1  1  0  0  0
M  END
>  <CHROM.1>
147.12885991,63.86541806,103.17976915,-76.46868103,-64.03498838,65.42144290
-38.36502360,-179.14677192,-54.04267163,53.36069766,170.04458183,15.57169522
70.70183477,-48.15001535,22.39602295,25.68866326,9.82969104,-2.98174818,1.11423220
-0.17046935

>  <Name>
2f4u_lig

>  <RI>
0

>  <Rbt.Current_Directory>
/home/itssahil/PROJECTS/Mol_Feturizer/New_Systems/rnas/2f4u

>  <Rbt.Executable>
rbdock ($Id: //depot/dev/client3/rdock/2013.1/src/exe/rbdock.cxx#4 $)

>  <Rbt.Library>
libRbt.so (2013.1, Build901 2013/11/27)

>  <Rbt.Parameter_File>
/export/apps/rDock/src/rDock_2013.1_src/data/scripts/dock_solv.prm

>  <Rbt.Receptor>
prm/blind_docking_40.prm

>  <SCORE>
5.15867

>  <SCORE.INTER>
-4.37105

>  <SCORE.INTER.CONST>
1

>  <SCORE.INTER.POLAR>
-1

>  <SCORE.INTER.ROT>
14

>  <SCORE.INTER.SOLV>
22.2034

>  <SCORE.INTER.VDW>
-19.9152

>  <SCORE.INTER.norm>
-0.121418

>  <SCORE.INTRA>
4.31505

>  <SCORE.INTRA.DIHEDRAL>
-9.10834

>  <SCORE.INTRA.DIHEDRAL.0>
26.3805

>  <SCORE.INTRA.POLAR>
0

>  <SCORE.INTRA.POLAR.0>
0

>  <SCORE.INTRA.REPUL>
0

>  <SCORE.INTRA.REPUL.0>
0

>  <SCORE.INTRA.SOLV>
8.25836

>  <SCORE.INTRA.SOLV.lig_0>
-98.5587

>  <SCORE.INTRA.VDW>
4.74004

>  <SCORE.INTRA.VDW.0>
-2.91167

>  <SCORE.INTRA.norm>
0.119862

>  <SCORE.RESTR>
5.21467

>  <SCORE.RESTR.CAVITY>
5.21467

>  <SCORE.RESTR.norm>
0.144852

>  <SCORE.SYSTEM>
0

>  <SCORE.SYSTEM.CONST>
0

>  <SCORE.SYSTEM.DIHEDRAL>
0

>  <SCORE.SYSTEM.SOLV>
0

>  <SCORE.SYSTEM.norm>
0

>  <SCORE.heavy>
36

>  <SCORE.norm>
0.143296

>  <RMSD>
27.067

$$$$
2f4u_lig
 OpenBabel11021811433D
libRbt.so/2013.1/901 2013/11/27
 36 37  0  0  0  0  0  0  0  0999 V2000
   20.5463   27.7278   11.2009 C   0  0  2  0  0  0  0  0  0  0  0  0
   21.8979   28.2297   10.8861 O   0  0  0  0  0  0  0  0  0  0  0  0
   24.8870   26.8465    8.0493 C   0  0  2  0  0  0  0  0  0  0  0  0
   25.9296   25.9840    7.4298 N   0  0  0  0  0  0  0  0  0  0  0  0
   20.0051   28.6032   12.3735 C   0  0  2  0  0  0  0  0  0  0  0  0
   19.9568   30.0378   12.0362 N   0  0  0  0  0  0  0  0  0  0  0  0
   25.3004   27.3151    9.4890 C   0  0  0  0  0  0  0  0  0  0  0  0
   26.7531   26.8298    6.0904 C   0  0  0  0  0  0  0  0  0  0  0  0
   27.4270   25.5131    5.8624 C   0  0  1  0  0  0  0  0  0  0  0  0
   27.9443   25.5127    4.4195 C   0  0  0  0  0  0  0  0  0  0  0  0
   26.9226   25.9158    3.3402 C   0  0  0  0  0  0  0  0  0  0  0  0
   27.5560   25.7836    2.0267 N   0  0  0  0  0  0  0  0  0  0  0  0
   28.5347   25.3806    6.7107 O   0  0  0  0  0  0  0  0  0  0  0  0
   23.3655   24.9467    5.5698 C   0  0  0  0  0  0  0  0  0  0  0  0
   22.0049   24.9810    4.8899 C   0  0  0  0  0  0  0  0  0  0  0  0
   20.9089   28.3774   13.6307 C   0  0  1  0  0  0  0  0  0  0  0  0
   20.8719   25.1843    5.8150 N   0  0  0  0  0  0  0  0  0  0  0  0
   20.4616   29.1659   14.7306 O   0  0  0  0  0  0  0  0  0  0  0  0
   24.1900   28.1621   10.1434 C   0  0  2  0  0  0  0  0  0  0  0  0
   24.5554   28.5589   11.4974 N   0  0  0  0  0  0  0  0  0  0  0  0
   18.9953   24.3941    7.2482 C   0  0  0  0  0  0  0  0  0  0  0  0
   19.3128   23.4685    8.4609 C   0  0  0  0  0  0  0  0  0  0  0  0
   19.8749   24.0992    6.0052 C   0  0  0  0  0  0  0  0  0  0  0  0
   20.7644   23.4898    8.8127 N   0  0  0  0  0  0  0  0  0  0  0  0
   26.7075   27.8100    5.6449 O   0  0  0  0  0  0  0  0  0  0  0  0
   20.8917   26.8740   13.9719 C   0  0  2  0  0  0  0  0  0  0  0  0
   21.6982   26.5624   15.1051 O   0  0  0  0  0  0  0  0  0  0  0  0
   22.8963   27.3754   10.2113 C   0  0  2  0  0  0  0  0  0  0  0  0
   21.3615   26.0335   12.7710 C   0  0  2  0  0  0  0  0  0  0  0  0
   20.5865   26.3295   11.6040 O   0  0  0  0  0  0  0  0  0  0  0  0
   22.4538   26.9432    8.7546 C   0  0  2  0  0  0  0  0  0  0  0  0
   21.2154   26.1720    8.8520 O   0  0  0  0  0  0  0  0  0  0  0  0
   21.2749   24.5571   13.0522 C   0  0  0  0  0  0  0  0  0  0  0  0
   22.0263   23.8483   12.1422 O   0  0  0  0  0  0  0  0  0  0  0  0
   23.5880   26.0684    8.1208 C   0  0  1  0  0  0  0  0  0  0  0  0
   23.2628   25.6441    6.8291 O   0  0  0  0  0  0  0  0  0  0  0  0
  1  2  1  1  0  0  0
  1  5  1  0  0  0  0
  1 30  1  0  0  0  0
  3  4  1  1  0  0  0
  3  7  1  0  0  0  0
  3 35  1  0  0  0  0
  5  6  1  6  0  0  0
  5 16  1  0  0  0  0
  7 19  1  0  0  0  0
  8  4  1  0  0  0  0
  8 25  2  0  0  0  0
  9  8  1  1  0  0  0
  9 10  1  0  0  0  0
  9 13  1  0  0  0  0
 10 11  1  0  0  0  0
 11 12  1  0  0  0  0
 14 15  1  0  0  0  0
 14 36  1  0  0  0  0
 15 17  1  0  0  0  0
 16 18  1  1  0  0  0
 16 26  1  0  0  0  0
 17 23  1  0  0  0  0
 19 20  1  1  0  0  0
 19 28  1  0  0  0  0
 21 22  1  0  0  0  0
 21 23  1  0  0  0  0
 22 24  1  0  0  0  0
 26 27  1  1  0  0  0
 26 29  1  0  0  0  0
 28  2  1  6  0  0  0
 28 31  1  0  0  0  0
 29 30  1  0  0  0  0
 29 33  1  1  0  0  0
 31 32  1  1  0  0  0
 31 35  1  0  0  0  0
 33 34  1  0  0  0  0
 35 36  1  6  0  0  0
M  END
>  <CHROM.1>
156.95823321,-109.66977005,159.32607745,-50.13889492,-176.63077489,-23.02321833
163.14917691,-114.11554120,166.36322228,53.50101829,-107.59321529,-175.67417575
-163.39503862,64.07728879,22.96086400,26.34207641,9.01835789,2.21420062,0.37277925
1.12481346

>  <Name>
2f4u_lig

>  <RI>
0

>  <Rbt.Current_Directory>
/home/itssahil/PROJECTS/Mol_Feturizer/New_Systems/rnas/2f4u

>  <Rbt.Executable>
rbdock ($Id: //depot/dev/client3/rdock/2013.1/src/exe/rbdock.cxx#4 $)

>  <Rbt.Library>
libRbt.so (2013.1, Build901 2013/11/27)

>  <Rbt.Parameter_File>
/export/apps/rDock/src/rDock_2013.1_src/data/scripts/dock_solv.prm

>  <Rbt.Receptor>
prm/blind_docking_40.prm

>  <SCORE>
4.93616

>  <SCORE.INTER>
1.56931

>  <SCORE.INTER.CONST>
1

>  <SCORE.INTER.POLAR>
0

>  <SCORE.INTER.ROT>
14

>  <SCORE.INTER.SOLV>
12.0393

>  <SCORE.INTER.VDW>
-15.9002

>  <SCORE.INTER.norm>
0.0435919

>  <SCORE.INTRA>
-3.34497

>  <SCORE.INTRA.DIHEDRAL>
-8.79231

>  <SCORE.INTRA.DIHEDRAL.0>
26.3805

>  <SCORE.INTRA.POLAR>
0

>  <SCORE.INTRA.POLAR.0>
0

>  <SCORE.INTRA.REPUL>
0

>  <SCORE.INTRA.REPUL.0>
0

>  <SCORE.INTRA.SOLV>
6.74038

>  <SCORE.INTRA.SOLV.lig_0>
-98.5587

>  <SCORE.INTRA.VDW>
-2.319

>  <SCORE.INTRA.VDW.0>
-2.91167

>  <SCORE.INTRA.norm>
-0.0929157

>  <SCORE.RESTR>
6.71182

>  <SCORE.RESTR.CAVITY>
6.71182

>  <SCORE.RESTR.norm>
0.186439

>  <SCORE.SYSTEM>
0

>  <SCORE.SYSTEM.CONST>
0

>  <SCORE.SYSTEM.DIHEDRAL>
0

>  <SCORE.SYSTEM.SOLV>
0

>  <SCORE.SYSTEM.norm>
0

>  <SCORE.heavy>
36

>  <SCORE.norm>
0.137116

>  <RMSD>
27.069

$$$$
2f4u_lig
 OpenBabel11021811433D
libRbt.so/2013.1/901 2013/11/27
 36 37  0  0  0  0  0  0  0  0999 V2000
   21.7355   25.4125   12.8828 C   0  0  2  0  0  0  0  0  0  0  0  0
   22.1955   24.5006   11.8175 O   0  0  0  0  0  0  0  0  0  0  0  0
   23.7685   27.0315    8.6528 C   0  0  2  0  0  0  0  0  0  0  0  0
   24.6643   27.5136    7.5666 N   0  0  0  0  0  0  0  0  0  0  0  0
   20.3615   24.8649   13.3790 C   0  0  2  0  0  0  0  0  0  0  0  0
   20.4501   23.4831   13.8860 N   0  0  0  0  0  0  0  0  0  0  0  0
   24.5367   26.8722   10.0121 C   0  0  0  0  0  0  0  0  0  0  0  0
   25.8148   26.2425    7.0685 C   0  0  0  0  0  0  0  0  0  0  0  0
   26.4152   27.3181    6.2187 C   0  0  1  0  0  0  0  0  0  0  0  0
   27.8970   26.9736    6.0316 C   0  0  0  0  0  0  0  0  0  0  0  0
   28.1953   25.5589    5.5015 C   0  0  0  0  0  0  0  0  0  0  0  0
   27.6397   25.4404    4.1520 N   0  0  0  0  0  0  0  0  0  0  0  0
   25.8177   27.3262    4.9509 O   0  0  0  0  0  0  0  0  0  0  0  0
   21.6690   26.4502    6.0130 C   0  0  0  0  0  0  0  0  0  0  0  0
   20.2816   26.6320    6.6102 C   0  0  0  0  0  0  0  0  0  0  0  0
   19.3333   24.9399   12.2019 C   0  0  1  0  0  0  0  0  0  0  0  0
   19.4035   25.4530    6.4690 N   0  0  0  0  0  0  0  0  0  0  0  0
   18.0602   24.4392   12.6019 O   0  0  0  0  0  0  0  0  0  0  0  0
   23.6130   26.3198   11.1168 C   0  0  2  0  0  0  0  0  0  0  0  0
   24.3379   26.1292   12.3668 N   0  0  0  0  0  0  0  0  0  0  0  0
   18.7757   23.3899    7.7139 C   0  0  0  0  0  0  0  0  0  0  0  0
   18.2763   24.1958    8.9506 C   0  0  0  0  0  0  0  0  0  0  0  0
   19.8861   24.1201    6.9141 C   0  0  0  0  0  0  0  0  0  0  0  0
   17.7693   25.5474    8.5667 N   0  0  0  0  0  0  0  0  0  0  0  0
   25.9987   25.2137    7.3316 O   0  0  0  0  0  0  0  0  0  0  0  0
   19.2405   26.4070   11.7369 C   0  0  2  0  0  0  0  0  0  0  0  0
   18.3297   26.5797   10.6541 O   0  0  0  0  0  0  0  0  0  0  0  0
   23.0283   24.9857   10.6981 C   0  0  2  0  0  0  0  0  0  0  0  0
   20.6241   26.9399   11.3231 C   0  0  2  0  0  0  0  0  0  0  0  0
   21.5756   26.7691   12.3793 O   0  0  0  0  0  0  0  0  0  0  0  0
   22.2135   25.1553    9.3521 C   0  0  2  0  0  0  0  0  0  0  0  0
   21.6772   23.8518    8.9630 O   0  0  0  0  0  0  0  0  0  0  0  0
   20.5732   28.3957   10.9434 C   0  0  0  0  0  0  0  0  0  0  0  0
   20.2053   29.1633   12.0253 O   0  0  0  0  0  0  0  0  0  0  0  0
   23.1776   25.6970    8.2428 C   0  0  1  0  0  0  0  0  0  0  0  0
   22.5247   25.8676    7.0185 O   0  0  0  0  0  0  0  0  0  0  0  0
  1  2  1  6  0  0  0
  1  5  1  0  0  0  0
  1 30  1  0  0  0  0
  3  4  1  6  0  0  0
  3  7  1  0  0  0  0
  3 35  1  0  0  0  0
  5  6  1  6  0  0  0
  5 16  1  0  0  0  0
  7 19  1  0  0  0  0
  8  4  1  0  0  0  0
  8 25  2  0  0  0  0
  9  8  1  1  0  0  0
  9 10  1  0  0  0  0
  9 13  1  0  0  0  0
 10 11  1  0  0  0  0
 11 12  1  0  0  0  0
 14 15  1  0  0  0  0
 14 36  1  0  0  0  0
 15 17  1  0  0  0  0
 16 18  1  1  0  0  0
 16 26  1  0  0  0  0
 17 23  1  0  0  0  0
 19 20  1  1  0  0  0
 19 28  1  0  0  0  0
 21 22  1  0  0  0  0
 21 23  1  0  0  0  0
 22 24  1  0  0  0  0
 26 27  1  6  0  0  0
 26 29  1  0  0  0  0
 28  2  1  1  0  0  0
 28 31  1  0  0  0  0
 29 30  1  0  0  0  0
 29 33  1  1  0  0  0
 31 32  1  6  0  0  0
 31 35  1  0  0  0  0
 33 34  1  0  0  0  0
 35 36  1  6  0  0  0
M  END
>  <CHROM.1>
149.29561859,71.16354125,152.69608606,53.13060081,63.94594298,-87.86695717
-53.38169534,52.01171013,135.48923599,57.11587675,-57.26928087,17.57259146
63.44456343,-46.99479872,22.19762802,25.86717376,9.22940904,-2.46667214,-0.19583008
-1.65316968

>  <Name>
2f4u_lig

>  <RI>
0

>  <Rbt.Current_Directory>
/home/itssahil/PROJECTS/Mol_Feturizer/New_Systems/rnas/2f4u

>  <Rbt.Executable>
rbdock ($Id: //depot/dev/client3/rdock/2013.1/src/exe/rbdock.cxx#4 $)

>  <Rbt.Library>
libRbt.so (2013.1, Build901 2013/11/27)

>  <Rbt.Parameter_File>
/export/apps/rDock/src/rDock_2013.1_src/data/scripts/dock_solv.prm

>  <Rbt.Receptor>
prm/blind_docking_40.prm

>  <SCORE>
14.8534

>  <SCORE.INTER>
6.15004

>  <SCORE.INTER.CONST>
1

>  <SCORE.INTER.POLAR>
0

>  <SCORE.INTER.ROT>
14

>  <SCORE.INTER.SOLV>
12.9353

>  <SCORE.INTER.VDW>
-13.1451

>  <SCORE.INTER.norm>
0.170835

>  <SCORE.INTRA>
6.44187

>  <SCORE.INTRA.DIHEDRAL>
-10.4768

>  <SCORE.INTRA.DIHEDRAL.0>
26.3805

>  <SCORE.INTRA.POLAR>
0

>  <SCORE.INTRA.POLAR.0>
0

>  <SCORE.INTRA.REPUL>
0

>  <SCORE.INTRA.REPUL.0>
0

>  <SCORE.INTRA.SOLV>
13.6785

>  <SCORE.INTRA.SOLV.lig_0>
-98.5587

>  <SCORE.INTRA.VDW>
4.841

>  <SCORE.INTRA.VDW.0>
-2.91167

>  <SCORE.INTRA.norm>
0.178941

>  <SCORE.RESTR>
2.26146

>  <SCORE.RESTR.CAVITY>
2.26146

>  <SCORE.RESTR.norm>
0.0628184

>  <SCORE.SYSTEM>
0

>  <SCORE.SYSTEM.CONST>
0

>  <SCORE.SYSTEM.DIHEDRAL>
0

>  <SCORE.SYSTEM.SOLV>
0

>  <SCORE.SYSTEM.norm>
0

>  <SCORE.heavy>
36

>  <SCORE.norm>
0.412594

>  <RMSD>
27.074

$$$$
2f4u_lig
 OpenBabel11021811433D
libRbt.so/2013.1/901 2013/11/27
 36 37  0  0  0  0  0  0  0  0999 V2000
   21.2388   26.4431   11.9209 C   0  0  2  0  0  0  0  0  0  0  0  0
   22.3567   25.4985   11.7318 O   0  0  0  0  0  0  0  0  0  0  0  0
   23.8617   26.5682    7.7966 C   0  0  2  0  0  0  0  0  0  0  0  0
   24.7740   26.6383    6.6228 N   0  0  0  0  0  0  0  0  0  0  0  0
   20.7703   26.2923   13.4014 C   0  0  2  0  0  0  0  0  0  0  0  0
   21.8479   26.5685   14.3693 N   0  0  0  0  0  0  0  0  0  0  0  0
   24.5437   27.1230    9.0967 C   0  0  0  0  0  0  0  0  0  0  0  0
   26.0876   25.4364    6.7552 C   0  0  0  0  0  0  0  0  0  0  0  0
   26.6259   26.1003    5.5267 C   0  0  1  0  0  0  0  0  0  0  0  0
   28.0807   26.4840    5.8195 C   0  0  0  0  0  0  0  0  0  0  0  0
   28.8607   27.1036    4.6452 C   0  0  0  0  0  0  0  0  0  0  0  0
   27.9648   28.0004    3.9124 N   0  0  0  0  0  0  0  0  0  0  0  0
   26.6320   25.2014    4.4514 O   0  0  0  0  0  0  0  0  0  0  0  0
   22.0510   24.6290    5.6455 C   0  0  0  0  0  0  0  0  0  0  0  0
   20.6465   25.0713    6.0282 C   0  0  0  0  0  0  0  0  0  0  0  0
   20.2187   24.8431   13.6112 C   0  0  1  0  0  0  0  0  0  0  0  0
   20.5641   26.4599    6.5241 N   0  0  0  0  0  0  0  0  0  0  0  0
   19.7862   24.6499   14.9555 O   0  0  0  0  0  0  0  0  0  0  0  0
   23.6103   26.9949   10.3178 C   0  0  2  0  0  0  0  0  0  0  0  0
   24.2606   27.4683   11.5333 N   0  0  0  0  0  0  0  0  0  0  0  0
   19.5249   27.3025    8.6242 C   0  0  0  0  0  0  0  0  0  0  0  0
   20.7084   28.2903    8.8514 C   0  0  0  0  0  0  0  0  0  0  0  0
   19.2992   26.9495    7.1308 C   0  0  0  0  0  0  0  0  0  0  0  0
   20.7097   28.8486   10.2369 N   0  0  0  0  0  0  0  0  0  0  0  0
   26.3631   24.6588    7.4485 O   0  0  0  0  0  0  0  0  0  0  0  0
   19.0670   24.6173   12.6113 C   0  0  2  0  0  0  0  0  0  0  0  0
   18.4998   23.3139   12.7176 O   0  0  0  0  0  0  0  0  0  0  0  0
   23.2086   25.5484   10.5261 C   0  0  2  0  0  0  0  0  0  0  0  0
   19.5433   24.8446   11.1653 C   0  0  2  0  0  0  0  0  0  0  0  0
   20.1370   26.1394   11.0191 O   0  0  0  0  0  0  0  0  0  0  0  0
   22.4784   25.0024    9.2325 C   0  0  2  0  0  0  0  0  0  0  0  0
   22.1191   23.6025    9.4544 O   0  0  0  0  0  0  0  0  0  0  0  0
   18.4162   24.7106   10.1765 C   0  0  0  0  0  0  0  0  0  0  0  0
   17.5615   25.7856   10.2714 O   0  0  0  0  0  0  0  0  0  0  0  0
   23.4533   25.1244    8.0127 C   0  0  1  0  0  0  0  0  0  0  0  0
   22.8747   24.6539    6.8302 O   0  0  0  0  0  0  0  0  0  0  0  0
  1  2  1  6  0  0  0
  1  5  1  0  0  0  0
  1 30  1  0  0  0  0
  3  4  1  6  0  0  0
  3  7  1  0  0  0  0
  3 35  1  0  0  0  0
  5  6  1  1  0  0  0
  5 16  1  0  0  0  0
  7 19  1  0  0  0  0
  8  4  1  0  0  0  0
  8 25  2  0  0  0  0
  9  8  1  1  0  0  0
  9 10  1  0  0  0  0
  9 13  1  0  0  0  0
 10 11  1  0  0  0  0
 11 12  1  0  0  0  0
 14 15  1  0  0  0  0
 14 36  1  0  0  0  0
 15 17  1  0  0  0  0
 16 18  1  1  0  0  0
 16 26  1  0  0  0  0
 17 23  1  0  0  0  0
 19 20  1  1  0  0  0
 19 28  1  0  0  0  0
 21 22  1  0  0  0  0
 21 23  1  0  0  0  0
 22 24  1  0  0  0  0
 26 27  1  6  0  0  0
 26 29  1  0  0  0  0
 28  2  1  1  0  0  0
 28 31  1  0  0  0  0
 29 30  1  0  0  0  0
 29 33  1  6  0  0  0
 31 32  1  1  0  0  0
 31 35  1  0  0  0  0
 33 34  1  0  0  0  0
 35 36  1  6  0  0  0
M  END
>  <CHROM.1>
-168.45735565,71.36675582,126.97643474,176.11491208,39.15181477,63.29549949
-47.75367003,-170.41731925,116.09558215,167.11352549,53.40084703,47.88408040
71.77778235,-44.35369717,22.43397131,25.88492658,9.14646389,-2.36714792,-0.11618127
-1.55836415

>  <Name>
2f4u_lig

>  <RI>
0

>  <Rbt.Current_Directory>
/home/itssahil/PROJECTS/Mol_Feturizer/New_Systems/rnas/2f4u

>  <Rbt.Executable>
rbdock ($Id: //depot/dev/client3/rdock/2013.1/src/exe/rbdock.cxx#4 $)

>  <Rbt.Library>
libRbt.so (2013.1, Build901 2013/11/27)

>  <Rbt.Parameter_File>
/export/apps/rDock/src/rDock_2013.1_src/data/scripts/dock_solv.prm

>  <Rbt.Receptor>
prm/blind_docking_40.prm

>  <SCORE>
0.342869

>  <SCORE.INTER>
3.09563

>  <SCORE.INTER.CONST>
1

>  <SCORE.INTER.POLAR>
0

>  <SCORE.INTER.ROT>
14

>  <SCORE.INTER.SOLV>
12.1325

>  <SCORE.INTER.VDW>
-14.9137

>  <SCORE.INTER.norm>
0.0859896

>  <SCORE.INTRA>
-6.73997

>  <SCORE.INTRA.DIHEDRAL>
-16.587

>  <SCORE.INTRA.DIHEDRAL.0>
26.3805

>  <SCORE.INTRA.POLAR>
0

>  <SCORE.INTRA.POLAR.0>
0

>  <SCORE.INTRA.REPUL>
0

>  <SCORE.INTRA.REPUL.0>
0

>  <SCORE.INTRA.SOLV>
10.5105

>  <SCORE.INTRA.SOLV.lig_0>
-98.5587

>  <SCORE.INTRA.VDW>
-3.7017

>  <SCORE.INTRA.VDW.0>
-2.91167

>  <SCORE.INTRA.norm>
-0.187221

>  <SCORE.RESTR>
3.98721

>  <SCORE.RESTR.CAVITY>
3.98721

>  <SCORE.RESTR.norm>
0.110756

>  <SCORE.SYSTEM>
0

>  <SCORE.SYSTEM.CONST>
0

>  <SCORE.SYSTEM.DIHEDRAL>
0

>  <SCORE.SYSTEM.SOLV>
0

>  <SCORE.SYSTEM.norm>
0

>  <SCORE.heavy>
36

>  <SCORE.norm>
0.00952415

>  <RMSD>
27.084

$$$$
2f4u_lig
 OpenBabel11021811433D
libRbt.so/2013.1/901 2013/11/27
 36 37  0  0  0  0  0  0  0  0999 V2000
   24.4148   26.6202    6.6996 C   0  0  2  0  0  0  0  0  0  0  0  0
   24.1430   25.3326    7.3675 O   0  0  0  0  0  0  0  0  0  0  0  0
   21.8064   26.4818   10.8482 C   0  0  2  0  0  0  0  0  0  0  0  0
   21.0916   26.3690   12.1486 N   0  0  0  0  0  0  0  0  0  0  0  0
   24.0565   26.4280    5.1933 C   0  0  2  0  0  0  0  0  0  0  0  0
   22.6519   26.0281    4.9899 N   0  0  0  0  0  0  0  0  0  0  0  0
   21.2207   25.4972    9.7756 C   0  0  0  0  0  0  0  0  0  0  0  0
   21.4420   24.8090   12.9431 C   0  0  0  0  0  0  0  0  0  0  0  0
   20.4132   25.2469   13.9378 C   0  0  1  0  0  0  0  0  0  0  0  0
   19.4306   24.0839   14.1152 C   0  0  0  0  0  0  0  0  0  0  0  0
   18.6564   23.6610   12.8531 C   0  0  0  0  0  0  0  0  0  0  0  0
   18.3937   24.8542   12.0461 N   0  0  0  0  0  0  0  0  0  0  0  0
   21.0120   25.4903   15.1814 O   0  0  0  0  0  0  0  0  0  0  0  0
   23.8178   27.8038   13.2782 C   0  0  0  0  0  0  0  0  0  0  0  0
   22.7715   28.9067   13.2188 C   0  0  0  0  0  0  0  0  0  0  0  0
   25.0147   25.3538    4.5796 C   0  0  1  0  0  0  0  0  0  0  0  0
   22.7185   29.6207   11.9271 N   0  0  0  0  0  0  0  0  0  0  0  0
   24.7204   25.1328    3.2027 O   0  0  0  0  0  0  0  0  0  0  0  0
   22.0036   25.5823    8.4495 C   0  0  2  0  0  0  0  0  0  0  0  0
   21.4882   24.6354    7.4686 N   0  0  0  0  0  0  0  0  0  0  0  0
   20.4448   29.4231   10.9315 C   0  0  0  0  0  0  0  0  0  0  0  0
   19.3653   28.9453   11.9486 C   0  0  0  0  0  0  0  0  0  0  0  0
   21.4954   30.3781   11.5561 C   0  0  0  0  0  0  0  0  0  0  0  0
   19.9685   28.5525   13.2575 N   0  0  0  0  0  0  0  0  0  0  0  0
   22.0613   23.9520   12.7347 O   0  0  0  0  0  0  0  0  0  0  0  0
   26.4661   25.8361    4.7747 C   0  0  2  0  0  0  0  0  0  0  0  0
   27.4216   24.9158    4.2535 O   0  0  0  0  0  0  0  0  0  0  0  0
   23.4698   25.2761    8.6811 C   0  0  2  0  0  0  0  0  0  0  0  0
   26.7655   26.0862    6.2638 C   0  0  2  0  0  0  0  0  0  0  0  0
   25.8155   26.9945    6.8318 O   0  0  0  0  0  0  0  0  0  0  0  0
   24.0730   26.2988    9.7274 C   0  0  2  0  0  0  0  0  0  0  0  0
   25.4809   25.9690    9.9449 O   0  0  0  0  0  0  0  0  0  0  0  0
   28.1511   26.6367    6.4718 C   0  0  0  0  0  0  0  0  0  0  0  0
   28.3247   27.7924    5.7443 O   0  0  0  0  0  0  0  0  0  0  0  0
   23.2751   26.1780   11.0697 C   0  0  1  0  0  0  0  0  0  0  0  0
   23.7581   27.0528   12.0472 O   0  0  0  0  0  0  0  0  0  0  0  0
  1  2  1  1  0  0  0
  1  5  1  0  0  0  0
  1 30  1  0  0  0  0
  3  4  1  1  0  0  0
  3  7  1  0  0  0  0
  3 35  1  0  0  0  0
  5  6  1  1  0  0  0
  5 16  1  0  0  0  0
  7 19  1  0  0  0  0
  8  4  1  0  0  0  0
  8 25  2  0  0  0  0
  9  8  1  6  0  0  0
  9 10  1  0  0  0  0
  9 13  1  0  0  0  0
 10 11  1  0  0  0  0
 11 12  1  0  0  0  0
 14 15  1  0  0  0  0
 14 36  1  0  0  0  0
 15 17  1  0  0  0  0
 16 18  1  6  0  0  0
 16 26  1  0  0  0  0
 17 23  1  0  0  0  0
 19 20  1  6  0  0  0
 19 28  1  0  0  0  0
 21 22  1  0  0  0  0
 21 23  1  0  0  0  0
 22 24  1  0  0  0  0
 26 27  1  1  0  0  0
 26 29  1  0  0  0  0
 28  2  1  6  0  0  0
 28 31  1  0  0  0  0
 29 30  1  0  0  0  0
 29 33  1  6  0  0  0
 31 32  1  1  0  0  0
 31 35  1  0  0  0  0
 33 34  1  0  0  0  0
 35 36  1  1  0  0  0
M  END
>  <CHROM.1>
-137.14644330,69.42543037,130.42358387,-61.64769791,-34.20089056,-43.78765089
-71.32781212,159.55403688,-83.57057907,-44.13522555,97.66288801,74.22312972
56.44211430,46.11276778,23.03934101,26.33703346,9.60556548,-0.73623606,0.69192168
0.90648428

>  <Name>
2f4u_lig

>  <RI>
0

>  <Rbt.Current_Directory>
/home/itssahil/PROJECTS/Mol_Feturizer/New_Systems/rnas/2f4u

>  <Rbt.Executable>
rbdock ($Id: //depot/dev/client3/rdock/2013.1/src/exe/rbdock.cxx#4 $)

>  <Rbt.Library>
libRbt.so (2013.1, Build901 2013/11/27)

>  <Rbt.Parameter_File>
/export/apps/rDock/src/rDock_2013.1_src/data/scripts/dock_solv.prm

>  <Rbt.Receptor>
prm/blind_docking_40.prm

>  <SCORE>
9.99872

>  <SCORE.INTER>
1.98198

>  <SCORE.INTER.CONST>
1

>  <SCORE.INTER.POLAR>
0

>  <SCORE.INTER.ROT>
14

>  <SCORE.INTER.SOLV>
10.8225

>  <SCORE.INTER.VDW>
-15.2195

>  <SCORE.INTER.norm>
0.0550549

>  <SCORE.INTRA>
1.70762

>  <SCORE.INTRA.DIHEDRAL>
-7.08314

>  <SCORE.INTRA.DIHEDRAL.0>
26.3805

>  <SCORE.INTRA.POLAR>
0

>  <SCORE.INTRA.POLAR.0>
0

>  <SCORE.INTRA.REPUL>
0

>  <SCORE.INTRA.REPUL.0>
0

>  <SCORE.INTRA.SOLV>
16.6826

>  <SCORE.INTRA.SOLV.lig_0>
-98.5587

>  <SCORE.INTRA.VDW>
-3.09212

>  <SCORE.INTRA.VDW.0>
-2.91167

>  <SCORE.INTRA.norm>
0.0474339

>  <SCORE.RESTR>
6.30912

>  <SCORE.RESTR.CAVITY>
6.30912

>  <SCORE.RESTR.norm>
0.175253

>  <SCORE.SYSTEM>
0

>  <SCORE.SYSTEM.CONST>
0

>  <SCORE.SYSTEM.DIHEDRAL>
0

>  <SCORE.SYSTEM.SOLV>
0

>  <SCORE.SYSTEM.norm>
0

>  <SCORE.heavy>
36

>  <SCORE.norm>
0.277742

>  <RMSD>
27.140

$$$$
2f4u_lig
 OpenBabel11021811433D
libRbt.so/2013.1/901 2013/11/27
 36 37  0  0  0  0  0  0  0  0999 V2000
   22.2854   24.1616   12.3069 C   0  0  2  0  0  0  0  0  0  0  0  0
   21.6460   23.9945   10.9873 O   0  0  0  0  0  0  0  0  0  0  0  0
   23.4534   26.4601    7.8971 C   0  0  2  0  0  0  0  0  0  0  0  0
   24.2017   26.8267    6.6640 N   0  0  0  0  0  0  0  0  0  0  0  0
   21.2533   23.6732   13.3700 C   0  0  2  0  0  0  0  0  0  0  0  0
   20.8493   22.2697   13.1669 N   0  0  0  0  0  0  0  0  0  0  0  0
   24.3445   25.6402    8.8956 C   0  0  0  0  0  0  0  0  0  0  0  0
   24.4169   25.4120    5.5965 C   0  0  0  0  0  0  0  0  0  0  0  0
   25.2677   26.3352    4.7819 C   0  0  1  0  0  0  0  0  0  0  0  0
   26.6608   25.7028    4.6878 C   0  0  0  0  0  0  0  0  0  0  0  0
   27.8487   26.6745    4.8138 C   0  0  0  0  0  0  0  0  0  0  0  0
   28.9448   25.9842    5.4964 N   0  0  0  0  0  0  0  0  0  0  0  0
   24.7607   26.4413    3.4795 O   0  0  0  0  0  0  0  0  0  0  0  0
   20.4315   26.7193    5.6683 C   0  0  0  0  0  0  0  0  0  0  0  0
   19.2044   27.1419    6.4622 C   0  0  0  0  0  0  0  0  0  0  0  0
   19.9978   24.6058   13.3203 C   0  0  1  0  0  0  0  0  0  0  0  0
   18.6626   26.0884    7.3439 N   0  0  0  0  0  0  0  0  0  0  0  0
   19.0167   24.1940   14.2686 O   0  0  0  0  0  0  0  0  0  0  0  0
   23.5441   25.2180   10.1445 C   0  0  2  0  0  0  0  0  0  0  0  0
   24.3591   24.4182   11.0503 N   0  0  0  0  0  0  0  0  0  0  0  0
   17.6901   26.1360    9.6356 C   0  0  0  0  0  0  0  0  0  0  0  0
   17.7551   24.6341   10.0458 C   0  0  0  0  0  0  0  0  0  0  0  0
   17.4238   26.3472    8.1223 C   0  0  0  0  0  0  0  0  0  0  0  0
   17.9402   24.4665   11.5185 N   0  0  0  0  0  0  0  0  0  0  0  0
   24.1147   24.3776    5.6059 O   0  0  0  0  0  0  0  0  0  0  0  0
   20.4623   26.0524   13.5829 C   0  0  2  0  0  0  0  0  0  0  0  0
   19.3856   26.9858   13.5491 O   0  0  0  0  0  0  0  0  0  0  0  0
   22.3341   24.3979    9.7441 C   0  0  2  0  0  0  0  0  0  0  0  0
   21.5327   26.4787   12.5621 C   0  0  2  0  0  0  0  0  0  0  0  0
   22.6271   25.5554   12.5516 O   0  0  0  0  0  0  0  0  0  0  0  0
   21.4107   25.2415    8.7745 C   0  0  2  0  0  0  0  0  0  0  0  0
   20.2630   24.4209    8.3906 O   0  0  0  0  0  0  0  0  0  0  0  0
   22.0617   27.8587   12.8483 C   0  0  0  0  0  0  0  0  0  0  0  0
   22.6641   27.8968   14.0856 O   0  0  0  0  0  0  0  0  0  0  0  0
   22.2398   25.6397    7.5067 C   0  0  1  0  0  0  0  0  0  0  0  0
   21.4833   26.3863    6.5987 O   0  0  0  0  0  0  0  0  0  0  0  0
  1  2  1  6  0  0  0
  1  5  1  0  0  0  0
  1 30  1  0  0  0  0
  3  4  1  6  0  0  0
  3  7  1  0  0  0  0
  3 35  1  0  0  0  0
  5  6  1  6  0  0  0
  5 16  1  0  0  0  0
  7 19  1  0  0  0  0
  8  4  1  0  0  0  0
  8 25  2  0  0  0  0
  9  8  1  1  0  0  0
  9 10  1  0  0  0  0
  9 13  1  0  0  0  0
 10 11  1  0  0  0  0
 11 12  1  0  0  0  0
 14 15  1  0  0  0  0
 14 36  1  0  0  0  0
 15 17  1  0  0  0  0
 16 18  1  1  0  0  0
 16 26  1  0  0  0  0
 17 23  1  0  0  0  0
 19 20  1  1  0  0  0
 19 28  1  0  0  0  0
 21 22  1  0  0  0  0
 21 23  1  0  0  0  0
 22 24  1  0  0  0  0
 26 27  1  6  0  0  0
 26 29  1  0  0  0  0
 28  2  1  1  0  0  0
 28 31  1  0  0  0  0
 29 30  1  0  0  0  0
 29 33  1  1  0  0  0
 31 32  1  6  0  0  0
 31 35  1  0  0  0  0
 33 34  1  0  0  0  0
 35 36  1  6  0  0  0
M  END
>  <CHROM.1>
178.26851092,74.22050413,121.80435804,-139.56389579,146.02546638,-61.64364469
81.47144578,-176.87043967,-123.16416744,-176.97086313,-76.53169097,-11.96036708
61.54003437,176.50812259,21.99370626,25.58590632,9.33400314,-2.19300608,0.00618085
-1.45143813

>  <Name>
2f4u_lig

>  <RI>
0

>  <Rbt.Current_Directory>
/home/itssahil/PROJECTS/Mol_Feturizer/New_Systems/rnas/2f4u

>  <Rbt.Executable>
rbdock ($Id: //depot/dev/client3/rdock/2013.1/src/exe/rbdock.cxx#4 $)

>  <Rbt.Library>
libRbt.so (2013.1, Build901 2013/11/27)

>  <Rbt.Parameter_File>
/export/apps/rDock/src/rDock_2013.1_src/data/scripts/dock_solv.prm

>  <Rbt.Receptor>
prm/blind_docking_40.prm

>  <SCORE>
15.2268

>  <SCORE.INTER>
5.11951

>  <SCORE.INTER.CONST>
1

>  <SCORE.INTER.POLAR>
0

>  <SCORE.INTER.ROT>
14

>  <SCORE.INTER.SOLV>
11.798

>  <SCORE.INTER.VDW>
-13.453

>  <SCORE.INTER.norm>
0.142208

>  <SCORE.INTRA>
5.53983

>  <SCORE.INTRA.DIHEDRAL>
-5.67625

>  <SCORE.INTRA.DIHEDRAL.0>
26.3805

>  <SCORE.INTRA.POLAR>
0

>  <SCORE.INTRA.POLAR.0>
0

>  <SCORE.INTRA.REPUL>
0

>  <SCORE.INTRA.REPUL.0>
0

>  <SCORE.INTRA.SOLV>
10.4252

>  <SCORE.INTRA.SOLV.lig_0>
-98.5587

>  <SCORE.INTRA.VDW>
3.16536

>  <SCORE.INTRA.VDW.0>
-2.91167

>  <SCORE.INTRA.norm>
0.153884

>  <SCORE.RESTR>
4.56742

>  <SCORE.RESTR.CAVITY>
4.56742

>  <SCORE.RESTR.norm>
0.126873

>  <SCORE.SYSTEM>
0

>  <SCORE.SYSTEM.CONST>
0

>  <SCORE.SYSTEM.DIHEDRAL>
0

>  <SCORE.SYSTEM.SOLV>
0

>  <SCORE.SYSTEM.norm>
0

>  <SCORE.heavy>
36

>  <SCORE.norm>
0.422965

>  <RMSD>
27.142

$$$$
2f4u_lig
 OpenBabel11021811433D
libRbt.so/2013.1/901 2013/11/27
 36 37  0  0  0  0  0  0  0  0999 V2000
   18.9411   24.2217    8.7574 C   0  0  2  0  0  0  0  0  0  0  0  0
   19.0190   25.6794    8.5405 O   0  0  0  0  0  0  0  0  0  0  0  0
   23.2040   26.3249    7.5585 C   0  0  2  0  0  0  0  0  0  0  0  0
   24.4241   26.9749    7.0073 N   0  0  0  0  0  0  0  0  0  0  0  0
   18.1599   24.0083   10.0910 C   0  0  2  0  0  0  0  0  0  0  0  0
   16.8087   24.5977   10.0587 N   0  0  0  0  0  0  0  0  0  0  0  0
   22.1528   26.0147    6.4352 C   0  0  0  0  0  0  0  0  0  0  0  0
   25.5045   25.7753    6.2449 C   0  0  0  0  0  0  0  0  0  0  0  0
   26.4489   26.9276    6.1024 C   0  0  1  0  0  0  0  0  0  0  0  0
   27.8197   26.3474    5.7369 C   0  0  0  0  0  0  0  0  0  0  0  0
   27.8935   25.5933    4.3963 C   0  0  0  0  0  0  0  0  0  0  0  0
   29.2819   25.1907    4.1641 N   0  0  0  0  0  0  0  0  0  0  0  0
   26.0453   27.7595    5.0492 O   0  0  0  0  0  0  0  0  0  0  0  0
   24.5598   27.2922   10.5732 C   0  0  0  0  0  0  0  0  0  0  0  0
   24.6190   28.5147   11.4770 C   0  0  0  0  0  0  0  0  0  0  0  0
   18.9878   24.6277   11.2656 C   0  0  1  0  0  0  0  0  0  0  0  0
   23.2970   29.0122   11.9081 N   0  0  0  0  0  0  0  0  0  0  0  0
   18.3099   24.4682   12.5091 O   0  0  0  0  0  0  0  0  0  0  0  0
   20.8703   25.3923    7.0238 C   0  0  2  0  0  0  0  0  0  0  0  0
   19.8767   25.1464    5.9862 N   0  0  0  0  0  0  0  0  0  0  0  0
   21.5223   29.4486   13.5992 C   0  0  0  0  0  0  0  0  0  0  0  0
   20.4136   29.5106   12.5059 C   0  0  0  0  0  0  0  0  0  0  0  0
   22.7261   28.5551   13.2014 C   0  0  0  0  0  0  0  0  0  0  0  0
   20.8093   30.3838   11.3604 N   0  0  0  0  0  0  0  0  0  0  0  0
   25.4787   24.7146    6.0564 O   0  0  0  0  0  0  0  0  0  0  0  0
   20.3724   23.9497   11.2882 C   0  0  2  0  0  0  0  0  0  0  0  0
   21.2105   24.4550   12.3245 O   0  0  0  0  0  0  0  0  0  0  0  0
   20.2598   26.3184    8.0567 C   0  0  2  0  0  0  0  0  0  0  0  0
   21.0866   24.1157    9.9347 C   0  0  2  0  0  0  0  0  0  0  0  0
   20.2693   23.6350    8.8618 O   0  0  0  0  0  0  0  0  0  0  0  0
   21.3032   26.5938    9.2143 C   0  0  2  0  0  0  0  0  0  0  0  0
   20.6951   27.5026   10.1851 O   0  0  0  0  0  0  0  0  0  0  0  0
   22.4059   23.3914    9.9049 C   0  0  0  0  0  0  0  0  0  0  0  0
   22.2105   22.0308    9.9813 O   0  0  0  0  0  0  0  0  0  0  0  0
   22.5861   27.2437    8.5940 C   0  0  1  0  0  0  0  0  0  0  0  0
   23.5544   27.5208    9.5634 O   0  0  0  0  0  0  0  0  0  0  0  0
  1  2  1  1  0  0  0
  1  5  1  0  0  0  0
  1 30  1  0  0  0  0
  3  4  1  6  0  0  0
  3  7  1  0  0  0  0
  3 35  1  0  0  0  0
  5  6  1  6  0  0  0
  5 16  1  0  0  0  0
  7 19  1  0  0  0  0
  8  4  1  0  0  0  0
  8 25  2  0  0  0  0
  9  8  1  6  0  0  0
  9 10  1  0  0  0  0
  9 13  1  0  0  0  0
 10 11  1  0  0  0  0
 11 12  1  0  0  0  0
 14 15  1  0  0  0  0
 14 36  1  0  0  0  0
 15 17  1  0  0  0  0
 16 18  1  1  0  0  0
 16 26  1  0  0  0  0
 17 23  1  0  0  0  0
 19 20  1  6  0  0  0
 19 28  1  0  0  0  0
 21 22  1  0  0  0  0
 21 23  1  0  0  0  0
 22 24  1  0  0  0  0
 26 27  1  1  0  0  0
 26 29  1  0  0  0  0
 28  2  1  1  0  0  0
 28 31  1  0  0  0  0
 29 30  1  0  0  0  0
 29 33  1  1  0  0  0
 31 32  1  1  0  0  0
 31 35  1  0  0  0  0
 33 34  1  0  0  0  0
 35 36  1  1  0  0  0
M  END
>  <CHROM.1>
138.24057384,-78.90043022,166.67061922,62.82019757,176.14481957,45.96551431
-155.37229264,93.80446013,166.47912157,-75.53863015,55.73342041,38.70029242
66.15419138,-54.49719874,22.30706022,26.07812595,9.06304418,2.70358266,0.52188167
0.82525618

>  <Name>
2f4u_lig

>  <RI>
0

>  <Rbt.Current_Directory>
/home/itssahil/PROJECTS/Mol_Feturizer/New_Systems/rnas/2f4u

>  <Rbt.Executable>
rbdock ($Id: //depot/dev/client3/rdock/2013.1/src/exe/rbdock.cxx#4 $)

>  <Rbt.Library>
libRbt.so (2013.1, Build901 2013/11/27)

>  <Rbt.Parameter_File>
/export/apps/rDock/src/rDock_2013.1_src/data/scripts/dock_solv.prm

>  <Rbt.Receptor>
prm/blind_docking_40.prm

>  <SCORE>
3.24058

>  <SCORE.INTER>
-0.25348

>  <SCORE.INTER.CONST>
1

>  <SCORE.INTER.POLAR>
0

>  <SCORE.INTER.ROT>
14

>  <SCORE.INTER.SOLV>
13.6864

>  <SCORE.INTER.VDW>
-17.6645

>  <SCORE.INTER.norm>
-0.0070411

>  <SCORE.INTRA>
0.51082

>  <SCORE.INTRA.DIHEDRAL>
-11.9808

>  <SCORE.INTRA.DIHEDRAL.0>
26.3805

>  <SCORE.INTRA.POLAR>
0

>  <SCORE.INTRA.POLAR.0>
0

>  <SCORE.INTRA.REPUL>
0

>  <SCORE.INTRA.REPUL.0>
0

>  <SCORE.INTRA.SOLV>
6.69644

>  <SCORE.INTRA.SOLV.lig_0>
-98.5587

>  <SCORE.INTRA.VDW>
3.15301

>  <SCORE.INTRA.VDW.0>
-2.91167

>  <SCORE.INTRA.norm>
0.0141894

>  <SCORE.RESTR>
2.98324

>  <SCORE.RESTR.CAVITY>
2.98324

>  <SCORE.RESTR.norm>
0.0828677

>  <SCORE.SYSTEM>
0

>  <SCORE.SYSTEM.CONST>
0

>  <SCORE.SYSTEM.DIHEDRAL>
0

>  <SCORE.SYSTEM.SOLV>
0

>  <SCORE.SYSTEM.norm>
0

>  <SCORE.heavy>
36

>  <SCORE.norm>
0.090016

>  <RMSD>
27.165

$$$$
2f4u_lig
 OpenBabel11021811433D
libRbt.so/2013.1/901 2013/11/27
 36 37  0  0  0  0  0  0  0  0999 V2000
   22.7508   26.5842    4.9029 C   0  0  2  0  0  0  0  0  0  0  0  0
   21.4115   26.2768    5.4412 O   0  0  0  0  0  0  0  0  0  0  0  0
   19.5712   25.0684    9.1893 C   0  0  2  0  0  0  0  0  0  0  0  0
   19.4208   24.4513   10.5352 N   0  0  0  0  0  0  0  0  0  0  0  0
   23.3078   25.2565    4.3019 C   0  0  2  0  0  0  0  0  0  0  0  0
   22.4414   24.7041    3.2443 N   0  0  0  0  0  0  0  0  0  0  0  0
   19.9540   24.0041    8.1013 C   0  0  0  0  0  0  0  0  0  0  0  0
   20.9044   24.6556   11.5070 C   0  0  0  0  0  0  0  0  0  0  0  0
   20.2065   23.7763   12.4967 C   0  0  1  0  0  0  0  0  0  0  0  0
   21.2450   22.7846   13.0331 C   0  0  0  0  0  0  0  0  0  0  0  0
   22.0709   22.0371   11.9698 C   0  0  0  0  0  0  0  0  0  0  0  0
   23.4496   21.9198   12.4486 N   0  0  0  0  0  0  0  0  0  0  0  0
   19.7447   24.5353   13.5806 O   0  0  0  0  0  0  0  0  0  0  0  0
   19.8034   28.2675   10.8575 C   0  0  0  0  0  0  0  0  0  0  0  0
   20.6925   29.4160   10.4046 C   0  0  0  0  0  0  0  0  0  0  0  0
   23.4788   24.2130    5.4554 C   0  0  1  0  0  0  0  0  0  0  0  0
   21.7970   29.7281   11.3339 N   0  0  0  0  0  0  0  0  0  0  0  0
   23.9766   22.9747    4.9552 O   0  0  0  0  0  0  0  0  0  0  0  0
   20.1616   24.6620    6.7219 C   0  0  2  0  0  0  0  0  0  0  0  0
   20.5613   23.6801    5.7217 N   0  0  0  0  0  0  0  0  0  0  0  0
   22.6608   27.7960   12.6457 C   0  0  0  0  0  0  0  0  0  0  0  0
   22.3381   28.5155   13.9897 C   0  0  0  0  0  0  0  0  0  0  0  0
   22.9297   28.7769   11.4746 C   0  0  0  0  0  0  0  0  0  0  0  0
   21.9457   27.5486   15.0586 N   0  0  0  0  0  0  0  0  0  0  0  0
   21.8592   25.1380   11.3765 O   0  0  0  0  0  0  0  0  0  0  0  0
   24.4264   24.8151    6.5122 C   0  0  2  0  0  0  0  0  0  0  0  0
   24.6402   23.9386    7.6157 O   0  0  0  0  0  0  0  0  0  0  0  0
   21.2383   25.7258    6.8007 C   0  0  2  0  0  0  0  0  0  0  0  0
   23.8853   26.1591    7.0320 C   0  0  2  0  0  0  0  0  0  0  0  0
   23.6397   27.0651    5.9508 O   0  0  0  0  0  0  0  0  0  0  0  0
   20.8304   26.8247    7.8639 C   0  0  2  0  0  0  0  0  0  0  0  0
   21.8935   27.8264    7.9320 O   0  0  0  0  0  0  0  0  0  0  0  0
   24.8343   26.8067    8.0047 C   0  0  0  0  0  0  0  0  0  0  0  0
   24.9775   26.0267    9.1300 O   0  0  0  0  0  0  0  0  0  0  0  0
   20.6461   26.1351    9.2581 C   0  0  1  0  0  0  0  0  0  0  0  0
   20.2884   27.0504   10.2524 O   0  0  0  0  0  0  0  0  0  0  0  0
  1  2  1  1  0  0  0
  1  5  1  0  0  0  0
  1 30  1  0  0  0  0
  3  4  1  1  0  0  0
  3  7  1  0  0  0  0
  3 35  1  0  0  0  0
  5  6  1  6  0  0  0
  5 16  1  0  0  0  0
  7 19  1  0  0  0  0
  8  4  1  0  0  0  0
  8 25  2  0  0  0  0
  9  8  1  6  0  0  0
  9 10  1  0  0  0  0
  9 13  1  0  0  0  0
 10 11  1  0  0  0  0
 11 12  1  0  0  0  0
 14 15  1  0  0  0  0
 14 36  1  0  0  0  0
 15 17  1  0  0  0  0
 16 18  1  6  0  0  0
 16 26  1  0  0  0  0
 17 23  1  0  0  0  0
 19 20  1  6  0  0  0
 19 28  1  0  0  0  0
 21 22  1  0  0  0  0
 21 23  1  0  0  0  0
 22 24  1  0  0  0  0
 26 27  1  1  0  0  0
 26 29  1  0  0  0  0
 28  2  1  6  0  0  0
 28 31  1  0  0  0  0
 29 30  1  0  0  0  0
 29 33  1  1  0  0  0
 31 32  1  1  0  0  0
 31 35  1  0  0  0  0
 33 34  1  0  0  0  0
 35 36  1  1  0  0  0
M  END
>  <CHROM.1>
85.06926754,97.87144505,138.06513000,-50.20547831,141.25890231,-94.08637714
-60.81061094,70.21892950,-92.92047479,174.05091567,-53.92889932,-139.19898950
-63.68019440,-104.32229169,21.96904083,25.70774947,9.09332540,-0.44846814
1.33622994,0.30698414

>  <Name>
2f4u_lig

>  <RI>
0

>  <Rbt.Current_Directory>
/home/itssahil/PROJECTS/Mol_Feturizer/New_Systems/rnas/2f4u

>  <Rbt.Executable>
rbdock ($Id: //depot/dev/client3/rdock/2013.1/src/exe/rbdock.cxx#4 $)

>  <Rbt.Library>
libRbt.so (2013.1, Build901 2013/11/27)

>  <Rbt.Parameter_File>
/export/apps/rDock/src/rDock_2013.1_src/data/scripts/dock_solv.prm

>  <Rbt.Receptor>
prm/blind_docking_60.prm

>  <SCORE>
15.0221

>  <SCORE.INTER>
5.96797

>  <SCORE.INTER.CONST>
1

>  <SCORE.INTER.POLAR>
0

>  <SCORE.INTER.ROT>
14

>  <SCORE.INTER.SOLV>
20.7571

>  <SCORE.INTER.VDW>
-15.8737

>  <SCORE.INTER.norm>
0.165777

>  <SCORE.INTRA>
5.26946

>  <SCORE.INTRA.DIHEDRAL>
-0.509441

>  <SCORE.INTRA.DIHEDRAL.0>
26.3805

>  <SCORE.INTRA.POLAR>
0

>  <SCORE.INTRA.POLAR.0>
0

>  <SCORE.INTRA.REPUL>
0.013001

>  <SCORE.INTRA.REPUL.0>
0

>  <SCORE.INTRA.SOLV>
8.16021

>  <SCORE.INTRA.SOLV.lig_0>
-98.5587

>  <SCORE.INTRA.VDW>
1.37907

>  <SCORE.INTRA.VDW.0>
-2.91167

>  <SCORE.INTRA.norm>
0.146374

>  <SCORE.RESTR>
3.78467

>  <SCORE.RESTR.CAVITY>
3.78467

>  <SCORE.RESTR.norm>
0.10513

>  <SCORE.SYSTEM>
0

>  <SCORE.SYSTEM.CONST>
0

>  <SCORE.SYSTEM.DIHEDRAL>
0

>  <SCORE.SYSTEM.SOLV>
0

>  <SCORE.SYSTEM.norm>
0

>  <SCORE.heavy>
36

>  <SCORE.norm>
0.417281

>  <RMSD>
27.174

$$$$
2f4u_lig
 OpenBabel11021811433D
libRbt.so/2013.1/901 2013/11/27
 36 37  0  0  0  0  0  0  0  0999 V2000
   24.1305   26.5636    5.4689 C   0  0  2  0  0  0  0  0  0  0  0  0
   23.5141   25.2538    5.7559 O   0  0  0  0  0  0  0  0  0  0  0  0
   20.7218   26.1852    8.9544 C   0  0  2  0  0  0  0  0  0  0  0  0
   19.5908   26.0297    9.9091 N   0  0  0  0  0  0  0  0  0  0  0  0
   25.4971   26.2733    4.7744 C   0  0  2  0  0  0  0  0  0  0  0  0
   25.3490   25.4903    3.5338 N   0  0  0  0  0  0  0  0  0  0  0  0
   20.2391   26.1047    7.4632 C   0  0  0  0  0  0  0  0  0  0  0  0
   18.7846   24.4504    9.7010 C   0  0  0  0  0  0  0  0  0  0  0  0
   17.8007   24.9820   10.6954 C   0  0  1  0  0  0  0  0  0  0  0  0
   18.5325   25.1030   12.0368 C   0  0  0  0  0  0  0  0  0  0  0  0
   18.7104   23.7920   12.8249 C   0  0  0  0  0  0  0  0  0  0  0  0
   19.4809   24.0779   14.0367 N   0  0  0  0  0  0  0  0  0  0  0  0
   17.3797   26.2662   10.3240 O   0  0  0  0  0  0  0  0  0  0  0  0
   22.0323   25.1377   11.9994 C   0  0  0  0  0  0  0  0  0  0  0  0
   23.3248   25.6908   12.5809 C   0  0  0  0  0  0  0  0  0  0  0  0
   26.4236   25.5138    5.7812 C   0  0  1  0  0  0  0  0  0  0  0  0
   23.2082   26.1586   13.9768 N   0  0  0  0  0  0  0  0  0  0  0  0
   27.6851   25.2143    5.1894 O   0  0  0  0  0  0  0  0  0  0  0  0
   21.4252   26.2114    6.4833 C   0  0  2  0  0  0  0  0  0  0  0  0
   20.9817   26.0910    5.1001 N   0  0  0  0  0  0  0  0  0  0  0  0
   21.5057   27.9633   13.7653 C   0  0  0  0  0  0  0  0  0  0  0  0
   22.6176   29.0532   13.8294 C   0  0  0  0  0  0  0  0  0  0  0  0
   21.8980   26.6447   14.4816 C   0  0  0  0  0  0  0  0  0  0  0  0
   22.1567   30.3533   13.2561 N   0  0  0  0  0  0  0  0  0  0  0  0
   18.9315   23.5774    9.0865 O   0  0  0  0  0  0  0  0  0  0  0  0
   26.5857   26.3891    7.0400 C   0  0  2  0  0  0  0  0  0  0  0  0
   27.4109   25.7767    8.0278 O   0  0  0  0  0  0  0  0  0  0  0  0
   22.4357   25.1151    6.7557 C   0  0  2  0  0  0  0  0  0  0  0  0
   25.2156   26.7182    7.6596 C   0  0  2  0  0  0  0  0  0  0  0  0
   24.3478   27.3207    6.6932 O   0  0  0  0  0  0  0  0  0  0  0  0
   22.9584   25.2249    8.2454 C   0  0  2  0  0  0  0  0  0  0  0  0
   23.9160   24.1463    8.4853 O   0  0  0  0  0  0  0  0  0  0  0  0
   25.3426   27.6403    8.8428 C   0  0  0  0  0  0  0  0  0  0  0  0
   25.1959   26.9389   10.0182 O   0  0  0  0  0  0  0  0  0  0  0  0
   21.7391   25.0930    9.2196 C   0  0  1  0  0  0  0  0  0  0  0  0
   22.1277   25.1760   10.5599 O   0  0  0  0  0  0  0  0  0  0  0  0
  1  2  1  1  0  0  0
  1  5  1  0  0  0  0
  1 30  1  0  0  0  0
  3  4  1  1  0  0  0
  3  7  1  0  0  0  0
  3 35  1  0  0  0  0
  5  6  1  6  0  0  0
  5 16  1  0  0  0  0
  7 19  1  0  0  0  0
  8  4  1  0  0  0  0
  8 25  2  0  0  0  0
  9  8  1  6  0  0  0
  9 10  1  0  0  0  0
  9 13  1  0  0  0  0
 10 11  1  0  0  0  0
 11 12  1  0  0  0  0
 14 15  1  0  0  0  0
 14 36  1  0  0  0  0
 15 17  1  0  0  0  0
 16 18  1  6  0  0  0
 16 26  1  0  0  0  0
 17 23  1  0  0  0  0
 19 20  1  6  0  0  0
 19 28  1  0  0  0  0
 21 22  1  0  0  0  0
 21 23  1  0  0  0  0
 22 24  1  0  0  0  0
 26 27  1  1  0  0  0
 26 29  1  0  0  0  0
 28  2  1  6  0  0  0
 28 31  1  0  0  0  0
 29 30  1  0  0  0  0
 29 33  1  1  0  0  0
 31 32  1  1  0  0  0
 31 35  1  0  0  0  0
 33 34  1  0  0  0  0
 35 36  1  1  0  0  0
M  END
>  <CHROM.1>
161.07217819,60.33961816,-67.79501569,-78.79035010,177.22032055,159.41146043
-170.80662126,-27.62281488,-67.10685104,-174.10778785,-52.72014500,47.31237452
-103.25469925,64.73314833,22.50906209,25.92995547,9.24143644,0.84687717,-0.29134956
-1.81144550

>  <Name>
2f4u_lig

>  <RI>
0

>  <Rbt.Current_Directory>
/home/itssahil/PROJECTS/Mol_Feturizer/New_Systems/rnas/2f4u

>  <Rbt.Executable>
rbdock ($Id: //depot/dev/client3/rdock/2013.1/src/exe/rbdock.cxx#4 $)

>  <Rbt.Library>
libRbt.so (2013.1, Build901 2013/11/27)

>  <Rbt.Parameter_File>
/export/apps/rDock/src/rDock_2013.1_src/data/scripts/dock_solv.prm

>  <Rbt.Receptor>
prm/blind_docking_40.prm

>  <SCORE>
4.40567

>  <SCORE.INTER>
-1.02732

>  <SCORE.INTER.CONST>
1

>  <SCORE.INTER.POLAR>
-0.947429

>  <SCORE.INTER.ROT>
14

>  <SCORE.INTER.SOLV>
15.2885

>  <SCORE.INTER.VDW>
-15.5563

>  <SCORE.INTER.norm>
-0.0285368

>  <SCORE.INTRA>
-0.0784742

>  <SCORE.INTRA.DIHEDRAL>
-14.6554

>  <SCORE.INTRA.DIHEDRAL.0>
26.3805

>  <SCORE.INTRA.POLAR>
0

>  <SCORE.INTRA.POLAR.0>
0

>  <SCORE.INTRA.REPUL>
0

>  <SCORE.INTRA.REPUL.0>
0

>  <SCORE.INTRA.SOLV>
4.59395

>  <SCORE.INTRA.SOLV.lig_0>
-98.5587

>  <SCORE.INTRA.VDW>
4.95226

>  <SCORE.INTRA.VDW.0>
-2.91167

>  <SCORE.INTRA.norm>
-0.00217984

>  <SCORE.RESTR>
5.51147

>  <SCORE.RESTR.CAVITY>
5.51147

>  <SCORE.RESTR.norm>
0.153096

>  <SCORE.SYSTEM>
0

>  <SCORE.SYSTEM.CONST>
0

>  <SCORE.SYSTEM.DIHEDRAL>
0

>  <SCORE.SYSTEM.SOLV>
0

>  <SCORE.SYSTEM.norm>
0

>  <SCORE.heavy>
36

>  <SCORE.norm>
0.12238

>  <RMSD>
27.176

$$$$
2f4u_lig
 OpenBabel11021811433D
libRbt.so/2013.1/901 2013/11/27
 36 37  0  0  0  0  0  0  0  0999 V2000
   24.1036   26.6341    5.4666 C   0  0  2  0  0  0  0  0  0  0  0  0
   23.7958   25.1925    5.5372 O   0  0  0  0  0  0  0  0  0  0  0  0
   20.7548   25.0148    8.6382 C   0  0  2  0  0  0  0  0  0  0  0  0
   19.6667   24.4725    9.4965 N   0  0  0  0  0  0  0  0  0  0  0  0
   25.5105   26.7600    4.8043 C   0  0  2  0  0  0  0  0  0  0  0  0
   25.5621   26.1554    3.4603 N   0  0  0  0  0  0  0  0  0  0  0  0
   20.3570   25.0054    7.1200 C   0  0  0  0  0  0  0  0  0  0  0  0
   18.7881   25.7849   10.3290 C   0  0  0  0  0  0  0  0  0  0  0  0
   18.0811   24.6707   11.0350 C   0  0  1  0  0  0  0  0  0  0  0  0
   18.4210   24.7904   12.5248 C   0  0  0  0  0  0  0  0  0  0  0  0
   19.8017   24.2520   12.9434 C   0  0  0  0  0  0  0  0  0  0  0  0
   19.9993   24.5331   14.3668 N   0  0  0  0  0  0  0  0  0  0  0  0
   16.6932   24.8150   10.9032 O   0  0  0  0  0  0  0  0  0  0  0  0
   22.8155   24.6545   11.4743 C   0  0  0  0  0  0  0  0  0  0  0  0
   22.8057   26.1758   11.4612 C   0  0  0  0  0  0  0  0  0  0  0  0
   26.5699   26.0852    5.7375 C   0  0  1  0  0  0  0  0  0  0  0  0
   21.4807   26.7741   11.7208 N   0  0  0  0  0  0  0  0  0  0  0  0
   27.8752   26.1638    5.1704 O   0  0  0  0  0  0  0  0  0  0  0  0
   21.5115   25.5173    6.2347 C   0  0  2  0  0  0  0  0  0  0  0  0
   21.1580   25.4658    4.8216 N   0  0  0  0  0  0  0  0  0  0  0  0
   21.8989   29.2278   11.7842 C   0  0  0  0  0  0  0  0  0  0  0  0
   20.9480   29.6761   10.6340 C   0  0  0  0  0  0  0  0  0  0  0  0
   21.3775   27.9928   12.5643 C   0  0  0  0  0  0  0  0  0  0  0  0
   20.8675   28.6538    9.5478 N   0  0  0  0  0  0  0  0  0  0  0  0
   18.8266   26.8618   10.3395 O   0  0  0  0  0  0  0  0  0  0  0  0
   26.5109   26.7791    7.1130 C   0  0  2  0  0  0  0  0  0  0  0  0
   27.4387   26.2263    8.0433 O   0  0  0  0  0  0  0  0  0  0  0  0
   22.7528   24.6736    6.4454 C   0  0  2  0  0  0  0  0  0  0  0  0
   25.0928   26.7008    7.7066 C   0  0  2  0  0  0  0  0  0  0  0  0
   24.1255   27.2315    6.7940 O   0  0  0  0  0  0  0  0  0  0  0  0
   23.1820   24.7209    7.9679 C   0  0  2  0  0  0  0  0  0  0  0  0
   24.3689   23.8854    8.1450 O   0  0  0  0  0  0  0  0  0  0  0  0
   24.9901   27.4432    9.0121 C   0  0  0  0  0  0  0  0  0  0  0  0
   25.3550   26.6283   10.0599 O   0  0  0  0  0  0  0  0  0  0  0  0
   22.0019   24.1775    8.8426 C   0  0  1  0  0  0  0  0  0  0  0  0
   22.3129   24.1851   10.2055 O   0  0  0  0  0  0  0  0  0  0  0  0
  1  2  1  1  0  0  0
  1  5  1  0  0  0  0
  1 30  1  0  0  0  0
  3  4  1  1  0  0  0
  3  7  1  0  0  0  0
  3 35  1  0  0  0  0
  5  6  1  6  0  0  0
  5 16  1  0  0  0  0
  7 19  1  0  0  0  0
  8  4  1  0  0  0  0
  8 25  2  0  0  0  0
  9  8  1  6  0  0  0
  9 10  1  0  0  0  0
  9 13  1  0  0  0  0
 10 11  1  0  0  0  0
 11 12  1  0  0  0  0
 14 15  1  0  0  0  0
 14 36  1  0  0  0  0
 15 17  1  0  0  0  0
 16 18  1  6  0  0  0
 16 26  1  0  0  0  0
 17 23  1  0  0  0  0
 19 20  1  6  0  0  0
 19 28  1  0  0  0  0
 21 22  1  0  0  0  0
 21 23  1  0  0  0  0
 22 24  1  0  0  0  0
 26 27  1  1  0  0  0
 26 29  1  0  0  0  0
 28  2  1  6  0  0  0
 28 31  1  0  0  0  0
 29 30  1  0  0  0  0
 29 33  1  1  0  0  0
 31 32  1  6  0  0  0
 31 35  1  0  0  0  0
 33 34  1  0  0  0  0
 35 36  1  1  0  0  0
M  END
>  <CHROM.1>
161.68262142,-103.15112979,116.84859798,-79.00925369,175.90072030,79.67199707
25.85895399,140.66813334,73.06534027,-66.15215452,71.28227593,49.08961973
-86.64922444,-78.53701213,22.46956139,25.94283819,8.85712636,0.68327890,-0.33497860
-1.86370122

>  <Name>
2f4u_lig

>  <RI>
0

>  <Rbt.Current_Directory>
/home/itssahil/PROJECTS/Mol_Feturizer/New_Systems/rnas/2f4u

>  <Rbt.Executable>
rbdock ($Id: //depot/dev/client3/rdock/2013.1/src/exe/rbdock.cxx#4 $)

>  <Rbt.Library>
libRbt.so (2013.1, Build901 2013/11/27)

>  <Rbt.Parameter_File>
/export/apps/rDock/src/rDock_2013.1_src/data/scripts/dock_solv.prm

>  <Rbt.Receptor>
prm/blind_docking_40.prm

>  <SCORE>
6.43302

>  <SCORE.INTER>
2.22783

>  <SCORE.INTER.CONST>
1

>  <SCORE.INTER.POLAR>
0

>  <SCORE.INTER.ROT>
14

>  <SCORE.INTER.SOLV>
11.2707

>  <SCORE.INTER.VDW>
-15.205

>  <SCORE.INTER.norm>
0.0618842

>  <SCORE.INTRA>
-2.39341

>  <SCORE.INTRA.DIHEDRAL>
-8.52022

>  <SCORE.INTRA.DIHEDRAL.0>
26.3805

>  <SCORE.INTRA.POLAR>
0

>  <SCORE.INTRA.POLAR.0>
0

>  <SCORE.INTRA.REPUL>
0

>  <SCORE.INTRA.REPUL.0>
0

>  <SCORE.INTRA.SOLV>
11.6615

>  <SCORE.INTRA.SOLV.lig_0>
-98.5587

>  <SCORE.INTRA.VDW>
-3.96406

>  <SCORE.INTRA.VDW.0>
-2.91167

>  <SCORE.INTRA.norm>
-0.0664836

>  <SCORE.RESTR>
6.5986

>  <SCORE.RESTR.CAVITY>
6.5986

>  <SCORE.RESTR.norm>
0.183294

>  <SCORE.SYSTEM>
0

>  <SCORE.SYSTEM.CONST>
0

>  <SCORE.SYSTEM.DIHEDRAL>
0

>  <SCORE.SYSTEM.SOLV>
0

>  <SCORE.SYSTEM.norm>
0

>  <SCORE.heavy>
36

>  <SCORE.norm>
0.178695

>  <RMSD>
27.193

$$$$
2f4u_lig
 OpenBabel11021811433D
libRbt.so/2013.1/901 2013/11/27
 36 37  0  0  0  0  0  0  0  0999 V2000
   21.3681   23.1884   12.7488 C   0  0  2  0  0  0  0  0  0  0  0  0
   20.7019   23.5603   11.4856 O   0  0  0  0  0  0  0  0  0  0  0  0
   23.4814   24.8718    8.4116 C   0  0  2  0  0  0  0  0  0  0  0  0
   24.2586   24.8758    7.1425 N   0  0  0  0  0  0  0  0  0  0  0  0
   20.2895   23.2912   13.8714 C   0  0  2  0  0  0  0  0  0  0  0  0
   19.1275   22.4176   13.6247 N   0  0  0  0  0  0  0  0  0  0  0  0
   23.7770   23.5917    9.2702 C   0  0  0  0  0  0  0  0  0  0  0  0
   24.8588   26.5131    6.7598 C   0  0  0  0  0  0  0  0  0  0  0  0
   25.3132   25.8919    5.4763 C   0  0  1  0  0  0  0  0  0  0  0  0
   24.1959   26.1055    4.4489 C   0  0  0  0  0  0  0  0  0  0  0  0
   22.8812   25.3512    4.7206 C   0  0  0  0  0  0  0  0  0  0  0  0
   23.1826   23.9251    4.8594 N   0  0  0  0  0  0  0  0  0  0  0  0
   26.4588   26.5436    4.9996 O   0  0  0  0  0  0  0  0  0  0  0  0
   21.0625   27.0947    6.5791 C   0  0  0  0  0  0  0  0  0  0  0  0
   20.0657   27.7367    7.5324 C   0  0  0  0  0  0  0  0  0  0  0  0
   19.8254   24.7809   13.9906 C   0  0  1  0  0  0  0  0  0  0  0  0
   20.6875   28.4964    8.6357 N   0  0  0  0  0  0  0  0  0  0  0  0
   18.8286   24.9271   14.9988 O   0  0  0  0  0  0  0  0  0  0  0  0
   22.9258   23.5702   10.5562 C   0  0  2  0  0  0  0  0  0  0  0  0
   23.1672   22.3594   11.3307 N   0  0  0  0  0  0  0  0  0  0  0  0
   21.7683   27.8974   10.7974 C   0  0  0  0  0  0  0  0  0  0  0  0
   22.5835   29.2156   10.9589 C   0  0  0  0  0  0  0  0  0  0  0  0
   20.4279   28.0943   10.0422 C   0  0  0  0  0  0  0  0  0  0  0  0
   23.9915   28.9514   11.3819 N   0  0  0  0  0  0  0  0  0  0  0  0
   24.8277   27.4824    7.2299 O   0  0  0  0  0  0  0  0  0  0  0  0
   21.0639   25.6479   14.2934 C   0  0  2  0  0  0  0  0  0  0  0  0
   20.7452   27.0320   14.4123 O   0  0  0  0  0  0  0  0  0  0  0  0
   21.4505   23.6296   10.2141 C   0  0  2  0  0  0  0  0  0  0  0  0
   22.1384   25.4684   13.2059 C   0  0  2  0  0  0  0  0  0  0  0  0
   22.4757   24.0865   13.0421 O   0  0  0  0  0  0  0  0  0  0  0  0
   21.1433   24.9445    9.3888 C   0  0  2  0  0  0  0  0  0  0  0  0
   19.7192   24.9663    9.0576 O   0  0  0  0  0  0  0  0  0  0  0  0
   23.3906   26.2417   13.5224 C   0  0  0  0  0  0  0  0  0  0  0  0
   24.2586   26.2115   12.4543 O   0  0  0  0  0  0  0  0  0  0  0  0
   22.0034   24.9319    8.0799 C   0  0  1  0  0  0  0  0  0  0  0  0
   21.7792   26.0664    7.2944 O   0  0  0  0  0  0  0  0  0  0  0  0
  1  2  1  6  0  0  0
  1  5  1  0  0  0  0
  1 30  1  0  0  0  0
  3  4  1  6  0  0  0
  3  7  1  0  0  0  0
  3 35  1  0  0  0  0
  5  6  1  6  0  0  0
  5 16  1  0  0  0  0
  7 19  1  0  0  0  0
  8  4  1  0  0  0  0
  8 25  2  0  0  0  0
  9  8  1  1  0  0  0
  9 10  1  0  0  0  0
  9 13  1  0  0  0  0
 10 11  1  0  0  0  0
 11 12  1  0  0  0  0
 14 15  1  0  0  0  0
 14 36  1  0  0  0  0
 15 17  1  0  0  0  0
 16 18  1  1  0  0  0
 16 26  1  0  0  0  0
 17 23  1  0  0  0  0
 19 20  1  6  0  0  0
 19 28  1  0  0  0  0
 21 22  1  0  0  0  0
 21 23  1  0  0  0  0
 22 24  1  0  0  0  0
 26 27  1  6  0  0  0
 26 29  1  0  0  0  0
 28  2  1  1  0  0  0
 28 31  1  0  0  0  0
 29 30  1  0  0  0  0
 29 33  1  1  0  0  0
 31 32  1  6  0  0  0
 31 35  1  0  0  0  0
 33 34  1  0  0  0  0
 35 36  1  1  0  0  0
M  END
>  <CHROM.1>
177.25921299,-140.48798811,93.28765217,-66.99580272,-55.11852610,66.73661825
53.11214830,-119.54956329,127.08437423,-166.15231503,65.45085188,-12.28009491
-171.79973787,-170.78906867,22.22393045,25.57570965,9.92436271,3.09537636
1.18705755,0.22263083

>  <Name>
2f4u_lig

>  <RI>
0

>  <Rbt.Current_Directory>
/home/itssahil/PROJECTS/Mol_Feturizer/New_Systems/rnas/2f4u

>  <Rbt.Executable>
rbdock ($Id: //depot/dev/client3/rdock/2013.1/src/exe/rbdock.cxx#4 $)

>  <Rbt.Library>
libRbt.so (2013.1, Build901 2013/11/27)

>  <Rbt.Parameter_File>
/export/apps/rDock/src/rDock_2013.1_src/data/scripts/dock_solv.prm

>  <Rbt.Receptor>
prm/blind_docking_40.prm

>  <SCORE>
8.14369

>  <SCORE.INTER>
2.80401

>  <SCORE.INTER.CONST>
1

>  <SCORE.INTER.POLAR>
0

>  <SCORE.INTER.ROT>
14

>  <SCORE.INTER.SOLV>
22.1499

>  <SCORE.INTER.VDW>
-18.4473

>  <SCORE.INTER.norm>
0.0778891

>  <SCORE.INTRA>
1.72819

>  <SCORE.INTRA.DIHEDRAL>
-12.5885

>  <SCORE.INTRA.DIHEDRAL.0>
26.3805

>  <SCORE.INTRA.POLAR>
0

>  <SCORE.INTRA.POLAR.0>
0

>  <SCORE.INTRA.REPUL>
0

>  <SCORE.INTRA.REPUL.0>
0

>  <SCORE.INTRA.SOLV>
11.9471

>  <SCORE.INTRA.SOLV.lig_0>
-98.5587

>  <SCORE.INTRA.VDW>
2.04891

>  <SCORE.INTRA.VDW.0>
-2.91167

>  <SCORE.INTRA.norm>
0.0480053

>  <SCORE.RESTR>
3.61149

>  <SCORE.RESTR.CAVITY>
3.61149

>  <SCORE.RESTR.norm>
0.100319

>  <SCORE.SYSTEM>
0

>  <SCORE.SYSTEM.CONST>
0

>  <SCORE.SYSTEM.DIHEDRAL>
0

>  <SCORE.SYSTEM.SOLV>
0

>  <SCORE.SYSTEM.norm>
0

>  <SCORE.heavy>
36

>  <SCORE.norm>
0.226214

>  <RMSD>
27.194

$$$$
2f4u_lig
 OpenBabel11021811433D
libRbt.so/2013.1/901 2013/11/27
 36 37  0  0  0  0  0  0  0  0999 V2000
   21.4989   24.1275    6.3949 C   0  0  2  0  0  0  0  0  0  0  0  0
   22.6939   24.5582    7.1462 O   0  0  0  0  0  0  0  0  0  0  0  0
   23.2657   26.5695   10.9571 C   0  0  2  0  0  0  0  0  0  0  0  0
   23.1990   27.6294   11.9997 N   0  0  0  0  0  0  0  0  0  0  0  0
   21.8324   24.3067    4.8814 C   0  0  2  0  0  0  0  0  0  0  0  0
   23.0126   23.5277    4.4635 N   0  0  0  0  0  0  0  0  0  0  0  0
   24.0011   27.0710    9.6645 C   0  0  0  0  0  0  0  0  0  0  0  0
   24.1825   29.0470   11.5410 C   0  0  0  0  0  0  0  0  0  0  0  0
   23.8449   29.5459   12.9110 C   0  0  1  0  0  0  0  0  0  0  0  0
   22.4406   29.0317   13.2472 C   0  0  0  0  0  0  0  0  0  0  0  0
   21.6566   29.8527   14.2876 C   0  0  0  0  0  0  0  0  0  0  0  0
   21.6999   31.2631   13.8968 N   0  0  0  0  0  0  0  0  0  0  0  0
   24.7307   29.0098   13.8556 O   0  0  0  0  0  0  0  0  0  0  0  0
   20.2857   25.0437   12.6430 C   0  0  0  0  0  0  0  0  0  0  0  0
   20.7154   23.5891   12.7624 C   0  0  0  0  0  0  0  0  0  0  0  0
   22.0629   25.8272    4.5919 C   0  0  1  0  0  0  0  0  0  0  0  0
   21.1583   22.9833   11.4905 N   0  0  0  0  0  0  0  0  0  0  0  0
   22.3827   26.0440    3.2200 O   0  0  0  0  0  0  0  0  0  0  0  0
   24.0160   25.9841    8.5704 C   0  0  2  0  0  0  0  0  0  0  0  0
   24.6590   26.4658    7.3543 N   0  0  0  0  0  0  0  0  0  0  0  0
   23.5302   22.2361   11.6155 C   0  0  0  0  0  0  0  0  0  0  0  0
   23.8806   22.9067   12.9778 C   0  0  0  0  0  0  0  0  0  0  0  0
   22.0472   21.7930   11.5140 C   0  0  0  0  0  0  0  0  0  0  0  0
   25.2359   23.5345   12.9571 N   0  0  0  0  0  0  0  0  0  0  0  0
   24.7790   29.3377   10.6919 O   0  0  0  0  0  0  0  0  0  0  0  0
   20.7889   26.5933    5.0009 C   0  0  2  0  0  0  0  0  0  0  0  0
   20.9029   27.9973    4.7829 O   0  0  0  0  0  0  0  0  0  0  0  0
   22.6017   25.5625    8.2254 C   0  0  2  0  0  0  0  0  0  0  0  0
   20.4461   26.3378    6.4796 C   0  0  2  0  0  0  0  0  0  0  0  0
   20.3394   24.9349    6.7457 O   0  0  0  0  0  0  0  0  0  0  0  0
   21.8749   25.0122    9.5191 C   0  0  2  0  0  0  0  0  0  0  0  0
   20.5094   24.6307    9.1613 O   0  0  0  0  0  0  0  0  0  0  0  0
   19.1599   27.0093    6.8807 C   0  0  0  0  0  0  0  0  0  0  0  0
   18.9781   26.9280    8.2428 O   0  0  0  0  0  0  0  0  0  0  0  0
   21.8549   26.1401   10.6056 C   0  0  1  0  0  0  0  0  0  0  0  0
   21.2206   25.7252   11.7803 O   0  0  0  0  0  0  0  0  0  0  0  0
  1  2  1  1  0  0  0
  1  5  1  0  0  0  0
  1 30  1  0  0  0  0
  3  4  1  1  0  0  0
  3  7  1  0  0  0  0
  3 35  1  0  0  0  0
  5  6  1  1  0  0  0
  5 16  1  0  0  0  0
  7 19  1  0  0  0  0
  8  4  1  0  0  0  0
  8 25  2  0  0  0  0
  9  8  1  6  0  0  0
  9 10  1  0  0  0  0
  9 13  1  0  0  0  0
 10 11  1  0  0  0  0
 11 12  1  0  0  0  0
 14 15  1  0  0  0  0
 14 36  1  0  0  0  0
 15 17  1  0  0  0  0
 16 18  1  6  0  0  0
 16 26  1  0  0  0  0
 17 23  1  0  0  0  0
 19 20  1  6  0  0  0
 19 28  1  0  0  0  0
 21 22  1  0  0  0  0
 21 23  1  0  0  0  0
 22 24  1  0  0  0  0
 26 27  1  1  0  0  0
 26 29  1  0  0  0  0
 28  2  1  6  0  0  0
 28 31  1  0  0  0  0
 29 30  1  0  0  0  0
 29 33  1  6  0  0  0
 31 32  1  6  0  0  0
 31 35  1  0  0  0  0
 33 34  1  0  0  0  0
 35 36  1  1  0  0  0
M  END
>  <CHROM.1>
127.20101120,-8.33833168,-32.79956054,-155.47788359,50.09270551,-41.89376692
77.20678731,157.70154923,-85.99092741,-169.93806984,67.33002191,-168.11438379
-171.31983856,-156.71182852,22.24251080,26.06733627,9.51502997,-3.13573802
-1.38412123,-0.26630971

>  <Name>
2f4u_lig

>  <RI>
0

>  <Rbt.Current_Directory>
/home/itssahil/PROJECTS/Mol_Feturizer/New_Systems/rnas/2f4u

>  <Rbt.Executable>
rbdock ($Id: //depot/dev/client3/rdock/2013.1/src/exe/rbdock.cxx#4 $)

>  <Rbt.Library>
libRbt.so (2013.1, Build901 2013/11/27)

>  <Rbt.Parameter_File>
/export/apps/rDock/src/rDock_2013.1_src/data/scripts/dock_solv.prm

>  <Rbt.Receptor>
prm/blind_docking_60.prm

>  <SCORE>
13.5877

>  <SCORE.INTER>
-6.04151

>  <SCORE.INTER.CONST>
1

>  <SCORE.INTER.POLAR>
-1.90042

>  <SCORE.INTER.ROT>
14

>  <SCORE.INTER.SOLV>
21.5503

>  <SCORE.INTER.VDW>
-17.8097

>  <SCORE.INTER.norm>
-0.16782

>  <SCORE.INTRA>
13.6924

>  <SCORE.INTRA.DIHEDRAL>
-7.22107

>  <SCORE.INTRA.DIHEDRAL.0>
26.3805

>  <SCORE.INTRA.POLAR>
0

>  <SCORE.INTRA.POLAR.0>
0

>  <SCORE.INTRA.REPUL>
0

>  <SCORE.INTRA.REPUL.0>
0

>  <SCORE.INTRA.SOLV>
5.40268

>  <SCORE.INTRA.SOLV.lig_0>
-98.5587

>  <SCORE.INTRA.VDW>
14.6016

>  <SCORE.INTRA.VDW.0>
-2.91167

>  <SCORE.INTRA.norm>
0.380345

>  <SCORE.RESTR>
5.93677

>  <SCORE.RESTR.CAVITY>
5.93677

>  <SCORE.RESTR.norm>
0.16491

>  <SCORE.SYSTEM>
0

>  <SCORE.SYSTEM.CONST>
0

>  <SCORE.SYSTEM.DIHEDRAL>
0

>  <SCORE.SYSTEM.SOLV>
0

>  <SCORE.SYSTEM.norm>
0

>  <SCORE.heavy>
36

>  <SCORE.norm>
0.377435

>  <RMSD>
27.195

$$$$
2f4u_lig
 OpenBabel11021811433D
libRbt.so/2013.1/901 2013/11/27
 36 37  0  0  0  0  0  0  0  0999 V2000
   22.6142   26.5722    4.8305 C   0  0  2  0  0  0  0  0  0  0  0  0
   21.3937   26.2846    5.6087 O   0  0  0  0  0  0  0  0  0  0  0  0
   20.2642   24.6420    9.4715 C   0  0  2  0  0  0  0  0  0  0  0  0
   20.3371   23.8370   10.7211 N   0  0  0  0  0  0  0  0  0  0  0  0
   22.9755   25.2626    4.0634 C   0  0  2  0  0  0  0  0  0  0  0  0
   21.8915   24.8081    3.1731 N   0  0  0  0  0  0  0  0  0  0  0  0
   20.3043   23.7341    8.1920 C   0  0  0  0  0  0  0  0  0  0  0  0
   19.4057   24.6041   12.0369 C   0  0  0  0  0  0  0  0  0  0  0  0
   19.9873   23.5195   12.8885 C   0  0  1  0  0  0  0  0  0  0  0  0
   21.4814   23.8216   13.0491 C   0  0  0  0  0  0  0  0  0  0  0  0
   22.4447   22.7407   12.5247 C   0  0  0  0  0  0  0  0  0  0  0  0
   23.8101   23.1104   12.9029 N   0  0  0  0  0  0  0  0  0  0  0  0
   19.4099   23.5417   14.1654 O   0  0  0  0  0  0  0  0  0  0  0  0
   20.8831   27.3176   11.5900 C   0  0  0  0  0  0  0  0  0  0  0  0
   20.5655   28.6291   10.8872 C   0  0  0  0  0  0  0  0  0  0  0  0
   23.3187   24.1460    5.1047 C   0  0  1  0  0  0  0  0  0  0  0  0
   20.3221   29.7620   11.8028 N   0  0  0  0  0  0  0  0  0  0  0  0
   23.6463   22.9217    4.4527 O   0  0  0  0  0  0  0  0  0  0  0  0
   20.2841   24.5806    6.9029 C   0  0  2  0  0  0  0  0  0  0  0  0
   20.3671   23.7392    5.7157 N   0  0  0  0  0  0  0  0  0  0  0  0
   22.2327   29.6107   13.3924 C   0  0  0  0  0  0  0  0  0  0  0  0
   23.6874   29.2710   12.9487 C   0  0  0  0  0  0  0  0  0  0  0  0
   21.4747   30.5040   12.3759 C   0  0  0  0  0  0  0  0  0  0  0  0
   23.7157   28.5348   11.6492 N   0  0  0  0  0  0  0  0  0  0  0  0
   18.7832   25.4775   12.1422 O   0  0  0  0  0  0  0  0  0  0  0  0
   24.4844   24.6470    5.9806 C   0  0  2  0  0  0  0  0  0  0  0  0
   24.8680   23.6984    6.9730 O   0  0  0  0  0  0  0  0  0  0  0  0
   21.4538   25.5442    6.8855 C   0  0  2  0  0  0  0  0  0  0  0  0
   24.1235   25.9772    6.6659 C   0  0  2  0  0  0  0  0  0  0  0  0
   23.7148   26.9551    5.7031 O   0  0  0  0  0  0  0  0  0  0  0  0
   21.3876   26.4918    8.1512 C   0  0  2  0  0  0  0  0  0  0  0  0
   22.5356   27.3968    8.1180 O   0  0  0  0  0  0  0  0  0  0  0  0
   25.2764   26.5285    7.4615 C   0  0  0  0  0  0  0  0  0  0  0  0
   25.2996   25.9763    8.7223 O   0  0  0  0  0  0  0  0  0  0  0  0
   21.4304   25.6102    9.4451 C   0  0  1  0  0  0  0  0  0  0  0  0
   21.3804   26.3839   10.6084 O   0  0  0  0  0  0  0  0  0  0  0  0
  1  2  1  1  0  0  0
  1  5  1  0  0  0  0
  1 30  1  0  0  0  0
  3  4  1  1  0  0  0
  3  7  1  0  0  0  0
  3 35  1  0  0  0  0
  5  6  1  1  0  0  0
  5 16  1  0  0  0  0
  7 19  1  0  0  0  0
  8  4  1  0  0  0  0
  8 25  2  0  0  0  0
  9  8  1  6  0  0  0
  9 10  1  0  0  0  0
  9 13  1  0  0  0  0
 10 11  1  0  0  0  0
 11 12  1  0  0  0  0
 14 15  1  0  0  0  0
 14 36  1  0  0  0  0
 15 17  1  0  0  0  0
 16 18  1  6  0  0  0
 16 26  1  0  0  0  0
 17 23  1  0  0  0  0
 19 20  1  6  0  0  0
 19 28  1  0  0  0  0
 21 22  1  0  0  0  0
 21 23  1  0  0  0  0
 22 24  1  0  0  0  0
 26 27  1  1  0  0  0
 26 29  1  0  0  0  0
 28  2  1  6  0  0  0
 28 31  1  0  0  0  0
 29 30  1  0  0  0  0
 29 33  1  6  0  0  0
 31 32  1  1  0  0  0
 31 35  1  0  0  0  0
 33 34  1  0  0  0  0
 35 36  1  1  0  0  0
M  END
>  <CHROM.1>
79.11749015,-147.31534085,70.42406759,-119.94690080,-173.11997270,-167.62387586
-54.10778752,81.88250421,-69.45972289,-60.14658207,115.36118852,-138.80211774
-85.17283055,-62.24092670,22.00916348,25.73236880,9.09831624,-0.97829772
1.10640838,0.82393740

>  <Name>
2f4u_lig

>  <RI>
0

>  <Rbt.Current_Directory>
/home/itssahil/PROJECTS/Mol_Feturizer/New_Systems/rnas/2f4u

>  <Rbt.Executable>
rbdock ($Id: //depot/dev/client3/rdock/2013.1/src/exe/rbdock.cxx#4 $)

>  <Rbt.Library>
libRbt.so (2013.1, Build901 2013/11/27)

>  <Rbt.Parameter_File>
/export/apps/rDock/src/rDock_2013.1_src/data/scripts/dock_solv.prm

>  <Rbt.Receptor>
prm/blind_docking_60.prm

>  <SCORE>
10.8849

>  <SCORE.INTER>
0.834222

>  <SCORE.INTER.CONST>
1

>  <SCORE.INTER.POLAR>
0

>  <SCORE.INTER.ROT>
14

>  <SCORE.INTER.SOLV>
15.9484

>  <SCORE.INTER.VDW>
-17.6933

>  <SCORE.INTER.norm>
0.0231728

>  <SCORE.INTRA>
5.83841

>  <SCORE.INTRA.DIHEDRAL>
-3.57919

>  <SCORE.INTRA.DIHEDRAL.0>
26.3805

>  <SCORE.INTRA.POLAR>
0

>  <SCORE.INTRA.POLAR.0>
0

>  <SCORE.INTRA.REPUL>
0.00881023

>  <SCORE.INTRA.REPUL.0>
0

>  <SCORE.INTRA.SOLV>
10.6638

>  <SCORE.INTRA.SOLV.lig_0>
-98.5587

>  <SCORE.INTRA.VDW>
2.25205

>  <SCORE.INTRA.VDW.0>
-2.91167

>  <SCORE.INTRA.norm>
0.162178

>  <SCORE.RESTR>
4.21229

>  <SCORE.RESTR.CAVITY>
4.21229

>  <SCORE.RESTR.norm>
0.117008

>  <SCORE.SYSTEM>
0

>  <SCORE.SYSTEM.CONST>
0

>  <SCORE.SYSTEM.DIHEDRAL>
0

>  <SCORE.SYSTEM.SOLV>
0

>  <SCORE.SYSTEM.norm>
0

>  <SCORE.heavy>
36

>  <SCORE.norm>
0.302359

>  <RMSD>
27.218

$$$$
2f4u_lig
 OpenBabel11021811433D
libRbt.so/2013.1/901 2013/11/27
 36 37  0  0  0  0  0  0  0  0999 V2000
   25.6173   24.3672    7.1433 C   0  0  2  0  0  0  0  0  0  0  0  0
   24.9470   25.0716    8.2534 O   0  0  0  0  0  0  0  0  0  0  0  0
   21.0665   25.2684   10.2023 C   0  0  2  0  0  0  0  0  0  0  0  0
   19.6037   25.1017   10.4194 N   0  0  0  0  0  0  0  0  0  0  0  0
   26.6703   25.3569    6.5553 C   0  0  2  0  0  0  0  0  0  0  0  0
   27.6580   25.7971    7.5577 N   0  0  0  0  0  0  0  0  0  0  0  0
   21.3703   26.1299    8.9261 C   0  0  0  0  0  0  0  0  0  0  0  0
   18.7065   26.5582    9.9085 C   0  0  0  0  0  0  0  0  0  0  0  0
   17.5197   25.8582   10.4926 C   0  0  1  0  0  0  0  0  0  0  0  0
   16.2711   26.6094   10.0171 C   0  0  0  0  0  0  0  0  0  0  0  0
   16.1342   26.7868    8.4936 C   0  0  0  0  0  0  0  0  0  0  0  0
   16.3649   25.4914    7.8512 N   0  0  0  0  0  0  0  0  0  0  0  0
   17.4388   24.5474   10.0030 O   0  0  0  0  0  0  0  0  0  0  0  0
   21.3069   22.7761   12.5838 C   0  0  0  0  0  0  0  0  0  0  0  0
   21.2234   24.0462   13.4172 C   0  0  0  0  0  0  0  0  0  0  0  0
   25.9217   26.5951    5.9595 C   0  0  1  0  0  0  0  0  0  0  0  0
   22.4228   24.9038   13.3337 N   0  0  0  0  0  0  0  0  0  0  0  0
   26.8430   27.5378    5.4175 O   0  0  0  0  0  0  0  0  0  0  0  0
   22.8879   26.2502    8.6790 C   0  0  2  0  0  0  0  0  0  0  0  0
   23.1685   27.0120    7.4686 N   0  0  0  0  0  0  0  0  0  0  0  0
   22.0442   27.1300   14.3828 C   0  0  0  0  0  0  0  0  0  0  0  0
   22.0618   28.6777   14.2023 C   0  0  0  0  0  0  0  0  0  0  0  0
   22.2698   26.3558   13.0580 C   0  0  0  0  0  0  0  0  0  0  0  0
   20.9290   29.1521   13.3520 N   0  0  0  0  0  0  0  0  0  0  0  0
   18.9532   27.5047    9.4561 O   0  0  0  0  0  0  0  0  0  0  0  0
   24.9356   26.0908    4.8868 C   0  0  2  0  0  0  0  0  0  0  0  0
   24.1937   27.1496    4.2867 O   0  0  0  0  0  0  0  0  0  0  0  0
   23.5094   24.8758    8.5305 C   0  0  2  0  0  0  0  0  0  0  0  0
   23.9571   25.0620    5.4815 C   0  0  2  0  0  0  0  0  0  0  0  0
   24.6636   23.9874    6.1110 O   0  0  0  0  0  0  0  0  0  0  0  0
   23.2440   24.0226    9.8367 C   0  0  2  0  0  0  0  0  0  0  0  0
   23.8376   22.6982    9.6584 O   0  0  0  0  0  0  0  0  0  0  0  0
   23.0372   24.4934    4.4343 C   0  0  0  0  0  0  0  0  0  0  0  0
   21.8920   25.2510    4.3361 O   0  0  0  0  0  0  0  0  0  0  0  0
   21.6978   23.8982   10.0533 C   0  0  1  0  0  0  0  0  0  0  0  0
   21.3866   23.1493   11.1920 O   0  0  0  0  0  0  0  0  0  0  0  0
  1  2  1  1  0  0  0
  1  5  1  0  0  0  0
  1 30  1  0  0  0  0
  3  4  1  6  0  0  0
  3  7  1  0  0  0  0
  3 35  1  0  0  0  0
  5  6  1  1  0  0  0
  5 16  1  0  0  0  0
  7 19  1  0  0  0  0
  8  4  1  0  0  0  0
  8 25  2  0  0  0  0
  9  8  1  6  0  0  0
  9 10  1  0  0  0  0
  9 13  1  0  0  0  0
 10 11  1  0  0  0  0
 11 12  1  0  0  0  0
 14 15  1  0  0  0  0
 14 36  1  0  0  0  0
 15 17  1  0  0  0  0
 16 18  1  6  0  0  0
 16 26  1  0  0  0  0
 17 23  1  0  0  0  0
 19 20  1  6  0  0  0
 19 28  1  0  0  0  0
 21 22  1  0  0  0  0
 21 23  1  0  0  0  0
 22 24  1  0  0  0  0
 26 27  1  1  0  0  0
 26 29  1  0  0  0  0
 28  2  1  1  0  0  0
 28 31  1  0  0  0  0
 29 30  1  0  0  0  0
 29 33  1  6  0  0  0
 31 32  1  6  0  0  0
 31 35  1  0  0  0  0
 33 34  1  0  0  0  0
 35 36  1  1  0  0  0
M  END
>  <CHROM.1>
144.04611995,-34.15181414,-166.83409203,54.57543584,48.58419924,-64.06211784
31.43506374,130.72514919,86.71449157,64.66857379,172.39717579,-131.29706698
-90.20997860,-58.20991219,22.11059342,25.58932440,9.02415712,-0.75078804
-0.06535462,1.58218174

>  <Name>
2f4u_lig

>  <RI>
0

>  <Rbt.Current_Directory>
/home/itssahil/PROJECTS/Mol_Feturizer/New_Systems/rnas/2f4u

>  <Rbt.Executable>
rbdock ($Id: //depot/dev/client3/rdock/2013.1/src/exe/rbdock.cxx#4 $)

>  <Rbt.Library>
libRbt.so (2013.1, Build901 2013/11/27)

>  <Rbt.Parameter_File>
/export/apps/rDock/src/rDock_2013.1_src/data/scripts/dock_solv.prm

>  <Rbt.Receptor>
prm/blind_docking_40.prm

>  <SCORE>
14.6801

>  <SCORE.INTER>
1.44249

>  <SCORE.INTER.CONST>
1

>  <SCORE.INTER.POLAR>
0

>  <SCORE.INTER.ROT>
14

>  <SCORE.INTER.SOLV>
9.6106

>  <SCORE.INTER.VDW>
-15.1752

>  <SCORE.INTER.norm>
0.0400692

>  <SCORE.INTRA>
4.08016

>  <SCORE.INTRA.DIHEDRAL>
-5.01024

>  <SCORE.INTRA.DIHEDRAL.0>
26.3805

>  <SCORE.INTRA.POLAR>
0

>  <SCORE.INTRA.POLAR.0>
0

>  <SCORE.INTRA.REPUL>
0

>  <SCORE.INTRA.REPUL.0>
0

>  <SCORE.INTRA.SOLV>
9.77895

>  <SCORE.INTRA.SOLV.lig_0>
-98.5587

>  <SCORE.INTRA.VDW>
1.6958

>  <SCORE.INTRA.VDW.0>
-2.91167

>  <SCORE.INTRA.norm>
0.113338

>  <SCORE.RESTR>
9.15741

>  <SCORE.RESTR.CAVITY>
9.15741

>  <SCORE.RESTR.norm>
0.254373

>  <SCORE.SYSTEM>
0

>  <SCORE.SYSTEM.CONST>
0

>  <SCORE.SYSTEM.DIHEDRAL>
0

>  <SCORE.SYSTEM.SOLV>
0

>  <SCORE.SYSTEM.norm>
0

>  <SCORE.heavy>
36

>  <SCORE.norm>
0.407779

>  <RMSD>
27.263

$$$$
2f4u_lig
 OpenBabel11021811433D
libRbt.so/2013.1/901 2013/11/27
 36 37  0  0  0  0  0  0  0  0999 V2000
   19.2160   24.2896    9.1610 C   0  0  2  0  0  0  0  0  0  0  0  0
   19.2966   25.7466    8.9408 O   0  0  0  0  0  0  0  0  0  0  0  0
   23.4163   26.2988    7.6686 C   0  0  2  0  0  0  0  0  0  0  0  0
   24.6244   26.9522    7.0957 N   0  0  0  0  0  0  0  0  0  0  0  0
   17.9957   24.0454   10.1019 C   0  0  2  0  0  0  0  0  0  0  0  0
   16.7317   24.5520    9.5362 N   0  0  0  0  0  0  0  0  0  0  0  0
   22.2562   26.1971    6.6164 C   0  0  0  0  0  0  0  0  0  0  0  0
   25.6520   25.7692    6.2400 C   0  0  0  0  0  0  0  0  0  0  0  0
   26.6100   26.9113    6.1074 C   0  0  1  0  0  0  0  0  0  0  0  0
   27.9685   26.3200    5.7147 C   0  0  0  0  0  0  0  0  0  0  0  0
   27.9825   25.4615    4.4364 C   0  0  0  0  0  0  0  0  0  0  0  0
   27.7054   26.3289    3.2898 N   0  0  0  0  0  0  0  0  0  0  0  0
   26.2052   27.7680    5.0746 O   0  0  0  0  0  0  0  0  0  0  0  0
   25.2401   27.6588   10.3665 C   0  0  0  0  0  0  0  0  0  0  0  0
   24.9959   29.0386   10.9593 C   0  0  0  0  0  0  0  0  0  0  0  0
   18.2778   24.7275   11.4817 C   0  0  1  0  0  0  0  0  0  0  0  0
   23.6913   29.1834   11.6360 N   0  0  0  0  0  0  0  0  0  0  0  0
   17.1844   24.5423   12.3770 O   0  0  0  0  0  0  0  0  0  0  0  0
   20.9910   25.5692    7.2356 C   0  0  2  0  0  0  0  0  0  0  0  0
   19.8996   25.5165    6.2710 N   0  0  0  0  0  0  0  0  0  0  0  0
   22.6003   29.4190   13.8618 C   0  0  0  0  0  0  0  0  0  0  0  0
   21.2005   29.7485   13.2615 C   0  0  0  0  0  0  0  0  0  0  0  0
   23.4637   28.5153   12.9434 C   0  0  0  0  0  0  0  0  0  0  0  0
   20.3945   28.5147   13.0181 N   0  0  0  0  0  0  0  0  0  0  0  0
   25.6000   24.7180    6.0084 O   0  0  0  0  0  0  0  0  0  0  0  0
   19.5808   24.1344   12.0541 C   0  0  2  0  0  0  0  0  0  0  0  0
   19.9311   24.7015   13.3140 O   0  0  0  0  0  0  0  0  0  0  0  0
   20.5303   26.3791    8.4310 C   0  0  2  0  0  0  0  0  0  0  0  0
   20.7495   24.3270   11.0709 C   0  0  2  0  0  0  0  0  0  0  0  0
   20.4311   23.7852    9.7843 O   0  0  0  0  0  0  0  0  0  0  0  0
   21.6831   26.4422    9.5133 C   0  0  2  0  0  0  0  0  0  0  0  0
   21.2185   27.2432   10.6449 O   0  0  0  0  0  0  0  0  0  0  0  0
   22.0147   23.6831   11.5716 C   0  0  0  0  0  0  0  0  0  0  0  0
   22.5843   24.4477   12.5646 O   0  0  0  0  0  0  0  0  0  0  0  0
   22.9480   27.1016    8.8663 C   0  0  1  0  0  0  0  0  0  0  0  0
   24.0104   27.1955    9.7699 O   0  0  0  0  0  0  0  0  0  0  0  0
  1  2  1  1  0  0  0
  1  5  1  0  0  0  0
  1 30  1  0  0  0  0
  3  4  1  6  0  0  0
  3  7  1  0  0  0  0
  3 35  1  0  0  0  0
  5  6  1  6  0  0  0
  5 16  1  0  0  0  0
  7 19  1  0  0  0  0
  8  4  1  0  0  0  0
  8 25  2  0  0  0  0
  9  8  1  6  0  0  0
  9 10  1  0  0  0  0
  9 13  1  0  0  0  0
 10 11  1  0  0  0  0
 11 12  1  0  0  0  0
 14 15  1  0  0  0  0
 14 36  1  0  0  0  0
 15 17  1  0  0  0  0
 16 18  1  1  0  0  0
 16 26  1  0  0  0  0
 17 23  1  0  0  0  0
 19 20  1  6  0  0  0
 19 28  1  0  0  0  0
 21 22  1  0  0  0  0
 21 23  1  0  0  0  0
 22 24  1  0  0  0  0
 26 27  1  1  0  0  0
 26 29  1  0  0  0  0
 28  2  1  1  0  0  0
 28 31  1  0  0  0  0
 29 30  1  0  0  0  0
 29 33  1  1  0  0  0
 31 32  1  1  0  0  0
 31 35  1  0  0  0  0
 33 34  1  0  0  0  0
 35 36  1  1  0  0  0
M  END
>  <CHROM.1>
162.20112717,-85.19805592,164.52752656,56.47095071,66.93675485,40.24301528
71.69427665,72.17393905,142.80300115,60.11791738,59.89791522,47.80509021
-76.19668614,79.93552138,22.35396866,26.19635076,9.39227106,2.59506476,0.48689094
1.08043344

>  <Name>
2f4u_lig

>  <RI>
0

>  <Rbt.Current_Directory>
/home/itssahil/PROJECTS/Mol_Feturizer/New_Systems/rnas/2f4u

>  <Rbt.Executable>
rbdock ($Id: //depot/dev/client3/rdock/2013.1/src/exe/rbdock.cxx#4 $)

>  <Rbt.Library>
libRbt.so (2013.1, Build901 2013/11/27)

>  <Rbt.Parameter_File>
/export/apps/rDock/src/rDock_2013.1_src/data/scripts/dock_solv.prm

>  <Rbt.Receptor>
prm/blind_docking_40.prm

>  <SCORE>
-4.22932

>  <SCORE.INTER>
-4.23047

>  <SCORE.INTER.CONST>
1

>  <SCORE.INTER.POLAR>
0

>  <SCORE.INTER.ROT>
14

>  <SCORE.INTER.SOLV>
6.98408

>  <SCORE.INTER.VDW>
-18.0817

>  <SCORE.INTER.norm>
-0.117513

>  <SCORE.INTRA>
-4.56472

>  <SCORE.INTRA.DIHEDRAL>
-16.9357

>  <SCORE.INTRA.DIHEDRAL.0>
26.3805

>  <SCORE.INTRA.POLAR>
0

>  <SCORE.INTRA.POLAR.0>
0

>  <SCORE.INTRA.REPUL>
0

>  <SCORE.INTRA.REPUL.0>
0

>  <SCORE.INTRA.SOLV>
8.59963

>  <SCORE.INTRA.SOLV.lig_0>
-98.5587

>  <SCORE.INTRA.VDW>
-0.396693

>  <SCORE.INTRA.VDW.0>
-2.91167

>  <SCORE.INTRA.norm>
-0.126798

>  <SCORE.RESTR>
4.56587

>  <SCORE.RESTR.CAVITY>
4.56587

>  <SCORE.RESTR.norm>
0.12683

>  <SCORE.SYSTEM>
0

>  <SCORE.SYSTEM.CONST>
0

>  <SCORE.SYSTEM.DIHEDRAL>
0

>  <SCORE.SYSTEM.SOLV>
0

>  <SCORE.SYSTEM.norm>
0

>  <SCORE.heavy>
36

>  <SCORE.norm>
-0.117481

>  <RMSD>
27.266

$$$$
2f4u_lig
 OpenBabel11021811433D
libRbt.so/2013.1/901 2013/11/27
 36 37  0  0  0  0  0  0  0  0999 V2000
   21.6580   26.1323    5.4404 C   0  0  2  0  0  0  0  0  0  0  0  0
   20.7819   25.4540    6.4152 O   0  0  0  0  0  0  0  0  0  0  0  0
   21.6472   27.4840   10.1603 C   0  0  2  0  0  0  0  0  0  0  0  0
   21.4573   28.0072   11.5406 N   0  0  0  0  0  0  0  0  0  0  0  0
   22.0550   25.0637    4.3753 C   0  0  2  0  0  0  0  0  0  0  0  0
   20.8853   24.4767    3.6960 N   0  0  0  0  0  0  0  0  0  0  0  0
   20.5660   28.0465    9.1716 C   0  0  0  0  0  0  0  0  0  0  0  0
   21.4628   29.7924   11.5592 C   0  0  0  0  0  0  0  0  0  0  0  0
   21.4171   29.6351   13.0468 C   0  0  1  0  0  0  0  0  0  0  0  0
   22.3064   28.4387   13.4035 C   0  0  0  0  0  0  0  0  0  0  0  0
   21.9777   27.7304   14.7307 C   0  0  0  0  0  0  0  0  0  0  0  0
   20.7703   26.9238   14.5418 N   0  0  0  0  0  0  0  0  0  0  0  0
   21.9573   30.7671   13.6722 O   0  0  0  0  0  0  0  0  0  0  0  0
   23.2619   25.3662   12.3344 C   0  0  0  0  0  0  0  0  0  0  0  0
   24.1813   24.1606   12.2089 C   0  0  0  0  0  0  0  0  0  0  0  0
   22.8897   23.9399    5.0744 C   0  0  1  0  0  0  0  0  0  0  0  0
   23.6344   23.0670   11.3806 N   0  0  0  0  0  0  0  0  0  0  0  0
   23.2691   22.9299    4.1431 O   0  0  0  0  0  0  0  0  0  0  0  0
   20.7379   27.4557    7.7574 C   0  0  2  0  0  0  0  0  0  0  0  0
   19.7061   27.9434    6.8508 N   0  0  0  0  0  0  0  0  0  0  0  0
   21.5309   21.9720   12.1399 C   0  0  0  0  0  0  0  0  0  0  0  0
   21.0600   23.0672   13.1434 C   0  0  0  0  0  0  0  0  0  0  0  0
   23.0743   21.8576   12.0373 C   0  0  0  0  0  0  0  0  0  0  0  0
   19.5809   23.2698   13.0929 N   0  0  0  0  0  0  0  0  0  0  0  0
   21.5350   30.5775   10.8245 O   0  0  0  0  0  0  0  0  0  0  0  0
   24.1229   24.5935    5.7296 C   0  0  2  0  0  0  0  0  0  0  0  0
   24.9480   23.6473    6.4046 O   0  0  0  0  0  0  0  0  0  0  0  0
   20.6541   25.9430    7.8032 C   0  0  2  0  0  0  0  0  0  0  0  0
   23.6997   25.6927    6.7206 C   0  0  2  0  0  0  0  0  0  0  0  0
   22.8531   26.6570    6.0853 O   0  0  0  0  0  0  0  0  0  0  0  0
   21.7750   25.3722    8.7635 C   0  0  2  0  0  0  0  0  0  0  0  0
   21.6591   23.9151    8.8027 O   0  0  0  0  0  0  0  0  0  0  0  0
   24.8886   26.4020    7.3118 C   0  0  0  0  0  0  0  0  0  0  0  0
   24.5035   27.1797    8.3804 O   0  0  0  0  0  0  0  0  0  0  0  0
   21.5659   25.9706   10.1958 C   0  0  1  0  0  0  0  0  0  0  0  0
   22.5216   25.5044   11.1033 O   0  0  0  0  0  0  0  0  0  0  0  0
  1  2  1  1  0  0  0
  1  5  1  0  0  0  0
  1 30  1  0  0  0  0
  3  4  1  1  0  0  0
  3  7  1  0  0  0  0
  3 35  1  0  0  0  0
  5  6  1  1  0  0  0
  5 16  1  0  0  0  0
  7 19  1  0  0  0  0
  8  4  1  0  0  0  0
  8 25  2  0  0  0  0
  9  8  1  6  0  0  0
  9 10  1  0  0  0  0
  9 13  1  0  0  0  0
 10 11  1  0  0  0  0
 11 12  1  0  0  0  0
 14 15  1  0  0  0  0
 14 36  1  0  0  0  0
 15 17  1  0  0  0  0
 16 18  1  6  0  0  0
 16 26  1  0  0  0  0
 17 23  1  0  0  0  0
 19 20  1  6  0  0  0
 19 28  1  0  0  0  0
 21 22  1  0  0  0  0
 21 23  1  0  0  0  0
 22 24  1  0  0  0  0
 26 27  1  1  0  0  0
 26 29  1  0  0  0  0
 28  2  1  6  0  0  0
 28 31  1  0  0  0  0
 29 30  1  0  0  0  0
 29 33  1  6  0  0  0
 31 32  1  1  0  0  0
 31 35  1  0  0  0  0
 33 34  1  0  0  0  0
 35 36  1  1  0  0  0
M  END
>  <CHROM.1>
154.89916523,-56.08660991,38.11244738,-155.55544895,75.26168561,-32.93974555
170.46382836,-103.00425473,97.50328926,172.85034128,-68.96107754,35.26066945
-167.80392052,52.37060008,22.15177755,25.94967920,9.43879063,0.91808228,1.37745112
-1.26173124

>  <Name>
2f4u_lig

>  <RI>
0

>  <Rbt.Current_Directory>
/home/itssahil/PROJECTS/Mol_Feturizer/New_Systems/rnas/2f4u

>  <Rbt.Executable>
rbdock ($Id: //depot/dev/client3/rdock/2013.1/src/exe/rbdock.cxx#4 $)

>  <Rbt.Library>
libRbt.so (2013.1, Build901 2013/11/27)

>  <Rbt.Parameter_File>
/export/apps/rDock/src/rDock_2013.1_src/data/scripts/dock_solv.prm

>  <Rbt.Receptor>
prm/blind_docking_40.prm

>  <SCORE>
5.61212

>  <SCORE.INTER>
-9.51719

>  <SCORE.INTER.CONST>
1

>  <SCORE.INTER.POLAR>
-0.988344

>  <SCORE.INTER.ROT>
14

>  <SCORE.INTER.SOLV>
18.2372

>  <SCORE.INTER.VDW>
-22.0627

>  <SCORE.INTER.norm>
-0.264366

>  <SCORE.INTRA>
8.39185

>  <SCORE.INTRA.DIHEDRAL>
-11.3069

>  <SCORE.INTRA.DIHEDRAL.0>
26.3805

>  <SCORE.INTRA.POLAR>
0

>  <SCORE.INTRA.POLAR.0>
0

>  <SCORE.INTRA.REPUL>
0

>  <SCORE.INTRA.REPUL.0>
0

>  <SCORE.INTRA.SOLV>
6.98813

>  <SCORE.INTRA.SOLV.lig_0>
-98.5587

>  <SCORE.INTRA.VDW>
10.5512

>  <SCORE.INTRA.VDW.0>
-2.91167

>  <SCORE.INTRA.norm>
0.233107

>  <SCORE.RESTR>
6.73746

>  <SCORE.RESTR.CAVITY>
6.73746

>  <SCORE.RESTR.norm>
0.187152

>  <SCORE.SYSTEM>
0

>  <SCORE.SYSTEM.CONST>
0

>  <SCORE.SYSTEM.DIHEDRAL>
0

>  <SCORE.SYSTEM.SOLV>
0

>  <SCORE.SYSTEM.norm>
0

>  <SCORE.heavy>
36

>  <SCORE.norm>
0.155892

>  <RMSD>
27.270

$$$$
2f4u_lig
 OpenBabel11021811433D
libRbt.so/2013.1/901 2013/11/27
 36 37  0  0  0  0  0  0  0  0999 V2000
   18.4575   24.4158    9.7550 C   0  0  2  0  0  0  0  0  0  0  0  0
   18.6166   25.8735    9.5887 O   0  0  0  0  0  0  0  0  0  0  0  0
   22.6113   26.3020    7.9293 C   0  0  2  0  0  0  0  0  0  0  0  0
   23.7530   26.8828    7.1716 N   0  0  0  0  0  0  0  0  0  0  0  0
   17.7287   24.1970   11.1170 C   0  0  2  0  0  0  0  0  0  0  0  0
   16.4172   24.8686   11.1740 N   0  0  0  0  0  0  0  0  0  0  0  0
   21.3797   26.0192    6.9985 C   0  0  0  0  0  0  0  0  0  0  0  0
   24.5972   25.6310    6.2188 C   0  0  0  0  0  0  0  0  0  0  0  0
   25.5749   26.7230    5.9162 C   0  0  1  0  0  0  0  0  0  0  0  0
   26.8646   26.0540    5.4278 C   0  0  0  0  0  0  0  0  0  0  0  0
   28.0871   26.9791    5.2828 C   0  0  0  0  0  0  0  0  0  0  0  0
   29.2676   26.1534    5.0213 N   0  0  0  0  0  0  0  0  0  0  0  0
   25.0951   27.5305    4.8759 O   0  0  0  0  0  0  0  0  0  0  0  0
   24.6536   27.9700   10.1872 C   0  0  0  0  0  0  0  0  0  0  0  0
   24.8855   27.6285   11.6516 C   0  0  0  0  0  0  0  0  0  0  0  0
   18.6488   24.7171   12.2710 C   0  0  1  0  0  0  0  0  0  0  0  0
   24.1307   26.4504   12.1243 N   0  0  0  0  0  0  0  0  0  0  0  0
   18.0219   24.5494   13.5400 O   0  0  0  0  0  0  0  0  0  0  0  0
   20.1838   25.4696    7.8025 C   0  0  2  0  0  0  0  0  0  0  0  0
   19.0257   25.2500    6.9453 N   0  0  0  0  0  0  0  0  0  0  0  0
   22.5044   26.7749   13.9817 C   0  0  0  0  0  0  0  0  0  0  0  0
   22.3599   28.3212   13.8541 C   0  0  0  0  0  0  0  0  0  0  0  0
   23.9097   26.2554   13.5806 C   0  0  0  0  0  0  0  0  0  0  0  0
   20.9432   28.7638   14.0218 N   0  0  0  0  0  0  0  0  0  0  0  0
   24.4679   24.5777    6.0309 O   0  0  0  0  0  0  0  0  0  0  0  0
   19.9875   23.9555   12.1993 C   0  0  2  0  0  0  0  0  0  0  0  0
   20.9039   24.3667   13.2106 O   0  0  0  0  0  0  0  0  0  0  0  0
   19.7891   26.4438    8.8945 C   0  0  2  0  0  0  0  0  0  0  0  0
   20.6457   24.1319   10.8190 C   0  0  2  0  0  0  0  0  0  0  0  0
   19.7497   23.7455    9.7711 O   0  0  0  0  0  0  0  0  0  0  0  0
   21.0170   26.6928    9.8612 C   0  0  2  0  0  0  0  0  0  0  0  0
   20.6139   27.6484   10.8920 O   0  0  0  0  0  0  0  0  0  0  0  0
   21.9139   23.3302   10.6965 C   0  0  0  0  0  0  0  0  0  0  0  0
   22.7428   23.5728   11.7685 O   0  0  0  0  0  0  0  0  0  0  0  0
   22.2095   27.2693    9.0252 C   0  0  1  0  0  0  0  0  0  0  0  0
   23.3330   27.5198    9.8184 O   0  0  0  0  0  0  0  0  0  0  0  0
  1  2  1  1  0  0  0
  1  5  1  0  0  0  0
  1 30  1  0  0  0  0
  3  4  1  6  0  0  0
  3  7  1  0  0  0  0
  3 35  1  0  0  0  0
  5  6  1  6  0  0  0
  5 16  1  0  0  0  0
  7 19  1  0  0  0  0
  8  4  1  0  0  0  0
  8 25  2  0  0  0  0
  9  8  1  6  0  0  0
  9 10  1  0  0  0  0
  9 13  1  0  0  0  0
 10 11  1  0  0  0  0
 11 12  1  0  0  0  0
 14 15  1  0  0  0  0
 14 36  1  0  0  0  0
 15 17  1  0  0  0  0
 16 18  1  1  0  0  0
 16 26  1  0  0  0  0
 17 23  1  0  0  0  0
 19 20  1  6  0  0  0
 19 28  1  0  0  0  0
 21 22  1  0  0  0  0
 21 23  1  0  0  0  0
 22 24  1  0  0  0  0
 26 27  1  1  0  0  0
 26 29  1  0  0  0  0
 28  2  1  1  0  0  0
 28 31  1  0  0  0  0
 29 30  1  0  0  0  0
 29 33  1  1  0  0  0
 31 32  1  1  0  0  0
 31 35  1  0  0  0  0
 33 34  1  0  0  0  0
 35 36  1  1  0  0  0
M  END
>  <CHROM.1>
146.96033483,-76.28413674,161.51785750,-170.14605065,171.01502163,28.09671012
-178.79432729,-160.54551617,97.63783428,170.35198954,-67.30452576,33.50050871
-50.68341928,63.18524005,22.08748862,25.91309282,9.73070850,2.47246115,0.34136173
1.38818918

>  <Name>
2f4u_lig

>  <RI>
0

>  <Rbt.Current_Directory>
/home/itssahil/PROJECTS/Mol_Feturizer/New_Systems/rnas/2f4u

>  <Rbt.Executable>
rbdock ($Id: //depot/dev/client3/rdock/2013.1/src/exe/rbdock.cxx#4 $)

>  <Rbt.Library>
libRbt.so (2013.1, Build901 2013/11/27)

>  <Rbt.Parameter_File>
/export/apps/rDock/src/rDock_2013.1_src/data/scripts/dock_solv.prm

>  <Rbt.Receptor>
prm/blind_docking_40.prm

>  <SCORE>
-0.963836

>  <SCORE.INTER>
-1.02714

>  <SCORE.INTER.CONST>
1

>  <SCORE.INTER.POLAR>
0

>  <SCORE.INTER.ROT>
14

>  <SCORE.INTER.SOLV>
6.86337

>  <SCORE.INTER.VDW>
-15.9059

>  <SCORE.INTER.norm>
-0.0285318

>  <SCORE.INTRA>
-3.55084

>  <SCORE.INTRA.DIHEDRAL>
-12.2654

>  <SCORE.INTRA.DIHEDRAL.0>
26.3805

>  <SCORE.INTRA.POLAR>
0

>  <SCORE.INTRA.POLAR.0>
0

>  <SCORE.INTRA.REPUL>
0.00720904

>  <SCORE.INTRA.REPUL.0>
0

>  <SCORE.INTRA.SOLV>
4.73462

>  <SCORE.INTRA.SOLV.lig_0>
-98.5587

>  <SCORE.INTRA.VDW>
0.178492

>  <SCORE.INTRA.VDW.0>
-2.91167

>  <SCORE.INTRA.norm>
-0.0986344

>  <SCORE.RESTR>
3.61415

>  <SCORE.RESTR.CAVITY>
3.61415

>  <SCORE.RESTR.norm>
0.100393

>  <SCORE.SYSTEM>
0

>  <SCORE.SYSTEM.CONST>
0

>  <SCORE.SYSTEM.DIHEDRAL>
0

>  <SCORE.SYSTEM.SOLV>
0

>  <SCORE.SYSTEM.norm>
0

>  <SCORE.heavy>
36

>  <SCORE.norm>
-0.0267732

>  <RMSD>
27.271

$$$$
2f4u_lig
 OpenBabel11021811433D
libRbt.so/2013.1/901 2013/11/27
 36 37  0  0  0  0  0  0  0  0999 V2000
   22.1061   26.6700    5.2017 C   0  0  2  0  0  0  0  0  0  0  0  0
   20.8733   26.1871    5.8535 O   0  0  0  0  0  0  0  0  0  0  0  0
   19.5357   25.2852    9.8900 C   0  0  2  0  0  0  0  0  0  0  0  0
   19.5571   24.7630   11.2834 N   0  0  0  0  0  0  0  0  0  0  0  0
   22.6196   25.5072    4.2970 C   0  0  2  0  0  0  0  0  0  0  0  0
   21.6293   25.0944    3.2855 N   0  0  0  0  0  0  0  0  0  0  0  0
   19.7439   24.1403    8.8369 C   0  0  0  0  0  0  0  0  0  0  0  0
   21.1788   24.9332   12.0104 C   0  0  0  0  0  0  0  0  0  0  0  0
   20.5922   24.1623   13.1511 C   0  0  1  0  0  0  0  0  0  0  0  0
   21.5262   22.9784   13.4259 C   0  0  0  0  0  0  0  0  0  0  0  0
   22.2770   22.4182   12.2036 C   0  0  0  0  0  0  0  0  0  0  0  0
   21.5864   21.2110   11.7458 N   0  0  0  0  0  0  0  0  0  0  0  0
   20.5590   24.9542   14.3070 O   0  0  0  0  0  0  0  0  0  0  0  0
   19.8684   28.4652   11.3618 C   0  0  0  0  0  0  0  0  0  0  0  0
   20.4146   28.5273   12.7804 C   0  0  0  0  0  0  0  0  0  0  0  0
   22.9984   24.2906    5.2053 C   0  0  1  0  0  0  0  0  0  0  0  0
   21.7415   29.1664   12.8897 N   0  0  0  0  0  0  0  0  0  0  0  0
   23.4648   23.1940    4.4233 O   0  0  0  0  0  0  0  0  0  0  0  0
   19.7754   24.6992    7.3998 C   0  0  2  0  0  0  0  0  0  0  0  0
   20.0141   23.6417    6.4255 N   0  0  0  0  0  0  0  0  0  0  0  0
   23.8583   28.7709   11.6396 C   0  0  0  0  0  0  0  0  0  0  0  0
   25.2294   28.0322   11.5892 C   0  0  0  0  0  0  0  0  0  0  0  0
   22.9674   28.3290   12.8298 C   0  0  0  0  0  0  0  0  0  0  0  0
   26.0935   28.5370   10.4802 N   0  0  0  0  0  0  0  0  0  0  0  0
   22.1274   25.3455   11.7076 O   0  0  0  0  0  0  0  0  0  0  0  0
   24.0669   24.7575    6.2140 C   0  0  2  0  0  0  0  0  0  0  0  0
   24.4743   23.7165    7.0984 O   0  0  0  0  0  0  0  0  0  0  0  0
   20.8754   25.7324    7.2589 C   0  0  2  0  0  0  0  0  0  0  0  0
   23.5565   25.9517    7.0404 C   0  0  2  0  0  0  0  0  0  0  0  0
   23.1200   27.0157    6.1874 O   0  0  0  0  0  0  0  0  0  0  0  0
   20.6397   26.9110    8.2884 C   0  0  2  0  0  0  0  0  0  0  0  0
   21.7233   27.8820    8.1431 O   0  0  0  0  0  0  0  0  0  0  0  0
   24.6124   26.4782    7.9753 C   0  0  0  0  0  0  0  0  0  0  0  0
   24.0997   27.4829    8.7645 O   0  0  0  0  0  0  0  0  0  0  0  0
   20.6326   26.3208    9.7392 C   0  0  1  0  0  0  0  0  0  0  0  0
   20.4333   27.3101   10.7066 O   0  0  0  0  0  0  0  0  0  0  0  0
  1  2  1  1  0  0  0
  1  5  1  0  0  0  0
  1 30  1  0  0  0  0
  3  4  1  1  0  0  0
  3  7  1  0  0  0  0
  3 35  1  0  0  0  0
  5  6  1  6  0  0  0
  5 16  1  0  0  0  0
  7 19  1  0  0  0  0
  8  4  1  0  0  0  0
  8 25  2  0  0  0  0
  9  8  1  6  0  0  0
  9 10  1  0  0  0  0
  9 13  1  0  0  0  0
 10 11  1  0  0  0  0
 11 12  1  0  0  0  0
 14 15  1  0  0  0  0
 14 36  1  0  0  0  0
 15 17  1  0  0  0  0
 16 18  1  6  0  0  0
 16 26  1  0  0  0  0
 17 23  1  0  0  0  0
 19 20  1  6  0  0  0
 19 28  1  0  0  0  0
 21 22  1  0  0  0  0
 21 23  1  0  0  0  0
 22 24  1  0  0  0  0
 26 27  1  1  0  0  0
 26 29  1  0  0  0  0
 28  2  1  6  0  0  0
 28 31  1  0  0  0  0
 29 30  1  0  0  0  0
 29 33  1  1  0  0  0
 31 32  1  1  0  0  0
 31 35  1  0  0  0  0
 33 34  1  0  0  0  0
 35 36  1  1  0  0  0
M  END
>  <CHROM.1>
102.17264652,95.87212654,127.65176909,-30.93143804,-100.44430833,83.31286684
169.62614101,-92.40475720,120.34928412,-176.67713432,174.44901196,-151.35368627
-175.85654987,-77.31583965,21.98424429,25.81561634,9.21389315,-1.31453729
1.00630062,1.20522341

>  <Name>
2f4u_lig

>  <RI>
0

>  <Rbt.Current_Directory>
/home/itssahil/PROJECTS/Mol_Feturizer/New_Systems/rnas/2f4u

>  <Rbt.Executable>
rbdock ($Id: //depot/dev/client3/rdock/2013.1/src/exe/rbdock.cxx#4 $)

>  <Rbt.Library>
libRbt.so (2013.1, Build901 2013/11/27)

>  <Rbt.Parameter_File>
/export/apps/rDock/src/rDock_2013.1_src/data/scripts/dock_solv.prm

>  <Rbt.Receptor>
prm/blind_docking_60.prm

>  <SCORE>
18.9395

>  <SCORE.INTER>
11.6648

>  <SCORE.INTER.CONST>
1

>  <SCORE.INTER.POLAR>
0

>  <SCORE.INTER.ROT>
14

>  <SCORE.INTER.SOLV>
21.3099

>  <SCORE.INTER.VDW>
-12.2601

>  <SCORE.INTER.norm>
0.324023

>  <SCORE.INTRA>
4.70384

>  <SCORE.INTRA.DIHEDRAL>
-1.70805

>  <SCORE.INTRA.DIHEDRAL.0>
26.3805

>  <SCORE.INTRA.POLAR>
0

>  <SCORE.INTRA.POLAR.0>
0

>  <SCORE.INTRA.REPUL>
0

>  <SCORE.INTRA.REPUL.0>
0

>  <SCORE.INTRA.SOLV>
8.67995

>  <SCORE.INTRA.SOLV.lig_0>
-98.5587

>  <SCORE.INTRA.VDW>
1.21789

>  <SCORE.INTRA.VDW.0>
-2.91167

>  <SCORE.INTRA.norm>
0.130662

>  <SCORE.RESTR>
2.57087

>  <SCORE.RESTR.CAVITY>
2.57087

>  <SCORE.RESTR.norm>
0.0714131

>  <SCORE.SYSTEM>
0

>  <SCORE.SYSTEM.CONST>
0

>  <SCORE.SYSTEM.DIHEDRAL>
0

>  <SCORE.SYSTEM.SOLV>
0

>  <SCORE.SYSTEM.norm>
0

>  <SCORE.heavy>
36

>  <SCORE.norm>
0.526098

>  <RMSD>
27.278

$$$$
2f4u_lig
 OpenBabel11021811433D
libRbt.so/2013.1/901 2013/11/27
 36 37  0  0  0  0  0  0  0  0999 V2000
   21.1669   26.6190   12.6653 C   0  0  2  0  0  0  0  0  0  0  0  0
   22.2511   25.6841   12.3069 O   0  0  0  0  0  0  0  0  0  0  0  0
   22.7919   26.4286    8.0585 C   0  0  2  0  0  0  0  0  0  0  0  0
   23.4116   26.4075    6.7056 N   0  0  0  0  0  0  0  0  0  0  0  0
   20.5663   26.1129   14.0133 C   0  0  2  0  0  0  0  0  0  0  0  0
   21.5685   26.0475   15.0929 N   0  0  0  0  0  0  0  0  0  0  0  0
   23.7342   27.0998    9.1191 C   0  0  0  0  0  0  0  0  0  0  0  0
   25.0891   25.8003    6.7749 C   0  0  0  0  0  0  0  0  0  0  0  0
   25.1321   26.1708    5.3256 C   0  0  1  0  0  0  0  0  0  0  0  0
   26.5456   26.6852    5.0311 C   0  0  0  0  0  0  0  0  0  0  0  0
   27.6886   25.6814    5.2710 C   0  0  0  0  0  0  0  0  0  0  0  0
   28.9579   26.4113    5.2674 N   0  0  0  0  0  0  0  0  0  0  0  0
   24.9175   25.0386    4.5278 O   0  0  0  0  0  0  0  0  0  0  0  0
   20.9284   24.2864    6.2708 C   0  0  0  0  0  0  0  0  0  0  0  0
   21.8802   24.5248    5.1081 C   0  0  0  0  0  0  0  0  0  0  0  0
   19.9308   24.7014   13.7845 C   0  0  1  0  0  0  0  0  0  0  0  0
   21.4616   25.6089    4.1968 N   0  0  0  0  0  0  0  0  0  0  0  0
   19.3758   24.1882   14.9928 O   0  0  0  0  0  0  0  0  0  0  0  0
   23.1063   27.0669   10.5274 C   0  0  2  0  0  0  0  0  0  0  0  0
   24.0010   27.6494   11.5197 N   0  0  0  0  0  0  0  0  0  0  0  0
   19.9837   27.4461    4.9972 C   0  0  0  0  0  0  0  0  0  0  0  0
   19.5495   27.1379    6.4616 C   0  0  0  0  0  0  0  0  0  0  0  0
   21.4397   27.0119    4.6854 C   0  0  0  0  0  0  0  0  0  0  0  0
   20.2707   27.9963    7.4487 N   0  0  0  0  0  0  0  0  0  0  0  0
   25.7468   25.4179    7.5382 O   0  0  0  0  0  0  0  0  0  0  0  0
   18.8600   24.8287   12.6826 C   0  0  2  0  0  0  0  0  0  0  0  0
   18.2249   23.5860   12.3927 O   0  0  0  0  0  0  0  0  0  0  0  0
   22.8054   25.6394   10.9384 C   0  0  2  0  0  0  0  0  0  0  0  0
   19.4691   25.3987   11.3889 C   0  0  2  0  0  0  0  0  0  0  0  0
   20.1336   26.6419   11.6400 O   0  0  0  0  0  0  0  0  0  0  0  0
   21.8174   24.9772    9.8945 C   0  0  2  0  0  0  0  0  0  0  0  0
   21.5595   23.5978   10.3052 O   0  0  0  0  0  0  0  0  0  0  0  0
   18.4261   25.6097   10.3242 C   0  0  0  0  0  0  0  0  0  0  0  0
   19.0032   26.1003    9.1747 O   0  0  0  0  0  0  0  0  0  0  0  0
   22.4861   25.0044    8.4784 C   0  0  1  0  0  0  0  0  0  0  0  0
   21.6687   24.4284    7.5015 O   0  0  0  0  0  0  0  0  0  0  0  0
  1  2  1  6  0  0  0
  1  5  1  0  0  0  0
  1 30  1  0  0  0  0
  3  4  1  6  0  0  0
  3  7  1  0  0  0  0
  3 35  1  0  0  0  0
  5  6  1  1  0  0  0
  5 16  1  0  0  0  0
  7 19  1  0  0  0  0
  8  4  1  0  0  0  0
  8 25  2  0  0  0  0
  9  8  1  1  0  0  0
  9 10  1  0  0  0  0
  9 13  1  0  0  0  0
 10 11  1  0  0  0  0
 11 12  1  0  0  0  0
 14 15  1  0  0  0  0
 14 36  1  0  0  0  0
 15 17  1  0  0  0  0
 16 18  1  1  0  0  0
 16 26  1  0  0  0  0
 17 23  1  0  0  0  0
 19 20  1  1  0  0  0
 19 28  1  0  0  0  0
 21 22  1  0  0  0  0
 21 23  1  0  0  0  0
 22 24  1  0  0  0  0
 26 27  1  6  0  0  0
 26 29  1  0  0  0  0
 28  2  1  1  0  0  0
 28 31  1  0  0  0  0
 29 30  1  0  0  0  0
 29 33  1  6  0  0  0
 31 32  1  1  0  0  0
 31 35  1  0  0  0  0
 33 34  1  0  0  0  0
 35 36  1  6  0  0  0
M  END
>  <CHROM.1>
163.81262484,48.09869162,144.36523156,60.77968011,-166.17536453,-122.90026363
54.86551891,66.60249248,-102.54907623,68.89678763,89.36009488,48.60077533
-179.09608534,5.52662353,22.08405132,25.77884858,8.96444934,-2.13919012,-0.07040717
-1.51926670

>  <Name>
2f4u_lig

>  <RI>
0

>  <Rbt.Current_Directory>
/home/itssahil/PROJECTS/Mol_Feturizer/New_Systems/rnas/2f4u

>  <Rbt.Executable>
rbdock ($Id: //depot/dev/client3/rdock/2013.1/src/exe/rbdock.cxx#4 $)

>  <Rbt.Library>
libRbt.so (2013.1, Build901 2013/11/27)

>  <Rbt.Parameter_File>
/export/apps/rDock/src/rDock_2013.1_src/data/scripts/dock_solv.prm

>  <Rbt.Receptor>
prm/blind_docking_40.prm

>  <SCORE>
11.9176

>  <SCORE.INTER>
6.7119

>  <SCORE.INTER.CONST>
1

>  <SCORE.INTER.POLAR>
0

>  <SCORE.INTER.ROT>
14

>  <SCORE.INTER.SOLV>
14.2149

>  <SCORE.INTER.VDW>
-13.197

>  <SCORE.INTER.norm>
0.186442

>  <SCORE.INTRA>
0.794194

>  <SCORE.INTRA.DIHEDRAL>
-5.33419

>  <SCORE.INTRA.DIHEDRAL.0>
26.3805

>  <SCORE.INTRA.POLAR>
0

>  <SCORE.INTRA.POLAR.0>
0

>  <SCORE.INTRA.REPUL>
0

>  <SCORE.INTRA.REPUL.0>
0

>  <SCORE.INTRA.SOLV>
10.5998

>  <SCORE.INTRA.SOLV.lig_0>
-98.5587

>  <SCORE.INTRA.VDW>
-1.8386

>  <SCORE.INTRA.VDW.0>
-2.91167

>  <SCORE.INTRA.norm>
0.0220609

>  <SCORE.RESTR>
4.41154

>  <SCORE.RESTR.CAVITY>
4.41154

>  <SCORE.RESTR.norm>
0.122543

>  <SCORE.SYSTEM>
0

>  <SCORE.SYSTEM.CONST>
0

>  <SCORE.SYSTEM.DIHEDRAL>
0

>  <SCORE.SYSTEM.SOLV>
0

>  <SCORE.SYSTEM.norm>
0

>  <SCORE.heavy>
36

>  <SCORE.norm>
0.331045

>  <RMSD>
27.280

$$$$
2f4u_lig
 OpenBabel11021811433D
libRbt.so/2013.1/901 2013/11/27
 36 37  0  0  0  0  0  0  0  0999 V2000
   21.6791   26.5066    4.7385 C   0  0  2  0  0  0  0  0  0  0  0  0
   20.4715   26.1954    5.5276 O   0  0  0  0  0  0  0  0  0  0  0  0
   19.3700   25.4000    9.6566 C   0  0  2  0  0  0  0  0  0  0  0  0
   19.4839   24.9426   11.0682 N   0  0  0  0  0  0  0  0  0  0  0  0
   22.1409   25.1697    4.0799 C   0  0  2  0  0  0  0  0  0  0  0  0
   21.1030   24.5718    3.2199 N   0  0  0  0  0  0  0  0  0  0  0  0
   19.5981   24.2229    8.6439 C   0  0  0  0  0  0  0  0  0  0  0  0
   20.9317   23.9241   11.3005 C   0  0  0  0  0  0  0  0  0  0  0  0
   20.3872   23.7130   12.6785 C   0  0  1  0  0  0  0  0  0  0  0  0
   21.2703   22.6608   13.3584 C   0  0  0  0  0  0  0  0  0  0  0  0
   22.7856   22.8039   13.1243 C   0  0  0  0  0  0  0  0  0  0  0  0
   23.1401   22.0712   11.9072 N   0  0  0  0  0  0  0  0  0  0  0  0
   20.4832   24.8950   13.4255 O   0  0  0  0  0  0  0  0  0  0  0  0
   19.5075   28.5597   11.0652 C   0  0  0  0  0  0  0  0  0  0  0  0
   20.5195   29.2472   11.9695 C   0  0  0  0  0  0  0  0  0  0  0  0
   22.5472   24.1649    5.2086 C   0  0  1  0  0  0  0  0  0  0  0  0
   21.6919   29.7951   11.2579 N   0  0  0  0  0  0  0  0  0  0  0  0
   22.9679   22.9195    4.6578 O   0  0  0  0  0  0  0  0  0  0  0  0
   19.5329   24.7180    7.1847 C   0  0  2  0  0  0  0  0  0  0  0  0
   19.7898   23.6334    6.2456 N   0  0  0  0  0  0  0  0  0  0  0  0
   23.6536   28.3448   11.7558 C   0  0  0  0  0  0  0  0  0  0  0  0
   25.1567   28.5606   11.4056 C   0  0  0  0  0  0  0  0  0  0  0  0
   22.6879   28.8684   10.6608 C   0  0  0  0  0  0  0  0  0  0  0  0
   25.9993   27.4027   11.8306 N   0  0  0  0  0  0  0  0  0  0  0  0
   21.7530   23.5889   10.6885 O   0  0  0  0  0  0  0  0  0  0  0  0
   23.6636   24.8137    6.0512 C   0  0  2  0  0  0  0  0  0  0  0  0
   24.0991   23.9750    7.1183 O   0  0  0  0  0  0  0  0  0  0  0  0
   20.5627   25.8048    6.9492 C   0  0  2  0  0  0  0  0  0  0  0  0
   23.2019   26.1647    6.6266 C   0  0  2  0  0  0  0  0  0  0  0  0
   22.7388   27.0331    5.5866 O   0  0  0  0  0  0  0  0  0  0  0  0
   20.3041   27.0129    7.9382 C   0  0  2  0  0  0  0  0  0  0  0  0
   21.3212   28.0364    7.7016 O   0  0  0  0  0  0  0  0  0  0  0  0
   24.3030   26.8563    7.3851 C   0  0  0  0  0  0  0  0  0  0  0  0
   25.4439   26.9298    6.6182 O   0  0  0  0  0  0  0  0  0  0  0  0
   20.3961   26.4885    9.4112 C   0  0  1  0  0  0  0  0  0  0  0  0
   20.1822   27.5071   10.3445 O   0  0  0  0  0  0  0  0  0  0  0  0
  1  2  1  1  0  0  0
  1  5  1  0  0  0  0
  1 30  1  0  0  0  0
  3  4  1  1  0  0  0
  3  7  1  0  0  0  0
  3 35  1  0  0  0  0
  5  6  1  1  0  0  0
  5 16  1  0  0  0  0
  7 19  1  0  0  0  0
  8  4  1  0  0  0  0
  8 25  2  0  0  0  0
  9  8  1  6  0  0  0
  9 10  1  0  0  0  0
  9 13  1  0  0  0  0
 10 11  1  0  0  0  0
 11 12  1  0  0  0  0
 14 15  1  0  0  0  0
 14 36  1  0  0  0  0
 15 17  1  0  0  0  0
 16 18  1  6  0  0  0
 16 26  1  0  0  0  0
 17 23  1  0  0  0  0
 19 20  1  6  0  0  0
 19 28  1  0  0  0  0
 21 22  1  0  0  0  0
 21 23  1  0  0  0  0
 22 24  1  0  0  0  0
 26 27  1  1  0  0  0
 26 29  1  0  0  0  0
 28  2  1  6  0  0  0
 28 31  1  0  0  0  0
 29 30  1  0  0  0  0
 29 33  1  6  0  0  0
 31 32  1  1  0  0  0
 31 35  1  0  0  0  0
 33 34  1  0  0  0  0
 35 36  1  1  0  0  0
M  END
>  <CHROM.1>
90.84623040,46.58142094,173.34736555,41.90679978,-88.35965473,57.10083401
-170.96896533,-69.54428283,-80.02506360,-141.42920469,-126.62313051,-141.21597771
51.57909114,-60.29297954,21.82982951,25.77506264,8.83681673,-1.39985580,1.15680205
1.31132671

>  <Name>
2f4u_lig

>  <RI>
0

>  <Rbt.Current_Directory>
/home/itssahil/PROJECTS/Mol_Feturizer/New_Systems/rnas/2f4u

>  <Rbt.Executable>
rbdock ($Id: //depot/dev/client3/rdock/2013.1/src/exe/rbdock.cxx#4 $)

>  <Rbt.Library>
libRbt.so (2013.1, Build901 2013/11/27)

>  <Rbt.Parameter_File>
/export/apps/rDock/src/rDock_2013.1_src/data/scripts/dock_solv.prm

>  <Rbt.Receptor>
prm/blind_docking_60.prm

>  <SCORE>
22.6207

>  <SCORE.INTER>
10.9632

>  <SCORE.INTER.CONST>
1

>  <SCORE.INTER.POLAR>
-0.87178

>  <SCORE.INTER.ROT>
14

>  <SCORE.INTER.SOLV>
18.1273

>  <SCORE.INTER.VDW>
-8.76106

>  <SCORE.INTER.norm>
0.304532

>  <SCORE.INTRA>
6.40245

>  <SCORE.INTRA.DIHEDRAL>
-2.48818

>  <SCORE.INTRA.DIHEDRAL.0>
26.3805

>  <SCORE.INTRA.POLAR>
0

>  <SCORE.INTRA.POLAR.0>
0

>  <SCORE.INTRA.REPUL>
0.00252332

>  <SCORE.INTRA.REPUL.0>
0

>  <SCORE.INTRA.SOLV>
8.74648

>  <SCORE.INTRA.SOLV.lig_0>
-98.5587

>  <SCORE.INTRA.VDW>
3.26068

>  <SCORE.INTRA.VDW.0>
-2.91167

>  <SCORE.INTRA.norm>
0.177846

>  <SCORE.RESTR>
5.25513

>  <SCORE.RESTR.CAVITY>
5.25513

>  <SCORE.RESTR.norm>
0.145976

>  <SCORE.SYSTEM>
0

>  <SCORE.SYSTEM.CONST>
0

>  <SCORE.SYSTEM.DIHEDRAL>
0

>  <SCORE.SYSTEM.SOLV>
0

>  <SCORE.SYSTEM.norm>
0

>  <SCORE.heavy>
36

>  <SCORE.norm>
0.628354

>  <RMSD>
27.304

$$$$
2f4u_lig
 OpenBabel11021811433D
libRbt.so/2013.1/901 2013/11/27
 36 37  0  0  0  0  0  0  0  0999 V2000
   21.4648   28.2797   11.1966 C   0  0  2  0  0  0  0  0  0  0  0  0
   22.8732   28.6127   10.9079 O   0  0  0  0  0  0  0  0  0  0  0  0
   25.3711   26.9547    7.7603 C   0  0  2  0  0  0  0  0  0  0  0  0
   26.2920   26.0227    7.0546 N   0  0  0  0  0  0  0  0  0  0  0  0
   20.8224   29.5554   11.8244 C   0  0  2  0  0  0  0  0  0  0  0  0
   20.9029   30.7286   10.9349 N   0  0  0  0  0  0  0  0  0  0  0  0
   26.0069   27.5090    9.0838 C   0  0  0  0  0  0  0  0  0  0  0  0
   27.3547   26.9022    5.9212 C   0  0  0  0  0  0  0  0  0  0  0  0
   27.8031   25.5363    5.5052 C   0  0  1  0  0  0  0  0  0  0  0  0
   28.7880   25.7166    4.3446 C   0  0  0  0  0  0  0  0  0  0  0  0
   30.0392   26.5602    4.6512 C   0  0  0  0  0  0  0  0  0  0  0  0
   30.8214   25.8756    5.6825 N   0  0  0  0  0  0  0  0  0  0  0  0
   28.4918   24.9106    6.5533 O   0  0  0  0  0  0  0  0  0  0  0  0
   22.6138   25.1323    5.9687 C   0  0  0  0  0  0  0  0  0  0  0  0
   21.6063   26.2008    5.5711 C   0  0  0  0  0  0  0  0  0  0  0  0
   21.5344   29.8623   13.1836 C   0  0  1  0  0  0  0  0  0  0  0  0
   20.2157   25.8967    5.9646 N   0  0  0  0  0  0  0  0  0  0  0  0
   20.9897   31.0291   13.7945 O   0  0  0  0  0  0  0  0  0  0  0  0
   25.0241   28.4298    9.8353 C   0  0  2  0  0  0  0  0  0  0  0  0
   25.5981   28.9080   11.0868 N   0  0  0  0  0  0  0  0  0  0  0  0
   18.3279   26.0017    7.5848 C   0  0  0  0  0  0  0  0  0  0  0  0
   17.8666   25.9000    9.0697 C   0  0  0  0  0  0  0  0  0  0  0  0
   19.8585   25.8264    7.4051 C   0  0  0  0  0  0  0  0  0  0  0  0
   18.3650   27.0465    9.8874 N   0  0  0  0  0  0  0  0  0  0  0  0
   27.5172   27.9318    5.6477 O   0  0  0  0  0  0  0  0  0  0  0  0
   21.3846   28.6276   14.0948 C   0  0  2  0  0  0  0  0  0  0  0  0
   22.0120   28.8054   15.3622 O   0  0  0  0  0  0  0  0  0  0  0  0
   23.7422   27.6864   10.1537 C   0  0  2  0  0  0  0  0  0  0  0  0
   21.9622   27.3721   13.4168 C   0  0  2  0  0  0  0  0  0  0  0  0
   21.3695   27.1664   12.1297 O   0  0  0  0  0  0  0  0  0  0  0  0
   23.0757   27.1680    8.8152 C   0  0  2  0  0  0  0  0  0  0  0  0
   21.8531   26.4405    9.1532 O   0  0  0  0  0  0  0  0  0  0  0  0
   21.7533   26.1377   14.2527 C   0  0  0  0  0  0  0  0  0  0  0  0
   22.1243   25.0125   13.5516 O   0  0  0  0  0  0  0  0  0  0  0  0
   24.0847   26.2202    8.0825 C   0  0  1  0  0  0  0  0  0  0  0  0
   23.5593   25.7178    6.8884 O   0  0  0  0  0  0  0  0  0  0  0  0
  1  2  1  1  0  0  0
  1  5  1  0  0  0  0
  1 30  1  0  0  0  0
  3  4  1  1  0  0  0
  3  7  1  0  0  0  0
  3 35  1  0  0  0  0
  5  6  1  6  0  0  0
  5 16  1  0  0  0  0
  7 19  1  0  0  0  0
  8  4  1  0  0  0  0
  8 25  2  0  0  0  0
  9  8  1  1  0  0  0
  9 10  1  0  0  0  0
  9 13  1  0  0  0  0
 10 11  1  0  0  0  0
 11 12  1  0  0  0  0
 14 15  1  0  0  0  0
 14 36  1  0  0  0  0
 15 17  1  0  0  0  0
 16 18  1  1  0  0  0
 16 26  1  0  0  0  0
 17 23  1  0  0  0  0
 19 20  1  1  0  0  0
 19 28  1  0  0  0  0
 21 22  1  0  0  0  0
 21 23  1  0  0  0  0
 22 24  1  0  0  0  0
 26 27  1  1  0  0  0
 26 29  1  0  0  0  0
 28  2  1  6  0  0  0
 28 31  1  0  0  0  0
 29 30  1  0  0  0  0
 29 33  1  1  0  0  0
 31 32  1  1  0  0  0
 31 35  1  0  0  0  0
 33 34  1  0  0  0  0
 35 36  1  6  0  0  0
M  END
>  <CHROM.1>
-172.41386119,-89.11463419,176.38864899,59.16870897,63.27593270,-117.63461865
76.85819025,65.43787569,159.94081507,67.48330886,178.38656595,170.47558231
172.37945221,-167.35174296,23.41670744,27.14976274,9.26227057,-2.36075152
-0.10824521,-1.97182545

>  <Name>
2f4u_lig

>  <RI>
0

>  <Rbt.Current_Directory>
/home/itssahil/PROJECTS/Mol_Feturizer/New_Systems/rnas/2f4u

>  <Rbt.Executable>
rbdock ($Id: //depot/dev/client3/rdock/2013.1/src/exe/rbdock.cxx#4 $)

>  <Rbt.Library>
libRbt.so (2013.1, Build901 2013/11/27)

>  <Rbt.Parameter_File>
/export/apps/rDock/src/rDock_2013.1_src/data/scripts/dock_solv.prm

>  <Rbt.Receptor>
prm/blind_docking_100.prm

>  <SCORE>
-0.642214

>  <SCORE.INTER>
2.68379

>  <SCORE.INTER.CONST>
1

>  <SCORE.INTER.POLAR>
0

>  <SCORE.INTER.ROT>
14

>  <SCORE.INTER.SOLV>
18.12

>  <SCORE.INTER.VDW>
-17.1841

>  <SCORE.INTER.norm>
0.0745497

>  <SCORE.INTRA>
-4.64889

>  <SCORE.INTRA.DIHEDRAL>
-15.9056

>  <SCORE.INTRA.DIHEDRAL.0>
26.3805

>  <SCORE.INTRA.POLAR>
0

>  <SCORE.INTRA.POLAR.0>
0

>  <SCORE.INTRA.REPUL>
0.0132275

>  <SCORE.INTRA.REPUL.0>
0

>  <SCORE.INTRA.SOLV>
5.19958

>  <SCORE.INTRA.SOLV.lig_0>
-98.5587

>  <SCORE.INTRA.VDW>
0.637996

>  <SCORE.INTRA.VDW.0>
-2.91167

>  <SCORE.INTRA.norm>
-0.129136

>  <SCORE.RESTR>
1.32289

>  <SCORE.RESTR.CAVITY>
1.32289

>  <SCORE.RESTR.norm>
0.036747

>  <SCORE.SYSTEM>
0

>  <SCORE.SYSTEM.CONST>
0

>  <SCORE.SYSTEM.DIHEDRAL>
0

>  <SCORE.SYSTEM.SOLV>
0

>  <SCORE.SYSTEM.norm>
0

>  <SCORE.heavy>
36

>  <SCORE.norm>
-0.0178393

>  <RMSD>
27.317

$$$$
2f4u_lig
 OpenBabel11021811433D
libRbt.so/2013.1/901 2013/11/27
 36 37  0  0  0  0  0  0  0  0999 V2000
   21.7362   23.1171   12.9432 C   0  0  2  0  0  0  0  0  0  0  0  0
   21.4816   22.4995   11.6273 O   0  0  0  0  0  0  0  0  0  0  0  0
   22.7747   25.5360    8.7984 C   0  0  2  0  0  0  0  0  0  0  0  0
   23.2774   26.1445    7.5367 N   0  0  0  0  0  0  0  0  0  0  0  0
   20.3540   23.2372   13.6568 C   0  0  2  0  0  0  0  0  0  0  0  0
   19.6836   21.9340   13.8199 N   0  0  0  0  0  0  0  0  0  0  0  0
   23.7963   24.5036    9.3932 C   0  0  0  0  0  0  0  0  0  0  0  0
   22.9220   25.1013    6.1321 C   0  0  0  0  0  0  0  0  0  0  0  0
   23.7416   26.0935    5.3682 C   0  0  1  0  0  0  0  0  0  0  0  0
   25.0877   25.4282    5.0605 C   0  0  0  0  0  0  0  0  0  0  0  0
   26.0658   25.3136    6.2444 C   0  0  0  0  0  0  0  0  0  0  0  0
   26.5070   26.6594    6.6160 N   0  0  0  0  0  0  0  0  0  0  0  0
   23.1265   26.3929    4.1449 O   0  0  0  0  0  0  0  0  0  0  0  0
   20.1120   26.8795    7.1526 C   0  0  0  0  0  0  0  0  0  0  0  0
   20.7384   28.1635    7.6758 C   0  0  0  0  0  0  0  0  0  0  0  0
   19.4444   24.2096   12.8348 C   0  0  1  0  0  0  0  0  0  0  0  0
   20.3669   28.4944    9.0663 N   0  0  0  0  0  0  0  0  0  0  0  0
   18.1617   24.3455   13.4410 O   0  0  0  0  0  0  0  0  0  0  0  0
   23.2423   23.8384   10.6697 C   0  0  2  0  0  0  0  0  0  0  0  0
   24.1719   22.8470   11.1961 N   0  0  0  0  0  0  0  0  0  0  0  0
   21.0737   30.1554   10.7813 C   0  0  0  0  0  0  0  0  0  0  0  0
   20.1534   29.9443   12.0210 C   0  0  0  0  0  0  0  0  0  0  0  0
   21.4280   28.8348   10.0490 C   0  0  0  0  0  0  0  0  0  0  0  0
   20.9270   29.5026   13.2200 N   0  0  0  0  0  0  0  0  0  0  0  0
   22.4106   24.1672    5.9669 O   0  0  0  0  0  0  0  0  0  0  0  0
   20.1645   25.5689   12.7302 C   0  0  2  0  0  0  0  0  0  0  0  0
   19.4158   26.5273   11.9868 O   0  0  0  0  0  0  0  0  0  0  0  0
   21.9258   23.1472   10.3763 C   0  0  2  0  0  0  0  0  0  0  0  0
   21.5542   25.4056   12.0887 C   0  0  2  0  0  0  0  0  0  0  0  0
   22.3345   24.4361   12.7968 O   0  0  0  0  0  0  0  0  0  0  0  0
   20.8801   24.1973    9.8209 C   0  0  2  0  0  0  0  0  0  0  0  0
   19.6278   23.5007    9.5300 O   0  0  0  0  0  0  0  0  0  0  0  0
   22.3103   26.7067   12.0511 C   0  0  0  0  0  0  0  0  0  0  0  0
   23.6076   26.4986   11.6400 O   0  0  0  0  0  0  0  0  0  0  0  0
   21.4568   24.8424    8.5154 C   0  0  1  0  0  0  0  0  0  0  0  0
   20.5804   25.7813    7.9633 O   0  0  0  0  0  0  0  0  0  0  0  0
  1  2  1  6  0  0  0
  1  5  1  0  0  0  0
  1 30  1  0  0  0  0
  3  4  1  6  0  0  0
  3  7  1  0  0  0  0
  3 35  1  0  0  0  0
  5  6  1  6  0  0  0
  5 16  1  0  0  0  0
  7 19  1  0  0  0  0
  8  4  1  0  0  0  0
  8 25  2  0  0  0  0
  9  8  1  1  0  0  0
  9 10  1  0  0  0  0
  9 13  1  0  0  0  0
 10 11  1  0  0  0  0
 11 12  1  0  0  0  0
 14 15  1  0  0  0  0
 14 36  1  0  0  0  0
 15 17  1  0  0  0  0
 16 18  1  1  0  0  0
 16 26  1  0  0  0  0
 17 23  1  0  0  0  0
 19 20  1  6  0  0  0
 19 28  1  0  0  0  0
 21 22  1  0  0  0  0
 21 23  1  0  0  0  0
 22 24  1  0  0  0  0
 26 27  1  6  0  0  0
 26 29  1  0  0  0  0
 28  2  1  1  0  0  0
 28 31  1  0  0  0  0
 29 30  1  0  0  0  0
 29 33  1  1  0  0  0
 31 32  1  6  0  0  0
 31 35  1  0  0  0  0
 33 34  1  0  0  0  0
 35 36  1  1  0  0  0
M  END
>  <CHROM.1>
125.11440632,84.01697222,106.16228514,-74.97973591,-67.69736542,-62.04905458
-68.42558267,130.25501486,129.81954388,80.65840305,85.82985322,35.04009919
171.98390972,40.72465520,21.82999838,25.55694042,9.85634227,-2.58651880,1.01352537
-0.46142349

>  <Name>
2f4u_lig

>  <RI>
0

>  <Rbt.Current_Directory>
/home/itssahil/PROJECTS/Mol_Feturizer/New_Systems/rnas/2f4u

>  <Rbt.Executable>
rbdock ($Id: //depot/dev/client3/rdock/2013.1/src/exe/rbdock.cxx#4 $)

>  <Rbt.Library>
libRbt.so (2013.1, Build901 2013/11/27)

>  <Rbt.Parameter_File>
/export/apps/rDock/src/rDock_2013.1_src/data/scripts/dock_solv.prm

>  <Rbt.Receptor>
prm/blind_docking_40.prm

>  <SCORE>
13.8919

>  <SCORE.INTER>
1.72069

>  <SCORE.INTER.CONST>
1

>  <SCORE.INTER.POLAR>
0

>  <SCORE.INTER.ROT>
14

>  <SCORE.INTER.SOLV>
19.0001

>  <SCORE.INTER.VDW>
-18.1196

>  <SCORE.INTER.norm>
0.047797

>  <SCORE.INTRA>
9.1245

>  <SCORE.INTRA.DIHEDRAL>
-4.78718

>  <SCORE.INTRA.DIHEDRAL.0>
26.3805

>  <SCORE.INTRA.POLAR>
0

>  <SCORE.INTRA.POLAR.0>
0

>  <SCORE.INTRA.REPUL>
0

>  <SCORE.INTRA.REPUL.0>
0

>  <SCORE.INTRA.SOLV>
11.4333

>  <SCORE.INTRA.SOLV.lig_0>
-98.5587

>  <SCORE.INTRA.VDW>
5.80142

>  <SCORE.INTRA.VDW.0>
-2.91167

>  <SCORE.INTRA.norm>
0.253458

>  <SCORE.RESTR>
3.04669

>  <SCORE.RESTR.CAVITY>
3.04669

>  <SCORE.RESTR.norm>
0.0846302

>  <SCORE.SYSTEM>
0

>  <SCORE.SYSTEM.CONST>
0

>  <SCORE.SYSTEM.DIHEDRAL>
0

>  <SCORE.SYSTEM.SOLV>
0

>  <SCORE.SYSTEM.norm>
0

>  <SCORE.heavy>
36

>  <SCORE.norm>
0.385886

>  <RMSD>
27.321

$$$$
2f4u_lig
 OpenBabel11021811433D
libRbt.so/2013.1/901 2013/11/27
 36 37  0  0  0  0  0  0  0  0999 V2000
   24.2112   26.2495    5.1135 C   0  0  2  0  0  0  0  0  0  0  0  0
   23.6168   27.0157    6.2259 O   0  0  0  0  0  0  0  0  0  0  0  0
   20.3974   26.6849    9.1279 C   0  0  2  0  0  0  0  0  0  0  0  0
   19.2782   26.0920    9.9093 N   0  0  0  0  0  0  0  0  0  0  0  0
   24.8321   24.9615    5.7379 C   0  0  2  0  0  0  0  0  0  0  0  0
   23.8381   24.1419    6.4553 N   0  0  0  0  0  0  0  0  0  0  0  0
   20.0953   26.6849    7.5879 C   0  0  0  0  0  0  0  0  0  0  0  0
   19.1737   24.3289    9.6487 C   0  0  0  0  0  0  0  0  0  0  0  0
   17.9218   24.4264   10.4629 C   0  0  1  0  0  0  0  0  0  0  0  0
   18.3376   24.7968   11.8909 C   0  0  0  0  0  0  0  0  0  0  0  0
   18.5777   23.6146   12.8480 C   0  0  0  0  0  0  0  0  0  0  0  0
   19.3233   24.1005   14.0107 N   0  0  0  0  0  0  0  0  0  0  0  0
   17.1052   25.4569    9.9775 O   0  0  0  0  0  0  0  0  0  0  0  0
   22.5628   25.6883   12.0368 C   0  0  0  0  0  0  0  0  0  0  0  0
   21.5749   25.9556   13.1625 C   0  0  0  0  0  0  0  0  0  0  0  0
   25.9865   25.3774    6.7090 C   0  0  1  0  0  0  0  0  0  0  0  0
   22.2053   26.3407   14.4413 N   0  0  0  0  0  0  0  0  0  0  0  0
   26.5815   24.2332    7.3160 O   0  0  0  0  0  0  0  0  0  0  0  0
   21.2835   27.2501    6.7833 C   0  0  2  0  0  0  0  0  0  0  0  0
   21.0205   27.2079    5.3503 N   0  0  0  0  0  0  0  0  0  0  0  0
   21.9814   28.7767   14.9053 C   0  0  0  0  0  0  0  0  0  0  0  0
   21.4057   29.2281   13.5294 C   0  0  0  0  0  0  0  0  0  0  0  0
   21.5439   27.3456   15.3131 C   0  0  0  0  0  0  0  0  0  0  0  0
   22.0524   30.4823   13.0396 N   0  0  0  0  0  0  0  0  0  0  0  0
   19.7331   23.5895    9.0993 O   0  0  0  0  0  0  0  0  0  0  0  0
   27.0212   26.1908    5.9059 C   0  0  2  0  0  0  0  0  0  0  0  0
   28.1151   26.6265    6.7092 O   0  0  0  0  0  0  0  0  0  0  0  0
   22.5386   26.4470    7.0602 C   0  0  2  0  0  0  0  0  0  0  0  0
   26.3625   27.4139    5.2430 C   0  0  2  0  0  0  0  0  0  0  0  0
   25.2451   27.0209    4.4386 O   0  0  0  0  0  0  0  0  0  0  0  0
   22.8705   26.4859    8.6071 C   0  0  2  0  0  0  0  0  0  0  0  0
   24.0732   25.6896    8.8472 O   0  0  0  0  0  0  0  0  0  0  0  0
   27.3355   28.1783    4.3856 C   0  0  0  0  0  0  0  0  0  0  0  0
   27.8853   27.3548    3.4293 O   0  0  0  0  0  0  0  0  0  0  0  0
   21.6585   25.8885    9.3991 C   0  0  1  0  0  0  0  0  0  0  0  0
   21.8839   25.8861   10.7788 O   0  0  0  0  0  0  0  0  0  0  0  0
  1  2  1  1  0  0  0
  1  5  1  0  0  0  0
  1 30  1  0  0  0  0
  3  4  1  1  0  0  0
  3  7  1  0  0  0  0
  3 35  1  0  0  0  0
  5  6  1  1  0  0  0
  5 16  1  0  0  0  0
  7 19  1  0  0  0  0
  8  4  1  0  0  0  0
  8 25  2  0  0  0  0
  9  8  1  6  0  0  0
  9 10  1  0  0  0  0
  9 13  1  0  0  0  0
 10 11  1  0  0  0  0
 11 12  1  0  0  0  0
 14 15  1  0  0  0  0
 14 36  1  0  0  0  0
 15 17  1  0  0  0  0
 16 18  1  6  0  0  0
 16 26  1  0  0  0  0
 17 23  1  0  0  0  0
 19 20  1  6  0  0  0
 19 28  1  0  0  0  0
 21 22  1  0  0  0  0
 21 23  1  0  0  0  0
 22 24  1  0  0  0  0
 26 27  1  1  0  0  0
 26 29  1  0  0  0  0
 28  2  1  6  0  0  0
 28 31  1  0  0  0  0
 29 30  1  0  0  0  0
 29 33  1  6  0  0  0
 31 32  1  6  0  0  0
 31 35  1  0  0  0  0
 33 34  1  0  0  0  0
 35 36  1  1  0  0  0
M  END
>  <CHROM.1>
-60.51564550,70.57298619,-67.59311596,-91.92351770,163.82950329,-155.97227344
-172.10575288,143.76661370,-87.41213478,-168.65564057,70.08356404,-112.82944641
56.69988744,-169.17839380,22.53369434,26.19798620,9.02037843,0.80769396,-0.38466515
-1.83939209

>  <Name>
2f4u_lig

>  <RI>
0

>  <Rbt.Current_Directory>
/home/itssahil/PROJECTS/Mol_Feturizer/New_Systems/rnas/2f4u

>  <Rbt.Executable>
rbdock ($Id: //depot/dev/client3/rdock/2013.1/src/exe/rbdock.cxx#4 $)

>  <Rbt.Library>
libRbt.so (2013.1, Build901 2013/11/27)

>  <Rbt.Parameter_File>
/export/apps/rDock/src/rDock_2013.1_src/data/scripts/dock_solv.prm

>  <Rbt.Receptor>
prm/blind_docking_40.prm

>  <SCORE>
9.86031

>  <SCORE.INTER>
1.82759

>  <SCORE.INTER.CONST>
1

>  <SCORE.INTER.POLAR>
-0.974553

>  <SCORE.INTER.ROT>
14

>  <SCORE.INTER.SOLV>
17.5296

>  <SCORE.INTER.VDW>
-14.3096

>  <SCORE.INTER.norm>
0.0507664

>  <SCORE.INTRA>
1.80929

>  <SCORE.INTRA.DIHEDRAL>
-9.7637

>  <SCORE.INTRA.DIHEDRAL.0>
26.3805

>  <SCORE.INTRA.POLAR>
0

>  <SCORE.INTRA.POLAR.0>
0

>  <SCORE.INTRA.REPUL>
0

>  <SCORE.INTRA.REPUL.0>
0

>  <SCORE.INTRA.SOLV>
7.29769

>  <SCORE.INTRA.SOLV.lig_0>
-98.5587

>  <SCORE.INTRA.VDW>
3.0423

>  <SCORE.INTRA.VDW.0>
-2.91167

>  <SCORE.INTRA.norm>
0.0502582

>  <SCORE.RESTR>
6.22343

>  <SCORE.RESTR.CAVITY>
6.22343

>  <SCORE.RESTR.norm>
0.172873

>  <SCORE.SYSTEM>
0

>  <SCORE.SYSTEM.CONST>
0

>  <SCORE.SYSTEM.DIHEDRAL>
0

>  <SCORE.SYSTEM.SOLV>
0

>  <SCORE.SYSTEM.norm>
0

>  <SCORE.heavy>
36

>  <SCORE.norm>
0.273898

>  <RMSD>
27.334

$$$$
2f4u_lig
 OpenBabel11021811433D
libRbt.so/2013.1/901 2013/11/27
 36 37  0  0  0  0  0  0  0  0999 V2000
   19.4193   24.0004   12.1529 C   0  0  2  0  0  0  0  0  0  0  0  0
   19.1259   25.2562   11.4355 O   0  0  0  0  0  0  0  0  0  0  0  0
   21.5245   24.9529    7.8231 C   0  0  2  0  0  0  0  0  0  0  0  0
   21.9724   25.1793    6.4220 N   0  0  0  0  0  0  0  0  0  0  0  0
   19.5205   24.3625   13.6671 C   0  0  2  0  0  0  0  0  0  0  0  0
   18.2857   24.9774   14.1881 N   0  0  0  0  0  0  0  0  0  0  0  0
   20.0767   24.3499    7.8803 C   0  0  0  0  0  0  0  0  0  0  0  0
   23.7003   24.7757    6.2248 C   0  0  0  0  0  0  0  0  0  0  0  0
   23.5259   25.3302    4.8457 C   0  0  1  0  0  0  0  0  0  0  0  0
   24.9216   25.6817    4.3188 C   0  0  0  0  0  0  0  0  0  0  0  0
   25.6903   26.7513    5.1165 C   0  0  0  0  0  0  0  0  0  0  0  0
   27.0105   26.9269    4.5081 N   0  0  0  0  0  0  0  0  0  0  0  0
   22.9837   24.3568    3.9954 O   0  0  0  0  0  0  0  0  0  0  0  0
   24.2704   26.9291    8.6827 C   0  0  0  0  0  0  0  0  0  0  0  0
   24.4947   27.7689    9.9314 C   0  0  0  0  0  0  0  0  0  0  0  0
   20.7316   25.3314   13.8746 C   0  0  1  0  0  0  0  0  0  0  0  0
   23.5148   27.5238   11.0087 N   0  0  0  0  0  0  0  0  0  0  0  0
   20.8612   25.7023   15.2446 O   0  0  0  0  0  0  0  0  0  0  0  0
   19.6009   24.1709    9.3364 C   0  0  2  0  0  0  0  0  0  0  0  0
   18.2394   23.6535    9.3887 N   0  0  0  0  0  0  0  0  0  0  0  0
   23.4763   29.3018   12.7514 C   0  0  0  0  0  0  0  0  0  0  0  0
   21.9349   29.5191   12.8232 C   0  0  0  0  0  0  0  0  0  0  0  0
   23.8744   27.8410   12.4150 C   0  0  0  0  0  0  0  0  0  0  0  0
   21.3496   29.8041   11.4787 N   0  0  0  0  0  0  0  0  0  0  0  0
   24.4832   24.3816    6.8518 O   0  0  0  0  0  0  0  0  0  0  0  0
   22.0035   24.6290   13.3587 C   0  0  2  0  0  0  0  0  0  0  0  0
   23.1681   25.4392   13.4963 O   0  0  0  0  0  0  0  0  0  0  0  0
   19.6341   25.4970   10.0696 C   0  0  2  0  0  0  0  0  0  0  0  0
   21.8441   24.2197   11.8834 C   0  0  2  0  0  0  0  0  0  0  0  0
   20.6731   23.4169   11.6981 O   0  0  0  0  0  0  0  0  0  0  0  0
   21.1041   26.0829   10.0532 C   0  0  2  0  0  0  0  0  0  0  0  0
   21.1027   27.3682   10.7503 O   0  0  0  0  0  0  0  0  0  0  0  0
   23.0417   23.4586   11.3806 C   0  0  0  0  0  0  0  0  0  0  0  0
   23.1541   22.2516   12.0330 O   0  0  0  0  0  0  0  0  0  0  0  0
   21.5551   26.2743    8.5655 C   0  0  1  0  0  0  0  0  0  0  0  0
   22.8488   26.7960    8.4730 O   0  0  0  0  0  0  0  0  0  0  0  0
  1  2  1  6  0  0  0
  1  5  1  0  0  0  0
  1 30  1  0  0  0  0
  3  4  1  6  0  0  0
  3  7  1  0  0  0  0
  3 35  1  0  0  0  0
  5  6  1  6  0  0  0
  5 16  1  0  0  0  0
  7 19  1  0  0  0  0
  8  4  1  0  0  0  0
  8 25  2  0  0  0  0
  9  8  1  1  0  0  0
  9 10  1  0  0  0  0
  9 13  1  0  0  0  0
 10 11  1  0  0  0  0
 11 12  1  0  0  0  0
 14 15  1  0  0  0  0
 14 36  1  0  0  0  0
 15 17  1  0  0  0  0
 16 18  1  1  0  0  0
 16 26  1  0  0  0  0
 17 23  1  0  0  0  0
 19 20  1  6  0  0  0
 19 28  1  0  0  0  0
 21 22  1  0  0  0  0
 21 23  1  0  0  0  0
 22 24  1  0  0  0  0
 26 27  1  6  0  0  0
 26 29  1  0  0  0  0
 28  2  1  1  0  0  0
 28 31  1  0  0  0  0
 29 30  1  0  0  0  0
 29 33  1  1  0  0  0
 31 32  1  1  0  0  0
 31 35  1  0  0  0  0
 33 34  1  0  0  0  0
 35 36  1  1  0  0  0
M  END
>  <CHROM.1>
147.22404327,-141.32647586,160.31986704,-61.74537223,177.98179765,36.94206367
-88.74484426,156.62118413,90.14129343,-85.81057691,69.49155799,36.04638765
65.55323483,-68.87191864,22.09254224,25.66868712,9.96776318,2.20467314,0.76257774
1.13212425

>  <Name>
2f4u_lig

>  <RI>
0

>  <Rbt.Current_Directory>
/home/itssahil/PROJECTS/Mol_Feturizer/New_Systems/rnas/2f4u

>  <Rbt.Executable>
rbdock ($Id: //depot/dev/client3/rdock/2013.1/src/exe/rbdock.cxx#4 $)

>  <Rbt.Library>
libRbt.so (2013.1, Build901 2013/11/27)

>  <Rbt.Parameter_File>
/export/apps/rDock/src/rDock_2013.1_src/data/scripts/dock_solv.prm

>  <Rbt.Receptor>
prm/blind_docking_40.prm

>  <SCORE>
6.23423

>  <SCORE.INTER>
1.6044

>  <SCORE.INTER.CONST>
1

>  <SCORE.INTER.POLAR>
0

>  <SCORE.INTER.ROT>
14

>  <SCORE.INTER.SOLV>
10.9489

>  <SCORE.INTER.VDW>
-15.5134

>  <SCORE.INTER.norm>
0.0445667

>  <SCORE.INTRA>
0.958349

>  <SCORE.INTRA.DIHEDRAL>
-8.62117

>  <SCORE.INTRA.DIHEDRAL.0>
26.3805

>  <SCORE.INTRA.POLAR>
0

>  <SCORE.INTRA.POLAR.0>
0

>  <SCORE.INTRA.REPUL>
0

>  <SCORE.INTRA.REPUL.0>
0

>  <SCORE.INTRA.SOLV>
9.43271

>  <SCORE.INTRA.SOLV.lig_0>
-98.5587

>  <SCORE.INTRA.VDW>
0.552577

>  <SCORE.INTRA.VDW.0>
-2.91167

>  <SCORE.INTRA.norm>
0.0266208

>  <SCORE.RESTR>
3.67148

>  <SCORE.RESTR.CAVITY>
3.67148

>  <SCORE.RESTR.norm>
0.101986

>  <SCORE.SYSTEM>
0

>  <SCORE.SYSTEM.CONST>
0

>  <SCORE.SYSTEM.DIHEDRAL>
0

>  <SCORE.SYSTEM.SOLV>
0

>  <SCORE.SYSTEM.norm>
0

>  <SCORE.heavy>
36

>  <SCORE.norm>
0.173173

>  <RMSD>
27.355

$$$$
2f4u_lig
 OpenBabel11021811433D
libRbt.so/2013.1/901 2013/11/27
 36 37  0  0  0  0  0  0  0  0999 V2000
   18.8240   24.1884    9.4766 C   0  0  2  0  0  0  0  0  0  0  0  0
   18.8841   25.6302    9.1674 O   0  0  0  0  0  0  0  0  0  0  0  0
   22.6296   26.0034    6.9931 C   0  0  2  0  0  0  0  0  0  0  0  0
   23.6811   26.5828    6.1136 N   0  0  0  0  0  0  0  0  0  0  0  0
   17.9031   24.0363   10.7268 C   0  0  2  0  0  0  0  0  0  0  0  0
   16.5479   24.5725   10.5028 N   0  0  0  0  0  0  0  0  0  0  0  0
   21.2714   25.8161    6.2294 C   0  0  0  0  0  0  0  0  0  0  0  0
   25.2988   25.9683    6.5528 C   0  0  0  0  0  0  0  0  0  0  0  0
   25.7917   26.9548    5.5411 C   0  0  1  0  0  0  0  0  0  0  0  0
   27.3149   27.0357    5.6917 C   0  0  0  0  0  0  0  0  0  0  0  0
   28.0933   25.7555    5.3361 C   0  0  0  0  0  0  0  0  0  0  0  0
   29.5240   26.0187    5.5030 N   0  0  0  0  0  0  0  0  0  0  0  0
   25.5167   26.4998    4.2443 O   0  0  0  0  0  0  0  0  0  0  0  0
   24.6430   27.6120    9.7338 C   0  0  0  0  0  0  0  0  0  0  0  0
   24.0320   27.6608   11.1263 C   0  0  0  0  0  0  0  0  0  0  0  0
   18.5742   24.7627   11.9395 C   0  0  1  0  0  0  0  0  0  0  0  0
   23.5240   28.9912   11.5172 N   0  0  0  0  0  0  0  0  0  0  0  0
   17.7643   24.6621   13.1080 O   0  0  0  0  0  0  0  0  0  0  0  0
   20.1738   25.2673    7.1636 C   0  0  2  0  0  0  0  0  0  0  0  0
   18.9011   25.1364    6.4655 N   0  0  0  0  0  0  0  0  0  0  0  0
   21.4378   30.3371   11.7077 C   0  0  0  0  0  0  0  0  0  0  0  0
   20.7817   29.3878   12.7549 C   0  0  0  0  0  0  0  0  0  0  0  0
   22.4137   29.6090   10.7470 C   0  0  0  0  0  0  0  0  0  0  0  0
   21.7893   28.8206   13.7007 N   0  0  0  0  0  0  0  0  0  0  0  0
   25.6961   25.2648    7.2660 O   0  0  0  0  0  0  0  0  0  0  0  0
   19.9662   24.1389   12.1637 C   0  0  2  0  0  0  0  0  0  0  0  0
   20.6663   24.7426   13.2486 O   0  0  0  0  0  0  0  0  0  0  0  0
   19.9743   26.1945    8.3459 C   0  0  2  0  0  0  0  0  0  0  0  0
   20.8243   24.2399   10.8898 C   0  0  2  0  0  0  0  0  0  0  0  0
   20.1482   23.6589    9.7693 O   0  0  0  0  0  0  0  0  0  0  0  0
   21.3324   26.3463    9.1441 C   0  0  2  0  0  0  0  0  0  0  0  0
   21.1155   27.2586   10.2661 O   0  0  0  0  0  0  0  0  0  0  0  0
   22.1588   23.5639   11.0581 C   0  0  0  0  0  0  0  0  0  0  0  0
   22.0037   22.1969   11.1067 O   0  0  0  0  0  0  0  0  0  0  0  0
   22.4233   26.9238    8.1799 C   0  0  1  0  0  0  0  0  0  0  0  0
   23.6544   27.0903    8.8210 O   0  0  0  0  0  0  0  0  0  0  0  0
  1  2  1  1  0  0  0
  1  5  1  0  0  0  0
  1 30  1  0  0  0  0
  3  4  1  6  0  0  0
  3  7  1  0  0  0  0
  3 35  1  0  0  0  0
  5  6  1  6  0  0  0
  5 16  1  0  0  0  0
  7 19  1  0  0  0  0
  8  4  1  0  0  0  0
  8 25  2  0  0  0  0
  9  8  1  1  0  0  0
  9 10  1  0  0  0  0
  9 13  1  0  0  0  0
 10 11  1  0  0  0  0
 11 12  1  0  0  0  0
 14 15  1  0  0  0  0
 14 36  1  0  0  0  0
 15 17  1  0  0  0  0
 16 18  1  1  0  0  0
 16 26  1  0  0  0  0
 17 23  1  0  0  0  0
 19 20  1  6  0  0  0
 19 28  1  0  0  0  0
 21 22  1  0  0  0  0
 21 23  1  0  0  0  0
 22 24  1  0  0  0  0
 26 27  1  1  0  0  0
 26 29  1  0  0  0  0
 28  2  1  1  0  0  0
 28 31  1  0  0  0  0
 29 30  1  0  0  0  0
 29 33  1  1  0  0  0
 31 32  1  1  0  0  0
 31 35  1  0  0  0  0
 33 34  1  0  0  0  0
 35 36  1  1  0  0  0
M  END
>  <CHROM.1>
160.06671873,-147.31613262,169.30459390,65.66693375,178.59575259,-98.52099399
47.39984824,62.72816657,140.87749176,65.17972725,-60.62291964,44.34370512
70.69369683,171.34867751,22.09414217,26.06725274,9.25838275,2.72376612,0.53424095
0.94039507

>  <Name>
2f4u_lig

>  <RI>
0

>  <Rbt.Current_Directory>
/home/itssahil/PROJECTS/Mol_Feturizer/New_Systems/rnas/2f4u

>  <Rbt.Executable>
rbdock ($Id: //depot/dev/client3/rdock/2013.1/src/exe/rbdock.cxx#4 $)

>  <Rbt.Library>
libRbt.so (2013.1, Build901 2013/11/27)

>  <Rbt.Parameter_File>
/export/apps/rDock/src/rDock_2013.1_src/data/scripts/dock_solv.prm

>  <Rbt.Receptor>
prm/blind_docking_40.prm

>  <SCORE>
-2.34266

>  <SCORE.INTER>
-1.76138

>  <SCORE.INTER.CONST>
1

>  <SCORE.INTER.POLAR>
0

>  <SCORE.INTER.ROT>
14

>  <SCORE.INTER.SOLV>
6.6626

>  <SCORE.INTER.VDW>
-16.3285

>  <SCORE.INTER.norm>
-0.0489273

>  <SCORE.INTRA>
-4.48534

>  <SCORE.INTRA.DIHEDRAL>
-15.2852

>  <SCORE.INTRA.DIHEDRAL.0>
26.3805

>  <SCORE.INTRA.POLAR>
0

>  <SCORE.INTRA.POLAR.0>
0

>  <SCORE.INTRA.REPUL>
0

>  <SCORE.INTRA.REPUL.0>
0

>  <SCORE.INTRA.SOLV>
6.42865

>  <SCORE.INTRA.SOLV.lig_0>
-98.5587

>  <SCORE.INTRA.VDW>
-0.057053

>  <SCORE.INTRA.VDW.0>
-2.91167

>  <SCORE.INTRA.norm>
-0.124593

>  <SCORE.RESTR>
3.90406

>  <SCORE.RESTR.CAVITY>
3.90406

>  <SCORE.RESTR.norm>
0.108446

>  <SCORE.SYSTEM>
0

>  <SCORE.SYSTEM.CONST>
0

>  <SCORE.SYSTEM.DIHEDRAL>
0

>  <SCORE.SYSTEM.SOLV>
0

>  <SCORE.SYSTEM.norm>
0

>  <SCORE.heavy>
36

>  <SCORE.norm>
-0.065074

>  <RMSD>
27.377

$$$$
2f4u_lig
 OpenBabel11021811433D
libRbt.so/2013.1/901 2013/11/27
 36 37  0  0  0  0  0  0  0  0999 V2000
   24.2254   24.9502    6.5597 C   0  0  2  0  0  0  0  0  0  0  0  0
   23.6000   25.8826    7.5175 O   0  0  0  0  0  0  0  0  0  0  0  0
   21.1230   25.5663   11.0755 C   0  0  2  0  0  0  0  0  0  0  0  0
   20.5688   25.0265   12.3469 N   0  0  0  0  0  0  0  0  0  0  0  0
   24.9942   25.8240    5.5206 C   0  0  2  0  0  0  0  0  0  0  0  0
   26.0164   26.6831    6.1462 N   0  0  0  0  0  0  0  0  0  0  0  0
   20.9673   24.5455    9.8937 C   0  0  0  0  0  0  0  0  0  0  0  0
   21.0452   23.3225   12.5851 C   0  0  0  0  0  0  0  0  0  0  0  0
   20.1309   23.3809   13.7685 C   0  0  1  0  0  0  0  0  0  0  0  0
   19.9861   24.8566   14.1567 C   0  0  0  0  0  0  0  0  0  0  0  0
   19.3345   25.1297   15.5250 C   0  0  0  0  0  0  0  0  0  0  0  0
   19.5089   26.5468   15.8495 N   0  0  0  0  0  0  0  0  0  0  0  0
   18.8583   22.9057   13.4235 O   0  0  0  0  0  0  0  0  0  0  0  0
   23.2514   27.7854   13.2238 C   0  0  0  0  0  0  0  0  0  0  0  0
   23.3230   29.0964   12.4550 C   0  0  0  0  0  0  0  0  0  0  0  0
   23.9623   26.7012    4.7369 C   0  0  1  0  0  0  0  0  0  0  0  0
   22.6524   29.0630   11.1396 N   0  0  0  0  0  0  0  0  0  0  0  0
   24.6174   27.5290    3.7793 O   0  0  0  0  0  0  0  0  0  0  0  0
   21.5939   25.0918    8.5946 C   0  0  2  0  0  0  0  0  0  0  0  0
   21.4894   24.1249    7.5090 N   0  0  0  0  0  0  0  0  0  0  0  0
   20.7692   30.5973   11.6869 C   0  0  0  0  0  0  0  0  0  0  0  0
   19.8063   29.4056   11.9717 C   0  0  0  0  0  0  0  0  0  0  0  0
   21.8906   30.2503   10.6731 C   0  0  0  0  0  0  0  0  0  0  0  0
   20.3502   28.4879   13.0173 N   0  0  0  0  0  0  0  0  0  0  0  0
   21.6548   22.6049   12.0608 O   0  0  0  0  0  0  0  0  0  0  0  0
   22.9435   25.7597    4.0640 C   0  0  2  0  0  0  0  0  0  0  0  0
   21.9494   26.4679    3.3278 O   0  0  0  0  0  0  0  0  0  0  0  0
   23.0603   25.4096    8.8086 C   0  0  2  0  0  0  0  0  0  0  0  0
   22.2552   24.8607    5.1069 C   0  0  2  0  0  0  0  0  0  0  0  0
   23.2216   24.1426    5.8818 O   0  0  0  0  0  0  0  0  0  0  0  0
   23.2150   26.4749    9.9686 C   0  0  2  0  0  0  0  0  0  0  0  0
   24.6379   26.7485   10.1652 O   0  0  0  0  0  0  0  0  0  0  0  0
   21.3158   23.8754    4.4644 C   0  0  0  0  0  0  0  0  0  0  0  0
   22.0211   22.8470    3.8812 O   0  0  0  0  0  0  0  0  0  0  0  0
   22.5903   25.8884   11.2797 C   0  0  1  0  0  0  0  0  0  0  0  0
   22.6956   26.7771   12.3537 O   0  0  0  0  0  0  0  0  0  0  0  0
  1  2  1  1  0  0  0
  1  5  1  0  0  0  0
  1 30  1  0  0  0  0
  3  4  1  1  0  0  0
  3  7  1  0  0  0  0
  3 35  1  0  0  0  0
  5  6  1  1  0  0  0
  5 16  1  0  0  0  0
  7 19  1  0  0  0  0
  8  4  1  0  0  0  0
  8 25  2  0  0  0  0
  9  8  1  6  0  0  0
  9 10  1  0  0  0  0
  9 13  1  0  0  0  0
 10 11  1  0  0  0  0
 11 12  1  0  0  0  0
 14 15  1  0  0  0  0
 14 36  1  0  0  0  0
 15 17  1  0  0  0  0
 16 18  1  6  0  0  0
 16 26  1  0  0  0  0
 17 23  1  0  0  0  0
 19 20  1  6  0  0  0
 19 28  1  0  0  0  0
 21 22  1  0  0  0  0
 21 23  1  0  0  0  0
 22 24  1  0  0  0  0
 26 27  1  1  0  0  0
 26 29  1  0  0  0  0
 28  2  1  6  0  0  0
 28 31  1  0  0  0  0
 29 30  1  0  0  0  0
 29 33  1  6  0  0  0
 31 32  1  1  0  0  0
 31 35  1  0  0  0  0
 33 34  1  0  0  0  0
 35 36  1  1  0  0  0
M  END
>  <CHROM.1>
-165.48414597,43.58373812,-21.91010307,-167.41967078,169.14788330,8.28875617
66.60637943,141.50684382,-58.27756951,83.90121596,-55.56513265,-92.20724970
76.01255720,-158.69819611,22.10799825,25.95287207,9.53571820,0.84086290,-1.10359989
-2.32476116

>  <Name>
2f4u_lig

>  <RI>
0

>  <Rbt.Current_Directory>
/home/itssahil/PROJECTS/Mol_Feturizer/New_Systems/rnas/2f4u

>  <Rbt.Executable>
rbdock ($Id: //depot/dev/client3/rdock/2013.1/src/exe/rbdock.cxx#4 $)

>  <Rbt.Library>
libRbt.so (2013.1, Build901 2013/11/27)

>  <Rbt.Parameter_File>
/export/apps/rDock/src/rDock_2013.1_src/data/scripts/dock_solv.prm

>  <Rbt.Receptor>
prm/blind_docking_60.prm

>  <SCORE>
28.7994

>  <SCORE.INTER>
0.582264

>  <SCORE.INTER.CONST>
1

>  <SCORE.INTER.POLAR>
0

>  <SCORE.INTER.ROT>
14

>  <SCORE.INTER.SOLV>
11.9155

>  <SCORE.INTER.VDW>
-16.517

>  <SCORE.INTER.norm>
0.016174

>  <SCORE.INTRA>
17.6113

>  <SCORE.INTRA.DIHEDRAL>
-6.90953

>  <SCORE.INTRA.DIHEDRAL.0>
26.3805

>  <SCORE.INTRA.POLAR>
0

>  <SCORE.INTRA.POLAR.0>
0

>  <SCORE.INTRA.REPUL>
0

>  <SCORE.INTRA.REPUL.0>
0

>  <SCORE.INTRA.SOLV>
14.723

>  <SCORE.INTRA.SOLV.lig_0>
-98.5587

>  <SCORE.INTRA.VDW>
13.7045

>  <SCORE.INTRA.VDW.0>
-2.91167

>  <SCORE.INTRA.norm>
0.489203

>  <SCORE.RESTR>
10.6058

>  <SCORE.RESTR.CAVITY>
10.6058

>  <SCORE.RESTR.norm>
0.294605

>  <SCORE.SYSTEM>
0

>  <SCORE.SYSTEM.CONST>
0

>  <SCORE.SYSTEM.DIHEDRAL>
0

>  <SCORE.SYSTEM.SOLV>
0

>  <SCORE.SYSTEM.norm>
0

>  <SCORE.heavy>
36

>  <SCORE.norm>
0.799982

>  <RMSD>
27.426

$$$$
2f4u_lig
 OpenBabel11021811433D
libRbt.so/2013.1/901 2013/11/27
 36 37  0  0  0  0  0  0  0  0999 V2000
   21.0422   24.0651    5.5531 C   0  0  2  0  0  0  0  0  0  0  0  0
   22.2605   24.1948    6.3758 O   0  0  0  0  0  0  0  0  0  0  0  0
   23.8064   26.5398    9.6934 C   0  0  2  0  0  0  0  0  0  0  0  0
   23.9015   27.6155   10.7174 N   0  0  0  0  0  0  0  0  0  0  0  0
   20.8131   25.4492    4.8704 C   0  0  2  0  0  0  0  0  0  0  0  0
   21.9555   25.8678    4.0373 N   0  0  0  0  0  0  0  0  0  0  0  0
   23.7840   27.1240    8.2369 C   0  0  0  0  0  0  0  0  0  0  0  0
   24.3786   26.9531   12.3052 C   0  0  0  0  0  0  0  0  0  0  0  0
   24.1343   28.3444   12.7995 C   0  0  1  0  0  0  0  0  0  0  0  0
   22.7190   28.3746   13.3871 C   0  0  0  0  0  0  0  0  0  0  0  0
   22.2318   29.7446   13.8940 C   0  0  0  0  0  0  0  0  0  0  0  0
   20.8964   29.5798   14.4713 N   0  0  0  0  0  0  0  0  0  0  0  0
   25.0293   28.6578   13.8315 O   0  0  0  0  0  0  0  0  0  0  0  0
   22.1309   24.6625   12.4868 C   0  0  0  0  0  0  0  0  0  0  0  0
   21.4985   23.3159   12.1682 C   0  0  0  0  0  0  0  0  0  0  0  0
   20.5362   26.5189    5.9783 C   0  0  1  0  0  0  0  0  0  0  0  0
   20.1575   23.1236   12.7561 N   0  0  0  0  0  0  0  0  0  0  0  0
   20.3304   27.8075    5.4052 O   0  0  0  0  0  0  0  0  0  0  0  0
   23.6295   26.0055    7.1864 C   0  0  2  0  0  0  0  0  0  0  0  0
   23.5632   26.5521    5.8369 N   0  0  0  0  0  0  0  0  0  0  0  0
   18.3225   24.6055   13.5542 C   0  0  0  0  0  0  0  0  0  0  0  0
   19.2164   25.6094   14.3426 C   0  0  0  0  0  0  0  0  0  0  0  0
   19.0328   23.9910   12.3199 C   0  0  0  0  0  0  0  0  0  0  0  0
   20.5290   25.0063   14.7231 N   0  0  0  0  0  0  0  0  0  0  0  0
   24.6446   25.9845   12.6955 O   0  0  0  0  0  0  0  0  0  0  0  0
   19.3088   26.0621    6.7920 C   0  0  2  0  0  0  0  0  0  0  0  0
   18.9789   26.9715    7.8388 O   0  0  0  0  0  0  0  0  0  0  0  0
   22.3630   25.2129    7.4411 C   0  0  2  0  0  0  0  0  0  0  0  0
   19.5380   24.6631    7.3918 C   0  0  2  0  0  0  0  0  0  0  0  0
   19.8897   23.7203    6.3731 O   0  0  0  0  0  0  0  0  0  0  0  0
   22.4061   24.5840    8.8926 C   0  0  2  0  0  0  0  0  0  0  0  0
   21.1665   23.8417    9.1173 O   0  0  0  0  0  0  0  0  0  0  0  0
   18.3215   24.1604    8.1222 C   0  0  0  0  0  0  0  0  0  0  0  0
   17.3885   23.6802    7.2311 O   0  0  0  0  0  0  0  0  0  0  0  0
   22.5423   25.7402    9.9404 C   0  0  1  0  0  0  0  0  0  0  0  0
   22.5817   25.2574   11.2517 O   0  0  0  0  0  0  0  0  0  0  0  0
  1  2  1  1  0  0  0
  1  5  1  0  0  0  0
  1 30  1  0  0  0  0
  3  4  1  1  0  0  0
  3  7  1  0  0  0  0
  3 35  1  0  0  0  0
  5  6  1  1  0  0  0
  5 16  1  0  0  0  0
  7 19  1  0  0  0  0
  8  4  1  0  0  0  0
  8 25  2  0  0  0  0
  9  8  1  1  0  0  0
  9 10  1  0  0  0  0
  9 13  1  0  0  0  0
 10 11  1  0  0  0  0
 11 12  1  0  0  0  0
 14 15  1  0  0  0  0
 14 36  1  0  0  0  0
 15 17  1  0  0  0  0
 16 18  1  6  0  0  0
 16 26  1  0  0  0  0
 17 23  1  0  0  0  0
 19 20  1  6  0  0  0
 19 28  1  0  0  0  0
 21 22  1  0  0  0  0
 21 23  1  0  0  0  0
 22 24  1  0  0  0  0
 26 27  1  1  0  0  0
 26 29  1  0  0  0  0
 28  2  1  6  0  0  0
 28 31  1  0  0  0  0
 29 30  1  0  0  0  0
 29 33  1  6  0  0  0
 31 32  1  1  0  0  0
 31 35  1  0  0  0  0
 33 34  1  0  0  0  0
 35 36  1  1  0  0  0
M  END
>  <CHROM.1>
57.89212620,-164.20786617,96.93877257,-177.01080369,-177.52290474,-129.35171150
53.55111402,64.37843308,-128.75433290,-53.50601256,66.58807645,-126.71424511
78.96850766,167.55476875,21.50494335,25.81013538,9.72412933,1.83226908,-0.61652300
-1.64339737

>  <Name>
2f4u_lig

>  <RI>
0

>  <Rbt.Current_Directory>
/home/itssahil/PROJECTS/Mol_Feturizer/New_Systems/rnas/2f4u

>  <Rbt.Executable>
rbdock ($Id: //depot/dev/client3/rdock/2013.1/src/exe/rbdock.cxx#4 $)

>  <Rbt.Library>
libRbt.so (2013.1, Build901 2013/11/27)

>  <Rbt.Parameter_File>
/export/apps/rDock/src/rDock_2013.1_src/data/scripts/dock_solv.prm

>  <Rbt.Receptor>
prm/blind_docking_100.prm

>  <SCORE>
14.029

>  <SCORE.INTER>
3.98827

>  <SCORE.INTER.CONST>
1

>  <SCORE.INTER.POLAR>
-0.967335

>  <SCORE.INTER.ROT>
14

>  <SCORE.INTER.SOLV>
14.2547

>  <SCORE.INTER.VDW>
-11.8016

>  <SCORE.INTER.norm>
0.110785

>  <SCORE.INTRA>
5.90697

>  <SCORE.INTRA.DIHEDRAL>
-8.26914

>  <SCORE.INTRA.DIHEDRAL.0>
26.3805

>  <SCORE.INTRA.POLAR>
0

>  <SCORE.INTRA.POLAR.0>
0

>  <SCORE.INTRA.REPUL>
0

>  <SCORE.INTRA.REPUL.0>
0

>  <SCORE.INTRA.SOLV>
12.9363

>  <SCORE.INTRA.SOLV.lig_0>
-98.5587

>  <SCORE.INTRA.VDW>
3.57338

>  <SCORE.INTRA.VDW.0>
-2.91167

>  <SCORE.INTRA.norm>
0.164082

>  <SCORE.RESTR>
4.1338

>  <SCORE.RESTR.CAVITY>
4.1338

>  <SCORE.RESTR.norm>
0.114828

>  <SCORE.SYSTEM>
0

>  <SCORE.SYSTEM.CONST>
0

>  <SCORE.SYSTEM.DIHEDRAL>
0

>  <SCORE.SYSTEM.SOLV>
0

>  <SCORE.SYSTEM.norm>
0

>  <SCORE.heavy>
36

>  <SCORE.norm>
0.389695

>  <RMSD>
27.430

$$$$
2f4u_lig
 OpenBabel11021811433D
libRbt.so/2013.1/901 2013/11/27
 36 37  0  0  0  0  0  0  0  0999 V2000
   23.5555   27.6754   13.6057 C   0  0  2  0  0  0  0  0  0  0  0  0
   23.1189   26.3374   13.1618 O   0  0  0  0  0  0  0  0  0  0  0  0
   21.7622   24.3186    9.5591 C   0  0  2  0  0  0  0  0  0  0  0  0
   21.2040   24.1264    8.1930 N   0  0  0  0  0  0  0  0  0  0  0  0
   22.2619   28.5212   13.8184 C   0  0  2  0  0  0  0  0  0  0  0  0
   21.3479   27.9223   14.8085 N   0  0  0  0  0  0  0  0  0  0  0  0
   20.7432   25.0443   10.5067 C   0  0  0  0  0  0  0  0  0  0  0  0
   20.5011   25.6428    7.5651 C   0  0  0  0  0  0  0  0  0  0  0  0
   20.0447   24.7910    6.4224 C   0  0  1  0  0  0  0  0  0  0  0  0
   21.2926   24.3968    5.6243 C   0  0  0  0  0  0  0  0  0  0  0  0
   22.1266   25.5634    5.0634 C   0  0  0  0  0  0  0  0  0  0  0  0
   21.2122   26.5837    4.5469 N   0  0  0  0  0  0  0  0  0  0  0  0
   19.4559   23.6120    6.8996 O   0  0  0  0  0  0  0  0  0  0  0  0
   24.9688   23.6083    8.1404 C   0  0  0  0  0  0  0  0  0  0  0  0
   25.0113   23.6445    6.6200 C   0  0  0  0  0  0  0  0  0  0  0  0
   21.5326   28.6827   12.4434 C   0  0  1  0  0  0  0  0  0  0  0  0
   25.8327   24.7387    6.0641 N   0  0  0  0  0  0  0  0  0  0  0  0
   20.3344   29.4413   12.5858 O   0  0  0  0  0  0  0  0  0  0  0  0
   21.3514   25.2880   11.9029 C   0  0  2  0  0  0  0  0  0  0  0  0
   20.4213   26.0023   12.7683 N   0  0  0  0  0  0  0  0  0  0  0  0
   24.9898   27.0556    5.7157 C   0  0  0  0  0  0  0  0  0  0  0  0
   24.3342   26.9670    7.1266 C   0  0  0  0  0  0  0  0  0  0  0  0
   25.2405   25.6687    5.0681 C   0  0  0  0  0  0  0  0  0  0  0  0
   25.3397   26.6683    8.1901 N   0  0  0  0  0  0  0  0  0  0  0  0
   20.4108   26.6596    7.9106 O   0  0  0  0  0  0  0  0  0  0  0  0
   22.5094   29.3529   11.4566 C   0  0  2  0  0  0  0  0  0  0  0  0
   21.9381   29.5370   10.1637 O   0  0  0  0  0  0  0  0  0  0  0  0
   22.6211   26.1079   11.7901 C   0  0  2  0  0  0  0  0  0  0  0  0
   23.8049   28.5321   11.3243 C   0  0  2  0  0  0  0  0  0  0  0  0
   24.4031   28.3091   12.6060 O   0  0  0  0  0  0  0  0  0  0  0  0
   23.6673   25.3540   10.8728 C   0  0  2  0  0  0  0  0  0  0  0  0
   24.8729   26.1746   10.7671 O   0  0  0  0  0  0  0  0  0  0  0  0
   24.8081   29.2091   10.4292 C   0  0  0  0  0  0  0  0  0  0  0  0
   26.0180   28.5542   10.4794 O   0  0  0  0  0  0  0  0  0  0  0  0
   23.0339   25.1375    9.4567 C   0  0  1  0  0  0  0  0  0  0  0  0
   23.9075   24.4782    8.5870 O   0  0  0  0  0  0  0  0  0  0  0  0
  1  2  1  6  0  0  0
  1  5  1  0  0  0  0
  1 30  1  0  0  0  0
  3  4  1  6  0  0  0
  3  7  1  0  0  0  0
  3 35  1  0  0  0  0
  5  6  1  1  0  0  0
  5 16  1  0  0  0  0
  7 19  1  0  0  0  0
  8  4  1  0  0  0  0
  8 25  2  0  0  0  0
  9  8  1  1  0  0  0
  9 10  1  0  0  0  0
  9 13  1  0  0  0  0
 10 11  1  0  0  0  0
 11 12  1  0  0  0  0
 14 15  1  0  0  0  0
 14 36  1  0  0  0  0
 15 17  1  0  0  0  0
 16 18  1  1  0  0  0
 16 26  1  0  0  0  0
 17 23  1  0  0  0  0
 19 20  1  1  0  0  0
 19 28  1  0  0  0  0
 21 22  1  0  0  0  0
 21 23  1  0  0  0  0
 22 24  1  0  0  0  0
 26 27  1  6  0  0  0
 26 29  1  0  0  0  0
 28  2  1  1  0  0  0
 28 31  1  0  0  0  0
 29 30  1  0  0  0  0
 29 33  1  6  0  0  0
 31 32  1  6  0  0  0
 31 35  1  0  0  0  0
 33 34  1  0  0  0  0
 35 36  1  6  0  0  0
M  END
>  <CHROM.1>
74.55811189,48.88466279,-69.83866069,-58.67270848,-41.13929398,86.67298341
177.03833110,-126.45878631,107.49037657,80.70281446,-44.90236844,-133.49831156
171.49598193,-93.52561192,22.79287135,26.39867385,9.50821014,-1.62886920
-0.28525467,-2.01652780

>  <Name>
2f4u_lig

>  <RI>
0

>  <Rbt.Current_Directory>
/home/itssahil/PROJECTS/Mol_Feturizer/New_Systems/rnas/2f4u

>  <Rbt.Executable>
rbdock ($Id: //depot/dev/client3/rdock/2013.1/src/exe/rbdock.cxx#4 $)

>  <Rbt.Library>
libRbt.so (2013.1, Build901 2013/11/27)

>  <Rbt.Parameter_File>
/export/apps/rDock/src/rDock_2013.1_src/data/scripts/dock_solv.prm

>  <Rbt.Receptor>
prm/blind_docking_60.prm

>  <SCORE>
22.3735

>  <SCORE.INTER>
4.00367

>  <SCORE.INTER.CONST>
1

>  <SCORE.INTER.POLAR>
0

>  <SCORE.INTER.ROT>
14

>  <SCORE.INTER.SOLV>
10.0662

>  <SCORE.INTER.VDW>
-13.6196

>  <SCORE.INTER.norm>
0.111213

>  <SCORE.INTRA>
12.4277

>  <SCORE.INTRA.DIHEDRAL>
-5.47994

>  <SCORE.INTRA.DIHEDRAL.0>
26.3805

>  <SCORE.INTRA.POLAR>
0

>  <SCORE.INTRA.POLAR.0>
0

>  <SCORE.INTRA.REPUL>
0.0798608

>  <SCORE.INTRA.REPUL.0>
0

>  <SCORE.INTRA.SOLV>
20.6315

>  <SCORE.INTRA.SOLV.lig_0>
-98.5587

>  <SCORE.INTRA.VDW>
4.45267

>  <SCORE.INTRA.VDW.0>
-2.91167

>  <SCORE.INTRA.norm>
0.345215

>  <SCORE.RESTR>
5.94205

>  <SCORE.RESTR.CAVITY>
5.94205

>  <SCORE.RESTR.norm>
0.165057

>  <SCORE.SYSTEM>
0

>  <SCORE.SYSTEM.CONST>
0

>  <SCORE.SYSTEM.DIHEDRAL>
0

>  <SCORE.SYSTEM.SOLV>
0

>  <SCORE.SYSTEM.norm>
0

>  <SCORE.heavy>
36

>  <SCORE.norm>
0.621485

>  <RMSD>
27.436

$$$$
2f4u_lig
 OpenBabel11021811433D
libRbt.so/2013.1/901 2013/11/27
 36 37  0  0  0  0  0  0  0  0999 V2000
   22.3012   26.5712    6.2175 C   0  0  2  0  0  0  0  0  0  0  0  0
   21.4900   25.8673    7.2295 O   0  0  0  0  0  0  0  0  0  0  0  0
   21.4429   26.2519   11.5591 C   0  0  2  0  0  0  0  0  0  0  0  0
   21.2875   26.8705   12.9037 N   0  0  0  0  0  0  0  0  0  0  0  0
   21.5504   26.4216    4.8581 C   0  0  2  0  0  0  0  0  0  0  0  0
   20.1843   26.9749    4.8996 N   0  0  0  0  0  0  0  0  0  0  0  0
   22.5211   26.9984   10.6969 C   0  0  0  0  0  0  0  0  0  0  0  0
   22.7099   26.5429   13.9318 C   0  0  0  0  0  0  0  0  0  0  0  0
   21.9047   27.1998   15.0088 C   0  0  1  0  0  0  0  0  0  0  0  0
   22.0462   28.7144   14.8204 C   0  0  0  0  0  0  0  0  0  0  0  0
   21.3891   29.2977   13.5558 C   0  0  0  0  0  0  0  0  0  0  0  0
   21.7607   30.7098   13.4468 N   0  0  0  0  0  0  0  0  0  0  0  0
   20.5479   26.8791   14.8656 O   0  0  0  0  0  0  0  0  0  0  0  0
   17.8950   25.1092   12.0846 C   0  0  0  0  0  0  0  0  0  0  0  0
   18.1312   24.2498   13.3176 C   0  0  0  0  0  0  0  0  0  0  0  0
   21.5042   24.9061    4.4711 C   0  0  1  0  0  0  0  0  0  0  0  0
   19.1272   23.1766   13.1247 N   0  0  0  0  0  0  0  0  0  0  0  0
   20.8166   24.7137    3.2376 O   0  0  0  0  0  0  0  0  0  0  0  0
   22.6348   26.3843    9.2867 C   0  0  2  0  0  0  0  0  0  0  0  0
   23.6035   27.1063    8.4714 N   0  0  0  0  0  0  0  0  0  0  0  0
   21.2845   23.2986   11.8871 C   0  0  0  0  0  0  0  0  0  0  0  0
   22.4420   22.2564   11.9323 C   0  0  0  0  0  0  0  0  0  0  0  0
   20.5747   23.4860   13.2534 C   0  0  0  0  0  0  0  0  0  0  0  0
   23.6300   22.7754   12.6744 N   0  0  0  0  0  0  0  0  0  0  0  0
   23.6571   26.0431   13.8124 O   0  0  0  0  0  0  0  0  0  0  0  0
   22.9532   24.3846    4.3953 C   0  0  2  0  0  0  0  0  0  0  0  0
   23.0183   23.0017    4.0558 O   0  0  0  0  0  0  0  0  0  0  0  0
   21.2937   26.4280    8.5819 C   0  0  2  0  0  0  0  0  0  0  0  0
   23.6889   24.6128    5.7280 C   0  0  2  0  0  0  0  0  0  0  0  0
   23.6321   25.9902    6.1151 O   0  0  0  0  0  0  0  0  0  0  0  0
   20.2167   25.6349    9.4277 C   0  0  2  0  0  0  0  0  0  0  0  0
   18.9312   25.7089    8.7347 O   0  0  0  0  0  0  0  0  0  0  0  0
   25.1307   24.1867    5.6521 C   0  0  0  0  0  0  0  0  0  0  0  0
   25.7893   24.5053    6.8182 O   0  0  0  0  0  0  0  0  0  0  0  0
   20.1056   26.2900   10.8460 C   0  0  1  0  0  0  0  0  0  0  0  0
   19.1643   25.6415   11.6508 O   0  0  0  0  0  0  0  0  0  0  0  0
  1  2  1  1  0  0  0
  1  5  1  0  0  0  0
  1 30  1  0  0  0  0
  3  4  1  1  0  0  0
  3  7  1  0  0  0  0
  3 35  1  0  0  0  0
  5  6  1  1  0  0  0
  5 16  1  0  0  0  0
  7 19  1  0  0  0  0
  8  4  1  0  0  0  0
  8 25  2  0  0  0  0
  9  8  1  6  0  0  0
  9 10  1  0  0  0  0
  9 13  1  0  0  0  0
 10 11  1  0  0  0  0
 11 12  1  0  0  0  0
 14 15  1  0  0  0  0
 14 36  1  0  0  0  0
 15 17  1  0  0  0  0
 16 18  1  6  0  0  0
 16 26  1  0  0  0  0
 17 23  1  0  0  0  0
 19 20  1  6  0  0  0
 19 28  1  0  0  0  0
 21 22  1  0  0  0  0
 21 23  1  0  0  0  0
 22 24  1  0  0  0  0
 26 27  1  1  0  0  0
 26 29  1  0  0  0  0
 28  2  1  6  0  0  0
 28 31  1  0  0  0  0
 29 30  1  0  0  0  0
 29 33  1  6  0  0  0
 31 32  1  6  0  0  0
 31 35  1  0  0  0  0
 33 34  1  0  0  0  0
 35 36  1  1  0  0  0
M  END
>  <CHROM.1>
-139.35873490,-71.32563508,-80.89662391,67.86659737,-172.96894019,-55.24584177
170.74511199,82.86478461,-114.72254704,-72.02558578,-121.52039939,-67.79342864
174.96782275,179.45120521,21.67791386,25.68010674,9.79334299,-1.29487803
0.85653564,1.20174125

>  <Name>
2f4u_lig

>  <RI>
0

>  <Rbt.Current_Directory>
/home/itssahil/PROJECTS/Mol_Feturizer/New_Systems/rnas/2f4u

>  <Rbt.Executable>
rbdock ($Id: //depot/dev/client3/rdock/2013.1/src/exe/rbdock.cxx#4 $)

>  <Rbt.Library>
libRbt.so (2013.1, Build901 2013/11/27)

>  <Rbt.Parameter_File>
/export/apps/rDock/src/rDock_2013.1_src/data/scripts/dock_solv.prm

>  <Rbt.Receptor>
prm/blind_docking_60.prm

>  <SCORE>
10.8209

>  <SCORE.INTER>
-2.37029

>  <SCORE.INTER.CONST>
1

>  <SCORE.INTER.POLAR>
-1

>  <SCORE.INTER.ROT>
14

>  <SCORE.INTER.SOLV>
19.3087

>  <SCORE.INTER.VDW>
-17.6164

>  <SCORE.INTER.norm>
-0.0658414

>  <SCORE.INTRA>
7.91099

>  <SCORE.INTRA.DIHEDRAL>
-10.7142

>  <SCORE.INTRA.DIHEDRAL.0>
26.3805

>  <SCORE.INTRA.POLAR>
0

>  <SCORE.INTRA.POLAR.0>
0

>  <SCORE.INTRA.REPUL>
0.0348939

>  <SCORE.INTRA.REPUL.0>
0

>  <SCORE.INTRA.SOLV>
6.45077

>  <SCORE.INTRA.SOLV.lig_0>
-98.5587

>  <SCORE.INTRA.VDW>
9.86824

>  <SCORE.INTRA.VDW.0>
-2.91167

>  <SCORE.INTRA.norm>
0.21975

>  <SCORE.RESTR>
5.28022

>  <SCORE.RESTR.CAVITY>
5.28022

>  <SCORE.RESTR.norm>
0.146673

>  <SCORE.SYSTEM>
0

>  <SCORE.SYSTEM.CONST>
0

>  <SCORE.SYSTEM.DIHEDRAL>
0

>  <SCORE.SYSTEM.SOLV>
0

>  <SCORE.SYSTEM.norm>
0

>  <SCORE.heavy>
36

>  <SCORE.norm>
0.300581

>  <RMSD>
27.444

$$$$
2f4u_lig
 OpenBabel11021811433D
libRbt.so/2013.1/901 2013/11/27
 36 37  0  0  0  0  0  0  0  0999 V2000
   23.2987   27.5071   12.9347 C   0  0  2  0  0  0  0  0  0  0  0  0
   23.4471   26.1720   12.3236 O   0  0  0  0  0  0  0  0  0  0  0  0
   23.1598   26.9325    8.0534 C   0  0  2  0  0  0  0  0  0  0  0  0
   23.3615   26.7623    6.5888 N   0  0  0  0  0  0  0  0  0  0  0  0
   22.1927   27.3792   14.0277 C   0  0  2  0  0  0  0  0  0  0  0  0
   22.5234   26.3754   15.0559 N   0  0  0  0  0  0  0  0  0  0  0  0
   24.5230   27.1065    8.8116 C   0  0  0  0  0  0  0  0  0  0  0  0
   23.9169   25.1101    6.2027 C   0  0  0  0  0  0  0  0  0  0  0  0
   24.0624   25.6378    4.8098 C   0  0  1  0  0  0  0  0  0  0  0  0
   25.3989   26.3854    4.7457 C   0  0  0  0  0  0  0  0  0  0  0  0
   26.6503   25.5528    5.0808 C   0  0  0  0  0  0  0  0  0  0  0  0
   26.7293   25.3950    6.5344 N   0  0  0  0  0  0  0  0  0  0  0  0
   24.1234   24.5795    3.8929 O   0  0  0  0  0  0  0  0  0  0  0  0
   20.3351   25.4921    6.7537 C   0  0  0  0  0  0  0  0  0  0  0  0
   19.5447   24.1971    6.8675 C   0  0  0  0  0  0  0  0  0  0  0  0
   20.8385   27.0120   13.3349 C   0  0  1  0  0  0  0  0  0  0  0  0
   19.5917   23.5759    8.2065 N   0  0  0  0  0  0  0  0  0  0  0  0
   19.7942   26.8724   14.2948 O   0  0  0  0  0  0  0  0  0  0  0  0
   24.3066   27.2266   10.3339 C   0  0  2  0  0  0  0  0  0  0  0  0
   25.5755   27.3425   11.0415 N   0  0  0  0  0  0  0  0  0  0  0  0
   18.6583   24.9138   10.0876 C   0  0  0  0  0  0  0  0  0  0  0  0
   18.2536   26.2870    9.4721 C   0  0  0  0  0  0  0  0  0  0  0  0
   18.4320   23.7197    9.1240 C   0  0  0  0  0  0  0  0  0  0  0  0
   16.7752   26.4985    9.5062 N   0  0  0  0  0  0  0  0  0  0  0  0
   24.1085   24.2050    6.7555 O   0  0  0  0  0  0  0  0  0  0  0  0
   20.5122   28.1108   12.3037 C   0  0  2  0  0  0  0  0  0  0  0  0
   19.2934   27.8615   11.6080 O   0  0  0  0  0  0  0  0  0  0  0  0
   23.5777   26.0070   10.8615 C   0  0  2  0  0  0  0  0  0  0  0  0
   21.6546   28.2620   11.2831 C   0  0  2  0  0  0  0  0  0  0  0  0
   22.9034   28.4970   11.9432 O   0  0  0  0  0  0  0  0  0  0  0  0
   22.1819   25.8579   10.1309 C   0  0  2  0  0  0  0  0  0  0  0  0
   21.5100   24.6655   10.6455 O   0  0  0  0  0  0  0  0  0  0  0  0
   21.3959   29.3854   10.3150 C   0  0  0  0  0  0  0  0  0  0  0  0
   21.3442   30.5907   10.9781 O   0  0  0  0  0  0  0  0  0  0  0  0
   22.4302   25.7172    8.5909 C   0  0  1  0  0  0  0  0  0  0  0  0
   21.2359   25.5759    7.8781 O   0  0  0  0  0  0  0  0  0  0  0  0
  1  2  1  6  0  0  0
  1  5  1  0  0  0  0
  1 30  1  0  0  0  0
  3  4  1  6  0  0  0
  3  7  1  0  0  0  0
  3 35  1  0  0  0  0
  5  6  1  1  0  0  0
  5 16  1  0  0  0  0
  7 19  1  0  0  0  0
  8  4  1  0  0  0  0
  8 25  2  0  0  0  0
  9  8  1  1  0  0  0
  9 10  1  0  0  0  0
  9 13  1  0  0  0  0
 10 11  1  0  0  0  0
 11 12  1  0  0  0  0
 14 15  1  0  0  0  0
 14 36  1  0  0  0  0
 15 17  1  0  0  0  0
 16 18  1  1  0  0  0
 16 26  1  0  0  0  0
 17 23  1  0  0  0  0
 19 20  1  1  0  0  0
 19 28  1  0  0  0  0
 21 22  1  0  0  0  0
 21 23  1  0  0  0  0
 22 24  1  0  0  0  0
 26 27  1  6  0  0  0
 26 29  1  0  0  0  0
 28  2  1  1  0  0  0
 28 31  1  0  0  0  0
 29 30  1  0  0  0  0
 29 33  1  6  0  0  0
 31 32  1  1  0  0  0
 31 35  1  0  0  0  0
 33 34  1  0  0  0  0
 35 36  1  6  0  0  0
M  END
>  <CHROM.1>
136.91546340,76.87092455,81.34892424,58.98533168,-77.43338781,16.32601598
126.12965072,102.14888375,-95.19291359,78.59911413,83.87676406,32.23336308
63.23844031,48.52401469,22.13437219,26.35540807,9.49052525,-2.04504097,-0.23021296
-1.96650530

>  <Name>
2f4u_lig

>  <RI>
0

>  <Rbt.Current_Directory>
/home/itssahil/PROJECTS/Mol_Feturizer/New_Systems/rnas/2f4u

>  <Rbt.Executable>
rbdock ($Id: //depot/dev/client3/rdock/2013.1/src/exe/rbdock.cxx#4 $)

>  <Rbt.Library>
libRbt.so (2013.1, Build901 2013/11/27)

>  <Rbt.Parameter_File>
/export/apps/rDock/src/rDock_2013.1_src/data/scripts/dock_solv.prm

>  <Rbt.Receptor>
prm/blind_docking_40.prm

>  <SCORE>
18.4121

>  <SCORE.INTER>
4.9928

>  <SCORE.INTER.CONST>
1

>  <SCORE.INTER.POLAR>
0

>  <SCORE.INTER.ROT>
14

>  <SCORE.INTER.SOLV>
13.8036

>  <SCORE.INTER.VDW>
-14.206

>  <SCORE.INTER.norm>
0.138689

>  <SCORE.INTRA>
9.04445

>  <SCORE.INTRA.DIHEDRAL>
2.44044

>  <SCORE.INTRA.DIHEDRAL.0>
26.3805

>  <SCORE.INTRA.POLAR>
0

>  <SCORE.INTRA.POLAR.0>
0

>  <SCORE.INTRA.REPUL>
0

>  <SCORE.INTRA.REPUL.0>
0

>  <SCORE.INTRA.SOLV>
11.12

>  <SCORE.INTRA.SOLV.lig_0>
-98.5587

>  <SCORE.INTRA.VDW>
2.26425

>  <SCORE.INTRA.VDW.0>
-2.91167

>  <SCORE.INTRA.norm>
0.251235

>  <SCORE.RESTR>
4.37484

>  <SCORE.RESTR.CAVITY>
4.37484

>  <SCORE.RESTR.norm>
0.121523

>  <SCORE.SYSTEM>
0

>  <SCORE.SYSTEM.CONST>
0

>  <SCORE.SYSTEM.DIHEDRAL>
0

>  <SCORE.SYSTEM.SOLV>
0

>  <SCORE.SYSTEM.norm>
0

>  <SCORE.heavy>
36

>  <SCORE.norm>
0.511447

>  <RMSD>
27.451

$$$$
2f4u_lig
 OpenBabel11021811433D
libRbt.so/2013.1/901 2013/11/27
 36 37  0  0  0  0  0  0  0  0999 V2000
   23.0953   27.5401   13.0985 C   0  0  2  0  0  0  0  0  0  0  0  0
   23.5980   26.4649   12.2214 O   0  0  0  0  0  0  0  0  0  0  0  0
   23.2037   25.0683    8.1239 C   0  0  2  0  0  0  0  0  0  0  0  0
   22.6394   24.8898    6.7585 N   0  0  0  0  0  0  0  0  0  0  0  0
   21.7382   27.0419   13.6853 C   0  0  2  0  0  0  0  0  0  0  0  0
   21.8736   25.7822   14.4397 N   0  0  0  0  0  0  0  0  0  0  0  0
   22.1988   24.5984    9.2342 C   0  0  0  0  0  0  0  0  0  0  0  0
   21.4526   26.1686    6.3795 C   0  0  0  0  0  0  0  0  0  0  0  0
   21.2081   25.3748    5.1346 C   0  0  1  0  0  0  0  0  0  0  0  0
   20.3330   24.1784    5.5247 C   0  0  0  0  0  0  0  0  0  0  0  0
   19.1894   24.4769    6.5117 C   0  0  0  0  0  0  0  0  0  0  0  0
   18.7979   23.2255    7.1634 N   0  0  0  0  0  0  0  0  0  0  0  0
   20.4919   26.1392    4.2035 O   0  0  0  0  0  0  0  0  0  0  0  0
   24.9572   27.0821    5.9820 C   0  0  0  0  0  0  0  0  0  0  0  0
   25.8287   25.8732    5.6757 C   0  0  0  0  0  0  0  0  0  0  0  0
   20.7182   26.8587   12.5129 C   0  0  1  0  0  0  0  0  0  0  0  0
   27.1825   25.9399    6.2621 N   0  0  0  0  0  0  0  0  0  0  0  0
   19.4611   26.3926   12.9966 O   0  0  0  0  0  0  0  0  0  0  0  0
   22.7707   24.8388   10.6462 C   0  0  2  0  0  0  0  0  0  0  0  0
   21.8189   24.4443   11.6771 N   0  0  0  0  0  0  0  0  0  0  0  0
   29.6056   26.3856    5.9020 C   0  0  0  0  0  0  0  0  0  0  0  0
   29.9745   26.0487    7.3780 C   0  0  0  0  0  0  0  0  0  0  0  0
   28.1616   26.9278    5.7396 C   0  0  0  0  0  0  0  0  0  0  0  0
   31.3956   25.6076    7.5101 N   0  0  0  0  0  0  0  0  0  0  0  0
   21.0715   27.0470    6.8740 O   0  0  0  0  0  0  0  0  0  0  0  0
   20.5752   28.2097   11.7840 C   0  0  2  0  0  0  0  0  0  0  0  0
   19.6681   28.1443   10.6865 O   0  0  0  0  0  0  0  0  0  0  0  0
   23.1005   26.3054   10.8398 C   0  0  2  0  0  0  0  0  0  0  0  0
   21.9417   28.7090   11.2810 C   0  0  2  0  0  0  0  0  0  0  0  0
   22.8897   28.7730   12.3522 O   0  0  0  0  0  0  0  0  0  0  0  0
   24.1501   26.7681    9.7495 C   0  0  2  0  0  0  0  0  0  0  0  0
   24.4354   28.1883    9.9485 O   0  0  0  0  0  0  0  0  0  0  0  0
   21.8402   30.0664   10.6381 C   0  0  0  0  0  0  0  0  0  0  0  0
   21.3786   30.9951   11.5434 O   0  0  0  0  0  0  0  0  0  0  0  0
   23.5379   26.5330    8.3271 C   0  0  1  0  0  0  0  0  0  0  0  0
   24.4117   26.9255    7.3089 O   0  0  0  0  0  0  0  0  0  0  0  0
  1  2  1  6  0  0  0
  1  5  1  0  0  0  0
  1 30  1  0  0  0  0
  3  4  1  6  0  0  0
  3  7  1  0  0  0  0
  3 35  1  0  0  0  0
  5  6  1  6  0  0  0
  5 16  1  0  0  0  0
  7 19  1  0  0  0  0
  8  4  1  0  0  0  0
  8 25  2  0  0  0  0
  9  8  1  1  0  0  0
  9 10  1  0  0  0  0
  9 13  1  0  0  0  0
 10 11  1  0  0  0  0
 11 12  1  0  0  0  0
 14 15  1  0  0  0  0
 14 36  1  0  0  0  0
 15 17  1  0  0  0  0
 16 18  1  1  0  0  0
 16 26  1  0  0  0  0
 17 23  1  0  0  0  0
 19 20  1  1  0  0  0
 19 28  1  0  0  0  0
 21 22  1  0  0  0  0
 21 23  1  0  0  0  0
 22 24  1  0  0  0  0
 26 27  1  6  0  0  0
 26 29  1  0  0  0  0
 28  2  1  1  0  0  0
 28 31  1  0  0  0  0
 29 30  1  0  0  0  0
 29 33  1  1  0  0  0
 31 32  1  1  0  0  0
 31 35  1  0  0  0  0
 33 34  1  0  0  0  0
 35 36  1  6  0  0  0
M  END
>  <CHROM.1>
81.21901947,77.01480782,77.51747007,41.54364593,-158.58410610,-80.50803568
-87.62526223,-69.14067878,-150.32391172,-176.57923052,-58.00914328,-132.61301857
60.81344634,47.17341059,23.05671666,26.53950789,9.06364620,-2.40711247,-0.12225843
-1.91341238

>  <Name>
2f4u_lig

>  <RI>
0

>  <Rbt.Current_Directory>
/home/itssahil/PROJECTS/Mol_Feturizer/New_Systems/rnas/2f4u

>  <Rbt.Executable>
rbdock ($Id: //depot/dev/client3/rdock/2013.1/src/exe/rbdock.cxx#4 $)

>  <Rbt.Library>
libRbt.so (2013.1, Build901 2013/11/27)

>  <Rbt.Parameter_File>
/export/apps/rDock/src/rDock_2013.1_src/data/scripts/dock_solv.prm

>  <Rbt.Receptor>
prm/blind_docking_100.prm

>  <SCORE>
5.42125

>  <SCORE.INTER>
2.27983

>  <SCORE.INTER.CONST>
1

>  <SCORE.INTER.POLAR>
0

>  <SCORE.INTER.ROT>
14

>  <SCORE.INTER.SOLV>
11.7493

>  <SCORE.INTER.VDW>
-15.3299

>  <SCORE.INTER.norm>
0.0633286

>  <SCORE.INTRA>
1.34238

>  <SCORE.INTRA.DIHEDRAL>
-7.70452

>  <SCORE.INTRA.DIHEDRAL.0>
26.3805

>  <SCORE.INTRA.POLAR>
0

>  <SCORE.INTRA.POLAR.0>
0

>  <SCORE.INTRA.REPUL>
0

>  <SCORE.INTRA.REPUL.0>
0

>  <SCORE.INTRA.SOLV>
7.5844

>  <SCORE.INTRA.SOLV.lig_0>
-98.5587

>  <SCORE.INTRA.VDW>
1.40244

>  <SCORE.INTRA.VDW.0>
-2.91167

>  <SCORE.INTRA.norm>
0.0372883

>  <SCORE.RESTR>
1.79904

>  <SCORE.RESTR.CAVITY>
1.79904

>  <SCORE.RESTR.norm>
0.0499735

>  <SCORE.SYSTEM>
0

>  <SCORE.SYSTEM.CONST>
0

>  <SCORE.SYSTEM.DIHEDRAL>
0

>  <SCORE.SYSTEM.SOLV>
0

>  <SCORE.SYSTEM.norm>
0

>  <SCORE.heavy>
36

>  <SCORE.norm>
0.15059

>  <RMSD>
27.458

$$$$
2f4u_lig
 OpenBabel11021811433D
libRbt.so/2013.1/901 2013/11/27
 36 37  0  0  0  0  0  0  0  0999 V2000
   24.9348   27.1747    7.2978 C   0  0  2  0  0  0  0  0  0  0  0  0
   25.0542   26.0512    8.2472 O   0  0  0  0  0  0  0  0  0  0  0  0
   21.6143   26.4338   10.8771 C   0  0  2  0  0  0  0  0  0  0  0  0
   20.7508   26.2712   12.0782 N   0  0  0  0  0  0  0  0  0  0  0  0
   23.9476   26.7144    6.1808 C   0  0  2  0  0  0  0  0  0  0  0  0
   22.6224   26.3443    6.7109 N   0  0  0  0  0  0  0  0  0  0  0  0
   21.9887   25.0499   10.2385 C   0  0  0  0  0  0  0  0  0  0  0  0
   21.7282   25.9306   13.5329 C   0  0  0  0  0  0  0  0  0  0  0  0
   20.4041   25.7358   14.2027 C   0  0  1  0  0  0  0  0  0  0  0  0
   19.9607   24.2961   13.9200 C   0  0  0  0  0  0  0  0  0  0  0  0
   18.5904   24.1381   13.2354 C   0  0  0  0  0  0  0  0  0  0  0  0
   18.7421   24.4482   11.8125 N   0  0  0  0  0  0  0  0  0  0  0  0
   20.5367   25.8745   15.5911 O   0  0  0  0  0  0  0  0  0  0  0  0
   21.9756   29.7158   11.9897 C   0  0  0  0  0  0  0  0  0  0  0  0
   20.5723   29.7269   11.4021 C   0  0  0  0  0  0  0  0  0  0  0  0
   24.5782   25.5024    5.4179 C   0  0  1  0  0  0  0  0  0  0  0  0
   19.6802   28.6839   11.9474 N   0  0  0  0  0  0  0  0  0  0  0  0
   23.7077   25.0357    4.3904 O   0  0  0  0  0  0  0  0  0  0  0  0
   22.9282   25.2265    9.0283 C   0  0  2  0  0  0  0  0  0  0  0  0
   23.3120   23.9388    8.4635 N   0  0  0  0  0  0  0  0  0  0  0  0
   18.8337   27.3118   10.0499 C   0  0  0  0  0  0  0  0  0  0  0  0
   17.5922   26.6709    9.3599 C   0  0  0  0  0  0  0  0  0  0  0  0
   18.4617   28.2916   11.1933 C   0  0  0  0  0  0  0  0  0  0  0  0
   17.9784   25.5591    8.4400 N   0  0  0  0  0  0  0  0  0  0  0  0
   22.7778   25.8473   13.7626 O   0  0  0  0  0  0  0  0  0  0  0  0
   25.9375   25.9497    4.8440 C   0  0  2  0  0  0  0  0  0  0  0  0
   26.5999   24.9064    4.1338 O   0  0  0  0  0  0  0  0  0  0  0  0
   24.1891   25.9594    9.4410 C   0  0  2  0  0  0  0  0  0  0  0  0
   26.8617   26.4660    5.9615 C   0  0  2  0  0  0  0  0  0  0  0  0
   26.2258   27.5063    6.7123 O   0  0  0  0  0  0  0  0  0  0  0  0
   23.8150   27.3750   10.0415 C   0  0  2  0  0  0  0  0  0  0  0  0
   25.0467   28.0508   10.4470 O   0  0  0  0  0  0  0  0  0  0  0  0
   28.1648   26.9856    5.4155 C   0  0  0  0  0  0  0  0  0  0  0  0
   27.9435   28.0516    4.5730 O   0  0  0  0  0  0  0  0  0  0  0  0
   22.8786   27.1671   11.2796 C   0  0  1  0  0  0  0  0  0  0  0  0
   22.5097   28.3807   11.8674 O   0  0  0  0  0  0  0  0  0  0  0  0
  1  2  1  1  0  0  0
  1  5  1  0  0  0  0
  1 30  1  0  0  0  0
  3  4  1  1  0  0  0
  3  7  1  0  0  0  0
  3 35  1  0  0  0  0
  5  6  1  1  0  0  0
  5 16  1  0  0  0  0
  7 19  1  0  0  0  0
  8  4  1  0  0  0  0
  8 25  2  0  0  0  0
  9  8  1  6  0  0  0
  9 10  1  0  0  0  0
  9 13  1  0  0  0  0
 10 11  1  0  0  0  0
 11 12  1  0  0  0  0
 14 15  1  0  0  0  0
 14 36  1  0  0  0  0
 15 17  1  0  0  0  0
 16 18  1  6  0  0  0
 16 26  1  0  0  0  0
 17 23  1  0  0  0  0
 19 20  1  1  0  0  0
 19 28  1  0  0  0  0
 21 22  1  0  0  0  0
 21 23  1  0  0  0  0
 22 24  1  0  0  0  0
 26 27  1  1  0  0  0
 26 29  1  0  0  0  0
 28  2  1  6  0  0  0
 28 31  1  0  0  0  0
 29 30  1  0  0  0  0
 29 33  1  6  0  0  0
 31 32  1  1  0  0  0
 31 35  1  0  0  0  0
 33 34  1  0  0  0  0
 35 36  1  6  0  0  0
M  END
>  <CHROM.1>
-92.82840001,83.30777103,83.87764136,-123.35770176,77.24873558,52.45543828
51.35628007,-160.63869046,80.04228954,-169.76003394,170.54740597,87.97091584
61.76282126,-66.99958471,22.63883777,26.47680945,9.53867085,-0.81616513,0.30798885
1.29991534

>  <Name>
2f4u_lig

>  <RI>
0

>  <Rbt.Current_Directory>
/home/itssahil/PROJECTS/Mol_Feturizer/New_Systems/rnas/2f4u

>  <Rbt.Executable>
rbdock ($Id: //depot/dev/client3/rdock/2013.1/src/exe/rbdock.cxx#4 $)

>  <Rbt.Library>
libRbt.so (2013.1, Build901 2013/11/27)

>  <Rbt.Parameter_File>
/export/apps/rDock/src/rDock_2013.1_src/data/scripts/dock_solv.prm

>  <Rbt.Receptor>
prm/blind_docking_40.prm

>  <SCORE>
10.7529

>  <SCORE.INTER>
4.47663

>  <SCORE.INTER.CONST>
1

>  <SCORE.INTER.POLAR>
0

>  <SCORE.INTER.ROT>
14

>  <SCORE.INTER.SOLV>
10.7495

>  <SCORE.INTER.VDW>
-13.5321

>  <SCORE.INTER.norm>
0.124351

>  <SCORE.INTRA>
1.75227

>  <SCORE.INTRA.DIHEDRAL>
-8.87378

>  <SCORE.INTRA.DIHEDRAL.0>
26.3805

>  <SCORE.INTRA.POLAR>
0

>  <SCORE.INTRA.POLAR.0>
0

>  <SCORE.INTRA.REPUL>
0

>  <SCORE.INTRA.REPUL.0>
0

>  <SCORE.INTRA.SOLV>
14.9463

>  <SCORE.INTRA.SOLV.lig_0>
-98.5587

>  <SCORE.INTRA.VDW>
-1.284

>  <SCORE.INTRA.VDW.0>
-2.91167

>  <SCORE.INTRA.norm>
0.0486742

>  <SCORE.RESTR>
4.52402

>  <SCORE.RESTR.CAVITY>
4.52402

>  <SCORE.RESTR.norm>
0.125667

>  <SCORE.SYSTEM>
0

>  <SCORE.SYSTEM.CONST>
0

>  <SCORE.SYSTEM.DIHEDRAL>
0

>  <SCORE.SYSTEM.SOLV>
0

>  <SCORE.SYSTEM.norm>
0

>  <SCORE.heavy>
36

>  <SCORE.norm>
0.298692

>  <RMSD>
27.463

$$$$
2f4u_lig
 OpenBabel11021811433D
libRbt.so/2013.1/901 2013/11/27
 36 37  0  0  0  0  0  0  0  0999 V2000
   18.6240   24.3344    9.7483 C   0  0  2  0  0  0  0  0  0  0  0  0
   18.7225   25.8009    9.6158 O   0  0  0  0  0  0  0  0  0  0  0  0
   22.5688   26.4158    7.6863 C   0  0  2  0  0  0  0  0  0  0  0  0
   23.6322   27.0573    6.8662 N   0  0  0  0  0  0  0  0  0  0  0  0
   17.9946   24.0521   11.1477 C   0  0  2  0  0  0  0  0  0  0  0  0
   16.6679   24.6747   11.3101 N   0  0  0  0  0  0  0  0  0  0  0  0
   21.2824   26.1160    6.8387 C   0  0  0  0  0  0  0  0  0  0  0  0
   24.2327   25.9448    5.6056 C   0  0  0  0  0  0  0  0  0  0  0  0
   25.2386   27.0199    5.3370 C   0  0  1  0  0  0  0  0  0  0  0  0
   26.6252   26.3700    5.4038 C   0  0  0  0  0  0  0  0  0  0  0  0
   27.1024   25.9497    6.8063 C   0  0  0  0  0  0  0  0  0  0  0  0
   26.4493   24.6884    7.1619 N   0  0  0  0  0  0  0  0  0  0  0  0
   25.0708   27.5302    4.0425 O   0  0  0  0  0  0  0  0  0  0  0  0
   24.5951   27.3665   10.3057 C   0  0  0  0  0  0  0  0  0  0  0  0
   24.6844   28.4052   11.4138 C   0  0  0  0  0  0  0  0  0  0  0  0
   18.9709   24.5724   12.2544 C   0  0  1  0  0  0  0  0  0  0  0  0
   23.6369   28.2784   12.4471 N   0  0  0  0  0  0  0  0  0  0  0  0
   18.4354   24.3474   13.5559 O   0  0  0  0  0  0  0  0  0  0  0  0
   20.1673   25.5025    7.7097 C   0  0  2  0  0  0  0  0  0  0  0  0
   18.9575   25.2663    6.9320 N   0  0  0  0  0  0  0  0  0  0  0  0
   21.5448   29.4887   13.0453 C   0  0  0  0  0  0  0  0  0  0  0  0
   20.9002   28.5265   14.0878 C   0  0  0  0  0  0  0  0  0  0  0  0
   23.0949   29.4993   13.0974 C   0  0  0  0  0  0  0  0  0  0  0  0
   21.2204   27.0964   13.7984 N   0  0  0  0  0  0  0  0  0  0  0  0
   23.9970   24.9475    5.2721 O   0  0  0  0  0  0  0  0  0  0  0  0
   20.3269   23.8614   12.0728 C   0  0  2  0  0  0  0  0  0  0  0  0
   21.2938   24.2767   13.0342 O   0  0  0  0  0  0  0  0  0  0  0  0
   19.8215   26.4312    8.8565 C   0  0  2  0  0  0  0  0  0  0  0  0
   20.8860   24.0992   10.6585 C   0  0  2  0  0  0  0  0  0  0  0  0
   19.9363   23.7103    9.6601 O   0  0  0  0  0  0  0  0  0  0  0  0
   21.1080   26.6962    9.7393 C   0  0  2  0  0  0  0  0  0  0  0  0
   20.7500   27.6077   10.8251 O   0  0  0  0  0  0  0  0  0  0  0  0
   22.1697   23.3469   10.4297 C   0  0  0  0  0  0  0  0  0  0  0  0
   22.6087   23.5248    9.1371 O   0  0  0  0  0  0  0  0  0  0  0  0
   22.2164   27.3373    8.8373 C   0  0  1  0  0  0  0  0  0  0  0  0
   23.3861   27.6049    9.5546 O   0  0  0  0  0  0  0  0  0  0  0  0
  1  2  1  1  0  0  0
  1  5  1  0  0  0  0
  1 30  1  0  0  0  0
  3  4  1  6  0  0  0
  3  7  1  0  0  0  0
  3 35  1  0  0  0  0
  5  6  1  6  0  0  0
  5 16  1  0  0  0  0
  7 19  1  0  0  0  0
  8  4  1  0  0  0  0
  8 25  2  0  0  0  0
  9  8  1  6  0  0  0
  9 10  1  0  0  0  0
  9 13  1  0  0  0  0
 10 11  1  0  0  0  0
 11 12  1  0  0  0  0
 14 15  1  0  0  0  0
 14 36  1  0  0  0  0
 15 17  1  0  0  0  0
 16 18  1  1  0  0  0
 16 26  1  0  0  0  0
 17 23  1  0  0  0  0
 19 20  1  6  0  0  0
 19 28  1  0  0  0  0
 21 22  1  0  0  0  0
 21 23  1  0  0  0  0
 22 24  1  0  0  0  0
 26 27  1  1  0  0  0
 26 29  1  0  0  0  0
 28  2  1  1  0  0  0
 28 31  1  0  0  0  0
 29 30  1  0  0  0  0
 29 33  1  6  0  0  0
 31 32  1  1  0  0  0
 31 35  1  0  0  0  0
 33 34  1  0  0  0  0
 35 36  1  1  0  0  0
M  END
>  <CHROM.1>
147.37436933,-65.56564816,126.50038060,-70.98760047,78.76289065,66.51751490
-140.81833063,-145.81556960,129.19528749,-65.86626473,76.60996511,33.48090784
176.95695092,-54.91773574,21.91954344,26.04153206,9.57632332,2.46714826,0.53899998
1.13715039

>  <Name>
2f4u_lig

>  <RI>
0

>  <Rbt.Current_Directory>
/home/itssahil/PROJECTS/Mol_Feturizer/New_Systems/rnas/2f4u

>  <Rbt.Executable>
rbdock ($Id: //depot/dev/client3/rdock/2013.1/src/exe/rbdock.cxx#4 $)

>  <Rbt.Library>
libRbt.so (2013.1, Build901 2013/11/27)

>  <Rbt.Parameter_File>
/export/apps/rDock/src/rDock_2013.1_src/data/scripts/dock_solv.prm

>  <Rbt.Receptor>
prm/blind_docking_40.prm

>  <SCORE>
5.81449

>  <SCORE.INTER>
1.0598

>  <SCORE.INTER.CONST>
1

>  <SCORE.INTER.POLAR>
0

>  <SCORE.INTER.ROT>
14

>  <SCORE.INTER.SOLV>
8.14603

>  <SCORE.INTER.VDW>
-14.9421

>  <SCORE.INTER.norm>
0.0294389

>  <SCORE.INTRA>
1.07832

>  <SCORE.INTRA.DIHEDRAL>
-6.71621

>  <SCORE.INTRA.DIHEDRAL.0>
26.3805

>  <SCORE.INTRA.POLAR>
0

>  <SCORE.INTRA.POLAR.0>
0

>  <SCORE.INTRA.REPUL>
0

>  <SCORE.INTRA.REPUL.0>
0

>  <SCORE.INTRA.SOLV>
12.3564

>  <SCORE.INTRA.SOLV.lig_0>
-98.5587

>  <SCORE.INTRA.VDW>
-1.74179

>  <SCORE.INTRA.VDW.0>
-2.91167

>  <SCORE.INTRA.norm>
0.0299533

>  <SCORE.RESTR>
3.67637

>  <SCORE.RESTR.CAVITY>
3.67637

>  <SCORE.RESTR.norm>
0.102121

>  <SCORE.SYSTEM>
0

>  <SCORE.SYSTEM.CONST>
0

>  <SCORE.SYSTEM.DIHEDRAL>
0

>  <SCORE.SYSTEM.SOLV>
0

>  <SCORE.SYSTEM.norm>
0

>  <SCORE.heavy>
36

>  <SCORE.norm>
0.161514

>  <RMSD>
27.468

$$$$
2f4u_lig
 OpenBabel11021811433D
libRbt.so/2013.1/901 2013/11/27
 36 37  0  0  0  0  0  0  0  0999 V2000
   23.4247   28.9927   11.6949 C   0  0  2  0  0  0  0  0  0  0  0  0
   23.8512   27.6001   11.9326 O   0  0  0  0  0  0  0  0  0  0  0  0
   23.6423   25.7873    7.9873 C   0  0  2  0  0  0  0  0  0  0  0  0
   23.9189   24.8482    6.8664 N   0  0  0  0  0  0  0  0  0  0  0  0
   22.7397   29.4819   13.0086 C   0  0  2  0  0  0  0  0  0  0  0  0
   23.6355   29.4095   14.1775 N   0  0  0  0  0  0  0  0  0  0  0  0
   24.9454   26.5172    8.4692 C   0  0  0  0  0  0  0  0  0  0  0  0
   23.7889   25.6728    5.2882 C   0  0  0  0  0  0  0  0  0  0  0  0
   23.9801   24.3027    4.7171 C   0  0  1  0  0  0  0  0  0  0  0  0
   22.6071   23.6214    4.7046 C   0  0  0  0  0  0  0  0  0  0  0  0
   21.4475   24.4590    4.1346 C   0  0  0  0  0  0  0  0  0  0  0  0
   21.1636   25.5546    5.0636 N   0  0  0  0  0  0  0  0  0  0  0  0
   24.4246   24.3867    3.3906 O   0  0  0  0  0  0  0  0  0  0  0  0
   20.6884   23.5644    8.6901 C   0  0  0  0  0  0  0  0  0  0  0  0
   19.5981   24.3774    9.3721 C   0  0  0  0  0  0  0  0  0  0  0  0
   21.4578   28.6205   13.2604 C   0  0  1  0  0  0  0  0  0  0  0  0
   19.6915   24.3976   10.8458 N   0  0  0  0  0  0  0  0  0  0  0  0
   20.7991   29.0219   14.4589 O   0  0  0  0  0  0  0  0  0  0  0  0
   24.6579   27.4459    9.6664 C   0  0  2  0  0  0  0  0  0  0  0  0
   25.8763   28.0887   10.1424 N   0  0  0  0  0  0  0  0  0  0  0  0
   18.4937   24.0515   13.0011 C   0  0  0  0  0  0  0  0  0  0  0  0
   19.7880   24.2568   13.8442 C   0  0  0  0  0  0  0  0  0  0  0  0
   18.5143   24.8144   11.6508 C   0  0  0  0  0  0  0  0  0  0  0  0
   20.9696   23.5868   13.2227 N   0  0  0  0  0  0  0  0  0  0  0  0
   23.5953   26.6773    4.9493 O   0  0  0  0  0  0  0  0  0  0  0  0
   20.5334   28.7638   12.0348 C   0  0  2  0  0  0  0  0  0  0  0  0
   19.3342   28.0042   12.1640 O   0  0  0  0  0  0  0  0  0  0  0  0
   24.0566   26.6583   10.8133 C   0  0  2  0  0  0  0  0  0  0  0  0
   21.2620   28.3425   10.7459 C   0  0  2  0  0  0  0  0  0  0  0  0
   22.4840   29.0715   10.5866 O   0  0  0  0  0  0  0  0  0  0  0  0
   22.7170   25.9604   10.3412 C   0  0  2  0  0  0  0  0  0  0  0  0
   22.1696   25.1945   11.4601 O   0  0  0  0  0  0  0  0  0  0  0  0
   20.4067   28.5518    9.5249 C   0  0  0  0  0  0  0  0  0  0  0  0
   19.3401   27.6815    9.5287 O   0  0  0  0  0  0  0  0  0  0  0  0
   23.0394   25.0086    9.1398 C   0  0  1  0  0  0  0  0  0  0  0  0
   21.8982   24.3509    8.6713 O   0  0  0  0  0  0  0  0  0  0  0  0
  1  2  1  1  0  0  0
  1  5  1  0  0  0  0
  1 30  1  0  0  0  0
  3  4  1  6  0  0  0
  3  7  1  0  0  0  0
  3 35  1  0  0  0  0
  5  6  1  1  0  0  0
  5 16  1  0  0  0  0
  7 19  1  0  0  0  0
  8  4  1  0  0  0  0
  8 25  2  0  0  0  0
  9  8  1  6  0  0  0
  9 10  1  0  0  0  0
  9 13  1  0  0  0  0
 10 11  1  0  0  0  0
 11 12  1  0  0  0  0
 14 15  1  0  0  0  0
 14 36  1  0  0  0  0
 15 17  1  0  0  0  0
 16 18  1  1  0  0  0
 16 26  1  0  0  0  0
 17 23  1  0  0  0  0
 19 20  1  1  0  0  0
 19 28  1  0  0  0  0
 21 22  1  0  0  0  0
 21 23  1  0  0  0  0
 22 24  1  0  0  0  0
 26 27  1  1  0  0  0
 26 29  1  0  0  0  0
 28  2  1  1  0  0  0
 28 31  1  0  0  0  0
 29 30  1  0  0  0  0
 29 33  1  6  0  0  0
 31 32  1  1  0  0  0
 31 35  1  0  0  0  0
 33 34  1  0  0  0  0
 35 36  1  6  0  0  0
M  END
>  <CHROM.1>
156.36733710,-88.90222366,83.66890969,47.42224320,-69.21614204,-78.22765075
70.34901720,-162.93925952,147.84827998,-69.43332976,57.45266908,36.92385891
-67.96307819,-173.73874101,22.05453290,26.31207936,9.71313001,-1.88639682
-0.66384166,-2.10662570

>  <Name>
2f4u_lig

>  <RI>
0

>  <Rbt.Current_Directory>
/home/itssahil/PROJECTS/Mol_Feturizer/New_Systems/rnas/2f4u

>  <Rbt.Executable>
rbdock ($Id: //depot/dev/client3/rdock/2013.1/src/exe/rbdock.cxx#4 $)

>  <Rbt.Library>
libRbt.so (2013.1, Build901 2013/11/27)

>  <Rbt.Parameter_File>
/export/apps/rDock/src/rDock_2013.1_src/data/scripts/dock_solv.prm

>  <Rbt.Receptor>
prm/blind_docking_60.prm

>  <SCORE>
-3.26828

>  <SCORE.INTER>
-4.99689

>  <SCORE.INTER.CONST>
1

>  <SCORE.INTER.POLAR>
-1.03923

>  <SCORE.INTER.ROT>
14

>  <SCORE.INTER.SOLV>
16.3331

>  <SCORE.INTER.VDW>
-18.2449

>  <SCORE.INTER.norm>
-0.138803

>  <SCORE.INTRA>
-2.03268

>  <SCORE.INTRA.DIHEDRAL>
-15.3865

>  <SCORE.INTRA.DIHEDRAL.0>
26.3805

>  <SCORE.INTRA.POLAR>
0

>  <SCORE.INTRA.POLAR.0>
0

>  <SCORE.INTRA.REPUL>
0

>  <SCORE.INTRA.REPUL.0>
0

>  <SCORE.INTRA.SOLV>
13.5271

>  <SCORE.INTRA.SOLV.lig_0>
-98.5587

>  <SCORE.INTRA.VDW>
-1.10298

>  <SCORE.INTRA.VDW.0>
-2.91167

>  <SCORE.INTRA.norm>
-0.0564633

>  <SCORE.RESTR>
3.76129

>  <SCORE.RESTR.CAVITY>
3.76129

>  <SCORE.RESTR.norm>
0.10448

>  <SCORE.SYSTEM>
0

>  <SCORE.SYSTEM.CONST>
0

>  <SCORE.SYSTEM.DIHEDRAL>
0

>  <SCORE.SYSTEM.SOLV>
0

>  <SCORE.SYSTEM.norm>
0

>  <SCORE.heavy>
36

>  <SCORE.norm>
-0.0907857

>  <RMSD>
27.501

$$$$
2f4u_lig
 OpenBabel11021811433D
libRbt.so/2013.1/901 2013/11/27
 36 37  0  0  0  0  0  0  0  0999 V2000
   22.0801   24.3053    6.1068 C   0  0  2  0  0  0  0  0  0  0  0  0
   23.1782   24.7476    6.9880 O   0  0  0  0  0  0  0  0  0  0  0  0
   23.6473   25.2819   11.2763 C   0  0  2  0  0  0  0  0  0  0  0  0
   23.3899   25.7703   12.6583 N   0  0  0  0  0  0  0  0  0  0  0  0
   22.1725   25.1664    4.8091 C   0  0  2  0  0  0  0  0  0  0  0  0
   23.4711   25.0255    4.1249 N   0  0  0  0  0  0  0  0  0  0  0  0
   23.9227   26.4656   10.2833 C   0  0  0  0  0  0  0  0  0  0  0  0
   21.9134   26.7717   12.7232 C   0  0  0  0  0  0  0  0  0  0  0  0
   22.3177   27.0231   14.1420 C   0  0  1  0  0  0  0  0  0  0  0  0
   22.1366   28.5221   14.4060 C   0  0  0  0  0  0  0  0  0  0  0  0
   22.7936   29.4678   13.3836 C   0  0  0  0  0  0  0  0  0  0  0  0
   22.2877   30.8229   13.6103 N   0  0  0  0  0  0  0  0  0  0  0  0
   21.4703   26.3321   15.0188 O   0  0  0  0  0  0  0  0  0  0  0  0
   21.5250   22.3941   12.4086 C   0  0  0  0  0  0  0  0  0  0  0  0
   20.4062   22.9976   13.2446 C   0  0  0  0  0  0  0  0  0  0  0  0
   21.9206   26.6658    5.1792 C   0  0  1  0  0  0  0  0  0  0  0  0
   19.9863   24.3451   12.8100 N   0  0  0  0  0  0  0  0  0  0  0  0
   22.0053   27.4987    4.0257 O   0  0  0  0  0  0  0  0  0  0  0  0
   24.1333   25.9528    8.8441 C   0  0  2  0  0  0  0  0  0  0  0  0
   24.3439   27.0555    7.9146 N   0  0  0  0  0  0  0  0  0  0  0  0
   18.6362   25.9190   11.4315 C   0  0  0  0  0  0  0  0  0  0  0  0
   17.3625   26.1345   10.5601 C   0  0  0  0  0  0  0  0  0  0  0  0
   18.6969   24.5169   12.0920 C   0  0  0  0  0  0  0  0  0  0  0  0
   17.4535   27.3792    9.7391 N   0  0  0  0  0  0  0  0  0  0  0  0
   21.1517   27.0801   12.0260 O   0  0  0  0  0  0  0  0  0  0  0  0
   20.5355   26.7700    5.8484 C   0  0  2  0  0  0  0  0  0  0  0  0
   20.2146   28.1043    6.2334 O   0  0  0  0  0  0  0  0  0  0  0  0
   22.9234   25.1657    8.3816 C   0  0  2  0  0  0  0  0  0  0  0  0
   20.4523   25.8541    7.0827 C   0  0  2  0  0  0  0  0  0  0  0  0
   20.7853   24.5038    6.7420 O   0  0  0  0  0  0  0  0  0  0  0  0
   22.6734   23.9439    9.3558 C   0  0  2  0  0  0  0  0  0  0  0  0
   21.4920   23.2145    8.8970 O   0  0  0  0  0  0  0  0  0  0  0  0
   19.0819   25.8760    7.7053 C   0  0  0  0  0  0  0  0  0  0  0  0
   18.9137   24.7932    8.5386 O   0  0  0  0  0  0  0  0  0  0  0  0
   22.4423   24.4920   10.8047 C   0  0  1  0  0  0  0  0  0  0  0  0
   22.2088   23.4642   11.7230 O   0  0  0  0  0  0  0  0  0  0  0  0
  1  2  1  1  0  0  0
  1  5  1  0  0  0  0
  1 30  1  0  0  0  0
  3  4  1  1  0  0  0
  3  7  1  0  0  0  0
  3 35  1  0  0  0  0
  5  6  1  1  0  0  0
  5 16  1  0  0  0  0
  7 19  1  0  0  0  0
  8  4  1  0  0  0  0
  8 25  2  0  0  0  0
  9  8  1  6  0  0  0
  9 10  1  0  0  0  0
  9 13  1  0  0  0  0
 10 11  1  0  0  0  0
 11 12  1  0  0  0  0
 14 15  1  0  0  0  0
 14 36  1  0  0  0  0
 15 17  1  0  0  0  0
 16 18  1  6  0  0  0
 16 26  1  0  0  0  0
 17 23  1  0  0  0  0
 19 20  1  6  0  0  0
 19 28  1  0  0  0  0
 21 22  1  0  0  0  0
 21 23  1  0  0  0  0
 22 24  1  0  0  0  0
 26 27  1  1  0  0  0
 26 29  1  0  0  0  0
 28  2  1  6  0  0  0
 28 31  1  0  0  0  0
 29 30  1  0  0  0  0
 29 33  1  6  0  0  0
 31 32  1  6  0  0  0
 31 35  1  0  0  0  0
 33 34  1  0  0  0  0
 35 36  1  1  0  0  0
M  END
>  <CHROM.1>
126.73882671,63.34891256,135.69610460,-51.10885846,167.79102262,20.54949416
-71.93822081,105.81756363,-165.77043726,-169.28000234,175.28991886,-162.35610240
162.61986460,165.90108242,21.47627787,25.82086689,9.74265015,1.51466575,-0.74612349
-1.69692888

>  <Name>
2f4u_lig

>  <RI>
0

>  <Rbt.Current_Directory>
/home/itssahil/PROJECTS/Mol_Feturizer/New_Systems/rnas/2f4u

>  <Rbt.Executable>
rbdock ($Id: //depot/dev/client3/rdock/2013.1/src/exe/rbdock.cxx#4 $)

>  <Rbt.Library>
libRbt.so (2013.1, Build901 2013/11/27)

>  <Rbt.Parameter_File>
/export/apps/rDock/src/rDock_2013.1_src/data/scripts/dock_solv.prm

>  <Rbt.Receptor>
prm/blind_docking_60.prm

>  <SCORE>
2.07333

>  <SCORE.INTER>
1.26417

>  <SCORE.INTER.CONST>
1

>  <SCORE.INTER.POLAR>
-1

>  <SCORE.INTER.ROT>
14

>  <SCORE.INTER.SOLV>
18.4114

>  <SCORE.INTER.VDW>
-14.8943

>  <SCORE.INTER.norm>
0.035116

>  <SCORE.INTRA>
-1.9462

>  <SCORE.INTRA.DIHEDRAL>
-6.61782

>  <SCORE.INTRA.DIHEDRAL.0>
26.3805

>  <SCORE.INTRA.POLAR>
0

>  <SCORE.INTRA.POLAR.0>
0

>  <SCORE.INTRA.REPUL>
0

>  <SCORE.INTRA.REPUL.0>
0

>  <SCORE.INTRA.SOLV>
8.15034

>  <SCORE.INTRA.SOLV.lig_0>
-98.5587

>  <SCORE.INTRA.VDW>
-2.71247

>  <SCORE.INTRA.VDW.0>
-2.91167

>  <SCORE.INTRA.norm>
-0.0540612

>  <SCORE.RESTR>
2.75536

>  <SCORE.RESTR.CAVITY>
2.75536

>  <SCORE.RESTR.norm>
0.0765378

>  <SCORE.SYSTEM>
0

>  <SCORE.SYSTEM.CONST>
0

>  <SCORE.SYSTEM.DIHEDRAL>
0

>  <SCORE.SYSTEM.SOLV>
0

>  <SCORE.SYSTEM.norm>
0

>  <SCORE.heavy>
36

>  <SCORE.norm>
0.0575926

>  <RMSD>
27.504

$$$$
2f4u_lig
 OpenBabel11021811433D
libRbt.so/2013.1/901 2013/11/27
 36 37  0  0  0  0  0  0  0  0999 V2000
   21.5124   24.0232    5.8699 C   0  0  2  0  0  0  0  0  0  0  0  0
   22.5997   24.3951    6.7958 O   0  0  0  0  0  0  0  0  0  0  0  0
   22.9231   27.0094   10.2536 C   0  0  2  0  0  0  0  0  0  0  0  0
   22.8557   28.2451   11.0802 N   0  0  0  0  0  0  0  0  0  0  0  0
   22.0913   24.1466    4.4263 C   0  0  2  0  0  0  0  0  0  0  0  0
   23.2689   23.2857    4.2109 N   0  0  0  0  0  0  0  0  0  0  0  0
   23.8756   27.1871    9.0189 C   0  0  0  0  0  0  0  0  0  0  0  0
   23.9833   28.1583   12.4617 C   0  0  0  0  0  0  0  0  0  0  0  0
   23.3445   29.4453   12.8805 C   0  0  1  0  0  0  0  0  0  0  0  0
   21.9725   29.0995   13.4699 C   0  0  0  0  0  0  0  0  0  0  0  0
   20.8865   30.1811   13.3217 C   0  0  0  0  0  0  0  0  0  0  0  0
   21.3988   31.4348   13.8781 N   0  0  0  0  0  0  0  0  0  0  0  0
   24.0992   30.0562   13.8913 O   0  0  0  0  0  0  0  0  0  0  0  0
   19.5467   26.1970   11.6908 C   0  0  0  0  0  0  0  0  0  0  0  0
   20.0147   25.8932   13.1062 C   0  0  0  0  0  0  0  0  0  0  0  0
   22.4636   25.6426    4.1579 C   0  0  1  0  0  0  0  0  0  0  0  0
   21.2518   25.0894   13.1744 N   0  0  0  0  0  0  0  0  0  0  0  0
   23.0092   25.8075    2.8516 O   0  0  0  0  0  0  0  0  0  0  0  0
   23.8953   25.9206    8.1390 C   0  0  2  0  0  0  0  0  0  0  0  0
   24.7444   26.1023    6.9685 N   0  0  0  0  0  0  0  0  0  0  0  0
   21.3999   23.0156   11.8043 C   0  0  0  0  0  0  0  0  0  0  0  0
   22.8623   23.1975   11.2978 C   0  0  0  0  0  0  0  0  0  0  0  0
   21.1631   23.6069   13.2185 C   0  0  0  0  0  0  0  0  0  0  0  0
   23.0969   22.4851   10.0060 N   0  0  0  0  0  0  0  0  0  0  0  0
   24.7167   27.4567   12.8239 O   0  0  0  0  0  0  0  0  0  0  0  0
   21.1941   26.4962    4.3499 C   0  0  2  0  0  0  0  0  0  0  0  0
   21.4329   27.8850    4.1351 O   0  0  0  0  0  0  0  0  0  0  0  0
   22.4956   25.5858    7.6637 C   0  0  2  0  0  0  0  0  0  0  0  0
   20.6066   26.2965    5.7586 C   0  0  2  0  0  0  0  0  0  0  0  0
   20.3675   24.9096    6.0220 O   0  0  0  0  0  0  0  0  0  0  0  0
   21.5454   25.3598    8.9089 C   0  0  2  0  0  0  0  0  0  0  0  0
   20.2004   25.0571    8.4216 O   0  0  0  0  0  0  0  0  0  0  0  0
   19.3201   27.0564    5.9419 C   0  0  0  0  0  0  0  0  0  0  0  0
   18.9088   26.9982    7.2544 O   0  0  0  0  0  0  0  0  0  0  0  0
   21.5268   26.6655    9.7738 C   0  0  1  0  0  0  0  0  0  0  0  0
   20.6998   26.5405   10.8940 O   0  0  0  0  0  0  0  0  0  0  0  0
  1  2  1  1  0  0  0
  1  5  1  0  0  0  0
  1 30  1  0  0  0  0
  3  4  1  6  0  0  0
  3  7  1  0  0  0  0
  3 35  1  0  0  0  0
  5  6  1  1  0  0  0
  5 16  1  0  0  0  0
  7 19  1  0  0  0  0
  8  4  1  0  0  0  0
  8 25  2  0  0  0  0
  9  8  1  1  0  0  0
  9 10  1  0  0  0  0
  9 13  1  0  0  0  0
 10 11  1  0  0  0  0
 11 12  1  0  0  0  0
 14 15  1  0  0  0  0
 14 36  1  0  0  0  0
 15 17  1  0  0  0  0
 16 18  1  6  0  0  0
 16 26  1  0  0  0  0
 17 23  1  0  0  0  0
 19 20  1  6  0  0  0
 19 28  1  0  0  0  0
 21 22  1  0  0  0  0
 21 23  1  0  0  0  0
 22 24  1  0  0  0  0
 26 27  1  1  0  0  0
 26 29  1  0  0  0  0
 28  2  1  1  0  0  0
 28 31  1  0  0  0  0
 29 30  1  0  0  0  0
 29 33  1  6  0  0  0
 31 32  1  6  0  0  0
 31 35  1  0  0  0  0
 33 34  1  0  0  0  0
 35 36  1  1  0  0  0
M  END
>  <CHROM.1>
115.84698537,-96.44953682,76.07911995,-150.62550274,-54.22073224,-42.00826744
149.17575388,-90.44084429,98.67746355,173.54948415,68.34840955,-162.60197506
-172.36370941,-165.93512624,21.96121282,26.28347821,9.15175021,2.17045280
-1.49141951,-1.29842598

>  <Name>
2f4u_lig

>  <RI>
0

>  <Rbt.Current_Directory>
/home/itssahil/PROJECTS/Mol_Feturizer/New_Systems/rnas/2f4u

>  <Rbt.Executable>
rbdock ($Id: //depot/dev/client3/rdock/2013.1/src/exe/rbdock.cxx#4 $)

>  <Rbt.Library>
libRbt.so (2013.1, Build901 2013/11/27)

>  <Rbt.Parameter_File>
/export/apps/rDock/src/rDock_2013.1_src/data/scripts/dock_solv.prm

>  <Rbt.Receptor>
prm/blind_docking_60.prm

>  <SCORE>
3.16833

>  <SCORE.INTER>
-3.21019

>  <SCORE.INTER.CONST>
1

>  <SCORE.INTER.POLAR>
-2.24729

>  <SCORE.INTER.ROT>
14

>  <SCORE.INTER.SOLV>
19.6752

>  <SCORE.INTER.VDW>
-14.1409

>  <SCORE.INTER.norm>
-0.0891719

>  <SCORE.INTRA>
-0.641475

>  <SCORE.INTRA.DIHEDRAL>
-5.36113

>  <SCORE.INTRA.DIHEDRAL.0>
26.3805

>  <SCORE.INTRA.POLAR>
0

>  <SCORE.INTRA.POLAR.0>
0

>  <SCORE.INTRA.REPUL>
0

>  <SCORE.INTRA.REPUL.0>
0

>  <SCORE.INTRA.SOLV>
7.47809

>  <SCORE.INTRA.SOLV.lig_0>
-98.5587

>  <SCORE.INTRA.VDW>
-1.69996

>  <SCORE.INTRA.VDW.0>
-2.91167

>  <SCORE.INTRA.norm>
-0.0178187

>  <SCORE.RESTR>
7.02

>  <SCORE.RESTR.CAVITY>
7.02

>  <SCORE.RESTR.norm>
0.195

>  <SCORE.SYSTEM>
0

>  <SCORE.SYSTEM.CONST>
0

>  <SCORE.SYSTEM.DIHEDRAL>
0

>  <SCORE.SYSTEM.SOLV>
0

>  <SCORE.SYSTEM.norm>
0

>  <SCORE.heavy>
36

>  <SCORE.norm>
0.0880093

>  <RMSD>
27.520

$$$$
2f4u_lig
 OpenBabel11021811433D
libRbt.so/2013.1/901 2013/11/27
 36 37  0  0  0  0  0  0  0  0999 V2000
   22.3280   24.2249    5.7958 C   0  0  2  0  0  0  0  0  0  0  0  0
   22.9138   24.6017    7.0968 O   0  0  0  0  0  0  0  0  0  0  0  0
   21.5492   26.9399   10.4977 C   0  0  2  0  0  0  0  0  0  0  0  0
   21.0360   28.0973   11.2799 N   0  0  0  0  0  0  0  0  0  0  0  0
   23.5166   24.0706    4.7970 C   0  0  2  0  0  0  0  0  0  0  0  0
   24.4974   23.0596    5.2329 N   0  0  0  0  0  0  0  0  0  0  0  0
   22.9040   27.2776    9.7809 C   0  0  0  0  0  0  0  0  0  0  0  0
   22.3732   29.1362   11.8457 C   0  0  0  0  0  0  0  0  0  0  0  0
   21.3003   29.8686   12.5889 C   0  0  1  0  0  0  0  0  0  0  0  0
   20.9015   28.9968   13.7849 C   0  0  0  0  0  0  0  0  0  0  0  0
   22.0649   28.3815   14.5843 C   0  0  0  0  0  0  0  0  0  0  0  0
   21.6415   27.0751   15.0924 N   0  0  0  0  0  0  0  0  0  0  0  0
   21.7969   31.0786   13.0923 O   0  0  0  0  0  0  0  0  0  0  0  0
   18.3472   25.5873   10.9512 C   0  0  0  0  0  0  0  0  0  0  0  0
   19.0419   25.1239   12.2230 C   0  0  0  0  0  0  0  0  0  0  0  0
   24.2168   25.4596    4.6272 C   0  0  1  0  0  0  0  0  0  0  0  0
   20.1755   24.2058   11.9923 N   0  0  0  0  0  0  0  0  0  0  0  0
   25.3203   25.3700    3.7296 O   0  0  0  0  0  0  0  0  0  0  0  0
   23.3987   26.0910    8.9290 C   0  0  2  0  0  0  0  0  0  0  0  0
   24.6330   26.4210    8.2276 N   0  0  0  0  0  0  0  0  0  0  0  0
   22.2839   23.0708   12.6753 C   0  0  0  0  0  0  0  0  0  0  0  0
   22.1119   21.8591   11.7107 C   0  0  0  0  0  0  0  0  0  0  0  0
   20.9354   23.6712   13.1517 C   0  0  0  0  0  0  0  0  0  0  0  0
   21.8044   22.2968   10.3160 N   0  0  0  0  0  0  0  0  0  0  0  0
   23.4450   29.1530   11.7354 O   0  0  0  0  0  0  0  0  0  0  0  0
   23.1653   26.4706    4.1275 C   0  0  2  0  0  0  0  0  0  0  0  0
   23.7063   27.7772    3.9491 O   0  0  0  0  0  0  0  0  0  0  0  0
   22.3544   25.7086    7.8992 C   0  0  2  0  0  0  0  0  0  0  0  0
   21.9723   26.5458    5.0974 C   0  0  2  0  0  0  0  0  0  0  0  0
   21.4090   25.2480    5.3182 O   0  0  0  0  0  0  0  0  0  0  0  0
   21.0019   25.3221    8.6241 C   0  0  2  0  0  0  0  0  0  0  0  0
   20.0092   24.9758    7.6078 O   0  0  0  0  0  0  0  0  0  0  0  0
   20.8942   27.4652    4.5891 C   0  0  0  0  0  0  0  0  0  0  0  0
   19.9805   27.7325    5.5835 O   0  0  0  0  0  0  0  0  0  0  0  0
   20.5107   26.5490    9.4648 C   0  0  1  0  0  0  0  0  0  0  0  0
   19.3120   26.2810   10.1323 O   0  0  0  0  0  0  0  0  0  0  0  0
  1  2  1  1  0  0  0
  1  5  1  0  0  0  0
  1 30  1  0  0  0  0
  3  4  1  6  0  0  0
  3  7  1  0  0  0  0
  3 35  1  0  0  0  0
  5  6  1  1  0  0  0
  5 16  1  0  0  0  0
  7 19  1  0  0  0  0
  8  4  1  0  0  0  0
  8 25  2  0  0  0  0
  9  8  1  1  0  0  0
  9 10  1  0  0  0  0
  9 13  1  0  0  0  0
 10 11  1  0  0  0  0
 11 12  1  0  0  0  0
 14 15  1  0  0  0  0
 14 36  1  0  0  0  0
 15 17  1  0  0  0  0
 16 18  1  6  0  0  0
 16 26  1  0  0  0  0
 17 23  1  0  0  0  0
 19 20  1  6  0  0  0
 19 28  1  0  0  0  0
 21 22  1  0  0  0  0
 21 23  1  0  0  0  0
 22 24  1  0  0  0  0
 26 27  1  1  0  0  0
 26 29  1  0  0  0  0
 28  2  1  1  0  0  0
 28 31  1  0  0  0  0
 29 30  1  0  0  0  0
 29 33  1  6  0  0  0
 31 32  1  6  0  0  0
 31 35  1  0  0  0  0
 33 34  1  0  0  0  0
 35 36  1  1  0  0  0
M  END
>  <CHROM.1>
133.28719774,-28.59316878,74.72664206,44.97721883,-146.89397038,-60.06211301
46.48325893,-179.60458389,-164.31443454,79.66697903,-62.68736540,-163.58711412
-167.46116081,-73.21273375,21.90484326,26.16010951,9.08551956,0.55562330
-1.30573179,-2.78060150

>  <Name>
2f4u_lig

>  <RI>
0

>  <Rbt.Current_Directory>
/home/itssahil/PROJECTS/Mol_Feturizer/New_Systems/rnas/2f4u

>  <Rbt.Executable>
rbdock ($Id: //depot/dev/client3/rdock/2013.1/src/exe/rbdock.cxx#4 $)

>  <Rbt.Library>
libRbt.so (2013.1, Build901 2013/11/27)

>  <Rbt.Parameter_File>
/export/apps/rDock/src/rDock_2013.1_src/data/scripts/dock_solv.prm

>  <Rbt.Receptor>
prm/blind_docking_60.prm

>  <SCORE>
4.56905

>  <SCORE.INTER>
-0.392256

>  <SCORE.INTER.CONST>
1

>  <SCORE.INTER.POLAR>
-1

>  <SCORE.INTER.ROT>
14

>  <SCORE.INTER.SOLV>
21.4806

>  <SCORE.INTER.VDW>
-17.0217

>  <SCORE.INTER.norm>
-0.010896

>  <SCORE.INTRA>
-0.868855

>  <SCORE.INTRA.DIHEDRAL>
-9.2136

>  <SCORE.INTRA.DIHEDRAL.0>
26.3805

>  <SCORE.INTRA.POLAR>
0

>  <SCORE.INTRA.POLAR.0>
0

>  <SCORE.INTRA.REPUL>
0

>  <SCORE.INTRA.REPUL.0>
0

>  <SCORE.INTRA.SOLV>
7.69214

>  <SCORE.INTRA.SOLV.lig_0>
-98.5587

>  <SCORE.INTRA.VDW>
-0.108123

>  <SCORE.INTRA.VDW.0>
-2.91167

>  <SCORE.INTRA.norm>
-0.0241349

>  <SCORE.RESTR>
5.83017

>  <SCORE.RESTR.CAVITY>
5.83017

>  <SCORE.RESTR.norm>
0.161949

>  <SCORE.SYSTEM>
0

>  <SCORE.SYSTEM.CONST>
0

>  <SCORE.SYSTEM.DIHEDRAL>
0

>  <SCORE.SYSTEM.SOLV>
0

>  <SCORE.SYSTEM.norm>
0

>  <SCORE.heavy>
36

>  <SCORE.norm>
0.126918

>  <RMSD>
27.522

$$$$
2f4u_lig
 OpenBabel11021811433D
libRbt.so/2013.1/901 2013/11/27
 36 37  0  0  0  0  0  0  0  0999 V2000
   23.3186   28.6061   11.7560 C   0  0  2  0  0  0  0  0  0  0  0  0
   23.8225   27.2227   11.6537 O   0  0  0  0  0  0  0  0  0  0  0  0
   22.6206   26.0396    7.6473 C   0  0  2  0  0  0  0  0  0  0  0  0
   22.5764   25.2725    6.3728 N   0  0  0  0  0  0  0  0  0  0  0  0
   23.2781   28.9569   13.2757 C   0  0  2  0  0  0  0  0  0  0  0  0
   24.5987   28.8401   13.9212 N   0  0  0  0  0  0  0  0  0  0  0  0
   24.0456   26.6403    7.9152 C   0  0  0  0  0  0  0  0  0  0  0  0
   24.0938   24.3686    6.1120 C   0  0  0  0  0  0  0  0  0  0  0  0
   23.5008   24.0381    4.7783 C   0  0  1  0  0  0  0  0  0  0  0  0
   23.9791   25.1093    3.7918 C   0  0  0  0  0  0  0  0  0  0  0  0
   23.5736   26.5571    4.1245 C   0  0  0  0  0  0  0  0  0  0  0  0
   22.1207   26.6053    4.2999 N   0  0  0  0  0  0  0  0  0  0  0  0
   23.9794   22.8007    4.3266 O   0  0  0  0  0  0  0  0  0  0  0  0
   19.5635   24.5277    8.2107 C   0  0  0  0  0  0  0  0  0  0  0  0
   18.8060   25.1262    9.3866 C   0  0  0  0  0  0  0  0  0  0  0  0
   22.2491   28.0146   13.9841 C   0  0  1  0  0  0  0  0  0  0  0  0
   19.0315   24.4290   10.6688 N   0  0  0  0  0  0  0  0  0  0  0  0
   22.1824   28.2882   15.3812 O   0  0  0  0  0  0  0  0  0  0  0  0
   24.0953   27.3859    9.2644 C   0  0  2  0  0  0  0  0  0  0  0  0
   25.4305   27.9045    9.5338 N   0  0  0  0  0  0  0  0  0  0  0  0
   18.4133   23.7995   12.9972 C   0  0  0  0  0  0  0  0  0  0  0  0
   19.8841   23.4525   13.3773 C   0  0  0  0  0  0  0  0  0  0  0  0
   18.3051   24.8756   11.8855 C   0  0  0  0  0  0  0  0  0  0  0  0
   20.6048   24.6304   13.9468 N   0  0  0  0  0  0  0  0  0  0  0  0
   25.0106   24.2146    6.6570 O   0  0  0  0  0  0  0  0  0  0  0  0
   20.8771   28.2049   13.3069 C   0  0  2  0  0  0  0  0  0  0  0  0
   19.8670   27.3775   13.8787 O   0  0  0  0  0  0  0  0  0  0  0  0
   23.7092   26.4553   10.3967 C   0  0  2  0  0  0  0  0  0  0  0  0
   20.9668   27.9219   11.7965 C   0  0  2  0  0  0  0  0  0  0  0  0
   21.9846   28.7222   11.1850 O   0  0  0  0  0  0  0  0  0  0  0  0
   22.2531   25.8861   10.1510 C   0  0  2  0  0  0  0  0  0  0  0  0
   21.9148   24.9792   11.2470 O   0  0  0  0  0  0  0  0  0  0  0  0
   19.6581   28.1810   11.0992 C   0  0  0  0  0  0  0  0  0  0  0  0
   19.8032   28.0474    9.7368 O   0  0  0  0  0  0  0  0  0  0  0  0
   22.2348   25.1170    8.7867 C   0  0  1  0  0  0  0  0  0  0  0  0
   20.9754   24.5798    8.5047 O   0  0  0  0  0  0  0  0  0  0  0  0
  1  2  1  1  0  0  0
  1  5  1  0  0  0  0
  1 30  1  0  0  0  0
  3  4  1  6  0  0  0
  3  7  1  0  0  0  0
  3 35  1  0  0  0  0
  5  6  1  1  0  0  0
  5 16  1  0  0  0  0
  7 19  1  0  0  0  0
  8  4  1  0  0  0  0
  8 25  2  0  0  0  0
  9  8  1  1  0  0  0
  9 10  1  0  0  0  0
  9 13  1  0  0  0  0
 10 11  1  0  0  0  0
 11 12  1  0  0  0  0
 14 15  1  0  0  0  0
 14 36  1  0  0  0  0
 15 17  1  0  0  0  0
 16 18  1  1  0  0  0
 16 26  1  0  0  0  0
 17 23  1  0  0  0  0
 19 20  1  1  0  0  0
 19 28  1  0  0  0  0
 21 22  1  0  0  0  0
 21 23  1  0  0  0  0
 22 24  1  0  0  0  0
 26 27  1  1  0  0  0
 26 29  1  0  0  0  0
 28  2  1  1  0  0  0
 28 31  1  0  0  0  0
 29 30  1  0  0  0  0
 29 33  1  6  0  0  0
 31 32  1  1  0  0  0
 31 35  1  0  0  0  0
 33 34  1  0  0  0  0
 35 36  1  6  0  0  0
M  END
>  <CHROM.1>
166.14052982,37.57134160,92.01428190,-60.40347524,-53.92904814,-59.59113249
-62.46392519,-177.34933660,165.55917763,62.95350872,57.39807503,43.53771756
174.08290113,-58.58702737,22.02010324,26.19163685,9.88740455,-1.90317939
-0.58812584,-2.02627437

>  <Name>
2f4u_lig

>  <RI>
0

>  <Rbt.Current_Directory>
/home/itssahil/PROJECTS/Mol_Feturizer/New_Systems/rnas/2f4u

>  <Rbt.Executable>
rbdock ($Id: //depot/dev/client3/rdock/2013.1/src/exe/rbdock.cxx#4 $)

>  <Rbt.Library>
libRbt.so (2013.1, Build901 2013/11/27)

>  <Rbt.Parameter_File>
/export/apps/rDock/src/rDock_2013.1_src/data/scripts/dock_solv.prm

>  <Rbt.Receptor>
prm/blind_docking_60.prm

>  <SCORE>
-2.28351

>  <SCORE.INTER>
-0.82049

>  <SCORE.INTER.CONST>
1

>  <SCORE.INTER.POLAR>
-1.03923

>  <SCORE.INTER.ROT>
14

>  <SCORE.INTER.SOLV>
20.6299

>  <SCORE.INTER.VDW>
-16.8929

>  <SCORE.INTER.norm>
-0.0227914

>  <SCORE.INTRA>
-6.24098

>  <SCORE.INTRA.DIHEDRAL>
-21.4652

>  <SCORE.INTRA.DIHEDRAL.0>
26.3805

>  <SCORE.INTRA.POLAR>
0

>  <SCORE.INTRA.POLAR.0>
0

>  <SCORE.INTRA.REPUL>
0

>  <SCORE.INTRA.REPUL.0>
0

>  <SCORE.INTRA.SOLV>
13.5474

>  <SCORE.INTRA.SOLV.lig_0>
-98.5587

>  <SCORE.INTRA.VDW>
-2.28206

>  <SCORE.INTRA.VDW.0>
-2.91167

>  <SCORE.INTRA.norm>
-0.17336

>  <SCORE.RESTR>
4.77796

>  <SCORE.RESTR.CAVITY>
4.77796

>  <SCORE.RESTR.norm>
0.132721

>  <SCORE.SYSTEM>
0

>  <SCORE.SYSTEM.CONST>
0

>  <SCORE.SYSTEM.DIHEDRAL>
0

>  <SCORE.SYSTEM.SOLV>
0

>  <SCORE.SYSTEM.norm>
0

>  <SCORE.heavy>
36

>  <SCORE.norm>
-0.0634307

>  <RMSD>
27.525

$$$$
2f4u_lig
 OpenBabel11021811433D
libRbt.so/2013.1/901 2013/11/27
 36 37  0  0  0  0  0  0  0  0999 V2000
   23.2288   29.5916   12.8335 C   0  0  2  0  0  0  0  0  0  0  0  0
   24.2776   28.5606   12.9551 O   0  0  0  0  0  0  0  0  0  0  0  0
   23.7458   26.1662    9.3663 C   0  0  2  0  0  0  0  0  0  0  0  0
   24.0613   25.2281    8.2549 N   0  0  0  0  0  0  0  0  0  0  0  0
   22.3137   29.4501   14.0891 C   0  0  2  0  0  0  0  0  0  0  0  0
   23.0543   29.6147   15.3535 N   0  0  0  0  0  0  0  0  0  0  0  0
   24.7068   27.4069    9.3703 C   0  0  0  0  0  0  0  0  0  0  0  0
   24.4189   26.1136    6.7464 C   0  0  0  0  0  0  0  0  0  0  0  0
   24.4569   24.7529    6.1246 C   0  0  1  0  0  0  0  0  0  0  0  0
   23.0421   24.4448    5.6218 C   0  0  0  0  0  0  0  0  0  0  0  0
   22.4894   25.3988    4.5468 C   0  0  0  0  0  0  0  0  0  0  0  0
   21.1015   25.0277    4.2638 N   0  0  0  0  0  0  0  0  0  0  0  0
   25.3123   24.7495    5.0143 O   0  0  0  0  0  0  0  0  0  0  0  0
   21.9810   23.3888   11.0202 C   0  0  0  0  0  0  0  0  0  0  0  0
   21.4836   22.6784    9.7701 C   0  0  0  0  0  0  0  0  0  0  0  0
   21.6193   28.0483   14.0523 C   0  0  1  0  0  0  0  0  0  0  0  0
   20.7837   23.5586    8.8128 N   0  0  0  0  0  0  0  0  0  0  0  0
   20.7776   27.8643   15.1876 O   0  0  0  0  0  0  0  0  0  0  0  0
   24.4074   28.3443   10.5579 C   0  0  2  0  0  0  0  0  0  0  0  0
   25.3294   29.4727   10.5874 N   0  0  0  0  0  0  0  0  0  0  0  0
   19.1812   24.8109   10.2494 C   0  0  0  0  0  0  0  0  0  0  0  0
   17.7803   24.8126    9.5668 C   0  0  0  0  0  0  0  0  0  0  0  0
   20.3547   24.9152    9.2406 C   0  0  0  0  0  0  0  0  0  0  0  0
   17.4657   26.1335    8.9444 N   0  0  0  0  0  0  0  0  0  0  0  0
   24.4953   27.1472    6.4509 O   0  0  0  0  0  0  0  0  0  0  0  0
   20.8221   27.9407   12.7370 C   0  0  2  0  0  0  0  0  0  0  0  0
   20.1559   26.6876   12.6037 O   0  0  0  0  0  0  0  0  0  0  0  0
   24.5331   27.5933   11.8684 C   0  0  2  0  0  0  0  0  0  0  0  0
   21.7396   28.1571   11.5201 C   0  0  2  0  0  0  0  0  0  0  0  0
   22.4426   29.4002   11.6232 O   0  0  0  0  0  0  0  0  0  0  0  0
   23.5299   26.3694   11.8841 C   0  0  2  0  0  0  0  0  0  0  0  0
   23.6856   25.6538   13.1497 O   0  0  0  0  0  0  0  0  0  0  0  0
   20.9689   28.1387   10.2271 C   0  0  0  0  0  0  0  0  0  0  0  0
   20.8603   29.4109    9.7126 O   0  0  0  0  0  0  0  0  0  0  0  0
   23.8680   25.4236   10.6823 C   0  0  1  0  0  0  0  0  0  0  0  0
   23.0211   24.3123   10.6355 O   0  0  0  0  0  0  0  0  0  0  0  0
  1  2  1  1  0  0  0
  1  5  1  0  0  0  0
  1 30  1  0  0  0  0
  3  4  1  6  0  0  0
  3  7  1  0  0  0  0
  3 35  1  0  0  0  0
  5  6  1  1  0  0  0
  5 16  1  0  0  0  0
  7 19  1  0  0  0  0
  8  4  1  0  0  0  0
  8 25  2  0  0  0  0
  9  8  1  6  0  0  0
  9 10  1  0  0  0  0
  9 13  1  0  0  0  0
 10 11  1  0  0  0  0
 11 12  1  0  0  0  0
 14 15  1  0  0  0  0
 14 36  1  0  0  0  0
 15 17  1  0  0  0  0
 16 18  1  1  0  0  0
 16 26  1  0  0  0  0
 17 23  1  0  0  0  0
 19 20  1  1  0  0  0
 19 28  1  0  0  0  0
 21 22  1  0  0  0  0
 21 23  1  0  0  0  0
 22 24  1  0  0  0  0
 26 27  1  6  0  0  0
 26 29  1  0  0  0  0
 28  2  1  1  0  0  0
 28 31  1  0  0  0  0
 29 30  1  0  0  0  0
 29 33  1  6  0  0  0
 31 32  1  1  0  0  0
 31 35  1  0  0  0  0
 33 34  1  0  0  0  0
 35 36  1  6  0  0  0
M  END
>  <CHROM.1>
126.33532804,-41.75744991,91.24157754,61.43073355,-175.44646828,-66.75264144
154.80254213,-13.60449838,-70.43075196,-68.06033059,-89.89196059,39.33198957
106.57756605,-125.80115699,22.41999621,26.57775201,10.16516189,-1.64199417
-0.43624492,-2.06257903

>  <Name>
2f4u_lig

>  <RI>
0

>  <Rbt.Current_Directory>
/home/itssahil/PROJECTS/Mol_Feturizer/New_Systems/rnas/2f4u

>  <Rbt.Executable>
rbdock ($Id: //depot/dev/client3/rdock/2013.1/src/exe/rbdock.cxx#4 $)

>  <Rbt.Library>
libRbt.so (2013.1, Build901 2013/11/27)

>  <Rbt.Parameter_File>
/export/apps/rDock/src/rDock_2013.1_src/data/scripts/dock_solv.prm

>  <Rbt.Receptor>
prm/blind_docking_60.prm

>  <SCORE>
16.4444

>  <SCORE.INTER>
-0.567158

>  <SCORE.INTER.CONST>
1

>  <SCORE.INTER.POLAR>
-0.387246

>  <SCORE.INTER.ROT>
14

>  <SCORE.INTER.SOLV>
19.3338

>  <SCORE.INTER.VDW>
-18.4652

>  <SCORE.INTER.norm>
-0.0157544

>  <SCORE.INTRA>
13.395

>  <SCORE.INTRA.DIHEDRAL>
3.32884

>  <SCORE.INTRA.DIHEDRAL.0>
26.3805

>  <SCORE.INTRA.POLAR>
0

>  <SCORE.INTRA.POLAR.0>
0

>  <SCORE.INTRA.REPUL>
0.0239004

>  <SCORE.INTRA.REPUL.0>
0

>  <SCORE.INTRA.SOLV>
5.398

>  <SCORE.INTRA.SOLV.lig_0>
-98.5587

>  <SCORE.INTRA.VDW>
8.91205

>  <SCORE.INTRA.VDW.0>
-2.91167

>  <SCORE.INTRA.norm>
0.372082

>  <SCORE.RESTR>
3.6166

>  <SCORE.RESTR.CAVITY>
3.6166

>  <SCORE.RESTR.norm>
0.100461

>  <SCORE.SYSTEM>
0

>  <SCORE.SYSTEM.CONST>
0

>  <SCORE.SYSTEM.DIHEDRAL>
0

>  <SCORE.SYSTEM.SOLV>
0

>  <SCORE.SYSTEM.norm>
0

>  <SCORE.heavy>
36

>  <SCORE.norm>
0.456789

>  <RMSD>
27.557

$$$$
2f4u_lig
 OpenBabel11021811433D
libRbt.so/2013.1/901 2013/11/27
 36 37  0  0  0  0  0  0  0  0999 V2000
   20.2879   28.5238   11.7048 C   0  0  2  0  0  0  0  0  0  0  0  0
   21.1137   29.0049   10.5803 O   0  0  0  0  0  0  0  0  0  0  0  0
   22.1940   25.3185    8.5459 C   0  0  2  0  0  0  0  0  0  0  0  0
   22.7976   24.4068    7.5363 N   0  0  0  0  0  0  0  0  0  0  0  0
   20.0752   29.7409   12.6575 C   0  0  2  0  0  0  0  0  0  0  0  0
   19.4205   30.8794   11.9872 N   0  0  0  0  0  0  0  0  0  0  0  0
   21.2011   26.3398    7.8869 C   0  0  0  0  0  0  0  0  0  0  0  0
   23.9170   25.2880    6.4602 C   0  0  0  0  0  0  0  0  0  0  0  0
   23.9916   23.9934    5.7131 C   0  0  1  0  0  0  0  0  0  0  0  0
   23.8200   24.3184    4.2251 C   0  0  0  0  0  0  0  0  0  0  0  0
   22.4128   24.7727    3.7954 C   0  0  0  0  0  0  0  0  0  0  0  0
   21.4237   23.9563    4.5018 N   0  0  0  0  0  0  0  0  0  0  0  0
   25.2551   23.4095    5.8773 O   0  0  0  0  0  0  0  0  0  0  0  0
   24.8114   23.8625   10.0668 C   0  0  0  0  0  0  0  0  0  0  0  0
   23.7575   22.9125   10.6160 C   0  0  0  0  0  0  0  0  0  0  0  0
   21.4628   30.1814   13.2312 C   0  0  1  0  0  0  0  0  0  0  0  0
   23.0225   23.4357   11.7852 N   0  0  0  0  0  0  0  0  0  0  0  0
   21.3242   31.3010   14.1021 O   0  0  0  0  0  0  0  0  0  0  0  0
   20.6237   27.3151    8.9328 C   0  0  2  0  0  0  0  0  0  0  0  0
   19.7368   28.2918    8.3132 N   0  0  0  0  0  0  0  0  0  0  0  0
   21.0112   23.2978   13.2465 C   0  0  0  0  0  0  0  0  0  0  0  0
   19.4559   23.2692   13.3387 C   0  0  0  0  0  0  0  0  0  0  0  0
   21.5370   23.4083   11.7915 C   0  0  0  0  0  0  0  0  0  0  0  0
   18.8315   24.3822   12.5624 N   0  0  0  0  0  0  0  0  0  0  0  0
   24.2864   26.2972    6.3808 O   0  0  0  0  0  0  0  0  0  0  0  0
   22.0869   28.9747   13.9604 C   0  0  2  0  0  0  0  0  0  0  0  0
   23.3657   29.2737   14.5143 O   0  0  0  0  0  0  0  0  0  0  0  0
   21.7416   28.0635    9.6309 C   0  0  2  0  0  0  0  0  0  0  0  0
   22.2161   27.7682   13.0132 C   0  0  2  0  0  0  0  0  0  0  0  0
   20.9535   27.4448   12.4205 O   0  0  0  0  0  0  0  0  0  0  0  0
   22.7171   27.0360   10.3358 C   0  0  2  0  0  0  0  0  0  0  0  0
   23.7937   27.7833   10.9844 O   0  0  0  0  0  0  0  0  0  0  0  0
   22.7467   26.5520   13.7243 C   0  0  0  0  0  0  0  0  0  0  0  0
   21.9297   26.2164   14.7801 O   0  0  0  0  0  0  0  0  0  0  0  0
   23.3050   26.0716    9.2507 C   0  0  1  0  0  0  0  0  0  0  0  0
   24.1839   25.1349    9.8026 O   0  0  0  0  0  0  0  0  0  0  0  0
  1  2  1  6  0  0  0
  1  5  1  0  0  0  0
  1 30  1  0  0  0  0
  3  4  1  6  0  0  0
  3  7  1  0  0  0  0
  3 35  1  0  0  0  0
  5  6  1  6  0  0  0
  5 16  1  0  0  0  0
  7 19  1  0  0  0  0
  8  4  1  0  0  0  0
  8 25  2  0  0  0  0
  9  8  1  1  0  0  0
  9 10  1  0  0  0  0
  9 13  1  0  0  0  0
 10 11  1  0  0  0  0
 11 12  1  0  0  0  0
 14 15  1  0  0  0  0
 14 36  1  0  0  0  0
 15 17  1  0  0  0  0
 16 18  1  1  0  0  0
 16 26  1  0  0  0  0
 17 23  1  0  0  0  0
 19 20  1  6  0  0  0
 19 28  1  0  0  0  0
 21 22  1  0  0  0  0
 21 23  1  0  0  0  0
 22 24  1  0  0  0  0
 26 27  1  6  0  0  0
 26 29  1  0  0  0  0
 28  2  1  1  0  0  0
 28 31  1  0  0  0  0
 29 30  1  0  0  0  0
 29 33  1  1  0  0  0
 31 32  1  6  0  0  0
 31 35  1  0  0  0  0
 33 34  1  0  0  0  0
 35 36  1  1  0  0  0
M  END
>  <CHROM.1>
167.31733126,68.94405573,132.92256584,-70.26492992,-40.41903139,-53.67160781
-59.31533805,129.38498651,151.31869860,-50.14973384,179.76220148,62.44650101
57.98579277,12.30784241,22.15947199,26.35178011,10.26419788,2.69212380,-1.29011693
2.15887832

>  <Name>
2f4u_lig

>  <RI>
0

>  <Rbt.Current_Directory>
/home/itssahil/PROJECTS/Mol_Feturizer/New_Systems/rnas/2f4u

>  <Rbt.Executable>
rbdock ($Id: //depot/dev/client3/rdock/2013.1/src/exe/rbdock.cxx#4 $)

>  <Rbt.Library>
libRbt.so (2013.1, Build901 2013/11/27)

>  <Rbt.Parameter_File>
/export/apps/rDock/src/rDock_2013.1_src/data/scripts/dock_solv.prm

>  <Rbt.Receptor>
prm/blind_docking_60.prm

>  <SCORE>
0.644726

>  <SCORE.INTER>
-0.019364

>  <SCORE.INTER.CONST>
1

>  <SCORE.INTER.POLAR>
-1.00331

>  <SCORE.INTER.ROT>
14

>  <SCORE.INTER.SOLV>
20.0036

>  <SCORE.INTER.VDW>
-16.2698

>  <SCORE.INTER.norm>
-0.000537888

>  <SCORE.INTRA>
-4.23303

>  <SCORE.INTRA.DIHEDRAL>
-12.9291

>  <SCORE.INTRA.DIHEDRAL.0>
26.3805

>  <SCORE.INTRA.POLAR>
0

>  <SCORE.INTRA.POLAR.0>
0

>  <SCORE.INTRA.REPUL>
0

>  <SCORE.INTRA.REPUL.0>
0

>  <SCORE.INTRA.SOLV>
7.34409

>  <SCORE.INTRA.SOLV.lig_0>
-98.5587

>  <SCORE.INTRA.VDW>
-1.44053

>  <SCORE.INTRA.VDW.0>
-2.91167

>  <SCORE.INTRA.norm>
-0.117584

>  <SCORE.RESTR>
4.89712

>  <SCORE.RESTR.CAVITY>
4.89712

>  <SCORE.RESTR.norm>
0.136031

>  <SCORE.SYSTEM>
0

>  <SCORE.SYSTEM.CONST>
0

>  <SCORE.SYSTEM.DIHEDRAL>
0

>  <SCORE.SYSTEM.SOLV>
0

>  <SCORE.SYSTEM.norm>
0

>  <SCORE.heavy>
36

>  <SCORE.norm>
0.017909

>  <RMSD>
27.579

$$$$
2f4u_lig
 OpenBabel11021811433D
libRbt.so/2013.1/901 2013/11/27
 36 37  0  0  0  0  0  0  0  0999 V2000
   21.6998   23.0067   12.3779 C   0  0  2  0  0  0  0  0  0  0  0  0
   20.7236   23.1719   11.2835 O   0  0  0  0  0  0  0  0  0  0  0  0
   22.6972   25.8667    8.5017 C   0  0  2  0  0  0  0  0  0  0  0  0
   23.0689   26.5197    7.2172 N   0  0  0  0  0  0  0  0  0  0  0  0
   20.8896   23.0453   13.7107 C   0  0  2  0  0  0  0  0  0  0  0  0
   19.8566   21.9952   13.7783 N   0  0  0  0  0  0  0  0  0  0  0  0
   22.9964   24.3263    8.4787 C   0  0  0  0  0  0  0  0  0  0  0  0
   22.3361   25.6715    5.8276 C   0  0  0  0  0  0  0  0  0  0  0  0
   23.1557   26.6135    5.0026 C   0  0  1  0  0  0  0  0  0  0  0  0
   24.1276   25.7640    4.1761 C   0  0  0  0  0  0  0  0  0  0  0  0
   25.0817   24.8619    4.9807 C   0  0  0  0  0  0  0  0  0  0  0  0
   24.3125   23.7443    5.5314 N   0  0  0  0  0  0  0  0  0  0  0  0
   22.3366   27.3141    4.1067 O   0  0  0  0  0  0  0  0  0  0  0  0
   21.0159   28.8525    9.1640 C   0  0  0  0  0  0  0  0  0  0  0  0
   20.6479   28.9145   10.6389 C   0  0  0  0  0  0  0  0  0  0  0  0
   20.2308   24.4568   13.8602 C   0  0  1  0  0  0  0  0  0  0  0  0
   21.4988   29.8204   11.4366 N   0  0  0  0  0  0  0  0  0  0  0  0
   19.4675   24.5405   15.0609 O   0  0  0  0  0  0  0  0  0  0  0  0
   22.5567   23.6499    9.7932 C   0  0  2  0  0  0  0  0  0  0  0  0
   22.7931   22.2122    9.7537 N   0  0  0  0  0  0  0  0  0  0  0  0
   23.1734   29.3579   13.2204 C   0  0  0  0  0  0  0  0  0  0  0  0
   22.0379   29.9915   14.0791 C   0  0  0  0  0  0  0  0  0  0  0  0
   22.9168   29.4594   11.6941 C   0  0  0  0  0  0  0  0  0  0  0  0
   20.7203   29.3319   13.8340 N   0  0  0  0  0  0  0  0  0  0  0  0
   21.6720   24.8341    5.6899 O   0  0  0  0  0  0  0  0  0  0  0  0
   21.3507   25.5161   13.8300 C   0  0  2  0  0  0  0  0  0  0  0  0
   20.8486   26.8446   13.9511 O   0  0  0  0  0  0  0  0  0  0  0  0
   21.0791   23.8822   10.0381 C   0  0  2  0  0  0  0  0  0  0  0  0
   22.1769   25.4042   12.5359 C   0  0  2  0  0  0  0  0  0  0  0  0
   22.6866   24.0769   12.3667 O   0  0  0  0  0  0  0  0  0  0  0  0
   20.7844   25.4355   10.1088 C   0  0  2  0  0  0  0  0  0  0  0  0
   19.3517   25.6298   10.3272 O   0  0  0  0  0  0  0  0  0  0  0  0
   23.3279   26.3742   12.5205 C   0  0  0  0  0  0  0  0  0  0  0  0
   23.9456   26.3695   11.2902 O   0  0  0  0  0  0  0  0  0  0  0  0
   21.2201   26.0944    8.7563 C   0  0  1  0  0  0  0  0  0  0  0  0
   20.9835   27.4721    8.7443 O   0  0  0  0  0  0  0  0  0  0  0  0
  1  2  1  6  0  0  0
  1  5  1  0  0  0  0
  1 30  1  0  0  0  0
  3  4  1  6  0  0  0
  3  7  1  0  0  0  0
  3 35  1  0  0  0  0
  5  6  1  6  0  0  0
  5 16  1  0  0  0  0
  7 19  1  0  0  0  0
  8  4  1  0  0  0  0
  8 25  2  0  0  0  0
  9  8  1  1  0  0  0
  9 10  1  0  0  0  0
  9 13  1  0  0  0  0
 10 11  1  0  0  0  0
 11 12  1  0  0  0  0
 14 15  1  0  0  0  0
 14 36  1  0  0  0  0
 15 17  1  0  0  0  0
 16 18  1  1  0  0  0
 16 26  1  0  0  0  0
 17 23  1  0  0  0  0
 19 20  1  6  0  0  0
 19 28  1  0  0  0  0
 21 22  1  0  0  0  0
 21 23  1  0  0  0  0
 22 24  1  0  0  0  0
 26 27  1  6  0  0  0
 26 29  1  0  0  0  0
 28  2  1  1  0  0  0
 28 31  1  0  0  0  0
 29 30  1  0  0  0  0
 29 33  1  1  0  0  0
 31 32  1  6  0  0  0
 31 35  1  0  0  0  0
 33 34  1  0  0  0  0
 35 36  1  1  0  0  0
M  END
>  <CHROM.1>
146.71108736,52.01728793,118.29465829,-58.73433766,72.85926858,136.46136555
-48.04646086,-69.70297998,-120.69024782,60.02650276,-14.53592431,31.33975451
-172.52151267,-68.72516626,21.92227775,25.85910355,10.22160550,2.87256412
1.30680225,0.23193676

>  <Name>
2f4u_lig

>  <RI>
0

>  <Rbt.Current_Directory>
/home/itssahil/PROJECTS/Mol_Feturizer/New_Systems/rnas/2f4u

>  <Rbt.Executable>
rbdock ($Id: //depot/dev/client3/rdock/2013.1/src/exe/rbdock.cxx#4 $)

>  <Rbt.Library>
libRbt.so (2013.1, Build901 2013/11/27)

>  <Rbt.Parameter_File>
/export/apps/rDock/src/rDock_2013.1_src/data/scripts/dock_solv.prm

>  <Rbt.Receptor>
prm/blind_docking_60.prm

>  <SCORE>
22.966

>  <SCORE.INTER>
13.6751

>  <SCORE.INTER.CONST>
1

>  <SCORE.INTER.POLAR>
0

>  <SCORE.INTER.ROT>
14

>  <SCORE.INTER.SOLV>
22.8925

>  <SCORE.INTER.VDW>
-11.4475

>  <SCORE.INTER.norm>
0.379863

>  <SCORE.INTRA>
6.42926

>  <SCORE.INTRA.DIHEDRAL>
-3.81896

>  <SCORE.INTRA.DIHEDRAL.0>
26.3805

>  <SCORE.INTRA.POLAR>
0

>  <SCORE.INTRA.POLAR.0>
0

>  <SCORE.INTRA.REPUL>
0

>  <SCORE.INTRA.REPUL.0>
0

>  <SCORE.INTRA.SOLV>
14.4169

>  <SCORE.INTRA.SOLV.lig_0>
-98.5587

>  <SCORE.INTRA.VDW>
1.13027

>  <SCORE.INTRA.VDW.0>
-2.91167

>  <SCORE.INTRA.norm>
0.178591

>  <SCORE.RESTR>
2.86171

>  <SCORE.RESTR.CAVITY>
2.86171

>  <SCORE.RESTR.norm>
0.0794919

>  <SCORE.SYSTEM>
0

>  <SCORE.SYSTEM.CONST>
0

>  <SCORE.SYSTEM.DIHEDRAL>
0

>  <SCORE.SYSTEM.SOLV>
0

>  <SCORE.SYSTEM.norm>
0

>  <SCORE.heavy>
36

>  <SCORE.norm>
0.637945

>  <RMSD>
27.588

$$$$
2f4u_lig
 OpenBabel11021811433D
libRbt.so/2013.1/901 2013/11/27
 36 37  0  0  0  0  0  0  0  0999 V2000
   23.4826   29.4106   12.1857 C   0  0  2  0  0  0  0  0  0  0  0  0
   24.1772   28.1323   12.4334 O   0  0  0  0  0  0  0  0  0  0  0  0
   23.7290   25.9338    8.7104 C   0  0  2  0  0  0  0  0  0  0  0  0
   24.0323   24.9852    7.6045 N   0  0  0  0  0  0  0  0  0  0  0  0
   22.5189   29.6380   13.3914 C   0  0  2  0  0  0  0  0  0  0  0  0
   23.2263   29.6778   14.6845 N   0  0  0  0  0  0  0  0  0  0  0  0
   24.8570   27.0123    8.8769 C   0  0  0  0  0  0  0  0  0  0  0  0
   23.7592   25.7441    6.0117 C   0  0  0  0  0  0  0  0  0  0  0  0
   24.0399   24.3771    5.4713 C   0  0  1  0  0  0  0  0  0  0  0  0
   22.9116   24.0369    4.4911 C   0  0  0  0  0  0  0  0  0  0  0  0
   21.4845   24.0850    5.0678 C   0  0  0  0  0  0  0  0  0  0  0  0
   20.5342   23.8461    3.9798 N   0  0  0  0  0  0  0  0  0  0  0  0
   25.2424   24.3764    4.7513 O   0  0  0  0  0  0  0  0  0  0  0  0
   21.2761   23.5856    9.7560 C   0  0  0  0  0  0  0  0  0  0  0  0
   20.3729   24.4848    8.9250 C   0  0  0  0  0  0  0  0  0  0  0  0
   21.4457   28.4993   13.4014 C   0  0  1  0  0  0  0  0  0  0  0  0
   18.9435   24.1168    8.9739 N   0  0  0  0  0  0  0  0  0  0  0  0
   20.5442   28.6555   14.4943 O   0  0  0  0  0  0  0  0  0  0  0  0
   24.5602   27.9559   10.0602 C   0  0  2  0  0  0  0  0  0  0  0  0
   25.6300   28.9288   10.2427 N   0  0  0  0  0  0  0  0  0  0  0  0
   17.8049   25.8404   10.3642 C   0  0  0  0  0  0  0  0  0  0  0  0
   18.3302   24.9276   11.5127 C   0  0  0  0  0  0  0  0  0  0  0  0
   17.9095   25.1838    8.9629 C   0  0  0  0  0  0  0  0  0  0  0  0
   17.4685   23.7226   11.7047 N   0  0  0  0  0  0  0  0  0  0  0  0
   23.4650   26.7173    5.6542 O   0  0  0  0  0  0  0  0  0  0  0  0
   20.7029   28.5263   12.0506 C   0  0  2  0  0  0  0  0  0  0  0  0
   19.7039   27.5139   11.9568 O   0  0  0  0  0  0  0  0  0  0  0  0
   24.4142   27.1635   11.3439 C   0  0  2  0  0  0  0  0  0  0  0  0
   21.6894   28.3728   10.8789 C   0  0  2  0  0  0  0  0  0  0  0  0
   22.7218   29.3626   10.9454 O   0  0  0  0  0  0  0  0  0  0  0  0
   23.2451   26.1076   11.1929 C   0  0  2  0  0  0  0  0  0  0  0  0
   23.1390   25.3467   12.4370 O   0  0  0  0  0  0  0  0  0  0  0  0
   20.9973   28.4789    9.5463 C   0  0  0  0  0  0  0  0  0  0  0  0
   20.1529   27.4086    9.3552 O   0  0  0  0  0  0  0  0  0  0  0  0
   23.5801   25.1501    9.9995 C   0  0  1  0  0  0  0  0  0  0  0  0
   22.5888   24.1830    9.8092 O   0  0  0  0  0  0  0  0  0  0  0  0
  1  2  1  1  0  0  0
  1  5  1  0  0  0  0
  1 30  1  0  0  0  0
  3  4  1  6  0  0  0
  3  7  1  0  0  0  0
  3 35  1  0  0  0  0
  5  6  1  1  0  0  0
  5 16  1  0  0  0  0
  7 19  1  0  0  0  0
  8  4  1  0  0  0  0
  8 25  2  0  0  0  0
  9  8  1  6  0  0  0
  9 10  1  0  0  0  0
  9 13  1  0  0  0  0
 10 11  1  0  0  0  0
 11 12  1  0  0  0  0
 14 15  1  0  0  0  0
 14 36  1  0  0  0  0
 15 17  1  0  0  0  0
 16 18  1  1  0  0  0
 16 26  1  0  0  0  0
 17 23  1  0  0  0  0
 19 20  1  1  0  0  0
 19 28  1  0  0  0  0
 21 22  1  0  0  0  0
 21 23  1  0  0  0  0
 22 24  1  0  0  0  0
 26 27  1  1  0  0  0
 26 29  1  0  0  0  0
 28  2  1  1  0  0  0
 28 31  1  0  0  0  0
 29 30  1  0  0  0  0
 29 33  1  6  0  0  0
 31 32  1  1  0  0  0
 31 35  1  0  0  0  0
 33 34  1  0  0  0  0
 35 36  1  6  0  0  0
M  END
>  <CHROM.1>
138.76738393,-75.20579298,130.43004706,-57.15254784,175.34431992,-170.19365081
51.17158461,143.70113488,-77.22325972,-66.94473266,-22.51323498,30.30183265
-66.96851654,-86.62528427,22.05883685,26.42728569,9.76432068,-1.66653505
-0.38672379,-2.11254965

>  <Name>
2f4u_lig

>  <RI>
0

>  <Rbt.Current_Directory>
/home/itssahil/PROJECTS/Mol_Feturizer/New_Systems/rnas/2f4u

>  <Rbt.Executable>
rbdock ($Id: //depot/dev/client3/rdock/2013.1/src/exe/rbdock.cxx#4 $)

>  <Rbt.Library>
libRbt.so (2013.1, Build901 2013/11/27)

>  <Rbt.Parameter_File>
/export/apps/rDock/src/rDock_2013.1_src/data/scripts/dock_solv.prm

>  <Rbt.Receptor>
prm/blind_docking_60.prm

>  <SCORE>
3.83375

>  <SCORE.INTER>
-2.2346

>  <SCORE.INTER.CONST>
1

>  <SCORE.INTER.POLAR>
-0.786796

>  <SCORE.INTER.ROT>
14

>  <SCORE.INTER.SOLV>
18.4687

>  <SCORE.INTER.VDW>
-17.9567

>  <SCORE.INTER.norm>
-0.0620722

>  <SCORE.INTRA>
2.76674

>  <SCORE.INTRA.DIHEDRAL>
-5.77337

>  <SCORE.INTRA.DIHEDRAL.0>
26.3805

>  <SCORE.INTRA.POLAR>
0

>  <SCORE.INTRA.POLAR.0>
0

>  <SCORE.INTRA.REPUL>
0

>  <SCORE.INTRA.REPUL.0>
0

>  <SCORE.INTRA.SOLV>
6.48322

>  <SCORE.INTRA.SOLV.lig_0>
-98.5587

>  <SCORE.INTRA.VDW>
2.41181

>  <SCORE.INTRA.VDW.0>
-2.91167

>  <SCORE.INTRA.norm>
0.0768539

>  <SCORE.RESTR>
3.30161

>  <SCORE.RESTR.CAVITY>
3.30161

>  <SCORE.RESTR.norm>
0.0917113

>  <SCORE.SYSTEM>
0

>  <SCORE.SYSTEM.CONST>
0

>  <SCORE.SYSTEM.DIHEDRAL>
0

>  <SCORE.SYSTEM.SOLV>
0

>  <SCORE.SYSTEM.norm>
0

>  <SCORE.heavy>
36

>  <SCORE.norm>
0.106493

>  <RMSD>
27.607

$$$$
2f4u_lig
 OpenBabel11021811433D
libRbt.so/2013.1/901 2013/11/27
 36 37  0  0  0  0  0  0  0  0999 V2000
   23.9127   26.7176    5.9995 C   0  0  2  0  0  0  0  0  0  0  0  0
   23.7718   27.2833    7.3552 O   0  0  0  0  0  0  0  0  0  0  0  0
   20.9785   26.9068   10.6645 C   0  0  2  0  0  0  0  0  0  0  0  0
   20.0007   26.2912   11.6024 N   0  0  0  0  0  0  0  0  0  0  0  0
   24.2598   25.2070    6.1781 C   0  0  2  0  0  0  0  0  0  0  0  0
   23.2309   24.4737    6.9383 N   0  0  0  0  0  0  0  0  0  0  0  0
   20.4783   26.8424    9.1783 C   0  0  0  0  0  0  0  0  0  0  0  0
   20.2267   24.5229   11.6995 C   0  0  0  0  0  0  0  0  0  0  0  0
   18.9891   24.5541   12.5404 C   0  0  1  0  0  0  0  0  0  0  0  0
   17.8175   24.1524   11.6375 C   0  0  0  0  0  0  0  0  0  0  0  0
   17.7613   24.8447   10.2631 C   0  0  0  0  0  0  0  0  0  0  0  0
   17.5591   26.2798   10.4724 N   0  0  0  0  0  0  0  0  0  0  0  0
   19.0765   23.6066   13.5695 O   0  0  0  0  0  0  0  0  0  0  0  0
   22.6219   26.1728   13.5654 C   0  0  0  0  0  0  0  0  0  0  0  0
   22.2275   27.5498   14.0783 C   0  0  0  0  0  0  0  0  0  0  0  0
   25.6446   25.0889    6.8970 C   0  0  1  0  0  0  0  0  0  0  0  0
   21.1137   28.1748   13.3369 N   0  0  0  0  0  0  0  0  0  0  0  0
   26.0037   23.7238    7.0945 O   0  0  0  0  0  0  0  0  0  0  0  0
   21.5226   27.4326    8.2090 C   0  0  2  0  0  0  0  0  0  0  0  0
   21.0772   27.3313    6.8250 N   0  0  0  0  0  0  0  0  0  0  0  0
   20.1941   30.1536   12.1374 C   0  0  0  0  0  0  0  0  0  0  0  0
   21.1769   30.5843   11.0073 C   0  0  0  0  0  0  0  0  0  0  0  0
   20.9132   29.6450   13.4141 C   0  0  0  0  0  0  0  0  0  0  0  0
   22.1194   29.4851   10.6402 N   0  0  0  0  0  0  0  0  0  0  0  0
   20.9083   23.8018   11.2790 O   0  0  0  0  0  0  0  0  0  0  0  0
   26.6942   25.8294    6.0442 C   0  0  2  0  0  0  0  0  0  0  0  0
   27.9960   25.7868    6.6230 O   0  0  0  0  0  0  0  0  0  0  0  0
   22.8404   26.6954    8.3395 C   0  0  2  0  0  0  0  0  0  0  0  0
   26.2864   27.2975    5.8254 C   0  0  2  0  0  0  0  0  0  0  0  0
   24.9739   27.3857    5.2599 O   0  0  0  0  0  0  0  0  0  0  0  0
   23.3692   26.8003    9.8275 C   0  0  2  0  0  0  0  0  0  0  0  0
   24.6298   26.0664    9.9283 O   0  0  0  0  0  0  0  0  0  0  0  0
   27.2541   28.0198    4.9265 C   0  0  0  0  0  0  0  0  0  0  0  0
   27.3205   27.4046    3.6967 O   0  0  0  0  0  0  0  0  0  0  0  0
   22.3011   26.1764   10.7883 C   0  0  1  0  0  0  0  0  0  0  0  0
   22.7045   26.2297   12.1258 O   0  0  0  0  0  0  0  0  0  0  0  0
  1  2  1  1  0  0  0
  1  5  1  0  0  0  0
  1 30  1  0  0  0  0
  3  4  1  1  0  0  0
  3  7  1  0  0  0  0
  3 35  1  0  0  0  0
  5  6  1  1  0  0  0
  5 16  1  0  0  0  0
  7 19  1  0  0  0  0
  8  4  1  0  0  0  0
  8 25  2  0  0  0  0
  9  8  1  6  0  0  0
  9 10  1  0  0  0  0
  9 13  1  0  0  0  0
 10 11  1  0  0  0  0
 11 12  1  0  0  0  0
 14 15  1  0  0  0  0
 14 36  1  0  0  0  0
 15 17  1  0  0  0  0
 16 18  1  6  0  0  0
 16 26  1  0  0  0  0
 17 23  1  0  0  0  0
 19 20  1  6  0  0  0
 19 28  1  0  0  0  0
 21 22  1  0  0  0  0
 21 23  1  0  0  0  0
 22 24  1  0  0  0  0
 26 27  1  1  0  0  0
 26 29  1  0  0  0  0
 28  2  1  6  0  0  0
 28 31  1  0  0  0  0
 29 30  1  0  0  0  0
 29 33  1  6  0  0  0
 31 32  1  6  0  0  0
 31 35  1  0  0  0  0
 33 34  1  0  0  0  0
 35 36  1  1  0  0  0
M  END
>  <CHROM.1>
-54.88552735,84.53664788,99.61630449,-46.60450050,-63.99122718,45.81373485
-87.74528689,-160.09436600,153.68061028,55.82156780,-90.97277485,-92.52047243
59.42725681,43.70400205,22.54741750,26.49957286,9.42815639,0.31390205,-0.75721381
-2.67817340

>  <Name>
2f4u_lig

>  <RI>
0

>  <Rbt.Current_Directory>
/home/itssahil/PROJECTS/Mol_Feturizer/New_Systems/rnas/2f4u

>  <Rbt.Executable>
rbdock ($Id: //depot/dev/client3/rdock/2013.1/src/exe/rbdock.cxx#4 $)

>  <Rbt.Library>
libRbt.so (2013.1, Build901 2013/11/27)

>  <Rbt.Parameter_File>
/export/apps/rDock/src/rDock_2013.1_src/data/scripts/dock_solv.prm

>  <Rbt.Receptor>
prm/blind_docking_40.prm

>  <SCORE>
8.7465

>  <SCORE.INTER>
1.17636

>  <SCORE.INTER.CONST>
1

>  <SCORE.INTER.POLAR>
0

>  <SCORE.INTER.ROT>
14

>  <SCORE.INTER.SOLV>
11.901

>  <SCORE.INTER.VDW>
-16.1161

>  <SCORE.INTER.norm>
0.0326767

>  <SCORE.INTRA>
2.87203

>  <SCORE.INTRA.DIHEDRAL>
-10.0559

>  <SCORE.INTRA.DIHEDRAL.0>
26.3805

>  <SCORE.INTRA.POLAR>
0

>  <SCORE.INTRA.POLAR.0>
0

>  <SCORE.INTRA.REPUL>
0

>  <SCORE.INTRA.REPUL.0>
0

>  <SCORE.INTRA.SOLV>
19.8825

>  <SCORE.INTRA.SOLV.lig_0>
-98.5587

>  <SCORE.INTRA.VDW>
-2.04127

>  <SCORE.INTRA.VDW.0>
-2.91167

>  <SCORE.INTRA.norm>
0.0797785

>  <SCORE.RESTR>
4.69811

>  <SCORE.RESTR.CAVITY>
4.69811

>  <SCORE.RESTR.norm>
0.130503

>  <SCORE.SYSTEM>
0

>  <SCORE.SYSTEM.CONST>
0

>  <SCORE.SYSTEM.DIHEDRAL>
0

>  <SCORE.SYSTEM.SOLV>
0

>  <SCORE.SYSTEM.norm>
0

>  <SCORE.heavy>
36

>  <SCORE.norm>
0.242958

>  <RMSD>
27.616

$$$$
2f4u_lig
 OpenBabel11021811433D
libRbt.so/2013.1/901 2013/11/27
 36 37  0  0  0  0  0  0  0  0999 V2000
   23.4723   29.8487   13.2161 C   0  0  2  0  0  0  0  0  0  0  0  0
   24.2166   28.5972   13.4560 O   0  0  0  0  0  0  0  0  0  0  0  0
   23.8178   26.4524    9.6963 C   0  0  2  0  0  0  0  0  0  0  0  0
   24.1136   25.4902    8.6002 N   0  0  0  0  0  0  0  0  0  0  0  0
   22.3868   29.9456   14.3325 C   0  0  2  0  0  0  0  0  0  0  0  0
   22.9648   29.9416   15.6889 N   0  0  0  0  0  0  0  0  0  0  0  0
   25.0071   27.4491    9.9315 C   0  0  0  0  0  0  0  0  0  0  0  0
   24.4594   26.3429    7.0702 C   0  0  0  0  0  0  0  0  0  0  0  0
   24.4806   24.9699    6.4753 C   0  0  1  0  0  0  0  0  0  0  0  0
   24.0507   25.1042    5.0101 C   0  0  0  0  0  0  0  0  0  0  0  0
   23.4983   23.8258    4.3529 C   0  0  0  0  0  0  0  0  0  0  0  0
   22.1690   23.5557    4.9042 N   0  0  0  0  0  0  0  0  0  0  0  0
   25.7835   24.4537    6.4899 O   0  0  0  0  0  0  0  0  0  0  0  0
   21.5983   23.6705   10.9063 C   0  0  0  0  0  0  0  0  0  0  0  0
   20.4737   23.7894    9.8886 C   0  0  0  0  0  0  0  0  0  0  0  0
   21.3885   28.7515   14.1708 C   0  0  1  0  0  0  0  0  0  0  0  0
   20.7810   24.6771    8.7490 N   0  0  0  0  0  0  0  0  0  0  0  0
   20.3798   28.7881   15.1771 O   0  0  0  0  0  0  0  0  0  0  0  0
   24.7133   28.4056   11.1052 C   0  0  2  0  0  0  0  0  0  0  0  0
   25.8365   29.3008   11.3525 N   0  0  0  0  0  0  0  0  0  0  0  0
   18.9164   24.5612    7.1029 C   0  0  0  0  0  0  0  0  0  0  0  0
   17.9482   23.6494    7.9150 C   0  0  0  0  0  0  0  0  0  0  0  0
   20.4136   24.2583    7.3717 C   0  0  0  0  0  0  0  0  0  0  0  0
   17.9859   22.2339    7.4392 N   0  0  0  0  0  0  0  0  0  0  0  0
   24.5396   27.3698    6.7533 O   0  0  0  0  0  0  0  0  0  0  0  0
   20.7766   28.8239   12.7574 C   0  0  2  0  0  0  0  0  0  0  0  0
   19.8543   27.7663   12.5074 O   0  0  0  0  0  0  0  0  0  0  0  0
   24.4441   27.6193   12.3726 C   0  0  2  0  0  0  0  0  0  0  0  0
   21.8771   28.7995   11.6814 C   0  0  2  0  0  0  0  0  0  0  0  0
   22.8366   29.8382   11.9064 O   0  0  0  0  0  0  0  0  0  0  0  0
   23.2145   26.6480   12.1508 C   0  0  2  0  0  0  0  0  0  0  0  0
   22.9894   25.8905   13.3812 O   0  0  0  0  0  0  0  0  0  0  0  0
   21.3091   28.9523   10.2957 C   0  0  0  0  0  0  0  0  0  0  0  0
   20.7700   30.2083   10.1316 O   0  0  0  0  0  0  0  0  0  0  0  0
   23.5460   25.6750   10.9690 C   0  0  1  0  0  0  0  0  0  0  0  0
   22.5017   24.7801   10.7181 O   0  0  0  0  0  0  0  0  0  0  0  0
  1  2  1  1  0  0  0
  1  5  1  0  0  0  0
  1 30  1  0  0  0  0
  3  4  1  6  0  0  0
  3  7  1  0  0  0  0
  3 35  1  0  0  0  0
  5  6  1  1  0  0  0
  5 16  1  0  0  0  0
  7 19  1  0  0  0  0
  8  4  1  0  0  0  0
  8 25  2  0  0  0  0
  9  8  1  6  0  0  0
  9 10  1  0  0  0  0
  9 13  1  0  0  0  0
 10 11  1  0  0  0  0
 11 12  1  0  0  0  0
 14 15  1  0  0  0  0
 14 36  1  0  0  0  0
 15 17  1  0  0  0  0
 16 18  1  1  0  0  0
 16 26  1  0  0  0  0
 17 23  1  0  0  0  0
 19 20  1  1  0  0  0
 19 28  1  0  0  0  0
 21 22  1  0  0  0  0
 21 23  1  0  0  0  0
 22 24  1  0  0  0  0
 26 27  1  6  0  0  0
 26 29  1  0  0  0  0
 28  2  1  1  0  0  0
 28 31  1  0  0  0  0
 29 30  1  0  0  0  0
 29 33  1  6  0  0  0
 31 32  1  1  0  0  0
 31 35  1  0  0  0  0
 33 34  1  0  0  0  0
 35 36  1  6  0  0  0
M  END
>  <CHROM.1>
129.80099861,-58.29257447,151.36384308,-158.03794583,72.25543827,18.28346253
168.92799977,136.83737646,81.54459515,-69.28112113,-69.60530190,38.21245813
66.88080485,166.48907827,22.47115274,26.68494115,10.18095041,-1.51790021
-0.38464236,-2.16042004

>  <Name>
2f4u_lig

>  <RI>
0

>  <Rbt.Current_Directory>
/home/itssahil/PROJECTS/Mol_Feturizer/New_Systems/rnas/2f4u

>  <Rbt.Executable>
rbdock ($Id: //depot/dev/client3/rdock/2013.1/src/exe/rbdock.cxx#4 $)

>  <Rbt.Library>
libRbt.so (2013.1, Build901 2013/11/27)

>  <Rbt.Parameter_File>
/export/apps/rDock/src/rDock_2013.1_src/data/scripts/dock_solv.prm

>  <Rbt.Receptor>
prm/blind_docking_100.prm

>  <SCORE>
10.7871

>  <SCORE.INTER>
2.19996

>  <SCORE.INTER.CONST>
1

>  <SCORE.INTER.POLAR>
-0.642907

>  <SCORE.INTER.ROT>
14

>  <SCORE.INTER.SOLV>
22.9975

>  <SCORE.INTER.VDW>
-16.9895

>  <SCORE.INTER.norm>
0.0611099

>  <SCORE.INTRA>
5.98824

>  <SCORE.INTRA.DIHEDRAL>
-6.03862

>  <SCORE.INTRA.DIHEDRAL.0>
26.3805

>  <SCORE.INTRA.POLAR>
0

>  <SCORE.INTRA.POLAR.0>
0

>  <SCORE.INTRA.REPUL>
0

>  <SCORE.INTRA.REPUL.0>
0

>  <SCORE.INTRA.SOLV>
7.89893

>  <SCORE.INTRA.SOLV.lig_0>
-98.5587

>  <SCORE.INTRA.VDW>
5.05809

>  <SCORE.INTRA.VDW.0>
-2.91167

>  <SCORE.INTRA.norm>
0.16634

>  <SCORE.RESTR>
2.5989

>  <SCORE.RESTR.CAVITY>
2.5989

>  <SCORE.RESTR.norm>
0.0721917

>  <SCORE.SYSTEM>
0

>  <SCORE.SYSTEM.CONST>
0

>  <SCORE.SYSTEM.DIHEDRAL>
0

>  <SCORE.SYSTEM.SOLV>
0

>  <SCORE.SYSTEM.norm>
0

>  <SCORE.heavy>
36

>  <SCORE.norm>
0.299642

>  <RMSD>
27.622

$$$$
2f4u_lig
 OpenBabel11021811433D
libRbt.so/2013.1/901 2013/11/27
 36 37  0  0  0  0  0  0  0  0999 V2000
   21.7837   24.5372    5.9132 C   0  0  2  0  0  0  0  0  0  0  0  0
   22.8957   24.6110    6.8806 O   0  0  0  0  0  0  0  0  0  0  0  0
   23.5697   25.4715   11.0878 C   0  0  2  0  0  0  0  0  0  0  0  0
   23.3413   26.0098   12.4563 N   0  0  0  0  0  0  0  0  0  0  0  0
   21.4230   26.0065    5.5321 C   0  0  2  0  0  0  0  0  0  0  0  0
   22.5634   26.7392    4.9518 N   0  0  0  0  0  0  0  0  0  0  0  0
   23.6217   26.6153   10.0145 C   0  0  0  0  0  0  0  0  0  0  0  0
   21.7835   26.8762   12.5561 C   0  0  0  0  0  0  0  0  0  0  0  0
   22.2369   27.2404   13.9350 C   0  0  1  0  0  0  0  0  0  0  0  0
   21.8813   28.7151   14.1542 C   0  0  0  0  0  0  0  0  0  0  0  0
   22.4037   29.6969   13.0891 C   0  0  0  0  0  0  0  0  0  0  0  0
   22.0485   31.0579   13.4959 N   0  0  0  0  0  0  0  0  0  0  0  0
   21.5394   26.4888   14.8905 O   0  0  0  0  0  0  0  0  0  0  0  0
   22.1463   22.8830   13.0046 C   0  0  0  0  0  0  0  0  0  0  0  0
   20.6441   22.6767   13.1291 C   0  0  0  0  0  0  0  0  0  0  0  0
   20.9035   26.7462    6.8094 C   0  0  1  0  0  0  0  0  0  0  0  0
   19.9285   23.8071   13.7545 N   0  0  0  0  0  0  0  0  0  0  0  0
   20.5696   28.1004    6.5161 O   0  0  0  0  0  0  0  0  0  0  0  0
   23.8033   26.0433    8.5938 C   0  0  2  0  0  0  0  0  0  0  0  0
   23.8060   27.1027    7.5928 N   0  0  0  0  0  0  0  0  0  0  0  0
   18.0592   24.4047   12.2219 C   0  0  0  0  0  0  0  0  0  0  0  0
   17.3997   25.4888   11.3174 C   0  0  0  0  0  0  0  0  0  0  0  0
   19.3690   24.8857   12.8994 C   0  0  0  0  0  0  0  0  0  0  0  0
   17.2095   26.7799   12.0441 N   0  0  0  0  0  0  0  0  0  0  0  0
   20.9607   27.0760   11.8893 O   0  0  0  0  0  0  0  0  0  0  0  0
   19.6864   25.9712    7.3526 C   0  0  2  0  0  0  0  0  0  0  0  0
   19.1425   26.5645    8.5290 O   0  0  0  0  0  0  0  0  0  0  0  0
   22.6798   25.0808    8.2643 C   0  0  2  0  0  0  0  0  0  0  0  0
   20.0566   24.5070    7.6501 C   0  0  2  0  0  0  0  0  0  0  0  0
   20.6242   23.8775    6.4960 O   0  0  0  0  0  0  0  0  0  0  0  0
   22.6568   23.9013    9.3192 C   0  0  2  0  0  0  0  0  0  0  0  0
   21.5542   22.9998    8.9882 O   0  0  0  0  0  0  0  0  0  0  0  0
   18.8637   23.7086    8.1037 C   0  0  0  0  0  0  0  0  0  0  0  0
   18.5521   24.0083    9.4107 O   0  0  0  0  0  0  0  0  0  0  0  0
   22.4509   24.5063   10.7491 C   0  0  1  0  0  0  0  0  0  0  0  0
   22.4151   23.5174   11.7365 O   0  0  0  0  0  0  0  0  0  0  0  0
  1  2  1  1  0  0  0
  1  5  1  0  0  0  0
  1 30  1  0  0  0  0
  3  4  1  1  0  0  0
  3  7  1  0  0  0  0
  3 35  1  0  0  0  0
  5  6  1  1  0  0  0
  5 16  1  0  0  0  0
  7 19  1  0  0  0  0
  8  4  1  0  0  0  0
  8 25  2  0  0  0  0
  9  8  1  6  0  0  0
  9 10  1  0  0  0  0
  9 13  1  0  0  0  0
 10 11  1  0  0  0  0
 11 12  1  0  0  0  0
 14 15  1  0  0  0  0
 14 36  1  0  0  0  0
 15 17  1  0  0  0  0
 16 18  1  6  0  0  0
 16 26  1  0  0  0  0
 17 23  1  0  0  0  0
 19 20  1  6  0  0  0
 19 28  1  0  0  0  0
 21 22  1  0  0  0  0
 21 23  1  0  0  0  0
 22 24  1  0  0  0  0
 26 27  1  1  0  0  0
 26 29  1  0  0  0  0
 28  2  1  6  0  0  0
 28 31  1  0  0  0  0
 29 30  1  0  0  0  0
 29 33  1  6  0  0  0
 31 32  1  6  0  0  0
 31 35  1  0  0  0  0
 33 34  1  0  0  0  0
 35 36  1  1  0  0  0
M  END
>  <CHROM.1>
71.93226188,60.98106150,137.87714527,-53.76907297,-176.48691682,-89.78377671
69.55257534,91.72985067,77.01465583,-52.37839765,179.34910278,-135.15300190
-76.13316564,77.77450023,21.20965336,25.67098272,10.14764103,1.51532271,-0.89888948
-1.78633797

>  <Name>
2f4u_lig

>  <RI>
0

>  <Rbt.Current_Directory>
/home/itssahil/PROJECTS/Mol_Feturizer/New_Systems/rnas/2f4u

>  <Rbt.Executable>
rbdock ($Id: //depot/dev/client3/rdock/2013.1/src/exe/rbdock.cxx#4 $)

>  <Rbt.Library>
libRbt.so (2013.1, Build901 2013/11/27)

>  <Rbt.Parameter_File>
/export/apps/rDock/src/rDock_2013.1_src/data/scripts/dock_solv.prm

>  <Rbt.Receptor>
prm/blind_docking_60.prm

>  <SCORE>
2.95121

>  <SCORE.INTER>
-0.84034

>  <SCORE.INTER.CONST>
1

>  <SCORE.INTER.POLAR>
-0.887627

>  <SCORE.INTER.ROT>
14

>  <SCORE.INTER.SOLV>
18.2737

>  <SCORE.INTER.VDW>
-16.626

>  <SCORE.INTER.norm>
-0.0233428

>  <SCORE.INTRA>
1.89046

>  <SCORE.INTRA.DIHEDRAL>
-10.7649

>  <SCORE.INTRA.DIHEDRAL.0>
26.3805

>  <SCORE.INTRA.POLAR>
0

>  <SCORE.INTRA.POLAR.0>
0

>  <SCORE.INTRA.REPUL>
0.138799

>  <SCORE.INTRA.REPUL.0>
0

>  <SCORE.INTRA.SOLV>
10.6795

>  <SCORE.INTRA.SOLV.lig_0>
-98.5587

>  <SCORE.INTRA.VDW>
1.23917

>  <SCORE.INTRA.VDW.0>
-2.91167

>  <SCORE.INTRA.norm>
0.0525129

>  <SCORE.RESTR>
1.90109

>  <SCORE.RESTR.CAVITY>
1.90109

>  <SCORE.RESTR.norm>
0.052808

>  <SCORE.SYSTEM>
0

>  <SCORE.SYSTEM.CONST>
0

>  <SCORE.SYSTEM.DIHEDRAL>
0

>  <SCORE.SYSTEM.SOLV>
0

>  <SCORE.SYSTEM.norm>
0

>  <SCORE.heavy>
36

>  <SCORE.norm>
0.0819782

>  <RMSD>
27.628

$$$$
2f4u_lig
 OpenBabel11021811433D
libRbt.so/2013.1/901 2013/11/27
 36 37  0  0  0  0  0  0  0  0999 V2000
   23.1118   27.5553   12.7553 C   0  0  2  0  0  0  0  0  0  0  0  0
   23.5318   26.1936   12.3718 O   0  0  0  0  0  0  0  0  0  0  0  0
   22.8704   26.0970    8.0766 C   0  0  2  0  0  0  0  0  0  0  0  0
   23.0093   25.6900    6.6519 N   0  0  0  0  0  0  0  0  0  0  0  0
   21.9506   27.3930   13.7845 C   0  0  2  0  0  0  0  0  0  0  0  0
   22.3510   26.6222   14.9760 N   0  0  0  0  0  0  0  0  0  0  0  0
   24.2300   26.6098    8.6698 C   0  0  0  0  0  0  0  0  0  0  0  0
   24.3252   26.5912    5.8497 C   0  0  0  0  0  0  0  0  0  0  0  0
   23.8420   25.9102    4.6077 C   0  0  1  0  0  0  0  0  0  0  0  0
   24.1428   24.4154    4.7642 C   0  0  0  0  0  0  0  0  0  0  0  0
   22.9858   23.4586    4.4218 C   0  0  0  0  0  0  0  0  0  0  0  0
   22.4588   23.8180    3.1039 N   0  0  0  0  0  0  0  0  0  0  0  0
   22.4533   26.0532    4.4839 O   0  0  0  0  0  0  0  0  0  0  0  0
   19.8006   24.4557    7.9043 C   0  0  0  0  0  0  0  0  0  0  0  0
   18.9362   24.6160    9.1459 C   0  0  0  0  0  0  0  0  0  0  0  0
   20.7417   26.6964   13.0758 C   0  0  1  0  0  0  0  0  0  0  0  0
   17.7101   25.4106    8.9304 N   0  0  0  0  0  0  0  0  0  0  0  0
   19.6547   26.5143   13.9794 O   0  0  0  0  0  0  0  0  0  0  0  0
   24.0883   26.9766   10.1611 C   0  0  2  0  0  0  0  0  0  0  0  0
   25.3614   27.4096   10.7232 N   0  0  0  0  0  0  0  0  0  0  0  0
   16.3537   24.8085   10.9298 C   0  0  0  0  0  0  0  0  0  0  0  0
   17.4158   23.8419   11.5348 C   0  0  0  0  0  0  0  0  0  0  0  0
   16.9764   25.9610   10.0993 C   0  0  0  0  0  0  0  0  0  0  0  0
   18.3119   24.5371   12.5068 N   0  0  0  0  0  0  0  0  0  0  0  0
   25.0582   27.3241    6.1448 O   0  0  0  0  0  0  0  0  0  0  0  0
   20.3302   27.5600   11.8666 C   0  0  2  0  0  0  0  0  0  0  0  0
   19.2351   27.0017   11.1449 O   0  0  0  0  0  0  0  0  0  0  0  0
   23.6000   25.7814   10.9550 C   0  0  2  0  0  0  0  0  0  0  0  0
   21.5170   27.7619   10.9074 C   0  0  2  0  0  0  0  0  0  0  0  0
   22.6470   28.3064   11.5981 O   0  0  0  0  0  0  0  0  0  0  0  0
   22.2058   25.2931   10.3873 C   0  0  2  0  0  0  0  0  0  0  0  0
   21.7685   24.1304   11.1586 O   0  0  0  0  0  0  0  0  0  0  0  0
   21.1623   28.6705    9.7607 C   0  0  0  0  0  0  0  0  0  0  0  0
   20.8752   29.9362   10.2198 O   0  0  0  0  0  0  0  0  0  0  0  0
   22.3813   24.9077    8.8794 C   0  0  1  0  0  0  0  0  0  0  0  0
   21.1855   24.4602    8.3101 O   0  0  0  0  0  0  0  0  0  0  0  0
  1  2  1  6  0  0  0
  1  5  1  0  0  0  0
  1 30  1  0  0  0  0
  3  4  1  6  0  0  0
  3  7  1  0  0  0  0
  3 35  1  0  0  0  0
  5  6  1  1  0  0  0
  5 16  1  0  0  0  0
  7 19  1  0  0  0  0
  8  4  1  0  0  0  0
  8 25  2  0  0  0  0
  9  8  1  1  0  0  0
  9 10  1  0  0  0  0
  9 13  1  0  0  0  0
 10 11  1  0  0  0  0
 11 12  1  0  0  0  0
 14 15  1  0  0  0  0
 14 36  1  0  0  0  0
 15 17  1  0  0  0  0
 16 18  1  1  0  0  0
 16 26  1  0  0  0  0
 17 23  1  0  0  0  0
 19 20  1  1  0  0  0
 19 28  1  0  0  0  0
 21 22  1  0  0  0  0
 21 23  1  0  0  0  0
 22 24  1  0  0  0  0
 26 27  1  6  0  0  0
 26 29  1  0  0  0  0
 28  2  1  1  0  0  0
 28 31  1  0  0  0  0
 29 30  1  0  0  0  0
 29 33  1  6  0  0  0
 31 32  1  1  0  0  0
 31 35  1  0  0  0  0
 33 34  1  0  0  0  0
 35 36  1  6  0  0  0
M  END
>  <CHROM.1>
126.67549410,-27.66540748,-67.40050530,132.51167682,50.69562715,144.73820026
-58.22276923,-163.21843839,-67.30759235,63.10631832,62.59748967,36.64742853
64.21160757,-67.33185879,21.60610485,26.08517042,9.58613000,-2.03032072,-0.36522211
-1.89836559

>  <Name>
2f4u_lig

>  <RI>
0

>  <Rbt.Current_Directory>
/home/itssahil/PROJECTS/Mol_Feturizer/New_Systems/rnas/2f4u

>  <Rbt.Executable>
rbdock ($Id: //depot/dev/client3/rdock/2013.1/src/exe/rbdock.cxx#4 $)

>  <Rbt.Library>
libRbt.so (2013.1, Build901 2013/11/27)

>  <Rbt.Parameter_File>
/export/apps/rDock/src/rDock_2013.1_src/data/scripts/dock_solv.prm

>  <Rbt.Receptor>
prm/blind_docking_60.prm

>  <SCORE>
27.2748

>  <SCORE.INTER>
3.79116

>  <SCORE.INTER.CONST>
1

>  <SCORE.INTER.POLAR>
0

>  <SCORE.INTER.ROT>
14

>  <SCORE.INTER.SOLV>
11.6993

>  <SCORE.INTER.VDW>
-14.3057

>  <SCORE.INTER.norm>
0.10531

>  <SCORE.INTRA>
18.7327

>  <SCORE.INTRA.DIHEDRAL>
-6.40661

>  <SCORE.INTRA.DIHEDRAL.0>
26.3805

>  <SCORE.INTRA.POLAR>
0

>  <SCORE.INTRA.POLAR.0>
0

>  <SCORE.INTRA.REPUL>
0

>  <SCORE.INTRA.REPUL.0>
0

>  <SCORE.INTRA.SOLV>
12.7212

>  <SCORE.INTRA.SOLV.lig_0>
-98.5587

>  <SCORE.INTRA.VDW>
15.5754

>  <SCORE.INTRA.VDW.0>
-2.91167

>  <SCORE.INTRA.norm>
0.520353

>  <SCORE.RESTR>
4.75091

>  <SCORE.RESTR.CAVITY>
4.75091

>  <SCORE.RESTR.norm>
0.13197

>  <SCORE.SYSTEM>
0

>  <SCORE.SYSTEM.CONST>
0

>  <SCORE.SYSTEM.DIHEDRAL>
0

>  <SCORE.SYSTEM.SOLV>
0

>  <SCORE.SYSTEM.norm>
0

>  <SCORE.heavy>
36

>  <SCORE.norm>
0.757633

>  <RMSD>
27.634

$$$$
2f4u_lig
 OpenBabel11021811433D
libRbt.so/2013.1/901 2013/11/27
 36 37  0  0  0  0  0  0  0  0999 V2000
   22.5681   26.5240    5.7783 C   0  0  2  0  0  0  0  0  0  0  0  0
   21.5553   25.8364    6.6025 O   0  0  0  0  0  0  0  0  0  0  0  0
   21.8612   27.8914   10.4208 C   0  0  2  0  0  0  0  0  0  0  0  0
   21.6019   28.2356   11.8452 N   0  0  0  0  0  0  0  0  0  0  0  0
   22.3381   26.0602    4.3065 C   0  0  2  0  0  0  0  0  0  0  0  0
   20.9810   26.3685    3.8192 N   0  0  0  0  0  0  0  0  0  0  0  0
   20.5602   28.0016    9.5499 C   0  0  0  0  0  0  0  0  0  0  0  0
   23.0259   29.0137   12.5895 C   0  0  0  0  0  0  0  0  0  0  0  0
   22.2342   28.9254   13.8564 C   0  0  1  0  0  0  0  0  0  0  0  0
   21.6360   30.3128   14.1146 C   0  0  0  0  0  0  0  0  0  0  0  0
   20.8460   30.9309   12.9461 C   0  0  0  0  0  0  0  0  0  0  0  0
   19.7335   30.0393   12.6127 N   0  0  0  0  0  0  0  0  0  0  0  0
   21.1702   28.0260   13.7031 O   0  0  0  0  0  0  0  0  0  0  0  0
   24.3554   26.3754   12.3480 C   0  0  0  0  0  0  0  0  0  0  0  0
   23.5583   25.7006   13.4545 C   0  0  0  0  0  0  0  0  0  0  0  0
   22.6047   24.5210    4.2148 C   0  0  1  0  0  0  0  0  0  0  0  0
   22.0940   25.7831   13.2811 N   0  0  0  0  0  0  0  0  0  0  0  0
   22.3968   24.0440    2.8879 O   0  0  0  0  0  0  0  0  0  0  0  0
   20.8275   27.5897    8.0879 C   0  0  2  0  0  0  0  0  0  0  0  0
   19.6091   27.6486    7.2901 N   0  0  0  0  0  0  0  0  0  0  0  0
   20.0493   24.5734   12.5358 C   0  0  0  0  0  0  0  0  0  0  0  0
   18.8909   23.6384   12.9964 C   0  0  0  0  0  0  0  0  0  0  0  0
   21.2584   24.5756   13.5073 C   0  0  0  0  0  0  0  0  0  0  0  0
   17.7888   24.4008   13.6563 N   0  0  0  0  0  0  0  0  0  0  0  0
   24.0040   29.3234   12.2597 O   0  0  0  0  0  0  0  0  0  0  0  0
   24.0469   24.2534    4.6898 C   0  0  2  0  0  0  0  0  0  0  0  0
   24.3858   22.8694    4.6519 O   0  0  0  0  0  0  0  0  0  0  0  0
   21.3669   26.1746    8.0280 C   0  0  2  0  0  0  0  0  0  0  0  0
   24.2623   24.7875    6.1173 C   0  0  2  0  0  0  0  0  0  0  0  0
   23.9158   26.1741    6.2032 O   0  0  0  0  0  0  0  0  0  0  0  0
   22.7048   26.0741    8.8673 C   0  0  2  0  0  0  0  0  0  0  0  0
   23.1920   24.6968    8.8071 O   0  0  0  0  0  0  0  0  0  0  0  0
   25.6864   24.6116    6.5723 C   0  0  0  0  0  0  0  0  0  0  0  0
   25.8979   25.2738    7.7606 O   0  0  0  0  0  0  0  0  0  0  0  0
   22.4023   26.4770   10.3504 C   0  0  1  0  0  0  0  0  0  0  0  0
   23.5428   26.4065   11.1558 O   0  0  0  0  0  0  0  0  0  0  0  0
  1  2  1  1  0  0  0
  1  5  1  0  0  0  0
  1 30  1  0  0  0  0
  3  4  1  1  0  0  0
  3  7  1  0  0  0  0
  3 35  1  0  0  0  0
  5  6  1  1  0  0  0
  5 16  1  0  0  0  0
  7 19  1  0  0  0  0
  8  4  1  0  0  0  0
  8 25  2  0  0  0  0
  9  8  1  6  0  0  0
  9 10  1  0  0  0  0
  9 13  1  0  0  0  0
 10 11  1  0  0  0  0
 11 12  1  0  0  0  0
 14 15  1  0  0  0  0
 14 36  1  0  0  0  0
 15 17  1  0  0  0  0
 16 18  1  6  0  0  0
 16 26  1  0  0  0  0
 17 23  1  0  0  0  0
 19 20  1  6  0  0  0
 19 28  1  0  0  0  0
 21 22  1  0  0  0  0
 21 23  1  0  0  0  0
 22 24  1  0  0  0  0
 26 27  1  1  0  0  0
 26 29  1  0  0  0  0
 28  2  1  6  0  0  0
 28 31  1  0  0  0  0
 29 30  1  0  0  0  0
 29 33  1  6  0  0  0
 31 32  1  1  0  0  0
 31 35  1  0  0  0  0
 33 34  1  0  0  0  0
 35 36  1  1  0  0  0
M  END
>  <CHROM.1>
-172.01496430,-147.21502070,-100.99609881,52.49976588,59.61345207,-24.86764416
32.34056910,135.26754770,-145.94844681,100.16464205,-160.84370495,66.65876624
170.93572956,70.94189609,22.22413615,26.42041657,9.47867033,-0.18400995,1.35467968
-0.14243554

>  <Name>
2f4u_lig

>  <RI>
0

>  <Rbt.Current_Directory>
/home/itssahil/PROJECTS/Mol_Feturizer/New_Systems/rnas/2f4u

>  <Rbt.Executable>
rbdock ($Id: //depot/dev/client3/rdock/2013.1/src/exe/rbdock.cxx#4 $)

>  <Rbt.Library>
libRbt.so (2013.1, Build901 2013/11/27)

>  <Rbt.Parameter_File>
/export/apps/rDock/src/rDock_2013.1_src/data/scripts/dock_solv.prm

>  <Rbt.Receptor>
prm/blind_docking_60.prm

>  <SCORE>
22.5998

>  <SCORE.INTER>
3.64038

>  <SCORE.INTER.CONST>
1

>  <SCORE.INTER.POLAR>
0

>  <SCORE.INTER.ROT>
14

>  <SCORE.INTER.SOLV>
13.6266

>  <SCORE.INTER.VDW>
-15.0486

>  <SCORE.INTER.norm>
0.101122

>  <SCORE.INTRA>
12.6556

>  <SCORE.INTRA.DIHEDRAL>
-8.26213

>  <SCORE.INTRA.DIHEDRAL.0>
26.3805

>  <SCORE.INTRA.POLAR>
0

>  <SCORE.INTRA.POLAR.0>
0

>  <SCORE.INTRA.REPUL>
0.0752573

>  <SCORE.INTRA.REPUL.0>
0

>  <SCORE.INTRA.SOLV>
11.4141

>  <SCORE.INTRA.SOLV.lig_0>
-98.5587

>  <SCORE.INTRA.VDW>
10.7033

>  <SCORE.INTRA.VDW.0>
-2.91167

>  <SCORE.INTRA.norm>
0.351544

>  <SCORE.RESTR>
6.3038

>  <SCORE.RESTR.CAVITY>
6.3038

>  <SCORE.RESTR.norm>
0.175105

>  <SCORE.SYSTEM>
0

>  <SCORE.SYSTEM.CONST>
0

>  <SCORE.SYSTEM.DIHEDRAL>
0

>  <SCORE.SYSTEM.SOLV>
0

>  <SCORE.SYSTEM.norm>
0

>  <SCORE.heavy>
36

>  <SCORE.norm>
0.627771

>  <RMSD>
27.637

$$$$
2f4u_lig
 OpenBabel11021811433D
libRbt.so/2013.1/901 2013/11/27
 36 37  0  0  0  0  0  0  0  0999 V2000
   24.0869   28.1733   10.8582 C   0  0  2  0  0  0  0  0  0  0  0  0
   23.8804   26.7295   11.0835 O   0  0  0  0  0  0  0  0  0  0  0  0
   22.6598   25.3004    7.1639 C   0  0  2  0  0  0  0  0  0  0  0  0
   22.3714   24.3566    6.0500 N   0  0  0  0  0  0  0  0  0  0  0  0
   24.4828   28.7896   12.2357 C   0  0  2  0  0  0  0  0  0  0  0  0
   25.6981   28.1775   12.8038 N   0  0  0  0  0  0  0  0  0  0  0  0
   24.1608   25.2246    7.6162 C   0  0  0  0  0  0  0  0  0  0  0  0
   23.7883   24.1710    4.9797 C   0  0  0  0  0  0  0  0  0  0  0  0
   22.8611   23.3604    4.1294 C   0  0  1  0  0  0  0  0  0  0  0  0
   22.0490   24.3442    3.2797 C   0  0  0  0  0  0  0  0  0  0  0  0
   20.9569   25.1327    4.0259 C   0  0  0  0  0  0  0  0  0  0  0  0
   20.5003   26.2251    3.1644 N   0  0  0  0  0  0  0  0  0  0  0  0
   23.5917   22.5456    3.2538 O   0  0  0  0  0  0  0  0  0  0  0  0
   19.1893   25.5661    7.4099 C   0  0  0  0  0  0  0  0  0  0  0  0
   18.5048   26.2874    8.5613 C   0  0  0  0  0  0  0  0  0  0  0  0
   23.2837   28.6222   13.2270 C   0  0  1  0  0  0  0  0  0  0  0  0
   18.1800   25.4191    9.7109 N   0  0  0  0  0  0  0  0  0  0  0  0
   23.5997   29.1614   14.5079 O   0  0  0  0  0  0  0  0  0  0  0  0
   24.4359   26.1656    8.8067 C   0  0  2  0  0  0  0  0  0  0  0  0
   25.8186   26.0613    9.2556 N   0  0  0  0  0  0  0  0  0  0  0  0
   17.6201   24.9245   12.0861 C   0  0  0  0  0  0  0  0  0  0  0  0
   18.9130   24.1318   12.4442 C   0  0  0  0  0  0  0  0  0  0  0  0
   17.8538   26.0312   11.0248 C   0  0  0  0  0  0  0  0  0  0  0  0
   19.8691   24.9569   13.2419 N   0  0  0  0  0  0  0  0  0  0  0  0
   24.8000   24.5416    4.9576 O   0  0  0  0  0  0  0  0  0  0  0  0
   22.0512   29.3157   12.6127 C   0  0  2  0  0  0  0  0  0  0  0  0
   20.8964   29.2104   13.4415 O   0  0  0  0  0  0  0  0  0  0  0  0
   23.5304   25.8213    9.9724 C   0  0  2  0  0  0  0  0  0  0  0  0
   21.7307   28.7352   11.2235 C   0  0  2  0  0  0  0  0  0  0  0  0
   22.8728   28.8059   10.3628 O   0  0  0  0  0  0  0  0  0  0  0  0
   22.0158   25.9436    9.5301 C   0  0  2  0  0  0  0  0  0  0  0  0
   21.1669   25.5889   10.6665 O   0  0  0  0  0  0  0  0  0  0  0  0
   20.5812   29.4529   10.5680 C   0  0  0  0  0  0  0  0  0  0  0  0
   20.9260   30.7545   10.2817 O   0  0  0  0  0  0  0  0  0  0  0  0
   21.7578   24.9645    8.3351 C   0  0  1  0  0  0  0  0  0  0  0  0
   20.4327   25.0151    7.8927 O   0  0  0  0  0  0  0  0  0  0  0  0
  1  2  1  1  0  0  0
  1  5  1  0  0  0  0
  1 30  1  0  0  0  0
  3  4  1  6  0  0  0
  3  7  1  0  0  0  0
  3 35  1  0  0  0  0
  5  6  1  1  0  0  0
  5 16  1  0  0  0  0
  7 19  1  0  0  0  0
  8  4  1  0  0  0  0
  8 25  2  0  0  0  0
  9  8  1  1  0  0  0
  9 10  1  0  0  0  0
  9 13  1  0  0  0  0
 10 11  1  0  0  0  0
 11 12  1  0  0  0  0
 14 15  1  0  0  0  0
 14 36  1  0  0  0  0
 15 17  1  0  0  0  0
 16 18  1  1  0  0  0
 16 26  1  0  0  0  0
 17 23  1  0  0  0  0
 19 20  1  1  0  0  0
 19 28  1  0  0  0  0
 21 22  1  0  0  0  0
 21 23  1  0  0  0  0
 22 24  1  0  0  0  0
 26 27  1  1  0  0  0
 26 29  1  0  0  0  0
 28  2  1  1  0  0  0
 28 31  1  0  0  0  0
 29 30  1  0  0  0  0
 29 33  1  6  0  0  0
 31 32  1  1  0  0  0
 31 35  1  0  0  0  0
 33 34  1  0  0  0  0
 35 36  1  6  0  0  0
M  END
>  <CHROM.1>
-178.18175974,-33.20133869,82.33534064,-73.64648983,167.05073929,-60.63618128
-74.10034746,163.65998671,-177.15676853,71.35758808,67.89121664,44.89945296
66.16867997,-68.51922460,21.96318164,26.35198942,9.20525044,-1.62264870,-0.23586605
-2.04274817

>  <Name>
2f4u_lig

>  <RI>
0

>  <Rbt.Current_Directory>
/home/itssahil/PROJECTS/Mol_Feturizer/New_Systems/rnas/2f4u

>  <Rbt.Executable>
rbdock ($Id: //depot/dev/client3/rdock/2013.1/src/exe/rbdock.cxx#4 $)

>  <Rbt.Library>
libRbt.so (2013.1, Build901 2013/11/27)

>  <Rbt.Parameter_File>
/export/apps/rDock/src/rDock_2013.1_src/data/scripts/dock_solv.prm

>  <Rbt.Receptor>
prm/blind_docking_60.prm

>  <SCORE>
-0.52919

>  <SCORE.INTER>
-1.81608

>  <SCORE.INTER.CONST>
1

>  <SCORE.INTER.POLAR>
-1.30662

>  <SCORE.INTER.ROT>
14

>  <SCORE.INTER.SOLV>
15.1985

>  <SCORE.INTER.VDW>
-14.8548

>  <SCORE.INTER.norm>
-0.0504467

>  <SCORE.INTRA>
-6.61623

>  <SCORE.INTRA.DIHEDRAL>
-19.7649

>  <SCORE.INTRA.DIHEDRAL.0>
26.3805

>  <SCORE.INTRA.POLAR>
0

>  <SCORE.INTRA.POLAR.0>
0

>  <SCORE.INTRA.REPUL>
0

>  <SCORE.INTRA.REPUL.0>
0

>  <SCORE.INTRA.SOLV>
5.33029

>  <SCORE.INTRA.SOLV.lig_0>
-98.5587

>  <SCORE.INTRA.VDW>
0.601093

>  <SCORE.INTRA.VDW.0>
-2.91167

>  <SCORE.INTRA.norm>
-0.183784

>  <SCORE.RESTR>
7.90313

>  <SCORE.RESTR.CAVITY>
7.90313

>  <SCORE.RESTR.norm>
0.219531

>  <SCORE.SYSTEM>
0

>  <SCORE.SYSTEM.CONST>
0

>  <SCORE.SYSTEM.DIHEDRAL>
0

>  <SCORE.SYSTEM.SOLV>
0

>  <SCORE.SYSTEM.norm>
0

>  <SCORE.heavy>
36

>  <SCORE.norm>
-0.0146997

>  <RMSD>
27.659

$$$$
2f4u_lig
 OpenBabel11021811433D
libRbt.so/2013.1/901 2013/11/27
 36 37  0  0  0  0  0  0  0  0999 V2000
   21.2101   28.3677   13.0078 C   0  0  2  0  0  0  0  0  0  0  0  0
   21.8293   28.7955   11.7383 O   0  0  0  0  0  0  0  0  0  0  0  0
   23.4860   27.0924    8.0983 C   0  0  2  0  0  0  0  0  0  0  0  0
   23.9917   26.0738    7.1383 N   0  0  0  0  0  0  0  0  0  0  0  0
   22.3664   27.8495   13.9181 C   0  0  2  0  0  0  0  0  0  0  0  0
   23.3967   28.8747   14.1667 N   0  0  0  0  0  0  0  0  0  0  0  0
   24.3099   27.0918    9.4341 C   0  0  0  0  0  0  0  0  0  0  0  0
   25.4381   26.6647    6.2745 C   0  0  0  0  0  0  0  0  0  0  0  0
   25.3047   25.4028    5.4811 C   0  0  1  0  0  0  0  0  0  0  0  0
   24.1584   25.6125    4.4854 C   0  0  0  0  0  0  0  0  0  0  0  0
   22.9745   24.6357    4.6096 C   0  0  0  0  0  0  0  0  0  0  0  0
   23.5039   23.2798    4.7678 N   0  0  0  0  0  0  0  0  0  0  0  0
   26.4719   25.1678    4.7416 O   0  0  0  0  0  0  0  0  0  0  0  0
   21.0898   26.8192    5.7658 C   0  0  0  0  0  0  0  0  0  0  0  0
   19.6069   27.0694    5.5360 C   0  0  0  0  0  0  0  0  0  0  0  0
   23.0116   26.5915   13.2475 C   0  0  1  0  0  0  0  0  0  0  0  0
   18.7249   26.4389    6.5388 N   0  0  0  0  0  0  0  0  0  0  0  0
   24.0844   26.0844   14.0371 O   0  0  0  0  0  0  0  0  0  0  0  0
   23.7434   28.1119   10.4427 C   0  0  2  0  0  0  0  0  0  0  0  0
   24.4806   28.0789   11.6996 N   0  0  0  0  0  0  0  0  0  0  0  0
   19.1061   24.9386    8.4891 C   0  0  0  0  0  0  0  0  0  0  0  0
   19.7263   23.5929    8.9717 C   0  0  0  0  0  0  0  0  0  0  0  0
   18.9660   25.0308    6.9472 C   0  0  0  0  0  0  0  0  0  0  0  0
   19.0139   22.4132    8.3956 N   0  0  0  0  0  0  0  0  0  0  0  0
   26.0497   27.5517    6.2981 O   0  0  0  0  0  0  0  0  0  0  0  0
   21.9085   25.5326   13.0499 C   0  0  2  0  0  0  0  0  0  0  0  0
   22.3972   24.3441   12.4332 O   0  0  0  0  0  0  0  0  0  0  0  0
   22.2875   27.8106   10.7373 C   0  0  2  0  0  0  0  0  0  0  0  0
   20.7495   26.0981   12.2094 C   0  0  2  0  0  0  0  0  0  0  0  0
   20.2397   27.3053   12.7864 O   0  0  0  0  0  0  0  0  0  0  0  0
   21.4476   27.8578    9.3969 C   0  0  2  0  0  0  0  0  0  0  0  0
   20.0533   27.5462    9.7079 O   0  0  0  0  0  0  0  0  0  0  0  0
   19.6226   25.1095   12.0722 C   0  0  0  0  0  0  0  0  0  0  0  0
   18.5719   25.6693   11.3810 O   0  0  0  0  0  0  0  0  0  0  0  0
   22.0292   26.8000    8.3988 C   0  0  1  0  0  0  0  0  0  0  0  0
   21.3300   26.7815    7.1884 O   0  0  0  0  0  0  0  0  0  0  0  0
  1  2  1  6  0  0  0
  1  5  1  0  0  0  0
  1 30  1  0  0  0  0
  3  4  1  6  0  0  0
  3  7  1  0  0  0  0
  3 35  1  0  0  0  0
  5  6  1  6  0  0  0
  5 16  1  0  0  0  0
  7 19  1  0  0  0  0
  8  4  1  0  0  0  0
  8 25  2  0  0  0  0
  9  8  1  6  0  0  0
  9 10  1  0  0  0  0
  9 13  1  0  0  0  0
 10 11  1  0  0  0  0
 11 12  1  0  0  0  0
 14 15  1  0  0  0  0
 14 36  1  0  0  0  0
 15 17  1  0  0  0  0
 16 18  1  1  0  0  0
 16 26  1  0  0  0  0
 17 23  1  0  0  0  0
 19 20  1  1  0  0  0
 19 28  1  0  0  0  0
 21 22  1  0  0  0  0
 21 23  1  0  0  0  0
 22 24  1  0  0  0  0
 26 27  1  6  0  0  0
 26 29  1  0  0  0  0
 28  2  1  1  0  0  0
 28 31  1  0  0  0  0
 29 30  1  0  0  0  0
 29 33  1  1  0  0  0
 31 32  1  1  0  0  0
 31 35  1  0  0  0  0
 33 34  1  0  0  0  0
 35 36  1  6  0  0  0
M  END
>  <CHROM.1>
75.47258231,-80.23060740,76.73280156,-120.14388046,-44.75535449,-34.89420872
-164.36231653,-45.29516817,125.70047005,-51.81611410,-164.73542624,-125.47311943
176.62544867,5.16863544,22.11601410,26.33865842,9.27340905,-1.78894194,-0.29666538
-1.83164355

>  <Name>
2f4u_lig

>  <RI>
0

>  <Rbt.Current_Directory>
/home/itssahil/PROJECTS/Mol_Feturizer/New_Systems/rnas/2f4u

>  <Rbt.Executable>
rbdock ($Id: //depot/dev/client3/rdock/2013.1/src/exe/rbdock.cxx#4 $)

>  <Rbt.Library>
libRbt.so (2013.1, Build901 2013/11/27)

>  <Rbt.Parameter_File>
/export/apps/rDock/src/rDock_2013.1_src/data/scripts/dock_solv.prm

>  <Rbt.Receptor>
prm/blind_docking_40.prm

>  <SCORE>
12.174

>  <SCORE.INTER>
2.24057

>  <SCORE.INTER.CONST>
1

>  <SCORE.INTER.POLAR>
-1.03923

>  <SCORE.INTER.ROT>
14

>  <SCORE.INTER.SOLV>
22.1191

>  <SCORE.INTER.VDW>
-15.3486

>  <SCORE.INTER.norm>
0.062238

>  <SCORE.INTRA>
7.47134

>  <SCORE.INTRA.DIHEDRAL>
1.96558

>  <SCORE.INTRA.DIHEDRAL.0>
26.3805

>  <SCORE.INTRA.POLAR>
0

>  <SCORE.INTRA.POLAR.0>
0

>  <SCORE.INTRA.REPUL>
0

>  <SCORE.INTRA.REPUL.0>
0

>  <SCORE.INTRA.SOLV>
11.2147

>  <SCORE.INTRA.SOLV.lig_0>
-98.5587

>  <SCORE.INTRA.VDW>
0.881188

>  <SCORE.INTRA.VDW.0>
-2.91167

>  <SCORE.INTRA.norm>
0.207537

>  <SCORE.RESTR>
2.4621

>  <SCORE.RESTR.CAVITY>
2.4621

>  <SCORE.RESTR.norm>
0.0683918

>  <SCORE.SYSTEM>
0

>  <SCORE.SYSTEM.CONST>
0

>  <SCORE.SYSTEM.DIHEDRAL>
0

>  <SCORE.SYSTEM.SOLV>
0

>  <SCORE.SYSTEM.norm>
0

>  <SCORE.heavy>
36

>  <SCORE.norm>
0.338167

>  <RMSD>
27.674

$$$$
2f4u_lig
 OpenBabel11021811433D
libRbt.so/2013.1/901 2013/11/27
 36 37  0  0  0  0  0  0  0  0999 V2000
   20.0638   27.4614    5.7943 C   0  0  2  0  0  0  0  0  0  0  0  0
   20.2465   27.8994    7.1916 O   0  0  0  0  0  0  0  0  0  0  0  0
   21.5275   26.3283   11.0369 C   0  0  2  0  0  0  0  0  0  0  0  0
   21.9578   25.3482   12.0708 N   0  0  0  0  0  0  0  0  0  0  0  0
   19.4155   26.0434    5.8502 C   0  0  2  0  0  0  0  0  0  0  0  0
   18.1261   26.0360    6.5655 N   0  0  0  0  0  0  0  0  0  0  0  0
   20.1133   25.9758   10.4546 C   0  0  0  0  0  0  0  0  0  0  0  0
   22.1809   23.7235   11.3652 C   0  0  0  0  0  0  0  0  0  0  0  0
   22.3970   23.2935   12.7823 C   0  0  1  0  0  0  0  0  0  0  0  0
   21.1037   22.6194   13.2536 C   0  0  0  0  0  0  0  0  0  0  0  0
   19.8295   23.4802   13.1706 C   0  0  0  0  0  0  0  0  0  0  0  0
   19.9900   24.6363   14.0546 N   0  0  0  0  0  0  0  0  0  0  0  0
   23.4220   22.3400   12.8500 O   0  0  0  0  0  0  0  0  0  0  0  0
   24.8311   27.3549   11.1752 C   0  0  0  0  0  0  0  0  0  0  0  0
   24.4450   27.4361   12.6446 C   0  0  0  0  0  0  0  0  0  0  0  0
   20.4169   25.0574    6.5384 C   0  0  1  0  0  0  0  0  0  0  0  0
   23.2951   28.3212   12.9194 N   0  0  0  0  0  0  0  0  0  0  0  0
   19.8658   23.7458    6.6242 O   0  0  0  0  0  0  0  0  0  0  0  0
   19.7010   26.9650    9.3456 C   0  0  2  0  0  0  0  0  0  0  0  0
   18.4080   26.6106    8.7738 N   0  0  0  0  0  0  0  0  0  0  0  0
   21.7997   30.2752   12.5377 C   0  0  0  0  0  0  0  0  0  0  0  0
   20.4633   29.5198   12.2697 C   0  0  0  0  0  0  0  0  0  0  0  0
   23.0507   29.4998   12.0484 C   0  0  0  0  0  0  0  0  0  0  0  0
   19.2751   30.4038   12.4651 N   0  0  0  0  0  0  0  0  0  0  0  0
   22.1150   23.2869   10.3821 O   0  0  0  0  0  0  0  0  0  0  0  0
   21.7304   25.0644    5.7310 C   0  0  2  0  0  0  0  0  0  0  0  0
   22.7169   24.1984    6.2865 O   0  0  0  0  0  0  0  0  0  0  0  0
   20.7287   26.9678    8.2315 C   0  0  2  0  0  0  0  0  0  0  0  0
   22.3062   26.4886    5.6325 C   0  0  2  0  0  0  0  0  0  0  0  0
   21.3385   27.3962    5.0940 O   0  0  0  0  0  0  0  0  0  0  0  0
   22.1461   27.3695    8.8097 C   0  0  2  0  0  0  0  0  0  0  0  0
   23.1194   27.3463    7.7188 O   0  0  0  0  0  0  0  0  0  0  0  0
   23.5453   26.5341    4.7789 C   0  0  0  0  0  0  0  0  0  0  0  0
   24.4949   25.6617    5.2610 O   0  0  0  0  0  0  0  0  0  0  0  0
   22.5502   26.3391    9.9179 C   0  0  1  0  0  0  0  0  0  0  0  0
   23.7999   26.6295   10.4730 O   0  0  0  0  0  0  0  0  0  0  0  0
  1  2  1  1  0  0  0
  1  5  1  0  0  0  0
  1 30  1  0  0  0  0
  3  4  1  1  0  0  0
  3  7  1  0  0  0  0
  3 35  1  0  0  0  0
  5  6  1  1  0  0  0
  5 16  1  0  0  0  0
  7 19  1  0  0  0  0
  8  4  1  0  0  0  0
  8 25  2  0  0  0  0
  9  8  1  6  0  0  0
  9 10  1  0  0  0  0
  9 13  1  0  0  0  0
 10 11  1  0  0  0  0
 11 12  1  0  0  0  0
 14 15  1  0  0  0  0
 14 36  1  0  0  0  0
 15 17  1  0  0  0  0
 16 18  1  6  0  0  0
 16 26  1  0  0  0  0
 17 23  1  0  0  0  0
 19 20  1  6  0  0  0
 19 28  1  0  0  0  0
 21 22  1  0  0  0  0
 21 23  1  0  0  0  0
 22 24  1  0  0  0  0
 26 27  1  1  0  0  0
 26 29  1  0  0  0  0
 28  2  1  6  0  0  0
 28 31  1  0  0  0  0
 29 30  1  0  0  0  0
 29 33  1  6  0  0  0
 31 32  1  6  0  0  0
 31 35  1  0  0  0  0
 33 34  1  0  0  0  0
 35 36  1  1  0  0  0
M  END
>  <CHROM.1>
41.57883363,64.56176485,102.22187488,-57.66308928,-62.59082686,-70.17959342
67.46272310,-30.34164703,-179.66660668,-167.24397623,-71.15088982,-124.07444079
-56.41038084,-60.30727372,21.60337970,26.19561248,9.47156892,2.76466521,1.47378039
-2.74352215

>  <Name>
2f4u_lig

>  <RI>
0

>  <Rbt.Current_Directory>
/home/itssahil/PROJECTS/Mol_Feturizer/New_Systems/rnas/2f4u

>  <Rbt.Executable>
rbdock ($Id: //depot/dev/client3/rdock/2013.1/src/exe/rbdock.cxx#4 $)

>  <Rbt.Library>
libRbt.so (2013.1, Build901 2013/11/27)

>  <Rbt.Parameter_File>
/export/apps/rDock/src/rDock_2013.1_src/data/scripts/dock_solv.prm

>  <Rbt.Receptor>
prm/blind_docking_60.prm

>  <SCORE>
17.8412

>  <SCORE.INTER>
6.21827

>  <SCORE.INTER.CONST>
1

>  <SCORE.INTER.POLAR>
0

>  <SCORE.INTER.ROT>
14

>  <SCORE.INTER.SOLV>
14.094

>  <SCORE.INTER.VDW>
-13.4858

>  <SCORE.INTER.norm>
0.17273

>  <SCORE.INTRA>
7.87924

>  <SCORE.INTRA.DIHEDRAL>
-13.0726

>  <SCORE.INTRA.DIHEDRAL.0>
26.3805

>  <SCORE.INTRA.POLAR>
0

>  <SCORE.INTRA.POLAR.0>
0

>  <SCORE.INTRA.REPUL>
0

>  <SCORE.INTRA.REPUL.0>
0

>  <SCORE.INTRA.SOLV>
12.8252

>  <SCORE.INTRA.SOLV.lig_0>
-98.5587

>  <SCORE.INTRA.VDW>
8.00296

>  <SCORE.INTRA.VDW.0>
-2.91167

>  <SCORE.INTRA.norm>
0.218868

>  <SCORE.RESTR>
3.74373

>  <SCORE.RESTR.CAVITY>
3.74373

>  <SCORE.RESTR.norm>
0.103992

>  <SCORE.SYSTEM>
0

>  <SCORE.SYSTEM.CONST>
0

>  <SCORE.SYSTEM.DIHEDRAL>
0

>  <SCORE.SYSTEM.SOLV>
0

>  <SCORE.SYSTEM.norm>
0

>  <SCORE.heavy>
36

>  <SCORE.norm>
0.49559

>  <RMSD>
27.674

$$$$
2f4u_lig
 OpenBabel11021811433D
libRbt.so/2013.1/901 2013/11/27
 36 37  0  0  0  0  0  0  0  0999 V2000
   21.7133   24.2398    6.4013 C   0  0  2  0  0  0  0  0  0  0  0  0
   22.8935   24.6019    7.2099 O   0  0  0  0  0  0  0  0  0  0  0  0
   23.7437   25.7866   11.3049 C   0  0  2  0  0  0  0  0  0  0  0  0
   23.5922   26.4613   12.6227 N   0  0  0  0  0  0  0  0  0  0  0  0
   21.8927   24.9288    5.0131 C   0  0  2  0  0  0  0  0  0  0  0  0
   23.1323   24.5157    4.3297 N   0  0  0  0  0  0  0  0  0  0  0  0
   23.8466   26.8221   10.1301 C   0  0  0  0  0  0  0  0  0  0  0  0
   22.4112   27.7970   12.5306 C   0  0  0  0  0  0  0  0  0  0  0  0
   22.8405   28.0839   13.9352 C   0  0  1  0  0  0  0  0  0  0  0  0
   22.5070   29.5526   14.2200 C   0  0  0  0  0  0  0  0  0  0  0  0
   21.0112   29.8828   14.3771 C   0  0  0  0  0  0  0  0  0  0  0  0
   20.3523   29.6856   13.0845 N   0  0  0  0  0  0  0  0  0  0  0  0
   22.1085   27.2997   14.8371 O   0  0  0  0  0  0  0  0  0  0  0  0
   22.0132   22.8868   12.9664 C   0  0  0  0  0  0  0  0  0  0  0  0
   20.4971   22.9640   13.0674 C   0  0  0  0  0  0  0  0  0  0  0  0
   21.8823   26.4805    5.2146 C   0  0  1  0  0  0  0  0  0  0  0  0
   19.8962   24.0754   12.3027 N   0  0  0  0  0  0  0  0  0  0  0  0
   22.0545   27.1588    3.9729 O   0  0  0  0  0  0  0  0  0  0  0  0
   23.9476   26.1126    8.7644 C   0  0  2  0  0  0  0  0  0  0  0  0
   23.9974   27.0745    7.6705 N   0  0  0  0  0  0  0  0  0  0  0  0
   18.1378   25.8376   12.3522 C   0  0  0  0  0  0  0  0  0  0  0  0
   18.4329   26.4941   10.9701 C   0  0  0  0  0  0  0  0  0  0  0  0
   18.4321   24.3151   12.3829 C   0  0  0  0  0  0  0  0  0  0  0  0
   19.8976   26.5525   10.6828 N   0  0  0  0  0  0  0  0  0  0  0  0
   21.7628   28.2110   11.7759 O   0  0  0  0  0  0  0  0  0  0  0  0
   20.5513   26.8692    5.8886 C   0  0  2  0  0  0  0  0  0  0  0  0
   20.4482   28.2711    6.1247 O   0  0  0  0  0  0  0  0  0  0  0  0
   22.7501   25.2090    8.5488 C   0  0  2  0  0  0  0  0  0  0  0  0
   20.3706   26.1180    7.2199 C   0  0  2  0  0  0  0  0  0  0  0  0
   20.4846   24.7034    7.0295 O   0  0  0  0  0  0  0  0  0  0  0  0
   22.6729   24.1343    9.7079 C   0  0  2  0  0  0  0  0  0  0  0  0
   21.5004   23.2896    9.4847 O   0  0  0  0  0  0  0  0  0  0  0  0
   19.0401   26.4186    7.8567 C   0  0  0  0  0  0  0  0  0  0  0  0
   18.0116   26.0826    7.0056 O   0  0  0  0  0  0  0  0  0  0  0  0
   22.5503   24.8791   11.0803 C   0  0  1  0  0  0  0  0  0  0  0  0
   22.4721   23.9885   12.1549 O   0  0  0  0  0  0  0  0  0  0  0  0
  1  2  1  1  0  0  0
  1  5  1  0  0  0  0
  1 30  1  0  0  0  0
  3  4  1  1  0  0  0
  3  7  1  0  0  0  0
  3 35  1  0  0  0  0
  5  6  1  1  0  0  0
  5 16  1  0  0  0  0
  7 19  1  0  0  0  0
  8  4  1  0  0  0  0
  8 25  2  0  0  0  0
  9  8  1  6  0  0  0
  9 10  1  0  0  0  0
  9 13  1  0  0  0  0
 10 11  1  0  0  0  0
 11 12  1  0  0  0  0
 14 15  1  0  0  0  0
 14 36  1  0  0  0  0
 15 17  1  0  0  0  0
 16 18  1  6  0  0  0
 16 26  1  0  0  0  0
 17 23  1  0  0  0  0
 19 20  1  6  0  0  0
 19 28  1  0  0  0  0
 21 22  1  0  0  0  0
 21 23  1  0  0  0  0
 22 24  1  0  0  0  0
 26 27  1  1  0  0  0
 26 29  1  0  0  0  0
 28  2  1  6  0  0  0
 28 31  1  0  0  0  0
 29 30  1  0  0  0  0
 29 33  1  6  0  0  0
 31 32  1  6  0  0  0
 31 35  1  0  0  0  0
 33 34  1  0  0  0  0
 35 36  1  1  0  0  0
M  END
>  <CHROM.1>
126.51860597,44.05619125,157.60325829,71.65454555,-66.97183527,1.90057764
-48.45347056,-176.25346283,143.49503286,-70.02375590,69.46046567,-149.33889434
58.19300854,-175.04163377,21.46868060,26.04664046,9.82403378,1.50877350,-1.34773107
-1.78873598

>  <Name>
2f4u_lig

>  <RI>
0

>  <Rbt.Current_Directory>
/home/itssahil/PROJECTS/Mol_Feturizer/New_Systems/rnas/2f4u

>  <Rbt.Executable>
rbdock ($Id: //depot/dev/client3/rdock/2013.1/src/exe/rbdock.cxx#4 $)

>  <Rbt.Library>
libRbt.so (2013.1, Build901 2013/11/27)

>  <Rbt.Parameter_File>
/export/apps/rDock/src/rDock_2013.1_src/data/scripts/dock_solv.prm

>  <Rbt.Receptor>
prm/blind_docking_40.prm

>  <SCORE>
13.2575

>  <SCORE.INTER>
4.03258

>  <SCORE.INTER.CONST>
1

>  <SCORE.INTER.POLAR>
0

>  <SCORE.INTER.ROT>
14

>  <SCORE.INTER.SOLV>
10.5455

>  <SCORE.INTER.VDW>
-13.7601

>  <SCORE.INTER.norm>
0.112016

>  <SCORE.INTRA>
4.70166

>  <SCORE.INTRA.DIHEDRAL>
-5.803

>  <SCORE.INTRA.DIHEDRAL.0>
26.3805

>  <SCORE.INTRA.POLAR>
0

>  <SCORE.INTRA.POLAR.0>
0

>  <SCORE.INTRA.REPUL>
0

>  <SCORE.INTRA.REPUL.0>
0

>  <SCORE.INTRA.SOLV>
17.9158

>  <SCORE.INTRA.SOLV.lig_0>
-98.5587

>  <SCORE.INTRA.VDW>
-1.35476

>  <SCORE.INTRA.VDW.0>
-2.91167

>  <SCORE.INTRA.norm>
0.130602

>  <SCORE.RESTR>
4.52324

>  <SCORE.RESTR.CAVITY>
4.52324

>  <SCORE.RESTR.norm>
0.125646

>  <SCORE.SYSTEM>
0

>  <SCORE.SYSTEM.CONST>
0

>  <SCORE.SYSTEM.DIHEDRAL>
0

>  <SCORE.SYSTEM.SOLV>
0

>  <SCORE.SYSTEM.norm>
0

>  <SCORE.heavy>
36

>  <SCORE.norm>
0.368263

>  <RMSD>
27.683

$$$$
2f4u_lig
 OpenBabel11021811433D
libRbt.so/2013.1/901 2013/11/27
 36 37  0  0  0  0  0  0  0  0999 V2000
   21.4135   26.1011    5.4746 C   0  0  2  0  0  0  0  0  0  0  0  0
   20.5460   25.3109    6.3695 O   0  0  0  0  0  0  0  0  0  0  0  0
   21.0987   26.9922   10.3398 C   0  0  2  0  0  0  0  0  0  0  0  0
   20.7726   27.4695   11.7111 N   0  0  0  0  0  0  0  0  0  0  0  0
   21.9778   25.1114    4.4087 C   0  0  2  0  0  0  0  0  0  0  0  0
   20.9151   24.4412    3.6368 N   0  0  0  0  0  0  0  0  0  0  0  0
   20.2816   27.7654    9.2454 C   0  0  0  0  0  0  0  0  0  0  0  0
   21.3037   29.1573   11.9491 C   0  0  0  0  0  0  0  0  0  0  0  0
   20.8857   28.9386   13.3693 C   0  0  1  0  0  0  0  0  0  0  0  0
   22.0189   28.1740   14.0626 C   0  0  0  0  0  0  0  0  0  0  0  0
   21.5863   27.1754   15.1521 C   0  0  0  0  0  0  0  0  0  0  0  0
   20.9195   26.0424   14.5072 N   0  0  0  0  0  0  0  0  0  0  0  0
   20.7378   30.1673   14.0273 O   0  0  0  0  0  0  0  0  0  0  0  0
   22.0543   24.5675   12.5610 C   0  0  0  0  0  0  0  0  0  0  0  0
   23.4524   25.1621   12.6430 C   0  0  0  0  0  0  0  0  0  0  0  0
   22.8698   24.0473    5.1301 C   0  0  1  0  0  0  0  0  0  0  0  0
   23.5335   26.5759   12.2239 N   0  0  0  0  0  0  0  0  0  0  0  0
   23.4024   23.1096    4.1982 O   0  0  0  0  0  0  0  0  0  0  0  0
   20.5856   27.2258    7.8330 C   0  0  2  0  0  0  0  0  0  0  0  0
   19.7928   27.9133    6.8215 N   0  0  0  0  0  0  0  0  0  0  0  0
   25.2369   27.9546   11.0417 C   0  0  0  0  0  0  0  0  0  0  0  0
   24.7813   29.2745   11.7334 C   0  0  0  0  0  0  0  0  0  0  0  0
   24.0949   26.9159   10.8909 C   0  0  0  0  0  0  0  0  0  0  0  0
   24.6079   29.1000   13.2068 N   0  0  0  0  0  0  0  0  0  0  0  0
   21.7664   29.9196   11.3439 O   0  0  0  0  0  0  0  0  0  0  0  0
   23.9907   24.7905    5.8840 C   0  0  2  0  0  0  0  0  0  0  0  0
   24.8578   23.9031    6.5857 O   0  0  0  0  0  0  0  0  0  0  0  0
   20.2742   25.7445    7.7552 C   0  0  2  0  0  0  0  0  0  0  0  0
   23.4023   25.8108    6.8751 C   0  0  2  0  0  0  0  0  0  0  0  0
   22.5096   26.7129    6.2121 O   0  0  0  0  0  0  0  0  0  0  0  0
   21.1334   24.9583    8.8267 C   0  0  2  0  0  0  0  0  0  0  0  0
   20.7999   23.5372    8.7417 O   0  0  0  0  0  0  0  0  0  0  0  0
   24.4780   26.6075    7.5637 C   0  0  0  0  0  0  0  0  0  0  0  0
   25.1944   25.8068    8.4244 O   0  0  0  0  0  0  0  0  0  0  0  0
   20.7913   25.5103   10.2521 C   0  0  1  0  0  0  0  0  0  0  0  0
   21.5129   24.8558   11.2547 O   0  0  0  0  0  0  0  0  0  0  0  0
  1  2  1  1  0  0  0
  1  5  1  0  0  0  0
  1 30  1  0  0  0  0
  3  4  1  1  0  0  0
  3  7  1  0  0  0  0
  3 35  1  0  0  0  0
  5  6  1  1  0  0  0
  5 16  1  0  0  0  0
  7 19  1  0  0  0  0
  8  4  1  0  0  0  0
  8 25  2  0  0  0  0
  9  8  1  6  0  0  0
  9 10  1  0  0  0  0
  9 13  1  0  0  0  0
 10 11  1  0  0  0  0
 11 12  1  0  0  0  0
 14 15  1  0  0  0  0
 14 36  1  0  0  0  0
 15 17  1  0  0  0  0
 16 18  1  6  0  0  0
 16 26  1  0  0  0  0
 17 23  1  0  0  0  0
 19 20  1  6  0  0  0
 19 28  1  0  0  0  0
 21 22  1  0  0  0  0
 21 23  1  0  0  0  0
 22 24  1  0  0  0  0
 26 27  1  1  0  0  0
 26 29  1  0  0  0  0
 28  2  1  6  0  0  0
 28 31  1  0  0  0  0
 29 30  1  0  0  0  0
 29 33  1  6  0  0  0
 31 32  1  1  0  0  0
 31 35  1  0  0  0  0
 33 34  1  0  0  0  0
 35 36  1  1  0  0  0
M  END
>  <CHROM.1>
155.45814720,-66.05947691,80.11304096,-146.35736988,70.23648267,49.99320217
-95.96429786,-103.56332000,-126.35309510,75.38132041,-58.47859256,19.79608038
-68.95550149,47.61441643,22.23144339,26.45010039,9.50115913,1.53795708,0.19812289
-1.96040977

>  <Name>
2f4u_lig

>  <RI>
0

>  <Rbt.Current_Directory>
/home/itssahil/PROJECTS/Mol_Feturizer/New_Systems/rnas/2f4u

>  <Rbt.Executable>
rbdock ($Id: //depot/dev/client3/rdock/2013.1/src/exe/rbdock.cxx#4 $)

>  <Rbt.Library>
libRbt.so (2013.1, Build901 2013/11/27)

>  <Rbt.Parameter_File>
/export/apps/rDock/src/rDock_2013.1_src/data/scripts/dock_solv.prm

>  <Rbt.Receptor>
prm/blind_docking_60.prm

>  <SCORE>
3.9043

>  <SCORE.INTER>
-5.6181

>  <SCORE.INTER.CONST>
1

>  <SCORE.INTER.POLAR>
-1.03923

>  <SCORE.INTER.ROT>
14

>  <SCORE.INTER.SOLV>
16.4559

>  <SCORE.INTER.VDW>
-18.6999

>  <SCORE.INTER.norm>
-0.156058

>  <SCORE.INTRA>
6.18079

>  <SCORE.INTRA.DIHEDRAL>
-4.47182

>  <SCORE.INTRA.DIHEDRAL.0>
26.3805

>  <SCORE.INTRA.POLAR>
0

>  <SCORE.INTRA.POLAR.0>
0

>  <SCORE.INTRA.REPUL>
0

>  <SCORE.INTRA.REPUL.0>
0

>  <SCORE.INTRA.SOLV>
17.5824

>  <SCORE.INTRA.SOLV.lig_0>
-98.5587

>  <SCORE.INTRA.VDW>
-0.374489

>  <SCORE.INTRA.VDW.0>
-2.91167

>  <SCORE.INTRA.norm>
0.171689

>  <SCORE.RESTR>
3.34161

>  <SCORE.RESTR.CAVITY>
3.34161

>  <SCORE.RESTR.norm>
0.0928224

>  <SCORE.SYSTEM>
0

>  <SCORE.SYSTEM.CONST>
0

>  <SCORE.SYSTEM.DIHEDRAL>
0

>  <SCORE.SYSTEM.SOLV>
0

>  <SCORE.SYSTEM.norm>
0

>  <SCORE.heavy>
36

>  <SCORE.norm>
0.108453

>  <RMSD>
27.699

$$$$
2f4u_lig
 OpenBabel11021811433D
libRbt.so/2013.1/901 2013/11/27
 36 37  0  0  0  0  0  0  0  0999 V2000
   21.2082   26.7197   13.7636 C   0  0  2  0  0  0  0  0  0  0  0  0
   20.6561   27.1542   12.4659 O   0  0  0  0  0  0  0  0  0  0  0  0
   21.1235   26.2485    8.2402 C   0  0  2  0  0  0  0  0  0  0  0  0
   21.7686   25.8342    6.9646 N   0  0  0  0  0  0  0  0  0  0  0  0
   22.2256   27.8161   14.2074 C   0  0  2  0  0  0  0  0  0  0  0  0
   21.6070   29.1489   14.3306 N   0  0  0  0  0  0  0  0  0  0  0  0
   21.8466   27.4844    8.8827 C   0  0  0  0  0  0  0  0  0  0  0  0
   23.3096   24.9853    7.2680 C   0  0  0  0  0  0  0  0  0  0  0  0
   23.4593   25.0234    5.7794 C   0  0  1  0  0  0  0  0  0  0  0  0
   24.9586   24.9381    5.4724 C   0  0  0  0  0  0  0  0  0  0  0  0
   25.8251   26.0793    6.0365 C   0  0  0  0  0  0  0  0  0  0  0  0
   25.5487   27.2963    5.2707 N   0  0  0  0  0  0  0  0  0  0  0  0
   22.8430   23.9059    5.2001 O   0  0  0  0  0  0  0  0  0  0  0  0
   19.4992   23.2110    7.9522 C   0  0  0  0  0  0  0  0  0  0  0  0
   18.1793   23.4856    8.6572 C   0  0  0  0  0  0  0  0  0  0  0  0
   23.4000   27.8628   13.1743 C   0  0  1  0  0  0  0  0  0  0  0  0
   17.3893   24.5794    8.0566 N   0  0  0  0  0  0  0  0  0  0  0  0
   24.3546   28.8596   13.5296 O   0  0  0  0  0  0  0  0  0  0  0  0
   21.2050   27.8709   10.2309 C   0  0  2  0  0  0  0  0  0  0  0  0
   21.9051   28.9899   10.8490 N   0  0  0  0  0  0  0  0  0  0  0  0
   18.7625   26.0104    6.5511 C   0  0  0  0  0  0  0  0  0  0  0  0
   19.1698   27.4641    6.1651 C   0  0  0  0  0  0  0  0  0  0  0  0
   17.9992   25.9250    7.8986 C   0  0  0  0  0  0  0  0  0  0  0  0
   19.9880   27.5001    4.9159 N   0  0  0  0  0  0  0  0  0  0  0  0
   23.8670   24.6718    8.1354 O   0  0  0  0  0  0  0  0  0  0  0  0
   24.0436   26.4630   13.1139 C   0  0  2  0  0  0  0  0  0  0  0  0
   25.1252   26.3993   12.1877 O   0  0  0  0  0  0  0  0  0  0  0  0
   21.2437   26.6978   11.1899 C   0  0  2  0  0  0  0  0  0  0  0  0
   22.9989   25.3943   12.7450 C   0  0  2  0  0  0  0  0  0  0  0  0
   21.8843   25.4361   13.6429 O   0  0  0  0  0  0  0  0  0  0  0  0
   20.4737   25.4658   10.5623 C   0  0  2  0  0  0  0  0  0  0  0  0
   20.5426   24.3452   11.4991 O   0  0  0  0  0  0  0  0  0  0  0  0
   23.5858   24.0082   12.7605 C   0  0  0  0  0  0  0  0  0  0  0  0
   22.6399   23.0801   12.3875 O   0  0  0  0  0  0  0  0  0  0  0  0
   21.1565   25.0807    9.2064 C   0  0  1  0  0  0  0  0  0  0  0  0
   20.5294   23.9914    8.5944 O   0  0  0  0  0  0  0  0  0  0  0  0
  1  2  1  6  0  0  0
  1  5  1  0  0  0  0
  1 30  1  0  0  0  0
  3  4  1  6  0  0  0
  3  7  1  0  0  0  0
  3 35  1  0  0  0  0
  5  6  1  6  0  0  0
  5 16  1  0  0  0  0
  7 19  1  0  0  0  0
  8  4  1  0  0  0  0
  8 25  2  0  0  0  0
  9  8  1  1  0  0  0
  9 10  1  0  0  0  0
  9 13  1  0  0  0  0
 10 11  1  0  0  0  0
 11 12  1  0  0  0  0
 14 15  1  0  0  0  0
 14 36  1  0  0  0  0
 15 17  1  0  0  0  0
 16 18  1  1  0  0  0
 16 26  1  0  0  0  0
 17 23  1  0  0  0  0
 19 20  1  1  0  0  0
 19 28  1  0  0  0  0
 21 22  1  0  0  0  0
 21 23  1  0  0  0  0
 22 24  1  0  0  0  0
 26 27  1  6  0  0  0
 26 29  1  0  0  0  0
 28  2  1  1  0  0  0
 28 31  1  0  0  0  0
 29 30  1  0  0  0  0
 29 33  1  1  0  0  0
 31 32  1  1  0  0  0
 31 35  1  0  0  0  0
 33 34  1  0  0  0  0
 35 36  1  6  0  0  0
M  END
>  <CHROM.1>
93.79143292,74.84770238,155.40957926,-60.90720451,-71.92234939,92.19844073
-41.44284840,-55.93131861,87.23531234,175.82982957,167.64670827,-141.60887439
-178.16779402,-58.49950060,21.85479983,25.95491577,9.68315799,1.41071437
0.18053192,1.38952189

>  <Name>
2f4u_lig

>  <RI>
0

>  <Rbt.Current_Directory>
/home/itssahil/PROJECTS/Mol_Feturizer/New_Systems/rnas/2f4u

>  <Rbt.Executable>
rbdock ($Id: //depot/dev/client3/rdock/2013.1/src/exe/rbdock.cxx#4 $)

>  <Rbt.Library>
libRbt.so (2013.1, Build901 2013/11/27)

>  <Rbt.Parameter_File>
/export/apps/rDock/src/rDock_2013.1_src/data/scripts/dock_solv.prm

>  <Rbt.Receptor>
prm/blind_docking_100.prm

>  <SCORE>
-0.467818

>  <SCORE.INTER>
-2.26887

>  <SCORE.INTER.CONST>
1

>  <SCORE.INTER.POLAR>
-1.03923

>  <SCORE.INTER.ROT>
14

>  <SCORE.INTER.SOLV>
11.8669

>  <SCORE.INTER.VDW>
-14.9374

>  <SCORE.INTER.norm>
-0.0630243

>  <SCORE.INTRA>
0.403011

>  <SCORE.INTRA.DIHEDRAL>
-9.10313

>  <SCORE.INTRA.DIHEDRAL.0>
26.3805

>  <SCORE.INTRA.POLAR>
0

>  <SCORE.INTRA.POLAR.0>
0

>  <SCORE.INTRA.REPUL>
0

>  <SCORE.INTRA.REPUL.0>
0

>  <SCORE.INTRA.SOLV>
9.39621

>  <SCORE.INTRA.SOLV.lig_0>
-98.5587

>  <SCORE.INTRA.VDW>
0.256471

>  <SCORE.INTRA.VDW.0>
-2.91167

>  <SCORE.INTRA.norm>
0.0111947

>  <SCORE.RESTR>
1.39805

>  <SCORE.RESTR.CAVITY>
1.39805

>  <SCORE.RESTR.norm>
0.0388346

>  <SCORE.SYSTEM>
0

>  <SCORE.SYSTEM.CONST>
0

>  <SCORE.SYSTEM.DIHEDRAL>
0

>  <SCORE.SYSTEM.SOLV>
0

>  <SCORE.SYSTEM.norm>
0

>  <SCORE.heavy>
36

>  <SCORE.norm>
-0.0129949

>  <RMSD>
27.710

$$$$
2f4u_lig
 OpenBabel11021811433D
libRbt.so/2013.1/901 2013/11/27
 36 37  0  0  0  0  0  0  0  0999 V2000
   19.1939   24.3523   11.7445 C   0  0  2  0  0  0  0  0  0  0  0  0
   19.0795   25.6882   11.1279 O   0  0  0  0  0  0  0  0  0  0  0  0
   21.6553   25.3515    7.6426 C   0  0  2  0  0  0  0  0  0  0  0  0
   22.2948   25.6891    6.3419 N   0  0  0  0  0  0  0  0  0  0  0  0
   18.6053   24.4716   13.1845 C   0  0  2  0  0  0  0  0  0  0  0  0
   17.2016   24.9229   13.1889 N   0  0  0  0  0  0  0  0  0  0  0  0
   20.0974   25.2187    7.5073 C   0  0  0  0  0  0  0  0  0  0  0  0
   21.9623   24.4348    5.1158 C   0  0  0  0  0  0  0  0  0  0  0  0
   22.9105   25.2185    4.2635 C   0  0  1  0  0  0  0  0  0  0  0  0
   24.2650   24.5030    4.3168 C   0  0  0  0  0  0  0  0  0  0  0  0
   24.8559   24.2889    5.7226 C   0  0  0  0  0  0  0  0  0  0  0  0
   25.0926   25.5987    6.3329 N   0  0  0  0  0  0  0  0  0  0  0  0
   22.4810   25.2156    2.9293 O   0  0  0  0  0  0  0  0  0  0  0  0
   24.6762   27.0931    9.0463 C   0  0  0  0  0  0  0  0  0  0  0  0
   24.7493   27.2995   10.5519 C   0  0  0  0  0  0  0  0  0  0  0  0
   19.4905   25.4624   14.0112 C   0  0  1  0  0  0  0  0  0  0  0  0
   24.2387   28.6080   11.0080 N   0  0  0  0  0  0  0  0  0  0  0  0
   18.9868   25.6151   15.3357 O   0  0  0  0  0  0  0  0  0  0  0  0
   19.4392   24.9236    8.8705 C   0  0  2  0  0  0  0  0  0  0  0  0
   17.9886   24.8454    8.7523 N   0  0  0  0  0  0  0  0  0  0  0  0
   23.1854   29.0935   13.2114 C   0  0  0  0  0  0  0  0  0  0  0  0
   22.0740   29.9557   12.5410 C   0  0  0  0  0  0  0  0  0  0  0  0
   24.5062   29.0566   12.3990 C   0  0  0  0  0  0  0  0  0  0  0  0
   20.8982   30.1473   13.4422 N   0  0  0  0  0  0  0  0  0  0  0  0
   21.3927   23.5209    5.0728 O   0  0  0  0  0  0  0  0  0  0  0  0
   20.9360   24.9262   14.0168 C   0  0  2  0  0  0  0  0  0  0  0  0
   21.8278   25.7692   14.7418 O   0  0  0  0  0  0  0  0  0  0  0  0
   19.7769   26.0143    9.8673 C   0  0  2  0  0  0  0  0  0  0  0  0
   21.4617   24.7509   12.5807 C   0  0  2  0  0  0  0  0  0  0  0  0
   20.5832   23.9224   11.8112 O   0  0  0  0  0  0  0  0  0  0  0  0
   21.3466   26.1167   10.0398 C   0  0  2  0  0  0  0  0  0  0  0  0
   21.6434   27.1867   10.9911 O   0  0  0  0  0  0  0  0  0  0  0  0
   22.8419   24.1504   12.5587 C   0  0  0  0  0  0  0  0  0  0  0  0
   23.1675   23.7372   11.2865 O   0  0  0  0  0  0  0  0  0  0  0  0
   21.9882   26.4369    8.6473 C   0  0  1  0  0  0  0  0  0  0  0  0
   23.3796   26.5473    8.7241 O   0  0  0  0  0  0  0  0  0  0  0  0
  1  2  1  1  0  0  0
  1  5  1  0  0  0  0
  1 30  1  0  0  0  0
  3  4  1  6  0  0  0
  3  7  1  0  0  0  0
  3 35  1  0  0  0  0
  5  6  1  6  0  0  0
  5 16  1  0  0  0  0
  7 19  1  0  0  0  0
  8  4  1  0  0  0  0
  8 25  2  0  0  0  0
  9  8  1  1  0  0  0
  9 10  1  0  0  0  0
  9 13  1  0  0  0  0
 10 11  1  0  0  0  0
 11 12  1  0  0  0  0
 14 15  1  0  0  0  0
 14 36  1  0  0  0  0
 15 17  1  0  0  0  0
 16 18  1  1  0  0  0
 16 26  1  0  0  0  0
 17 23  1  0  0  0  0
 19 20  1  6  0  0  0
 19 28  1  0  0  0  0
 21 22  1  0  0  0  0
 21 23  1  0  0  0  0
 22 24  1  0  0  0  0
 26 27  1  1  0  0  0
 26 29  1  0  0  0  0
 28  2  1  1  0  0  0
 28 31  1  0  0  0  0
 29 30  1  0  0  0  0
 29 33  1  1  0  0  0
 31 32  1  1  0  0  0
 31 35  1  0  0  0  0
 33 34  1  0  0  0  0
 35 36  1  1  0  0  0
M  END
>  <CHROM.1>
167.74724044,-59.69036106,100.14266868,-56.19155608,-62.13192884,-87.63590247
56.79167260,-167.30654519,-112.10569218,-171.04202130,-54.55182000,50.94526476
166.89900595,166.47762988,21.68642272,25.83398600,9.98799263,1.92166764,0.58255391
1.21572180

>  <Name>
2f4u_lig

>  <RI>
0

>  <Rbt.Current_Directory>
/home/itssahil/PROJECTS/Mol_Feturizer/New_Systems/rnas/2f4u

>  <Rbt.Executable>
rbdock ($Id: //depot/dev/client3/rdock/2013.1/src/exe/rbdock.cxx#4 $)

>  <Rbt.Library>
libRbt.so (2013.1, Build901 2013/11/27)

>  <Rbt.Parameter_File>
/export/apps/rDock/src/rDock_2013.1_src/data/scripts/dock_solv.prm

>  <Rbt.Receptor>
prm/blind_docking_60.prm

>  <SCORE>
-1.85086

>  <SCORE.INTER>
-0.762216

>  <SCORE.INTER.CONST>
1

>  <SCORE.INTER.POLAR>
0

>  <SCORE.INTER.ROT>
14

>  <SCORE.INTER.SOLV>
8.08212

>  <SCORE.INTER.VDW>
-16.1355

>  <SCORE.INTER.norm>
-0.0211727

>  <SCORE.INTRA>
-7.27503

>  <SCORE.INTRA.DIHEDRAL>
-17.4268

>  <SCORE.INTRA.DIHEDRAL.0>
26.3805

>  <SCORE.INTRA.POLAR>
0

>  <SCORE.INTRA.POLAR.0>
0

>  <SCORE.INTRA.REPUL>
0.00970854

>  <SCORE.INTRA.REPUL.0>
0

>  <SCORE.INTRA.SOLV>
8.20845

>  <SCORE.INTRA.SOLV.lig_0>
-98.5587

>  <SCORE.INTRA.VDW>
-2.71442

>  <SCORE.INTRA.VDW.0>
-2.91167

>  <SCORE.INTRA.norm>
-0.202084

>  <SCORE.RESTR>
6.18638

>  <SCORE.RESTR.CAVITY>
6.18638

>  <SCORE.RESTR.norm>
0.171844

>  <SCORE.SYSTEM>
0

>  <SCORE.SYSTEM.CONST>
0

>  <SCORE.SYSTEM.DIHEDRAL>
0

>  <SCORE.SYSTEM.SOLV>
0

>  <SCORE.SYSTEM.norm>
0

>  <SCORE.heavy>
36

>  <SCORE.norm>
-0.0514128

>  <RMSD>
27.716

$$$$
2f4u_lig
 OpenBabel11021811433D
libRbt.so/2013.1/901 2013/11/27
 36 37  0  0  0  0  0  0  0  0999 V2000
   23.1488   29.8700   13.2223 C   0  0  2  0  0  0  0  0  0  0  0  0
   24.0792   28.7354   13.3806 O   0  0  0  0  0  0  0  0  0  0  0  0
   23.6029   26.5281    9.6663 C   0  0  2  0  0  0  0  0  0  0  0  0
   23.9121   25.5999    8.5449 N   0  0  0  0  0  0  0  0  0  0  0  0
   22.2232   29.8692   14.4782 C   0  0  2  0  0  0  0  0  0  0  0  0
   22.9767   29.9925   15.7396 N   0  0  0  0  0  0  0  0  0  0  0  0
   24.6792   27.6630    9.7953 C   0  0  0  0  0  0  0  0  0  0  0  0
   24.6390   26.4731    7.1677 C   0  0  0  0  0  0  0  0  0  0  0  0
   24.5316   25.1581    6.4612 C   0  0  1  0  0  0  0  0  0  0  0  0
   23.4194   25.2951    5.4154 C   0  0  0  0  0  0  0  0  0  0  0  0
   23.4890   24.3153    4.2295 C   0  0  0  0  0  0  0  0  0  0  0  0
   23.7793   22.9769    4.7475 N   0  0  0  0  0  0  0  0  0  0  0  0
   25.7227   24.8738    5.7796 O   0  0  0  0  0  0  0  0  0  0  0  0
   21.8687   23.6321   10.1871 C   0  0  0  0  0  0  0  0  0  0  0  0
   20.8056   24.2227    9.2729 C   0  0  0  0  0  0  0  0  0  0  0  0
   21.3804   28.5507   14.4831 C   0  0  1  0  0  0  0  0  0  0  0  0
   21.3409   24.8361    8.0407 N   0  0  0  0  0  0  0  0  0  0  0  0
   20.5231   28.4958   15.6204 O   0  0  0  0  0  0  0  0  0  0  0  0
   24.3798   28.5863   10.9937 C   0  0  2  0  0  0  0  0  0  0  0  0
   25.4042   29.6127   11.1404 N   0  0  0  0  0  0  0  0  0  0  0  0
   19.8552   26.4180    6.8200 C   0  0  0  0  0  0  0  0  0  0  0  0
   18.4965   26.1335    7.5280 C   0  0  0  0  0  0  0  0  0  0  0  0
   21.0793   26.2717    7.7612 C   0  0  0  0  0  0  0  0  0  0  0  0
   18.3710   24.7025    7.9376 N   0  0  0  0  0  0  0  0  0  0  0  0
   24.9373   27.4877    6.9603 O   0  0  0  0  0  0  0  0  0  0  0  0
   20.5767   28.4885   13.1687 C   0  0  2  0  0  0  0  0  0  0  0  0
   19.7782   27.3118   13.0726 O   0  0  0  0  0  0  0  0  0  0  0  0
   24.3239   27.7835   12.2780 C   0  0  2  0  0  0  0  0  0  0  0  0
   21.5129   28.5648   11.9492 C   0  0  2  0  0  0  0  0  0  0  0  0
   22.3471   29.7267   12.0156 O   0  0  0  0  0  0  0  0  0  0  0  0
   23.2059   26.6690   12.1663 C   0  0  2  0  0  0  0  0  0  0  0  0
   23.1868   25.8998   13.4097 O   0  0  0  0  0  0  0  0  0  0  0  0
   20.7454   28.5890   10.6544 C   0  0  0  0  0  0  0  0  0  0  0  0
   21.6082   28.6612    9.5841 O   0  0  0  0  0  0  0  0  0  0  0  0
   23.5439   25.7338   10.9562 C   0  0  1  0  0  0  0  0  0  0  0  0
   22.5971   24.7174   10.7988 O   0  0  0  0  0  0  0  0  0  0  0  0
  1  2  1  1  0  0  0
  1  5  1  0  0  0  0
  1 30  1  0  0  0  0
  3  4  1  6  0  0  0
  3  7  1  0  0  0  0
  3 35  1  0  0  0  0
  5  6  1  1  0  0  0
  5 16  1  0  0  0  0
  7 19  1  0  0  0  0
  8  4  1  0  0  0  0
  8 25  2  0  0  0  0
  9  8  1  6  0  0  0
  9 10  1  0  0  0  0
  9 13  1  0  0  0  0
 10 11  1  0  0  0  0
 11 12  1  0  0  0  0
 14 15  1  0  0  0  0
 14 36  1  0  0  0  0
 15 17  1  0  0  0  0
 16 18  1  1  0  0  0
 16 26  1  0  0  0  0
 17 23  1  0  0  0  0
 19 20  1  1  0  0  0
 19 28  1  0  0  0  0
 21 22  1  0  0  0  0
 21 23  1  0  0  0  0
 22 24  1  0  0  0  0
 26 27  1  6  0  0  0
 26 29  1  0  0  0  0
 28  2  1  1  0  0  0
 28 31  1  0  0  0  0
 29 30  1  0  0  0  0
 29 33  1  6  0  0  0
 31 32  1  1  0  0  0
 31 35  1  0  0  0  0
 33 34  1  0  0  0  0
 35 36  1  6  0  0  0
M  END
>  <CHROM.1>
132.18714107,-35.74074076,108.55784723,156.84316872,44.78769229,71.77870806
-83.66631285,-121.02882186,-96.27910953,-66.65356325,73.53447734,39.48857093
179.82679104,44.31461050,22.54759886,26.89825035,10.16268217,-1.66825790
-0.25515749,-2.07531827

>  <Name>
2f4u_lig

>  <RI>
0

>  <Rbt.Current_Directory>
/home/itssahil/PROJECTS/Mol_Feturizer/New_Systems/rnas/2f4u

>  <Rbt.Executable>
rbdock ($Id: //depot/dev/client3/rdock/2013.1/src/exe/rbdock.cxx#4 $)

>  <Rbt.Library>
libRbt.so (2013.1, Build901 2013/11/27)

>  <Rbt.Parameter_File>
/export/apps/rDock/src/rDock_2013.1_src/data/scripts/dock_solv.prm

>  <Rbt.Receptor>
prm/blind_docking_100.prm

>  <SCORE>
12.0191

>  <SCORE.INTER>
1.5138

>  <SCORE.INTER.CONST>
1

>  <SCORE.INTER.POLAR>
-0.51973

>  <SCORE.INTER.ROT>
14

>  <SCORE.INTER.SOLV>
22.9273

>  <SCORE.INTER.VDW>
-17.8341

>  <SCORE.INTER.norm>
0.0420501

>  <SCORE.INTRA>
7.5778

>  <SCORE.INTRA.DIHEDRAL>
-5.77438

>  <SCORE.INTRA.DIHEDRAL.0>
26.3805

>  <SCORE.INTRA.POLAR>
0

>  <SCORE.INTRA.POLAR.0>
0

>  <SCORE.INTRA.REPUL>
0

>  <SCORE.INTRA.REPUL.0>
0

>  <SCORE.INTRA.SOLV>
11.5727

>  <SCORE.INTRA.SOLV.lig_0>
-98.5587

>  <SCORE.INTRA.VDW>
4.67863

>  <SCORE.INTRA.VDW.0>
-2.91167

>  <SCORE.INTRA.norm>
0.210494

>  <SCORE.RESTR>
2.92747

>  <SCORE.RESTR.CAVITY>
2.92747

>  <SCORE.RESTR.norm>
0.0813187

>  <SCORE.SYSTEM>
0

>  <SCORE.SYSTEM.CONST>
0

>  <SCORE.SYSTEM.DIHEDRAL>
0

>  <SCORE.SYSTEM.SOLV>
0

>  <SCORE.SYSTEM.norm>
0

>  <SCORE.heavy>
36

>  <SCORE.norm>
0.333863

>  <RMSD>
27.755

$$$$
2f4u_lig
 OpenBabel11021811433D
libRbt.so/2013.1/901 2013/11/27
 36 37  0  0  0  0  0  0  0  0999 V2000
   22.1130   25.7673    5.2709 C   0  0  2  0  0  0  0  0  0  0  0  0
   22.0425   25.3114    6.6727 O   0  0  0  0  0  0  0  0  0  0  0  0
   21.0168   26.8163   10.6196 C   0  0  2  0  0  0  0  0  0  0  0  0
   20.6371   27.7754   11.6924 N   0  0  0  0  0  0  0  0  0  0  0  0
   22.4212   24.5067    4.4047 C   0  0  2  0  0  0  0  0  0  0  0  0
   21.4014   23.4521    4.5532 N   0  0  0  0  0  0  0  0  0  0  0  0
   22.3685   27.2192    9.9314 C   0  0  0  0  0  0  0  0  0  0  0  0
   20.6037   29.4508   11.0764 C   0  0  0  0  0  0  0  0  0  0  0  0
   20.3667   29.8209   12.5070 C   0  0  1  0  0  0  0  0  0  0  0  0
   21.7290   30.1710   13.1161 C   0  0  0  0  0  0  0  0  0  0  0  0
   21.8699   29.9273   14.6300 C   0  0  0  0  0  0  0  0  0  0  0  0
   23.2099   29.3996   14.8943 N   0  0  0  0  0  0  0  0  0  0  0  0
   19.5597   30.9640   12.5862 O   0  0  0  0  0  0  0  0  0  0  0  0
   17.7194   25.6372   10.8936 C   0  0  0  0  0  0  0  0  0  0  0  0
   18.4090   24.4315   11.5143 C   0  0  0  0  0  0  0  0  0  0  0  0
   23.8290   23.9521    4.8035 C   0  0  1  0  0  0  0  0  0  0  0  0
   19.0613   24.7089   12.8100 N   0  0  0  0  0  0  0  0  0  0  0  0
   24.1543   22.7896    4.0458 O   0  0  0  0  0  0  0  0  0  0  0  0
   22.7246   26.2508    8.7851 C   0  0  2  0  0  0  0  0  0  0  0  0
   23.9563   26.6515    8.1168 N   0  0  0  0  0  0  0  0  0  0  0  0
   21.0723   23.2741   12.4980 C   0  0  0  0  0  0  0  0  0  0  0  0
   22.6114   23.2443   12.2560 C   0  0  0  0  0  0  0  0  0  0  0  0
   20.5434   24.6731   12.9088 C   0  0  0  0  0  0  0  0  0  0  0  0
   23.0313   22.0326   11.4901 N   0  0  0  0  0  0  0  0  0  0  0  0
   20.7554   29.9324   10.1244 O   0  0  0  0  0  0  0  0  0  0  0  0
   24.8660   25.0727    4.5886 C   0  0  2  0  0  0  0  0  0  0  0  0
   26.1878   24.6665    4.9347 O   0  0  0  0  0  0  0  0  0  0  0  0
   21.6131   26.2203    7.7550 C   0  0  2  0  0  0  0  0  0  0  0  0
   24.4943   26.3271    5.3996 C   0  0  2  0  0  0  0  0  0  0  0  0
   23.1639   26.7591    5.0939 O   0  0  0  0  0  0  0  0  0  0  0  0
   20.2596   25.7681    8.4390 C   0  0  2  0  0  0  0  0  0  0  0  0
   19.2032   25.7652    7.4280 O   0  0  0  0  0  0  0  0  0  0  0  0
   25.4473   27.4636    5.1419 C   0  0  0  0  0  0  0  0  0  0  0  0
   26.6734   27.2028    5.7108 O   0  0  0  0  0  0  0  0  0  0  0  0
   19.9102   26.7779    9.5842 C   0  0  1  0  0  0  0  0  0  0  0  0
   18.7182   26.4428   10.2330 O   0  0  0  0  0  0  0  0  0  0  0  0
  1  2  1  1  0  0  0
  1  5  1  0  0  0  0
  1 30  1  0  0  0  0
  3  4  1  1  0  0  0
  3  7  1  0  0  0  0
  3 35  1  0  0  0  0
  5  6  1  1  0  0  0
  5 16  1  0  0  0  0
  7 19  1  0  0  0  0
  8  4  1  0  0  0  0
  8 25  2  0  0  0  0
  9  8  1  6  0  0  0
  9 10  1  0  0  0  0
  9 13  1  0  0  0  0
 10 11  1  0  0  0  0
 11 12  1  0  0  0  0
 14 15  1  0  0  0  0
 14 36  1  0  0  0  0
 15 17  1  0  0  0  0
 16 18  1  6  0  0  0
 16 26  1  0  0  0  0
 17 23  1  0  0  0  0
 19 20  1  6  0  0  0
 19 28  1  0  0  0  0
 21 22  1  0  0  0  0
 21 23  1  0  0  0  0
 22 24  1  0  0  0  0
 26 27  1  1  0  0  0
 26 29  1  0  0  0  0
 28  2  1  6  0  0  0
 28 31  1  0  0  0  0
 29 30  1  0  0  0  0
 29 33  1  6  0  0  0
 31 32  1  6  0  0  0
 31 35  1  0  0  0  0
 33 34  1  0  0  0  0
 35 36  1  1  0  0  0
M  END
>  <CHROM.1>
-172.92434388,53.95562050,95.34943039,-151.74417166,141.10566836,80.82318614
24.74872961,-111.91512824,-58.91404199,-163.20754355,166.69269576,-123.46548662
-71.07129722,-75.23587361,21.89471047,26.29902685,9.03895851,-0.87429151
0.89267264,0.63288554

>  <Name>
2f4u_lig

>  <RI>
0

>  <Rbt.Current_Directory>
/home/itssahil/PROJECTS/Mol_Feturizer/New_Systems/rnas/2f4u

>  <Rbt.Executable>
rbdock ($Id: //depot/dev/client3/rdock/2013.1/src/exe/rbdock.cxx#4 $)

>  <Rbt.Library>
libRbt.so (2013.1, Build901 2013/11/27)

>  <Rbt.Parameter_File>
/export/apps/rDock/src/rDock_2013.1_src/data/scripts/dock_solv.prm

>  <Rbt.Receptor>
prm/blind_docking_100.prm

>  <SCORE>
2.54319

>  <SCORE.INTER>
0.198997

>  <SCORE.INTER.CONST>
1

>  <SCORE.INTER.POLAR>
-0.734261

>  <SCORE.INTER.ROT>
14

>  <SCORE.INTER.SOLV>
23.0589

>  <SCORE.INTER.VDW>
-18.0394

>  <SCORE.INTER.norm>
0.00552769

>  <SCORE.INTRA>
-0.592539

>  <SCORE.INTRA.DIHEDRAL>
-0.30684

>  <SCORE.INTRA.DIHEDRAL.0>
26.3805

>  <SCORE.INTRA.POLAR>
0

>  <SCORE.INTRA.POLAR.0>
0

>  <SCORE.INTRA.REPUL>
0

>  <SCORE.INTRA.REPUL.0>
0

>  <SCORE.INTRA.SOLV>
3.91113

>  <SCORE.INTRA.SOLV.lig_0>
-98.5587

>  <SCORE.INTRA.VDW>
-2.39469

>  <SCORE.INTRA.VDW.0>
-2.91167

>  <SCORE.INTRA.norm>
-0.0164594

>  <SCORE.RESTR>
2.93673

>  <SCORE.RESTR.CAVITY>
2.93673

>  <SCORE.RESTR.norm>
0.0815759

>  <SCORE.SYSTEM>
0

>  <SCORE.SYSTEM.CONST>
0

>  <SCORE.SYSTEM.DIHEDRAL>
0

>  <SCORE.SYSTEM.SOLV>
0

>  <SCORE.SYSTEM.norm>
0

>  <SCORE.heavy>
36

>  <SCORE.norm>
0.0706441

>  <RMSD>
27.763

$$$$
2f4u_lig
 OpenBabel11021811433D
libRbt.so/2013.1/901 2013/11/27
 36 37  0  0  0  0  0  0  0  0999 V2000
   21.7013   27.0755   13.3014 C   0  0  2  0  0  0  0  0  0  0  0  0
   22.6757   26.0664   12.8430 O   0  0  0  0  0  0  0  0  0  0  0  0
   21.9513   25.8468    8.5626 C   0  0  2  0  0  0  0  0  0  0  0  0
   22.1932   25.5848    7.1177 N   0  0  0  0  0  0  0  0  0  0  0  0
   20.8956   26.4231   14.4674 C   0  0  2  0  0  0  0  0  0  0  0  0
   21.7581   25.9948   15.5840 N   0  0  0  0  0  0  0  0  0  0  0  0
   22.9919   26.8636    9.1512 C   0  0  0  0  0  0  0  0  0  0  0  0
   23.8658   25.0278    6.8353 C   0  0  0  0  0  0  0  0  0  0  0  0
   23.5016   25.1235    5.3868 C   0  0  1  0  0  0  0  0  0  0  0  0
   24.0106   26.4776    4.8801 C   0  0  0  0  0  0  0  0  0  0  0  0
   25.4899   26.7903    5.1718 C   0  0  0  0  0  0  0  0  0  0  0  0
   26.3214   25.8290    4.4450 N   0  0  0  0  0  0  0  0  0  0  0  0
   24.1549   24.1231    4.6542 O   0  0  0  0  0  0  0  0  0  0  0  0
   19.8506   23.0892    8.3487 C   0  0  0  0  0  0  0  0  0  0  0  0
   19.2349   24.0073    7.3034 C   0  0  0  0  0  0  0  0  0  0  0  0
   20.0966   25.2002   13.9065 C   0  0  1  0  0  0  0  0  0  0  0  0
   18.8195   25.3248    7.8256 N   0  0  0  0  0  0  0  0  0  0  0  0
   19.3498   24.5604   14.9381 O   0  0  0  0  0  0  0  0  0  0  0  0
   22.7668   27.0857   10.6607 C   0  0  2  0  0  0  0  0  0  0  0  0
   23.7614   27.9949   11.2162 N   0  0  0  0  0  0  0  0  0  0  0  0
   19.9110   27.2945    6.7630 C   0  0  0  0  0  0  0  0  0  0  0  0
   20.0103   28.0855    5.4241 C   0  0  0  0  0  0  0  0  0  0  0  0
   18.6120   26.4558    6.8846 C   0  0  0  0  0  0  0  0  0  0  0  0
   18.8754   29.0424    5.2572 N   0  0  0  0  0  0  0  0  0  0  0  0
   24.7247   24.8043    7.4466 O   0  0  0  0  0  0  0  0  0  0  0  0
   19.1776   25.7037   12.7755 C   0  0  2  0  0  0  0  0  0  0  0  0
   18.4092   24.6558   12.1897 O   0  0  0  0  0  0  0  0  0  0  0  0
   22.8560   25.7697   11.4073 C   0  0  2  0  0  0  0  0  0  0  0  0
   19.9948   26.4062   11.6764 C   0  0  2  0  0  0  0  0  0  0  0  0
   20.7964   27.4572   12.2267 O   0  0  0  0  0  0  0  0  0  0  0  0
   21.7747   24.7597   10.8460 C   0  0  2  0  0  0  0  0  0  0  0  0
   21.8956   23.4954   11.5706 O   0  0  0  0  0  0  0  0  0  0  0  0
   19.1110   26.9792   10.6009 C   0  0  0  0  0  0  0  0  0  0  0  0
   18.4608   28.1027   11.0593 O   0  0  0  0  0  0  0  0  0  0  0  0
   22.0376   24.5355    9.3183 C   0  0  1  0  0  0  0  0  0  0  0  0
   21.1190   23.6460    8.7533 O   0  0  0  0  0  0  0  0  0  0  0  0
  1  2  1  6  0  0  0
  1  5  1  0  0  0  0
  1 30  1  0  0  0  0
  3  4  1  6  0  0  0
  3  7  1  0  0  0  0
  3 35  1  0  0  0  0
  5  6  1  1  0  0  0
  5 16  1  0  0  0  0
  7 19  1  0  0  0  0
  8  4  1  0  0  0  0
  8 25  2  0  0  0  0
  9  8  1  1  0  0  0
  9 10  1  0  0  0  0
  9 13  1  0  0  0  0
 10 11  1  0  0  0  0
 11 12  1  0  0  0  0
 14 15  1  0  0  0  0
 14 36  1  0  0  0  0
 15 17  1  0  0  0  0
 16 18  1  1  0  0  0
 16 26  1  0  0  0  0
 17 23  1  0  0  0  0
 19 20  1  1  0  0  0
 19 28  1  0  0  0  0
 21 22  1  0  0  0  0
 21 23  1  0  0  0  0
 22 24  1  0  0  0  0
 26 27  1  6  0  0  0
 26 29  1  0  0  0  0
 28  2  1  1  0  0  0
 28 31  1  0  0  0  0
 29 30  1  0  0  0  0
 29 33  1  6  0  0  0
 31 32  1  1  0  0  0
 31 35  1  0  0  0  0
 33 34  1  0  0  0  0
 35 36  1  6  0  0  0
M  END
>  <CHROM.1>
132.81768425,55.28222956,96.99407437,51.69336714,64.59970933,-67.93514228
65.94769168,160.72882265,-93.43602323,59.82325156,155.63290250,38.98077764
73.54191484,-63.71568402,21.45940796,25.86147657,9.48189923,-1.92378936,0.16196855
-1.50800356

>  <Name>
2f4u_lig

>  <RI>
0

>  <Rbt.Current_Directory>
/home/itssahil/PROJECTS/Mol_Feturizer/New_Systems/rnas/2f4u

>  <Rbt.Executable>
rbdock ($Id: //depot/dev/client3/rdock/2013.1/src/exe/rbdock.cxx#4 $)

>  <Rbt.Library>
libRbt.so (2013.1, Build901 2013/11/27)

>  <Rbt.Parameter_File>
/export/apps/rDock/src/rDock_2013.1_src/data/scripts/dock_solv.prm

>  <Rbt.Receptor>
prm/blind_docking_40.prm

>  <SCORE>
11.908

>  <SCORE.INTER>
7.02455

>  <SCORE.INTER.CONST>
1

>  <SCORE.INTER.POLAR>
0

>  <SCORE.INTER.ROT>
14

>  <SCORE.INTER.SOLV>
17.5553

>  <SCORE.INTER.VDW>
-14.1021

>  <SCORE.INTER.norm>
0.195126

>  <SCORE.INTRA>
1.90271

>  <SCORE.INTRA.DIHEDRAL>
-11.529

>  <SCORE.INTRA.DIHEDRAL.0>
26.3805

>  <SCORE.INTRA.POLAR>
0

>  <SCORE.INTRA.POLAR.0>
0

>  <SCORE.INTRA.REPUL>
0

>  <SCORE.INTRA.REPUL.0>
0

>  <SCORE.INTRA.SOLV>
8.56739

>  <SCORE.INTRA.SOLV.lig_0>
-98.5587

>  <SCORE.INTRA.VDW>
3.3835

>  <SCORE.INTRA.VDW.0>
-2.91167

>  <SCORE.INTRA.norm>
0.0528531

>  <SCORE.RESTR>
2.98072

>  <SCORE.RESTR.CAVITY>
2.98072

>  <SCORE.RESTR.norm>
0.0827977

>  <SCORE.SYSTEM>
0

>  <SCORE.SYSTEM.CONST>
0

>  <SCORE.SYSTEM.DIHEDRAL>
0

>  <SCORE.SYSTEM.SOLV>
0

>  <SCORE.SYSTEM.norm>
0

>  <SCORE.heavy>
36

>  <SCORE.norm>
0.330777

>  <RMSD>
27.763

$$$$
2f4u_lig
 OpenBabel11021811433D
libRbt.so/2013.1/901 2013/11/27
 36 37  0  0  0  0  0  0  0  0999 V2000
   21.9443   26.8580   13.8780 C   0  0  2  0  0  0  0  0  0  0  0  0
   21.8637   27.6959   12.6659 O   0  0  0  0  0  0  0  0  0  0  0  0
   21.8271   27.3005    8.3372 C   0  0  2  0  0  0  0  0  0  0  0  0
   21.9285   26.6715    6.9922 N   0  0  0  0  0  0  0  0  0  0  0  0
   23.2354   25.9931   13.7399 C   0  0  2  0  0  0  0  0  0  0  0  0
   24.4542   26.8105   13.5963 N   0  0  0  0  0  0  0  0  0  0  0  0
   23.1646   27.1615    9.1463 C   0  0  0  0  0  0  0  0  0  0  0  0
   22.5666   25.0080    7.1055 C   0  0  0  0  0  0  0  0  0  0  0  0
   22.5690   25.0593    5.6098 C   0  0  1  0  0  0  0  0  0  0  0  0
   24.0337   25.1072    5.1604 C   0  0  0  0  0  0  0  0  0  0  0  0
   24.7582   26.4488    5.3757 C   0  0  0  0  0  0  0  0  0  0  0  0
   26.0339   26.4098    4.6581 N   0  0  0  0  0  0  0  0  0  0  0  0
   22.0010   23.8917    5.0823 O   0  0  0  0  0  0  0  0  0  0  0  0
   18.1868   26.5006    7.8823 C   0  0  0  0  0  0  0  0  0  0  0  0
   17.2371   26.6513    9.0612 C   0  0  0  0  0  0  0  0  0  0  0  0
   23.0773   25.0436   12.5062 C   0  0  1  0  0  0  0  0  0  0  0  0
   17.4760   25.6900   10.1566 N   0  0  0  0  0  0  0  0  0  0  0  0
   24.2389   24.2369   12.3294 O   0  0  0  0  0  0  0  0  0  0  0  0
   23.0314   27.7672   10.5584 C   0  0  2  0  0  0  0  0  0  0  0  0
   24.2590   27.5975   11.3254 N   0  0  0  0  0  0  0  0  0  0  0  0
   19.3195   24.1214    9.5727 C   0  0  0  0  0  0  0  0  0  0  0  0
   19.6592   22.9684    8.5810 C   0  0  0  0  0  0  0  0  0  0  0  0
   17.7987   24.2757    9.8354 C   0  0  0  0  0  0  0  0  0  0  0  0
   18.9516   23.1303    7.2754 N   0  0  0  0  0  0  0  0  0  0  0  0
   22.8619   24.3407    7.8985 O   0  0  0  0  0  0  0  0  0  0  0  0
   21.8191   24.1791   12.7225 C   0  0  2  0  0  0  0  0  0  0  0  0
   21.5817   23.2810   11.6414 O   0  0  0  0  0  0  0  0  0  0  0  0
   21.9015   27.0984   11.3155 C   0  0  2  0  0  0  0  0  0  0  0  0
   20.5753   25.0625   12.9280 C   0  0  2  0  0  0  0  0  0  0  0  0
   20.7790   25.9934   13.9966 O   0  0  0  0  0  0  0  0  0  0  0  0
   20.5435   27.2792   10.5233 C   0  0  2  0  0  0  0  0  0  0  0  0
   19.4765   26.6100   11.2661 O   0  0  0  0  0  0  0  0  0  0  0  0
   19.3481   24.2421   13.2233 C   0  0  0  0  0  0  0  0  0  0  0  0
   18.2102   24.9965   13.0466 O   0  0  0  0  0  0  0  0  0  0  0  0
   20.6982   26.6385    9.1025 C   0  0  1  0  0  0  0  0  0  0  0  0
   19.5299   26.7567    8.3440 O   0  0  0  0  0  0  0  0  0  0  0  0
  1  2  1  6  0  0  0
  1  5  1  0  0  0  0
  1 30  1  0  0  0  0
  3  4  1  6  0  0  0
  3  7  1  0  0  0  0
  3 35  1  0  0  0  0
  5  6  1  6  0  0  0
  5 16  1  0  0  0  0
  7 19  1  0  0  0  0
  8  4  1  0  0  0  0
  8 25  2  0  0  0  0
  9  8  1  1  0  0  0
  9 10  1  0  0  0  0
  9 13  1  0  0  0  0
 10 11  1  0  0  0  0
 11 12  1  0  0  0  0
 14 15  1  0  0  0  0
 14 36  1  0  0  0  0
 15 17  1  0  0  0  0
 16 18  1  1  0  0  0
 16 26  1  0  0  0  0
 17 23  1  0  0  0  0
 19 20  1  1  0  0  0
 19 28  1  0  0  0  0
 21 22  1  0  0  0  0
 21 23  1  0  0  0  0
 22 24  1  0  0  0  0
 26 27  1  6  0  0  0
 26 29  1  0  0  0  0
 28  2  1  1  0  0  0
 28 31  1  0  0  0  0
 29 30  1  0  0  0  0
 29 33  1  1  0  0  0
 31 32  1  1  0  0  0
 31 35  1  0  0  0  0
 33 34  1  0  0  0  0
 35 36  1  6  0  0  0
M  END
>  <CHROM.1>
54.46316975,50.28909163,109.78113108,-73.94061999,-168.69689659,-62.37915314
56.11443503,-40.86631590,84.90569381,56.16795848,-150.84257783,-124.81264663
-163.80762458,162.05441511,21.39058586,25.66917479,9.91575956,-1.85646378
-0.22624699,-1.67027025

>  <Name>
2f4u_lig

>  <RI>
0

>  <Rbt.Current_Directory>
/home/itssahil/PROJECTS/Mol_Feturizer/New_Systems/rnas/2f4u

>  <Rbt.Executable>
rbdock ($Id: //depot/dev/client3/rdock/2013.1/src/exe/rbdock.cxx#4 $)

>  <Rbt.Library>
libRbt.so (2013.1, Build901 2013/11/27)

>  <Rbt.Parameter_File>
/export/apps/rDock/src/rDock_2013.1_src/data/scripts/dock_solv.prm

>  <Rbt.Receptor>
prm/blind_docking_40.prm

>  <SCORE>
15.2472

>  <SCORE.INTER>
7.67772

>  <SCORE.INTER.CONST>
1

>  <SCORE.INTER.POLAR>
-0.0749399

>  <SCORE.INTER.ROT>
14

>  <SCORE.INTER.SOLV>
12.4021

>  <SCORE.INTER.VDW>
-11.6991

>  <SCORE.INTER.norm>
0.21327

>  <SCORE.INTRA>
5.53048

>  <SCORE.INTRA.DIHEDRAL>
-9.64169

>  <SCORE.INTRA.DIHEDRAL.0>
26.3805

>  <SCORE.INTRA.POLAR>
0

>  <SCORE.INTRA.POLAR.0>
0

>  <SCORE.INTRA.REPUL>
0

>  <SCORE.INTRA.REPUL.0>
0

>  <SCORE.INTRA.SOLV>
14.422

>  <SCORE.INTRA.SOLV.lig_0>
-98.5587

>  <SCORE.INTRA.VDW>
3.14034

>  <SCORE.INTRA.VDW.0>
-2.91167

>  <SCORE.INTRA.norm>
0.153624

>  <SCORE.RESTR>
2.03903

>  <SCORE.RESTR.CAVITY>
2.03903

>  <SCORE.RESTR.norm>
0.0566399

>  <SCORE.SYSTEM>
0

>  <SCORE.SYSTEM.CONST>
0

>  <SCORE.SYSTEM.DIHEDRAL>
0

>  <SCORE.SYSTEM.SOLV>
0

>  <SCORE.SYSTEM.norm>
0

>  <SCORE.heavy>
36

>  <SCORE.norm>
0.423534

>  <RMSD>
27.770

$$$$
2f4u_lig
 OpenBabel11021811433D
libRbt.so/2013.1/901 2013/11/27
 36 37  0  0  0  0  0  0  0  0999 V2000
   19.0559   24.0190   12.4611 C   0  0  2  0  0  0  0  0  0  0  0  0
   18.6595   25.2223   11.7042 O   0  0  0  0  0  0  0  0  0  0  0  0
   21.1950   25.0726    8.1766 C   0  0  2  0  0  0  0  0  0  0  0  0
   21.6727   25.3227    6.7895 N   0  0  0  0  0  0  0  0  0  0  0  0
   19.2227   24.4600   13.9483 C   0  0  2  0  0  0  0  0  0  0  0  0
   17.9892   25.0397   14.5109 N   0  0  0  0  0  0  0  0  0  0  0  0
   19.7935   24.3665    8.1904 C   0  0  0  0  0  0  0  0  0  0  0  0
   23.4478   25.5073    6.7429 C   0  0  0  0  0  0  0  0  0  0  0  0
   23.2309   25.8584    5.3043 C   0  0  1  0  0  0  0  0  0  0  0  0
   22.7758   24.5810    4.5898 C   0  0  0  0  0  0  0  0  0  0  0  0
   23.8777   23.5450    4.3004 C   0  0  0  0  0  0  0  0  0  0  0  0
   24.6482   23.3297    5.5268 N   0  0  0  0  0  0  0  0  0  0  0  0
   22.2015   26.8019    5.1842 O   0  0  0  0  0  0  0  0  0  0  0  0
   23.7114   27.3572    9.2236 C   0  0  0  0  0  0  0  0  0  0  0  0
   23.6941   27.9209   10.6366 C   0  0  0  0  0  0  0  0  0  0  0  0
   20.3926   25.4951   14.0397 C   0  0  1  0  0  0  0  0  0  0  0  0
   23.4092   29.3683   10.7065 N   0  0  0  0  0  0  0  0  0  0  0  0
   20.5793   25.9391   15.3812 O   0  0  0  0  0  0  0  0  0  0  0  0
   19.2827   24.1620    9.6312 C   0  0  2  0  0  0  0  0  0  0  0  0
   17.9611   23.5475    9.6422 N   0  0  0  0  0  0  0  0  0  0  0  0
   21.8714   28.9753   12.6249 C   0  0  0  0  0  0  0  0  0  0  0  0
   23.1373   28.6805   13.4845 C   0  0  0  0  0  0  0  0  0  0  0  0
   22.1685   29.8415   11.3731 C   0  0  0  0  0  0  0  0  0  0  0  0
   23.7452   29.9321   14.0278 N   0  0  0  0  0  0  0  0  0  0  0  0
   24.2546   25.4503    7.4551 O   0  0  0  0  0  0  0  0  0  0  0  0
   21.6679   24.8302   13.4841 C   0  0  2  0  0  0  0  0  0  0  0  0
   22.7956   25.7013   13.5160 O   0  0  0  0  0  0  0  0  0  0  0  0
   19.1950   25.4913   10.3541 C   0  0  2  0  0  0  0  0  0  0  0  0
   21.4477   24.3414   12.0412 C   0  0  2  0  0  0  0  0  0  0  0  0
   20.3105   23.4749   11.9619 O   0  0  0  0  0  0  0  0  0  0  0  0
   20.6185   26.1822   10.3820 C   0  0  2  0  0  0  0  0  0  0  0  0
   20.5005   27.4681   11.0679 O   0  0  0  0  0  0  0  0  0  0  0  0
   22.6525   23.6149   11.5057 C   0  0  0  0  0  0  0  0  0  0  0  0
   23.5978   24.5116   11.0614 O   0  0  0  0  0  0  0  0  0  0  0  0
   21.1048   26.3970    8.9087 C   0  0  1  0  0  0  0  0  0  0  0  0
   22.3597   27.0106    8.8551 O   0  0  0  0  0  0  0  0  0  0  0  0
  1  2  1  6  0  0  0
  1  5  1  0  0  0  0
  1 30  1  0  0  0  0
  3  4  1  6  0  0  0
  3  7  1  0  0  0  0
  3 35  1  0  0  0  0
  5  6  1  6  0  0  0
  5 16  1  0  0  0  0
  7 19  1  0  0  0  0
  8  4  1  0  0  0  0
  8 25  2  0  0  0  0
  9  8  1  1  0  0  0
  9 10  1  0  0  0  0
  9 13  1  0  0  0  0
 10 11  1  0  0  0  0
 11 12  1  0  0  0  0
 14 15  1  0  0  0  0
 14 36  1  0  0  0  0
 15 17  1  0  0  0  0
 16 18  1  1  0  0  0
 16 26  1  0  0  0  0
 17 23  1  0  0  0  0
 19 20  1  6  0  0  0
 19 28  1  0  0  0  0
 21 22  1  0  0  0  0
 21 23  1  0  0  0  0
 22 24  1  0  0  0  0
 26 27  1  6  0  0  0
 26 29  1  0  0  0  0
 28  2  1  1  0  0  0
 28 31  1  0  0  0  0
 29 30  1  0  0  0  0
 29 33  1  1  0  0  0
 31 32  1  6  0  0  0
 31 35  1  0  0  0  0
 33 34  1  0  0  0  0
 35 36  1  1  0  0  0
M  END
>  <CHROM.1>
140.53902372,-157.61808870,-68.97535019,-75.87538695,48.73681771,-85.87171991
-57.58454135,115.53246155,38.08008830,62.04093597,43.34868148,38.25357755
-81.21411336,-87.53138887,21.63544448,25.81404360,10.26162071,1.99870723
0.78962365,1.11725263

>  <Name>
2f4u_lig

>  <RI>
0

>  <Rbt.Current_Directory>
/home/itssahil/PROJECTS/Mol_Feturizer/New_Systems/rnas/2f4u

>  <Rbt.Executable>
rbdock ($Id: //depot/dev/client3/rdock/2013.1/src/exe/rbdock.cxx#4 $)

>  <Rbt.Library>
libRbt.so (2013.1, Build901 2013/11/27)

>  <Rbt.Parameter_File>
/export/apps/rDock/src/rDock_2013.1_src/data/scripts/dock_solv.prm

>  <Rbt.Receptor>
prm/blind_docking_60.prm

>  <SCORE>
21.4253

>  <SCORE.INTER>
3.75748

>  <SCORE.INTER.CONST>
1

>  <SCORE.INTER.POLAR>
-1.22922

>  <SCORE.INTER.ROT>
14

>  <SCORE.INTER.SOLV>
22.715

>  <SCORE.INTER.VDW>
-13.9026

>  <SCORE.INTER.norm>
0.104374

>  <SCORE.INTRA>
13.7166

>  <SCORE.INTRA.DIHEDRAL>
-7.13669

>  <SCORE.INTRA.DIHEDRAL.0>
26.3805

>  <SCORE.INTRA.POLAR>
0

>  <SCORE.INTRA.POLAR.0>
0

>  <SCORE.INTRA.REPUL>
0.00424151

>  <SCORE.INTRA.REPUL.0>
0

>  <SCORE.INTRA.SOLV>
11.454

>  <SCORE.INTRA.SOLV.lig_0>
-98.5587

>  <SCORE.INTRA.VDW>
11.5367

>  <SCORE.INTRA.VDW.0>
-2.91167

>  <SCORE.INTRA.norm>
0.381016

>  <SCORE.RESTR>
3.9512

>  <SCORE.RESTR.CAVITY>
3.9512

>  <SCORE.RESTR.norm>
0.109756

>  <SCORE.SYSTEM>
0

>  <SCORE.SYSTEM.CONST>
0

>  <SCORE.SYSTEM.DIHEDRAL>
0

>  <SCORE.SYSTEM.SOLV>
0

>  <SCORE.SYSTEM.norm>
0

>  <SCORE.heavy>
36

>  <SCORE.norm>
0.595146

>  <RMSD>
27.776

$$$$
2f4u_lig
 OpenBabel11021811433D
libRbt.so/2013.1/901 2013/11/27
 36 37  0  0  0  0  0  0  0  0999 V2000
   21.7173   26.7740    5.6943 C   0  0  2  0  0  0  0  0  0  0  0  0
   20.5178   26.1417    6.2768 O   0  0  0  0  0  0  0  0  0  0  0  0
   18.9615   25.5866   10.2973 C   0  0  2  0  0  0  0  0  0  0  0  0
   18.9082   25.1913   11.7311 N   0  0  0  0  0  0  0  0  0  0  0  0
   22.3792   25.7090    4.7660 C   0  0  2  0  0  0  0  0  0  0  0  0
   21.4733   25.2426    3.7002 N   0  0  0  0  0  0  0  0  0  0  0  0
   19.2382   24.3550    9.3647 C   0  0  0  0  0  0  0  0  0  0  0  0
   20.5124   25.3405   12.5005 C   0  0  0  0  0  0  0  0  0  0  0  0
   19.8468   24.7072   13.6819 C   0  0  1  0  0  0  0  0  0  0  0  0
   19.9920   23.1895   13.5241 C   0  0  0  0  0  0  0  0  0  0  0  0
   21.4124   22.6795   13.2178 C   0  0  0  0  0  0  0  0  0  0  0  0
   21.3169   21.5953   12.2383 N   0  0  0  0  0  0  0  0  0  0  0  0
   20.5023   25.0758   14.8646 O   0  0  0  0  0  0  0  0  0  0  0  0
   19.0561   28.7184   11.6665 C   0  0  0  0  0  0  0  0  0  0  0  0
   20.0259   29.8229   12.0594 C   0  0  0  0  0  0  0  0  0  0  0  0
   22.8476   24.4986    5.6402 C   0  0  1  0  0  0  0  0  0  0  0  0
   20.8940   29.4856   13.2056 N   0  0  0  0  0  0  0  0  0  0  0  0
   23.4514   23.4893    4.8351 O   0  0  0  0  0  0  0  0  0  0  0  0
   19.3464   24.7836    7.8872 C   0  0  2  0  0  0  0  0  0  0  0  0
   19.6484   23.6465    7.0268 N   0  0  0  0  0  0  0  0  0  0  0  0
   23.1090   28.5792   12.5184 C   0  0  0  0  0  0  0  0  0  0  0  0
   24.2277   27.5772   12.9341 C   0  0  0  0  0  0  0  0  0  0  0  0
   21.7319   28.2596   13.1566 C   0  0  0  0  0  0  0  0  0  0  0  0
   24.0356   26.2358   12.3054 N   0  0  0  0  0  0  0  0  0  0  0  0
   21.4918   25.6734   12.1983 O   0  0  0  0  0  0  0  0  0  0  0  0
   23.8259   25.0268    6.7085 C   0  0  2  0  0  0  0  0  0  0  0  0
   24.3055   23.9949    7.5669 O   0  0  0  0  0  0  0  0  0  0  0  0
   20.4440   25.8146    7.7153 C   0  0  2  0  0  0  0  0  0  0  0  0
   23.1667   26.1267    7.5601 C   0  0  2  0  0  0  0  0  0  0  0  0
   22.6546   27.1772    6.7328 O   0  0  0  0  0  0  0  0  0  0  0  0
   20.1409   27.0772    8.6199 C   0  0  2  0  0  0  0  0  0  0  0  0
   21.2230   28.0456    8.4483 O   0  0  0  0  0  0  0  0  0  0  0  0
   24.1290   26.7160    8.5565 C   0  0  0  0  0  0  0  0  0  0  0  0
   24.2648   25.8844    9.6452 O   0  0  0  0  0  0  0  0  0  0  0  0
   20.0565   26.6190   10.1152 C   0  0  1  0  0  0  0  0  0  0  0  0
   19.7948   27.6880   10.9771 O   0  0  0  0  0  0  0  0  0  0  0  0
  1  2  1  1  0  0  0
  1  5  1  0  0  0  0
  1 30  1  0  0  0  0
  3  4  1  1  0  0  0
  3  7  1  0  0  0  0
  3 35  1  0  0  0  0
  5  6  1  6  0  0  0
  5 16  1  0  0  0  0
  7 19  1  0  0  0  0
  8  4  1  0  0  0  0
  8 25  2  0  0  0  0
  9  8  1  6  0  0  0
  9 10  1  0  0  0  0
  9 13  1  0  0  0  0
 10 11  1  0  0  0  0
 11 12  1  0  0  0  0
 14 15  1  0  0  0  0
 14 36  1  0  0  0  0
 15 17  1  0  0  0  0
 16 18  1  6  0  0  0
 16 26  1  0  0  0  0
 17 23  1  0  0  0  0
 19 20  1  6  0  0  0
 19 28  1  0  0  0  0
 21 22  1  0  0  0  0
 21 23  1  0  0  0  0
 22 24  1  0  0  0  0
 26 27  1  1  0  0  0
 26 29  1  0  0  0  0
 28  2  1  6  0  0  0
 28 31  1  0  0  0  0
 29 30  1  0  0  0  0
 29 33  1  1  0  0  0
 31 32  1  1  0  0  0
 31 35  1  0  0  0  0
 33 34  1  0  0  0  0
 35 36  1  1  0  0  0
M  END
>  <CHROM.1>
111.51964309,91.95553060,89.15939705,49.72004815,-140.37320585,-75.11856846
-154.12576854,55.39421883,88.97175788,71.29350204,156.44743067,-160.80274666
-78.94605911,-45.79261546,21.43746179,25.91048618,9.72249193,-0.81290741
1.28538815,0.68864602

>  <Name>
2f4u_lig

>  <RI>
0

>  <Rbt.Current_Directory>
/home/itssahil/PROJECTS/Mol_Feturizer/New_Systems/rnas/2f4u

>  <Rbt.Executable>
rbdock ($Id: //depot/dev/client3/rdock/2013.1/src/exe/rbdock.cxx#4 $)

>  <Rbt.Library>
libRbt.so (2013.1, Build901 2013/11/27)

>  <Rbt.Parameter_File>
/export/apps/rDock/src/rDock_2013.1_src/data/scripts/dock_solv.prm

>  <Rbt.Receptor>
prm/blind_docking_40.prm

>  <SCORE>
17.47

>  <SCORE.INTER>
8.28351

>  <SCORE.INTER.CONST>
1

>  <SCORE.INTER.POLAR>
0

>  <SCORE.INTER.ROT>
14

>  <SCORE.INTER.SOLV>
16.9144

>  <SCORE.INTER.VDW>
-13.0491

>  <SCORE.INTER.norm>
0.230098

>  <SCORE.INTRA>
5.37684

>  <SCORE.INTRA.DIHEDRAL>
-2.33967

>  <SCORE.INTRA.DIHEDRAL.0>
26.3805

>  <SCORE.INTRA.POLAR>
0

>  <SCORE.INTRA.POLAR.0>
0

>  <SCORE.INTRA.REPUL>
0.0226592

>  <SCORE.INTRA.REPUL.0>
0

>  <SCORE.INTRA.SOLV>
9.3776

>  <SCORE.INTRA.SOLV.lig_0>
-98.5587

>  <SCORE.INTRA.VDW>
1.74458

>  <SCORE.INTRA.VDW.0>
-2.91167

>  <SCORE.INTRA.norm>
0.149357

>  <SCORE.RESTR>
3.80962

>  <SCORE.RESTR.CAVITY>
3.80962

>  <SCORE.RESTR.norm>
0.105823

>  <SCORE.SYSTEM>
0

>  <SCORE.SYSTEM.CONST>
0

>  <SCORE.SYSTEM.DIHEDRAL>
0

>  <SCORE.SYSTEM.SOLV>
0

>  <SCORE.SYSTEM.norm>
0

>  <SCORE.heavy>
36

>  <SCORE.norm>
0.485277

>  <RMSD>
27.782

$$$$
2f4u_lig
 OpenBabel11021811433D
libRbt.so/2013.1/901 2013/11/27
 36 37  0  0  0  0  0  0  0  0999 V2000
   21.5378   25.9130    5.4865 C   0  0  2  0  0  0  0  0  0  0  0  0
   21.4905   24.4829    5.8477 O   0  0  0  0  0  0  0  0  0  0  0  0
   19.8912   24.5783    9.8885 C   0  0  2  0  0  0  0  0  0  0  0  0
   19.3684   24.0925   11.1944 N   0  0  0  0  0  0  0  0  0  0  0  0
   22.9883   26.2021    4.9900 C   0  0  2  0  0  0  0  0  0  0  0  0
   23.3714   25.3663    3.8372 N   0  0  0  0  0  0  0  0  0  0  0  0
   19.0142   24.0756    8.6880 C   0  0  0  0  0  0  0  0  0  0  0  0
   18.5591   25.4058   12.0931 C   0  0  0  0  0  0  0  0  0  0  0  0
   18.4647   24.3996   13.1969 C   0  0  1  0  0  0  0  0  0  0  0  0
   19.8407   24.3340   13.8691 C   0  0  0  0  0  0  0  0  0  0  0  0
   20.1851   25.5046   14.8085 C   0  0  0  0  0  0  0  0  0  0  0  0
   19.3816   25.3768   16.0259 N   0  0  0  0  0  0  0  0  0  0  0  0
   17.5403   24.8218   14.1620 O   0  0  0  0  0  0  0  0  0  0  0  0
   23.2029   24.7631   11.6672 C   0  0  0  0  0  0  0  0  0  0  0  0
   22.7000   25.2217   13.0279 C   0  0  0  0  0  0  0  0  0  0  0  0
   23.9832   25.9703    6.1754 C   0  0  1  0  0  0  0  0  0  0  0  0
   22.3666   26.6588   13.0963 N   0  0  0  0  0  0  0  0  0  0  0  0
   25.3279   26.2114    5.7692 O   0  0  0  0  0  0  0  0  0  0  0  0
   19.5957   24.5382    7.3365 C   0  0  2  0  0  0  0  0  0  0  0  0
   18.8066   24.0332    6.2199 N   0  0  0  0  0  0  0  0  0  0  0  0
   20.8796   28.6341   12.8018 C   0  0  0  0  0  0  0  0  0  0  0  0
   22.0196   29.6239   12.4158 C   0  0  0  0  0  0  0  0  0  0  0  0
   21.1699   27.1702   12.3795 C   0  0  0  0  0  0  0  0  0  0  0  0
   21.8635   30.9452   13.0949 N   0  0  0  0  0  0  0  0  0  0  0  0
   18.3276   26.4430   11.9138 O   0  0  0  0  0  0  0  0  0  0  0  0
   23.5713   26.8963    7.3373 C   0  0  2  0  0  0  0  0  0  0  0  0
   24.4168   26.7523    8.4757 O   0  0  0  0  0  0  0  0  0  0  0  0
   21.0187   24.0416    7.1760 C   0  0  2  0  0  0  0  0  0  0  0  0
   22.1127   26.6366    7.7551 C   0  0  2  0  0  0  0  0  0  0  0  0
   21.2299   26.7544    6.6339 O   0  0  0  0  0  0  0  0  0  0  0  0
   21.9145   24.5873    8.3610 C   0  0  2  0  0  0  0  0  0  0  0  0
   23.2748   24.0788    8.1909 O   0  0  0  0  0  0  0  0  0  0  0  0
   21.6613   27.5856    8.8330 C   0  0  0  0  0  0  0  0  0  0  0  0
   22.4983   27.5098    9.9233 O   0  0  0  0  0  0  0  0  0  0  0  0
   21.3154   24.0872    9.7190 C   0  0  1  0  0  0  0  0  0  0  0  0
   22.0617   24.5288   10.8154 O   0  0  0  0  0  0  0  0  0  0  0  0
  1  2  1  1  0  0  0
  1  5  1  0  0  0  0
  1 30  1  0  0  0  0
  3  4  1  1  0  0  0
  3  7  1  0  0  0  0
  3 35  1  0  0  0  0
  5  6  1  6  0  0  0
  5 16  1  0  0  0  0
  7 19  1  0  0  0  0
  8  4  1  0  0  0  0
  8 25  2  0  0  0  0
  9  8  1  6  0  0  0
  9 10  1  0  0  0  0
  9 13  1  0  0  0  0
 10 11  1  0  0  0  0
 11 12  1  0  0  0  0
 14 15  1  0  0  0  0
 14 36  1  0  0  0  0
 15 17  1  0  0  0  0
 16 18  1  6  0  0  0
 16 26  1  0  0  0  0
 17 23  1  0  0  0  0
 19 20  1  6  0  0  0
 19 28  1  0  0  0  0
 21 22  1  0  0  0  0
 21 23  1  0  0  0  0
 22 24  1  0  0  0  0
 26 27  1  1  0  0  0
 26 29  1  0  0  0  0
 28  2  1  6  0  0  0
 28 31  1  0  0  0  0
 29 30  1  0  0  0  0
 29 33  1  1  0  0  0
 31 32  1  6  0  0  0
 31 35  1  0  0  0  0
 33 34  1  0  0  0  0
 35 36  1  1  0  0  0
M  END
>  <CHROM.1>
126.71847325,-105.65100243,78.49997132,76.26650226,72.05899573,-81.88062482
-167.25818419,70.56938676,169.75767965,-167.10115775,63.32100181,59.33393614
-56.32125514,-175.68888086,21.32828584,25.79506004,9.81720561,1.09365079
-0.72225069,-1.95556469

>  <Name>
2f4u_lig

>  <RI>
0

>  <Rbt.Current_Directory>
/home/itssahil/PROJECTS/Mol_Feturizer/New_Systems/rnas/2f4u

>  <Rbt.Executable>
rbdock ($Id: //depot/dev/client3/rdock/2013.1/src/exe/rbdock.cxx#4 $)

>  <Rbt.Library>
libRbt.so (2013.1, Build901 2013/11/27)

>  <Rbt.Parameter_File>
/export/apps/rDock/src/rDock_2013.1_src/data/scripts/dock_solv.prm

>  <Rbt.Receptor>
prm/blind_docking_60.prm

>  <SCORE>
23.3692

>  <SCORE.INTER>
3.59879

>  <SCORE.INTER.CONST>
1

>  <SCORE.INTER.POLAR>
-1

>  <SCORE.INTER.ROT>
14

>  <SCORE.INTER.SOLV>
15.5412

>  <SCORE.INTER.VDW>
-12.3812

>  <SCORE.INTER.norm>
0.0999664

>  <SCORE.INTRA>
12.4083

>  <SCORE.INTRA.DIHEDRAL>
-12.3195

>  <SCORE.INTRA.DIHEDRAL.0>
26.3805

>  <SCORE.INTRA.POLAR>
0

>  <SCORE.INTRA.POLAR.0>
0

>  <SCORE.INTRA.REPUL>
0

>  <SCORE.INTRA.REPUL.0>
0

>  <SCORE.INTRA.SOLV>
8.88757

>  <SCORE.INTRA.SOLV.lig_0>
-98.5587

>  <SCORE.INTRA.VDW>
14.1243

>  <SCORE.INTRA.VDW.0>
-2.91167

>  <SCORE.INTRA.norm>
0.344674

>  <SCORE.RESTR>
7.36215

>  <SCORE.RESTR.CAVITY>
7.36215

>  <SCORE.RESTR.norm>
0.204504

>  <SCORE.SYSTEM>
0

>  <SCORE.SYSTEM.CONST>
0

>  <SCORE.SYSTEM.DIHEDRAL>
0

>  <SCORE.SYSTEM.SOLV>
0

>  <SCORE.SYSTEM.norm>
0

>  <SCORE.heavy>
36

>  <SCORE.norm>
0.649145

>  <RMSD>
27.807

$$$$
2f4u_lig
 OpenBabel11021811433D
libRbt.so/2013.1/901 2013/11/27
 36 37  0  0  0  0  0  0  0  0999 V2000
   24.6247   26.9229    7.0129 C   0  0  2  0  0  0  0  0  0  0  0  0
   23.1569   27.0688    6.9666 O   0  0  0  0  0  0  0  0  0  0  0  0
   20.2738   26.8815   10.2144 C   0  0  2  0  0  0  0  0  0  0  0  0
   19.3787   26.3057   11.2546 N   0  0  0  0  0  0  0  0  0  0  0  0
   25.1101   26.8049    5.5349 C   0  0  2  0  0  0  0  0  0  0  0  0
   24.7337   27.9735    4.7182 N   0  0  0  0  0  0  0  0  0  0  0  0
   19.9028   26.3672    8.7788 C   0  0  0  0  0  0  0  0  0  0  0  0
   19.8154   24.6125   11.6148 C   0  0  0  0  0  0  0  0  0  0  0  0
   18.5846   24.6257   12.4660 C   0  0  1  0  0  0  0  0  0  0  0  0
   17.4588   23.9873   11.6448 C   0  0  0  0  0  0  0  0  0  0  0  0
   17.3719   24.4251   10.1710 C   0  0  0  0  0  0  0  0  0  0  0  0
   17.0716   25.8576   10.1276 N   0  0  0  0  0  0  0  0  0  0  0  0
   18.7757   23.8378   13.6092 O   0  0  0  0  0  0  0  0  0  0  0  0
   22.7550   27.2346   13.0221 C   0  0  0  0  0  0  0  0  0  0  0  0
   23.8508   28.2286   12.6671 C   0  0  0  0  0  0  0  0  0  0  0  0
   24.5145   25.4994    4.9107 C   0  0  1  0  0  0  0  0  0  0  0  0
   23.3514   29.5430   12.2153 N   0  0  0  0  0  0  0  0  0  0  0  0
   24.9207   25.3502    3.5527 O   0  0  0  0  0  0  0  0  0  0  0  0
   20.8703   26.9260    7.7156 C   0  0  2  0  0  0  0  0  0  0  0  0
   20.5532   26.4122    6.3890 N   0  0  0  0  0  0  0  0  0  0  0  0
   21.3077   30.4997   11.1627 C   0  0  0  0  0  0  0  0  0  0  0  0
   20.3683   29.9424   12.2740 C   0  0  0  0  0  0  0  0  0  0  0  0
   22.5810   29.6403   10.9486 C   0  0  0  0  0  0  0  0  0  0  0  0
   19.2345   30.8713   12.5622 N   0  0  0  0  0  0  0  0  0  0  0  0
   20.5778   23.9212   11.2951 O   0  0  0  0  0  0  0  0  0  0  0  0
   24.9716   24.3035    5.7697 C   0  0  2  0  0  0  0  0  0  0  0  0
   24.4701   23.0603    5.2851 O   0  0  0  0  0  0  0  0  0  0  0  0
   22.2983   26.5401    8.0460 C   0  0  2  0  0  0  0  0  0  0  0  0
   24.5406   24.4849    7.2363 C   0  0  2  0  0  0  0  0  0  0  0  0
   25.0105   25.7329    7.7577 O   0  0  0  0  0  0  0  0  0  0  0  0
   22.6887   27.0993    9.4741 C   0  0  2  0  0  0  0  0  0  0  0  0
   24.0623   26.6974    9.7738 O   0  0  0  0  0  0  0  0  0  0  0  0
   25.0469   23.3694    8.1112 C   0  0  0  0  0  0  0  0  0  0  0  0
   26.4228   23.3784    8.1555 O   0  0  0  0  0  0  0  0  0  0  0  0
   21.7056   26.5016   10.5368 C   0  0  1  0  0  0  0  0  0  0  0  0
   21.9947   26.9500   11.8290 O   0  0  0  0  0  0  0  0  0  0  0  0
  1  2  1  6  0  0  0
  1  5  1  0  0  0  0
  1 30  1  0  0  0  0
  3  4  1  1  0  0  0
  3  7  1  0  0  0  0
  3 35  1  0  0  0  0
  5  6  1  6  0  0  0
  5 16  1  0  0  0  0
  7 19  1  0  0  0  0
  8  4  1  0  0  0  0
  8 25  2  0  0  0  0
  9  8  1  6  0  0  0
  9 10  1  0  0  0  0
  9 13  1  0  0  0  0
 10 11  1  0  0  0  0
 11 12  1  0  0  0  0
 14 15  1  0  0  0  0
 14 36  1  0  0  0  0
 15 17  1  0  0  0  0
 16 18  1  6  0  0  0
 16 26  1  0  0  0  0
 17 23  1  0  0  0  0
 19 20  1  6  0  0  0
 19 28  1  0  0  0  0
 21 22  1  0  0  0  0
 21 23  1  0  0  0  0
 22 24  1  0  0  0  0
 26 27  1  6  0  0  0
 26 29  1  0  0  0  0
 28  2  1  6  0  0  0
 28 31  1  0  0  0  0
 29 30  1  0  0  0  0
 29 33  1  1  0  0  0
 31 32  1  1  0  0  0
 31 35  1  0  0  0  0
 33 34  1  0  0  0  0
 35 36  1  1  0  0  0
M  END
>  <CHROM.1>
148.37327110,76.50874208,98.18122542,-43.44418008,-63.58286946,63.62450920
62.74007415,-65.08480365,133.16670735,173.53691411,-58.16451984,177.04825024
64.17877367,-175.14758330,22.10174097,26.29934585,9.29616848,-0.61486302
0.66464670,0.61623368

>  <Name>
2f4u_lig

>  <RI>
0

>  <Rbt.Current_Directory>
/home/itssahil/PROJECTS/Mol_Feturizer/New_Systems/rnas/2f4u

>  <Rbt.Executable>
rbdock ($Id: //depot/dev/client3/rdock/2013.1/src/exe/rbdock.cxx#4 $)

>  <Rbt.Library>
libRbt.so (2013.1, Build901 2013/11/27)

>  <Rbt.Parameter_File>
/export/apps/rDock/src/rDock_2013.1_src/data/scripts/dock_solv.prm

>  <Rbt.Receptor>
prm/blind_docking_60.prm

>  <SCORE>
4.8968

>  <SCORE.INTER>
1.63086

>  <SCORE.INTER.CONST>
1

>  <SCORE.INTER.POLAR>
0

>  <SCORE.INTER.ROT>
14

>  <SCORE.INTER.SOLV>
15.6188

>  <SCORE.INTER.VDW>
-17.0524

>  <SCORE.INTER.norm>
0.0453017

>  <SCORE.INTRA>
-5.33029

>  <SCORE.INTRA.DIHEDRAL>
-17.6476

>  <SCORE.INTRA.DIHEDRAL.0>
26.3805

>  <SCORE.INTRA.POLAR>
0

>  <SCORE.INTRA.POLAR.0>
0

>  <SCORE.INTRA.REPUL>
0

>  <SCORE.INTRA.REPUL.0>
0

>  <SCORE.INTRA.SOLV>
6.90746

>  <SCORE.INTRA.SOLV.lig_0>
-98.5587

>  <SCORE.INTRA.VDW>
0.0397896

>  <SCORE.INTRA.VDW.0>
-2.91167

>  <SCORE.INTRA.norm>
-0.148064

>  <SCORE.RESTR>
8.59623

>  <SCORE.RESTR.CAVITY>
8.59623

>  <SCORE.RESTR.norm>
0.238784

>  <SCORE.SYSTEM>
0

>  <SCORE.SYSTEM.CONST>
0

>  <SCORE.SYSTEM.DIHEDRAL>
0

>  <SCORE.SYSTEM.SOLV>
0

>  <SCORE.SYSTEM.norm>
0

>  <SCORE.heavy>
36

>  <SCORE.norm>
0.136022

>  <RMSD>
27.811

$$$$
2f4u_lig
 OpenBabel11021811433D
libRbt.so/2013.1/901 2013/11/27
 36 37  0  0  0  0  0  0  0  0999 V2000
   21.6789   24.1799    6.2920 C   0  0  2  0  0  0  0  0  0  0  0  0
   22.5374   24.7358    7.3558 O   0  0  0  0  0  0  0  0  0  0  0  0
   21.5965   26.6897   11.1231 C   0  0  2  0  0  0  0  0  0  0  0  0
   21.1082   27.7242   12.0750 N   0  0  0  0  0  0  0  0  0  0  0  0
   22.4913   24.2776    4.9637 C   0  0  2  0  0  0  0  0  0  0  0  0
   23.7719   23.5493    5.0259 N   0  0  0  0  0  0  0  0  0  0  0  0
   22.7267   27.2476   10.1878 C   0  0  0  0  0  0  0  0  0  0  0  0
   20.6390   29.2183   11.2177 C   0  0  0  0  0  0  0  0  0  0  0  0
   20.4554   29.7801   12.5926 C   0  0  1  0  0  0  0  0  0  0  0  0
   21.7856   30.4231   13.0007 C   0  0  0  0  0  0  0  0  0  0  0  0
   23.0223   29.5082   12.9320 C   0  0  0  0  0  0  0  0  0  0  0  0
   23.3586   29.0767   14.2901 N   0  0  0  0  0  0  0  0  0  0  0  0
   19.4824   30.7888   12.5797 O   0  0  0  0  0  0  0  0  0  0  0  0
   18.7983   24.9703   12.1828 C   0  0  0  0  0  0  0  0  0  0  0  0
   19.8795   24.2399   12.9652 C   0  0  0  0  0  0  0  0  0  0  0  0
   22.7473   25.7867    4.6384 C   0  0  1  0  0  0  0  0  0  0  0  0
   21.0666   23.8797   12.1639 N   0  0  0  0  0  0  0  0  0  0  0  0
   23.4981   25.9305    3.4355 O   0  0  0  0  0  0  0  0  0  0  0  0
   23.1869   26.1850    9.1691 C   0  0  2  0  0  0  0  0  0  0  0  0
   24.2041   26.7177    8.2715 N   0  0  0  0  0  0  0  0  0  0  0  0
   21.9744   21.5948   11.7703 C   0  0  0  0  0  0  0  0  0  0  0  0
   22.1655   21.9156   10.2574 C   0  0  0  0  0  0  0  0  0  0  0  0
   22.0138   22.8549   12.6738 C   0  0  0  0  0  0  0  0  0  0  0  0
   23.4641   22.6052    9.9942 N   0  0  0  0  0  0  0  0  0  0  0  0
   20.5900   29.5432   10.1913 O   0  0  0  0  0  0  0  0  0  0  0  0
   21.3817   26.4955    4.5379 C   0  0  2  0  0  0  0  0  0  0  0  0
   21.5085   27.8860    4.2514 O   0  0  0  0  0  0  0  0  0  0  0  0
   22.0146   25.7130    8.3324 C   0  0  2  0  0  0  0  0  0  0  0  0
   20.5751   26.3189    5.8370 C   0  0  2  0  0  0  0  0  0  0  0  0
   20.4390   24.9332    6.1711 O   0  0  0  0  0  0  0  0  0  0  0  0
   20.8943   25.1068    9.2715 C   0  0  2  0  0  0  0  0  0  0  0  0
   19.7703   24.6771    8.4408 O   0  0  0  0  0  0  0  0  0  0  0  0
   19.2043   26.9322    5.7331 C   0  0  0  0  0  0  0  0  0  0  0  0
   19.2479   28.2682    6.0624 O   0  0  0  0  0  0  0  0  0  0  0  0
   20.4303   26.2102   10.2816 C   0  0  1  0  0  0  0  0  0  0  0  0
   19.4331   25.7455   11.1440 O   0  0  0  0  0  0  0  0  0  0  0  0
  1  2  1  1  0  0  0
  1  5  1  0  0  0  0
  1 30  1  0  0  0  0
  3  4  1  1  0  0  0
  3  7  1  0  0  0  0
  3 35  1  0  0  0  0
  5  6  1  1  0  0  0
  5 16  1  0  0  0  0
  7 19  1  0  0  0  0
  8  4  1  0  0  0  0
  8 25  2  0  0  0  0
  9  8  1  6  0  0  0
  9 10  1  0  0  0  0
  9 13  1  0  0  0  0
 10 11  1  0  0  0  0
 11 12  1  0  0  0  0
 14 15  1  0  0  0  0
 14 36  1  0  0  0  0
 15 17  1  0  0  0  0
 16 18  1  6  0  0  0
 16 26  1  0  0  0  0
 17 23  1  0  0  0  0
 19 20  1  6  0  0  0
 19 28  1  0  0  0  0
 21 22  1  0  0  0  0
 21 23  1  0  0  0  0
 22 24  1  0  0  0  0
 26 27  1  1  0  0  0
 26 29  1  0  0  0  0
 28  2  1  6  0  0  0
 28 31  1  0  0  0  0
 29 30  1  0  0  0  0
 29 33  1  6  0  0  0
 31 32  1  6  0  0  0
 31 35  1  0  0  0  0
 33 34  1  0  0  0  0
 35 36  1  1  0  0  0
M  END
>  <CHROM.1>
132.84697630,52.44624506,91.39892444,-55.14557147,-102.45615568,-30.99526940
12.31786963,-162.98090471,113.35932390,58.77823331,51.82272889,-173.70671924
-86.28416415,-56.74130814,21.45050467,26.17602338,9.17463229,-0.86820016
-1.40153407,1.94654023

>  <Name>
2f4u_lig

>  <RI>
0

>  <Rbt.Current_Directory>
/home/itssahil/PROJECTS/Mol_Feturizer/New_Systems/rnas/2f4u

>  <Rbt.Executable>
rbdock ($Id: //depot/dev/client3/rdock/2013.1/src/exe/rbdock.cxx#4 $)

>  <Rbt.Library>
libRbt.so (2013.1, Build901 2013/11/27)

>  <Rbt.Parameter_File>
/export/apps/rDock/src/rDock_2013.1_src/data/scripts/dock_solv.prm

>  <Rbt.Receptor>
prm/blind_docking_60.prm

>  <SCORE>
7.56924

>  <SCORE.INTER>
-1.20107

>  <SCORE.INTER.CONST>
1

>  <SCORE.INTER.POLAR>
-1.03795

>  <SCORE.INTER.ROT>
14

>  <SCORE.INTER.SOLV>
20.0626

>  <SCORE.INTER.VDW>
-16.9618

>  <SCORE.INTER.norm>
-0.0333632

>  <SCORE.INTRA>
3.10153

>  <SCORE.INTRA.DIHEDRAL>
-0.496742

>  <SCORE.INTRA.DIHEDRAL.0>
26.3805

>  <SCORE.INTRA.POLAR>
0

>  <SCORE.INTRA.POLAR.0>
0

>  <SCORE.INTRA.REPUL>
0

>  <SCORE.INTRA.REPUL.0>
0

>  <SCORE.INTRA.SOLV>
8.92704

>  <SCORE.INTRA.SOLV.lig_0>
-98.5587

>  <SCORE.INTRA.VDW>
-1.11362

>  <SCORE.INTRA.VDW.0>
-2.91167

>  <SCORE.INTRA.norm>
0.0861537

>  <SCORE.RESTR>
5.66878

>  <SCORE.RESTR.CAVITY>
5.66878

>  <SCORE.RESTR.norm>
0.157466

>  <SCORE.SYSTEM>
0

>  <SCORE.SYSTEM.CONST>
0

>  <SCORE.SYSTEM.DIHEDRAL>
0

>  <SCORE.SYSTEM.SOLV>
0

>  <SCORE.SYSTEM.norm>
0

>  <SCORE.heavy>
36

>  <SCORE.norm>
0.210257

>  <RMSD>
27.815

$$$$
2f4u_lig
 OpenBabel11021811433D
libRbt.so/2013.1/901 2013/11/27
 36 37  0  0  0  0  0  0  0  0999 V2000
   21.0682   29.0060   13.0278 C   0  0  2  0  0  0  0  0  0  0  0  0
   21.9274   29.2679   11.8568 O   0  0  0  0  0  0  0  0  0  0  0  0
   23.7644   27.1539    8.5324 C   0  0  2  0  0  0  0  0  0  0  0  0
   24.2237   26.0239    7.6798 N   0  0  0  0  0  0  0  0  0  0  0  0
   21.9465   28.2408   14.0657 C   0  0  2  0  0  0  0  0  0  0  0  0
   23.1454   29.0005   14.4654 N   0  0  0  0  0  0  0  0  0  0  0  0
   24.3880   27.0874    9.9712 C   0  0  0  0  0  0  0  0  0  0  0  0
   25.0742   26.6175    6.2267 C   0  0  0  0  0  0  0  0  0  0  0  0
   25.0844   25.1776    5.8188 C   0  0  1  0  0  0  0  0  0  0  0  0
   23.8039   24.9253    5.0150 C   0  0  0  0  0  0  0  0  0  0  0  0
   23.4537   23.4482    4.7567 C   0  0  0  0  0  0  0  0  0  0  0  0
   22.1254   23.3845    4.1440 N   0  0  0  0  0  0  0  0  0  0  0  0
   26.1733   24.9190    4.9751 O   0  0  0  0  0  0  0  0  0  0  0  0
   20.7627   27.2551    6.2696 C   0  0  0  0  0  0  0  0  0  0  0  0
   19.6370   26.2675    6.5385 C   0  0  0  0  0  0  0  0  0  0  0  0
   22.3637   26.8619   13.4548 C   0  0  1  0  0  0  0  0  0  0  0  0
   20.0568   24.8518    6.5159 N   0  0  0  0  0  0  0  0  0  0  0  0
   23.1794   26.1259   14.3627 O   0  0  0  0  0  0  0  0  0  0  0  0
   23.8631   28.2308   10.8632 C   0  0  2  0  0  0  0  0  0  0  0  0
   24.4073   28.1422   12.2124 N   0  0  0  0  0  0  0  0  0  0  0  0
   20.0139   24.2908    8.9414 C   0  0  0  0  0  0  0  0  0  0  0  0
   18.6774   23.5024    8.7987 C   0  0  0  0  0  0  0  0  0  0  0  0
   20.8589   24.3053    7.6408 C   0  0  0  0  0  0  0  0  0  0  0  0
   17.7622   23.7440    9.9543 N   0  0  0  0  0  0  0  0  0  0  0  0
   25.3644   27.5780    5.8335 O   0  0  0  0  0  0  0  0  0  0  0  0
   21.0802   26.0867   13.0957 C   0  0  2  0  0  0  0  0  0  0  0  0
   21.3556   24.8122   12.5199 O   0  0  0  0  0  0  0  0  0  0  0  0
   22.3512   28.1767   10.9560 C   0  0  2  0  0  0  0  0  0  0  0  0
   20.2013   26.8991   12.1277 C   0  0  2  0  0  0  0  0  0  0  0  0
   19.9150   28.1964   12.6618 O   0  0  0  0  0  0  0  0  0  0  0  0
   21.7202   28.2915    9.5092 C   0  0  2  0  0  0  0  0  0  0  0  0
   20.2646   28.2183    9.6272 O   0  0  0  0  0  0  0  0  0  0  0  0
   18.9034   26.1983   11.8270 C   0  0  0  0  0  0  0  0  0  0  0  0
   18.4304   26.5704   10.5889 O   0  0  0  0  0  0  0  0  0  0  0  0
   22.2523   27.1091    8.6307 C   0  0  1  0  0  0  0  0  0  0  0  0
   21.7305   27.1432    7.3342 O   0  0  0  0  0  0  0  0  0  0  0  0
  1  2  1  6  0  0  0
  1  5  1  0  0  0  0
  1 30  1  0  0  0  0
  3  4  1  6  0  0  0
  3  7  1  0  0  0  0
  3 35  1  0  0  0  0
  5  6  1  6  0  0  0
  5 16  1  0  0  0  0
  7 19  1  0  0  0  0
  8  4  1  0  0  0  0
  8 25  2  0  0  0  0
  9  8  1  6  0  0  0
  9 10  1  0  0  0  0
  9 13  1  0  0  0  0
 10 11  1  0  0  0  0
 11 12  1  0  0  0  0
 14 15  1  0  0  0  0
 14 36  1  0  0  0  0
 15 17  1  0  0  0  0
 16 18  1  1  0  0  0
 16 26  1  0  0  0  0
 17 23  1  0  0  0  0
 19 20  1  1  0  0  0
 19 28  1  0  0  0  0
 21 22  1  0  0  0  0
 21 23  1  0  0  0  0
 22 24  1  0  0  0  0
 26 27  1  6  0  0  0
 26 29  1  0  0  0  0
 28  2  1  1  0  0  0
 28 31  1  0  0  0  0
 29 30  1  0  0  0  0
 29 33  1  1  0  0  0
 31 32  1  1  0  0  0
 31 35  1  0  0  0  0
 33 34  1  0  0  0  0
 35 36  1  6  0  0  0
M  END
>  <CHROM.1>
70.91937486,-120.31672438,90.12958862,-167.13660823,172.42289133,-63.76561636
-53.31241732,73.20489309,66.23129491,-167.95669404,55.99760134,-126.14110398
-152.91959799,-168.78836245,21.96341173,26.47269999,9.46565106,-1.83139461
-0.37327200,-1.98444236

>  <Name>
2f4u_lig

>  <RI>
0

>  <Rbt.Current_Directory>
/home/itssahil/PROJECTS/Mol_Feturizer/New_Systems/rnas/2f4u

>  <Rbt.Executable>
rbdock ($Id: //depot/dev/client3/rdock/2013.1/src/exe/rbdock.cxx#4 $)

>  <Rbt.Library>
libRbt.so (2013.1, Build901 2013/11/27)

>  <Rbt.Parameter_File>
/export/apps/rDock/src/rDock_2013.1_src/data/scripts/dock_solv.prm

>  <Rbt.Receptor>
prm/blind_docking_40.prm

>  <SCORE>
4.97195

>  <SCORE.INTER>
3.06197

>  <SCORE.INTER.CONST>
1

>  <SCORE.INTER.POLAR>
-0.98953

>  <SCORE.INTER.ROT>
14

>  <SCORE.INTER.SOLV>
18.0347

>  <SCORE.INTER.VDW>
-13.6051

>  <SCORE.INTER.norm>
0.0850549

>  <SCORE.INTRA>
-1.54234

>  <SCORE.INTRA.DIHEDRAL>
-11.1855

>  <SCORE.INTRA.DIHEDRAL.0>
26.3805

>  <SCORE.INTRA.POLAR>
0

>  <SCORE.INTRA.POLAR.0>
0

>  <SCORE.INTRA.REPUL>
0

>  <SCORE.INTRA.REPUL.0>
0

>  <SCORE.INTRA.SOLV>
12.2888

>  <SCORE.INTRA.SOLV.lig_0>
-98.5587

>  <SCORE.INTRA.VDW>
-2.09401

>  <SCORE.INTRA.VDW.0>
-2.91167

>  <SCORE.INTRA.norm>
-0.0428428

>  <SCORE.RESTR>
3.45232

>  <SCORE.RESTR.CAVITY>
3.45232

>  <SCORE.RESTR.norm>
0.0958978

>  <SCORE.SYSTEM>
0

>  <SCORE.SYSTEM.CONST>
0

>  <SCORE.SYSTEM.DIHEDRAL>
0

>  <SCORE.SYSTEM.SOLV>
0

>  <SCORE.SYSTEM.norm>
0

>  <SCORE.heavy>
36

>  <SCORE.norm>
0.13811

>  <RMSD>
27.818

$$$$
2f4u_lig
 OpenBabel11021811433D
libRbt.so/2013.1/901 2013/11/27
 36 37  0  0  0  0  0  0  0  0999 V2000
   20.8121   30.0905   10.9062 C   0  0  2  0  0  0  0  0  0  0  0  0
   20.4785   28.6638   10.7301 O   0  0  0  0  0  0  0  0  0  0  0  0
   21.9885   25.1270    8.7037 C   0  0  2  0  0  0  0  0  0  0  0  0
   22.8886   24.2570    7.8989 N   0  0  0  0  0  0  0  0  0  0  0  0
   22.1988   30.1417   11.6193 C   0  0  2  0  0  0  0  0  0  0  0  0
   23.2566   29.4555   10.8548 N   0  0  0  0  0  0  0  0  0  0  0  0
   21.5059   26.3774    7.8872 C   0  0  0  0  0  0  0  0  0  0  0  0
   24.2690   25.1843    7.2492 C   0  0  0  0  0  0  0  0  0  0  0  0
   24.5918   23.9188    6.5186 C   0  0  1  0  0  0  0  0  0  0  0  0
   24.6850   24.2668    5.0287 C   0  0  0  0  0  0  0  0  0  0  0  0
   23.3814   24.7564    4.3712 C   0  0  0  0  0  0  0  0  0  0  0  0
   22.3974   23.6734    4.4246 N   0  0  0  0  0  0  0  0  0  0  0  0
   25.8432   23.4314    6.9198 O   0  0  0  0  0  0  0  0  0  0  0  0
   23.9401   23.2691   10.9395 C   0  0  0  0  0  0  0  0  0  0  0  0
   23.0859   22.3478   11.7976 C   0  0  0  0  0  0  0  0  0  0  0  0
   22.0601   29.4993   13.0395 C   0  0  1  0  0  0  0  0  0  0  0  0
   22.5248   22.9920   13.0023 N   0  0  0  0  0  0  0  0  0  0  0  0
   23.3066   29.5116   13.7304 O   0  0  0  0  0  0  0  0  0  0  0  0
   20.6189   27.3005    8.7472 C   0  0  2  0  0  0  0  0  0  0  0  0
   20.2082   28.4843    8.0026 N   0  0  0  0  0  0  0  0  0  0  0  0
   20.6883   24.4605   13.8213 C   0  0  0  0  0  0  0  0  0  0  0  0
   19.5178   23.5262   13.3907 C   0  0  0  0  0  0  0  0  0  0  0  0
   21.9312   24.3502   12.9000 C   0  0  0  0  0  0  0  0  0  0  0  0
   19.8094   22.0927   13.6929 N   0  0  0  0  0  0  0  0  0  0  0  0
   24.6275   26.1981    7.3209 O   0  0  0  0  0  0  0  0  0  0  0  0
   20.9784   30.2768   13.8157 C   0  0  2  0  0  0  0  0  0  0  0  0
   20.7698   29.7592   15.1272 O   0  0  0  0  0  0  0  0  0  0  0  0
   21.3701   27.7532    9.9833 C   0  0  2  0  0  0  0  0  0  0  0  0
   19.6424   30.2692   13.0511 C   0  0  2  0  0  0  0  0  0  0  0  0
   19.8116   30.7668   11.7192 O   0  0  0  0  0  0  0  0  0  0  0  0
   21.8160   26.4940   10.8318 C   0  0  2  0  0  0  0  0  0  0  0  0
   22.5528   26.9589   12.0061 O   0  0  0  0  0  0  0  0  0  0  0  0
   18.5927   31.0919   13.7493 C   0  0  0  0  0  0  0  0  0  0  0  0
   18.9585   32.4188   13.7748 O   0  0  0  0  0  0  0  0  0  0  0  0
   22.7311   25.5846    9.9436 C   0  0  1  0  0  0  0  0  0  0  0  0
   23.1691   24.4497   10.6324 O   0  0  0  0  0  0  0  0  0  0  0  0
  1  2  1  1  0  0  0
  1  5  1  0  0  0  0
  1 30  1  0  0  0  0
  3  4  1  6  0  0  0
  3  7  1  0  0  0  0
  3 35  1  0  0  0  0
  5  6  1  6  0  0  0
  5 16  1  0  0  0  0
  7 19  1  0  0  0  0
  8  4  1  0  0  0  0
  8 25  2  0  0  0  0
  9  8  1  1  0  0  0
  9 10  1  0  0  0  0
  9 13  1  0  0  0  0
 10 11  1  0  0  0  0
 11 12  1  0  0  0  0
 14 15  1  0  0  0  0
 14 36  1  0  0  0  0
 15 17  1  0  0  0  0
 16 18  1  1  0  0  0
 16 26  1  0  0  0  0
 17 23  1  0  0  0  0
 19 20  1  6  0  0  0
 19 28  1  0  0  0  0
 21 22  1  0  0  0  0
 21 23  1  0  0  0  0
 22 24  1  0  0  0  0
 26 27  1  1  0  0  0
 26 29  1  0  0  0  0
 28  2  1  1  0  0  0
 28 31  1  0  0  0  0
 29 30  1  0  0  0  0
 29 33  1  1  0  0  0
 31 32  1  1  0  0  0
 31 35  1  0  0  0  0
 33 34  1  0  0  0  0
 35 36  1  1  0  0  0
M  END
>  <CHROM.1>
-57.92582416,54.82320673,125.08777157,-64.37386981,-63.33981767,-53.46738353
-153.54629216,44.01041417,142.77075923,72.81636326,-64.96210206,-114.91946222
64.45517255,72.03281855,21.97593847,26.67197368,10.54229719,-3.00074861,-1.19366218
2.52737050

>  <Name>
2f4u_lig

>  <RI>
0

>  <Rbt.Current_Directory>
/home/itssahil/PROJECTS/Mol_Feturizer/New_Systems/rnas/2f4u

>  <Rbt.Executable>
rbdock ($Id: //depot/dev/client3/rdock/2013.1/src/exe/rbdock.cxx#4 $)

>  <Rbt.Library>
libRbt.so (2013.1, Build901 2013/11/27)

>  <Rbt.Parameter_File>
/export/apps/rDock/src/rDock_2013.1_src/data/scripts/dock_solv.prm

>  <Rbt.Receptor>
prm/blind_docking_60.prm

>  <SCORE>
11.821

>  <SCORE.INTER>
3.4671

>  <SCORE.INTER.CONST>
1

>  <SCORE.INTER.POLAR>
-0.561899

>  <SCORE.INTER.ROT>
14

>  <SCORE.INTER.SOLV>
27.4565

>  <SCORE.INTER.VDW>
-17.9011

>  <SCORE.INTER.norm>
0.0963083

>  <SCORE.INTRA>
1.18859

>  <SCORE.INTRA.DIHEDRAL>
-11.1605

>  <SCORE.INTRA.DIHEDRAL.0>
26.3805

>  <SCORE.INTRA.POLAR>
0

>  <SCORE.INTRA.POLAR.0>
0

>  <SCORE.INTRA.REPUL>
0

>  <SCORE.INTRA.REPUL.0>
0

>  <SCORE.INTRA.SOLV>
9.96042

>  <SCORE.INTRA.SOLV.lig_0>
-98.5587

>  <SCORE.INTRA.VDW>
1.78862

>  <SCORE.INTRA.VDW.0>
-2.91167

>  <SCORE.INTRA.norm>
0.0330164

>  <SCORE.RESTR>
7.16531

>  <SCORE.RESTR.CAVITY>
7.16531

>  <SCORE.RESTR.norm>
0.199036

>  <SCORE.SYSTEM>
0

>  <SCORE.SYSTEM.CONST>
0

>  <SCORE.SYSTEM.DIHEDRAL>
0

>  <SCORE.SYSTEM.SOLV>
0

>  <SCORE.SYSTEM.norm>
0

>  <SCORE.heavy>
36

>  <SCORE.norm>
0.328361

>  <RMSD>
27.838

$$$$
2f4u_lig
 OpenBabel11021811433D
libRbt.so/2013.1/901 2013/11/27
 36 37  0  0  0  0  0  0  0  0999 V2000
   21.8327   25.9000    5.2852 C   0  0  2  0  0  0  0  0  0  0  0  0
   20.9584   25.1118    6.1752 O   0  0  0  0  0  0  0  0  0  0  0  0
   21.0654   27.2318    9.9685 C   0  0  2  0  0  0  0  0  0  0  0  0
   20.6149   27.7632   11.2836 N   0  0  0  0  0  0  0  0  0  0  0  0
   22.5873   24.8786    4.3788 C   0  0  2  0  0  0  0  0  0  0  0  0
   21.6714   24.0362    3.5878 N   0  0  0  0  0  0  0  0  0  0  0  0
   20.1468   27.7266    8.7961 C   0  0  0  0  0  0  0  0  0  0  0  0
   18.8783   28.1761   11.2509 C   0  0  0  0  0  0  0  0  0  0  0  0
   19.1293   28.7268   12.6196 C   0  0  1  0  0  0  0  0  0  0  0  0
   20.0484   29.9426   12.4574 C   0  0  0  0  0  0  0  0  0  0  0  0
   21.1457   30.1017   13.5260 C   0  0  0  0  0  0  0  0  0  0  0  0
   22.0631   31.1596   13.0978 N   0  0  0  0  0  0  0  0  0  0  0  0
   17.9302   29.1742   13.1910 O   0  0  0  0  0  0  0  0  0  0  0  0
   22.9890   24.7662   11.7977 C   0  0  0  0  0  0  0  0  0  0  0  0
   23.0323   23.2654   11.5514 C   0  0  0  0  0  0  0  0  0  0  0  0
   23.4987   23.9811    5.2801 C   0  0  1  0  0  0  0  0  0  0  0  0
   21.7654   22.5672   11.8489 N   0  0  0  0  0  0  0  0  0  0  0  0
   24.2040   23.0204    4.4984 O   0  0  0  0  0  0  0  0  0  0  0  0
   20.5887   27.1264    7.4459 C   0  0  2  0  0  0  0  0  0  0  0  0
   19.7081   27.5500    6.3645 N   0  0  0  0  0  0  0  0  0  0  0  0
   19.7388   23.9375   12.3131 C   0  0  0  0  0  0  0  0  0  0  0  0
   18.5230   24.1185   13.2708 C   0  0  0  0  0  0  0  0  0  0  0  0
   20.8784   23.0811   12.9244 C   0  0  0  0  0  0  0  0  0  0  0  0
   17.4381   24.9331   12.6456 N   0  0  0  0  0  0  0  0  0  0  0  0
   18.0757   28.1063   10.5350 O   0  0  0  0  0  0  0  0  0  0  0  0
   24.4673   24.9001    6.0511 C   0  0  2  0  0  0  0  0  0  0  0  0
   25.3396   24.1733    6.9127 O   0  0  0  0  0  0  0  0  0  0  0  0
   20.5692   25.6122    7.5094 C   0  0  2  0  0  0  0  0  0  0  0  0
   23.6933   25.9424    6.8781 C   0  0  2  0  0  0  0  0  0  0  0  0
   22.7904   26.6847    6.0511 O   0  0  0  0  0  0  0  0  0  0  0  0
   21.5321   25.1107    8.6608 C   0  0  2  0  0  0  0  0  0  0  0  0
   21.4795   23.6503    8.7110 O   0  0  0  0  0  0  0  0  0  0  0  0
   24.6185   26.9038    7.5752 C   0  0  0  0  0  0  0  0  0  0  0  0
   25.0337   26.3848    8.7807 O   0  0  0  0  0  0  0  0  0  0  0  0
   21.0501   25.7169   10.0222 C   0  0  1  0  0  0  0  0  0  0  0  0
   21.8548   25.3109   11.0909 O   0  0  0  0  0  0  0  0  0  0  0  0
  1  2  1  1  0  0  0
  1  5  1  0  0  0  0
  1 30  1  0  0  0  0
  3  4  1  1  0  0  0
  3  7  1  0  0  0  0
  3 35  1  0  0  0  0
  5  6  1  1  0  0  0
  5 16  1  0  0  0  0
  7 19  1  0  0  0  0
  8  4  1  0  0  0  0
  8 25  2  0  0  0  0
  9  8  1  6  0  0  0
  9 10  1  0  0  0  0
  9 13  1  0  0  0  0
 10 11  1  0  0  0  0
 11 12  1  0  0  0  0
 14 15  1  0  0  0  0
 14 36  1  0  0  0  0
 15 17  1  0  0  0  0
 16 18  1  6  0  0  0
 16 26  1  0  0  0  0
 17 23  1  0  0  0  0
 19 20  1  6  0  0  0
 19 28  1  0  0  0  0
 21 22  1  0  0  0  0
 21 23  1  0  0  0  0
 22 24  1  0  0  0  0
 26 27  1  1  0  0  0
 26 29  1  0  0  0  0
 28  2  1  6  0  0  0
 28 31  1  0  0  0  0
 29 30  1  0  0  0  0
 29 33  1  6  0  0  0
 31 32  1  1  0  0  0
 31 35  1  0  0  0  0
 33 34  1  0  0  0  0
 35 36  1  1  0  0  0
M  END
>  <CHROM.1>
152.32389342,24.29463599,67.11230690,-140.49100460,170.30402222,-52.57868812
-69.56386075,-31.28845918,98.43052564,-179.30621504,160.86750323,27.87332335
-85.59525623,-106.54888217,21.43555842,26.00507866,9.28539177,0.20513714
1.10986250,-0.63289617

>  <Name>
2f4u_lig

>  <RI>
0

>  <Rbt.Current_Directory>
/home/itssahil/PROJECTS/Mol_Feturizer/New_Systems/rnas/2f4u

>  <Rbt.Executable>
rbdock ($Id: //depot/dev/client3/rdock/2013.1/src/exe/rbdock.cxx#4 $)

>  <Rbt.Library>
libRbt.so (2013.1, Build901 2013/11/27)

>  <Rbt.Parameter_File>
/export/apps/rDock/src/rDock_2013.1_src/data/scripts/dock_solv.prm

>  <Rbt.Receptor>
prm/blind_docking_60.prm

>  <SCORE>
10.1743

>  <SCORE.INTER>
-2.98371

>  <SCORE.INTER.CONST>
1

>  <SCORE.INTER.POLAR>
-1

>  <SCORE.INTER.ROT>
14

>  <SCORE.INTER.SOLV>
18.6953

>  <SCORE.INTER.VDW>
-17.8209

>  <SCORE.INTER.norm>
-0.0828809

>  <SCORE.INTRA>
6.31626

>  <SCORE.INTRA.DIHEDRAL>
-1.73548

>  <SCORE.INTRA.DIHEDRAL.0>
26.3805

>  <SCORE.INTRA.POLAR>
0

>  <SCORE.INTRA.POLAR.0>
0

>  <SCORE.INTRA.REPUL>
0

>  <SCORE.INTRA.REPUL.0>
0

>  <SCORE.INTRA.SOLV>
4.49188

>  <SCORE.INTRA.SOLV.lig_0>
-98.5587

>  <SCORE.INTRA.VDW>
4.93806

>  <SCORE.INTRA.VDW.0>
-2.91167

>  <SCORE.INTRA.norm>
0.175452

>  <SCORE.RESTR>
6.84174

>  <SCORE.RESTR.CAVITY>
6.84174

>  <SCORE.RESTR.norm>
0.190048

>  <SCORE.SYSTEM>
0

>  <SCORE.SYSTEM.CONST>
0

>  <SCORE.SYSTEM.DIHEDRAL>
0

>  <SCORE.SYSTEM.SOLV>
0

>  <SCORE.SYSTEM.norm>
0

>  <SCORE.heavy>
36

>  <SCORE.norm>
0.282619

>  <RMSD>
27.863

$$$$
2f4u_lig
 OpenBabel11021811433D
libRbt.so/2013.1/901 2013/11/27
 36 37  0  0  0  0  0  0  0  0999 V2000
   23.9121   24.4569    7.9420 C   0  0  2  0  0  0  0  0  0  0  0  0
   24.4518   25.6614    8.6022 O   0  0  0  0  0  0  0  0  0  0  0  0
   23.4491   27.0469   12.5985 C   0  0  2  0  0  0  0  0  0  0  0  0
   22.7322   27.7630   13.6885 N   0  0  0  0  0  0  0  0  0  0  0  0
   24.5581   24.3962    6.5231 C   0  0  2  0  0  0  0  0  0  0  0  0
   26.0309   24.3416    6.5713 N   0  0  0  0  0  0  0  0  0  0  0  0
   24.0068   28.0403   11.5190 C   0  0  0  0  0  0  0  0  0  0  0  0
   21.0408   28.1051   13.2308 C   0  0  0  0  0  0  0  0  0  0  0  0
   20.9984   28.8731   14.5146 C   0  0  1  0  0  0  0  0  0  0  0  0
   21.5540   30.2718   14.2245 C   0  0  0  0  0  0  0  0  0  0  0  0
   21.2550   30.8352   12.8228 C   0  0  0  0  0  0  0  0  0  0  0  0
   19.8068   30.8068   12.6086 N   0  0  0  0  0  0  0  0  0  0  0  0
   19.6740   29.0236   14.9476 O   0  0  0  0  0  0  0  0  0  0  0  0
   21.3264   24.0888   13.5360 C   0  0  0  0  0  0  0  0  0  0  0  0
   20.2616   23.5920   12.5694 C   0  0  0  0  0  0  0  0  0  0  0  0
   24.0937   25.6454    5.7031 C   0  0  1  0  0  0  0  0  0  0  0  0
   19.4334   24.6632   11.9798 N   0  0  0  0  0  0  0  0  0  0  0  0
   24.6671   25.6429    4.3983 O   0  0  0  0  0  0  0  0  0  0  0  0
   24.6993   27.2850   10.3664 C   0  0  2  0  0  0  0  0  0  0  0  0
   25.1771   28.2052    9.3420 N   0  0  0  0  0  0  0  0  0  0  0  0
   17.3281   25.6963   11.1429 C   0  0  0  0  0  0  0  0  0  0  0  0
   17.7573   25.8972    9.6584 C   0  0  0  0  0  0  0  0  0  0  0  0
   17.9734   24.4506   11.8043 C   0  0  0  0  0  0  0  0  0  0  0  0
   19.1138   26.5130    9.5494 N   0  0  0  0  0  0  0  0  0  0  0  0
   20.4064   27.8956   12.3851 O   0  0  0  0  0  0  0  0  0  0  0  0
   22.5532   25.6347    5.6412 C   0  0  2  0  0  0  0  0  0  0  0  0
   22.0285   26.7453    4.9180 O   0  0  0  0  0  0  0  0  0  0  0  0
   23.7354   26.3112    9.7186 C   0  0  2  0  0  0  0  0  0  0  0  0
   21.9474   25.6213    7.0562 C   0  0  2  0  0  0  0  0  0  0  0  0
   22.4628   24.5281    7.8239 O   0  0  0  0  0  0  0  0  0  0  0  0
   23.2089   25.2794   10.7969 C   0  0  2  0  0  0  0  0  0  0  0  0
   22.2690   24.3655   10.1494 O   0  0  0  0  0  0  0  0  0  0  0  0
   20.4453   25.5274    7.0217 C   0  0  0  0  0  0  0  0  0  0  0  0
   20.0470   24.2146    6.9083 O   0  0  0  0  0  0  0  0  0  0  0  0
   22.4928   26.0692   11.9444 C   0  0  1  0  0  0  0  0  0  0  0  0
   21.9953   25.2178   12.9353 O   0  0  0  0  0  0  0  0  0  0  0  0
  1  2  1  6  0  0  0
  1  5  1  0  0  0  0
  1 30  1  0  0  0  0
  3  4  1  1  0  0  0
  3  7  1  0  0  0  0
  3 35  1  0  0  0  0
  5  6  1  1  0  0  0
  5 16  1  0  0  0  0
  7 19  1  0  0  0  0
  8  4  1  0  0  0  0
  8 25  2  0  0  0  0
  9  8  1  6  0  0  0
  9 10  1  0  0  0  0
  9 13  1  0  0  0  0
 10 11  1  0  0  0  0
 11 12  1  0  0  0  0
 14 15  1  0  0  0  0
 14 36  1  0  0  0  0
 15 17  1  0  0  0  0
 16 18  1  6  0  0  0
 16 26  1  0  0  0  0
 17 23  1  0  0  0  0
 19 20  1  6  0  0  0
 19 28  1  0  0  0  0
 21 22  1  0  0  0  0
 21 23  1  0  0  0  0
 22 24  1  0  0  0  0
 26 27  1  1  0  0  0
 26 29  1  0  0  0  0
 28  2  1  6  0  0  0
 28 31  1  0  0  0  0
 29 30  1  0  0  0  0
 29 33  1  6  0  0  0
 31 32  1  6  0  0  0
 31 35  1  0  0  0  0
 33 34  1  0  0  0  0
 35 36  1  1  0  0  0
M  END
>  <CHROM.1>
157.49984980,83.72779314,84.45347677,33.56877599,55.18817850,-45.87952261
-26.64297444,-139.95089520,-178.81874422,-78.98079804,68.74554746,166.66648614
84.46568072,-167.55113705,21.89125616,26.33742275,10.17110361,-1.15962198
0.40494321,1.02805415

>  <Name>
2f4u_lig

>  <RI>
0

>  <Rbt.Current_Directory>
/home/itssahil/PROJECTS/Mol_Feturizer/New_Systems/rnas/2f4u

>  <Rbt.Executable>
rbdock ($Id: //depot/dev/client3/rdock/2013.1/src/exe/rbdock.cxx#4 $)

>  <Rbt.Library>
libRbt.so (2013.1, Build901 2013/11/27)

>  <Rbt.Parameter_File>
/export/apps/rDock/src/rDock_2013.1_src/data/scripts/dock_solv.prm

>  <Rbt.Receptor>
prm/blind_docking_60.prm

>  <SCORE>
15.2055

>  <SCORE.INTER>
8.57232

>  <SCORE.INTER.CONST>
1

>  <SCORE.INTER.POLAR>
0

>  <SCORE.INTER.ROT>
14

>  <SCORE.INTER.SOLV>
12.7912

>  <SCORE.INTER.VDW>
-11.4822

>  <SCORE.INTER.norm>
0.23812

>  <SCORE.INTRA>
2.16763

>  <SCORE.INTRA.DIHEDRAL>
-9.18474

>  <SCORE.INTRA.DIHEDRAL.0>
26.3805

>  <SCORE.INTRA.POLAR>
0

>  <SCORE.INTRA.POLAR.0>
0

>  <SCORE.INTRA.REPUL>
0

>  <SCORE.INTRA.REPUL.0>
0

>  <SCORE.INTRA.SOLV>
11.6983

>  <SCORE.INTRA.SOLV.lig_0>
-98.5587

>  <SCORE.INTRA.VDW>
0.910851

>  <SCORE.INTRA.VDW.0>
-2.91167

>  <SCORE.INTRA.norm>
0.0602119

>  <SCORE.RESTR>
4.46557

>  <SCORE.RESTR.CAVITY>
4.46557

>  <SCORE.RESTR.norm>
0.124044

>  <SCORE.SYSTEM>
0

>  <SCORE.SYSTEM.CONST>
0

>  <SCORE.SYSTEM.DIHEDRAL>
0

>  <SCORE.SYSTEM.SOLV>
0

>  <SCORE.SYSTEM.norm>
0

>  <SCORE.heavy>
36

>  <SCORE.norm>
0.422376

>  <RMSD>
27.884

$$$$
2f4u_lig
 OpenBabel11021811433D
libRbt.so/2013.1/901 2013/11/27
 36 37  0  0  0  0  0  0  0  0999 V2000
   21.4236   26.1811    5.4736 C   0  0  2  0  0  0  0  0  0  0  0  0
   20.5878   25.5010    6.4821 O   0  0  0  0  0  0  0  0  0  0  0  0
   19.7352   26.4815   10.6302 C   0  0  2  0  0  0  0  0  0  0  0  0
   19.9447   26.6679   12.0917 N   0  0  0  0  0  0  0  0  0  0  0  0
   21.8690   25.0901    4.4512 C   0  0  2  0  0  0  0  0  0  0  0  0
   20.7272   24.4167    3.8053 N   0  0  0  0  0  0  0  0  0  0  0  0
   19.9918   24.9968   10.1909 C   0  0  0  0  0  0  0  0  0  0  0  0
   21.5748   26.1302   12.5826 C   0  0  0  0  0  0  0  0  0  0  0  0
   21.0887   26.3967   13.9728 C   0  0  1  0  0  0  0  0  0  0  0  0
   20.4856   25.0900   14.5002 C   0  0  0  0  0  0  0  0  0  0  0  0
   19.5108   24.3695   13.5505 C   0  0  0  0  0  0  0  0  0  0  0  0
   19.5846   22.9305   13.8113 N   0  0  0  0  0  0  0  0  0  0  0  0
   22.1629   26.7357   14.8068 O   0  0  0  0  0  0  0  0  0  0  0  0
   20.6928   30.0119   10.8865 C   0  0  0  0  0  0  0  0  0  0  0  0
   21.0522   29.8274   12.3533 C   0  0  0  0  0  0  0  0  0  0  0  0
   22.7631   24.0402    5.1908 C   0  0  1  0  0  0  0  0  0  0  0  0
   22.3545   30.4105   12.7344 N   0  0  0  0  0  0  0  0  0  0  0  0
   23.1886   23.0124    4.2997 O   0  0  0  0  0  0  0  0  0  0  0  0
   19.8261   24.8262    8.6671 C   0  0  2  0  0  0  0  0  0  0  0  0
   20.1088   23.4575    8.2537 N   0  0  0  0  0  0  0  0  0  0  0  0
   23.7455   28.4115   12.2159 C   0  0  0  0  0  0  0  0  0  0  0  0
   24.1548   28.9634   10.8173 C   0  0  0  0  0  0  0  0  0  0  0  0
   23.4330   29.5267   13.2475 C   0  0  0  0  0  0  0  0  0  0  0  0
   25.5538   29.4870   10.8129 N   0  0  0  0  0  0  0  0  0  0  0  0
   22.4475   25.7398   12.0852 O   0  0  0  0  0  0  0  0  0  0  0  0
   23.9648   24.7822    5.8093 C   0  0  2  0  0  0  0  0  0  0  0  0
   24.8401   23.9081    6.5174 O   0  0  0  0  0  0  0  0  0  0  0  0
   20.7708   25.7513    7.9263 C   0  0  2  0  0  0  0  0  0  0  0  0
   23.4912   25.8993    6.7566 C   0  0  2  0  0  0  0  0  0  0  0  0
   22.5937   26.7921    6.0876 O   0  0  0  0  0  0  0  0  0  0  0  0
   20.4808   27.2529    8.3332 C   0  0  2  0  0  0  0  0  0  0  0  0
   21.4168   28.1199    7.6188 O   0  0  0  0  0  0  0  0  0  0  0  0
   24.6455   26.6920    7.3092 C   0  0  0  0  0  0  0  0  0  0  0  0
   25.2387   26.0165    8.3518 O   0  0  0  0  0  0  0  0  0  0  0  0
   20.6757   27.4039    9.8800 C   0  0  1  0  0  0  0  0  0  0  0  0
   20.4399   28.7120   10.3128 O   0  0  0  0  0  0  0  0  0  0  0  0
  1  2  1  1  0  0  0
  1  5  1  0  0  0  0
  1 30  1  0  0  0  0
  3  4  1  1  0  0  0
  3  7  1  0  0  0  0
  3 35  1  0  0  0  0
  5  6  1  1  0  0  0
  5 16  1  0  0  0  0
  7 19  1  0  0  0  0
  8  4  1  0  0  0  0
  8 25  2  0  0  0  0
  9  8  1  6  0  0  0
  9 10  1  0  0  0  0
  9 13  1  0  0  0  0
 10 11  1  0  0  0  0
 11 12  1  0  0  0  0
 14 15  1  0  0  0  0
 14 36  1  0  0  0  0
 15 17  1  0  0  0  0
 16 18  1  6  0  0  0
 16 26  1  0  0  0  0
 17 23  1  0  0  0  0
 19 20  1  1  0  0  0
 19 28  1  0  0  0  0
 21 22  1  0  0  0  0
 21 23  1  0  0  0  0
 22 24  1  0  0  0  0
 26 27  1  1  0  0  0
 26 29  1  0  0  0  0
 28  2  1  6  0  0  0
 28 31  1  0  0  0  0
 29 30  1  0  0  0  0
 29 33  1  6  0  0  0
 31 32  1  6  0  0  0
 31 35  1  0  0  0  0
 33 34  1  0  0  0  0
 35 36  1  1  0  0  0
M  END
>  <CHROM.1>
134.60233700,55.48222227,91.21250333,-47.63627933,150.21664114,123.95693400
-63.20698550,-118.15111341,56.69587914,75.82569301,57.29408278,-176.09209006
-79.87531800,120.32152426,21.88293581,26.39158531,9.50993656,-1.38306052
0.85284379,1.10285916

>  <Name>
2f4u_lig

>  <RI>
0

>  <Rbt.Current_Directory>
/home/itssahil/PROJECTS/Mol_Feturizer/New_Systems/rnas/2f4u

>  <Rbt.Executable>
rbdock ($Id: //depot/dev/client3/rdock/2013.1/src/exe/rbdock.cxx#4 $)

>  <Rbt.Library>
libRbt.so (2013.1, Build901 2013/11/27)

>  <Rbt.Parameter_File>
/export/apps/rDock/src/rDock_2013.1_src/data/scripts/dock_solv.prm

>  <Rbt.Receptor>
prm/blind_docking_60.prm

>  <SCORE>
1.99558

>  <SCORE.INTER>
-2.79043

>  <SCORE.INTER.CONST>
1

>  <SCORE.INTER.POLAR>
-0.742589

>  <SCORE.INTER.ROT>
14

>  <SCORE.INTER.SOLV>
24.7021

>  <SCORE.INTER.VDW>
-20.5523

>  <SCORE.INTER.norm>
-0.0775119

>  <SCORE.INTRA>
2.631

>  <SCORE.INTRA.DIHEDRAL>
1.06088

>  <SCORE.INTRA.DIHEDRAL.0>
26.3805

>  <SCORE.INTRA.POLAR>
0

>  <SCORE.INTRA.POLAR.0>
0

>  <SCORE.INTRA.REPUL>
0

>  <SCORE.INTRA.REPUL.0>
0

>  <SCORE.INTRA.SOLV>
4.67689

>  <SCORE.INTRA.SOLV.lig_0>
-98.5587

>  <SCORE.INTRA.VDW>
-0.237886

>  <SCORE.INTRA.VDW.0>
-2.91167

>  <SCORE.INTRA.norm>
0.0730833

>  <SCORE.RESTR>
2.15501

>  <SCORE.RESTR.CAVITY>
2.15501

>  <SCORE.RESTR.norm>
0.0598613

>  <SCORE.SYSTEM>
0

>  <SCORE.SYSTEM.CONST>
0

>  <SCORE.SYSTEM.DIHEDRAL>
0

>  <SCORE.SYSTEM.SOLV>
0

>  <SCORE.SYSTEM.norm>
0

>  <SCORE.heavy>
36

>  <SCORE.norm>
0.0554327

>  <RMSD>
27.904

$$$$
2f4u_lig
 OpenBabel11021811433D
libRbt.so/2013.1/901 2013/11/27
 36 37  0  0  0  0  0  0  0  0999 V2000
   21.5002   29.5448   11.5606 C   0  0  2  0  0  0  0  0  0  0  0  0
   21.2415   28.0985   11.4227 O   0  0  0  0  0  0  0  0  0  0  0  0
   21.6965   25.0684    8.3394 C   0  0  2  0  0  0  0  0  0  0  0  0
   22.2544   24.3463    7.1637 N   0  0  0  0  0  0  0  0  0  0  0  0
   23.0028   29.6959   11.9523 C   0  0  2  0  0  0  0  0  0  0  0  0
   23.9124   29.1022   10.9551 N   0  0  0  0  0  0  0  0  0  0  0  0
   21.2651   26.5319    7.9716 C   0  0  0  0  0  0  0  0  0  0  0  0
   23.7049   25.1716    6.5296 C   0  0  0  0  0  0  0  0  0  0  0  0
   23.6268   24.1581    5.4312 C   0  0  1  0  0  0  0  0  0  0  0  0
   22.4220   24.5277    4.5585 C   0  0  0  0  0  0  0  0  0  0  0  0
   22.1452   26.0342    4.3999 C   0  0  0  0  0  0  0  0  0  0  0  0
   20.8298   26.3288    4.9715 N   0  0  0  0  0  0  0  0  0  0  0  0
   24.7714   24.2254    4.6252 O   0  0  0  0  0  0  0  0  0  0  0  0
   23.0248   22.3632    9.8900 C   0  0  0  0  0  0  0  0  0  0  0  0
   22.0362   22.0850   11.0124 C   0  0  0  0  0  0  0  0  0  0  0  0
   23.2297   29.0294   13.3498 C   0  0  1  0  0  0  0  0  0  0  0  0
   22.3059   22.8356   12.2553 N   0  0  0  0  0  0  0  0  0  0  0  0
   24.5939   29.1311   13.7496 O   0  0  0  0  0  0  0  0  0  0  0  0
   20.7402   27.2893    9.2083 C   0  0  2  0  0  0  0  0  0  0  0  0
   20.3822   28.6625    8.8756 N   0  0  0  0  0  0  0  0  0  0  0  0
   20.1959   24.1572   12.2879 C   0  0  0  0  0  0  0  0  0  0  0  0
   18.8006   24.3232   12.9617 C   0  0  0  0  0  0  0  0  0  0  0  0
   21.1720   23.2748   13.1091 C   0  0  0  0  0  0  0  0  0  0  0  0
   17.8561   25.0985   12.1026 N   0  0  0  0  0  0  0  0  0  0  0  0
   24.2908   26.0340    6.8026 O   0  0  0  0  0  0  0  0  0  0  0  0
   22.2927   29.7121   14.3662 C   0  0  2  0  0  0  0  0  0  0  0  0
   22.4183   29.1658   15.6767 O   0  0  0  0  0  0  0  0  0  0  0  0
   21.7966   27.3232   10.2946 C   0  0  2  0  0  0  0  0  0  0  0  0
   20.8248   29.6090   13.9144 C   0  0  2  0  0  0  0  0  0  0  0  0
   20.6577   30.1325   12.5922 O   0  0  0  0  0  0  0  0  0  0  0  0
   22.1979   25.8469   10.6994 C   0  0  2  0  0  0  0  0  0  0  0  0
   23.2294   25.9100   11.7339 O   0  0  0  0  0  0  0  0  0  0  0  0
   19.8983   30.3401   14.8489 C   0  0  0  0  0  0  0  0  0  0  0  0
   18.6394   30.4380   14.3005 O   0  0  0  0  0  0  0  0  0  0  0  0
   22.7462   25.1069    9.4325 C   0  0  1  0  0  0  0  0  0  0  0  0
   23.1269   23.7923    9.7171 O   0  0  0  0  0  0  0  0  0  0  0  0
  1  2  1  1  0  0  0
  1  5  1  0  0  0  0
  1 30  1  0  0  0  0
  3  4  1  6  0  0  0
  3  7  1  0  0  0  0
  3 35  1  0  0  0  0
  5  6  1  6  0  0  0
  5 16  1  0  0  0  0
  7 19  1  0  0  0  0
  8  4  1  0  0  0  0
  8 25  2  0  0  0  0
  9  8  1  1  0  0  0
  9 10  1  0  0  0  0
  9 13  1  0  0  0  0
 10 11  1  0  0  0  0
 11 12  1  0  0  0  0
 14 15  1  0  0  0  0
 14 36  1  0  0  0  0
 15 17  1  0  0  0  0
 16 18  1  1  0  0  0
 16 26  1  0  0  0  0
 17 23  1  0  0  0  0
 19 20  1  6  0  0  0
 19 28  1  0  0  0  0
 21 22  1  0  0  0  0
 21 23  1  0  0  0  0
 22 24  1  0  0  0  0
 26 27  1  1  0  0  0
 26 29  1  0  0  0  0
 28  2  1  1  0  0  0
 28 31  1  0  0  0  0
 29 30  1  0  0  0  0
 29 33  1  1  0  0  0
 31 32  1  1  0  0  0
 31 35  1  0  0  0  0
 33 34  1  0  0  0  0
 35 36  1  1  0  0  0
M  END
>  <CHROM.1>
-70.83244134,60.65231784,71.80837410,34.76464168,-117.47967832,-51.02696741
-63.19751388,146.77547250,-57.24469581,-176.07684544,163.56822941,-93.97686612
169.15326429,-33.08739526,21.92210915,26.53007522,10.39770980,-2.31096081
-1.29021473,-2.83448361

>  <Name>
2f4u_lig

>  <RI>
0

>  <Rbt.Current_Directory>
/home/itssahil/PROJECTS/Mol_Feturizer/New_Systems/rnas/2f4u

>  <Rbt.Executable>
rbdock ($Id: //depot/dev/client3/rdock/2013.1/src/exe/rbdock.cxx#4 $)

>  <Rbt.Library>
libRbt.so (2013.1, Build901 2013/11/27)

>  <Rbt.Parameter_File>
/export/apps/rDock/src/rDock_2013.1_src/data/scripts/dock_solv.prm

>  <Rbt.Receptor>
prm/blind_docking_100.prm

>  <SCORE>
3.42677

>  <SCORE.INTER>
-2.96173

>  <SCORE.INTER.CONST>
1

>  <SCORE.INTER.POLAR>
-0.400414

>  <SCORE.INTER.ROT>
14

>  <SCORE.INTER.SOLV>
17.1662

>  <SCORE.INTER.VDW>
-19.2952

>  <SCORE.INTER.norm>
-0.0822704

>  <SCORE.INTRA>
0.939546

>  <SCORE.INTRA.DIHEDRAL>
-7.51001

>  <SCORE.INTRA.DIHEDRAL.0>
26.3805

>  <SCORE.INTRA.POLAR>
0

>  <SCORE.INTRA.POLAR.0>
0

>  <SCORE.INTRA.REPUL>
0

>  <SCORE.INTRA.REPUL.0>
0

>  <SCORE.INTRA.SOLV>
8.81497

>  <SCORE.INTRA.SOLV.lig_0>
-98.5587

>  <SCORE.INTRA.VDW>
0.287068

>  <SCORE.INTRA.VDW.0>
-2.91167

>  <SCORE.INTRA.norm>
0.0260985

>  <SCORE.RESTR>
5.44896

>  <SCORE.RESTR.CAVITY>
5.44896

>  <SCORE.RESTR.norm>
0.15136

>  <SCORE.SYSTEM>
0

>  <SCORE.SYSTEM.CONST>
0

>  <SCORE.SYSTEM.DIHEDRAL>
0

>  <SCORE.SYSTEM.SOLV>
0

>  <SCORE.SYSTEM.norm>
0

>  <SCORE.heavy>
36

>  <SCORE.norm>
0.0951881

>  <RMSD>
27.909

$$$$
2f4u_lig
 OpenBabel11021811433D
libRbt.so/2013.1/901 2013/11/27
 36 37  0  0  0  0  0  0  0  0999 V2000
   22.2282   24.1798    5.9879 C   0  0  2  0  0  0  0  0  0  0  0  0
   23.3589   24.5796    6.8479 O   0  0  0  0  0  0  0  0  0  0  0  0
   24.0611   26.7750   10.5333 C   0  0  2  0  0  0  0  0  0  0  0  0
   23.8688   27.7692   11.6239 N   0  0  0  0  0  0  0  0  0  0  0  0
   22.2686   25.1077    4.7344 C   0  0  2  0  0  0  0  0  0  0  0  0
   23.5399   25.0076    3.9941 N   0  0  0  0  0  0  0  0  0  0  0  0
   24.2358   27.4702    9.1371 C   0  0  0  0  0  0  0  0  0  0  0  0
   22.2593   28.5349   11.5211 C   0  0  0  0  0  0  0  0  0  0  0  0
   22.7594   29.4043   12.6319 C   0  0  1  0  0  0  0  0  0  0  0  0
   21.7497   30.5446   12.8044 C   0  0  0  0  0  0  0  0  0  0  0  0
   20.3500   30.1328   13.2970 C   0  0  0  0  0  0  0  0  0  0  0  0
   19.5459   31.3427   13.4799 N   0  0  0  0  0  0  0  0  0  0  0  0
   22.7963   28.6843   13.8338 O   0  0  0  0  0  0  0  0  0  0  0  0
   22.0779   24.6765   12.9085 C   0  0  0  0  0  0  0  0  0  0  0  0
   21.2944   23.4572   12.4455 C   0  0  0  0  0  0  0  0  0  0  0  0
   22.0287   26.5848    5.1918 C   0  0  1  0  0  0  0  0  0  0  0  0
   20.2805   23.7472   11.4116 N   0  0  0  0  0  0  0  0  0  0  0  0
   22.0672   27.4771    4.0810 O   0  0  0  0  0  0  0  0  0  0  0  0
   24.3790   26.4305    8.0070 C   0  0  2  0  0  0  0  0  0  0  0  0
   24.4956   27.0759    6.7054 N   0  0  0  0  0  0  0  0  0  0  0  0
   19.3000   26.0182   11.1265 C   0  0  0  0  0  0  0  0  0  0  0  0
   18.1351   26.9960   11.4658 C   0  0  0  0  0  0  0  0  0  0  0  0
   19.1163   24.6078   11.7454 C   0  0  0  0  0  0  0  0  0  0  0  0
   18.0408   28.1135   10.4791 N   0  0  0  0  0  0  0  0  0  0  0  0
   21.3889   28.4343   10.8936 O   0  0  0  0  0  0  0  0  0  0  0  0
   20.6705   26.6488    5.9187 C   0  0  2  0  0  0  0  0  0  0  0  0
   20.3625   27.9600    6.3851 O   0  0  0  0  0  0  0  0  0  0  0  0
   23.1723   25.5139    7.9767 C   0  0  2  0  0  0  0  0  0  0  0  0
   20.6369   25.6694    7.1057 C   0  0  2  0  0  0  0  0  0  0  0  0
   20.9587   24.3400    6.6823 O   0  0  0  0  0  0  0  0  0  0  0  0
   23.0232   24.7765    9.3690 C   0  0  2  0  0  0  0  0  0  0  0  0
   21.8431   23.9146    9.3173 O   0  0  0  0  0  0  0  0  0  0  0  0
   19.2916   25.6538    7.7812 C   0  0  0  0  0  0  0  0  0  0  0  0
   18.9919   26.8985    8.2872 O   0  0  0  0  0  0  0  0  0  0  0  0
   22.8589   25.8523   10.4954 C   0  0  1  0  0  0  0  0  0  0  0  0
   22.7162   25.2709   11.7587 O   0  0  0  0  0  0  0  0  0  0  0  0
  1  2  1  1  0  0  0
  1  5  1  0  0  0  0
  1 30  1  0  0  0  0
  3  4  1  1  0  0  0
  3  7  1  0  0  0  0
  3 35  1  0  0  0  0
  5  6  1  1  0  0  0
  5 16  1  0  0  0  0
  7 19  1  0  0  0  0
  8  4  1  0  0  0  0
  8 25  2  0  0  0  0
  9  8  1  6  0  0  0
  9 10  1  0  0  0  0
  9 13  1  0  0  0  0
 10 11  1  0  0  0  0
 11 12  1  0  0  0  0
 14 15  1  0  0  0  0
 14 36  1  0  0  0  0
 15 17  1  0  0  0  0
 16 18  1  6  0  0  0
 16 26  1  0  0  0  0
 17 23  1  0  0  0  0
 19 20  1  6  0  0  0
 19 28  1  0  0  0  0
 21 22  1  0  0  0  0
 21 23  1  0  0  0  0
 22 24  1  0  0  0  0
 26 27  1  1  0  0  0
 26 29  1  0  0  0  0
 28  2  1  6  0  0  0
 28 31  1  0  0  0  0
 29 30  1  0  0  0  0
 29 33  1  6  0  0  0
 31 32  1  6  0  0  0
 31 35  1  0  0  0  0
 33 34  1  0  0  0  0
 35 36  1  1  0  0  0
M  END
>  <CHROM.1>
96.44008800,71.52467558,169.29702303,65.94357895,176.72163961,-57.59421700
56.35518197,-65.29972675,104.64029058,-157.76071435,-178.40008900,-140.67657796
-61.31235514,150.36818655,21.64722548,26.54259636,9.38492844,1.04068243,-1.25087661
-2.45103180

>  <Name>
2f4u_lig

>  <RI>
0

>  <Rbt.Current_Directory>
/home/itssahil/PROJECTS/Mol_Feturizer/New_Systems/rnas/2f4u

>  <Rbt.Executable>
rbdock ($Id: //depot/dev/client3/rdock/2013.1/src/exe/rbdock.cxx#4 $)

>  <Rbt.Library>
libRbt.so (2013.1, Build901 2013/11/27)

>  <Rbt.Parameter_File>
/export/apps/rDock/src/rDock_2013.1_src/data/scripts/dock_solv.prm

>  <Rbt.Receptor>
prm/blind_docking_60.prm

>  <SCORE>
17.4697

>  <SCORE.INTER>
14.3444

>  <SCORE.INTER.CONST>
1

>  <SCORE.INTER.POLAR>
0

>  <SCORE.INTER.ROT>
14

>  <SCORE.INTER.SOLV>
14.9424

>  <SCORE.INTER.VDW>
-8.35121

>  <SCORE.INTER.norm>
0.398454

>  <SCORE.INTRA>
-0.380249

>  <SCORE.INTRA.DIHEDRAL>
-8.81364

>  <SCORE.INTRA.DIHEDRAL.0>
26.3805

>  <SCORE.INTRA.POLAR>
0

>  <SCORE.INTRA.POLAR.0>
0

>  <SCORE.INTRA.REPUL>
0

>  <SCORE.INTRA.REPUL.0>
0

>  <SCORE.INTRA.SOLV>
10.989

>  <SCORE.INTRA.SOLV.lig_0>
-98.5587

>  <SCORE.INTRA.VDW>
-1.46794

>  <SCORE.INTRA.VDW.0>
-2.91167

>  <SCORE.INTRA.norm>
-0.0105625

>  <SCORE.RESTR>
3.50563

>  <SCORE.RESTR.CAVITY>
3.50563

>  <SCORE.RESTR.norm>
0.0973786

>  <SCORE.SYSTEM>
0

>  <SCORE.SYSTEM.CONST>
0

>  <SCORE.SYSTEM.DIHEDRAL>
0

>  <SCORE.SYSTEM.SOLV>
0

>  <SCORE.SYSTEM.norm>
0

>  <SCORE.heavy>
36

>  <SCORE.norm>
0.48527

>  <RMSD>
27.918

$$$$
2f4u_lig
 OpenBabel11021811433D
libRbt.so/2013.1/901 2013/11/27
 36 37  0  0  0  0  0  0  0  0999 V2000
   23.4381   26.6397    6.2727 C   0  0  2  0  0  0  0  0  0  0  0  0
   23.4845   26.3364    7.7163 O   0  0  0  0  0  0  0  0  0  0  0  0
   21.4081   27.4740   11.3618 C   0  0  2  0  0  0  0  0  0  0  0  0
   20.6592   28.3109   12.3383 N   0  0  0  0  0  0  0  0  0  0  0  0
   23.5143   25.2726    5.5249 C   0  0  2  0  0  0  0  0  0  0  0  0
   22.4168   24.3602    5.8956 N   0  0  0  0  0  0  0  0  0  0  0  0
   22.7947   28.1106   10.9937 C   0  0  0  0  0  0  0  0  0  0  0  0
   20.5303   29.9997   11.7738 C   0  0  0  0  0  0  0  0  0  0  0  0
   19.9202   30.2521   13.1169 C   0  0  1  0  0  0  0  0  0  0  0  0
   21.0382   30.7600   14.0342 C   0  0  0  0  0  0  0  0  0  0  0  0
   22.1975   29.7783   14.2862 C   0  0  0  0  0  0  0  0  0  0  0  0
   21.8558   28.9394   15.4366 N   0  0  0  0  0  0  0  0  0  0  0  0
   18.9516   31.2613   13.0290 O   0  0  0  0  0  0  0  0  0  0  0  0
   18.3567   26.0340   11.2320 C   0  0  0  0  0  0  0  0  0  0  0  0
   18.9295   24.6588   11.5410 C   0  0  0  0  0  0  0  0  0  0  0  0
   24.8952   24.6045    5.8339 C   0  0  1  0  0  0  0  0  0  0  0  0
   20.1794   24.6873   12.3271 N   0  0  0  0  0  0  0  0  0  0  0  0
   25.0109   23.3431    5.1805 O   0  0  0  0  0  0  0  0  0  0  0  0
   23.5382   27.2645    9.9402 C   0  0  2  0  0  0  0  0  0  0  0  0
   24.8051   27.8797    9.5651 N   0  0  0  0  0  0  0  0  0  0  0  0
   22.5030   23.7925   12.3473 C   0  0  0  0  0  0  0  0  0  0  0  0
   22.8780   25.1485   13.0172 C   0  0  0  0  0  0  0  0  0  0  0  0
   20.9939   23.4514   12.4568 C   0  0  0  0  0  0  0  0  0  0  0  0
   24.3081   25.5096   12.7810 N   0  0  0  0  0  0  0  0  0  0  0  0
   20.8269   30.5513   10.8968 O   0  0  0  0  0  0  0  0  0  0  0  0
   26.0088   25.5734    5.3885 C   0  0  2  0  0  0  0  0  0  0  0  0
   27.3136   25.0566    5.6377 O   0  0  0  0  0  0  0  0  0  0  0  0
   22.6936   27.1157    8.6904 C   0  0  2  0  0  0  0  0  0  0  0  0
   25.8628   26.9363    6.0891 C   0  0  2  0  0  0  0  0  0  0  0  0
   24.5567   27.4836    5.8777 O   0  0  0  0  0  0  0  0  0  0  0  0
   21.3141   26.4304    9.0533 C   0  0  2  0  0  0  0  0  0  0  0  0
   20.5141   26.3163    7.8346 O   0  0  0  0  0  0  0  0  0  0  0  0
   26.8899   27.9262    5.6084 C   0  0  0  0  0  0  0  0  0  0  0  0
   26.6414   28.2827    4.3022 O   0  0  0  0  0  0  0  0  0  0  0  0
   20.5707   27.3185   10.1078 C   0  0  1  0  0  0  0  0  0  0  0  0
   19.3357   26.7749   10.4735 O   0  0  0  0  0  0  0  0  0  0  0  0
  1  2  1  1  0  0  0
  1  5  1  0  0  0  0
  1 30  1  0  0  0  0
  3  4  1  1  0  0  0
  3  7  1  0  0  0  0
  3 35  1  0  0  0  0
  5  6  1  1  0  0  0
  5 16  1  0  0  0  0
  7 19  1  0  0  0  0
  8  4  1  0  0  0  0
  8 25  2  0  0  0  0
  9  8  1  6  0  0  0
  9 10  1  0  0  0  0
  9 13  1  0  0  0  0
 10 11  1  0  0  0  0
 11 12  1  0  0  0  0
 14 15  1  0  0  0  0
 14 36  1  0  0  0  0
 15 17  1  0  0  0  0
 16 18  1  6  0  0  0
 16 26  1  0  0  0  0
 17 23  1  0  0  0  0
 19 20  1  6  0  0  0
 19 28  1  0  0  0  0
 21 22  1  0  0  0  0
 21 23  1  0  0  0  0
 22 24  1  0  0  0  0
 26 27  1  1  0  0  0
 26 29  1  0  0  0  0
 28  2  1  6  0  0  0
 28 31  1  0  0  0  0
 29 30  1  0  0  0  0
 29 33  1  6  0  0  0
 31 32  1  6  0  0  0
 31 35  1  0  0  0  0
 33 34  1  0  0  0  0
 35 36  1  1  0  0  0
M  END
>  <CHROM.1>
-143.20772991,52.47220798,96.01338325,-62.55127322,-88.08530677,59.96512461
-47.88953579,-167.27303817,139.43029713,-174.52148153,36.82002299,-142.75928766
68.70101020,-26.29109748,22.54390301,26.93661434,9.62430098,-0.55950874,0.89432005
0.35105263

>  <Name>
2f4u_lig

>  <RI>
0

>  <Rbt.Current_Directory>
/home/itssahil/PROJECTS/Mol_Feturizer/New_Systems/rnas/2f4u

>  <Rbt.Executable>
rbdock ($Id: //depot/dev/client3/rdock/2013.1/src/exe/rbdock.cxx#4 $)

>  <Rbt.Library>
libRbt.so (2013.1, Build901 2013/11/27)

>  <Rbt.Parameter_File>
/export/apps/rDock/src/rDock_2013.1_src/data/scripts/dock_solv.prm

>  <Rbt.Receptor>
prm/blind_docking_100.prm

>  <SCORE>
8.08831

>  <SCORE.INTER>
5.37609

>  <SCORE.INTER.CONST>
1

>  <SCORE.INTER.POLAR>
0

>  <SCORE.INTER.ROT>
14

>  <SCORE.INTER.SOLV>
17.8669

>  <SCORE.INTER.VDW>
-15.3049

>  <SCORE.INTER.norm>
0.149336

>  <SCORE.INTRA>
-0.80764

>  <SCORE.INTRA.DIHEDRAL>
-3.82126

>  <SCORE.INTRA.DIHEDRAL.0>
26.3805

>  <SCORE.INTRA.POLAR>
0

>  <SCORE.INTRA.POLAR.0>
0

>  <SCORE.INTRA.REPUL>
0

>  <SCORE.INTRA.REPUL.0>
0

>  <SCORE.INTRA.SOLV>
8.57239

>  <SCORE.INTRA.SOLV.lig_0>
-98.5587

>  <SCORE.INTRA.VDW>
-3.18321

>  <SCORE.INTRA.VDW.0>
-2.91167

>  <SCORE.INTRA.norm>
-0.0224344

>  <SCORE.RESTR>
3.51986

>  <SCORE.RESTR.CAVITY>
3.51986

>  <SCORE.RESTR.norm>
0.0977738

>  <SCORE.SYSTEM>
0

>  <SCORE.SYSTEM.CONST>
0

>  <SCORE.SYSTEM.DIHEDRAL>
0

>  <SCORE.SYSTEM.SOLV>
0

>  <SCORE.SYSTEM.norm>
0

>  <SCORE.heavy>
36

>  <SCORE.norm>
0.224675

>  <RMSD>
27.925

$$$$
2f4u_lig
 OpenBabel11021811433D
libRbt.so/2013.1/901 2013/11/27
 36 37  0  0  0  0  0  0  0  0999 V2000
   21.3302   26.9399   13.6401 C   0  0  2  0  0  0  0  0  0  0  0  0
   20.8556   27.3464   12.3031 O   0  0  0  0  0  0  0  0  0  0  0  0
   21.0882   25.9118    8.2064 C   0  0  2  0  0  0  0  0  0  0  0  0
   21.6449   25.2862    6.9762 N   0  0  0  0  0  0  0  0  0  0  0  0
   22.3983   27.9907   14.0751 C   0  0  2  0  0  0  0  0  0  0  0  0
   21.8618   29.3636   14.1139 N   0  0  0  0  0  0  0  0  0  0  0  0
   21.9554   27.1302    8.6825 C   0  0  0  0  0  0  0  0  0  0  0  0
   23.3924   24.9650    7.1510 C   0  0  0  0  0  0  0  0  0  0  0  0
   23.3195   24.5717    5.7089 C   0  0  1  0  0  0  0  0  0  0  0  0
   23.3007   25.8653    4.8868 C   0  0  0  0  0  0  0  0  0  0  0  0
   21.9144   26.4959    4.6596 C   0  0  0  0  0  0  0  0  0  0  0  0
   22.0540   27.5952    3.7025 N   0  0  0  0  0  0  0  0  0  0  0  0
   24.4652   23.8524    5.3426 O   0  0  0  0  0  0  0  0  0  0  0  0
   19.1521   23.0516    8.3124 C   0  0  0  0  0  0  0  0  0  0  0  0
   17.9381   23.3447    9.1813 C   0  0  0  0  0  0  0  0  0  0  0  0
   23.6109   27.9158   13.0888 C   0  0  1  0  0  0  0  0  0  0  0  0
   17.7854   24.7676    9.5462 N   0  0  0  0  0  0  0  0  0  0  0  0
   24.6133   28.8671   13.4375 O   0  0  0  0  0  0  0  0  0  0  0  0
   21.4017   27.7365    9.9880 C   0  0  2  0  0  0  0  0  0  0  0  0
   22.2332   28.8390   10.4542 N   0  0  0  0  0  0  0  0  0  0  0  0
   17.7659   26.3713   11.4510 C   0  0  0  0  0  0  0  0  0  0  0  0
   17.9077   27.5736   10.4699 C   0  0  0  0  0  0  0  0  0  0  0  0
   17.0904   25.1319   10.8080 C   0  0  0  0  0  0  0  0  0  0  0  0
   16.5840   28.0194    9.9404 N   0  0  0  0  0  0  0  0  0  0  0  0
   24.1300   25.0789    7.9284 O   0  0  0  0  0  0  0  0  0  0  0  0
   24.1656   26.4775   13.1167 C   0  0  2  0  0  0  0  0  0  0  0  0
   25.2747   26.3034   12.2384 O   0  0  0  0  0  0  0  0  0  0  0  0
   21.3509   26.6852   11.0786 C   0  0  2  0  0  0  0  0  0  0  0  0
   23.0693   25.4596   12.7541 C   0  0  2  0  0  0  0  0  0  0  0  0
   21.9270   25.6125   13.6037 O   0  0  0  0  0  0  0  0  0  0  0  0
   20.4379   25.4774   10.6180 C   0  0  2  0  0  0  0  0  0  0  0  0
   20.4219   24.4722   11.6798 O   0  0  0  0  0  0  0  0  0  0  0  0
   23.5656   24.0420   12.8548 C   0  0  0  0  0  0  0  0  0  0  0  0
   22.6384   23.1686   12.3326 O   0  0  0  0  0  0  0  0  0  0  0  0
   21.0325   24.8672    9.3037 C   0  0  1  0  0  0  0  0  0  0  0  0
   20.2768   23.7870    8.8386 O   0  0  0  0  0  0  0  0  0  0  0  0
  1  2  1  6  0  0  0
  1  5  1  0  0  0  0
  1 30  1  0  0  0  0
  3  4  1  6  0  0  0
  3  7  1  0  0  0  0
  3 35  1  0  0  0  0
  5  6  1  6  0  0  0
  5 16  1  0  0  0  0
  7 19  1  0  0  0  0
  8  4  1  0  0  0  0
  8 25  2  0  0  0  0
  9  8  1  1  0  0  0
  9 10  1  0  0  0  0
  9 13  1  0  0  0  0
 10 11  1  0  0  0  0
 11 12  1  0  0  0  0
 14 15  1  0  0  0  0
 14 36  1  0  0  0  0
 15 17  1  0  0  0  0
 16 18  1  1  0  0  0
 16 26  1  0  0  0  0
 17 23  1  0  0  0  0
 19 20  1  1  0  0  0
 19 28  1  0  0  0  0
 21 22  1  0  0  0  0
 21 23  1  0  0  0  0
 22 24  1  0  0  0  0
 26 27  1  6  0  0  0
 26 29  1  0  0  0  0
 28  2  1  1  0  0  0
 28 31  1  0  0  0  0
 29 30  1  0  0  0  0
 29 33  1  1  0  0  0
 31 32  1  1  0  0  0
 31 35  1  0  0  0  0
 33 34  1  0  0  0  0
 35 36  1  6  0  0  0
M  END
>  <CHROM.1>
100.83161431,49.33485198,78.58000084,-86.64330488,-171.70199423,43.35176789
-52.47081342,-152.43748552,143.62122127,58.78745142,52.58046162,-146.18325392
-170.81109450,-58.18906818,21.52124695,25.98449394,10.08651703,1.53696346
0.12285021,1.32824614

>  <Name>
2f4u_lig

>  <RI>
0

>  <Rbt.Current_Directory>
/home/itssahil/PROJECTS/Mol_Feturizer/New_Systems/rnas/2f4u

>  <Rbt.Executable>
rbdock ($Id: //depot/dev/client3/rdock/2013.1/src/exe/rbdock.cxx#4 $)

>  <Rbt.Library>
libRbt.so (2013.1, Build901 2013/11/27)

>  <Rbt.Parameter_File>
/export/apps/rDock/src/rDock_2013.1_src/data/scripts/dock_solv.prm

>  <Rbt.Receptor>
prm/blind_docking_60.prm

>  <SCORE>
5.53051

>  <SCORE.INTER>
0.54023

>  <SCORE.INTER.CONST>
1

>  <SCORE.INTER.POLAR>
-1.03923

>  <SCORE.INTER.ROT>
14

>  <SCORE.INTER.SOLV>
15.2232

>  <SCORE.INTER.VDW>
-14.1835

>  <SCORE.INTER.norm>
0.0150064

>  <SCORE.INTRA>
-0.224875

>  <SCORE.INTRA.DIHEDRAL>
-9.66666

>  <SCORE.INTRA.DIHEDRAL.0>
26.3805

>  <SCORE.INTRA.POLAR>
0

>  <SCORE.INTRA.POLAR.0>
0

>  <SCORE.INTRA.REPUL>
0.00768883

>  <SCORE.INTRA.REPUL.0>
0

>  <SCORE.INTRA.SOLV>
8.53907

>  <SCORE.INTRA.SOLV.lig_0>
-98.5587

>  <SCORE.INTRA.VDW>
0.300475

>  <SCORE.INTRA.VDW.0>
-2.91167

>  <SCORE.INTRA.norm>
-0.00624653

>  <SCORE.RESTR>
5.21516

>  <SCORE.RESTR.CAVITY>
5.21516

>  <SCORE.RESTR.norm>
0.144865

>  <SCORE.SYSTEM>
0

>  <SCORE.SYSTEM.CONST>
0

>  <SCORE.SYSTEM.DIHEDRAL>
0

>  <SCORE.SYSTEM.SOLV>
0

>  <SCORE.SYSTEM.norm>
0

>  <SCORE.heavy>
36

>  <SCORE.norm>
0.153625

>  <RMSD>
27.950

$$$$
2f4u_lig
 OpenBabel11021811433D
libRbt.so/2013.1/901 2013/11/27
 36 37  0  0  0  0  0  0  0  0999 V2000
   23.7720   28.2751   10.2110 C   0  0  2  0  0  0  0  0  0  0  0  0
   23.8145   26.8091   10.3744 O   0  0  0  0  0  0  0  0  0  0  0  0
   20.0194   25.5348    8.6808 C   0  0  2  0  0  0  0  0  0  0  0  0
   18.9775   24.6412    8.1056 N   0  0  0  0  0  0  0  0  0  0  0  0
   24.6690   28.8776   11.3363 C   0  0  2  0  0  0  0  0  0  0  0  0
   26.0600   28.3922   11.2752 N   0  0  0  0  0  0  0  0  0  0  0  0
   21.3273   25.5362    7.8133 C   0  0  0  0  0  0  0  0  0  0  0  0
   19.4956   23.9775    6.5313 C   0  0  0  0  0  0  0  0  0  0  0  0
   18.1099   23.4154    6.4730 C   0  0  1  0  0  0  0  0  0  0  0  0
   18.0189   22.3222    7.5436 C   0  0  0  0  0  0  0  0  0  0  0  0
   16.7241   21.4887    7.5433 C   0  0  0  0  0  0  0  0  0  0  0  0
   16.7619   20.5698    6.4039 N   0  0  0  0  0  0  0  0  0  0  0  0
   17.1702   24.4042    6.7949 O   0  0  0  0  0  0  0  0  0  0  0  0
   18.2707   25.0897   11.9644 C   0  0  0  0  0  0  0  0  0  0  0  0
   18.6638   23.9660   12.9117 C   0  0  0  0  0  0  0  0  0  0  0  0
   24.0390   28.5282   12.7254 C   0  0  1  0  0  0  0  0  0  0  0  0
   20.1141   23.8782   13.1765 N   0  0  0  0  0  0  0  0  0  0  0  0
   24.8295   29.0485   13.7912 O   0  0  0  0  0  0  0  0  0  0  0  0
   22.4196   26.4215    8.4472 C   0  0  2  0  0  0  0  0  0  0  0  0
   23.6492   26.3866    7.6655 N   0  0  0  0  0  0  0  0  0  0  0  0
   22.0895   22.6234   12.3261 C   0  0  0  0  0  0  0  0  0  0  0  0
   21.8384   22.5947   10.7885 C   0  0  0  0  0  0  0  0  0  0  0  0
   20.7847   22.5525   13.1616 C   0  0  0  0  0  0  0  0  0  0  0  0
   23.1138   22.4901   10.0178 N   0  0  0  0  0  0  0  0  0  0  0  0
   20.3784   24.0349    5.9158 O   0  0  0  0  0  0  0  0  0  0  0  0
   22.6053   29.0942   12.7595 C   0  0  2  0  0  0  0  0  0  0  0  0
   21.9388   28.8184   13.9889 O   0  0  0  0  0  0  0  0  0  0  0  0
   22.7354   25.9466    9.8515 C   0  0  2  0  0  0  0  0  0  0  0  0
   21.7676   28.5368   11.5946 C   0  0  2  0  0  0  0  0  0  0  0  0
   22.4119   28.7782   10.3389 O   0  0  0  0  0  0  0  0  0  0  0  0
   21.4264   25.9899   10.7399 C   0  0  2  0  0  0  0  0  0  0  0  0
   21.7560   25.5103   12.0813 O   0  0  0  0  0  0  0  0  0  0  0  0
   20.3881   29.1384   11.5584 C   0  0  0  0  0  0  0  0  0  0  0  0
   20.4618   30.5035   11.3967 O   0  0  0  0  0  0  0  0  0  0  0  0
   20.3417   25.0681   10.0867 C   0  0  1  0  0  0  0  0  0  0  0  0
   19.1538   25.0531   10.8235 O   0  0  0  0  0  0  0  0  0  0  0  0
  1  2  1  1  0  0  0
  1  5  1  0  0  0  0
  1 30  1  0  0  0  0
  3  4  1  6  0  0  0
  3  7  1  0  0  0  0
  3 35  1  0  0  0  0
  5  6  1  1  0  0  0
  5 16  1  0  0  0  0
  7 19  1  0  0  0  0
  8  4  1  0  0  0  0
  8 25  2  0  0  0  0
  9  8  1  1  0  0  0
  9 10  1  0  0  0  0
  9 13  1  0  0  0  0
 10 11  1  0  0  0  0
 11 12  1  0  0  0  0
 14 15  1  0  0  0  0
 14 36  1  0  0  0  0
 15 17  1  0  0  0  0
 16 18  1  1  0  0  0
 16 26  1  0  0  0  0
 17 23  1  0  0  0  0
 19 20  1  6  0  0  0
 19 28  1  0  0  0  0
 21 22  1  0  0  0  0
 21 23  1  0  0  0  0
 22 24  1  0  0  0  0
 26 27  1  1  0  0  0
 26 29  1  0  0  0  0
 28  2  1  1  0  0  0
 28 31  1  0  0  0  0
 29 30  1  0  0  0  0
 29 33  1  6  0  0  0
 31 32  1  1  0  0  0
 31 35  1  0  0  0  0
 33 34  1  0  0  0  0
 35 36  1  1  0  0  0
M  END
>  <CHROM.1>
156.70985407,-5.34179820,-69.05560986,-172.81285034,73.93477128,47.06416264
-57.53189857,-135.64439146,133.00478761,-172.79018951,-77.78754804,45.23007473
60.38615616,-155.52987547,21.10837336,25.70168679,10.22760211,-0.42199197
-0.89488019,-1.44098933

>  <Name>
2f4u_lig

>  <RI>
0

>  <Rbt.Current_Directory>
/home/itssahil/PROJECTS/Mol_Feturizer/New_Systems/rnas/2f4u

>  <Rbt.Executable>
rbdock ($Id: //depot/dev/client3/rdock/2013.1/src/exe/rbdock.cxx#4 $)

>  <Rbt.Library>
libRbt.so (2013.1, Build901 2013/11/27)

>  <Rbt.Parameter_File>
/export/apps/rDock/src/rDock_2013.1_src/data/scripts/dock_solv.prm

>  <Rbt.Receptor>
prm/blind_docking_80.prm

>  <SCORE>
0.0866029

>  <SCORE.INTER>
-6.01089

>  <SCORE.INTER.CONST>
1

>  <SCORE.INTER.POLAR>
-1.03923

>  <SCORE.INTER.ROT>
14

>  <SCORE.INTER.SOLV>
16.5949

>  <SCORE.INTER.VDW>
-19.0081

>  <SCORE.INTER.norm>
-0.166969

>  <SCORE.INTRA>
4.87757

>  <SCORE.INTRA.DIHEDRAL>
-13.4835

>  <SCORE.INTRA.DIHEDRAL.0>
26.3805

>  <SCORE.INTRA.POLAR>
0

>  <SCORE.INTRA.POLAR.0>
0

>  <SCORE.INTRA.REPUL>
0

>  <SCORE.INTRA.REPUL.0>
0

>  <SCORE.INTRA.SOLV>
7.54412

>  <SCORE.INTRA.SOLV.lig_0>
-98.5587

>  <SCORE.INTRA.VDW>
7.84724

>  <SCORE.INTRA.VDW.0>
-2.91167

>  <SCORE.INTRA.norm>
0.135488

>  <SCORE.RESTR>
1.21992

>  <SCORE.RESTR.CAVITY>
1.21992

>  <SCORE.RESTR.norm>
0.0338867

>  <SCORE.SYSTEM>
0

>  <SCORE.SYSTEM.CONST>
0

>  <SCORE.SYSTEM.DIHEDRAL>
0

>  <SCORE.SYSTEM.SOLV>
0

>  <SCORE.SYSTEM.norm>
0

>  <SCORE.heavy>
36

>  <SCORE.norm>
0.00240564

>  <RMSD>
27.986

$$$$
2f4u_lig
 OpenBabel11021811433D
libRbt.so/2013.1/901 2013/11/27
 36 37  0  0  0  0  0  0  0  0999 V2000
   18.6419   24.2310   11.3900 C   0  0  2  0  0  0  0  0  0  0  0  0
   18.5126   25.6083   10.8758 O   0  0  0  0  0  0  0  0  0  0  0  0
   21.8625   25.9529    8.1272 C   0  0  2  0  0  0  0  0  0  0  0  0
   22.7068   26.4632    7.0130 N   0  0  0  0  0  0  0  0  0  0  0  0
   17.9639   24.2118   12.7950 C   0  0  2  0  0  0  0  0  0  0  0  0
   16.5459   24.6133   12.7472 N   0  0  0  0  0  0  0  0  0  0  0  0
   20.4514   25.4879    7.6213 C   0  0  0  0  0  0  0  0  0  0  0  0
   22.5133   25.4622    5.5474 C   0  0  0  0  0  0  0  0  0  0  0  0
   23.6127   26.3134    4.9937 C   0  0  1  0  0  0  0  0  0  0  0  0
   24.9332   25.7614    5.5423 C   0  0  0  0  0  0  0  0  0  0  0  0
   24.8938   24.3081    6.0498 C   0  0  0  0  0  0  0  0  0  0  0  0
   24.4277   23.4470    4.9611 N   0  0  0  0  0  0  0  0  0  0  0  0
   23.6548   26.2052    3.5970 O   0  0  0  0  0  0  0  0  0  0  0  0
   24.3309   27.3724   10.0373 C   0  0  0  0  0  0  0  0  0  0  0  0
   24.7696   28.7537   10.5000 C   0  0  0  0  0  0  0  0  0  0  0  0
   18.7586   25.1611   13.7520 C   0  0  1  0  0  0  0  0  0  0  0  0
   23.9418   29.3190   11.5846 N   0  0  0  0  0  0  0  0  0  0  0  0
   18.1710   25.1875   15.0502 O   0  0  0  0  0  0  0  0  0  0  0  0
   19.5650   25.0130    8.7906 C   0  0  2  0  0  0  0  0  0  0  0  0
   18.2394   24.6241    8.3261 N   0  0  0  0  0  0  0  0  0  0  0  0
   21.8632   30.2362   12.6035 C   0  0  0  0  0  0  0  0  0  0  0  0
   21.9049   29.2462   13.8062 C   0  0  0  0  0  0  0  0  0  0  0  0
   22.5223   29.6686   11.3193 C   0  0  0  0  0  0  0  0  0  0  0  0
   23.3036   28.9721   14.2535 N   0  0  0  0  0  0  0  0  0  0  0  0
   21.9192   24.6101    5.2606 O   0  0  0  0  0  0  0  0  0  0  0  0
   20.2210   24.6757   13.8057 C   0  0  2  0  0  0  0  0  0  0  0  0
   21.0343   25.4863   14.6502 O   0  0  0  0  0  0  0  0  0  0  0  0
   19.4045   26.1187    9.8148 C   0  0  2  0  0  0  0  0  0  0  0  0
   20.8382   24.6367   12.3961 C   0  0  2  0  0  0  0  0  0  0  0  0
   20.0404   23.8447   11.5093 O   0  0  0  0  0  0  0  0  0  0  0  0
   20.8244   26.5554   10.3603 C   0  0  2  0  0  0  0  0  0  0  0  0
   20.6408   27.6335   11.3309 O   0  0  0  0  0  0  0  0  0  0  0  0
   22.2397   24.0873   12.4131 C   0  0  0  0  0  0  0  0  0  0  0  0
   23.0859   24.9461   13.0776 O   0  0  0  0  0  0  0  0  0  0  0  0
   21.6967   27.0521    9.1579 C   0  0  1  0  0  0  0  0  0  0  0  0
   22.9694   27.4608    9.5672 O   0  0  0  0  0  0  0  0  0  0  0  0
  1  2  1  1  0  0  0
  1  5  1  0  0  0  0
  1 30  1  0  0  0  0
  3  4  1  6  0  0  0
  3  7  1  0  0  0  0
  3 35  1  0  0  0  0
  5  6  1  6  0  0  0
  5 16  1  0  0  0  0
  7 19  1  0  0  0  0
  8  4  1  0  0  0  0
  8 25  2  0  0  0  0
  9  8  1  1  0  0  0
  9 10  1  0  0  0  0
  9 13  1  0  0  0  0
 10 11  1  0  0  0  0
 11 12  1  0  0  0  0
 14 15  1  0  0  0  0
 14 36  1  0  0  0  0
 15 17  1  0  0  0  0
 16 18  1  1  0  0  0
 16 26  1  0  0  0  0
 17 23  1  0  0  0  0
 19 20  1  6  0  0  0
 19 28  1  0  0  0  0
 21 22  1  0  0  0  0
 21 23  1  0  0  0  0
 22 24  1  0  0  0  0
 26 27  1  1  0  0  0
 26 29  1  0  0  0  0
 28  2  1  1  0  0  0
 28 31  1  0  0  0  0
 29 30  1  0  0  0  0
 29 33  1  1  0  0  0
 31 32  1  1  0  0  0
 31 35  1  0  0  0  0
 33 34  1  0  0  0  0
 35 36  1  1  0  0  0
M  END
>  <CHROM.1>
159.06684423,-40.18566436,80.48195832,20.31049406,56.80678581,59.29181801
-164.91164134,-66.32326750,179.81190794,64.68555545,-58.63107096,41.67586445
-66.85936265,-49.23174658,21.48108571,26.07748730,10.15345910,2.13872527
0.65992282,1.15730842

>  <Name>
2f4u_lig

>  <RI>
0

>  <Rbt.Current_Directory>
/home/itssahil/PROJECTS/Mol_Feturizer/New_Systems/rnas/2f4u

>  <Rbt.Executable>
rbdock ($Id: //depot/dev/client3/rdock/2013.1/src/exe/rbdock.cxx#4 $)

>  <Rbt.Library>
libRbt.so (2013.1, Build901 2013/11/27)

>  <Rbt.Parameter_File>
/export/apps/rDock/src/rDock_2013.1_src/data/scripts/dock_solv.prm

>  <Rbt.Receptor>
prm/blind_docking_60.prm

>  <SCORE>
3.70458

>  <SCORE.INTER>
-2.56544

>  <SCORE.INTER.CONST>
1

>  <SCORE.INTER.POLAR>
-1.03923

>  <SCORE.INTER.ROT>
14

>  <SCORE.INTER.SOLV>
16.0418

>  <SCORE.INTER.VDW>
-16.5268

>  <SCORE.INTER.norm>
-0.0712622

>  <SCORE.INTRA>
0.34071

>  <SCORE.INTRA.DIHEDRAL>
-15.4785

>  <SCORE.INTRA.DIHEDRAL.0>
26.3805

>  <SCORE.INTRA.POLAR>
0

>  <SCORE.INTRA.POLAR.0>
0

>  <SCORE.INTRA.REPUL>
0

>  <SCORE.INTRA.REPUL.0>
0

>  <SCORE.INTRA.SOLV>
9.98975

>  <SCORE.INTRA.SOLV.lig_0>
-98.5587

>  <SCORE.INTRA.VDW>
3.08508

>  <SCORE.INTRA.VDW.0>
-2.91167

>  <SCORE.INTRA.norm>
0.00946418

>  <SCORE.RESTR>
5.92931

>  <SCORE.RESTR.CAVITY>
5.92931

>  <SCORE.RESTR.norm>
0.164703

>  <SCORE.SYSTEM>
0

>  <SCORE.SYSTEM.CONST>
0

>  <SCORE.SYSTEM.DIHEDRAL>
0

>  <SCORE.SYSTEM.SOLV>
0

>  <SCORE.SYSTEM.norm>
0

>  <SCORE.heavy>
36

>  <SCORE.norm>
0.102905

>  <RMSD>
28.004

$$$$
2f4u_lig
 OpenBabel11021811433D
libRbt.so/2013.1/901 2013/11/27
 36 37  0  0  0  0  0  0  0  0999 V2000
   22.8167   29.9428   13.9386 C   0  0  2  0  0  0  0  0  0  0  0  0
   23.6749   28.7848   13.6217 O   0  0  0  0  0  0  0  0  0  0  0  0
   23.7248   25.2867   11.0417 C   0  0  2  0  0  0  0  0  0  0  0  0
   23.2377   24.2284   10.1157 N   0  0  0  0  0  0  0  0  0  0  0  0
   21.6349   29.4018   14.8017 C   0  0  2  0  0  0  0  0  0  0  0  0
   22.0905   28.7435   16.0400 N   0  0  0  0  0  0  0  0  0  0  0  0
   22.9465   25.2701   12.4044 C   0  0  0  0  0  0  0  0  0  0  0  0
   21.4716   24.0100   10.2591 C   0  0  0  0  0  0  0  0  0  0  0  0
   21.6820   22.8575    9.3278 C   0  0  1  0  0  0  0  0  0  0  0  0
   22.4977   21.8048   10.0867 C   0  0  0  0  0  0  0  0  0  0  0  0
   22.4954   21.9322   11.6213 C   0  0  0  0  0  0  0  0  0  0  0  0
   21.2874   21.2879   12.1405 N   0  0  0  0  0  0  0  0  0  0  0  0
   20.4525   22.2773    8.9869 O   0  0  0  0  0  0  0  0  0  0  0  0
   24.5633   26.9146    7.7823 C   0  0  0  0  0  0  0  0  0  0  0  0
   24.1217   25.7475    6.9119 C   0  0  0  0  0  0  0  0  0  0  0  0
   20.7965   28.4011   13.9390 C   0  0  1  0  0  0  0  0  0  0  0  0
   22.7563   25.2629    7.1979 N   0  0  0  0  0  0  0  0  0  0  0  0
   19.7072   27.8682   14.6878 O   0  0  0  0  0  0  0  0  0  0  0  0
   23.4206   26.4051   13.3349 C   0  0  2  0  0  0  0  0  0  0  0  0
   22.6662   26.4173   14.5819 N   0  0  0  0  0  0  0  0  0  0  0  0
   21.1243   26.9647    6.3977 C   0  0  0  0  0  0  0  0  0  0  0  0
   20.6889   27.2862    7.8590 C   0  0  0  0  0  0  0  0  0  0  0  0
   21.6656   25.5218    6.2228 C   0  0  0  0  0  0  0  0  0  0  0  0
   19.4000   26.6203    8.2152 N   0  0  0  0  0  0  0  0  0  0  0  0
   20.6739   24.4709   10.8181 O   0  0  0  0  0  0  0  0  0  0  0  0
   20.3047   29.1451   12.6813 C   0  0  2  0  0  0  0  0  0  0  0  0
   19.5336   28.3109   11.8204 O   0  0  0  0  0  0  0  0  0  0  0  0
   23.2442   27.7503   12.6593 C   0  0  2  0  0  0  0  0  0  0  0  0
   21.4895   29.7290   11.8908 C   0  0  2  0  0  0  0  0  0  0  0  0
   22.3017   30.5617   12.7257 O   0  0  0  0  0  0  0  0  0  0  0  0
   24.0674   27.7845   11.3081 C   0  0  2  0  0  0  0  0  0  0  0  0
   23.8646   29.0845   10.6701 O   0  0  0  0  0  0  0  0  0  0  0  0
   21.0295   30.5306   10.7026 C   0  0  0  0  0  0  0  0  0  0  0  0
   22.1086   30.9536    9.9598 O   0  0  0  0  0  0  0  0  0  0  0  0
   23.5533   26.6370   10.3742 C   0  0  1  0  0  0  0  0  0  0  0  0
   24.2350   26.6093    9.1540 O   0  0  0  0  0  0  0  0  0  0  0  0
  1  2  1  6  0  0  0
  1  5  1  0  0  0  0
  1 30  1  0  0  0  0
  3  4  1  6  0  0  0
  3  7  1  0  0  0  0
  3 35  1  0  0  0  0
  5  6  1  1  0  0  0
  5 16  1  0  0  0  0
  7 19  1  0  0  0  0
  8  4  1  0  0  0  0
  8 25  2  0  0  0  0
  9  8  1  1  0  0  0
  9 10  1  0  0  0  0
  9 13  1  0  0  0  0
 10 11  1  0  0  0  0
 11 12  1  0  0  0  0
 14 15  1  0  0  0  0
 14 36  1  0  0  0  0
 15 17  1  0  0  0  0
 16 18  1  1  0  0  0
 16 26  1  0  0  0  0
 17 23  1  0  0  0  0
 19 20  1  1  0  0  0
 19 28  1  0  0  0  0
 21 22  1  0  0  0  0
 21 23  1  0  0  0  0
 22 24  1  0  0  0  0
 26 27  1  6  0  0  0
 26 29  1  0  0  0  0
 28  2  1  1  0  0  0
 28 31  1  0  0  0  0
 29 30  1  0  0  0  0
 29 33  1  6  0  0  0
 31 32  1  6  0  0  0
 31 35  1  0  0  0  0
 33 34  1  0  0  0  0
 35 36  1  6  0  0  0
M  END
>  <CHROM.1>
72.02233093,36.62509058,66.79774700,19.02181566,83.27296622,46.77465669,-103.48512543
108.56545075,-80.76075463,-74.06446041,-53.71619929,-129.05295232,-175.44238880
150.25013283,22.13385118,26.71437498,10.99563123,-1.91578073,-1.49863400
-2.75856218

>  <Name>
2f4u_lig

>  <RI>
0

>  <Rbt.Current_Directory>
/home/itssahil/PROJECTS/Mol_Feturizer/New_Systems/rnas/2f4u

>  <Rbt.Executable>
rbdock ($Id: //depot/dev/client3/rdock/2013.1/src/exe/rbdock.cxx#4 $)

>  <Rbt.Library>
libRbt.so (2013.1, Build901 2013/11/27)

>  <Rbt.Parameter_File>
/export/apps/rDock/src/rDock_2013.1_src/data/scripts/dock_solv.prm

>  <Rbt.Receptor>
prm/blind_docking_60.prm

>  <SCORE>
14.7457

>  <SCORE.INTER>
-1.56272

>  <SCORE.INTER.CONST>
1

>  <SCORE.INTER.POLAR>
-1.21181

>  <SCORE.INTER.ROT>
14

>  <SCORE.INTER.SOLV>
25.7577

>  <SCORE.INTER.VDW>
-18.5217

>  <SCORE.INTER.norm>
-0.043409

>  <SCORE.INTRA>
11.4598

>  <SCORE.INTRA.DIHEDRAL>
0.660718

>  <SCORE.INTRA.DIHEDRAL.0>
26.3805

>  <SCORE.INTRA.POLAR>
0

>  <SCORE.INTRA.POLAR.0>
0

>  <SCORE.INTRA.REPUL>
0.0164978

>  <SCORE.INTRA.REPUL.0>
0

>  <SCORE.INTRA.SOLV>
14.8839

>  <SCORE.INTRA.SOLV.lig_0>
-98.5587

>  <SCORE.INTRA.VDW>
3.60503

>  <SCORE.INTRA.VDW.0>
-2.91167

>  <SCORE.INTRA.norm>
0.318328

>  <SCORE.RESTR>
4.84865

>  <SCORE.RESTR.CAVITY>
4.84865

>  <SCORE.RESTR.norm>
0.134685

>  <SCORE.SYSTEM>
0

>  <SCORE.SYSTEM.CONST>
0

>  <SCORE.SYSTEM.DIHEDRAL>
0

>  <SCORE.SYSTEM.SOLV>
0

>  <SCORE.SYSTEM.norm>
0

>  <SCORE.heavy>
36

>  <SCORE.norm>
0.409604

>  <RMSD>
28.005

$$$$
2f4u_lig
 OpenBabel11021811433D
libRbt.so/2013.1/901 2013/11/27
 36 37  0  0  0  0  0  0  0  0999 V2000
   20.7130   28.9146   13.1127 C   0  0  2  0  0  0  0  0  0  0  0  0
   20.9717   28.9991   11.6622 O   0  0  0  0  0  0  0  0  0  0  0  0
   22.7620   26.6749    8.4547 C   0  0  2  0  0  0  0  0  0  0  0  0
   23.4944   25.5762    7.7682 N   0  0  0  0  0  0  0  0  0  0  0  0
   22.0333   29.3371   13.8286 C   0  0  2  0  0  0  0  0  0  0  0  0
   22.4690   30.6969   13.4609 N   0  0  0  0  0  0  0  0  0  0  0  0
   23.6579   27.3892    9.5273 C   0  0  0  0  0  0  0  0  0  0  0  0
   24.5511   26.2140    6.4783 C   0  0  0  0  0  0  0  0  0  0  0  0
   24.7892   24.7720    6.1566 C   0  0  1  0  0  0  0  0  0  0  0  0
   23.8041   24.3865    5.0474 C   0  0  0  0  0  0  0  0  0  0  0  0
   22.3110   24.5178    5.4005 C   0  0  0  0  0  0  0  0  0  0  0  0
   21.5223   23.9314    4.3150 N   0  0  0  0  0  0  0  0  0  0  0  0
   26.0854   24.5935    5.6542 O   0  0  0  0  0  0  0  0  0  0  0  0
   19.6710   24.7293    7.5465 C   0  0  0  0  0  0  0  0  0  0  0  0
   19.3799   23.5002    8.3946 C   0  0  0  0  0  0  0  0  0  0  0  0
   23.1522   28.3013   13.4765 C   0  0  1  0  0  0  0  0  0  0  0  0
   18.9273   23.8060    9.7667 N   0  0  0  0  0  0  0  0  0  0  0  0
   24.3859   28.6494   14.0994 O   0  0  0  0  0  0  0  0  0  0  0  0
   22.8729   28.4887   10.2712 C   0  0  2  0  0  0  0  0  0  0  0  0
   23.6914   29.1209   11.2982 N   0  0  0  0  0  0  0  0  0  0  0  0
   17.2348   24.0256   11.5798 C   0  0  0  0  0  0  0  0  0  0  0  0
   17.7541   25.3565   12.2022 C   0  0  0  0  0  0  0  0  0  0  0  0
   17.4741   23.9299   10.0504 C   0  0  0  0  0  0  0  0  0  0  0  0
   17.1204   26.5519   11.5690 N   0  0  0  0  0  0  0  0  0  0  0  0
   24.8138   27.1879    6.0987 O   0  0  0  0  0  0  0  0  0  0  0  0
   22.6719   26.9049   13.9198 C   0  0  2  0  0  0  0  0  0  0  0  0
   23.6238   25.8838   13.6322 O   0  0  0  0  0  0  0  0  0  0  0  0
   21.6442   27.9020   10.9370 C   0  0  2  0  0  0  0  0  0  0  0  0
   21.3314   26.5484   13.2524 C   0  0  2  0  0  0  0  0  0  0  0  0
   20.3494   27.5600   13.5028 O   0  0  0  0  0  0  0  0  0  0  0  0
   20.7169   27.2227    9.8492 C   0  0  2  0  0  0  0  0  0  0  0  0
   19.5508   26.6505   10.5206 O   0  0  0  0  0  0  0  0  0  0  0  0
   20.8008   25.2242   13.7332 C   0  0  0  0  0  0  0  0  0  0  0  0
   21.5257   24.1882   13.1888 O   0  0  0  0  0  0  0  0  0  0  0  0
   21.5300   26.0978    9.1235 C   0  0  1  0  0  0  0  0  0  0  0  0
   20.7691   25.4475    8.1476 O   0  0  0  0  0  0  0  0  0  0  0  0
  1  2  1  6  0  0  0
  1  5  1  0  0  0  0
  1 30  1  0  0  0  0
  3  4  1  1  0  0  0
  3  7  1  0  0  0  0
  3 35  1  0  0  0  0
  5  6  1  6  0  0  0
  5 16  1  0  0  0  0
  7 19  1  0  0  0  0
  8  4  1  0  0  0  0
  8 25  2  0  0  0  0
  9  8  1  6  0  0  0
  9 10  1  0  0  0  0
  9 13  1  0  0  0  0
 10 11  1  0  0  0  0
 11 12  1  0  0  0  0
 14 15  1  0  0  0  0
 14 36  1  0  0  0  0
 15 17  1  0  0  0  0
 16 18  1  1  0  0  0
 16 26  1  0  0  0  0
 17 23  1  0  0  0  0
 19 20  1  1  0  0  0
 19 28  1  0  0  0  0
 21 22  1  0  0  0  0
 21 23  1  0  0  0  0
 22 24  1  0  0  0  0
 26 27  1  6  0  0  0
 26 29  1  0  0  0  0
 28  2  1  6  0  0  0
 28 31  1  0  0  0  0
 29 30  1  0  0  0  0
 29 33  1  1  0  0  0
 31 32  1  1  0  0  0
 31 35  1  0  0  0  0
 33 34  1  0  0  0  0
 35 36  1  6  0  0  0
M  END
>  <CHROM.1>
82.40395411,-80.67815020,94.86342806,-61.17771290,-171.86315033,63.53334251
-52.10766428,91.72276222,170.98688509,58.09612865,68.61426604,-122.76577646
-73.76015900,-175.24491946,21.67542060,26.35461717,10.20815737,-1.84416481
-0.45839302,-2.04907599

>  <Name>
2f4u_lig

>  <RI>
0

>  <Rbt.Current_Directory>
/home/itssahil/PROJECTS/Mol_Feturizer/New_Systems/rnas/2f4u

>  <Rbt.Executable>
rbdock ($Id: //depot/dev/client3/rdock/2013.1/src/exe/rbdock.cxx#4 $)

>  <Rbt.Library>
libRbt.so (2013.1, Build901 2013/11/27)

>  <Rbt.Parameter_File>
/export/apps/rDock/src/rDock_2013.1_src/data/scripts/dock_solv.prm

>  <Rbt.Receptor>
prm/blind_docking_60.prm

>  <SCORE>
6.23618

>  <SCORE.INTER>
0.00207853

>  <SCORE.INTER.CONST>
1

>  <SCORE.INTER.POLAR>
-2.03323

>  <SCORE.INTER.ROT>
14

>  <SCORE.INTER.SOLV>
16.8282

>  <SCORE.INTER.VDW>
-11.7639

>  <SCORE.INTER.norm>
5.77368e-05

>  <SCORE.INTRA>
3.11407

>  <SCORE.INTRA.DIHEDRAL>
-12.3652

>  <SCORE.INTRA.DIHEDRAL.0>
26.3805

>  <SCORE.INTRA.POLAR>
0

>  <SCORE.INTRA.POLAR.0>
0

>  <SCORE.INTRA.REPUL>
0

>  <SCORE.INTRA.REPUL.0>
0

>  <SCORE.INTRA.SOLV>
13.0521

>  <SCORE.INTRA.SOLV.lig_0>
-98.5587

>  <SCORE.INTRA.VDW>
2.77061

>  <SCORE.INTRA.VDW.0>
-2.91167

>  <SCORE.INTRA.norm>
0.0865019

>  <SCORE.RESTR>
3.12003

>  <SCORE.RESTR.CAVITY>
3.12003

>  <SCORE.RESTR.norm>
0.0866676

>  <SCORE.SYSTEM>
0

>  <SCORE.SYSTEM.CONST>
0

>  <SCORE.SYSTEM.DIHEDRAL>
0

>  <SCORE.SYSTEM.SOLV>
0

>  <SCORE.SYSTEM.norm>
0

>  <SCORE.heavy>
36

>  <SCORE.norm>
0.173227

>  <RMSD>
28.005

$$$$
2f4u_lig
 OpenBabel11021811433D
libRbt.so/2013.1/901 2013/11/27
 36 37  0  0  0  0  0  0  0  0999 V2000
   22.5051   27.2613   12.3778 C   0  0  2  0  0  0  0  0  0  0  0  0
   21.4345   26.3099   12.0218 O   0  0  0  0  0  0  0  0  0  0  0  0
   21.1847   24.2480    8.2033 C   0  0  2  0  0  0  0  0  0  0  0  0
   20.7894   23.9545    6.7989 N   0  0  0  0  0  0  0  0  0  0  0  0
   22.3952   27.5050   13.9149 C   0  0  2  0  0  0  0  0  0  0  0  0
   22.5280   26.2628   14.6981 N   0  0  0  0  0  0  0  0  0  0  0  0
   19.9372   24.3393    9.1513 C   0  0  0  0  0  0  0  0  0  0  0  0
   20.4620   25.4583    5.8940 C   0  0  0  0  0  0  0  0  0  0  0  0
   20.0171   24.5362    4.8024 C   0  0  1  0  0  0  0  0  0  0  0  0
   21.2533   23.7623    4.3311 C   0  0  0  0  0  0  0  0  0  0  0  0
   22.5090   24.6090    4.0522 C   0  0  0  0  0  0  0  0  0  0  0  0
   23.6560   23.7094    3.9135 N   0  0  0  0  0  0  0  0  0  0  0  0
   19.0962   23.6037    5.2990 O   0  0  0  0  0  0  0  0  0  0  0  0
   24.2389   25.8126    6.6574 C   0  0  0  0  0  0  0  0  0  0  0  0
   25.4114   25.6745    7.6170 C   0  0  0  0  0  0  0  0  0  0  0  0
   21.0209   28.1881   14.2206 C   0  0  1  0  0  0  0  0  0  0  0  0
   25.9341   26.9602    8.1217 N   0  0  0  0  0  0  0  0  0  0  0  0
   20.8661   28.4231   15.6178 O   0  0  0  0  0  0  0  0  0  0  0  0
   20.3532   24.6983   10.5924 C   0  0  2  0  0  0  0  0  0  0  0  0
   19.1909   24.8275   11.4623 N   0  0  0  0  0  0  0  0  0  0  0  0
   25.4314   28.3799   10.1046 C   0  0  0  0  0  0  0  0  0  0  0  0
   25.5879   28.5892   11.6408 C   0  0  0  0  0  0  0  0  0  0  0  0
   26.1845   27.1312    9.5762 C   0  0  0  0  0  0  0  0  0  0  0  0
   24.5957   29.5708   12.1730 N   0  0  0  0  0  0  0  0  0  0  0  0
   20.5109   26.5153    6.0986 O   0  0  0  0  0  0  0  0  0  0  0  0
   20.9473   29.5019   13.4171 C   0  0  2  0  0  0  0  0  0  0  0  0
   19.7209   30.1988   13.6219 O   0  0  0  0  0  0  0  0  0  0  0  0
   21.1101   26.0113   10.6121 C   0  0  2  0  0  0  0  0  0  0  0  0
   21.1319   29.2357   11.9122 C   0  0  2  0  0  0  0  0  0  0  0  0
   22.3470   28.5202   11.6639 O   0  0  0  0  0  0  0  0  0  0  0  0
   22.3943   25.9044    9.6934 C   0  0  2  0  0  0  0  0  0  0  0  0
   23.0938   27.1883    9.7168 O   0  0  0  0  0  0  0  0  0  0  0  0
   21.1464   30.5126   11.1151 C   0  0  0  0  0  0  0  0  0  0  0  0
   21.4870   30.2593    9.8055 O   0  0  0  0  0  0  0  0  0  0  0  0
   21.9437   25.5599    8.2334 C   0  0  1  0  0  0  0  0  0  0  0  0
   23.0306   25.4543    7.3606 O   0  0  0  0  0  0  0  0  0  0  0  0
  1  2  1  6  0  0  0
  1  5  1  0  0  0  0
  1 30  1  0  0  0  0
  3  4  1  6  0  0  0
  3  7  1  0  0  0  0
  3 35  1  0  0  0  0
  5  6  1  1  0  0  0
  5 16  1  0  0  0  0
  7 19  1  0  0  0  0
  8  4  1  0  0  0  0
  8 25  2  0  0  0  0
  9  8  1  1  0  0  0
  9 10  1  0  0  0  0
  9 13  1  0  0  0  0
 10 11  1  0  0  0  0
 11 12  1  0  0  0  0
 14 15  1  0  0  0  0
 14 36  1  0  0  0  0
 15 17  1  0  0  0  0
 16 18  1  1  0  0  0
 16 26  1  0  0  0  0
 17 23  1  0  0  0  0
 19 20  1  1  0  0  0
 19 28  1  0  0  0  0
 21 22  1  0  0  0  0
 21 23  1  0  0  0  0
 22 24  1  0  0  0  0
 26 27  1  6  0  0  0
 26 29  1  0  0  0  0
 28  2  1  1  0  0  0
 28 31  1  0  0  0  0
 29 30  1  0  0  0  0
 29 33  1  6  0  0  0
 31 32  1  6  0  0  0
 31 35  1  0  0  0  0
 33 34  1  0  0  0  0
 35 36  1  6  0  0  0
M  END
>  <CHROM.1>
170.51944762,88.52882291,-65.83539253,-47.76955092,167.31442221,-104.50238490
75.55284528,132.37514180,-125.61738607,-165.61145667,177.20368649,160.60056712
172.09589690,-175.97124240,22.08980189,26.66162558,9.63337524,-1.55125048
-0.32763693,-2.05591000

>  <Name>
2f4u_lig

>  <RI>
0

>  <Rbt.Current_Directory>
/home/itssahil/PROJECTS/Mol_Feturizer/New_Systems/rnas/2f4u

>  <Rbt.Executable>
rbdock ($Id: //depot/dev/client3/rdock/2013.1/src/exe/rbdock.cxx#4 $)

>  <Rbt.Library>
libRbt.so (2013.1, Build901 2013/11/27)

>  <Rbt.Parameter_File>
/export/apps/rDock/src/rDock_2013.1_src/data/scripts/dock_solv.prm

>  <Rbt.Receptor>
prm/blind_docking_60.prm

>  <SCORE>
14.7018

>  <SCORE.INTER>
1.77116

>  <SCORE.INTER.CONST>
1

>  <SCORE.INTER.POLAR>
0

>  <SCORE.INTER.ROT>
14

>  <SCORE.INTER.SOLV>
18.0847

>  <SCORE.INTER.VDW>
-17.7808

>  <SCORE.INTER.norm>
0.049199

>  <SCORE.INTRA>
3.39546

>  <SCORE.INTRA.DIHEDRAL>
-12.652

>  <SCORE.INTRA.DIHEDRAL.0>
26.3805

>  <SCORE.INTRA.POLAR>
0

>  <SCORE.INTRA.POLAR.0>
0

>  <SCORE.INTRA.REPUL>
0

>  <SCORE.INTRA.REPUL.0>
0

>  <SCORE.INTRA.SOLV>
9.46053

>  <SCORE.INTRA.SOLV.lig_0>
-98.5587

>  <SCORE.INTRA.VDW>
4.99118

>  <SCORE.INTRA.VDW.0>
-2.91167

>  <SCORE.INTRA.norm>
0.0943184

>  <SCORE.RESTR>
9.53519

>  <SCORE.RESTR.CAVITY>
9.53519

>  <SCORE.RESTR.norm>
0.264866

>  <SCORE.SYSTEM>
0

>  <SCORE.SYSTEM.CONST>
0

>  <SCORE.SYSTEM.DIHEDRAL>
0

>  <SCORE.SYSTEM.SOLV>
0

>  <SCORE.SYSTEM.norm>
0

>  <SCORE.heavy>
36

>  <SCORE.norm>
0.408384

>  <RMSD>
28.030

$$$$
2f4u_lig
 OpenBabel11021811433D
libRbt.so/2013.1/901 2013/11/27
 36 37  0  0  0  0  0  0  0  0999 V2000
   21.1846   26.8324    5.8236 C   0  0  2  0  0  0  0  0  0  0  0  0
   20.2114   25.9522    6.4991 O   0  0  0  0  0  0  0  0  0  0  0  0
   18.9639   25.8587   10.6620 C   0  0  2  0  0  0  0  0  0  0  0  0
   19.0064   25.5959   12.1262 N   0  0  0  0  0  0  0  0  0  0  0  0
   21.4491   26.2117    4.4169 C   0  0  2  0  0  0  0  0  0  0  0  0
   20.2208   26.0869    3.6108 N   0  0  0  0  0  0  0  0  0  0  0  0
   19.0888   24.5340    9.8297 C   0  0  0  0  0  0  0  0  0  0  0  0
   20.6892   25.4975   12.7144 C   0  0  0  0  0  0  0  0  0  0  0  0
   20.0615   25.0983   14.0130 C   0  0  1  0  0  0  0  0  0  0  0  0
   19.7563   23.5987   13.9267 C   0  0  0  0  0  0  0  0  0  0  0  0
   20.6755   22.7789   13.0024 C   0  0  0  0  0  0  0  0  0  0  0  0
   22.0631   22.9890   13.4199 N   0  0  0  0  0  0  0  0  0  0  0  0
   20.9645   25.2879   15.0680 O   0  0  0  0  0  0  0  0  0  0  0  0
   19.3683   29.1124   11.6841 C   0  0  0  0  0  0  0  0  0  0  0  0
   20.4036   29.7829   12.5748 C   0  0  0  0  0  0  0  0  0  0  0  0
   22.1149   24.8078    4.6017 C   0  0  1  0  0  0  0  0  0  0  0  0
   21.0395   28.8755   13.5511 N   0  0  0  0  0  0  0  0  0  0  0  0
   22.3680   24.1917    3.3417 O   0  0  0  0  0  0  0  0  0  0  0  0
   19.0993   24.8224    8.3147 C   0  0  2  0  0  0  0  0  0  0  0  0
   19.2610   23.5964    7.5434 N   0  0  0  0  0  0  0  0  0  0  0  0
   23.4128   29.3118   12.9369 C   0  0  0  0  0  0  0  0  0  0  0  0
   23.4910   28.0259   12.0603 C   0  0  0  0  0  0  0  0  0  0  0  0
   22.3836   29.2043   14.0923 C   0  0  0  0  0  0  0  0  0  0  0  0
   22.6247   28.1252   10.8474 N   0  0  0  0  0  0  0  0  0  0  0  0
   21.6710   25.6127   12.2851 O   0  0  0  0  0  0  0  0  0  0  0  0
   23.4155   24.9945    5.4085 C   0  0  2  0  0  0  0  0  0  0  0  0
   24.0960   23.7635    5.6392 O   0  0  0  0  0  0  0  0  0  0  0  0
   20.2380   25.7589    7.9632 C   0  0  2  0  0  0  0  0  0  0  0  0
   23.1302   25.6750    6.7594 C   0  0  2  0  0  0  0  0  0  0  0  0
   22.4302   26.9101    6.5732 O   0  0  0  0  0  0  0  0  0  0  0  0
   20.0863   27.1138    8.7667 C   0  0  2  0  0  0  0  0  0  0  0  0
   21.2059   27.9891    8.4226 O   0  0  0  0  0  0  0  0  0  0  0  0
   24.3953   25.9429    7.5301 C   0  0  0  0  0  0  0  0  0  0  0  0
   24.1050   26.5075    8.7516 O   0  0  0  0  0  0  0  0  0  0  0  0
   20.0993   26.7959   10.3004 C   0  0  1  0  0  0  0  0  0  0  0  0
   19.9738   27.9518   11.0764 O   0  0  0  0  0  0  0  0  0  0  0  0
  1  2  1  1  0  0  0
  1  5  1  0  0  0  0
  1 30  1  0  0  0  0
  3  4  1  1  0  0  0
  3  7  1  0  0  0  0
  3 35  1  0  0  0  0
  5  6  1  1  0  0  0
  5 16  1  0  0  0  0
  7 19  1  0  0  0  0
  8  4  1  0  0  0  0
  8 25  2  0  0  0  0
  9  8  1  6  0  0  0
  9 10  1  0  0  0  0
  9 13  1  0  0  0  0
 10 11  1  0  0  0  0
 11 12  1  0  0  0  0
 14 15  1  0  0  0  0
 14 36  1  0  0  0  0
 15 17  1  0  0  0  0
 16 18  1  6  0  0  0
 16 26  1  0  0  0  0
 17 23  1  0  0  0  0
 19 20  1  6  0  0  0
 19 28  1  0  0  0  0
 21 22  1  0  0  0  0
 21 23  1  0  0  0  0
 22 24  1  0  0  0  0
 26 27  1  1  0  0  0
 26 29  1  0  0  0  0
 28  2  1  6  0  0  0
 28 31  1  0  0  0  0
 29 30  1  0  0  0  0
 29 33  1  6  0  0  0
 31 32  1  1  0  0  0
 31 35  1  0  0  0  0
 33 34  1  0  0  0  0
 35 36  1  1  0  0  0
M  END
>  <CHROM.1>
147.39630112,84.66579073,82.49256161,28.16374323,55.45885674,-52.63101895
178.62935378,155.90347891,-59.06551645,95.20435538,-56.32744688,179.10641109
-177.87546044,-51.15072079,21.27551916,26.14967472,9.60521471,-1.27831276
1.11601371,1.14846880

>  <Name>
2f4u_lig

>  <RI>
0

>  <Rbt.Current_Directory>
/home/itssahil/PROJECTS/Mol_Feturizer/New_Systems/rnas/2f4u

>  <Rbt.Executable>
rbdock ($Id: //depot/dev/client3/rdock/2013.1/src/exe/rbdock.cxx#4 $)

>  <Rbt.Library>
libRbt.so (2013.1, Build901 2013/11/27)

>  <Rbt.Parameter_File>
/export/apps/rDock/src/rDock_2013.1_src/data/scripts/dock_solv.prm

>  <Rbt.Receptor>
prm/blind_docking_40.prm

>  <SCORE>
10.514

>  <SCORE.INTER>
3.76134

>  <SCORE.INTER.CONST>
1

>  <SCORE.INTER.POLAR>
0

>  <SCORE.INTER.ROT>
14

>  <SCORE.INTER.SOLV>
12.644

>  <SCORE.INTER.VDW>
-14.6405

>  <SCORE.INTER.norm>
0.104482

>  <SCORE.INTRA>
1.54323

>  <SCORE.INTRA.DIHEDRAL>
-12.9324

>  <SCORE.INTRA.DIHEDRAL.0>
26.3805

>  <SCORE.INTRA.POLAR>
0

>  <SCORE.INTRA.POLAR.0>
0

>  <SCORE.INTRA.REPUL>
0.0174019

>  <SCORE.INTRA.REPUL.0>
0

>  <SCORE.INTRA.SOLV>
16.0636

>  <SCORE.INTRA.SOLV.lig_0>
-98.5587

>  <SCORE.INTRA.VDW>
-0.10938

>  <SCORE.INTRA.VDW.0>
-2.91167

>  <SCORE.INTRA.norm>
0.0428676

>  <SCORE.RESTR>
5.20938

>  <SCORE.RESTR.CAVITY>
5.20938

>  <SCORE.RESTR.norm>
0.144705

>  <SCORE.SYSTEM>
0

>  <SCORE.SYSTEM.CONST>
0

>  <SCORE.SYSTEM.DIHEDRAL>
0

>  <SCORE.SYSTEM.SOLV>
0

>  <SCORE.SYSTEM.norm>
0

>  <SCORE.heavy>
36

>  <SCORE.norm>
0.292054

>  <RMSD>
28.033

$$$$
2f4u_lig
 OpenBabel11021811433D
libRbt.so/2013.1/901 2013/11/27
 36 37  0  0  0  0  0  0  0  0999 V2000
   21.1663   27.8307   14.1534 C   0  0  2  0  0  0  0  0  0  0  0  0
   20.7277   28.4116   12.8696 O   0  0  0  0  0  0  0  0  0  0  0  0
   20.5249   27.3904    8.6493 C   0  0  2  0  0  0  0  0  0  0  0  0
   20.7693   26.6573    7.3774 N   0  0  0  0  0  0  0  0  0  0  0  0
   22.7248   27.9027   14.1686 C   0  0  2  0  0  0  0  0  0  0  0  0
   23.2313   29.2802   14.0262 N   0  0  0  0  0  0  0  0  0  0  0  0
   21.8619   27.9070    9.2886 C   0  0  0  0  0  0  0  0  0  0  0  0
   22.2857   25.7184    7.4561 C   0  0  0  0  0  0  0  0  0  0  0  0
   22.0204   25.4384    6.0101 C   0  0  1  0  0  0  0  0  0  0  0  0
   23.3776   25.2039    5.3375 C   0  0  0  0  0  0  0  0  0  0  0  0
   24.3517   26.3964    5.3579 C   0  0  0  0  0  0  0  0  0  0  0  0
   25.7037   25.8894    5.6003 N   0  0  0  0  0  0  0  0  0  0  0  0
   21.2695   24.2631    5.8724 O   0  0  0  0  0  0  0  0  0  0  0  0
   17.7464   25.5764    7.9705 C   0  0  0  0  0  0  0  0  0  0  0  0
   18.5233   24.7252    6.9773 C   0  0  0  0  0  0  0  0  0  0  0  0
   23.2829   27.0036   13.0159 C   0  0  1  0  0  0  0  0  0  0  0  0
   18.9032   23.3934    7.4900 N   0  0  0  0  0  0  0  0  0  0  0  0
   24.7072   27.0437   12.9797 O   0  0  0  0  0  0  0  0  0  0  0  0
   21.6030   28.6166   10.6332 C   0  0  2  0  0  0  0  0  0  0  0  0
   22.8491   29.0562   11.2484 N   0  0  0  0  0  0  0  0  0  0  0  0
   20.9840   23.5044    8.8531 C   0  0  0  0  0  0  0  0  0  0  0  0
   21.7724   22.4933    9.7387 C   0  0  0  0  0  0  0  0  0  0  0  0
   19.4517   23.2644    8.8648 C   0  0  0  0  0  0  0  0  0  0  0  0
   21.6260   22.7958   11.1942 N   0  0  0  0  0  0  0  0  0  0  0  0
   23.0431   25.5252    8.1980 O   0  0  0  0  0  0  0  0  0  0  0  0
   22.7654   25.5675   13.2323 C   0  0  2  0  0  0  0  0  0  0  0  0
   23.2144   24.6677   12.2222 O   0  0  0  0  0  0  0  0  0  0  0  0
   20.9008   27.6815   11.5973 C   0  0  2  0  0  0  0  0  0  0  0  0
   21.2272   25.5408   13.2853 C   0  0  2  0  0  0  0  0  0  0  0  0
   20.7331   26.4464   14.2782 O   0  0  0  0  0  0  0  0  0  0  0  0
   19.5296   27.1974   10.9729 C   0  0  2  0  0  0  0  0  0  0  0  0
   18.8838   26.2842   11.9148 O   0  0  0  0  0  0  0  0  0  0  0  0
   20.7006   24.1613   13.5783 C   0  0  0  0  0  0  0  0  0  0  0  0
   19.7137   23.8215   12.6806 O   0  0  0  0  0  0  0  0  0  0  0  0
   19.8215   26.4630    9.6206 C   0  0  1  0  0  0  0  0  0  0  0  0
   18.6511   26.0011    9.0116 O   0  0  0  0  0  0  0  0  0  0  0  0
  1  2  1  6  0  0  0
  1  5  1  0  0  0  0
  1 30  1  0  0  0  0
  3  4  1  6  0  0  0
  3  7  1  0  0  0  0
  3 35  1  0  0  0  0
  5  6  1  6  0  0  0
  5 16  1  0  0  0  0
  7 19  1  0  0  0  0
  8  4  1  0  0  0  0
  8 25  2  0  0  0  0
  9  8  1  1  0  0  0
  9 10  1  0  0  0  0
  9 13  1  0  0  0  0
 10 11  1  0  0  0  0
 11 12  1  0  0  0  0
 14 15  1  0  0  0  0
 14 36  1  0  0  0  0
 15 17  1  0  0  0  0
 16 18  1  1  0  0  0
 16 26  1  0  0  0  0
 17 23  1  0  0  0  0
 19 20  1  1  0  0  0
 19 28  1  0  0  0  0
 21 22  1  0  0  0  0
 21 23  1  0  0  0  0
 22 24  1  0  0  0  0
 26 27  1  6  0  0  0
 26 29  1  0  0  0  0
 28  2  1  1  0  0  0
 28 31  1  0  0  0  0
 29 30  1  0  0  0  0
 29 33  1  1  0  0  0
 31 32  1  1  0  0  0
 31 35  1  0  0  0  0
 33 34  1  0  0  0  0
 35 36  1  6  0  0  0
M  END
>  <CHROM.1>
73.29865688,35.85872411,152.20307151,-62.37516007,140.59664524,71.45389390
40.38292082,-44.11969093,-85.90619515,-75.03087244,-137.21099910,-128.16266493
-130.77948603,31.94361055,21.39640092,25.94986858,10.17628657,1.52268051
0.54612373,1.30264590

>  <Name>
2f4u_lig

>  <RI>
0

>  <Rbt.Current_Directory>
/home/itssahil/PROJECTS/Mol_Feturizer/New_Systems/rnas/2f4u

>  <Rbt.Executable>
rbdock ($Id: //depot/dev/client3/rdock/2013.1/src/exe/rbdock.cxx#4 $)

>  <Rbt.Library>
libRbt.so (2013.1, Build901 2013/11/27)

>  <Rbt.Parameter_File>
/export/apps/rDock/src/rDock_2013.1_src/data/scripts/dock_solv.prm

>  <Rbt.Receptor>
prm/blind_docking_40.prm

>  <SCORE>
12.69

>  <SCORE.INTER>
-0.929957

>  <SCORE.INTER.CONST>
1

>  <SCORE.INTER.POLAR>
-1.20396

>  <SCORE.INTER.ROT>
14

>  <SCORE.INTER.SOLV>
13.5486

>  <SCORE.INTER.VDW>
-14.0563

>  <SCORE.INTER.norm>
-0.0258321

>  <SCORE.INTRA>
10.6303

>  <SCORE.INTRA.DIHEDRAL>
3.51789

>  <SCORE.INTRA.DIHEDRAL.0>
26.3805

>  <SCORE.INTRA.POLAR>
0

>  <SCORE.INTRA.POLAR.0>
0

>  <SCORE.INTRA.REPUL>
0.021172

>  <SCORE.INTRA.REPUL.0>
0

>  <SCORE.INTRA.SOLV>
17.0888

>  <SCORE.INTRA.SOLV.lig_0>
-98.5587

>  <SCORE.INTRA.VDW>
0.221085

>  <SCORE.INTRA.VDW.0>
-2.91167

>  <SCORE.INTRA.norm>
0.295286

>  <SCORE.RESTR>
2.98968

>  <SCORE.RESTR.CAVITY>
2.98968

>  <SCORE.RESTR.norm>
0.0830465

>  <SCORE.SYSTEM>
0

>  <SCORE.SYSTEM.CONST>
0

>  <SCORE.SYSTEM.DIHEDRAL>
0

>  <SCORE.SYSTEM.SOLV>
0

>  <SCORE.SYSTEM.norm>
0

>  <SCORE.heavy>
36

>  <SCORE.norm>
0.352501

>  <RMSD>
28.034

$$$$
2f4u_lig
 OpenBabel11021811433D
libRbt.so/2013.1/901 2013/11/27
 36 37  0  0  0  0  0  0  0  0999 V2000
   23.5397   25.5321    8.5480 C   0  0  2  0  0  0  0  0  0  0  0  0
   23.0903   26.9251    8.7360 O   0  0  0  0  0  0  0  0  0  0  0  0
   22.7281   27.2281   13.0572 C   0  0  2  0  0  0  0  0  0  0  0  0
   22.5308   27.8338   14.4022 N   0  0  0  0  0  0  0  0  0  0  0  0
   23.7932   25.3454    7.0200 C   0  0  2  0  0  0  0  0  0  0  0  0
   24.7974   26.2868    6.4914 N   0  0  0  0  0  0  0  0  0  0  0  0
   23.9489   27.8667   12.3055 C   0  0  0  0  0  0  0  0  0  0  0  0
   22.5202   29.6168   14.3105 C   0  0  0  0  0  0  0  0  0  0  0  0
   22.4729   29.5512   15.8049 C   0  0  1  0  0  0  0  0  0  0  0  0
   22.5241   30.9927   16.3235 C   0  0  0  0  0  0  0  0  0  0  0  0
   22.6696   31.1526   17.8482 C   0  0  0  0  0  0  0  0  0  0  0  0
   22.4578   32.5602   18.1913 N   0  0  0  0  0  0  0  0  0  0  0  0
   21.2604   28.9903   16.2288 O   0  0  0  0  0  0  0  0  0  0  0  0
   19.5567   25.8735   13.5636 C   0  0  0  0  0  0  0  0  0  0  0  0
   19.0933   24.9066   12.4842 C   0  0  0  0  0  0  0  0  0  0  0  0
   22.4379   25.5225    6.2581 C   0  0  1  0  0  0  0  0  0  0  0  0
   20.1406   23.9767   12.0157 N   0  0  0  0  0  0  0  0  0  0  0  0
   22.6177   25.3718    4.8523 O   0  0  0  0  0  0  0  0  0  0  0  0
   24.1109   27.2715   10.8920 C   0  0  2  0  0  0  0  0  0  0  0  0
   25.2167   27.8970   10.1776 N   0  0  0  0  0  0  0  0  0  0  0  0
   22.4223   23.3663   12.8041 C   0  0  0  0  0  0  0  0  0  0  0  0
   23.0910   22.2278   11.9765 C   0  0  0  0  0  0  0  0  0  0  0  0
   20.8974   23.1647   13.0034 C   0  0  0  0  0  0  0  0  0  0  0  0
   22.5481   22.1570   10.5867 N   0  0  0  0  0  0  0  0  0  0  0  0
   22.5867   30.3556   13.5288 O   0  0  0  0  0  0  0  0  0  0  0  0
   21.4362   24.4893    6.8116 C   0  0  2  0  0  0  0  0  0  0  0  0
   20.1595   24.5764    6.1837 O   0  0  0  0  0  0  0  0  0  0  0  0
   22.8454   27.4777   10.0838 C   0  0  2  0  0  0  0  0  0  0  0  0
   21.2635   24.6528    8.3324 C   0  0  2  0  0  0  0  0  0  0  0  0
   22.5278   24.5887    9.0014 O   0  0  0  0  0  0  0  0  0  0  0  0
   21.6221   26.7929   10.8179 C   0  0  2  0  0  0  0  0  0  0  0  0
   20.4141   27.0229   10.0268 O   0  0  0  0  0  0  0  0  0  0  0  0
   20.3530   23.6018    8.9091 C   0  0  0  0  0  0  0  0  0  0  0  0
   19.0759   23.7475    8.4162 O   0  0  0  0  0  0  0  0  0  0  0  0
   21.4665   27.4286   12.2409 C   0  0  1  0  0  0  0  0  0  0  0  0
   20.3968   26.8731   12.9491 O   0  0  0  0  0  0  0  0  0  0  0  0
  1  2  1  6  0  0  0
  1  5  1  0  0  0  0
  1 30  1  0  0  0  0
  3  4  1  1  0  0  0
  3  7  1  0  0  0  0
  3 35  1  0  0  0  0
  5  6  1  6  0  0  0
  5 16  1  0  0  0  0
  7 19  1  0  0  0  0
  8  4  1  0  0  0  0
  8 25  2  0  0  0  0
  9  8  1  6  0  0  0
  9 10  1  0  0  0  0
  9 13  1  0  0  0  0
 10 11  1  0  0  0  0
 11 12  1  0  0  0  0
 14 15  1  0  0  0  0
 14 36  1  0  0  0  0
 15 17  1  0  0  0  0
 16 18  1  6  0  0  0
 16 26  1  0  0  0  0
 17 23  1  0  0  0  0
 19 20  1  6  0  0  0
 19 28  1  0  0  0  0
 21 22  1  0  0  0  0
 21 23  1  0  0  0  0
 22 24  1  0  0  0  0
 26 27  1  6  0  0  0
 26 29  1  0  0  0  0
 28  2  1  6  0  0  0
 28 31  1  0  0  0  0
 29 30  1  0  0  0  0
 29 33  1  1  0  0  0
 31 32  1  6  0  0  0
 31 35  1  0  0  0  0
 33 34  1  0  0  0  0
 35 36  1  1  0  0  0
M  END
>  <CHROM.1>
-175.80994605,49.72823161,176.91873894,-172.41249066,-169.82984758,73.84772662
-59.47161023,52.59463532,-126.53957864,62.67916904,-98.58778226,54.87437314
-64.90839195,-67.42006993,22.03562689,26.46647619,11.22637321,-1.62613117
0.96038147,1.04708395

>  <Name>
2f4u_lig

>  <RI>
0

>  <Rbt.Current_Directory>
/home/itssahil/PROJECTS/Mol_Feturizer/New_Systems/rnas/2f4u

>  <Rbt.Executable>
rbdock ($Id: //depot/dev/client3/rdock/2013.1/src/exe/rbdock.cxx#4 $)

>  <Rbt.Library>
libRbt.so (2013.1, Build901 2013/11/27)

>  <Rbt.Parameter_File>
/export/apps/rDock/src/rDock_2013.1_src/data/scripts/dock_solv.prm

>  <Rbt.Receptor>
prm/blind_docking_100.prm

>  <SCORE>
-14.4323

>  <SCORE.INTER>
-8.93114

>  <SCORE.INTER.CONST>
1

>  <SCORE.INTER.POLAR>
-0.771921

>  <SCORE.INTER.ROT>
14

>  <SCORE.INTER.SOLV>
15.1939

>  <SCORE.INTER.VDW>
-21.379

>  <SCORE.INTER.norm>
-0.248087

>  <SCORE.INTRA>
-7.31823

>  <SCORE.INTRA.DIHEDRAL>
-18.4345

>  <SCORE.INTRA.DIHEDRAL.0>
26.3805

>  <SCORE.INTRA.POLAR>
0

>  <SCORE.INTRA.POLAR.0>
0

>  <SCORE.INTRA.REPUL>
0.103633

>  <SCORE.INTRA.REPUL.0>
0

>  <SCORE.INTRA.SOLV>
8.3402

>  <SCORE.INTRA.SOLV.lig_0>
-98.5587

>  <SCORE.INTRA.VDW>
-2.78923

>  <SCORE.INTRA.VDW.0>
-2.91167

>  <SCORE.INTRA.norm>
-0.203284

>  <SCORE.RESTR>
1.81709

>  <SCORE.RESTR.CAVITY>
1.81709

>  <SCORE.RESTR.norm>
0.0504747

>  <SCORE.SYSTEM>
0

>  <SCORE.SYSTEM.CONST>
0

>  <SCORE.SYSTEM.DIHEDRAL>
0

>  <SCORE.SYSTEM.SOLV>
0

>  <SCORE.SYSTEM.norm>
0

>  <SCORE.heavy>
36

>  <SCORE.norm>
-0.400897

>  <RMSD>
28.075

$$$$
2f4u_lig
 OpenBabel11021811433D
libRbt.so/2013.1/901 2013/11/27
 36 37  0  0  0  0  0  0  0  0999 V2000
   23.4757   28.3246   10.5011 C   0  0  2  0  0  0  0  0  0  0  0  0
   23.2344   26.8796   10.6787 O   0  0  0  0  0  0  0  0  0  0  0  0
   21.0012   23.8716    8.4741 C   0  0  2  0  0  0  0  0  0  0  0  0
   19.8530   23.1846    7.8227 N   0  0  0  0  0  0  0  0  0  0  0  0
   24.4540   28.7584   11.6363 C   0  0  2  0  0  0  0  0  0  0  0  0
   25.7272   28.0154   11.6039 N   0  0  0  0  0  0  0  0  0  0  0  0
   20.7503   24.0970   10.0069 C   0  0  0  0  0  0  0  0  0  0  0  0
   18.3395   24.1044    8.0486 C   0  0  0  0  0  0  0  0  0  0  0  0
   17.6914   22.9222    7.3989 C   0  0  1  0  0  0  0  0  0  0  0  0
   17.6059   21.8149    8.4553 C   0  0  0  0  0  0  0  0  0  0  0  0
   17.2133   20.4198    7.9349 C   0  0  0  0  0  0  0  0  0  0  0  0
   15.8916   20.5102    7.3114 N   0  0  0  0  0  0  0  0  0  0  0  0
   16.3831   23.2386    7.0085 O   0  0  0  0  0  0  0  0  0  0  0  0
   21.5645   25.2450    5.0185 C   0  0  0  0  0  0  0  0  0  0  0  0
   22.4650   26.4605    4.8561 C   0  0  0  0  0  0  0  0  0  0  0  0
   23.7475   28.5529   13.0174 C   0  0  1  0  0  0  0  0  0  0  0  0
   23.8464   26.2580    5.3376 N   0  0  0  0  0  0  0  0  0  0  0  0
   24.6065   28.9257   14.0919 O   0  0  0  0  0  0  0  0  0  0  0  0
   21.9213   24.8584   10.6608 C   0  0  2  0  0  0  0  0  0  0  0  0
   21.6675   25.1073   12.0743 N   0  0  0  0  0  0  0  0  0  0  0  0
   26.3124   26.5858    5.2311 C   0  0  0  0  0  0  0  0  0  0  0  0
   26.5266   26.3374    6.7544 C   0  0  0  0  0  0  0  0  0  0  0  0
   24.9211   27.1846    4.8973 C   0  0  0  0  0  0  0  0  0  0  0  0
   27.9402   25.9679    7.0651 N   0  0  0  0  0  0  0  0  0  0  0  0
   18.0585   25.0394    8.5050 O   0  0  0  0  0  0  0  0  0  0  0  0
   22.4482   29.3829   13.0213 C   0  0  2  0  0  0  0  0  0  0  0  0
   21.7225   29.2546   14.2415 O   0  0  0  0  0  0  0  0  0  0  0  0
   22.1331   26.1926    9.9737 C   0  0  2  0  0  0  0  0  0  0  0  0
   21.5373   28.9815   11.8472 C   0  0  2  0  0  0  0  0  0  0  0  0
   22.2350   29.0798   10.6007 O   0  0  0  0  0  0  0  0  0  0  0  0
   22.4332   25.9633    8.4368 C   0  0  2  0  0  0  0  0  0  0  0  0
   22.6149   27.2654    7.7968 O   0  0  0  0  0  0  0  0  0  0  0  0
   20.2991   29.8351   11.7815 C   0  0  0  0  0  0  0  0  0  0  0  0
   20.5155   31.0464   12.3989 O   0  0  0  0  0  0  0  0  0  0  0  0
   21.2218   25.2078    7.7927 C   0  0  1  0  0  0  0  0  0  0  0  0
   21.4154   24.9741    6.4281 O   0  0  0  0  0  0  0  0  0  0  0  0
  1  2  1  1  0  0  0
  1  5  1  0  0  0  0
  1 30  1  0  0  0  0
  3  4  1  6  0  0  0
  3  7  1  0  0  0  0
  3 35  1  0  0  0  0
  5  6  1  1  0  0  0
  5 16  1  0  0  0  0
  7 19  1  0  0  0  0
  8  4  1  0  0  0  0
  8 25  2  0  0  0  0
  9  8  1  1  0  0  0
  9 10  1  0  0  0  0
  9 13  1  0  0  0  0
 10 11  1  0  0  0  0
 11 12  1  0  0  0  0
 14 15  1  0  0  0  0
 14 36  1  0  0  0  0
 15 17  1  0  0  0  0
 16 18  1  1  0  0  0
 16 26  1  0  0  0  0
 17 23  1  0  0  0  0
 19 20  1  1  0  0  0
 19 28  1  0  0  0  0
 21 22  1  0  0  0  0
 21 23  1  0  0  0  0
 22 24  1  0  0  0  0
 26 27  1  1  0  0  0
 26 29  1  0  0  0  0
 28  2  1  1  0  0  0
 28 31  1  0  0  0  0
 29 30  1  0  0  0  0
 29 33  1  6  0  0  0
 31 32  1  6  0  0  0
 31 35  1  0  0  0  0
 33 34  1  0  0  0  0
 35 36  1  6  0  0  0
M  END
>  <CHROM.1>
166.25721787,57.40202021,77.26411803,-168.97793052,-60.01668512,64.21081772
43.20177716,162.33174101,-166.01687098,-170.96570665,-60.42080657,-164.20699120
23.91144129,169.41195722,21.75983769,26.14515254,9.14794633,-0.84506605,-0.47799542
-2.12968322

>  <Name>
2f4u_lig

>  <RI>
0

>  <Rbt.Current_Directory>
/home/itssahil/PROJECTS/Mol_Feturizer/New_Systems/rnas/2f4u

>  <Rbt.Executable>
rbdock ($Id: //depot/dev/client3/rdock/2013.1/src/exe/rbdock.cxx#4 $)

>  <Rbt.Library>
libRbt.so (2013.1, Build901 2013/11/27)

>  <Rbt.Parameter_File>
/export/apps/rDock/src/rDock_2013.1_src/data/scripts/dock_solv.prm

>  <Rbt.Receptor>
prm/blind_docking_100.prm

>  <SCORE>
-3.51101

>  <SCORE.INTER>
-0.972794

>  <SCORE.INTER.CONST>
1

>  <SCORE.INTER.POLAR>
-0.561215

>  <SCORE.INTER.ROT>
14

>  <SCORE.INTER.SOLV>
13.0638

>  <SCORE.INTER.VDW>
-16.0658

>  <SCORE.INTER.norm>
-0.027022

>  <SCORE.INTRA>
-6.94632

>  <SCORE.INTRA.DIHEDRAL>
-16.6487

>  <SCORE.INTRA.DIHEDRAL.0>
26.3805

>  <SCORE.INTRA.POLAR>
0

>  <SCORE.INTRA.POLAR.0>
0

>  <SCORE.INTRA.REPUL>
0

>  <SCORE.INTRA.REPUL.0>
0

>  <SCORE.INTRA.SOLV>
3.97108

>  <SCORE.INTRA.SOLV.lig_0>
-98.5587

>  <SCORE.INTRA.VDW>
-0.607492

>  <SCORE.INTRA.VDW.0>
-2.91167

>  <SCORE.INTRA.norm>
-0.192953

>  <SCORE.RESTR>
4.4081

>  <SCORE.RESTR.CAVITY>
4.4081

>  <SCORE.RESTR.norm>
0.122447

>  <SCORE.SYSTEM>
0

>  <SCORE.SYSTEM.CONST>
0

>  <SCORE.SYSTEM.DIHEDRAL>
0

>  <SCORE.SYSTEM.SOLV>
0

>  <SCORE.SYSTEM.norm>
0

>  <SCORE.heavy>
36

>  <SCORE.norm>
-0.0975282

>  <RMSD>
28.140

$$$$
2f4u_lig
 OpenBabel11021811433D
libRbt.so/2013.1/901 2013/11/27
 36 37  0  0  0  0  0  0  0  0999 V2000
   23.2057   26.1174   13.9530 C   0  0  2  0  0  0  0  0  0  0  0  0
   22.6584   25.0773   13.0606 O   0  0  0  0  0  0  0  0  0  0  0  0
   20.5184   24.7128    9.2945 C   0  0  2  0  0  0  0  0  0  0  0  0
   19.7191   25.0998    8.1003 N   0  0  0  0  0  0  0  0  0  0  0  0
   21.9888   26.9331   14.4896 C   0  0  2  0  0  0  0  0  0  0  0  0
   21.0161   26.0932   15.2126 N   0  0  0  0  0  0  0  0  0  0  0  0
   19.7508   25.0132   10.6301 C   0  0  0  0  0  0  0  0  0  0  0  0
   18.8896   26.6595    8.3582 C   0  0  0  0  0  0  0  0  0  0  0  0
   18.2415   26.3703    7.0406 C   0  0  1  0  0  0  0  0  0  0  0  0
   19.3315   26.4710    5.9676 C   0  0  0  0  0  0  0  0  0  0  0  0
   20.0348   27.8360    5.8517 C   0  0  0  0  0  0  0  0  0  0  0  0
   20.8276   28.0559    7.0629 N   0  0  0  0  0  0  0  0  0  0  0  0
   17.7454   25.0596    7.0201 O   0  0  0  0  0  0  0  0  0  0  0  0
   22.7332   25.2049    6.6459 C   0  0  0  0  0  0  0  0  0  0  0  0
   24.1954   25.5633    6.4264 C   0  0  0  0  0  0  0  0  0  0  0  0
   21.2903   27.6484   13.2859 C   0  0  1  0  0  0  0  0  0  0  0  0
   24.5328   25.8960    5.0277 N   0  0  0  0  0  0  0  0  0  0  0  0
   20.1616   28.4010   13.7230 O   0  0  0  0  0  0  0  0  0  0  0  0
   20.6092   24.6602   11.8618 C   0  0  2  0  0  0  0  0  0  0  0  0
   19.9137   24.9816   13.1016 N   0  0  0  0  0  0  0  0  0  0  0  0
   26.9738   25.4473    5.2284 C   0  0  0  0  0  0  0  0  0  0  0  0
   28.3622   26.1268    5.4256 C   0  0  0  0  0  0  0  0  0  0  0  0
   25.8851   26.4188    4.7026 C   0  0  0  0  0  0  0  0  0  0  0  0
   28.8703   26.7333    4.1586 N   0  0  0  0  0  0  0  0  0  0  0  0
   18.8500   27.3992    9.1409 O   0  0  0  0  0  0  0  0  0  0  0  0
   22.3317   28.5479   12.5906 C   0  0  2  0  0  0  0  0  0  0  0  0
   21.7918   29.2406   11.4679 O   0  0  0  0  0  0  0  0  0  0  0  0
   21.9138   25.4313   11.8349 C   0  0  2  0  0  0  0  0  0  0  0  0
   23.5519   27.7258   12.1380 C   0  0  2  0  0  0  0  0  0  0  0  0
   24.1154   26.9989   13.2354 O   0  0  0  0  0  0  0  0  0  0  0  0
   22.7105   25.0924   10.5102 C   0  0  2  0  0  0  0  0  0  0  0  0
   23.9535   25.8624   10.5024 O   0  0  0  0  0  0  0  0  0  0  0  0
   24.6194   28.5958   11.5300 C   0  0  0  0  0  0  0  0  0  0  0  0
   24.2484   29.0029   10.2683 O   0  0  0  0  0  0  0  0  0  0  0  0
   21.8266   25.4786    9.2762 C   0  0  1  0  0  0  0  0  0  0  0  0
   22.4713   25.2104    8.0651 O   0  0  0  0  0  0  0  0  0  0  0  0
  1  2  1  6  0  0  0
  1  5  1  0  0  0  0
  1 30  1  0  0  0  0
  3  4  1  6  0  0  0
  3  7  1  0  0  0  0
  3 35  1  0  0  0  0
  5  6  1  6  0  0  0
  5 16  1  0  0  0  0
  7 19  1  0  0  0  0
  8  4  1  0  0  0  0
  8 25  2  0  0  0  0
  9  8  1  1  0  0  0
  9 10  1  0  0  0  0
  9 13  1  0  0  0  0
 10 11  1  0  0  0  0
 11 12  1  0  0  0  0
 14 15  1  0  0  0  0
 14 36  1  0  0  0  0
 15 17  1  0  0  0  0
 16 18  1  1  0  0  0
 16 26  1  0  0  0  0
 17 23  1  0  0  0  0
 19 20  1  1  0  0  0
 19 28  1  0  0  0  0
 21 22  1  0  0  0  0
 21 23  1  0  0  0  0
 22 24  1  0  0  0  0
 26 27  1  6  0  0  0
 26 29  1  0  0  0  0
 28  2  1  1  0  0  0
 28 31  1  0  0  0  0
 29 30  1  0  0  0  0
 29 33  1  1  0  0  0
 31 32  1  1  0  0  0
 31 35  1  0  0  0  0
 33 34  1  0  0  0  0
 35 36  1  6  0  0  0
M  END
>  <CHROM.1>
62.14459579,41.28249415,-68.66170697,-59.86657639,67.77144771,-166.78685221
133.11053174,172.78478079,54.66310614,-58.09810347,-158.16916999,-128.93183285
-74.49860534,67.97491503,22.22780200,26.44149182,9.61947238,-2.03869126,-0.09528146
-1.68742482

>  <Name>
2f4u_lig

>  <RI>
0

>  <Rbt.Current_Directory>
/home/itssahil/PROJECTS/Mol_Feturizer/New_Systems/rnas/2f4u

>  <Rbt.Executable>
rbdock ($Id: //depot/dev/client3/rdock/2013.1/src/exe/rbdock.cxx#4 $)

>  <Rbt.Library>
libRbt.so (2013.1, Build901 2013/11/27)

>  <Rbt.Parameter_File>
/export/apps/rDock/src/rDock_2013.1_src/data/scripts/dock_solv.prm

>  <Rbt.Receptor>
prm/blind_docking_40.prm

>  <SCORE>
17.5315

>  <SCORE.INTER>
3.59431

>  <SCORE.INTER.CONST>
1

>  <SCORE.INTER.POLAR>
0

>  <SCORE.INTER.ROT>
14

>  <SCORE.INTER.SOLV>
11.8385

>  <SCORE.INTER.VDW>
-14.4833

>  <SCORE.INTER.norm>
0.099842

>  <SCORE.INTRA>
10.6287

>  <SCORE.INTRA.DIHEDRAL>
-8.46473

>  <SCORE.INTRA.DIHEDRAL.0>
26.3805

>  <SCORE.INTRA.POLAR>
0

>  <SCORE.INTRA.POLAR.0>
0

>  <SCORE.INTRA.REPUL>
0

>  <SCORE.INTRA.REPUL.0>
0

>  <SCORE.INTRA.SOLV>
13.6423

>  <SCORE.INTRA.SOLV.lig_0>
-98.5587

>  <SCORE.INTRA.VDW>
8.03987

>  <SCORE.INTRA.VDW.0>
-2.91167

>  <SCORE.INTRA.norm>
0.295241

>  <SCORE.RESTR>
3.30855

>  <SCORE.RESTR.CAVITY>
3.30855

>  <SCORE.RESTR.norm>
0.0919043

>  <SCORE.SYSTEM>
0

>  <SCORE.SYSTEM.CONST>
0

>  <SCORE.SYSTEM.DIHEDRAL>
0

>  <SCORE.SYSTEM.SOLV>
0

>  <SCORE.SYSTEM.norm>
0

>  <SCORE.heavy>
36

>  <SCORE.norm>
0.486987

>  <RMSD>
28.155

$$$$
2f4u_lig
 OpenBabel11021811433D
libRbt.so/2013.1/901 2013/11/27
 36 37  0  0  0  0  0  0  0  0999 V2000
   23.1617   25.2301    8.1212 C   0  0  2  0  0  0  0  0  0  0  0  0
   22.9480   26.6846    7.9925 O   0  0  0  0  0  0  0  0  0  0  0  0
   21.9170   27.8675   12.0462 C   0  0  2  0  0  0  0  0  0  0  0  0
   21.5249   28.7354   13.1899 N   0  0  0  0  0  0  0  0  0  0  0  0
   23.4955   24.6981    6.6930 C   0  0  2  0  0  0  0  0  0  0  0  0
   24.6857   25.3444    6.1098 N   0  0  0  0  0  0  0  0  0  0  0  0
   23.2561   28.3484   11.3840 C   0  0  0  0  0  0  0  0  0  0  0  0
   22.9464   29.1928   14.1684 C   0  0  0  0  0  0  0  0  0  0  0  0
   21.9376   29.8055   15.0886 C   0  0  1  0  0  0  0  0  0  0  0  0
   22.3775   29.4846   16.5214 C   0  0  0  0  0  0  0  0  0  0  0  0
   21.6463   30.2552   17.6363 C   0  0  0  0  0  0  0  0  0  0  0  0
   22.2540   31.5814   17.7616 N   0  0  0  0  0  0  0  0  0  0  0  0
   21.9346   31.1999   14.9475 O   0  0  0  0  0  0  0  0  0  0  0  0
   18.4934   26.6497   11.9891 C   0  0  0  0  0  0  0  0  0  0  0  0
   18.9934   25.2349   12.2399 C   0  0  0  0  0  0  0  0  0  0  0  0
   22.2542   24.9238    5.7673 C   0  0  1  0  0  0  0  0  0  0  0  0
   19.9963   25.1306   13.3190 N   0  0  0  0  0  0  0  0  0  0  0  0
   22.5127   24.4630    4.4436 O   0  0  0  0  0  0  0  0  0  0  0  0
   23.6243   27.4763   10.1664 C   0  0  2  0  0  0  0  0  0  0  0  0
   24.8437   27.9511    9.5244 N   0  0  0  0  0  0  0  0  0  0  0  0
   21.2648   23.1344   12.5404 C   0  0  0  0  0  0  0  0  0  0  0  0
   22.6583   22.4606   12.3604 C   0  0  0  0  0  0  0  0  0  0  0  0
   21.3534   24.6091   13.0126 C   0  0  0  0  0  0  0  0  0  0  0  0
   23.4828   23.1543   11.3258 N   0  0  0  0  0  0  0  0  0  0  0  0
   24.0101   29.0270   14.1195 O   0  0  0  0  0  0  0  0  0  0  0  0
   21.0488   24.1935    6.3924 C   0  0  2  0  0  0  0  0  0  0  0  0
   19.8588   24.3474    5.6231 O   0  0  0  0  0  0  0  0  0  0  0  0
   22.5073   27.5007    9.1422 C   0  0  2  0  0  0  0  0  0  0  0  0
   20.7908   24.6890    7.8268 C   0  0  2  0  0  0  0  0  0  0  0  0
   21.9695   24.5677    8.6305 O   0  0  0  0  0  0  0  0  0  0  0  0
   21.1673   26.9709    9.7965 C   0  0  2  0  0  0  0  0  0  0  0  0
   20.1050   27.0225    8.7931 O   0  0  0  0  0  0  0  0  0  0  0  0
   19.6699   23.9321    8.4879 C   0  0  0  0  0  0  0  0  0  0  0  0
   19.9925   22.5990    8.6058 O   0  0  0  0  0  0  0  0  0  0  0  0
   20.8050   27.8846   11.0160 C   0  0  1  0  0  0  0  0  0  0  0  0
   19.6239   27.4774   11.6434 O   0  0  0  0  0  0  0  0  0  0  0  0
  1  2  1  6  0  0  0
  1  5  1  0  0  0  0
  1 30  1  0  0  0  0
  3  4  1  1  0  0  0
  3  7  1  0  0  0  0
  3 35  1  0  0  0  0
  5  6  1  6  0  0  0
  5 16  1  0  0  0  0
  7 19  1  0  0  0  0
  8  4  1  0  0  0  0
  8 25  2  0  0  0  0
  9  8  1  6  0  0  0
  9 10  1  0  0  0  0
  9 13  1  0  0  0  0
 10 11  1  0  0  0  0
 11 12  1  0  0  0  0
 14 15  1  0  0  0  0
 14 36  1  0  0  0  0
 15 17  1  0  0  0  0
 16 18  1  6  0  0  0
 16 26  1  0  0  0  0
 17 23  1  0  0  0  0
 19 20  1  6  0  0  0
 19 28  1  0  0  0  0
 21 22  1  0  0  0  0
 21 23  1  0  0  0  0
 22 24  1  0  0  0  0
 26 27  1  6  0  0  0
 26 29  1  0  0  0  0
 28  2  1  6  0  0  0
 28 31  1  0  0  0  0
 29 30  1  0  0  0  0
 29 33  1  1  0  0  0
 31 32  1  6  0  0  0
 31 35  1  0  0  0  0
 33 34  1  0  0  0  0
 35 36  1  1  0  0  0
M  END
>  <CHROM.1>
175.17950527,-40.34859086,138.77282156,168.06199875,-81.29492634,59.03104564
46.75122141,-119.47420700,-63.48613635,-61.27712658,-173.17883583,65.67606302
62.50335518,-109.92681618,21.78548081,26.48069746,10.76124416,-1.60472286
0.87690844,1.05249621

>  <Name>
2f4u_lig

>  <RI>
0

>  <Rbt.Current_Directory>
/home/itssahil/PROJECTS/Mol_Feturizer/New_Systems/rnas/2f4u

>  <Rbt.Executable>
rbdock ($Id: //depot/dev/client3/rdock/2013.1/src/exe/rbdock.cxx#4 $)

>  <Rbt.Library>
libRbt.so (2013.1, Build901 2013/11/27)

>  <Rbt.Parameter_File>
/export/apps/rDock/src/rDock_2013.1_src/data/scripts/dock_solv.prm

>  <Rbt.Receptor>
prm/blind_docking_100.prm

>  <SCORE>
-10.1396

>  <SCORE.INTER>
-8.40423

>  <SCORE.INTER.CONST>
1

>  <SCORE.INTER.POLAR>
-1.99388

>  <SCORE.INTER.ROT>
14

>  <SCORE.INTER.SOLV>
13.7926

>  <SCORE.INTER.VDW>
-16.4874

>  <SCORE.INTER.norm>
-0.233451

>  <SCORE.INTRA>
-4.52473

>  <SCORE.INTRA.DIHEDRAL>
-12.8238

>  <SCORE.INTRA.DIHEDRAL.0>
26.3805

>  <SCORE.INTRA.POLAR>
0

>  <SCORE.INTRA.POLAR.0>
0

>  <SCORE.INTRA.REPUL>
0.012532

>  <SCORE.INTRA.REPUL.0>
0

>  <SCORE.INTRA.SOLV>
5.25548

>  <SCORE.INTRA.SOLV.lig_0>
-98.5587

>  <SCORE.INTRA.VDW>
-0.803231

>  <SCORE.INTRA.VDW.0>
-2.91167

>  <SCORE.INTRA.norm>
-0.125687

>  <SCORE.RESTR>
2.7894

>  <SCORE.RESTR.CAVITY>
2.7894

>  <SCORE.RESTR.norm>
0.0774832

>  <SCORE.SYSTEM>
0

>  <SCORE.SYSTEM.CONST>
0

>  <SCORE.SYSTEM.DIHEDRAL>
0

>  <SCORE.SYSTEM.SOLV>
0

>  <SCORE.SYSTEM.norm>
0

>  <SCORE.heavy>
36

>  <SCORE.norm>
-0.281654

>  <RMSD>
28.176

$$$$
2f4u_lig
 OpenBabel11021811433D
libRbt.so/2013.1/901 2013/11/27
 36 37  0  0  0  0  0  0  0  0999 V2000
   19.8337   28.7626   12.3067 C   0  0  2  0  0  0  0  0  0  0  0  0
   20.7090   29.0593   11.1562 O   0  0  0  0  0  0  0  0  0  0  0  0
   23.1205   26.9978    8.1846 C   0  0  2  0  0  0  0  0  0  0  0  0
   23.8305   25.8918    7.4865 N   0  0  0  0  0  0  0  0  0  0  0  0
   19.8077   30.0464   13.1928 C   0  0  2  0  0  0  0  0  0  0  0  0
   19.3170   31.2303   12.4636 N   0  0  0  0  0  0  0  0  0  0  0  0
   23.6423   27.1885    9.6525 C   0  0  0  0  0  0  0  0  0  0  0  0
   24.9704   26.5261    6.2676 C   0  0  0  0  0  0  0  0  0  0  0  0
   25.1556   25.0873    5.8998 C   0  0  1  0  0  0  0  0  0  0  0  0
   24.9134   24.9706    4.3908 C   0  0  0  0  0  0  0  0  0  0  0  0
   23.5044   24.5130    3.9707 C   0  0  0  0  0  0  0  0  0  0  0  0
   23.2868   23.1547    4.4723 N   0  0  0  0  0  0  0  0  0  0  0  0
   26.4753   24.6875    6.1503 O   0  0  0  0  0  0  0  0  0  0  0  0
   21.1071   25.9153    5.5743 C   0  0  0  0  0  0  0  0  0  0  0  0
   20.6818   24.4623    5.7249 C   0  0  0  0  0  0  0  0  0  0  0  0
   21.2498   30.3120   13.7391 C   0  0  1  0  0  0  0  0  0  0  0  0
   20.9391   23.8928    7.0630 N   0  0  0  0  0  0  0  0  0  0  0  0
   21.2822   31.4845   14.5487 O   0  0  0  0  0  0  0  0  0  0  0  0
   22.8625   28.2994   10.3849 C   0  0  2  0  0  0  0  0  0  0  0  0
   23.3167   28.4453   11.7621 N   0  0  0  0  0  0  0  0  0  0  0  0
   18.7622   23.0667    7.9454 C   0  0  0  0  0  0  0  0  0  0  0  0
   17.5371   23.3653    8.8610 C   0  0  0  0  0  0  0  0  0  0  0  0
   19.9318   24.0664    8.1413 C   0  0  0  0  0  0  0  0  0  0  0  0
   16.3983   22.4380    8.5874 N   0  0  0  0  0  0  0  0  0  0  0  0
   25.2938   27.4998    5.9377 O   0  0  0  0  0  0  0  0  0  0  0  0
   21.7009   29.0684   14.5309 C   0  0  2  0  0  0  0  0  0  0  0  0
   23.0149   29.2088   15.0652 O   0  0  0  0  0  0  0  0  0  0  0  0
   21.3810   27.9801   10.4041 C   0  0  2  0  0  0  0  0  0  0  0  0
   21.6459   27.8073   13.6499 C   0  0  2  0  0  0  0  0  0  0  0  0
   20.3441   27.6384   13.0780 O   0  0  0  0  0  0  0  0  0  0  0  0
   20.8439   27.8345    8.9226 C   0  0  2  0  0  0  0  0  0  0  0  0
   19.4192   27.5092    8.9719 O   0  0  0  0  0  0  0  0  0  0  0  0
   22.0030   26.5668   14.4243 C   0  0  0  0  0  0  0  0  0  0  0  0
   23.3171   26.2219   14.2025 O   0  0  0  0  0  0  0  0  0  0  0  0
   21.6367   26.6879    8.2083 C   0  0  1  0  0  0  0  0  0  0  0  0
   21.2104   26.4981    6.8905 O   0  0  0  0  0  0  0  0  0  0  0  0
  1  2  1  6  0  0  0
  1  5  1  0  0  0  0
  1 30  1  0  0  0  0
  3  4  1  1  0  0  0
  3  7  1  0  0  0  0
  3 35  1  0  0  0  0
  5  6  1  6  0  0  0
  5 16  1  0  0  0  0
  7 19  1  0  0  0  0
  8  4  1  0  0  0  0
  8 25  2  0  0  0  0
  9  8  1  6  0  0  0
  9 10  1  0  0  0  0
  9 13  1  0  0  0  0
 10 11  1  0  0  0  0
 11 12  1  0  0  0  0
 14 15  1  0  0  0  0
 14 36  1  0  0  0  0
 15 17  1  0  0  0  0
 16 18  1  1  0  0  0
 16 26  1  0  0  0  0
 17 23  1  0  0  0  0
 19 20  1  1  0  0  0
 19 28  1  0  0  0  0
 21 22  1  0  0  0  0
 21 23  1  0  0  0  0
 22 24  1  0  0  0  0
 26 27  1  6  0  0  0
 26 29  1  0  0  0  0
 28  2  1  6  0  0  0
 28 31  1  0  0  0  0
 29 30  1  0  0  0  0
 29 33  1  1  0  0  0
 31 32  1  1  0  0  0
 31 35  1  0  0  0  0
 33 34  1  0  0  0  0
 35 36  1  6  0  0  0
M  END
>  <CHROM.1>
156.19845654,-106.73497951,126.99552951,-97.39656651,-63.41685312,-20.27764160
58.55933279,86.19457595,78.16053579,176.45016417,-168.70590706,-125.83403157
-98.80324633,62.63527024,21.79780169,26.79535563,9.52998211,1.75721058,0.36461228
0.98278240

>  <Name>
2f4u_lig

>  <RI>
0

>  <Rbt.Current_Directory>
/home/itssahil/PROJECTS/Mol_Feturizer/New_Systems/rnas/2f4u

>  <Rbt.Executable>
rbdock ($Id: //depot/dev/client3/rdock/2013.1/src/exe/rbdock.cxx#4 $)

>  <Rbt.Library>
libRbt.so (2013.1, Build901 2013/11/27)

>  <Rbt.Parameter_File>
/export/apps/rDock/src/rDock_2013.1_src/data/scripts/dock_solv.prm

>  <Rbt.Receptor>
prm/blind_docking_100.prm

>  <SCORE>
6.96872

>  <SCORE.INTER>
-0.0579827

>  <SCORE.INTER.CONST>
1

>  <SCORE.INTER.POLAR>
-0.646188

>  <SCORE.INTER.ROT>
14

>  <SCORE.INTER.SOLV>
20.4798

>  <SCORE.INTER.VDW>
-17.6446

>  <SCORE.INTER.norm>
-0.00161063

>  <SCORE.INTRA>
2.57947

>  <SCORE.INTRA.DIHEDRAL>
-0.704308

>  <SCORE.INTRA.DIHEDRAL.0>
26.3805

>  <SCORE.INTRA.POLAR>
0

>  <SCORE.INTRA.POLAR.0>
0

>  <SCORE.INTRA.REPUL>
0

>  <SCORE.INTRA.REPUL.0>
0

>  <SCORE.INTRA.SOLV>
9.74182

>  <SCORE.INTRA.SOLV.lig_0>
-98.5587

>  <SCORE.INTRA.VDW>
-1.93929

>  <SCORE.INTRA.VDW.0>
-2.91167

>  <SCORE.INTRA.norm>
0.0716519

>  <SCORE.RESTR>
4.44723

>  <SCORE.RESTR.CAVITY>
4.44723

>  <SCORE.RESTR.norm>
0.123534

>  <SCORE.SYSTEM>
0

>  <SCORE.SYSTEM.CONST>
0

>  <SCORE.SYSTEM.DIHEDRAL>
0

>  <SCORE.SYSTEM.SOLV>
0

>  <SCORE.SYSTEM.norm>
0

>  <SCORE.heavy>
36

>  <SCORE.norm>
0.193575

>  <RMSD>
28.181

$$$$
2f4u_lig
 OpenBabel11021811433D
libRbt.so/2013.1/901 2013/11/27
 36 37  0  0  0  0  0  0  0  0999 V2000
   21.5557   25.0538   14.0041 C   0  0  2  0  0  0  0  0  0  0  0  0
   21.8181   24.3685   12.7238 O   0  0  0  0  0  0  0  0  0  0  0  0
   21.5219   25.0739    8.4448 C   0  0  2  0  0  0  0  0  0  0  0  0
   21.2139   25.7622    7.1617 N   0  0  0  0  0  0  0  0  0  0  0  0
   20.0196   25.3204   14.0631 C   0  0  2  0  0  0  0  0  0  0  0  0
   19.2241   24.0825   13.9685 N   0  0  0  0  0  0  0  0  0  0  0  0
   20.2337   24.8660    9.3168 C   0  0  0  0  0  0  0  0  0  0  0  0
   20.7618   27.4671    7.4376 C   0  0  0  0  0  0  0  0  0  0  0  0
   20.4599   27.4758    5.9719 C   0  0  1  0  0  0  0  0  0  0  0  0
   19.0652   26.8659    5.7929 C   0  0  0  0  0  0  0  0  0  0  0  0
   18.5566   26.7680    4.3427 C   0  0  0  0  0  0  0  0  0  0  0  0
   17.1497   26.3631    4.3687 N   0  0  0  0  0  0  0  0  0  0  0  0
   20.4124   28.7921    5.4931 O   0  0  0  0  0  0  0  0  0  0  0  0
   24.4482   26.5174    7.2768 C   0  0  0  0  0  0  0  0  0  0  0  0
   25.4995   25.4520    7.0041 C   0  0  0  0  0  0  0  0  0  0  0  0
   19.6320   26.2976   12.9040 C   0  0  1  0  0  0  0  0  0  0  0  0
   26.8847   25.9633    6.9745 N   0  0  0  0  0  0  0  0  0  0  0  0
   18.2321   26.5654   12.9073 O   0  0  0  0  0  0  0  0  0  0  0  0
   20.5719   24.2023   10.6673 C   0  0  2  0  0  0  0  0  0  0  0  0
   19.3821   24.0508   11.4954 N   0  0  0  0  0  0  0  0  0  0  0  0
   28.0262   26.8470    4.9456 C   0  0  0  0  0  0  0  0  0  0  0  0
   27.1891   26.1477    3.8327 C   0  0  0  0  0  0  0  0  0  0  0  0
   27.1960   27.1975    6.2080 C   0  0  0  0  0  0  0  0  0  0  0  0
   26.4153   24.9861    4.3649 N   0  0  0  0  0  0  0  0  0  0  0  0
   20.6894   28.1245    8.2885 O   0  0  0  0  0  0  0  0  0  0  0  0
   20.4533   27.5917   13.0710 C   0  0  2  0  0  0  0  0  0  0  0  0
   20.1768   28.5487   12.0514 O   0  0  0  0  0  0  0  0  0  0  0  0
   21.5785   25.0401   11.4301 C   0  0  2  0  0  0  0  0  0  0  0  0
   21.9620   27.2865   13.0818 C   0  0  2  0  0  0  0  0  0  0  0  0
   22.2807   26.3138   14.0830 O   0  0  0  0  0  0  0  0  0  0  0  0
   22.8964   25.2104   10.5707 C   0  0  2  0  0  0  0  0  0  0  0  0
   23.8407   26.0362   11.3218 O   0  0  0  0  0  0  0  0  0  0  0  0
   22.7824   28.5248   13.3263 C   0  0  0  0  0  0  0  0  0  0  0  0
   22.6064   29.4292   12.3035 O   0  0  0  0  0  0  0  0  0  0  0  0
   22.5294   25.9042    9.2153 C   0  0  1  0  0  0  0  0  0  0  0  0
   23.6510   26.0927    8.4023 O   0  0  0  0  0  0  0  0  0  0  0  0
  1  2  1  6  0  0  0
  1  5  1  0  0  0  0
  1 30  1  0  0  0  0
  3  4  1  6  0  0  0
  3  7  1  0  0  0  0
  3 35  1  0  0  0  0
  5  6  1  6  0  0  0
  5 16  1  0  0  0  0
  7 19  1  0  0  0  0
  8  4  1  0  0  0  0
  8 25  2  0  0  0  0
  9  8  1  1  0  0  0
  9 10  1  0  0  0  0
  9 13  1  0  0  0  0
 10 11  1  0  0  0  0
 11 12  1  0  0  0  0
 14 15  1  0  0  0  0
 14 36  1  0  0  0  0
 15 17  1  0  0  0  0
 16 18  1  1  0  0  0
 16 26  1  0  0  0  0
 17 23  1  0  0  0  0
 19 20  1  1  0  0  0
 19 28  1  0  0  0  0
 21 22  1  0  0  0  0
 21 23  1  0  0  0  0
 22 24  1  0  0  0  0
 26 27  1  6  0  0  0
 26 29  1  0  0  0  0
 28  2  1  1  0  0  0
 28 31  1  0  0  0  0
 29 30  1  0  0  0  0
 29 33  1  1  0  0  0
 31 32  1  1  0  0  0
 31 35  1  0  0  0  0
 33 34  1  0  0  0  0
 35 36  1  6  0  0  0
M  END
>  <CHROM.1>
64.39973668,69.67834262,81.55817256,-179.54974477,-171.37609064,-125.80732712
-143.82825327,-46.41045110,-109.31449262,-50.79348081,72.94670466,-121.05502215
-63.27214319,61.38787261,21.97597302,26.32873721,9.43016581,-2.06369452,0.04281573
-1.49745247

>  <Name>
2f4u_lig

>  <RI>
0

>  <Rbt.Current_Directory>
/home/itssahil/PROJECTS/Mol_Feturizer/New_Systems/rnas/2f4u

>  <Rbt.Executable>
rbdock ($Id: //depot/dev/client3/rdock/2013.1/src/exe/rbdock.cxx#4 $)

>  <Rbt.Library>
libRbt.so (2013.1, Build901 2013/11/27)

>  <Rbt.Parameter_File>
/export/apps/rDock/src/rDock_2013.1_src/data/scripts/dock_solv.prm

>  <Rbt.Receptor>
prm/blind_docking_40.prm

>  <SCORE>
22.483

>  <SCORE.INTER>
8.67501

>  <SCORE.INTER.CONST>
1

>  <SCORE.INTER.POLAR>
0

>  <SCORE.INTER.ROT>
14

>  <SCORE.INTER.SOLV>
12.0069

>  <SCORE.INTER.VDW>
-11.1523

>  <SCORE.INTER.norm>
0.240972

>  <SCORE.INTRA>
7.44593

>  <SCORE.INTRA.DIHEDRAL>
-4.97906

>  <SCORE.INTRA.DIHEDRAL.0>
26.3805

>  <SCORE.INTRA.POLAR>
0

>  <SCORE.INTRA.POLAR.0>
0

>  <SCORE.INTRA.REPUL>
0.155014

>  <SCORE.INTRA.REPUL.0>
0

>  <SCORE.INTRA.SOLV>
11.815

>  <SCORE.INTRA.SOLV.lig_0>
-98.5587

>  <SCORE.INTRA.VDW>
3.25289

>  <SCORE.INTRA.VDW.0>
-2.91167

>  <SCORE.INTRA.norm>
0.206831

>  <SCORE.RESTR>
6.36209

>  <SCORE.RESTR.CAVITY>
6.36209

>  <SCORE.RESTR.norm>
0.176725

>  <SCORE.SYSTEM>
0

>  <SCORE.SYSTEM.CONST>
0

>  <SCORE.SYSTEM.DIHEDRAL>
0

>  <SCORE.SYSTEM.SOLV>
0

>  <SCORE.SYSTEM.norm>
0

>  <SCORE.heavy>
36

>  <SCORE.norm>
0.624529

>  <RMSD>
28.192

$$$$
2f4u_lig
 OpenBabel11021811433D
libRbt.so/2013.1/901 2013/11/27
 36 37  0  0  0  0  0  0  0  0999 V2000
   23.2163   26.2351   13.8687 C   0  0  2  0  0  0  0  0  0  0  0  0
   22.6722   25.1287   13.0577 O   0  0  0  0  0  0  0  0  0  0  0  0
   20.6027   24.4722    9.2919 C   0  0  2  0  0  0  0  0  0  0  0  0
   19.8179   24.7633    8.0614 N   0  0  0  0  0  0  0  0  0  0  0  0
   21.9929   26.9881   14.4775 C   0  0  2  0  0  0  0  0  0  0  0  0
   21.1412   26.1132   15.3042 N   0  0  0  0  0  0  0  0  0  0  0  0
   19.8079   24.8499   10.5914 C   0  0  0  0  0  0  0  0  0  0  0  0
   19.9500   26.4843    7.6051 C   0  0  0  0  0  0  0  0  0  0  0  0
   18.9308   26.1395    6.5648 C   0  0  1  0  0  0  0  0  0  0  0  0
   17.5513   26.4163    7.1728 C   0  0  0  0  0  0  0  0  0  0  0  0
   17.3725   26.0056    8.6461 C   0  0  0  0  0  0  0  0  0  0  0  0
   18.0519   26.9906    9.4900 N   0  0  0  0  0  0  0  0  0  0  0  0
   19.0768   26.9717    5.4466 O   0  0  0  0  0  0  0  0  0  0  0  0
   23.5422   24.9689    6.9989 C   0  0  0  0  0  0  0  0  0  0  0  0
   23.3861   26.2944    6.2686 C   0  0  0  0  0  0  0  0  0  0  0  0
   21.1529   27.6105   13.3132 C   0  0  1  0  0  0  0  0  0  0  0  0
   24.2018   26.4089    5.0428 N   0  0  0  0  0  0  0  0  0  0  0  0
   20.0137   28.3027   13.8177 O   0  0  0  0  0  0  0  0  0  0  0  0
   20.6506   24.5963   11.8578 C   0  0  2  0  0  0  0  0  0  0  0  0
   19.9291   24.9898   13.0615 N   0  0  0  0  0  0  0  0  0  0  0  0
   26.6886   26.3278    4.9470 C   0  0  0  0  0  0  0  0  0  0  0  0
   28.0011   27.0309    5.4068 C   0  0  0  0  0  0  0  0  0  0  0  0
   25.4360   27.2360    5.0563 C   0  0  0  0  0  0  0  0  0  0  0  0
   29.1393   26.0697    5.5151 N   0  0  0  0  0  0  0  0  0  0  0  0
   20.4772   27.3485    7.9747 O   0  0  0  0  0  0  0  0  0  0  0  0
   22.0711   28.5504   12.5066 C   0  0  2  0  0  0  0  0  0  0  0  0
   21.3968   29.1637   11.4107 O   0  0  0  0  0  0  0  0  0  0  0  0
   21.9432   25.3857   11.7990 C   0  0  2  0  0  0  0  0  0  0  0  0
   23.3048   27.7943   11.9814 C   0  0  2  0  0  0  0  0  0  0  0  0
   24.0029   27.1474   13.0512 O   0  0  0  0  0  0  0  0  0  0  0  0
   22.7676   24.9707   10.5134 C   0  0  2  0  0  0  0  0  0  0  0  0
   23.9982   25.7593   10.4728 O   0  0  0  0  0  0  0  0  0  0  0  0
   24.2579   28.7096   11.2604 C   0  0  0  0  0  0  0  0  0  0  0  0
   25.1240   27.9822   10.4756 O   0  0  0  0  0  0  0  0  0  0  0  0
   21.8988   25.2570    9.2420 C   0  0  1  0  0  0  0  0  0  0  0  0
   22.5682   24.9177    8.0625 O   0  0  0  0  0  0  0  0  0  0  0  0
  1  2  1  6  0  0  0
  1  5  1  0  0  0  0
  1 30  1  0  0  0  0
  3  4  1  6  0  0  0
  3  7  1  0  0  0  0
  3 35  1  0  0  0  0
  5  6  1  6  0  0  0
  5 16  1  0  0  0  0
  7 19  1  0  0  0  0
  8  4  1  0  0  0  0
  8 25  2  0  0  0  0
  9  8  1  1  0  0  0
  9 10  1  0  0  0  0
  9 13  1  0  0  0  0
 10 11  1  0  0  0  0
 11 12  1  0  0  0  0
 14 15  1  0  0  0  0
 14 36  1  0  0  0  0
 15 17  1  0  0  0  0
 16 18  1  1  0  0  0
 16 26  1  0  0  0  0
 17 23  1  0  0  0  0
 19 20  1  1  0  0  0
 19 28  1  0  0  0  0
 21 22  1  0  0  0  0
 21 23  1  0  0  0  0
 22 24  1  0  0  0  0
 26 27  1  6  0  0  0
 26 29  1  0  0  0  0
 28  2  1  1  0  0  0
 28 31  1  0  0  0  0
 29 30  1  0  0  0  0
 29 33  1  1  0  0  0
 31 32  1  6  0  0  0
 31 35  1  0  0  0  0
 33 34  1  0  0  0  0
 35 36  1  6  0  0  0
M  END
>  <CHROM.1>
69.41126605,82.26829660,92.05592507,-40.54421056,76.01754382,-172.37509124
-63.05415350,-104.08648768,110.73770548,170.11618082,-161.40385267,-130.43154333
-162.23054380,169.55917634,22.13399665,26.42384105,9.70779201,-2.10314270
-0.10268244,-1.66230780

>  <Name>
2f4u_lig

>  <RI>
0

>  <Rbt.Current_Directory>
/home/itssahil/PROJECTS/Mol_Feturizer/New_Systems/rnas/2f4u

>  <Rbt.Executable>
rbdock ($Id: //depot/dev/client3/rdock/2013.1/src/exe/rbdock.cxx#4 $)

>  <Rbt.Library>
libRbt.so (2013.1, Build901 2013/11/27)

>  <Rbt.Parameter_File>
/export/apps/rDock/src/rDock_2013.1_src/data/scripts/dock_solv.prm

>  <Rbt.Receptor>
prm/blind_docking_40.prm

>  <SCORE>
11.0122

>  <SCORE.INTER>
3.55654

>  <SCORE.INTER.CONST>
1

>  <SCORE.INTER.POLAR>
0

>  <SCORE.INTER.ROT>
14

>  <SCORE.INTER.SOLV>
10.5149

>  <SCORE.INTER.VDW>
-14.0673

>  <SCORE.INTER.norm>
0.0987927

>  <SCORE.INTRA>
4.38179

>  <SCORE.INTRA.DIHEDRAL>
-9.376

>  <SCORE.INTRA.DIHEDRAL.0>
26.3805

>  <SCORE.INTRA.POLAR>
0

>  <SCORE.INTRA.POLAR.0>
0

>  <SCORE.INTRA.REPUL>
0.0556285

>  <SCORE.INTRA.REPUL.0>
0

>  <SCORE.INTRA.SOLV>
12.6165

>  <SCORE.INTRA.SOLV.lig_0>
-98.5587

>  <SCORE.INTRA.VDW>
2.48339

>  <SCORE.INTRA.VDW.0>
-2.91167

>  <SCORE.INTRA.norm>
0.121716

>  <SCORE.RESTR>
3.07387

>  <SCORE.RESTR.CAVITY>
3.07387

>  <SCORE.RESTR.norm>
0.0853853

>  <SCORE.SYSTEM>
0

>  <SCORE.SYSTEM.CONST>
0

>  <SCORE.SYSTEM.DIHEDRAL>
0

>  <SCORE.SYSTEM.SOLV>
0

>  <SCORE.SYSTEM.norm>
0

>  <SCORE.heavy>
36

>  <SCORE.norm>
0.305894

>  <RMSD>
28.205

$$$$
2f4u_lig
 OpenBabel11021811433D
libRbt.so/2013.1/901 2013/11/27
 36 37  0  0  0  0  0  0  0  0999 V2000
   17.2894   24.0704    8.8869 C   0  0  2  0  0  0  0  0  0  0  0  0
   18.5449   23.4659    9.3729 O   0  0  0  0  0  0  0  0  0  0  0  0
   22.0124   24.7190   11.6753 C   0  0  2  0  0  0  0  0  0  0  0  0
   23.1392   25.5662   12.1523 N   0  0  0  0  0  0  0  0  0  0  0  0
   16.5037   22.9410    8.1511 C   0  0  2  0  0  0  0  0  0  0  0  0
   16.2166   21.7875    9.0236 N   0  0  0  0  0  0  0  0  0  0  0  0
   22.1381   24.3920   10.1455 C   0  0  0  0  0  0  0  0  0  0  0  0
   23.4479   26.9194   11.0294 C   0  0  0  0  0  0  0  0  0  0  0  0
   24.6303   27.1900   11.9060 C   0  0  1  0  0  0  0  0  0  0  0  0
   25.7316   27.7737   11.0141 C   0  0  0  0  0  0  0  0  0  0  0  0
   25.5758   29.2596   10.6408 C   0  0  0  0  0  0  0  0  0  0  0  0
   24.1480   29.5658   10.5339 N   0  0  0  0  0  0  0  0  0  0  0  0
   24.3094   28.1547   12.8709 O   0  0  0  0  0  0  0  0  0  0  0  0
   20.6116   25.5434   14.7267 C   0  0  0  0  0  0  0  0  0  0  0  0
   20.9222   26.8683   15.4071 C   0  0  0  0  0  0  0  0  0  0  0  0
   17.3311   22.4794    6.9058 C   0  0  1  0  0  0  0  0  0  0  0  0
   21.9423   27.6798   14.7129 N   0  0  0  0  0  0  0  0  0  0  0  0
   16.6593   21.4373    6.2029 O   0  0  0  0  0  0  0  0  0  0  0  0
   20.9375   23.5606    9.6494 C   0  0  2  0  0  0  0  0  0  0  0  0
   21.0318   23.2958    8.2192 N   0  0  0  0  0  0  0  0  0  0  0  0
   21.8130   29.9902   13.7934 C   0  0  0  0  0  0  0  0  0  0  0  0
   20.9867   30.5513   14.9894 C   0  0  0  0  0  0  0  0  0  0  0  0
   21.5571   28.4842   13.5246 C   0  0  0  0  0  0  0  0  0  0  0  0
   21.4549   30.0009   16.2968 N   0  0  0  0  0  0  0  0  0  0  0  0
   23.0056   27.2915   10.1198 O   0  0  0  0  0  0  0  0  0  0  0  0
   17.5666   23.7067    6.0028 C   0  0  2  0  0  0  0  0  0  0  0  0
   18.3245   23.3897    4.8380 O   0  0  0  0  0  0  0  0  0  0  0  0
   19.6397   24.2982    9.9118 C   0  0  2  0  0  0  0  0  0  0  0  0
   18.2782   24.8299    6.7783 C   0  0  2  0  0  0  0  0  0  0  0  0
   17.5567   25.1676    7.9681 O   0  0  0  0  0  0  0  0  0  0  0  0
   19.4898   24.5866   11.4606 C   0  0  2  0  0  0  0  0  0  0  0  0
   18.2405   25.3135   11.6818 O   0  0  0  0  0  0  0  0  0  0  0  0
   18.4454   26.0698    5.9411 C   0  0  0  0  0  0  0  0  0  0  0  0
   19.2660   26.9738    6.5773 O   0  0  0  0  0  0  0  0  0  0  0  0
   20.7089   25.4483   11.9344 C   0  0  1  0  0  0  0  0  0  0  0  0
   20.6408   25.7474   13.2983 O   0  0  0  0  0  0  0  0  0  0  0  0
  1  2  1  6  0  0  0
  1  5  1  0  0  0  0
  1 30  1  0  0  0  0
  3  4  1  6  0  0  0
  3  7  1  0  0  0  0
  3 35  1  0  0  0  0
  5  6  1  1  0  0  0
  5 16  1  0  0  0  0
  7 19  1  0  0  0  0
  8  4  1  0  0  0  0
  8 25  2  0  0  0  0
  9  8  1  6  0  0  0
  9 10  1  0  0  0  0
  9 13  1  0  0  0  0
 10 11  1  0  0  0  0
 11 12  1  0  0  0  0
 14 15  1  0  0  0  0
 14 36  1  0  0  0  0
 15 17  1  0  0  0  0
 16 18  1  6  0  0  0
 16 26  1  0  0  0  0
 17 23  1  0  0  0  0
 19 20  1  6  0  0  0
 19 28  1  0  0  0  0
 21 22  1  0  0  0  0
 21 23  1  0  0  0  0
 22 24  1  0  0  0  0
 26 27  1  6  0  0  0
 26 29  1  0  0  0  0
 28  2  1  1  0  0  0
 28 31  1  0  0  0  0
 29 30  1  0  0  0  0
 29 33  1  6  0  0  0
 31 32  1  6  0  0  0
 31 35  1  0  0  0  0
 33 34  1  0  0  0  0
 35 36  1  1  0  0  0
M  END
>  <CHROM.1>
169.25491684,45.92201138,148.05046333,78.16881616,-32.80302030,-37.59308784
162.32532574,79.72058696,119.01390498,69.27261571,-61.05054639,-151.42216508
-170.38946330,-58.73499545,20.53708539,25.79895478,10.48644467,2.26819384
-0.55886520,-1.82453336

>  <Name>
2f4u_lig

>  <RI>
0

>  <Rbt.Current_Directory>
/home/itssahil/PROJECTS/Mol_Feturizer/New_Systems/rnas/2f4u

>  <Rbt.Executable>
rbdock ($Id: //depot/dev/client3/rdock/2013.1/src/exe/rbdock.cxx#4 $)

>  <Rbt.Library>
libRbt.so (2013.1, Build901 2013/11/27)

>  <Rbt.Parameter_File>
/export/apps/rDock/src/rDock_2013.1_src/data/scripts/dock_solv.prm

>  <Rbt.Receptor>
prm/blind_docking_80.prm

>  <SCORE>
8.70332

>  <SCORE.INTER>
6.7314

>  <SCORE.INTER.CONST>
1

>  <SCORE.INTER.POLAR>
0

>  <SCORE.INTER.ROT>
14

>  <SCORE.INTER.SOLV>
15.674

>  <SCORE.INTER.VDW>
-13.6704

>  <SCORE.INTER.norm>
0.186983

>  <SCORE.INTRA>
-1.14315

>  <SCORE.INTRA.DIHEDRAL>
-11.9994

>  <SCORE.INTRA.DIHEDRAL.0>
26.3805

>  <SCORE.INTRA.POLAR>
0

>  <SCORE.INTRA.POLAR.0>
0

>  <SCORE.INTRA.REPUL>
0

>  <SCORE.INTRA.REPUL.0>
0

>  <SCORE.INTRA.SOLV>
12.0641

>  <SCORE.INTRA.SOLV.lig_0>
-98.5587

>  <SCORE.INTRA.VDW>
-1.17547

>  <SCORE.INTRA.VDW.0>
-2.91167

>  <SCORE.INTRA.norm>
-0.031754

>  <SCORE.RESTR>
3.11507

>  <SCORE.RESTR.CAVITY>
3.11507

>  <SCORE.RESTR.norm>
0.0865296

>  <SCORE.SYSTEM>
0

>  <SCORE.SYSTEM.CONST>
0

>  <SCORE.SYSTEM.DIHEDRAL>
0

>  <SCORE.SYSTEM.SOLV>
0

>  <SCORE.SYSTEM.norm>
0

>  <SCORE.heavy>
36

>  <SCORE.norm>
0.241759

>  <RMSD>
28.206

$$$$
2f4u_lig
 OpenBabel11021811433D
libRbt.so/2013.1/901 2013/11/27
 36 37  0  0  0  0  0  0  0  0999 V2000
   23.1750   28.8923   13.6909 C   0  0  2  0  0  0  0  0  0  0  0  0
   22.5770   27.5432   13.6694 O   0  0  0  0  0  0  0  0  0  0  0  0
   23.1222   26.2574    9.5530 C   0  0  2  0  0  0  0  0  0  0  0  0
   23.2698   25.3512    8.3818 N   0  0  0  0  0  0  0  0  0  0  0  0
   22.3808   29.7176   14.7503 C   0  0  2  0  0  0  0  0  0  0  0  0
   22.4270   29.1117   16.0938 N   0  0  0  0  0  0  0  0  0  0  0  0
   24.2351   26.0018   10.6297 C   0  0  0  0  0  0  0  0  0  0  0  0
   24.6964   25.7910    7.4026 C   0  0  0  0  0  0  0  0  0  0  0  0
   24.1917   24.7467    6.4568 C   0  0  1  0  0  0  0  0  0  0  0  0
   23.3386   25.4632    5.4040 C   0  0  0  0  0  0  0  0  0  0  0  0
   22.5236   24.5522    4.4674 C   0  0  0  0  0  0  0  0  0  0  0  0
   21.5029   23.8635    5.2597 N   0  0  0  0  0  0  0  0  0  0  0  0
   25.2627   24.1352    5.7911 O   0  0  0  0  0  0  0  0  0  0  0  0
   19.5697   26.6983    8.5590 C   0  0  0  0  0  0  0  0  0  0  0  0
   19.3580   25.8977    7.2827 C   0  0  0  0  0  0  0  0  0  0  0  0
   20.8965   29.8548   14.2740 C   0  0  1  0  0  0  0  0  0  0  0  0
   19.3568   24.4341    7.4804 N   0  0  0  0  0  0  0  0  0  0  0  0
   20.1233   30.5940   15.2159 O   0  0  0  0  0  0  0  0  0  0  0  0
   24.0407   26.9071   11.8630 C   0  0  2  0  0  0  0  0  0  0  0  0
   25.0475   26.6375   12.8818 N   0  0  0  0  0  0  0  0  0  0  0  0
   18.0883   22.2945    7.3660 C   0  0  0  0  0  0  0  0  0  0  0  0
   17.2109   22.5893    8.6196 C   0  0  0  0  0  0  0  0  0  0  0  0
   18.5188   23.5752    6.6043 C   0  0  0  0  0  0  0  0  0  0  0  0
   17.8831   23.5355    9.5598 N   0  0  0  0  0  0  0  0  0  0  0  0
   25.4879   26.5197    7.4653 O   0  0  0  0  0  0  0  0  0  0  0  0
   20.8963   30.5331   12.8894 C   0  0  2  0  0  0  0  0  0  0  0  0
   19.5821   30.6963   12.3620 O   0  0  0  0  0  0  0  0  0  0  0  0
   22.6727   26.6799   12.4747 C   0  0  2  0  0  0  0  0  0  0  0  0
   21.7475   29.7336   11.8867 C   0  0  2  0  0  0  0  0  0  0  0  0
   23.0738   29.5319   12.3870 O   0  0  0  0  0  0  0  0  0  0  0  0
   21.5484   26.9834   11.4031 C   0  0  2  0  0  0  0  0  0  0  0  0
   20.2425   26.7388   12.0139 O   0  0  0  0  0  0  0  0  0  0  0  0
   21.8300   30.4199   10.5494 C   0  0  0  0  0  0  0  0  0  0  0  0
   20.5988   30.4251    9.9336 O   0  0  0  0  0  0  0  0  0  0  0  0
   21.7557   26.0381   10.1716 C   0  0  1  0  0  0  0  0  0  0  0  0
   20.7910   26.2475    9.1818 O   0  0  0  0  0  0  0  0  0  0  0  0
  1  2  1  6  0  0  0
  1  5  1  0  0  0  0
  1 30  1  0  0  0  0
  3  4  1  6  0  0  0
  3  7  1  0  0  0  0
  3 35  1  0  0  0  0
  5  6  1  1  0  0  0
  5 16  1  0  0  0  0
  7 19  1  0  0  0  0
  8  4  1  0  0  0  0
  8 25  2  0  0  0  0
  9  8  1  1  0  0  0
  9 10  1  0  0  0  0
  9 13  1  0  0  0  0
 10 11  1  0  0  0  0
 11 12  1  0  0  0  0
 14 15  1  0  0  0  0
 14 36  1  0  0  0  0
 15 17  1  0  0  0  0
 16 18  1  1  0  0  0
 16 26  1  0  0  0  0
 17 23  1  0  0  0  0
 19 20  1  1  0  0  0
 19 28  1  0  0  0  0
 21 22  1  0  0  0  0
 21 23  1  0  0  0  0
 22 24  1  0  0  0  0
 26 27  1  6  0  0  0
 26 29  1  0  0  0  0
 28  2  1  1  0  0  0
 28 31  1  0  0  0  0
 29 30  1  0  0  0  0
 29 33  1  6  0  0  0
 31 32  1  1  0  0  0
 31 35  1  0  0  0  0
 33 34  1  0  0  0  0
 35 36  1  6  0  0  0
M  END
>  <CHROM.1>
155.07388767,-70.87100315,94.53459521,-170.02191994,66.35457712,55.07077777
-161.47659839,148.33222000,-151.03582170,-55.22857793,62.19991404,37.00011504
-67.30791176,-138.51238723,21.73252109,26.83025307,10.11239064,-1.52354560
-0.17912736,-2.19978087

>  <Name>
2f4u_lig

>  <RI>
0

>  <Rbt.Current_Directory>
/home/itssahil/PROJECTS/Mol_Feturizer/New_Systems/rnas/2f4u

>  <Rbt.Executable>
rbdock ($Id: //depot/dev/client3/rdock/2013.1/src/exe/rbdock.cxx#4 $)

>  <Rbt.Library>
libRbt.so (2013.1, Build901 2013/11/27)

>  <Rbt.Parameter_File>
/export/apps/rDock/src/rDock_2013.1_src/data/scripts/dock_solv.prm

>  <Rbt.Receptor>
prm/blind_docking_100.prm

>  <SCORE>
5.86183

>  <SCORE.INTER>
4.21379

>  <SCORE.INTER.CONST>
1

>  <SCORE.INTER.POLAR>
-0.514735

>  <SCORE.INTER.ROT>
14

>  <SCORE.INTER.SOLV>
19.5922

>  <SCORE.INTER.VDW>
-14.9391

>  <SCORE.INTER.norm>
0.11705

>  <SCORE.INTRA>
-0.64849

>  <SCORE.INTRA.DIHEDRAL>
-10.0972

>  <SCORE.INTRA.DIHEDRAL.0>
26.3805

>  <SCORE.INTRA.POLAR>
0

>  <SCORE.INTRA.POLAR.0>
0

>  <SCORE.INTRA.REPUL>
0.0917228

>  <SCORE.INTRA.REPUL.0>
0

>  <SCORE.INTRA.SOLV>
10.2471

>  <SCORE.INTRA.SOLV.lig_0>
-98.5587

>  <SCORE.INTRA.VDW>
-1.18203

>  <SCORE.INTRA.VDW.0>
-2.91167

>  <SCORE.INTRA.norm>
-0.0180136

>  <SCORE.RESTR>
2.29654

>  <SCORE.RESTR.CAVITY>
2.29654

>  <SCORE.RESTR.norm>
0.0637927

>  <SCORE.SYSTEM>
0

>  <SCORE.SYSTEM.CONST>
0

>  <SCORE.SYSTEM.DIHEDRAL>
0

>  <SCORE.SYSTEM.SOLV>
0

>  <SCORE.SYSTEM.norm>
0

>  <SCORE.heavy>
36

>  <SCORE.norm>
0.162829

>  <RMSD>
28.216

$$$$
2f4u_lig
 OpenBabel11021811433D
libRbt.so/2013.1/901 2013/11/27
 36 37  0  0  0  0  0  0  0  0999 V2000
   21.7207   27.8686   13.5386 C   0  0  2  0  0  0  0  0  0  0  0  0
   20.8070   27.9683   12.3840 O   0  0  0  0  0  0  0  0  0  0  0  0
   20.4787   26.5791    8.2782 C   0  0  2  0  0  0  0  0  0  0  0  0
   20.8774   26.0203    6.9578 N   0  0  0  0  0  0  0  0  0  0  0  0
   22.8501   28.9200   13.3084 C   0  0  2  0  0  0  0  0  0  0  0  0
   22.3300   30.2937   13.1797 N   0  0  0  0  0  0  0  0  0  0  0  0
   21.2825   27.8817    8.6248 C   0  0  0  0  0  0  0  0  0  0  0  0
   22.3596   25.0347    7.0964 C   0  0  0  0  0  0  0  0  0  0  0  0
   22.2809   24.9635    5.6036 C   0  0  1  0  0  0  0  0  0  0  0  0
   23.7183   24.9930    5.0721 C   0  0  0  0  0  0  0  0  0  0  0  0
   24.6267   26.0917    5.6545 C   0  0  0  0  0  0  0  0  0  0  0  0
   26.0169   25.7687    5.3273 N   0  0  0  0  0  0  0  0  0  0  0  0
   21.7055   23.7495    5.2044 O   0  0  0  0  0  0  0  0  0  0  0  0
   18.8956   23.5165    8.7001 C   0  0  0  0  0  0  0  0  0  0  0  0
   17.7891   23.8084    9.7026 C   0  0  0  0  0  0  0  0  0  0  0  0
   23.6514   28.5268   12.0231 C   0  0  1  0  0  0  0  0  0  0  0  0
   18.1028   24.8981   10.6488 N   0  0  0  0  0  0  0  0  0  0  0  0
   24.6917   29.4653   11.7617 O   0  0  0  0  0  0  0  0  0  0  0  0
   20.9018   28.4215   10.0185 C   0  0  2  0  0  0  0  0  0  0  0  0
   21.6812   29.6051   10.3589 N   0  0  0  0  0  0  0  0  0  0  0  0
   16.0010   26.0551   11.3151 C   0  0  0  0  0  0  0  0  0  0  0  0
   14.7759   26.4595   10.4411 C   0  0  0  0  0  0  0  0  0  0  0  0
   17.3546   26.1792   10.5681 C   0  0  0  0  0  0  0  0  0  0  0  0
   14.9381   27.8224    9.8516 N   0  0  0  0  0  0  0  0  0  0  0  0
   23.0119   24.7193    7.8941 O   0  0  0  0  0  0  0  0  0  0  0  0
   24.2130   27.1048   12.2224 C   0  0  2  0  0  0  0  0  0  0  0  0
   24.9563   26.6487   11.0950 O   0  0  0  0  0  0  0  0  0  0  0  0
   21.1502   27.3675   11.0790 C   0  0  2  0  0  0  0  0  0  0  0  0
   23.0812   26.1047   12.5196 C   0  0  2  0  0  0  0  0  0  0  0  0
   22.2973   26.5355   13.6377 O   0  0  0  0  0  0  0  0  0  0  0  0
   20.3030   26.0705   10.7556 C   0  0  2  0  0  0  0  0  0  0  0  0
   20.5756   25.0661   11.7828 O   0  0  0  0  0  0  0  0  0  0  0  0
   23.6125   24.7243   12.7996 C   0  0  0  0  0  0  0  0  0  0  0  0
   24.6510   24.7815   13.7016 O   0  0  0  0  0  0  0  0  0  0  0  0
   20.7227   25.5313    9.3463 C   0  0  1  0  0  0  0  0  0  0  0  0
   20.0154   24.3779    8.9944 O   0  0  0  0  0  0  0  0  0  0  0  0
  1  2  1  6  0  0  0
  1  5  1  0  0  0  0
  1 30  1  0  0  0  0
  3  4  1  6  0  0  0
  3  7  1  0  0  0  0
  3 35  1  0  0  0  0
  5  6  1  6  0  0  0
  5 16  1  0  0  0  0
  7 19  1  0  0  0  0
  8  4  1  0  0  0  0
  8 25  2  0  0  0  0
  9  8  1  1  0  0  0
  9 10  1  0  0  0  0
  9 13  1  0  0  0  0
 10 11  1  0  0  0  0
 11 12  1  0  0  0  0
 14 15  1  0  0  0  0
 14 36  1  0  0  0  0
 15 17  1  0  0  0  0
 16 18  1  1  0  0  0
 16 26  1  0  0  0  0
 17 23  1  0  0  0  0
 19 20  1  1  0  0  0
 19 28  1  0  0  0  0
 21 22  1  0  0  0  0
 21 23  1  0  0  0  0
 22 24  1  0  0  0  0
 26 27  1  6  0  0  0
 26 29  1  0  0  0  0
 28  2  1  1  0  0  0
 28 31  1  0  0  0  0
 29 30  1  0  0  0  0
 29 33  1  1  0  0  0
 31 32  1  1  0  0  0
 31 35  1  0  0  0  0
 33 34  1  0  0  0  0
 35 36  1  6  0  0  0
M  END
>  <CHROM.1>
77.73927881,82.18121279,143.96598566,-48.38679665,165.18544302,2.50846017
-40.93722527,111.72464136,82.53101594,-53.65550551,-126.59012078,-131.58536383
47.67658258,-63.72746222,21.36945242,26.36145932,10.05928016,-2.42262029
-0.11767958,-1.98222873

>  <Name>
2f4u_lig

>  <RI>
0

>  <Rbt.Current_Directory>
/home/itssahil/PROJECTS/Mol_Feturizer/New_Systems/rnas/2f4u

>  <Rbt.Executable>
rbdock ($Id: //depot/dev/client3/rdock/2013.1/src/exe/rbdock.cxx#4 $)

>  <Rbt.Library>
libRbt.so (2013.1, Build901 2013/11/27)

>  <Rbt.Parameter_File>
/export/apps/rDock/src/rDock_2013.1_src/data/scripts/dock_solv.prm

>  <Rbt.Receptor>
prm/blind_docking_60.prm

>  <SCORE>
18.89

>  <SCORE.INTER>
0.15705

>  <SCORE.INTER.CONST>
1

>  <SCORE.INTER.POLAR>
-0.890293

>  <SCORE.INTER.ROT>
14

>  <SCORE.INTER.SOLV>
13.7684

>  <SCORE.INTER.VDW>
-14.4505

>  <SCORE.INTER.norm>
0.00436249

>  <SCORE.INTRA>
8.52529

>  <SCORE.INTRA.DIHEDRAL>
-0.215038

>  <SCORE.INTRA.DIHEDRAL.0>
26.3805

>  <SCORE.INTRA.POLAR>
0

>  <SCORE.INTRA.POLAR.0>
0

>  <SCORE.INTRA.REPUL>
0.00166662

>  <SCORE.INTRA.REPUL.0>
0

>  <SCORE.INTRA.SOLV>
10.2047

>  <SCORE.INTRA.SOLV.lig_0>
-98.5587

>  <SCORE.INTRA.VDW>
3.52215

>  <SCORE.INTRA.VDW.0>
-2.91167

>  <SCORE.INTRA.norm>
0.236814

>  <SCORE.RESTR>
10.2077

>  <SCORE.RESTR.CAVITY>
10.2077

>  <SCORE.RESTR.norm>
0.283546

>  <SCORE.SYSTEM>
0

>  <SCORE.SYSTEM.CONST>
0

>  <SCORE.SYSTEM.DIHEDRAL>
0

>  <SCORE.SYSTEM.SOLV>
0

>  <SCORE.SYSTEM.norm>
0

>  <SCORE.heavy>
36

>  <SCORE.norm>
0.524723

>  <RMSD>
28.221

$$$$
2f4u_lig
 OpenBabel11021811433D
libRbt.so/2013.1/901 2013/11/27
 36 37  0  0  0  0  0  0  0  0999 V2000
   23.1851   29.4856   13.1872 C   0  0  2  0  0  0  0  0  0  0  0  0
   23.1925   28.0100   13.1678 O   0  0  0  0  0  0  0  0  0  0  0  0
   22.7111   27.0528    8.9550 C   0  0  2  0  0  0  0  0  0  0  0  0
   22.7730   26.2833    7.6827 N   0  0  0  0  0  0  0  0  0  0  0  0
   22.2530   29.9136   14.3628 C   0  0  2  0  0  0  0  0  0  0  0  0
   22.6997   29.3832   15.6641 N   0  0  0  0  0  0  0  0  0  0  0  0
   24.1374   27.2707    9.5726 C   0  0  0  0  0  0  0  0  0  0  0  0
   21.5388   26.8524    6.5250 C   0  0  0  0  0  0  0  0  0  0  0  0
   21.9943   25.6969    5.6901 C   0  0  1  0  0  0  0  0  0  0  0  0
   23.4086   26.0235    5.1975 C   0  0  0  0  0  0  0  0  0  0  0  0
   24.4863   24.9668    5.5028 C   0  0  0  0  0  0  0  0  0  0  0  0
   24.0645   23.6903    4.9226 N   0  0  0  0  0  0  0  0  0  0  0  0
   22.0740   24.5351    6.4700 O   0  0  0  0  0  0  0  0  0  0  0  0
   19.1844   25.7861    9.2326 C   0  0  0  0  0  0  0  0  0  0  0  0
   18.9655   25.0480    7.9203 C   0  0  0  0  0  0  0  0  0  0  0  0
   20.7977   29.4274   14.0559 C   0  0  1  0  0  0  0  0  0  0  0  0
   19.9004   23.9273    7.6940 N   0  0  0  0  0  0  0  0  0  0  0  0
   19.9060   29.7854   15.1086 O   0  0  0  0  0  0  0  0  0  0  0  0
   24.0574   28.0204   10.9180 C   0  0  2  0  0  0  0  0  0  0  0  0
   25.3779   28.1826   11.5131 N   0  0  0  0  0  0  0  0  0  0  0  0
   21.2991   23.3022    9.6569 C   0  0  0  0  0  0  0  0  0  0  0  0
   21.9573   22.0844   10.3723 C   0  0  0  0  0  0  0  0  0  0  0  0
   20.0978   22.9091    8.7579 C   0  0  0  0  0  0  0  0  0  0  0  0
   22.9555   22.5135   11.3974 N   0  0  0  0  0  0  0  0  0  0  0  0
   20.7903   27.6275    6.5047 O   0  0  0  0  0  0  0  0  0  0  0  0
   20.3582   30.0427   12.7122 C   0  0  2  0  0  0  0  0  0  0  0  0
   19.0403   29.6500   12.3373 O   0  0  0  0  0  0  0  0  0  0  0  0
   23.1854   27.2587   11.8960 C   0  0  2  0  0  0  0  0  0  0  0  0
   21.3380   29.6617   11.5878 C   0  0  2  0  0  0  0  0  0  0  0  0
   22.6796   30.0242   11.9327 O   0  0  0  0  0  0  0  0  0  0  0  0
   21.7329   27.0799   11.2938 C   0  0  2  0  0  0  0  0  0  0  0  0
   20.9204   26.3275   12.2487 O   0  0  0  0  0  0  0  0  0  0  0  0
   20.9757   30.3184   10.2825 C   0  0  0  0  0  0  0  0  0  0  0  0
   22.0243   31.0807    9.8193 O   0  0  0  0  0  0  0  0  0  0  0  0
   21.8398   26.2989    9.9403 C   0  0  1  0  0  0  0  0  0  0  0  0
   20.5883   26.0987    9.3504 O   0  0  0  0  0  0  0  0  0  0  0  0
  1  2  1  6  0  0  0
  1  5  1  0  0  0  0
  1 30  1  0  0  0  0
  3  4  1  6  0  0  0
  3  7  1  0  0  0  0
  3 35  1  0  0  0  0
  5  6  1  1  0  0  0
  5 16  1  0  0  0  0
  7 19  1  0  0  0  0
  8  4  1  0  0  0  0
  8 25  2  0  0  0  0
  9  8  1  1  0  0  0
  9 10  1  0  0  0  0
  9 13  1  0  0  0  0
 10 11  1  0  0  0  0
 11 12  1  0  0  0  0
 14 15  1  0  0  0  0
 14 36  1  0  0  0  0
 15 17  1  0  0  0  0
 16 18  1  1  0  0  0
 16 26  1  0  0  0  0
 17 23  1  0  0  0  0
 19 20  1  1  0  0  0
 19 28  1  0  0  0  0
 21 22  1  0  0  0  0
 21 23  1  0  0  0  0
 22 24  1  0  0  0  0
 26 27  1  6  0  0  0
 26 29  1  0  0  0  0
 28  2  1  1  0  0  0
 28 31  1  0  0  0  0
 29 30  1  0  0  0  0
 29 33  1  6  0  0  0
 31 32  1  1  0  0  0
 31 35  1  0  0  0  0
 33 34  1  0  0  0  0
 35 36  1  6  0  0  0
M  END
>  <CHROM.1>
141.02884384,-144.52576565,-69.46839909,125.84271386,57.15052509,49.00167024
-143.24314753,50.29822017,-92.73115716,-170.53304029,-155.43888232,37.66019909
122.20052022,-164.96597237,21.87584152,27.00408816,10.10628144,-1.69422739
-1.17394838,-2.33913766

>  <Name>
2f4u_lig

>  <RI>
0

>  <Rbt.Current_Directory>
/home/itssahil/PROJECTS/Mol_Feturizer/New_Systems/rnas/2f4u

>  <Rbt.Executable>
rbdock ($Id: //depot/dev/client3/rdock/2013.1/src/exe/rbdock.cxx#4 $)

>  <Rbt.Library>
libRbt.so (2013.1, Build901 2013/11/27)

>  <Rbt.Parameter_File>
/export/apps/rDock/src/rDock_2013.1_src/data/scripts/dock_solv.prm

>  <Rbt.Receptor>
prm/blind_docking_60.prm

>  <SCORE>
20.9479

>  <SCORE.INTER>
2.58537

>  <SCORE.INTER.CONST>
1

>  <SCORE.INTER.POLAR>
-0.0406058

>  <SCORE.INTER.ROT>
14

>  <SCORE.INTER.SOLV>
22.2862

>  <SCORE.INTER.VDW>
-18.5031

>  <SCORE.INTER.norm>
0.0718159

>  <SCORE.INTRA>
13.8443

>  <SCORE.INTRA.DIHEDRAL>
2.36889

>  <SCORE.INTRA.DIHEDRAL.0>
26.3805

>  <SCORE.INTRA.POLAR>
0

>  <SCORE.INTRA.POLAR.0>
0

>  <SCORE.INTRA.REPUL>
0

>  <SCORE.INTRA.REPUL.0>
0

>  <SCORE.INTRA.SOLV>
8.30453

>  <SCORE.INTRA.SOLV.lig_0>
-98.5587

>  <SCORE.INTRA.VDW>
8.50762

>  <SCORE.INTRA.VDW.0>
-2.91167

>  <SCORE.INTRA.norm>
0.384565

>  <SCORE.RESTR>
4.5182

>  <SCORE.RESTR.CAVITY>
4.5182

>  <SCORE.RESTR.norm>
0.125505

>  <SCORE.SYSTEM>
0

>  <SCORE.SYSTEM.CONST>
0

>  <SCORE.SYSTEM.DIHEDRAL>
0

>  <SCORE.SYSTEM.SOLV>
0

>  <SCORE.SYSTEM.norm>
0

>  <SCORE.heavy>
36

>  <SCORE.norm>
0.581886

>  <RMSD>
28.221

$$$$
2f4u_lig
 OpenBabel11021811433D
libRbt.so/2013.1/901 2013/11/27
 36 37  0  0  0  0  0  0  0  0999 V2000
   24.7437   28.3367   13.1395 C   0  0  2  0  0  0  0  0  0  0  0  0
   24.0972   27.0948   13.6057 O   0  0  0  0  0  0  0  0  0  0  0  0
   20.7409   24.5155   12.6166 C   0  0  2  0  0  0  0  0  0  0  0  0
   19.4725   24.0544   11.9896 N   0  0  0  0  0  0  0  0  0  0  0  0
   23.6741   29.4672   13.2491 C   0  0  2  0  0  0  0  0  0  0  0  0
   23.1641   29.6357   14.6223 N   0  0  0  0  0  0  0  0  0  0  0  0
   20.5304   25.8209   13.4621 C   0  0  0  0  0  0  0  0  0  0  0  0
   18.9915   25.1263   10.6453 C   0  0  0  0  0  0  0  0  0  0  0  0
   17.7467   24.2960   10.6170 C   0  0  1  0  0  0  0  0  0  0  0  0
   16.8929   24.7182   11.8179 C   0  0  0  0  0  0  0  0  0  0  0  0
   15.9982   23.6212   12.4240 C   0  0  0  0  0  0  0  0  0  0  0  0
   16.8567   22.5632   12.9601 N   0  0  0  0  0  0  0  0  0  0  0  0
   17.0091   24.5651    9.4560 O   0  0  0  0  0  0  0  0  0  0  0  0
   21.5508   22.4866    9.9331 C   0  0  0  0  0  0  0  0  0  0  0  0
   20.5361   22.9630    8.9045 C   0  0  0  0  0  0  0  0  0  0  0  0
   22.4940   29.1417   12.2743 C   0  0  1  0  0  0  0  0  0  0  0  0
   21.1197   23.7490    7.7988 N   0  0  0  0  0  0  0  0  0  0  0  0
   21.4815   30.1423   12.3448 O   0  0  0  0  0  0  0  0  0  0  0  0
   21.8603   26.3211   14.0618 C   0  0  2  0  0  0  0  0  0  0  0  0
   21.6721   27.5582   14.8091 N   0  0  0  0  0  0  0  0  0  0  0  0
   22.0952   25.7759    6.7310 C   0  0  0  0  0  0  0  0  0  0  0  0
   23.3325   24.9728    6.2285 C   0  0  0  0  0  0  0  0  0  0  0  0
   21.4571   25.1801    8.0129 C   0  0  0  0  0  0  0  0  0  0  0  0
   23.9864   25.6319    5.0584 N   0  0  0  0  0  0  0  0  0  0  0  0
   19.4029   25.9951   10.1580 O   0  0  0  0  0  0  0  0  0  0  0  0
   23.0675   29.0205   10.8482 C   0  0  2  0  0  0  0  0  0  0  0  0
   22.0657   28.7145    9.8815 O   0  0  0  0  0  0  0  0  0  0  0  0
   22.8715   26.5789   12.9626 C   0  0  2  0  0  0  0  0  0  0  0  0
   24.1704   27.9483   10.7898 C   0  0  2  0  0  0  0  0  0  0  0  0
   25.1907   28.2095   11.7598 O   0  0  0  0  0  0  0  0  0  0  0  0
   23.1198   25.2505   12.1392 C   0  0  2  0  0  0  0  0  0  0  0  0
   24.0837   25.5326   11.0765 O   0  0  0  0  0  0  0  0  0  0  0  0
   24.8030   27.8691    9.4261 C   0  0  0  0  0  0  0  0  0  0  0  0
   24.0153   27.1311    8.5716 O   0  0  0  0  0  0  0  0  0  0  0  0
   21.7598   24.7754   11.5245 C   0  0  1  0  0  0  0  0  0  0  0  0
   21.9038   23.6038   10.7756 O   0  0  0  0  0  0  0  0  0  0  0  0
  1  2  1  6  0  0  0
  1  5  1  0  0  0  0
  1 30  1  0  0  0  0
  3  4  1  6  0  0  0
  3  7  1  0  0  0  0
  3 35  1  0  0  0  0
  5  6  1  1  0  0  0
  5 16  1  0  0  0  0
  7 19  1  0  0  0  0
  8  4  1  0  0  0  0
  8 25  2  0  0  0  0
  9  8  1  6  0  0  0
  9 10  1  0  0  0  0
  9 13  1  0  0  0  0
 10 11  1  0  0  0  0
 11 12  1  0  0  0  0
 14 15  1  0  0  0  0
 14 36  1  0  0  0  0
 15 17  1  0  0  0  0
 16 18  1  6  0  0  0
 16 26  1  0  0  0  0
 17 23  1  0  0  0  0
 19 20  1  6  0  0  0
 19 28  1  0  0  0  0
 21 22  1  0  0  0  0
 21 23  1  0  0  0  0
 22 24  1  0  0  0  0
 26 27  1  6  0  0  0
 26 29  1  0  0  0  0
 28  2  1  1  0  0  0
 28 31  1  0  0  0  0
 29 30  1  0  0  0  0
 29 33  1  6  0  0  0
 31 32  1  6  0  0  0
 31 35  1  0  0  0  0
 33 34  1  0  0  0  0
 35 36  1  1  0  0  0
M  END
>  <CHROM.1>
57.92248190,72.29092468,74.97945184,-149.68666461,63.75048477,76.59983002
37.47160720,-79.12177828,178.15016451,-175.51152200,-54.68349269,-128.70880615
-80.51918031,59.71857662,21.62197303,26.07670307,10.98849700,0.46459012,0.58372983
1.13430882

>  <Name>
2f4u_lig

>  <RI>
0

>  <Rbt.Current_Directory>
/home/itssahil/PROJECTS/Mol_Feturizer/New_Systems/rnas/2f4u

>  <Rbt.Executable>
rbdock ($Id: //depot/dev/client3/rdock/2013.1/src/exe/rbdock.cxx#4 $)

>  <Rbt.Library>
libRbt.so (2013.1, Build901 2013/11/27)

>  <Rbt.Parameter_File>
/export/apps/rDock/src/rDock_2013.1_src/data/scripts/dock_solv.prm

>  <Rbt.Receptor>
prm/blind_docking_60.prm

>  <SCORE>
15.3504

>  <SCORE.INTER>
5.96027

>  <SCORE.INTER.CONST>
1

>  <SCORE.INTER.POLAR>
-0.169443

>  <SCORE.INTER.ROT>
14

>  <SCORE.INTER.SOLV>
21.313

>  <SCORE.INTER.VDW>
-15.4994

>  <SCORE.INTER.norm>
0.165563

>  <SCORE.INTRA>
3.90902

>  <SCORE.INTRA.DIHEDRAL>
-10.591

>  <SCORE.INTRA.DIHEDRAL.0>
26.3805

>  <SCORE.INTRA.POLAR>
0

>  <SCORE.INTRA.POLAR.0>
0

>  <SCORE.INTRA.REPUL>
0.147994

>  <SCORE.INTRA.REPUL.0>
0

>  <SCORE.INTRA.SOLV>
12.2502

>  <SCORE.INTRA.SOLV.lig_0>
-98.5587

>  <SCORE.INTRA.VDW>
2.33947

>  <SCORE.INTRA.VDW.0>
-2.91167

>  <SCORE.INTRA.norm>
0.108584

>  <SCORE.RESTR>
5.48115

>  <SCORE.RESTR.CAVITY>
5.48115

>  <SCORE.RESTR.norm>
0.152254

>  <SCORE.SYSTEM>
0

>  <SCORE.SYSTEM.CONST>
0

>  <SCORE.SYSTEM.DIHEDRAL>
0

>  <SCORE.SYSTEM.SOLV>
0

>  <SCORE.SYSTEM.norm>
0

>  <SCORE.heavy>
36

>  <SCORE.norm>
0.426401

>  <RMSD>
28.221

$$$$
2f4u_lig
 OpenBabel11021811433D
libRbt.so/2013.1/901 2013/11/27
 36 37  0  0  0  0  0  0  0  0999 V2000
   22.1048   23.9532   12.0243 C   0  0  2  0  0  0  0  0  0  0  0  0
   21.2061   24.0126   10.8552 O   0  0  0  0  0  0  0  0  0  0  0  0
   20.3886   26.5940    7.4547 C   0  0  2  0  0  0  0  0  0  0  0  0
   20.3077   27.8281    6.6269 N   0  0  0  0  0  0  0  0  0  0  0  0
   21.6209   22.7570   12.9012 C   0  0  2  0  0  0  0  0  0  0  0  0
   21.6373   21.4752   12.1726 N   0  0  0  0  0  0  0  0  0  0  0  0
   19.5669   26.7314    8.7848 C   0  0  0  0  0  0  0  0  0  0  0  0
   18.8643   27.8056    5.5763 C   0  0  0  0  0  0  0  0  0  0  0  0
   19.4413   29.0595    4.9979 C   0  0  1  0  0  0  0  0  0  0  0  0
   20.6460   28.6515    4.1426 C   0  0  0  0  0  0  0  0  0  0  0  0
   20.4384   27.4276    3.2315 C   0  0  0  0  0  0  0  0  0  0  0  0
   21.7411   27.0077    2.7114 N   0  0  0  0  0  0  0  0  0  0  0  0
   18.5102   29.6781    4.1525 O   0  0  0  0  0  0  0  0  0  0  0  0
   22.9399   25.7542    5.2727 C   0  0  0  0  0  0  0  0  0  0  0  0
   24.1085   26.5975    4.7848 C   0  0  0  0  0  0  0  0  0  0  0  0
   20.1758   23.0622   13.4181 C   0  0  1  0  0  0  0  0  0  0  0  0
   25.1897   26.7638    5.7770 N   0  0  0  0  0  0  0  0  0  0  0  0
   19.6818   21.9911   14.2182 O   0  0  0  0  0  0  0  0  0  0  0  0
   19.7023   25.4691    9.6605 C   0  0  2  0  0  0  0  0  0  0  0  0
   18.9762   25.6151   10.9158 N   0  0  0  0  0  0  0  0  0  0  0  0
   27.3133   26.0053    6.8328 C   0  0  0  0  0  0  0  0  0  0  0  0
   28.1134   26.9524    5.8888 C   0  0  0  0  0  0  0  0  0  0  0  0
   25.9427   25.5733    6.2494 C   0  0  0  0  0  0  0  0  0  0  0  0
   28.1509   26.4391    4.4864 N   0  0  0  0  0  0  0  0  0  0  0  0
   18.0282   27.1444    5.4177 O   0  0  0  0  0  0  0  0  0  0  0  0
   20.2174   24.3841   14.2104 C   0  0  2  0  0  0  0  0  0  0  0  0
   18.9387   24.7561   14.7187 O   0  0  0  0  0  0  0  0  0  0  0  0
   21.1594   25.2033    9.9823 C   0  0  2  0  0  0  0  0  0  0  0  0
   20.7674   25.5284   13.3400 C   0  0  2  0  0  0  0  0  0  0  0  0
   22.0465   25.1874   12.7942 O   0  0  0  0  0  0  0  0  0  0  0  0
   21.9799   25.0175    8.6419 C   0  0  2  0  0  0  0  0  0  0  0  0
   23.3824   24.7811    8.9815 O   0  0  0  0  0  0  0  0  0  0  0  0
   20.8951   26.8116   14.1167 C   0  0  0  0  0  0  0  0  0  0  0  0
   21.4520   27.7963   13.3323 O   0  0  0  0  0  0  0  0  0  0  0  0
   21.8432   26.3190    7.7813 C   0  0  1  0  0  0  0  0  0  0  0  0
   22.5500   26.2287    6.5786 O   0  0  0  0  0  0  0  0  0  0  0  0
  1  2  1  6  0  0  0
  1  5  1  0  0  0  0
  1 30  1  0  0  0  0
  3  4  1  1  0  0  0
  3  7  1  0  0  0  0
  3 35  1  0  0  0  0
  5  6  1  6  0  0  0
  5 16  1  0  0  0  0
  7 19  1  0  0  0  0
  8  4  1  0  0  0  0
  8 25  2  0  0  0  0
  9  8  1  6  0  0  0
  9 10  1  0  0  0  0
  9 13  1  0  0  0  0
 10 11  1  0  0  0  0
 11 12  1  0  0  0  0
 14 15  1  0  0  0  0
 14 36  1  0  0  0  0
 15 17  1  0  0  0  0
 16 18  1  1  0  0  0
 16 26  1  0  0  0  0
 17 23  1  0  0  0  0
 19 20  1  1  0  0  0
 19 28  1  0  0  0  0
 21 22  1  0  0  0  0
 21 23  1  0  0  0  0
 22 24  1  0  0  0  0
 26 27  1  6  0  0  0
 26 29  1  0  0  0  0
 28  2  1  1  0  0  0
 28 31  1  0  0  0  0
 29 30  1  0  0  0  0
 29 33  1  1  0  0  0
 31 32  1  1  0  0  0
 31 35  1  0  0  0  0
 33 34  1  0  0  0  0
 35 36  1  6  0  0  0
M  END
>  <CHROM.1>
165.19201506,-86.21995469,73.14894467,44.03924536,-168.18146236,48.27585511
179.99839073,63.06731956,158.79021794,-47.66958294,-49.90962610,-138.00285110
176.94566994,-59.81991218,21.66031931,25.90048132,8.72044794,-1.82041911
0.23203438,-1.16750460

>  <Name>
2f4u_lig

>  <RI>
0

>  <Rbt.Current_Directory>
/home/itssahil/PROJECTS/Mol_Feturizer/New_Systems/rnas/2f4u

>  <Rbt.Executable>
rbdock ($Id: //depot/dev/client3/rdock/2013.1/src/exe/rbdock.cxx#4 $)

>  <Rbt.Library>
libRbt.so (2013.1, Build901 2013/11/27)

>  <Rbt.Parameter_File>
/export/apps/rDock/src/rDock_2013.1_src/data/scripts/dock_solv.prm

>  <Rbt.Receptor>
prm/blind_docking_40.prm

>  <SCORE>
7.5433

>  <SCORE.INTER>
0.734398

>  <SCORE.INTER.CONST>
1

>  <SCORE.INTER.POLAR>
0

>  <SCORE.INTER.ROT>
14

>  <SCORE.INTER.SOLV>
16.0476

>  <SCORE.INTER.VDW>
-17.7929

>  <SCORE.INTER.norm>
0.0203999

>  <SCORE.INTRA>
-3.56364

>  <SCORE.INTRA.DIHEDRAL>
-14.8989

>  <SCORE.INTRA.DIHEDRAL.0>
26.3805

>  <SCORE.INTRA.POLAR>
0

>  <SCORE.INTRA.POLAR.0>
0

>  <SCORE.INTRA.REPUL>
0

>  <SCORE.INTRA.REPUL.0>
0

>  <SCORE.INTRA.SOLV>
8.4155

>  <SCORE.INTRA.SOLV.lig_0>
-98.5587

>  <SCORE.INTRA.VDW>
-0.321924

>  <SCORE.INTRA.VDW.0>
-2.91167

>  <SCORE.INTRA.norm>
-0.0989901

>  <SCORE.RESTR>
10.3726

>  <SCORE.RESTR.CAVITY>
10.3726

>  <SCORE.RESTR.norm>
0.288126

>  <SCORE.SYSTEM>
0

>  <SCORE.SYSTEM.CONST>
0

>  <SCORE.SYSTEM.DIHEDRAL>
0

>  <SCORE.SYSTEM.SOLV>
0

>  <SCORE.SYSTEM.norm>
0

>  <SCORE.heavy>
36

>  <SCORE.norm>
0.209536

>  <RMSD>
28.239

$$$$
2f4u_lig
 OpenBabel11021811433D
libRbt.so/2013.1/901 2013/11/27
 36 37  0  0  0  0  0  0  0  0999 V2000
   20.1351   27.2035   14.2359 C   0  0  2  0  0  0  0  0  0  0  0  0
   20.1359   28.0478   13.0255 O   0  0  0  0  0  0  0  0  0  0  0  0
   21.3639   27.8981    8.8584 C   0  0  2  0  0  0  0  0  0  0  0  0
   21.9692   27.3852    7.5993 N   0  0  0  0  0  0  0  0  0  0  0  0
   21.6280   26.9955   14.6383 C   0  0  2  0  0  0  0  0  0  0  0  0
   22.3293   28.2666   14.8968 N   0  0  0  0  0  0  0  0  0  0  0  0
   22.4271   28.0214   10.0064 C   0  0  0  0  0  0  0  0  0  0  0  0
   22.9924   25.9559    7.9120 C   0  0  0  0  0  0  0  0  0  0  0  0
   23.3557   26.0767    6.4652 C   0  0  1  0  0  0  0  0  0  0  0  0
   24.7173   25.3972    6.2817 C   0  0  0  0  0  0  0  0  0  0  0  0
   25.9449   26.2336    6.6875 C   0  0  0  0  0  0  0  0  0  0  0  0
   26.0596   27.3683    5.7692 N   0  0  0  0  0  0  0  0  0  0  0  0
   22.4274   25.3888    5.6718 O   0  0  0  0  0  0  0  0  0  0  0  0
   18.8210   26.5406    6.9264 C   0  0  0  0  0  0  0  0  0  0  0  0
   18.9145   25.0373    6.7122 C   0  0  0  0  0  0  0  0  0  0  0  0
   22.3525   26.2049   13.4986 C   0  0  1  0  0  0  0  0  0  0  0  0
   20.1761   24.4360    7.1896 N   0  0  0  0  0  0  0  0  0  0  0  0
   23.7269   25.9976   13.8136 O   0  0  0  0  0  0  0  0  0  0  0  0
   21.7793   28.5007   11.3214 C   0  0  2  0  0  0  0  0  0  0  0  0
   22.7584   28.5715   12.3988 N   0  0  0  0  0  0  0  0  0  0  0  0
   19.5339   24.1165    9.5741 C   0  0  0  0  0  0  0  0  0  0  0  0
   17.9856   23.9622    9.6588 C   0  0  0  0  0  0  0  0  0  0  0  0
   20.1470   23.4601    8.3096 C   0  0  0  0  0  0  0  0  0  0  0  0
   17.2761   25.1591    9.1153 N   0  0  0  0  0  0  0  0  0  0  0  0
   23.2518   25.3581    8.7703 O   0  0  0  0  0  0  0  0  0  0  0  0
   21.6133   24.8671   13.2962 C   0  0  2  0  0  0  0  0  0  0  0  0
   22.1953   24.0726   12.2657 O   0  0  0  0  0  0  0  0  0  0  0  0
   20.6758   27.5513   11.7434 C   0  0  2  0  0  0  0  0  0  0  0  0
   20.1273   25.1049   12.9725 C   0  0  2  0  0  0  0  0  0  0  0  0
   19.5076   25.9157   13.9769 O   0  0  0  0  0  0  0  0  0  0  0  0
   19.5793   27.4631   10.6057 C   0  0  2  0  0  0  0  0  0  0  0  0
   18.5385   26.5284   11.0312 O   0  0  0  0  0  0  0  0  0  0  0  0
   19.3663   23.8117   12.8518 C   0  0  0  0  0  0  0  0  0  0  0  0
   19.6046   23.0085   13.9442 O   0  0  0  0  0  0  0  0  0  0  0  0
   20.2576   26.9551    9.2885 C   0  0  1  0  0  0  0  0  0  0  0  0
   19.3438   26.8472    8.2362 O   0  0  0  0  0  0  0  0  0  0  0  0
  1  2  1  6  0  0  0
  1  5  1  0  0  0  0
  1 30  1  0  0  0  0
  3  4  1  6  0  0  0
  3  7  1  0  0  0  0
  3 35  1  0  0  0  0
  5  6  1  6  0  0  0
  5 16  1  0  0  0  0
  7 19  1  0  0  0  0
  8  4  1  0  0  0  0
  8 25  2  0  0  0  0
  9  8  1  1  0  0  0
  9 10  1  0  0  0  0
  9 13  1  0  0  0  0
 10 11  1  0  0  0  0
 11 12  1  0  0  0  0
 14 15  1  0  0  0  0
 14 36  1  0  0  0  0
 15 17  1  0  0  0  0
 16 18  1  1  0  0  0
 16 26  1  0  0  0  0
 17 23  1  0  0  0  0
 19 20  1  1  0  0  0
 19 28  1  0  0  0  0
 21 22  1  0  0  0  0
 21 23  1  0  0  0  0
 22 24  1  0  0  0  0
 26 27  1  6  0  0  0
 26 29  1  0  0  0  0
 28  2  1  1  0  0  0
 28 31  1  0  0  0  0
 29 30  1  0  0  0  0
 29 33  1  1  0  0  0
 31 32  1  1  0  0  0
 31 35  1  0  0  0  0
 33 34  1  0  0  0  0
 35 36  1  6  0  0  0
M  END
>  <CHROM.1>
66.97527167,47.33612686,156.34001800,-80.20855127,-66.70103164,-41.80409183
62.59345910,115.33609361,-59.30176155,-95.58066524,89.29607498,-122.03488949
50.38366423,62.75828015,21.18043156,26.07364510,10.27936358,-1.88227503,-0.39154157
-1.71172436

>  <Name>
2f4u_lig

>  <RI>
0

>  <Rbt.Current_Directory>
/home/itssahil/PROJECTS/Mol_Feturizer/New_Systems/rnas/2f4u

>  <Rbt.Executable>
rbdock ($Id: //depot/dev/client3/rdock/2013.1/src/exe/rbdock.cxx#4 $)

>  <Rbt.Library>
libRbt.so (2013.1, Build901 2013/11/27)

>  <Rbt.Parameter_File>
/export/apps/rDock/src/rDock_2013.1_src/data/scripts/dock_solv.prm

>  <Rbt.Receptor>
prm/blind_docking_40.prm

>  <SCORE>
14.2031

>  <SCORE.INTER>
4.26325

>  <SCORE.INTER.CONST>
1

>  <SCORE.INTER.POLAR>
0

>  <SCORE.INTER.ROT>
14

>  <SCORE.INTER.SOLV>
13.2816

>  <SCORE.INTER.VDW>
-14.5184

>  <SCORE.INTER.norm>
0.118423

>  <SCORE.INTRA>
6.52229

>  <SCORE.INTRA.DIHEDRAL>
-7.13375

>  <SCORE.INTRA.DIHEDRAL.0>
26.3805

>  <SCORE.INTRA.POLAR>
0

>  <SCORE.INTRA.POLAR.0>
0

>  <SCORE.INTRA.REPUL>
0.100159

>  <SCORE.INTRA.REPUL.0>
0

>  <SCORE.INTRA.SOLV>
19.4619

>  <SCORE.INTRA.SOLV.lig_0>
-98.5587

>  <SCORE.INTRA.VDW>
-0.142591

>  <SCORE.INTRA.VDW.0>
-2.91167

>  <SCORE.INTRA.norm>
0.181175

>  <SCORE.RESTR>
3.41756

>  <SCORE.RESTR.CAVITY>
3.41756

>  <SCORE.RESTR.norm>
0.0949324

>  <SCORE.SYSTEM>
0

>  <SCORE.SYSTEM.CONST>
0

>  <SCORE.SYSTEM.DIHEDRAL>
0

>  <SCORE.SYSTEM.SOLV>
0

>  <SCORE.SYSTEM.norm>
0

>  <SCORE.heavy>
36

>  <SCORE.norm>
0.394531

>  <RMSD>
28.242

$$$$
2f4u_lig
 OpenBabel11021811433D
libRbt.so/2013.1/901 2013/11/27
 36 37  0  0  0  0  0  0  0  0999 V2000
   19.1682   24.2121    7.1122 C   0  0  2  0  0  0  0  0  0  0  0  0
   20.2266   23.8672    8.0811 O   0  0  0  0  0  0  0  0  0  0  0  0
   22.8621   25.7878   10.9553 C   0  0  2  0  0  0  0  0  0  0  0  0
   23.5036   26.8635   11.7591 N   0  0  0  0  0  0  0  0  0  0  0  0
   18.0130   24.8724    7.9267 C   0  0  2  0  0  0  0  0  0  0  0  0
   18.4504   26.0736    8.6616 N   0  0  0  0  0  0  0  0  0  0  0  0
   23.0400   26.0286    9.4147 C   0  0  0  0  0  0  0  0  0  0  0  0
   22.6512   28.4184   11.5511 C   0  0  0  0  0  0  0  0  0  0  0  0
   23.7726   28.9795   12.3680 C   0  0  1  0  0  0  0  0  0  0  0  0
   24.8740   29.4082   11.3919 C   0  0  0  0  0  0  0  0  0  0  0  0
   25.6375   28.2652   10.6977 C   0  0  0  0  0  0  0  0  0  0  0  0
   26.1985   27.3875   11.7265 N   0  0  0  0  0  0  0  0  0  0  0  0
   23.3471   30.1234   13.0571 O   0  0  0  0  0  0  0  0  0  0  0  0
   20.6420   25.3207   13.9578 C   0  0  0  0  0  0  0  0  0  0  0  0
   21.4297   26.0808   15.0143 C   0  0  0  0  0  0  0  0  0  0  0  0
   17.4299   23.8161    8.9231 C   0  0  1  0  0  0  0  0  0  0  0  0
   20.9491   27.4567   15.2532 N   0  0  0  0  0  0  0  0  0  0  0  0
   16.3749   24.3748    9.7015 O   0  0  0  0  0  0  0  0  0  0  0  0
   22.3248   24.9388    8.5905 C   0  0  2  0  0  0  0  0  0  0  0  0
   22.4518   25.1880    7.1601 N   0  0  0  0  0  0  0  0  0  0  0  0
   21.4658   29.5452   16.5065 C   0  0  0  0  0  0  0  0  0  0  0  0
   22.4774   30.7014   16.7677 C   0  0  0  0  0  0  0  0  0  0  0  0
   21.9304   28.5625   15.4002 C   0  0  0  0  0  0  0  0  0  0  0  0
   22.0093   31.6167   17.8514 N   0  0  0  0  0  0  0  0  0  0  0  0
   21.7780   28.7617   11.0210 O   0  0  0  0  0  0  0  0  0  0  0  0
   16.9450   22.6012    8.1069 C   0  0  2  0  0  0  0  0  0  0  0  0
   16.4012   21.5726    8.9303 O   0  0  0  0  0  0  0  0  0  0  0  0
   20.8498   24.8975    8.9367 C   0  0  2  0  0  0  0  0  0  0  0  0
   18.0896   22.0176    7.2591 C   0  0  2  0  0  0  0  0  0  0  0  0
   18.6764   23.0250    6.4278 O   0  0  0  0  0  0  0  0  0  0  0  0
   20.6689   24.6075   10.4819 C   0  0  2  0  0  0  0  0  0  0  0  0
   19.2397   24.5914   10.7902 O   0  0  0  0  0  0  0  0  0  0  0  0
   17.6203   20.8812    6.3905 C   0  0  0  0  0  0  0  0  0  0  0  0
   17.3620   19.7655    7.1544 O   0  0  0  0  0  0  0  0  0  0  0  0
   21.3856   25.7379   11.2954 C   0  0  1  0  0  0  0  0  0  0  0  0
   21.2627   25.5492   12.6751 O   0  0  0  0  0  0  0  0  0  0  0  0
  1  2  1  1  0  0  0
  1  5  1  0  0  0  0
  1 30  1  0  0  0  0
  3  4  1  1  0  0  0
  3  7  1  0  0  0  0
  3 35  1  0  0  0  0
  5  6  1  1  0  0  0
  5 16  1  0  0  0  0
  7 19  1  0  0  0  0
  8  4  1  0  0  0  0
  8 25  2  0  0  0  0
  9  8  1  6  0  0  0
  9 10  1  0  0  0  0
  9 13  1  0  0  0  0
 10 11  1  0  0  0  0
 11 12  1  0  0  0  0
 14 15  1  0  0  0  0
 14 36  1  0  0  0  0
 15 17  1  0  0  0  0
 16 18  1  6  0  0  0
 16 26  1  0  0  0  0
 17 23  1  0  0  0  0
 19 20  1  6  0  0  0
 19 28  1  0  0  0  0
 21 22  1  0  0  0  0
 21 23  1  0  0  0  0
 22 24  1  0  0  0  0
 26 27  1  1  0  0  0
 26 29  1  0  0  0  0
 28  2  1  6  0  0  0
 28 31  1  0  0  0  0
 29 30  1  0  0  0  0
 29 33  1  6  0  0  0
 31 32  1  1  0  0  0
 31 35  1  0  0  0  0
 33 34  1  0  0  0  0
 35 36  1  1  0  0  0
M  END
>  <CHROM.1>
-57.92344447,67.78207303,90.16726369,-70.87598553,-55.89408882,90.46814389
-146.29554053,-137.01581682,-140.85716911,-179.15466388,177.34449931,-118.33233836
-72.03588930,-174.16188386,20.83280897,25.85602211,10.80752524,-2.12543216
0.48069447,1.07376505

>  <Name>
2f4u_lig

>  <RI>
0

>  <Rbt.Current_Directory>
/home/itssahil/PROJECTS/Mol_Feturizer/New_Systems/rnas/2f4u

>  <Rbt.Executable>
rbdock ($Id: //depot/dev/client3/rdock/2013.1/src/exe/rbdock.cxx#4 $)

>  <Rbt.Library>
libRbt.so (2013.1, Build901 2013/11/27)

>  <Rbt.Parameter_File>
/export/apps/rDock/src/rDock_2013.1_src/data/scripts/dock_solv.prm

>  <Rbt.Receptor>
prm/blind_docking_80.prm

>  <SCORE>
-4.31918

>  <SCORE.INTER>
-5.9511

>  <SCORE.INTER.CONST>
1

>  <SCORE.INTER.POLAR>
-1.21468

>  <SCORE.INTER.ROT>
14

>  <SCORE.INTER.SOLV>
12.2774

>  <SCORE.INTER.VDW>
-16.9443

>  <SCORE.INTER.norm>
-0.165308

>  <SCORE.INTRA>
-0.403786

>  <SCORE.INTRA.DIHEDRAL>
-7.21788

>  <SCORE.INTRA.DIHEDRAL.0>
26.3805

>  <SCORE.INTRA.POLAR>
0

>  <SCORE.INTRA.POLAR.0>
0

>  <SCORE.INTRA.REPUL>
0

>  <SCORE.INTRA.REPUL.0>
0

>  <SCORE.INTRA.SOLV>
8.37265

>  <SCORE.INTRA.SOLV.lig_0>
-98.5587

>  <SCORE.INTRA.VDW>
-0.981173

>  <SCORE.INTRA.VDW.0>
-2.91167

>  <SCORE.INTRA.norm>
-0.0112163

>  <SCORE.RESTR>
2.0357

>  <SCORE.RESTR.CAVITY>
2.0357

>  <SCORE.RESTR.norm>
0.0565472

>  <SCORE.SYSTEM>
0

>  <SCORE.SYSTEM.CONST>
0

>  <SCORE.SYSTEM.DIHEDRAL>
0

>  <SCORE.SYSTEM.SOLV>
0

>  <SCORE.SYSTEM.norm>
0

>  <SCORE.heavy>
36

>  <SCORE.norm>
-0.119977

>  <RMSD>
28.249

$$$$
2f4u_lig
 OpenBabel11021811433D
libRbt.so/2013.1/901 2013/11/27
 36 37  0  0  0  0  0  0  0  0999 V2000
   23.4227   27.0614   10.9356 C   0  0  2  0  0  0  0  0  0  0  0  0
   22.7293   26.1304   11.8468 O   0  0  0  0  0  0  0  0  0  0  0  0
   20.4399   23.5928    9.1608 C   0  0  2  0  0  0  0  0  0  0  0  0
   19.4493   22.5814    8.7020 N   0  0  0  0  0  0  0  0  0  0  0  0
   24.5060   27.7958   11.7847 C   0  0  2  0  0  0  0  0  0  0  0  0
   25.4694   26.8666   12.4033 N   0  0  0  0  0  0  0  0  0  0  0  0
   21.4824   22.9747   10.1580 C   0  0  0  0  0  0  0  0  0  0  0  0
   18.8201   22.9851    7.0807 C   0  0  0  0  0  0  0  0  0  0  0  0
   17.8966   21.8295    7.3075 C   0  0  1  0  0  0  0  0  0  0  0  0
   16.5259   22.4099    7.6732 C   0  0  0  0  0  0  0  0  0  0  0  0
   16.5267   23.4968    8.7640 C   0  0  0  0  0  0  0  0  0  0  0  0
   17.0072   22.9028   10.0131 N   0  0  0  0  0  0  0  0  0  0  0  0
   17.7435   21.0905    6.1265 O   0  0  0  0  0  0  0  0  0  0  0  0
   18.2336   25.9130    7.7731 C   0  0  0  0  0  0  0  0  0  0  0  0
   19.3264   26.7974    7.1914 C   0  0  0  0  0  0  0  0  0  0  0  0
   23.7923   28.6434   12.8896 C   0  0  1  0  0  0  0  0  0  0  0  0
   20.6944   26.2778    7.3905 N   0  0  0  0  0  0  0  0  0  0  0  0
   24.7421   29.3279   13.7025 O   0  0  0  0  0  0  0  0  0  0  0  0
   22.4701   24.0428   10.6700 C   0  0  2  0  0  0  0  0  0  0  0  0
   23.4096   23.4781   11.6306 N   0  0  0  0  0  0  0  0  0  0  0  0
   21.9603   25.4000    5.4342 C   0  0  0  0  0  0  0  0  0  0  0  0
   23.4594   25.0293    5.2259 C   0  0  0  0  0  0  0  0  0  0  0  0
   21.7532   26.5972    6.3983 C   0  0  0  0  0  0  0  0  0  0  0  0
   23.6173   23.7674    4.4423 N   0  0  0  0  0  0  0  0  0  0  0  0
   19.0011   23.7516    6.3450 O   0  0  0  0  0  0  0  0  0  0  0  0
   22.8319   29.6291   12.1945 C   0  0  2  0  0  0  0  0  0  0  0  0
   22.1226   30.4460   13.1226 O   0  0  0  0  0  0  0  0  0  0  0  0
   21.7212   25.1739   11.3460 C   0  0  2  0  0  0  0  0  0  0  0  0
   21.8223   28.8782   11.3078 C   0  0  2  0  0  0  0  0  0  0  0  0
   22.4951   28.0306   10.3702 O   0  0  0  0  0  0  0  0  0  0  0  0
   20.7032   25.8286   10.3265 C   0  0  2  0  0  0  0  0  0  0  0  0
   19.9832   26.9025   11.0096 O   0  0  0  0  0  0  0  0  0  0  0  0
   20.9263   29.8244   10.5540 C   0  0  0  0  0  0  0  0  0  0  0  0
   20.1078   30.5089   11.4238 O   0  0  0  0  0  0  0  0  0  0  0  0
   19.7000   24.7295    9.8381 C   0  0  1  0  0  0  0  0  0  0  0  0
   18.7633   25.2391    8.9341 O   0  0  0  0  0  0  0  0  0  0  0  0
  1  2  1  1  0  0  0
  1  5  1  0  0  0  0
  1 30  1  0  0  0  0
  3  4  1  1  0  0  0
  3  7  1  0  0  0  0
  3 35  1  0  0  0  0
  5  6  1  1  0  0  0
  5 16  1  0  0  0  0
  7 19  1  0  0  0  0
  8  4  1  0  0  0  0
  8 25  2  0  0  0  0
  9  8  1  6  0  0  0
  9 10  1  0  0  0  0
  9 13  1  0  0  0  0
 10 11  1  0  0  0  0
 11 12  1  0  0  0  0
 14 15  1  0  0  0  0
 14 36  1  0  0  0  0
 15 17  1  0  0  0  0
 16 18  1  6  0  0  0
 16 26  1  0  0  0  0
 17 23  1  0  0  0  0
 19 20  1  1  0  0  0
 19 28  1  0  0  0  0
 21 22  1  0  0  0  0
 21 23  1  0  0  0  0
 22 24  1  0  0  0  0
 26 27  1  1  0  0  0
 26 29  1  0  0  0  0
 28  2  1  6  0  0  0
 28 31  1  0  0  0  0
 29 30  1  0  0  0  0
 29 33  1  6  0  0  0
 31 32  1  1  0  0  0
 31 35  1  0  0  0  0
 33 34  1  0  0  0  0
 35 36  1  6  0  0  0
M  END
>  <CHROM.1>
-174.10464016,-152.21999969,102.88914495,-48.76117408,-63.38990938,31.04368413
-17.59691665,150.43103596,-99.96578858,172.41860411,-132.95155535,76.43451496
-66.49396128,-68.57596202,20.97748436,25.76159096,9.49761462,-1.01615983
-0.26871103,-2.24951810

>  <Name>
2f4u_lig

>  <RI>
0

>  <Rbt.Current_Directory>
/home/itssahil/PROJECTS/Mol_Feturizer/New_Systems/rnas/2f4u

>  <Rbt.Executable>
rbdock ($Id: //depot/dev/client3/rdock/2013.1/src/exe/rbdock.cxx#4 $)

>  <Rbt.Library>
libRbt.so (2013.1, Build901 2013/11/27)

>  <Rbt.Parameter_File>
/export/apps/rDock/src/rDock_2013.1_src/data/scripts/dock_solv.prm

>  <Rbt.Receptor>
prm/blind_docking_100.prm

>  <SCORE>
1.45397

>  <SCORE.INTER>
-4.5253

>  <SCORE.INTER.CONST>
1

>  <SCORE.INTER.POLAR>
-1.80148

>  <SCORE.INTER.ROT>
14

>  <SCORE.INTER.SOLV>
18.0934

>  <SCORE.INTER.VDW>
-15.9764

>  <SCORE.INTER.norm>
-0.125703

>  <SCORE.INTRA>
0.782838

>  <SCORE.INTRA.DIHEDRAL>
-6.19971

>  <SCORE.INTRA.DIHEDRAL.0>
26.3805

>  <SCORE.INTRA.POLAR>
0

>  <SCORE.INTRA.POLAR.0>
0

>  <SCORE.INTRA.REPUL>
0

>  <SCORE.INTRA.REPUL.0>
0

>  <SCORE.INTRA.SOLV>
10.3584

>  <SCORE.INTRA.SOLV.lig_0>
-98.5587

>  <SCORE.INTRA.VDW>
-1.29653

>  <SCORE.INTRA.VDW.0>
-2.91167

>  <SCORE.INTRA.norm>
0.0217455

>  <SCORE.RESTR>
5.19643

>  <SCORE.RESTR.CAVITY>
5.19643

>  <SCORE.RESTR.norm>
0.144345

>  <SCORE.SYSTEM>
0

>  <SCORE.SYSTEM.CONST>
0

>  <SCORE.SYSTEM.DIHEDRAL>
0

>  <SCORE.SYSTEM.SOLV>
0

>  <SCORE.SYSTEM.norm>
0

>  <SCORE.heavy>
36

>  <SCORE.norm>
0.040388

>  <RMSD>
28.266

$$$$
2f4u_lig
 OpenBabel11021811433D
libRbt.so/2013.1/901 2013/11/27
 36 37  0  0  0  0  0  0  0  0999 V2000
   24.4131   27.6544   10.3723 C   0  0  2  0  0  0  0  0  0  0  0  0
   23.9181   26.3023   10.6955 O   0  0  0  0  0  0  0  0  0  0  0  0
   20.3361   24.1034    9.5864 C   0  0  2  0  0  0  0  0  0  0  0  0
   18.8957   23.7456    9.4778 N   0  0  0  0  0  0  0  0  0  0  0  0
   25.1233   28.1899   11.6541 C   0  0  2  0  0  0  0  0  0  0  0  0
   26.2346   27.3249   12.0913 N   0  0  0  0  0  0  0  0  0  0  0  0
   20.8068   24.1726   11.0821 C   0  0  0  0  0  0  0  0  0  0  0  0
   17.8560   25.1748    9.7310 C   0  0  0  0  0  0  0  0  0  0  0  0
   16.7310   24.1897    9.6713 C   0  0  1  0  0  0  0  0  0  0  0  0
   16.7500   23.4000   10.9849 C   0  0  0  0  0  0  0  0  0  0  0  0
   17.5163   24.0535   12.1498 C   0  0  0  0  0  0  0  0  0  0  0  0
   16.9268   25.3670   12.4164 N   0  0  0  0  0  0  0  0  0  0  0  0
   15.5020   24.8593    9.5962 O   0  0  0  0  0  0  0  0  0  0  0  0
   20.0305   24.9367    6.2231 C   0  0  0  0  0  0  0  0  0  0  0  0
   21.2524   25.4709    5.4909 C   0  0  0  0  0  0  0  0  0  0  0  0
   24.0650   28.3240   12.7988 C   0  0  1  0  0  0  0  0  0  0  0  0
   22.5369   24.9436    5.9939 N   0  0  0  0  0  0  0  0  0  0  0  0
   24.6675   28.8009   13.9992 O   0  0  0  0  0  0  0  0  0  0  0  0
   22.2856   24.5978   11.1855 C   0  0  2  0  0  0  0  0  0  0  0  0
   22.7095   24.7060   12.5758 N   0  0  0  0  0  0  0  0  0  0  0  0
   24.8572   24.1899    5.4954 C   0  0  0  0  0  0  0  0  0  0  0  0
   25.3798   24.0777    6.9591 C   0  0  0  0  0  0  0  0  0  0  0  0
   23.8016   25.3104    5.3057 C   0  0  0  0  0  0  0  0  0  0  0  0
   25.9873   25.3574    7.4331 N   0  0  0  0  0  0  0  0  0  0  0  0
   18.0097   26.2267    9.9077 O   0  0  0  0  0  0  0  0  0  0  0  0
   22.9493   29.2712   12.3140 C   0  0  2  0  0  0  0  0  0  0  0  0
   21.9254   29.4524   13.2890 O   0  0  0  0  0  0  0  0  0  0  0  0
   22.4965   25.9423   10.5182 C   0  0  2  0  0  0  0  0  0  0  0  0
   22.3183   28.7530   11.0091 C   0  0  2  0  0  0  0  0  0  0  0  0
   23.3177   28.5405   10.0059 O   0  0  0  0  0  0  0  0  0  0  0  0
   22.0665   25.8601    8.9974 C   0  0  2  0  0  0  0  0  0  0  0  0
   22.2630   27.1731    8.3847 O   0  0  0  0  0  0  0  0  0  0  0  0
   21.2823   29.7038   10.4715 C   0  0  0  0  0  0  0  0  0  0  0  0
   21.7966   30.9777   10.3841 O   0  0  0  0  0  0  0  0  0  0  0  0
   20.5576   25.4472    8.9207 C   0  0  1  0  0  0  0  0  0  0  0  0
   20.1047   25.3593    7.6010 O   0  0  0  0  0  0  0  0  0  0  0  0
  1  2  1  1  0  0  0
  1  5  1  0  0  0  0
  1 30  1  0  0  0  0
  3  4  1  1  0  0  0
  3  7  1  0  0  0  0
  3 35  1  0  0  0  0
  5  6  1  1  0  0  0
  5 16  1  0  0  0  0
  7 19  1  0  0  0  0
  8  4  1  0  0  0  0
  8 25  2  0  0  0  0
  9  8  1  1  0  0  0
  9 10  1  0  0  0  0
  9 13  1  0  0  0  0
 10 11  1  0  0  0  0
 11 12  1  0  0  0  0
 14 15  1  0  0  0  0
 14 36  1  0  0  0  0
 15 17  1  0  0  0  0
 16 18  1  1  0  0  0
 16 26  1  0  0  0  0
 17 23  1  0  0  0  0
 19 20  1  1  0  0  0
 19 28  1  0  0  0  0
 21 22  1  0  0  0  0
 21 23  1  0  0  0  0
 22 24  1  0  0  0  0
 26 27  1  1  0  0  0
 26 29  1  0  0  0  0
 28  2  1  6  0  0  0
 28 31  1  0  0  0  0
 29 30  1  0  0  0  0
 29 33  1  6  0  0  0
 31 32  1  1  0  0  0
 31 35  1  0  0  0  0
 33 34  1  0  0  0  0
 35 36  1  6  0  0  0
M  END
>  <CHROM.1>
125.14657457,81.40595038,73.49818765,19.10808928,58.19005221,62.89503372
-68.26463267,175.73883845,-152.11235163,-58.08564315,-69.40233663,-169.24364024
51.50834220,-65.29785682,21.59404903,26.20802529,9.85821605,0.37657193,0.32579570
1.01952293

>  <Name>
2f4u_lig

>  <RI>
0

>  <Rbt.Current_Directory>
/home/itssahil/PROJECTS/Mol_Feturizer/New_Systems/rnas/2f4u

>  <Rbt.Executable>
rbdock ($Id: //depot/dev/client3/rdock/2013.1/src/exe/rbdock.cxx#4 $)

>  <Rbt.Library>
libRbt.so (2013.1, Build901 2013/11/27)

>  <Rbt.Parameter_File>
/export/apps/rDock/src/rDock_2013.1_src/data/scripts/dock_solv.prm

>  <Rbt.Receptor>
prm/blind_docking_60.prm

>  <SCORE>
4.78135

>  <SCORE.INTER>
-4.51721

>  <SCORE.INTER.CONST>
1

>  <SCORE.INTER.POLAR>
-1.90916

>  <SCORE.INTER.ROT>
14

>  <SCORE.INTER.SOLV>
13.5526

>  <SCORE.INTER.VDW>
-14.0985

>  <SCORE.INTER.norm>
-0.125478

>  <SCORE.INTRA>
2.04269

>  <SCORE.INTRA.DIHEDRAL>
-11.711

>  <SCORE.INTRA.DIHEDRAL.0>
26.3805

>  <SCORE.INTRA.POLAR>
0

>  <SCORE.INTRA.POLAR.0>
0

>  <SCORE.INTRA.REPUL>
0

>  <SCORE.INTRA.REPUL.0>
0

>  <SCORE.INTRA.SOLV>
9.84154

>  <SCORE.INTRA.SOLV.lig_0>
-98.5587

>  <SCORE.INTRA.VDW>
2.97743

>  <SCORE.INTRA.VDW.0>
-2.91167

>  <SCORE.INTRA.norm>
0.0567413

>  <SCORE.RESTR>
7.25587

>  <SCORE.RESTR.CAVITY>
7.25587

>  <SCORE.RESTR.norm>
0.201552

>  <SCORE.SYSTEM>
0

>  <SCORE.SYSTEM.CONST>
0

>  <SCORE.SYSTEM.DIHEDRAL>
0

>  <SCORE.SYSTEM.SOLV>
0

>  <SCORE.SYSTEM.norm>
0

>  <SCORE.heavy>
36

>  <SCORE.norm>
0.132815

>  <RMSD>
28.288

$$$$
2f4u_lig
 OpenBabel11021811433D
libRbt.so/2013.1/901 2013/11/27
 36 37  0  0  0  0  0  0  0  0999 V2000
   21.7938   23.7763   12.2798 C   0  0  2  0  0  0  0  0  0  0  0  0
   21.6141   23.3628   10.8746 O   0  0  0  0  0  0  0  0  0  0  0  0
   21.7883   25.3860    7.0312 C   0  0  2  0  0  0  0  0  0  0  0  0
   21.4895   26.3743    5.9594 N   0  0  0  0  0  0  0  0  0  0  0  0
   20.6265   23.1313   13.0895 C   0  0  2  0  0  0  0  0  0  0  0  0
   20.6061   21.6608   12.9834 N   0  0  0  0  0  0  0  0  0  0  0  0
   20.5048   24.5943    7.4660 C   0  0  0  0  0  0  0  0  0  0  0  0
   20.4561   27.6955    6.5712 C   0  0  0  0  0  0  0  0  0  0  0  0
   20.4201   28.1375    5.1418 C   0  0  1  0  0  0  0  0  0  0  0  0
   19.3456   27.3025    4.4363 C   0  0  0  0  0  0  0  0  0  0  0  0
   19.4909   27.1744    2.9086 C   0  0  0  0  0  0  0  0  0  0  0  0
   19.3619   28.5067    2.3151 N   0  0  0  0  0  0  0  0  0  0  0  0
   20.0353   29.4826    5.0585 O   0  0  0  0  0  0  0  0  0  0  0  0
   24.8654   27.1245    7.4900 C   0  0  0  0  0  0  0  0  0  0  0  0
   25.5704   27.5346    8.7743 C   0  0  0  0  0  0  0  0  0  0  0  0
   19.2710   23.7251   12.5809 C   0  0  1  0  0  0  0  0  0  0  0  0
   24.7084   27.5046    9.9731 N   0  0  0  0  0  0  0  0  0  0  0  0
   18.1684   23.1582   13.2839 O   0  0  0  0  0  0  0  0  0  0  0  0
   20.8139   23.6126    8.6147 C   0  0  2  0  0  0  0  0  0  0  0  0
   19.6126   22.9105    9.0487 N   0  0  0  0  0  0  0  0  0  0  0  0
   23.0955   28.8146   11.3451 C   0  0  0  0  0  0  0  0  0  0  0  0
   22.9857   29.6473   12.6576 C   0  0  0  0  0  0  0  0  0  0  0  0
   24.5411   28.7353   10.7886 C   0  0  0  0  0  0  0  0  0  0  0  0
   23.6056   28.9409   13.8187 N   0  0  0  0  0  0  0  0  0  0  0  0
   20.0268   27.9709    7.5205 O   0  0  0  0  0  0  0  0  0  0  0  0
   19.3216   25.2564   12.7538 C   0  0  2  0  0  0  0  0  0  0  0  0
   18.1282   25.8955   12.3077 O   0  0  0  0  0  0  0  0  0  0  0  0
   21.3864   24.3558    9.8050 C   0  0  2  0  0  0  0  0  0  0  0  0
   20.5255   25.8537   12.0032 C   0  0  2  0  0  0  0  0  0  0  0  0
   21.7460   25.2255   12.4104 O   0  0  0  0  0  0  0  0  0  0  0  0
   22.7072   25.1161    9.3785 C   0  0  2  0  0  0  0  0  0  0  0  0
   23.2267   25.8377   10.5394 O   0  0  0  0  0  0  0  0  0  0  0  0
   20.6436   27.3380   12.2249 C   0  0  0  0  0  0  0  0  0  0  0  0
   20.9201   27.6074   13.5463 O   0  0  0  0  0  0  0  0  0  0  0  0
   22.3627   26.1201    8.2267 C   0  0  1  0  0  0  0  0  0  0  0  0
   23.4862   26.8344    7.8005 O   0  0  0  0  0  0  0  0  0  0  0  0
  1  2  1  6  0  0  0
  1  5  1  0  0  0  0
  1 30  1  0  0  0  0
  3  4  1  6  0  0  0
  3  7  1  0  0  0  0
  3 35  1  0  0  0  0
  5  6  1  6  0  0  0
  5 16  1  0  0  0  0
  7 19  1  0  0  0  0
  8  4  1  0  0  0  0
  8 25  2  0  0  0  0
  9  8  1  1  0  0  0
  9 10  1  0  0  0  0
  9 13  1  0  0  0  0
 10 11  1  0  0  0  0
 11 12  1  0  0  0  0
 14 15  1  0  0  0  0
 14 36  1  0  0  0  0
 15 17  1  0  0  0  0
 16 18  1  1  0  0  0
 16 26  1  0  0  0  0
 17 23  1  0  0  0  0
 19 20  1  1  0  0  0
 19 28  1  0  0  0  0
 21 22  1  0  0  0  0
 21 23  1  0  0  0  0
 22 24  1  0  0  0  0
 26 27  1  6  0  0  0
 26 29  1  0  0  0  0
 28  2  1  1  0  0  0
 28 31  1  0  0  0  0
 29 30  1  0  0  0  0
 29 33  1  1  0  0  0
 31 32  1  1  0  0  0
 31 35  1  0  0  0  0
 33 34  1  0  0  0  0
 35 36  1  6  0  0  0
M  END
>  <CHROM.1>
118.39140830,67.70721164,82.32352677,-157.06110380,-63.11249270,1.26284249
-82.65086113,-123.00920614,144.45133544,-70.86667463,154.24897677,-162.22661961
65.15846098,-89.67880873,21.36044169,26.17848444,9.55714656,1.55098687,0.77947733
1.91980546

>  <Name>
2f4u_lig

>  <RI>
0

>  <Rbt.Current_Directory>
/home/itssahil/PROJECTS/Mol_Feturizer/New_Systems/rnas/2f4u

>  <Rbt.Executable>
rbdock ($Id: //depot/dev/client3/rdock/2013.1/src/exe/rbdock.cxx#4 $)

>  <Rbt.Library>
libRbt.so (2013.1, Build901 2013/11/27)

>  <Rbt.Parameter_File>
/export/apps/rDock/src/rDock_2013.1_src/data/scripts/dock_solv.prm

>  <Rbt.Receptor>
prm/blind_docking_40.prm

>  <SCORE>
21.7333

>  <SCORE.INTER>
5.61153

>  <SCORE.INTER.CONST>
1

>  <SCORE.INTER.POLAR>
-1.03923

>  <SCORE.INTER.ROT>
14

>  <SCORE.INTER.SOLV>
24.4396

>  <SCORE.INTER.VDW>
-13.8747

>  <SCORE.INTER.norm>
0.155876

>  <SCORE.INTRA>
6.48335

>  <SCORE.INTRA.DIHEDRAL>
1.34348

>  <SCORE.INTRA.DIHEDRAL.0>
26.3805

>  <SCORE.INTRA.POLAR>
0

>  <SCORE.INTRA.POLAR.0>
0

>  <SCORE.INTRA.REPUL>
0

>  <SCORE.INTRA.REPUL.0>
0

>  <SCORE.INTRA.SOLV>
8.51557

>  <SCORE.INTRA.SOLV.lig_0>
-98.5587

>  <SCORE.INTRA.VDW>
1.55383

>  <SCORE.INTRA.VDW.0>
-2.91167

>  <SCORE.INTRA.norm>
0.180093

>  <SCORE.RESTR>
9.63841

>  <SCORE.RESTR.CAVITY>
9.63841

>  <SCORE.RESTR.norm>
0.267734

>  <SCORE.SYSTEM>
0

>  <SCORE.SYSTEM.CONST>
0

>  <SCORE.SYSTEM.DIHEDRAL>
0

>  <SCORE.SYSTEM.SOLV>
0

>  <SCORE.SYSTEM.norm>
0

>  <SCORE.heavy>
36

>  <SCORE.norm>
0.603703

>  <RMSD>
28.323

$$$$
2f4u_lig
 OpenBabel11021811433D
libRbt.so/2013.1/901 2013/11/27
 36 37  0  0  0  0  0  0  0  0999 V2000
   22.5778   24.8363    7.3897 C   0  0  2  0  0  0  0  0  0  0  0  0
   23.0081   24.5289    8.7675 O   0  0  0  0  0  0  0  0  0  0  0  0
   23.1240   26.3595   12.7084 C   0  0  2  0  0  0  0  0  0  0  0  0
   22.9645   27.3826   13.7772 N   0  0  0  0  0  0  0  0  0  0  0  0
   22.2814   26.3674    7.3439 C   0  0  2  0  0  0  0  0  0  0  0  0
   23.4525   27.1841    7.7127 N   0  0  0  0  0  0  0  0  0  0  0  0
   24.0698   26.8605   11.5605 C   0  0  0  0  0  0  0  0  0  0  0  0
   21.4533   28.3086   13.5623 C   0  0  0  0  0  0  0  0  0  0  0  0
   21.9666   29.1366   14.6984 C   0  0  1  0  0  0  0  0  0  0  0  0
   21.0025   30.3155   14.8718 C   0  0  0  0  0  0  0  0  0  0  0  0
   20.8517   31.2440   13.6525 C   0  0  0  0  0  0  0  0  0  0  0  0
   19.9306   30.6183   12.7017 N   0  0  0  0  0  0  0  0  0  0  0  0
   21.9487   28.3950   15.8874 O   0  0  0  0  0  0  0  0  0  0  0  0
   20.3908   24.7747   14.2248 C   0  0  0  0  0  0  0  0  0  0  0  0
   19.7882   23.5385   13.5741 C   0  0  0  0  0  0  0  0  0  0  0  0
   21.0858   26.6791    8.3041 C   0  0  1  0  0  0  0  0  0  0  0  0
   19.0575   23.8110   12.3199 N   0  0  0  0  0  0  0  0  0  0  0  0
   20.7815   28.0715    8.3070 O   0  0  0  0  0  0  0  0  0  0  0  0
   24.1843   25.8156   10.4320 C   0  0  2  0  0  0  0  0  0  0  0  0
   25.0264   26.2999    9.3454 N   0  0  0  0  0  0  0  0  0  0  0  0
   17.2321   24.7889   10.9372 C   0  0  0  0  0  0  0  0  0  0  0  0
   16.9084   23.5099   10.1080 C   0  0  0  0  0  0  0  0  0  0  0  0
   17.7312   24.4786   12.3726 C   0  0  0  0  0  0  0  0  0  0  0  0
   16.5601   23.8372    8.6927 N   0  0  0  0  0  0  0  0  0  0  0  0
   20.6203   28.2898   12.8788 O   0  0  0  0  0  0  0  0  0  0  0  0
   19.8745   25.8389    7.8525 C   0  0  2  0  0  0  0  0  0  0  0  0
   18.7292   26.0465    8.6754 O   0  0  0  0  0  0  0  0  0  0  0  0
   22.8148   25.4969    9.8663 C   0  0  2  0  0  0  0  0  0  0  0  0
   20.2215   24.3393    7.8386 C   0  0  2  0  0  0  0  0  0  0  0  0
   21.3798   24.0890    7.0351 O   0  0  0  0  0  0  0  0  0  0  0  0
   21.8746   24.9466   11.0142 C   0  0  2  0  0  0  0  0  0  0  0  0
   20.5575   24.6653   10.4449 O   0  0  0  0  0  0  0  0  0  0  0  0
   19.0800   23.5049    7.3219 C   0  0  0  0  0  0  0  0  0  0  0  0
   18.8931   23.7247    5.9759 O   0  0  0  0  0  0  0  0  0  0  0  0
   21.7585   26.0331   12.1365 C   0  0  1  0  0  0  0  0  0  0  0  0
   20.9349   25.6163   13.1864 O   0  0  0  0  0  0  0  0  0  0  0  0
  1  2  1  1  0  0  0
  1  5  1  0  0  0  0
  1 30  1  0  0  0  0
  3  4  1  1  0  0  0
  3  7  1  0  0  0  0
  3 35  1  0  0  0  0
  5  6  1  1  0  0  0
  5 16  1  0  0  0  0
  7 19  1  0  0  0  0
  8  4  1  0  0  0  0
  8 25  2  0  0  0  0
  9  8  1  6  0  0  0
  9 10  1  0  0  0  0
  9 13  1  0  0  0  0
 10 11  1  0  0  0  0
 11 12  1  0  0  0  0
 14 15  1  0  0  0  0
 14 36  1  0  0  0  0
 15 17  1  0  0  0  0
 16 18  1  6  0  0  0
 16 26  1  0  0  0  0
 17 23  1  0  0  0  0
 19 20  1  6  0  0  0
 19 28  1  0  0  0  0
 21 22  1  0  0  0  0
 21 23  1  0  0  0  0
 22 24  1  0  0  0  0
 26 27  1  1  0  0  0
 26 29  1  0  0  0  0
 28  2  1  6  0  0  0
 28 31  1  0  0  0  0
 29 30  1  0  0  0  0
 29 33  1  6  0  0  0
 31 32  1  6  0  0  0
 31 35  1  0  0  0  0
 33 34  1  0  0  0  0
 35 36  1  1  0  0  0
M  END
>  <CHROM.1>
13.56414331,98.15102268,173.97811983,-60.00408765,80.21015891,-40.20903750
-64.95435004,-73.21451501,174.12247560,-174.40981536,66.90474425,-120.46868150
69.27560452,-72.91709760,20.91670096,26.09161391,10.74753133,-1.82285277
0.49321200,1.11383582

>  <Name>
2f4u_lig

>  <RI>
0

>  <Rbt.Current_Directory>
/home/itssahil/PROJECTS/Mol_Feturizer/New_Systems/rnas/2f4u

>  <Rbt.Executable>
rbdock ($Id: //depot/dev/client3/rdock/2013.1/src/exe/rbdock.cxx#4 $)

>  <Rbt.Library>
libRbt.so (2013.1, Build901 2013/11/27)

>  <Rbt.Parameter_File>
/export/apps/rDock/src/rDock_2013.1_src/data/scripts/dock_solv.prm

>  <Rbt.Receptor>
prm/blind_docking_80.prm

>  <SCORE>
20.526

>  <SCORE.INTER>
6.1375

>  <SCORE.INTER.CONST>
1

>  <SCORE.INTER.POLAR>
0

>  <SCORE.INTER.ROT>
14

>  <SCORE.INTER.SOLV>
12.5659

>  <SCORE.INTER.VDW>
-13.0303

>  <SCORE.INTER.norm>
0.170486

>  <SCORE.INTRA>
12.155

>  <SCORE.INTRA.DIHEDRAL>
-6.7295

>  <SCORE.INTRA.DIHEDRAL.0>
26.3805

>  <SCORE.INTRA.POLAR>
0

>  <SCORE.INTRA.POLAR.0>
0

>  <SCORE.INTRA.REPUL>
0

>  <SCORE.INTRA.REPUL.0>
0

>  <SCORE.INTRA.SOLV>
17.0755

>  <SCORE.INTRA.SOLV.lig_0>
-98.5587

>  <SCORE.INTRA.VDW>
6.982

>  <SCORE.INTRA.VDW.0>
-2.91167

>  <SCORE.INTRA.norm>
0.337639

>  <SCORE.RESTR>
2.23346

>  <SCORE.RESTR.CAVITY>
2.23346

>  <SCORE.RESTR.norm>
0.0620405

>  <SCORE.SYSTEM>
0

>  <SCORE.SYSTEM.CONST>
0

>  <SCORE.SYSTEM.DIHEDRAL>
0

>  <SCORE.SYSTEM.SOLV>
0

>  <SCORE.SYSTEM.norm>
0

>  <SCORE.heavy>
36

>  <SCORE.norm>
0.570165

>  <RMSD>
28.334

$$$$
2f4u_lig
 OpenBabel11021811433D
libRbt.so/2013.1/901 2013/11/27
 36 37  0  0  0  0  0  0  0  0999 V2000
   21.5807   28.4038   14.2012 C   0  0  2  0  0  0  0  0  0  0  0  0
   20.6443   28.7418   13.1118 O   0  0  0  0  0  0  0  0  0  0  0  0
   19.3547   27.0690    9.3126 C   0  0  2  0  0  0  0  0  0  0  0  0
   19.4213   26.3653    8.0029 N   0  0  0  0  0  0  0  0  0  0  0  0
   22.7918   29.3785   14.0695 C   0  0  2  0  0  0  0  0  0  0  0  0
   22.3926   30.7954   14.1539 N   0  0  0  0  0  0  0  0  0  0  0  0
   20.3263   28.3006    9.3608 C   0  0  0  0  0  0  0  0  0  0  0  0
   20.9645   25.4860    7.8218 C   0  0  0  0  0  0  0  0  0  0  0  0
   20.4840   25.2175    6.4301 C   0  0  1  0  0  0  0  0  0  0  0  0
   21.6402   25.5486    5.4798 C   0  0  0  0  0  0  0  0  0  0  0  0
   22.9084   24.6902    5.6412 C   0  0  0  0  0  0  0  0  0  0  0  0
   23.7263   24.8363    4.4356 N   0  0  0  0  0  0  0  0  0  0  0  0
   20.1820   23.8578    6.2739 O   0  0  0  0  0  0  0  0  0  0  0  0
   17.6536   24.2066   10.4696 C   0  0  0  0  0  0  0  0  0  0  0  0
   17.5542   23.7460   11.9162 C   0  0  0  0  0  0  0  0  0  0  0  0
   23.5147   29.1045   12.7090 C   0  0  1  0  0  0  0  0  0  0  0  0
   18.7969   23.9243   12.6940 N   0  0  0  0  0  0  0  0  0  0  0  0
   24.6260   29.9797   12.5348 O   0  0  0  0  0  0  0  0  0  0  0  0
   20.2906   28.9892   10.7404 C   0  0  2  0  0  0  0  0  0  0  0  0
   21.2265   30.1050   10.7995 N   0  0  0  0  0  0  0  0  0  0  0  0
   20.9160   22.8599   13.4534 C   0  0  0  0  0  0  0  0  0  0  0  0
   21.5491   22.7684   12.0325 C   0  0  0  0  0  0  0  0  0  0  0  0
   19.3674   22.7736   13.4411 C   0  0  0  0  0  0  0  0  0  0  0  0
   21.6470   21.3560   11.5563 N   0  0  0  0  0  0  0  0  0  0  0  0
   21.8363   25.3117    8.4308 O   0  0  0  0  0  0  0  0  0  0  0  0
   23.9530   27.6265   12.6862 C   0  0  2  0  0  0  0  0  0  0  0  0
   24.6174   27.2731   11.4757 O   0  0  0  0  0  0  0  0  0  0  0  0
   20.6562   28.0038   11.8323 C   0  0  2  0  0  0  0  0  0  0  0  0
   22.7462   26.6932   12.8912 C   0  0  2  0  0  0  0  0  0  0  0  0
   22.0389   27.0264   14.0907 O   0  0  0  0  0  0  0  0  0  0  0  0
   19.6476   26.7844   11.8146 C   0  0  2  0  0  0  0  0  0  0  0  0
   20.0344   25.8427   12.8643 O   0  0  0  0  0  0  0  0  0  0  0  0
   23.1607   25.2474   12.9552 C   0  0  0  0  0  0  0  0  0  0  0  0
   24.2434   25.0930   13.7913 O   0  0  0  0  0  0  0  0  0  0  0  0
   19.7181   26.0907   10.4121 C   0  0  1  0  0  0  0  0  0  0  0  0
   18.8529   24.9961   10.3246 O   0  0  0  0  0  0  0  0  0  0  0  0
  1  2  1  6  0  0  0
  1  5  1  0  0  0  0
  1 30  1  0  0  0  0
  3  4  1  6  0  0  0
  3  7  1  0  0  0  0
  3 35  1  0  0  0  0
  5  6  1  6  0  0  0
  5 16  1  0  0  0  0
  7 19  1  0  0  0  0
  8  4  1  0  0  0  0
  8 25  2  0  0  0  0
  9  8  1  1  0  0  0
  9 10  1  0  0  0  0
  9 13  1  0  0  0  0
 10 11  1  0  0  0  0
 11 12  1  0  0  0  0
 14 15  1  0  0  0  0
 14 36  1  0  0  0  0
 15 17  1  0  0  0  0
 16 18  1  1  0  0  0
 16 26  1  0  0  0  0
 17 23  1  0  0  0  0
 19 20  1  6  0  0  0
 19 28  1  0  0  0  0
 21 22  1  0  0  0  0
 21 23  1  0  0  0  0
 22 24  1  0  0  0  0
 26 27  1  6  0  0  0
 26 29  1  0  0  0  0
 28  2  1  1  0  0  0
 28 31  1  0  0  0  0
 29 30  1  0  0  0  0
 29 33  1  1  0  0  0
 31 32  1  1  0  0  0
 31 35  1  0  0  0  0
 33 34  1  0  0  0  0
 35 36  1  1  0  0  0
M  END
>  <CHROM.1>
95.85598938,71.20049986,132.01200453,62.97512259,162.72168094,-13.61287602
-76.56024256,-127.71527191,146.53602586,-80.74867088,-62.88483236,-146.38820162
46.54519618,-78.76445742,21.27351089,26.21741517,10.96651881,1.09767428,1.02312719
1.43268648

>  <Name>
2f4u_lig

>  <RI>
0

>  <Rbt.Current_Directory>
/home/itssahil/PROJECTS/Mol_Feturizer/New_Systems/rnas/2f4u

>  <Rbt.Executable>
rbdock ($Id: //depot/dev/client3/rdock/2013.1/src/exe/rbdock.cxx#4 $)

>  <Rbt.Library>
libRbt.so (2013.1, Build901 2013/11/27)

>  <Rbt.Parameter_File>
/export/apps/rDock/src/rDock_2013.1_src/data/scripts/dock_solv.prm

>  <Rbt.Receptor>
prm/blind_docking_60.prm

>  <SCORE>
10.9212

>  <SCORE.INTER>
3.45305

>  <SCORE.INTER.CONST>
1

>  <SCORE.INTER.POLAR>
-1

>  <SCORE.INTER.ROT>
14

>  <SCORE.INTER.SOLV>
26.2077

>  <SCORE.INTER.VDW>
-16.0339

>  <SCORE.INTER.norm>
0.0959179

>  <SCORE.INTRA>
4.86124

>  <SCORE.INTRA.DIHEDRAL>
-2.28087

>  <SCORE.INTRA.DIHEDRAL.0>
26.3805

>  <SCORE.INTRA.POLAR>
0

>  <SCORE.INTRA.POLAR.0>
0

>  <SCORE.INTRA.REPUL>
0

>  <SCORE.INTRA.REPUL.0>
0

>  <SCORE.INTRA.SOLV>
8.2981

>  <SCORE.INTRA.SOLV.lig_0>
-98.5587

>  <SCORE.INTRA.VDW>
1.85262

>  <SCORE.INTRA.VDW.0>
-2.91167

>  <SCORE.INTRA.norm>
0.135034

>  <SCORE.RESTR>
2.60688

>  <SCORE.RESTR.CAVITY>
2.60688

>  <SCORE.RESTR.norm>
0.0724133

>  <SCORE.SYSTEM>
0

>  <SCORE.SYSTEM.CONST>
0

>  <SCORE.SYSTEM.DIHEDRAL>
0

>  <SCORE.SYSTEM.SOLV>
0

>  <SCORE.SYSTEM.norm>
0

>  <SCORE.heavy>
36

>  <SCORE.norm>
0.303366

>  <RMSD>
28.353

$$$$
2f4u_lig
 OpenBabel11021811433D
libRbt.so/2013.1/901 2013/11/27
 36 37  0  0  0  0  0  0  0  0999 V2000
   23.0579   29.1201   13.1960 C   0  0  2  0  0  0  0  0  0  0  0  0
   22.5687   27.7325   13.3105 O   0  0  0  0  0  0  0  0  0  0  0  0
   23.0401   26.2196    9.2627 C   0  0  2  0  0  0  0  0  0  0  0  0
   23.1040   25.2537    8.1324 N   0  0  0  0  0  0  0  0  0  0  0  0
   22.4689   29.9044   14.4093 C   0  0  2  0  0  0  0  0  0  0  0  0
   22.8629   29.3242   15.7063 N   0  0  0  0  0  0  0  0  0  0  0  0
   24.0950   25.8834   10.3751 C   0  0  0  0  0  0  0  0  0  0  0  0
   24.4652   25.6296    7.0400 C   0  0  0  0  0  0  0  0  0  0  0  0
   23.8924   24.5435    6.1844 C   0  0  1  0  0  0  0  0  0  0  0  0
   22.6159   25.0982    5.5422 C   0  0  0  0  0  0  0  0  0  0  0  0
   22.7796   26.4044    4.7432 C   0  0  0  0  0  0  0  0  0  0  0  0
   21.4563   26.8492    4.3016 N   0  0  0  0  0  0  0  0  0  0  0  0
   24.7815   24.2192    5.1506 O   0  0  0  0  0  0  0  0  0  0  0  0
   19.5033   26.8689    8.1961 C   0  0  0  0  0  0  0  0  0  0  0  0
   19.4934   26.3121    6.7802 C   0  0  0  0  0  0  0  0  0  0  0  0
   20.9093   29.9304   14.2843 C   0  0  1  0  0  0  0  0  0  0  0  0
   19.3651   24.8425    6.7096 N   0  0  0  0  0  0  0  0  0  0  0  0
   20.3200   30.6285   15.3783 O   0  0  0  0  0  0  0  0  0  0  0  0
   23.9832   26.8565   11.5664 C   0  0  2  0  0  0  0  0  0  0  0  0
   24.9323   26.5162   12.6189 N   0  0  0  0  0  0  0  0  0  0  0  0
   19.6867   23.2815    8.6226 C   0  0  0  0  0  0  0  0  0  0  0  0
   18.5442   22.3036    8.2143 C   0  0  0  0  0  0  0  0  0  0  0  0
   20.3540   23.9842    7.4116 C   0  0  0  0  0  0  0  0  0  0  0  0
   17.3961   23.0211    7.5831 N   0  0  0  0  0  0  0  0  0  0  0  0
   25.2635   26.3531    7.0128 O   0  0  0  0  0  0  0  0  0  0  0  0
   20.5454   30.5855   12.9369 C   0  0  2  0  0  0  0  0  0  0  0  0
   19.1375   30.6484   12.7233 O   0  0  0  0  0  0  0  0  0  0  0  0
   22.5866   26.8141   12.1537 C   0  0  2  0  0  0  0  0  0  0  0  0
   21.2009   29.8316   11.7657 C   0  0  2  0  0  0  0  0  0  0  0  0
   22.6172   29.7307   11.9501 O   0  0  0  0  0  0  0  0  0  0  0  0
   21.5258   27.1993   11.0444 C   0  0  2  0  0  0  0  0  0  0  0  0
   20.1889   27.1325   11.6329 O   0  0  0  0  0  0  0  0  0  0  0  0
   20.9276   30.5012   10.4454 C   0  0  0  0  0  0  0  0  0  0  0  0
   22.0934   30.9958    9.9055 O   0  0  0  0  0  0  0  0  0  0  0  0
   21.6457   26.1852    9.8568 C   0  0  1  0  0  0  0  0  0  0  0  0
   20.7309   26.4620    8.8366 O   0  0  0  0  0  0  0  0  0  0  0  0
  1  2  1  6  0  0  0
  1  5  1  0  0  0  0
  1 30  1  0  0  0  0
  3  4  1  6  0  0  0
  3  7  1  0  0  0  0
  3 35  1  0  0  0  0
  5  6  1  1  0  0  0
  5 16  1  0  0  0  0
  7 19  1  0  0  0  0
  8  4  1  0  0  0  0
  8 25  2  0  0  0  0
  9  8  1  1  0  0  0
  9 10  1  0  0  0  0
  9 13  1  0  0  0  0
 10 11  1  0  0  0  0
 11 12  1  0  0  0  0
 14 15  1  0  0  0  0
 14 36  1  0  0  0  0
 15 17  1  0  0  0  0
 16 18  1  1  0  0  0
 16 26  1  0  0  0  0
 17 23  1  0  0  0  0
 19 20  1  1  0  0  0
 19 28  1  0  0  0  0
 21 22  1  0  0  0  0
 21 23  1  0  0  0  0
 22 24  1  0  0  0  0
 26 27  1  6  0  0  0
 26 29  1  0  0  0  0
 28  2  1  1  0  0  0
 28 31  1  0  0  0  0
 29 30  1  0  0  0  0
 29 33  1  6  0  0  0
 31 32  1  1  0  0  0
 31 35  1  0  0  0  0
 33 34  1  0  0  0  0
 35 36  1  6  0  0  0
M  END
>  <CHROM.1>
161.68613501,-78.86310226,73.23246031,55.38262350,-175.18643533,68.69921176
-161.32181493,-56.73812844,110.11156218,-64.70538046,63.46285283,50.72423083
113.93714834,-158.51070234,21.76715295,27.05985577,9.86369742,-1.57691600
-0.14683631,-2.17534938

>  <Name>
2f4u_lig

>  <RI>
0

>  <Rbt.Current_Directory>
/home/itssahil/PROJECTS/Mol_Feturizer/New_Systems/rnas/2f4u

>  <Rbt.Executable>
rbdock ($Id: //depot/dev/client3/rdock/2013.1/src/exe/rbdock.cxx#4 $)

>  <Rbt.Library>
libRbt.so (2013.1, Build901 2013/11/27)

>  <Rbt.Parameter_File>
/export/apps/rDock/src/rDock_2013.1_src/data/scripts/dock_solv.prm

>  <Rbt.Receptor>
prm/blind_docking_100.prm

>  <SCORE>
3.88638

>  <SCORE.INTER>
2.30368

>  <SCORE.INTER.CONST>
1

>  <SCORE.INTER.POLAR>
-0.651178

>  <SCORE.INTER.ROT>
14

>  <SCORE.INTER.SOLV>
16.7896

>  <SCORE.INTER.VDW>
-14.8235

>  <SCORE.INTER.norm>
0.063991

>  <SCORE.INTRA>
-1.24926

>  <SCORE.INTRA.DIHEDRAL>
-12.625

>  <SCORE.INTRA.DIHEDRAL.0>
26.3805

>  <SCORE.INTRA.POLAR>
0

>  <SCORE.INTRA.POLAR.0>
0

>  <SCORE.INTRA.REPUL>
0

>  <SCORE.INTRA.REPUL.0>
0

>  <SCORE.INTRA.SOLV>
7.57897

>  <SCORE.INTRA.SOLV.lig_0>
-98.5587

>  <SCORE.INTRA.VDW>
1.27376

>  <SCORE.INTRA.VDW.0>
-2.91167

>  <SCORE.INTRA.norm>
-0.0347016

>  <SCORE.RESTR>
2.83196

>  <SCORE.RESTR.CAVITY>
2.83196

>  <SCORE.RESTR.norm>
0.0786657

>  <SCORE.SYSTEM>
0

>  <SCORE.SYSTEM.CONST>
0

>  <SCORE.SYSTEM.DIHEDRAL>
0

>  <SCORE.SYSTEM.SOLV>
0

>  <SCORE.SYSTEM.norm>
0

>  <SCORE.heavy>
36

>  <SCORE.norm>
0.107955

>  <RMSD>
28.357

$$$$
2f4u_lig
 OpenBabel11021811433D
libRbt.so/2013.1/901 2013/11/27
 36 37  0  0  0  0  0  0  0  0999 V2000
   23.6628   24.7942    7.4214 C   0  0  2  0  0  0  0  0  0  0  0  0
   23.6598   26.2684    7.3540 O   0  0  0  0  0  0  0  0  0  0  0  0
   21.2261   27.3704   10.7829 C   0  0  2  0  0  0  0  0  0  0  0  0
   20.5321   28.2238   11.7854 N   0  0  0  0  0  0  0  0  0  0  0  0
   24.2495   24.2849    6.0685 C   0  0  2  0  0  0  0  0  0  0  0  0
   25.6102   24.7920    5.8125 N   0  0  0  0  0  0  0  0  0  0  0  0
   22.7764   27.6150   10.7849 C   0  0  0  0  0  0  0  0  0  0  0  0
   20.4955   29.9307   11.2635 C   0  0  0  0  0  0  0  0  0  0  0  0
   19.9095   30.1837   12.6171 C   0  0  1  0  0  0  0  0  0  0  0  0
   21.0791   30.3345   13.5962 C   0  0  0  0  0  0  0  0  0  0  0  0
   22.4238   29.7458   13.1311 C   0  0  0  0  0  0  0  0  0  0  0  0
   23.3656   29.7937   14.2512 N   0  0  0  0  0  0  0  0  0  0  0  0
   19.1951   31.3895   12.6199 O   0  0  0  0  0  0  0  0  0  0  0  0
   17.9251   27.5053    9.9395 C   0  0  0  0  0  0  0  0  0  0  0  0
   17.8057   26.5083   11.0825 C   0  0  0  0  0  0  0  0  0  0  0  0
   23.2900   24.7133    4.9090 C   0  0  1  0  0  0  0  0  0  0  0  0
   18.9606   25.5971   11.2129 N   0  0  0  0  0  0  0  0  0  0  0  0
   23.7884   24.2800    3.6460 O   0  0  0  0  0  0  0  0  0  0  0  0
   23.4792   26.7671    9.7053 C   0  0  2  0  0  0  0  0  0  0  0  0
   24.9128   27.0283    9.6770 N   0  0  0  0  0  0  0  0  0  0  0  0
   19.9821   24.2554   13.0449 C   0  0  0  0  0  0  0  0  0  0  0  0
   20.5994   25.6387   13.4105 C   0  0  0  0  0  0  0  0  0  0  0  0
   18.8276   24.3526   12.0137 C   0  0  0  0  0  0  0  0  0  0  0  0
   21.4547   25.5614   14.6328 N   0  0  0  0  0  0  0  0  0  0  0  0
   20.8172   30.4863   10.3978 O   0  0  0  0  0  0  0  0  0  0  0  0
   21.8948   24.1232    5.1962 C   0  0  2  0  0  0  0  0  0  0  0  0
   20.9403   24.4669    4.1950 O   0  0  0  0  0  0  0  0  0  0  0  0
   22.9118   27.0805    8.3352 C   0  0  2  0  0  0  0  0  0  0  0  0
   21.3755   24.5860    6.5694 C   0  0  2  0  0  0  0  0  0  0  0  0
   22.3151   24.2746    7.6040 O   0  0  0  0  0  0  0  0  0  0  0  0
   21.3564   26.7888    8.3188 C   0  0  2  0  0  0  0  0  0  0  0  0
   20.8335   27.1166    6.9932 O   0  0  0  0  0  0  0  0  0  0  0  0
   20.0507   23.9568    6.9085 C   0  0  0  0  0  0  0  0  0  0  0  0
   19.7816   24.0943    8.2516 O   0  0  0  0  0  0  0  0  0  0  0  0
   20.6645   27.6761    9.4084 C   0  0  1  0  0  0  0  0  0  0  0  0
   19.2817   27.4742    9.4482 O   0  0  0  0  0  0  0  0  0  0  0  0
  1  2  1  6  0  0  0
  1  5  1  0  0  0  0
  1 30  1  0  0  0  0
  3  4  1  1  0  0  0
  3  7  1  0  0  0  0
  3 35  1  0  0  0  0
  5  6  1  6  0  0  0
  5 16  1  0  0  0  0
  7 19  1  0  0  0  0
  8  4  1  0  0  0  0
  8 25  2  0  0  0  0
  9  8  1  6  0  0  0
  9 10  1  0  0  0  0
  9 13  1  0  0  0  0
 10 11  1  0  0  0  0
 11 12  1  0  0  0  0
 14 15  1  0  0  0  0
 14 36  1  0  0  0  0
 15 17  1  0  0  0  0
 16 18  1  6  0  0  0
 16 26  1  0  0  0  0
 17 23  1  0  0  0  0
 19 20  1  6  0  0  0
 19 28  1  0  0  0  0
 21 22  1  0  0  0  0
 21 23  1  0  0  0  0
 22 24  1  0  0  0  0
 26 27  1  6  0  0  0
 26 29  1  0  0  0  0
 28  2  1  6  0  0  0
 28 31  1  0  0  0  0
 29 30  1  0  0  0  0
 29 33  1  1  0  0  0
 31 32  1  6  0  0  0
 31 35  1  0  0  0  0
 33 34  1  0  0  0  0
 35 36  1  1  0  0  0
M  END
>  <CHROM.1>
166.81089764,72.39524666,85.15459319,-19.87347320,-171.56362109,-11.83909140
-72.22240212,-163.00109702,-128.60763686,165.73715930,23.89242253,60.37989924
164.05690139,42.03072400,21.40704779,26.63702798,9.47528461,-1.25924981,0.50313380
0.88365425

>  <Name>
2f4u_lig

>  <RI>
0

>  <Rbt.Current_Directory>
/home/itssahil/PROJECTS/Mol_Feturizer/New_Systems/rnas/2f4u

>  <Rbt.Executable>
rbdock ($Id: //depot/dev/client3/rdock/2013.1/src/exe/rbdock.cxx#4 $)

>  <Rbt.Library>
libRbt.so (2013.1, Build901 2013/11/27)

>  <Rbt.Parameter_File>
/export/apps/rDock/src/rDock_2013.1_src/data/scripts/dock_solv.prm

>  <Rbt.Receptor>
prm/blind_docking_60.prm

>  <SCORE>
7.26063

>  <SCORE.INTER>
1.78721

>  <SCORE.INTER.CONST>
1

>  <SCORE.INTER.POLAR>
-0.983823

>  <SCORE.INTER.ROT>
14

>  <SCORE.INTER.SOLV>
21.0534

>  <SCORE.INTER.VDW>
-15.4802

>  <SCORE.INTER.norm>
0.0496448

>  <SCORE.INTRA>
2.63403

>  <SCORE.INTRA.DIHEDRAL>
-5.99456

>  <SCORE.INTRA.DIHEDRAL.0>
26.3805

>  <SCORE.INTRA.POLAR>
0

>  <SCORE.INTRA.POLAR.0>
0

>  <SCORE.INTRA.REPUL>
0

>  <SCORE.INTRA.REPUL.0>
0

>  <SCORE.INTRA.SOLV>
6.55903

>  <SCORE.INTRA.SOLV.lig_0>
-98.5587

>  <SCORE.INTRA.VDW>
2.3518

>  <SCORE.INTRA.VDW.0>
-2.91167

>  <SCORE.INTRA.norm>
0.0731675

>  <SCORE.RESTR>
2.83938

>  <SCORE.RESTR.CAVITY>
2.83938

>  <SCORE.RESTR.norm>
0.0788718

>  <SCORE.SYSTEM>
0

>  <SCORE.SYSTEM.CONST>
0

>  <SCORE.SYSTEM.DIHEDRAL>
0

>  <SCORE.SYSTEM.SOLV>
0

>  <SCORE.SYSTEM.norm>
0

>  <SCORE.heavy>
36

>  <SCORE.norm>
0.201684

>  <RMSD>
28.363

$$$$
2f4u_lig
 OpenBabel11021811433D
libRbt.so/2013.1/901 2013/11/27
 36 37  0  0  0  0  0  0  0  0999 V2000
   20.2238   28.3184   13.5101 C   0  0  2  0  0  0  0  0  0  0  0  0
   20.0432   29.0770   12.2571 O   0  0  0  0  0  0  0  0  0  0  0  0
   20.4816   26.0388    9.1794 C   0  0  2  0  0  0  0  0  0  0  0  0
   20.3650   25.3632    7.8586 N   0  0  0  0  0  0  0  0  0  0  0  0
   21.4532   28.9437   14.2392 C   0  0  2  0  0  0  0  0  0  0  0  0
   21.2739   30.3788   14.5267 N   0  0  0  0  0  0  0  0  0  0  0  0
   19.0739   26.3675    9.7906 C   0  0  0  0  0  0  0  0  0  0  0  0
   20.2743   26.5541    6.5316 C   0  0  0  0  0  0  0  0  0  0  0  0
   20.0260   25.3585    5.6664 C   0  0  1  0  0  0  0  0  0  0  0  0
   21.3024   24.5102    5.6885 C   0  0  0  0  0  0  0  0  0  0  0  0
   22.4990   25.0776    4.9027 C   0  0  0  0  0  0  0  0  0  0  0  0
   23.5693   24.0784    4.8981 N   0  0  0  0  0  0  0  0  0  0  0  0
   18.9894   24.5799    6.1989 O   0  0  0  0  0  0  0  0  0  0  0  0
   23.4729   26.5930    7.4417 C   0  0  0  0  0  0  0  0  0  0  0  0
   24.8558   26.6261    8.0752 C   0  0  0  0  0  0  0  0  0  0  0  0
   22.7271   28.7282   13.3563 C   0  0  1  0  0  0  0  0  0  0  0  0
   25.9645   26.4476    7.1160 N   0  0  0  0  0  0  0  0  0  0  0  0
   23.8800   29.2931   13.9751 O   0  0  0  0  0  0  0  0  0  0  0  0
   19.2060   27.1165   11.1323 C   0  0  2  0  0  0  0  0  0  0  0  0
   17.8989   27.4615   11.6770 N   0  0  0  0  0  0  0  0  0  0  0  0
   26.4073   25.8406    4.7421 C   0  0  0  0  0  0  0  0  0  0  0  0
   27.8986   25.4850    4.4634 C   0  0  0  0  0  0  0  0  0  0  0  0
   25.9065   25.3436    6.1234 C   0  0  0  0  0  0  0  0  0  0  0  0
   28.8097   26.0511    5.5029 N   0  0  0  0  0  0  0  0  0  0  0  0
   20.3161   27.6276    6.4459 O   0  0  0  0  0  0  0  0  0  0  0  0
   22.8990   27.2142   13.1212 C   0  0  2  0  0  0  0  0  0  0  0  0
   24.0348   26.9128   12.3144 O   0  0  0  0  0  0  0  0  0  0  0  0
   19.9968   28.3962   10.9471 C   0  0  2  0  0  0  0  0  0  0  0  0
   21.6413   26.6142   12.4674 C   0  0  2  0  0  0  0  0  0  0  0  0
   20.4721   26.9097   13.2393 O   0  0  0  0  0  0  0  0  0  0  0  0
   21.4339   28.0612   10.3753 C   0  0  2  0  0  0  0  0  0  0  0  0
   22.1665   29.3130   10.1899 O   0  0  0  0  0  0  0  0  0  0  0  0
   21.7528   25.1219   12.3032 C   0  0  0  0  0  0  0  0  0  0  0  0
   21.5389   24.4875   13.5061 O   0  0  0  0  0  0  0  0  0  0  0  0
   21.2723   27.3204    9.0048 C   0  0  1  0  0  0  0  0  0  0  0  0
   22.5072   26.9960    8.4355 O   0  0  0  0  0  0  0  0  0  0  0  0
  1  2  1  6  0  0  0
  1  5  1  0  0  0  0
  1 30  1  0  0  0  0
  3  4  1  6  0  0  0
  3  7  1  0  0  0  0
  3 35  1  0  0  0  0
  5  6  1  6  0  0  0
  5 16  1  0  0  0  0
  7 19  1  0  0  0  0
  8  4  1  0  0  0  0
  8 25  2  0  0  0  0
  9  8  1  1  0  0  0
  9 10  1  0  0  0  0
  9 13  1  0  0  0  0
 10 11  1  0  0  0  0
 11 12  1  0  0  0  0
 14 15  1  0  0  0  0
 14 36  1  0  0  0  0
 15 17  1  0  0  0  0
 16 18  1  1  0  0  0
 16 26  1  0  0  0  0
 17 23  1  0  0  0  0
 19 20  1  6  0  0  0
 19 28  1  0  0  0  0
 21 22  1  0  0  0  0
 21 23  1  0  0  0  0
 22 24  1  0  0  0  0
 26 27  1  6  0  0  0
 26 29  1  0  0  0  0
 28  2  1  1  0  0  0
 28 31  1  0  0  0  0
 29 30  1  0  0  0  0
 29 33  1  1  0  0  0
 31 32  1  6  0  0  0
 31 35  1  0  0  0  0
 33 34  1  0  0  0  0
 35 36  1  1  0  0  0
M  END
>  <CHROM.1>
125.45602003,88.04927631,-65.51062797,-72.60282682,-173.44234509,-170.62658003
178.08726442,-47.85030931,138.56371962,-58.23712705,97.70683188,39.61240483
77.05085230,72.66351186,22.13952944,26.79671094,9.49626819,-1.99512687,-0.08468502
-1.93190644

>  <Name>
2f4u_lig

>  <RI>
0

>  <Rbt.Current_Directory>
/home/itssahil/PROJECTS/Mol_Feturizer/New_Systems/rnas/2f4u

>  <Rbt.Executable>
rbdock ($Id: //depot/dev/client3/rdock/2013.1/src/exe/rbdock.cxx#4 $)

>  <Rbt.Library>
libRbt.so (2013.1, Build901 2013/11/27)

>  <Rbt.Parameter_File>
/export/apps/rDock/src/rDock_2013.1_src/data/scripts/dock_solv.prm

>  <Rbt.Receptor>
prm/blind_docking_40.prm

>  <SCORE>
16.1425

>  <SCORE.INTER>
-2.89702

>  <SCORE.INTER.CONST>
1

>  <SCORE.INTER.POLAR>
-1.03923

>  <SCORE.INTER.ROT>
14

>  <SCORE.INTER.SOLV>
11.2895

>  <SCORE.INTER.VDW>
-15.1637

>  <SCORE.INTER.norm>
-0.0804727

>  <SCORE.INTRA>
13.6143

>  <SCORE.INTRA.DIHEDRAL>
-8.38108

>  <SCORE.INTRA.DIHEDRAL.0>
26.3805

>  <SCORE.INTRA.POLAR>
0

>  <SCORE.INTRA.POLAR.0>
0

>  <SCORE.INTRA.REPUL>
0

>  <SCORE.INTRA.REPUL.0>
0

>  <SCORE.INTRA.SOLV>
9.35565

>  <SCORE.INTRA.SOLV.lig_0>
-98.5587

>  <SCORE.INTRA.VDW>
13.127

>  <SCORE.INTRA.VDW.0>
-2.91167

>  <SCORE.INTRA.norm>
0.378176

>  <SCORE.RESTR>
5.42517

>  <SCORE.RESTR.CAVITY>
5.42517

>  <SCORE.RESTR.norm>
0.150699

>  <SCORE.SYSTEM>
0

>  <SCORE.SYSTEM.CONST>
0

>  <SCORE.SYSTEM.DIHEDRAL>
0

>  <SCORE.SYSTEM.SOLV>
0

>  <SCORE.SYSTEM.norm>
0

>  <SCORE.heavy>
36

>  <SCORE.norm>
0.448402

>  <RMSD>
28.383

$$$$
2f4u_lig
 OpenBabel11021811433D
libRbt.so/2013.1/901 2013/11/27
 36 37  0  0  0  0  0  0  0  0999 V2000
   21.1484   23.6284   11.7394 C   0  0  2  0  0  0  0  0  0  0  0  0
   22.2125   24.0372   12.6767 O   0  0  0  0  0  0  0  0  0  0  0  0
   21.6107   28.2964   13.3030 C   0  0  2  0  0  0  0  0  0  0  0  0
   21.5635   29.6121   13.9969 N   0  0  0  0  0  0  0  0  0  0  0  0
   21.6930   22.3957   10.9533 C   0  0  2  0  0  0  0  0  0  0  0  0
   22.0595   21.2744   11.8379 N   0  0  0  0  0  0  0  0  0  0  0  0
   20.6746   27.2419   13.9920 C   0  0  0  0  0  0  0  0  0  0  0  0
   22.0748   29.4606   15.7007 C   0  0  0  0  0  0  0  0  0  0  0  0
   21.6675   30.8971   15.8020 C   0  0  1  0  0  0  0  0  0  0  0  0
   22.2172   31.4314   17.1293 C   0  0  0  0  0  0  0  0  0  0  0  0
   21.7967   30.6550   18.3910 C   0  0  0  0  0  0  0  0  0  0  0  0
   22.3258   31.3521   19.5649 N   0  0  0  0  0  0  0  0  0  0  0  0
   22.2526   31.6423   14.7693 O   0  0  0  0  0  0  0  0  0  0  0  0
   24.8265   29.3505   11.8314 C   0  0  0  0  0  0  0  0  0  0  0  0
   24.4443   29.0094   10.3989 C   0  0  0  0  0  0  0  0  0  0  0  0
   22.9335   22.8423   10.1105 C   0  0  1  0  0  0  0  0  0  0  0  0
   25.2483   27.9246    9.8007 N   0  0  0  0  0  0  0  0  0  0  0  0
   23.4768   21.7460    9.3795 O   0  0  0  0  0  0  0  0  0  0  0  0
   20.7729   25.8674   13.2993 C   0  0  2  0  0  0  0  0  0  0  0  0
   19.9380   24.8770   13.9673 N   0  0  0  0  0  0  0  0  0  0  0  0
   25.8959   26.9844    7.5879 C   0  0  0  0  0  0  0  0  0  0  0  0
   25.4247   26.3350    6.2520 C   0  0  0  0  0  0  0  0  0  0  0  0
   24.7422   27.2120    8.5992 C   0  0  0  0  0  0  0  0  0  0  0  0
   26.4483   26.4753    5.1732 N   0  0  0  0  0  0  0  0  0  0  0  0
   22.4371   28.6694   16.3364 O   0  0  0  0  0  0  0  0  0  0  0  0
   22.4916   23.9819    9.1707 C   0  0  2  0  0  0  0  0  0  0  0  0
   23.5601   24.4672    8.3617 O   0  0  0  0  0  0  0  0  0  0  0  0
   22.2045   25.3700   13.3135 C   0  0  2  0  0  0  0  0  0  0  0  0
   21.8924   25.1521    9.9714 C   0  0  2  0  0  0  0  0  0  0  0  0
   20.8242   24.7033   10.8126 O   0  0  0  0  0  0  0  0  0  0  0  0
   23.1418   26.4108   12.5769 C   0  0  2  0  0  0  0  0  0  0  0  0
   24.5167   25.9148   12.6217 O   0  0  0  0  0  0  0  0  0  0  0  0
   21.3780   26.2425    9.0700 C   0  0  0  0  0  0  0  0  0  0  0  0
   21.0189   27.3480    9.8075 O   0  0  0  0  0  0  0  0  0  0  0  0
   23.0398   27.7905   13.3112 C   0  0  1  0  0  0  0  0  0  0  0  0
   23.8492   28.7623   12.7156 O   0  0  0  0  0  0  0  0  0  0  0  0
  1  2  1  1  0  0  0
  1  5  1  0  0  0  0
  1 30  1  0  0  0  0
  3  4  1  1  0  0  0
  3  7  1  0  0  0  0
  3 35  1  0  0  0  0
  5  6  1  1  0  0  0
  5 16  1  0  0  0  0
  7 19  1  0  0  0  0
  8  4  1  0  0  0  0
  8 25  2  0  0  0  0
  9  8  1  6  0  0  0
  9 10  1  0  0  0  0
  9 13  1  0  0  0  0
 10 11  1  0  0  0  0
 11 12  1  0  0  0  0
 14 15  1  0  0  0  0
 14 36  1  0  0  0  0
 15 17  1  0  0  0  0
 16 18  1  6  0  0  0
 16 26  1  0  0  0  0
 17 23  1  0  0  0  0
 19 20  1  1  0  0  0
 19 28  1  0  0  0  0
 21 22  1  0  0  0  0
 21 23  1  0  0  0  0
 22 24  1  0  0  0  0
 26 27  1  1  0  0  0
 26 29  1  0  0  0  0
 28  2  1  6  0  0  0
 28 31  1  0  0  0  0
 29 30  1  0  0  0  0
 29 33  1  6  0  0  0
 31 32  1  1  0  0  0
 31 35  1  0  0  0  0
 33 34  1  0  0  0  0
 35 36  1  6  0  0  0
M  END
>  <CHROM.1>
163.05292586,59.56228769,-167.25104856,-55.82866091,-175.95726910,-102.56620986
54.05715061,161.51481053,138.01661771,164.04430414,-175.72995099,23.03508575
-171.74754722,-128.44594165,22.73247368,26.81383084,12.04420406,1.27087264
-0.98056381,-2.44968792

>  <Name>
2f4u_lig

>  <RI>
0

>  <Rbt.Current_Directory>
/home/itssahil/PROJECTS/Mol_Feturizer/New_Systems/rnas/2f4u

>  <Rbt.Executable>
rbdock ($Id: //depot/dev/client3/rdock/2013.1/src/exe/rbdock.cxx#4 $)

>  <Rbt.Library>
libRbt.so (2013.1, Build901 2013/11/27)

>  <Rbt.Parameter_File>
/export/apps/rDock/src/rDock_2013.1_src/data/scripts/dock_solv.prm

>  <Rbt.Receptor>
prm/blind_docking_100.prm

>  <SCORE>
4.20329

>  <SCORE.INTER>
-0.357782

>  <SCORE.INTER.CONST>
1

>  <SCORE.INTER.POLAR>
-0.883064

>  <SCORE.INTER.ROT>
14

>  <SCORE.INTER.SOLV>
21.126

>  <SCORE.INTER.VDW>
-17.2703

>  <SCORE.INTER.norm>
-0.00993838

>  <SCORE.INTRA>
0.337605

>  <SCORE.INTRA.DIHEDRAL>
-5.09327

>  <SCORE.INTRA.DIHEDRAL.0>
26.3805

>  <SCORE.INTRA.POLAR>
0

>  <SCORE.INTRA.POLAR.0>
0

>  <SCORE.INTRA.REPUL>
0

>  <SCORE.INTRA.REPUL.0>
0

>  <SCORE.INTRA.SOLV>
3.7379

>  <SCORE.INTRA.SOLV.lig_0>
-98.5587

>  <SCORE.INTRA.VDW>
1.01529

>  <SCORE.INTRA.VDW.0>
-2.91167

>  <SCORE.INTRA.norm>
0.00937792

>  <SCORE.RESTR>
4.22347

>  <SCORE.RESTR.CAVITY>
4.22347

>  <SCORE.RESTR.norm>
0.117319

>  <SCORE.SYSTEM>
0

>  <SCORE.SYSTEM.CONST>
0

>  <SCORE.SYSTEM.DIHEDRAL>
0

>  <SCORE.SYSTEM.SOLV>
0

>  <SCORE.SYSTEM.norm>
0

>  <SCORE.heavy>
36

>  <SCORE.norm>
0.116758

>  <RMSD>
28.425

$$$$
2f4u_lig
 OpenBabel11021811433D
libRbt.so/2013.1/901 2013/11/27
 36 37  0  0  0  0  0  0  0  0999 V2000
   24.5772   28.4459   10.7401 C   0  0  2  0  0  0  0  0  0  0  0  0
   24.1931   27.2221   10.0103 O   0  0  0  0  0  0  0  0  0  0  0  0
   20.8427   24.4771    9.6428 C   0  0  2  0  0  0  0  0  0  0  0  0
   19.5052   23.8680    9.8774 N   0  0  0  0  0  0  0  0  0  0  0  0
   24.6028   28.0748   12.2552 C   0  0  2  0  0  0  0  0  0  0  0  0
   25.5424   26.9790   12.5561 N   0  0  0  0  0  0  0  0  0  0  0  0
   21.6939   24.5356   10.9601 C   0  0  0  0  0  0  0  0  0  0  0  0
   18.3162   25.0997   10.3838 C   0  0  0  0  0  0  0  0  0  0  0  0
   17.4039   23.9306   10.5851 C   0  0  1  0  0  0  0  0  0  0  0  0
   17.1591   23.8011   12.0927 C   0  0  0  0  0  0  0  0  0  0  0  0
   18.4036   23.5112   12.9521 C   0  0  0  0  0  0  0  0  0  0  0  0
   19.2588   24.6997   12.9494 N   0  0  0  0  0  0  0  0  0  0  0  0
   16.1658   24.1689    9.9729 O   0  0  0  0  0  0  0  0  0  0  0  0
   19.2891   26.1620    6.6732 C   0  0  0  0  0  0  0  0  0  0  0  0
   19.5420   25.0340    5.6841 C   0  0  0  0  0  0  0  0  0  0  0  0
   23.1563   27.6797   12.7026 C   0  0  1  0  0  0  0  0  0  0  0  0
   20.9115   24.4835    5.7324 N   0  0  0  0  0  0  0  0  0  0  0  0
   23.1275   27.3202   14.0815 O   0  0  0  0  0  0  0  0  0  0  0  0
   23.0555   25.2183   10.7180 C   0  0  2  0  0  0  0  0  0  0  0  0
   23.8269   25.3131   11.9510 N   0  0  0  0  0  0  0  0  0  0  0  0
   23.0791   24.3007    4.5208 C   0  0  0  0  0  0  0  0  0  0  0  0
   23.4122   25.7842    4.8623 C   0  0  0  0  0  0  0  0  0  0  0  0
   21.5565   24.0078    4.4813 C   0  0  0  0  0  0  0  0  0  0  0  0
   23.2081   26.0813    6.3119 N   0  0  0  0  0  0  0  0  0  0  0  0
   18.3164   26.1677   10.5282 O   0  0  0  0  0  0  0  0  0  0  0  0
   22.2207   28.8702   12.4116 C   0  0  2  0  0  0  0  0  0  0  0  0
   20.8691   28.6042   12.7781 O   0  0  0  0  0  0  0  0  0  0  0  0
   22.8548   26.6186   10.1739 C   0  0  2  0  0  0  0  0  0  0  0  0
   22.2734   29.2581   10.9229 C   0  0  2  0  0  0  0  0  0  0  0  0
   23.6192   29.5173   10.5084 O   0  0  0  0  0  0  0  0  0  0  0  0
   22.0371   26.5566    8.8204 C   0  0  2  0  0  0  0  0  0  0  0  0
   21.8431   27.9199    8.3287 O   0  0  0  0  0  0  0  0  0  0  0  0
   21.4308   30.4707   10.6297 C   0  0  0  0  0  0  0  0  0  0  0  0
   20.1571   30.3035   11.1245 O   0  0  0  0  0  0  0  0  0  0  0  0
   20.6525   25.8787    9.0973 C   0  0  1  0  0  0  0  0  0  0  0  0
   19.8701   25.7938    7.9419 O   0  0  0  0  0  0  0  0  0  0  0  0
  1  2  1  6  0  0  0
  1  5  1  0  0  0  0
  1 30  1  0  0  0  0
  3  4  1  1  0  0  0
  3  7  1  0  0  0  0
  3 35  1  0  0  0  0
  5  6  1  6  0  0  0
  5 16  1  0  0  0  0
  7 19  1  0  0  0  0
  8  4  1  0  0  0  0
  8 25  2  0  0  0  0
  9  8  1  1  0  0  0
  9 10  1  0  0  0  0
  9 13  1  0  0  0  0
 10 11  1  0  0  0  0
 11 12  1  0  0  0  0
 14 15  1  0  0  0  0
 14 36  1  0  0  0  0
 15 17  1  0  0  0  0
 16 18  1  1  0  0  0
 16 26  1  0  0  0  0
 17 23  1  0  0  0  0
 19 20  1  1  0  0  0
 19 28  1  0  0  0  0
 21 22  1  0  0  0  0
 21 23  1  0  0  0  0
 22 24  1  0  0  0  0
 26 27  1  6  0  0  0
 26 29  1  0  0  0  0
 28  2  1  6  0  0  0
 28 31  1  0  0  0  0
 29 30  1  0  0  0  0
 29 33  1  1  0  0  0
 31 32  1  1  0  0  0
 31 35  1  0  0  0  0
 33 34  1  0  0  0  0
 35 36  1  6  0  0  0
M  END
>  <CHROM.1>
65.51427429,87.60860103,111.92308550,-62.32629192,69.25094549,-43.67130834
125.60241910,-145.62840338,145.25408374,75.10185374,-51.86385854,-119.34552726
-51.58883742,-158.85992256,21.31168970,26.31598481,9.89182249,-0.99605367
-0.54149505,-1.88446541

>  <Name>
2f4u_lig

>  <RI>
0

>  <Rbt.Current_Directory>
/home/itssahil/PROJECTS/Mol_Feturizer/New_Systems/rnas/2f4u

>  <Rbt.Executable>
rbdock ($Id: //depot/dev/client3/rdock/2013.1/src/exe/rbdock.cxx#4 $)

>  <Rbt.Library>
libRbt.so (2013.1, Build901 2013/11/27)

>  <Rbt.Parameter_File>
/export/apps/rDock/src/rDock_2013.1_src/data/scripts/dock_solv.prm

>  <Rbt.Receptor>
prm/blind_docking_60.prm

>  <SCORE>
20.4538

>  <SCORE.INTER>
3.92048

>  <SCORE.INTER.CONST>
1

>  <SCORE.INTER.POLAR>
-0.753417

>  <SCORE.INTER.ROT>
14

>  <SCORE.INTER.SOLV>
11.999

>  <SCORE.INTER.VDW>
-11.8079

>  <SCORE.INTER.norm>
0.108902

>  <SCORE.INTRA>
11.952

>  <SCORE.INTRA.DIHEDRAL>
-2.93586

>  <SCORE.INTRA.DIHEDRAL.0>
26.3805

>  <SCORE.INTRA.POLAR>
0

>  <SCORE.INTRA.POLAR.0>
0

>  <SCORE.INTRA.REPUL>
0.0732483

>  <SCORE.INTRA.REPUL.0>
0

>  <SCORE.INTRA.SOLV>
21.3577

>  <SCORE.INTRA.SOLV.lig_0>
-98.5587

>  <SCORE.INTRA.VDW>
2.37479

>  <SCORE.INTRA.VDW.0>
-2.91167

>  <SCORE.INTRA.norm>
0.331999

>  <SCORE.RESTR>
4.58136

>  <SCORE.RESTR.CAVITY>
4.58136

>  <SCORE.RESTR.norm>
0.12726

>  <SCORE.SYSTEM>
0

>  <SCORE.SYSTEM.CONST>
0

>  <SCORE.SYSTEM.DIHEDRAL>
0

>  <SCORE.SYSTEM.SOLV>
0

>  <SCORE.SYSTEM.norm>
0

>  <SCORE.heavy>
36

>  <SCORE.norm>
0.568161

>  <RMSD>
28.435

$$$$
2f4u_lig
 OpenBabel11021811433D
libRbt.so/2013.1/901 2013/11/27
 36 37  0  0  0  0  0  0  0  0999 V2000
   23.1511   25.7724    8.7738 C   0  0  2  0  0  0  0  0  0  0  0  0
   23.2312   27.2420    8.8827 O   0  0  0  0  0  0  0  0  0  0  0  0
   23.3987   28.0326   13.1538 C   0  0  2  0  0  0  0  0  0  0  0  0
   23.2985   28.7724   14.4412 N   0  0  0  0  0  0  0  0  0  0  0  0
   23.7008   25.3970    7.3628 C   0  0  2  0  0  0  0  0  0  0  0  0
   25.0866   25.8548    7.1526 N   0  0  0  0  0  0  0  0  0  0  0  0
   24.4133   28.7140   12.1692 C   0  0  0  0  0  0  0  0  0  0  0  0
   22.0269   30.0234   14.3681 C   0  0  0  0  0  0  0  0  0  0  0  0
   22.5372   30.4185   15.7184 C   0  0  1  0  0  0  0  0  0  0  0  0
   21.6278   31.5383   16.2367 C   0  0  0  0  0  0  0  0  0  0  0  0
   20.4533   31.0911   17.1265 C   0  0  0  0  0  0  0  0  0  0  0  0
   20.9924   30.5871   18.3911 N   0  0  0  0  0  0  0  0  0  0  0  0
   22.4361   29.3422   16.6104 O   0  0  0  0  0  0  0  0  0  0  0  0
   20.0368   26.6097   13.9216 C   0  0  0  0  0  0  0  0  0  0  0  0
   20.5781   25.2811   14.4282 C   0  0  0  0  0  0  0  0  0  0  0  0
   22.7608   26.0138    6.2744 C   0  0  1  0  0  0  0  0  0  0  0  0
   21.6363   24.6966   13.5799 N   0  0  0  0  0  0  0  0  0  0  0  0
   23.2271   25.7078    4.9628 O   0  0  0  0  0  0  0  0  0  0  0  0
   24.4683   27.9718   10.8184 C   0  0  2  0  0  0  0  0  0  0  0  0
   25.3766   28.6312    9.8886 N   0  0  0  0  0  0  0  0  0  0  0  0
   20.9099   23.7945   11.3758 C   0  0  0  0  0  0  0  0  0  0  0  0
   19.6240   24.6732   11.3271 C   0  0  0  0  0  0  0  0  0  0  0  0
   21.3629   23.4503   12.8187 C   0  0  0  0  0  0  0  0  0  0  0  0
   18.4924   24.0462   12.0739 N   0  0  0  0  0  0  0  0  0  0  0  0
   21.2990   30.3510   13.6441 O   0  0  0  0  0  0  0  0  0  0  0  0
   21.3361   25.4720    6.5061 C   0  0  2  0  0  0  0  0  0  0  0  0
   20.3972   25.9856    5.5646 O   0  0  0  0  0  0  0  0  0  0  0  0
   23.0920   27.9241   10.1855 C   0  0  2  0  0  0  0  0  0  0  0  0
   20.8512   25.7952    7.9308 C   0  0  2  0  0  0  0  0  0  0  0  0
   21.7772   25.3104    8.9094 O   0  0  0  0  0  0  0  0  0  0  0  0
   22.0788   27.1948   11.1580 C   0  0  2  0  0  0  0  0  0  0  0  0
   20.7579   27.1795   10.5310 O   0  0  0  0  0  0  0  0  0  0  0  0
   19.4947   25.2044    8.2085 C   0  0  0  0  0  0  0  0  0  0  0  0
   19.5146   23.8412    8.0183 O   0  0  0  0  0  0  0  0  0  0  0  0
   22.0259   27.9787   12.5129 C   0  0  1  0  0  0  0  0  0  0  0  0
   21.1428   27.3919   13.4240 O   0  0  0  0  0  0  0  0  0  0  0  0
  1  2  1  6  0  0  0
  1  5  1  0  0  0  0
  1 30  1  0  0  0  0
  3  4  1  1  0  0  0
  3  7  1  0  0  0  0
  3 35  1  0  0  0  0
  5  6  1  6  0  0  0
  5 16  1  0  0  0  0
  7 19  1  0  0  0  0
  8  4  1  0  0  0  0
  8 25  2  0  0  0  0
  9  8  1  6  0  0  0
  9 10  1  0  0  0  0
  9 13  1  0  0  0  0
 10 11  1  0  0  0  0
 11 12  1  0  0  0  0
 14 15  1  0  0  0  0
 14 36  1  0  0  0  0
 15 17  1  0  0  0  0
 16 18  1  6  0  0  0
 16 26  1  0  0  0  0
 17 23  1  0  0  0  0
 19 20  1  6  0  0  0
 19 28  1  0  0  0  0
 21 22  1  0  0  0  0
 21 23  1  0  0  0  0
 22 24  1  0  0  0  0
 26 27  1  6  0  0  0
 26 29  1  0  0  0  0
 28  2  1  6  0  0  0
 28 31  1  0  0  0  0
 29 30  1  0  0  0  0
 29 33  1  1  0  0  0
 31 32  1  6  0  0  0
 31 35  1  0  0  0  0
 33 34  1  0  0  0  0
 35 36  1  1  0  0  0
M  END
>  <CHROM.1>
-165.63060145,89.79433473,-175.98275751,93.71823972,68.22533517,-40.15348508
100.98195099,-111.76018195,94.71615570,-55.36965937,-59.23275900,86.96922018
57.22478905,-145.79018836,21.87505297,27.01912045,11.31730200,-1.53476603
0.76974392,1.08685142

>  <Name>
2f4u_lig

>  <RI>
0

>  <Rbt.Current_Directory>
/home/itssahil/PROJECTS/Mol_Feturizer/New_Systems/rnas/2f4u

>  <Rbt.Executable>
rbdock ($Id: //depot/dev/client3/rdock/2013.1/src/exe/rbdock.cxx#4 $)

>  <Rbt.Library>
libRbt.so (2013.1, Build901 2013/11/27)

>  <Rbt.Parameter_File>
/export/apps/rDock/src/rDock_2013.1_src/data/scripts/dock_solv.prm

>  <Rbt.Receptor>
prm/blind_docking_80.prm

>  <SCORE>
5.1581

>  <SCORE.INTER>
-1.20239

>  <SCORE.INTER.CONST>
1

>  <SCORE.INTER.POLAR>
-1.03923

>  <SCORE.INTER.ROT>
14

>  <SCORE.INTER.SOLV>
13.0266

>  <SCORE.INTER.VDW>
-14.613

>  <SCORE.INTER.norm>
-0.0333996

>  <SCORE.INTRA>
3.66219

>  <SCORE.INTRA.DIHEDRAL>
-4.32638

>  <SCORE.INTRA.DIHEDRAL.0>
26.3805

>  <SCORE.INTRA.POLAR>
0

>  <SCORE.INTRA.POLAR.0>
0

>  <SCORE.INTRA.REPUL>
0

>  <SCORE.INTRA.REPUL.0>
0

>  <SCORE.INTRA.SOLV>
10.3567

>  <SCORE.INTRA.SOLV.lig_0>
-98.5587

>  <SCORE.INTRA.VDW>
0.647047

>  <SCORE.INTRA.VDW.0>
-2.91167

>  <SCORE.INTRA.norm>
0.101728

>  <SCORE.RESTR>
2.69829

>  <SCORE.RESTR.CAVITY>
2.69829

>  <SCORE.RESTR.norm>
0.0749524

>  <SCORE.SYSTEM>
0

>  <SCORE.SYSTEM.CONST>
0

>  <SCORE.SYSTEM.DIHEDRAL>
0

>  <SCORE.SYSTEM.SOLV>
0

>  <SCORE.SYSTEM.norm>
0

>  <SCORE.heavy>
36

>  <SCORE.norm>
0.14328

>  <RMSD>
28.530

$$$$
2f4u_lig
 OpenBabel11021811433D
libRbt.so/2013.1/901 2013/11/27
 36 37  0  0  0  0  0  0  0  0999 V2000
   21.5668   29.5021   14.0781 C   0  0  2  0  0  0  0  0  0  0  0  0
   20.4978   28.5861   14.5210 O   0  0  0  0  0  0  0  0  0  0  0  0
   21.0863   25.0889   12.0073 C   0  0  2  0  0  0  0  0  0  0  0  0
   21.0099   23.6788   11.5377 N   0  0  0  0  0  0  0  0  0  0  0  0
   20.8613   30.7402   13.4430 C   0  0  2  0  0  0  0  0  0  0  0  0
   19.9549   31.4227   14.3846 N   0  0  0  0  0  0  0  0  0  0  0  0
   21.7820   25.1976   13.4099 C   0  0  0  0  0  0  0  0  0  0  0  0
   22.2293   22.6612   12.3531 C   0  0  0  0  0  0  0  0  0  0  0  0
   21.7650   21.5970   11.4089 C   0  0  1  0  0  0  0  0  0  0  0  0
   22.5795   21.7485   10.1193 C   0  0  0  0  0  0  0  0  0  0  0  0
   22.5861   23.1545    9.4911 C   0  0  0  0  0  0  0  0  0  0  0  0
   23.9137   23.4065    8.9274 N   0  0  0  0  0  0  0  0  0  0  0  0
   22.0367   20.3271   11.9361 O   0  0  0  0  0  0  0  0  0  0  0  0
   18.2740   25.8333    9.6823 C   0  0  0  0  0  0  0  0  0  0  0  0
   18.7792   27.1382    9.0852 C   0  0  0  0  0  0  0  0  0  0  0  0
   20.0687   30.2749   12.1765 C   0  0  1  0  0  0  0  0  0  0  0  0
   19.6865   26.9644    7.9329 N   0  0  0  0  0  0  0  0  0  0  0  0
   19.3947   31.3710   11.5635 O   0  0  0  0  0  0  0  0  0  0  0  0
   21.8065   26.6556   13.9122 C   0  0  2  0  0  0  0  0  0  0  0  0
   22.4118   26.7498   15.2347 N   0  0  0  0  0  0  0  0  0  0  0  0
   21.8746   26.3579    6.9111 C   0  0  0  0  0  0  0  0  0  0  0  0
   21.6797   24.8186    6.7664 C   0  0  0  0  0  0  0  0  0  0  0  0
   21.1562   26.9528    8.1503 C   0  0  0  0  0  0  0  0  0  0  0  0
   20.2397   24.4297    6.8465 N   0  0  0  0  0  0  0  0  0  0  0  0
   22.9765   22.8040   13.1164 O   0  0  0  0  0  0  0  0  0  0  0  0
   21.0632   29.6103   11.2038 C   0  0  2  0  0  0  0  0  0  0  0  0
   20.4326   29.1413   10.0146 O   0  0  0  0  0  0  0  0  0  0  0  0
   20.3982   27.2100   13.9933 C   0  0  2  0  0  0  0  0  0  0  0  0
   21.7953   28.4389   11.8831 C   0  0  2  0  0  0  0  0  0  0  0  0
   22.4297   28.8645   13.0941 O   0  0  0  0  0  0  0  0  0  0  0  0
   19.7126   27.1444   12.5684 C   0  0  2  0  0  0  0  0  0  0  0  0
   18.3518   27.6677   12.6801 O   0  0  0  0  0  0  0  0  0  0  0  0
   22.8314   27.8260   10.9792 C   0  0  0  0  0  0  0  0  0  0  0  0
   23.6031   26.9222   11.6740 O   0  0  0  0  0  0  0  0  0  0  0  0
   19.6817   25.6531   12.0908 C   0  0  1  0  0  0  0  0  0  0  0  0
   19.0824   25.5171   10.8352 O   0  0  0  0  0  0  0  0  0  0  0  0
  1  2  1  6  0  0  0
  1  5  1  0  0  0  0
  1 30  1  0  0  0  0
  3  4  1  1  0  0  0
  3  7  1  0  0  0  0
  3 35  1  0  0  0  0
  5  6  1  1  0  0  0
  5 16  1  0  0  0  0
  7 19  1  0  0  0  0
  8  4  1  0  0  0  0
  8 25  2  0  0  0  0
  9  8  1  1  0  0  0
  9 10  1  0  0  0  0
  9 13  1  0  0  0  0
 10 11  1  0  0  0  0
 11 12  1  0  0  0  0
 14 15  1  0  0  0  0
 14 36  1  0  0  0  0
 15 17  1  0  0  0  0
 16 18  1  6  0  0  0
 16 26  1  0  0  0  0
 17 23  1  0  0  0  0
 19 20  1  1  0  0  0
 19 28  1  0  0  0  0
 21 22  1  0  0  0  0
 21 23  1  0  0  0  0
 22 24  1  0  0  0  0
 26 27  1  6  0  0  0
 26 29  1  0  0  0  0
 28  2  1  6  0  0  0
 28 31  1  0  0  0  0
 29 30  1  0  0  0  0
 29 33  1  6  0  0  0
 31 32  1  1  0  0  0
 31 35  1  0  0  0  0
 33 34  1  0  0  0  0
 35 36  1  6  0  0  0
M  END
>  <CHROM.1>
120.39720811,-21.65800842,87.00716685,-52.61678959,143.29435864,98.25441674
59.58024148,-94.48339850,163.58900952,50.96471371,-72.05983744,40.89840398
170.96320603,-142.56916394,21.09578899,26.43513094,11.38571647,-2.18058504
1.22093135,-2.15051138

>  <Name>
2f4u_lig

>  <RI>
0

>  <Rbt.Current_Directory>
/home/itssahil/PROJECTS/Mol_Feturizer/New_Systems/rnas/2f4u

>  <Rbt.Executable>
rbdock ($Id: //depot/dev/client3/rdock/2013.1/src/exe/rbdock.cxx#4 $)

>  <Rbt.Library>
libRbt.so (2013.1, Build901 2013/11/27)

>  <Rbt.Parameter_File>
/export/apps/rDock/src/rDock_2013.1_src/data/scripts/dock_solv.prm

>  <Rbt.Receptor>
prm/blind_docking_60.prm

>  <SCORE>
40.8096

>  <SCORE.INTER>
16.8418

>  <SCORE.INTER.CONST>
1

>  <SCORE.INTER.POLAR>
0

>  <SCORE.INTER.ROT>
14

>  <SCORE.INTER.SOLV>
19.9179

>  <SCORE.INTER.VDW>
-8.3448

>  <SCORE.INTER.norm>
0.467827

>  <SCORE.INTRA>
17.8921

>  <SCORE.INTRA.DIHEDRAL>
-0.215682

>  <SCORE.INTRA.DIHEDRAL.0>
26.3805

>  <SCORE.INTRA.POLAR>
0

>  <SCORE.INTRA.POLAR.0>
0

>  <SCORE.INTRA.REPUL>
0.040397

>  <SCORE.INTRA.REPUL.0>
0

>  <SCORE.INTRA.SOLV>
12.2688

>  <SCORE.INTRA.SOLV.lig_0>
-98.5587

>  <SCORE.INTRA.VDW>
11.6636

>  <SCORE.INTRA.VDW.0>
-2.91167

>  <SCORE.INTRA.norm>
0.497003

>  <SCORE.RESTR>
6.07569

>  <SCORE.RESTR.CAVITY>
6.07569

>  <SCORE.RESTR.norm>
0.168769

>  <SCORE.SYSTEM>
0

>  <SCORE.SYSTEM.CONST>
0

>  <SCORE.SYSTEM.DIHEDRAL>
0

>  <SCORE.SYSTEM.SOLV>
0

>  <SCORE.SYSTEM.norm>
0

>  <SCORE.heavy>
36

>  <SCORE.norm>
1.1336

>  <RMSD>
28.534

$$$$
2f4u_lig
 OpenBabel11021811433D
libRbt.so/2013.1/901 2013/11/27
 36 37  0  0  0  0  0  0  0  0999 V2000
   19.9552   25.4280    7.0030 C   0  0  2  0  0  0  0  0  0  0  0  0
   19.1367   26.1973    7.9602 O   0  0  0  0  0  0  0  0  0  0  0  0
   21.9312   27.2380   11.1229 C   0  0  2  0  0  0  0  0  0  0  0  0
   22.5468   27.9906   12.2496 N   0  0  0  0  0  0  0  0  0  0  0  0
   19.3024   24.0156    6.8890 C   0  0  2  0  0  0  0  0  0  0  0  0
   17.8996   24.0728    6.4384 N   0  0  0  0  0  0  0  0  0  0  0  0
   21.8155   28.1195    9.8295 C   0  0  0  0  0  0  0  0  0  0  0  0
   21.7933   29.5981   12.4384 C   0  0  0  0  0  0  0  0  0  0  0  0
   22.8601   29.8202   13.4642 C   0  0  1  0  0  0  0  0  0  0  0  0
   22.5769   28.8626   14.6271 C   0  0  0  0  0  0  0  0  0  0  0  0
   21.2481   29.0867   15.3725 C   0  0  0  0  0  0  0  0  0  0  0  0
   21.0735   30.5238   15.5915 N   0  0  0  0  0  0  0  0  0  0  0  0
   24.1165   29.4896   12.9384 O   0  0  0  0  0  0  0  0  0  0  0  0
   20.9645   24.8786   13.5621 C   0  0  0  0  0  0  0  0  0  0  0  0
   20.0405   23.7387   13.1601 C   0  0  0  0  0  0  0  0  0  0  0  0
   19.3908   23.3049    8.2803 C   0  0  1  0  0  0  0  0  0  0  0  0
   18.6485   24.1542   12.8938 N   0  0  0  0  0  0  0  0  0  0  0  0
   18.7962   22.0105    8.2322 O   0  0  0  0  0  0  0  0  0  0  0  0
   21.1265   27.3484    8.6853 C   0  0  2  0  0  0  0  0  0  0  0  0
   20.9784   28.1822    7.4990 N   0  0  0  0  0  0  0  0  0  0  0  0
   16.4624   23.6117   11.8325 C   0  0  0  0  0  0  0  0  0  0  0  0
   16.8426   23.4879   10.3264 C   0  0  0  0  0  0  0  0  0  0  0  0
   17.5820   23.1251   12.7893 C   0  0  0  0  0  0  0  0  0  0  0  0
   16.2578   24.5950    9.5116 N   0  0  0  0  0  0  0  0  0  0  0  0
   20.9903   30.1408   11.9671 O   0  0  0  0  0  0  0  0  0  0  0  0
   20.8758   23.2276    8.6876 C   0  0  2  0  0  0  0  0  0  0  0  0
   21.0623   22.6005    9.9539 O   0  0  0  0  0  0  0  0  0  0  0  0
   19.7491   26.8846    9.1154 C   0  0  2  0  0  0  0  0  0  0  0  0
   21.5095   24.6300    8.7200 C   0  0  2  0  0  0  0  0  0  0  0  0
   21.3287   25.3029    7.4692 O   0  0  0  0  0  0  0  0  0  0  0  0
   19.8693   25.9569   10.3918 C   0  0  2  0  0  0  0  0  0  0  0  0
   18.5270   25.5399   10.7946 O   0  0  0  0  0  0  0  0  0  0  0  0
   22.9805   24.5730    9.0349 C   0  0  0  0  0  0  0  0  0  0  0  0
   23.5546   25.8148    8.8815 O   0  0  0  0  0  0  0  0  0  0  0  0
   20.5526   26.7688   11.5439 C   0  0  1  0  0  0  0  0  0  0  0  0
   20.6881   26.0105   12.7105 O   0  0  0  0  0  0  0  0  0  0  0  0
  1  2  1  1  0  0  0
  1  5  1  0  0  0  0
  1 30  1  0  0  0  0
  3  4  1  1  0  0  0
  3  7  1  0  0  0  0
  3 35  1  0  0  0  0
  5  6  1  1  0  0  0
  5 16  1  0  0  0  0
  7 19  1  0  0  0  0
  8  4  1  0  0  0  0
  8 25  2  0  0  0  0
  9  8  1  6  0  0  0
  9 10  1  0  0  0  0
  9 13  1  0  0  0  0
 10 11  1  0  0  0  0
 11 12  1  0  0  0  0
 14 15  1  0  0  0  0
 14 36  1  0  0  0  0
 15 17  1  0  0  0  0
 16 18  1  6  0  0  0
 16 26  1  0  0  0  0
 17 23  1  0  0  0  0
 19 20  1  6  0  0  0
 19 28  1  0  0  0  0
 21 22  1  0  0  0  0
 21 23  1  0  0  0  0
 22 24  1  0  0  0  0
 26 27  1  1  0  0  0
 26 29  1  0  0  0  0
 28  2  1  6  0  0  0
 28 31  1  0  0  0  0
 29 30  1  0  0  0  0
 29 33  1  6  0  0  0
 31 32  1  1  0  0  0
 31 35  1  0  0  0  0
 33 34  1  0  0  0  0
 35 36  1  1  0  0  0
M  END
>  <CHROM.1>
127.89356013,47.67605536,-66.69482183,-62.98537197,-43.75985772,-42.66852478
-59.64103387,-166.49322506,-150.40365007,-145.70764063,77.39819660,33.12741825
171.95779476,-79.77440756,20.42455352,25.99399132,10.61055363,-2.19089422
0.80689094,1.22268146

>  <Name>
2f4u_lig

>  <RI>
0

>  <Rbt.Current_Directory>
/home/itssahil/PROJECTS/Mol_Feturizer/New_Systems/rnas/2f4u

>  <Rbt.Executable>
rbdock ($Id: //depot/dev/client3/rdock/2013.1/src/exe/rbdock.cxx#4 $)

>  <Rbt.Library>
libRbt.so (2013.1, Build901 2013/11/27)

>  <Rbt.Parameter_File>
/export/apps/rDock/src/rDock_2013.1_src/data/scripts/dock_solv.prm

>  <Rbt.Receptor>
prm/blind_docking_80.prm

>  <SCORE>
22.1097

>  <SCORE.INTER>
4.73968

>  <SCORE.INTER.CONST>
1

>  <SCORE.INTER.POLAR>
0

>  <SCORE.INTER.ROT>
14

>  <SCORE.INTER.SOLV>
14.2664

>  <SCORE.INTER.VDW>
-14.529

>  <SCORE.INTER.norm>
0.131658

>  <SCORE.INTRA>
15.0245

>  <SCORE.INTRA.DIHEDRAL>
-6.32327

>  <SCORE.INTRA.DIHEDRAL.0>
26.3805

>  <SCORE.INTRA.POLAR>
0

>  <SCORE.INTRA.POLAR.0>
0

>  <SCORE.INTRA.REPUL>
0

>  <SCORE.INTRA.REPUL.0>
0

>  <SCORE.INTRA.SOLV>
14.7768

>  <SCORE.INTRA.SOLV.lig_0>
-98.5587

>  <SCORE.INTRA.VDW>
10.7977

>  <SCORE.INTRA.VDW.0>
-2.91167

>  <SCORE.INTRA.norm>
0.417347

>  <SCORE.RESTR>
2.34556

>  <SCORE.RESTR.CAVITY>
2.34556

>  <SCORE.RESTR.norm>
0.0651545

>  <SCORE.SYSTEM>
0

>  <SCORE.SYSTEM.CONST>
0

>  <SCORE.SYSTEM.DIHEDRAL>
0

>  <SCORE.SYSTEM.SOLV>
0

>  <SCORE.SYSTEM.norm>
0

>  <SCORE.heavy>
36

>  <SCORE.norm>
0.614159

>  <RMSD>
28.543

$$$$
2f4u_lig
 OpenBabel11021811433D
libRbt.so/2013.1/901 2013/11/27
 36 37  0  0  0  0  0  0  0  0999 V2000
   21.1129   25.3064    8.7542 C   0  0  2  0  0  0  0  0  0  0  0  0
   20.4187   26.6032    8.8747 O   0  0  0  0  0  0  0  0  0  0  0  0
   21.2152   28.1267   12.8671 C   0  0  2  0  0  0  0  0  0  0  0  0
   21.0062   28.8413   14.1557 N   0  0  0  0  0  0  0  0  0  0  0  0
   21.6961   25.2429    7.3085 C   0  0  2  0  0  0  0  0  0  0  0  0
   22.6233   26.3527    7.0207 N   0  0  0  0  0  0  0  0  0  0  0  0
   21.1156   29.0998   11.6399 C   0  0  0  0  0  0  0  0  0  0  0  0
   22.5535   29.4292   14.8247 C   0  0  0  0  0  0  0  0  0  0  0  0
   21.7290   29.8181   16.0115 C   0  0  1  0  0  0  0  0  0  0  0  0
   22.6869   29.9707   17.1984 C   0  0  0  0  0  0  0  0  0  0  0  0
   22.0244   30.1184   18.5807 C   0  0  0  0  0  0  0  0  0  0  0  0
   23.0739   30.3269   19.5802 N   0  0  0  0  0  0  0  0  0  0  0  0
   21.1205   31.0618   15.7943 O   0  0  0  0  0  0  0  0  0  0  0  0
   20.4050   24.9967   14.6356 C   0  0  0  0  0  0  0  0  0  0  0  0
   19.6887   23.8709   13.9048 C   0  0  0  0  0  0  0  0  0  0  0  0
   20.5120   25.2537    6.2856 C   0  0  1  0  0  0  0  0  0  0  0  0
   20.5848   22.9812   13.1388 N   0  0  0  0  0  0  0  0  0  0  0  0
   20.9937   25.2080    4.9450 O   0  0  0  0  0  0  0  0  0  0  0  0
   21.2784   28.3405   10.3074 C   0  0  2  0  0  0  0  0  0  0  0  0
   21.1406   29.2372    9.1667 N   0  0  0  0  0  0  0  0  0  0  0  0
   22.7291   22.3347   12.0508 C   0  0  0  0  0  0  0  0  0  0  0  0
   22.2202   21.8956   10.6450 C   0  0  0  0  0  0  0  0  0  0  0  0
   21.8996   23.4899   12.6697 C   0  0  0  0  0  0  0  0  0  0  0  0
   22.5364   22.9111    9.5961 N   0  0  0  0  0  0  0  0  0  0  0  0
   23.5859   29.4252   14.5156 O   0  0  0  0  0  0  0  0  0  0  0  0
   19.5968   24.0524    6.5964 C   0  0  2  0  0  0  0  0  0  0  0  0
   18.4760   23.9790    5.7188 O   0  0  0  0  0  0  0  0  0  0  0  0
   20.2289   27.2535   10.1872 C   0  0  2  0  0  0  0  0  0  0  0  0
   19.0968   24.1055    8.0512 C   0  0  2  0  0  0  0  0  0  0  0  0
   20.1938   24.1976    8.9669 O   0  0  0  0  0  0  0  0  0  0  0  0
   20.3596   26.2448   11.3996 C   0  0  2  0  0  0  0  0  0  0  0  0
   19.3255   25.2195   11.2679 O   0  0  0  0  0  0  0  0  0  0  0  0
   18.2679   22.8993    8.4032 C   0  0  0  0  0  0  0  0  0  0  0  0
   19.0278   21.7538    8.3283 O   0  0  0  0  0  0  0  0  0  0  0  0
   20.1701   27.0361   12.7379 C   0  0  1  0  0  0  0  0  0  0  0  0
   20.2682   26.2042   13.8572 O   0  0  0  0  0  0  0  0  0  0  0  0
  1  2  1  6  0  0  0
  1  5  1  0  0  0  0
  1 30  1  0  0  0  0
  3  4  1  1  0  0  0
  3  7  1  0  0  0  0
  3 35  1  0  0  0  0
  5  6  1  6  0  0  0
  5 16  1  0  0  0  0
  7 19  1  0  0  0  0
  8  4  1  0  0  0  0
  8 25  2  0  0  0  0
  9  8  1  6  0  0  0
  9 10  1  0  0  0  0
  9 13  1  0  0  0  0
 10 11  1  0  0  0  0
 11 12  1  0  0  0  0
 14 15  1  0  0  0  0
 14 36  1  0  0  0  0
 15 17  1  0  0  0  0
 16 18  1  6  0  0  0
 16 26  1  0  0  0  0
 17 23  1  0  0  0  0
 19 20  1  6  0  0  0
 19 28  1  0  0  0  0
 21 22  1  0  0  0  0
 21 23  1  0  0  0  0
 22 24  1  0  0  0  0
 26 27  1  6  0  0  0
 26 29  1  0  0  0  0
 28  2  1  6  0  0  0
 28 31  1  0  0  0  0
 29 30  1  0  0  0  0
 29 33  1  1  0  0  0
 31 32  1  6  0  0  0
 31 35  1  0  0  0  0
 33 34  1  0  0  0  0
 35 36  1  1  0  0  0
M  END
>  <CHROM.1>
-154.74185507,-90.67625267,159.81105613,-169.33542483,-176.88697173,100.15696256
-35.06766681,-24.67113498,172.93893787,72.21979932,74.07112967,101.05747993
63.36802020,-126.60842791,20.95135864,26.17334546,11.36434921,-2.79643433
1.38558649,2.23905870

>  <Name>
2f4u_lig

>  <RI>
0

>  <Rbt.Current_Directory>
/home/itssahil/PROJECTS/Mol_Feturizer/New_Systems/rnas/2f4u

>  <Rbt.Executable>
rbdock ($Id: //depot/dev/client3/rdock/2013.1/src/exe/rbdock.cxx#4 $)

>  <Rbt.Library>
libRbt.so (2013.1, Build901 2013/11/27)

>  <Rbt.Parameter_File>
/export/apps/rDock/src/rDock_2013.1_src/data/scripts/dock_solv.prm

>  <Rbt.Receptor>
prm/blind_docking_100.prm

>  <SCORE>
3.71763

>  <SCORE.INTER>
-2.57184

>  <SCORE.INTER.CONST>
1

>  <SCORE.INTER.POLAR>
-1.03923

>  <SCORE.INTER.ROT>
14

>  <SCORE.INTER.SOLV>
26.0486

>  <SCORE.INTER.VDW>
-19.8667

>  <SCORE.INTER.norm>
-0.07144

>  <SCORE.INTRA>
2.75287

>  <SCORE.INTRA.DIHEDRAL>
-0.0192633

>  <SCORE.INTRA.DIHEDRAL.0>
26.3805

>  <SCORE.INTRA.POLAR>
0

>  <SCORE.INTRA.POLAR.0>
0

>  <SCORE.INTRA.REPUL>
0

>  <SCORE.INTRA.REPUL.0>
0

>  <SCORE.INTRA.SOLV>
7.30577

>  <SCORE.INTRA.SOLV.lig_0>
-98.5587

>  <SCORE.INTRA.VDW>
-0.890384

>  <SCORE.INTRA.VDW.0>
-2.91167

>  <SCORE.INTRA.norm>
0.0764686

>  <SCORE.RESTR>
3.5366

>  <SCORE.RESTR.CAVITY>
3.5366

>  <SCORE.RESTR.norm>
0.0982389

>  <SCORE.SYSTEM>
0

>  <SCORE.SYSTEM.CONST>
0

>  <SCORE.SYSTEM.DIHEDRAL>
0

>  <SCORE.SYSTEM.SOLV>
0

>  <SCORE.SYSTEM.norm>
0

>  <SCORE.heavy>
36

>  <SCORE.norm>
0.103268

>  <RMSD>
28.601

$$$$
2f4u_lig
 OpenBabel11021811433D
libRbt.so/2013.1/901 2013/11/27
 36 37  0  0  0  0  0  0  0  0999 V2000
   21.8285   30.4443   12.9977 C   0  0  2  0  0  0  0  0  0  0  0  0
   22.5621   29.8903   11.8432 O   0  0  0  0  0  0  0  0  0  0  0  0
   22.8129   26.2401    9.4962 C   0  0  2  0  0  0  0  0  0  0  0  0
   22.5419   24.8465    9.0496 N   0  0  0  0  0  0  0  0  0  0  0  0
   22.1091   29.4956   14.2040 C   0  0  2  0  0  0  0  0  0  0  0  0
   23.5461   29.3799   14.5137 N   0  0  0  0  0  0  0  0  0  0  0  0
   23.3418   26.2847   10.9732 C   0  0  0  0  0  0  0  0  0  0  0  0
   21.3843   24.0344   10.1395 C   0  0  0  0  0  0  0  0  0  0  0  0
   21.6807   22.8198    9.3168 C   0  0  1  0  0  0  0  0  0  0  0  0
   22.5930   21.9167   10.1544 C   0  0  0  0  0  0  0  0  0  0  0  0
   22.0948   21.5919   11.5748 C   0  0  0  0  0  0  0  0  0  0  0  0
   22.3639   22.7439   12.4376 N   0  0  0  0  0  0  0  0  0  0  0  0
   20.5011   22.1086    9.0576 O   0  0  0  0  0  0  0  0  0  0  0  0
   20.5516   26.3873    6.8559 C   0  0  0  0  0  0  0  0  0  0  0  0
   19.0446   26.2406    7.0049 C   0  0  0  0  0  0  0  0  0  0  0  0
   21.5133   28.0842   13.8855 C   0  0  1  0  0  0  0  0  0  0  0  0
   18.6187   24.9623    7.6096 N   0  0  0  0  0  0  0  0  0  0  0  0
   21.7535   27.1741   14.9557 O   0  0  0  0  0  0  0  0  0  0  0  0
   23.5667   27.7358   11.4447 C   0  0  2  0  0  0  0  0  0  0  0  0
   24.0145   27.7786   12.8310 N   0  0  0  0  0  0  0  0  0  0  0  0
   17.4775   25.5397    9.7460 C   0  0  0  0  0  0  0  0  0  0  0  0
   17.6082   25.6572   11.2944 C   0  0  0  0  0  0  0  0  0  0  0  0
   18.6671   24.7955    9.0852 C   0  0  0  0  0  0  0  0  0  0  0  0
   17.6539   24.3171   11.9527 N   0  0  0  0  0  0  0  0  0  0  0  0
   20.8133   24.3087   11.0113 O   0  0  0  0  0  0  0  0  0  0  0  0
   20.0044   28.2490   13.6144 C   0  0  2  0  0  0  0  0  0  0  0  0
   19.3677   27.0122   13.3035 O   0  0  0  0  0  0  0  0  0  0  0  0
   22.2816   28.5319   11.3353 C   0  0  2  0  0  0  0  0  0  0  0  0
   19.7588   29.2460   12.4677 C   0  0  2  0  0  0  0  0  0  0  0  0
   20.3981   30.4995   12.7329 O   0  0  0  0  0  0  0  0  0  0  0  0
   21.7730   28.5269    9.8367 C   0  0  2  0  0  0  0  0  0  0  0  0
   20.5249   29.2853    9.7643 O   0  0  0  0  0  0  0  0  0  0  0  0
   18.2904   29.4863   12.2391 C   0  0  0  0  0  0  0  0  0  0  0  0
   18.0229   30.8362   12.2029 O   0  0  0  0  0  0  0  0  0  0  0  0
   21.5328   27.0452    9.3896 C   0  0  1  0  0  0  0  0  0  0  0  0
   21.0753   26.9631    8.0712 O   0  0  0  0  0  0  0  0  0  0  0  0
  1  2  1  6  0  0  0
  1  5  1  0  0  0  0
  1 30  1  0  0  0  0
  3  4  1  1  0  0  0
  3  7  1  0  0  0  0
  3 35  1  0  0  0  0
  5  6  1  6  0  0  0
  5 16  1  0  0  0  0
  7 19  1  0  0  0  0
  8  4  1  0  0  0  0
  8 25  2  0  0  0  0
  9  8  1  1  0  0  0
  9 10  1  0  0  0  0
  9 13  1  0  0  0  0
 10 11  1  0  0  0  0
 11 12  1  0  0  0  0
 14 15  1  0  0  0  0
 14 36  1  0  0  0  0
 15 17  1  0  0  0  0
 16 18  1  1  0  0  0
 16 26  1  0  0  0  0
 17 23  1  0  0  0  0
 19 20  1  1  0  0  0
 19 28  1  0  0  0  0
 21 22  1  0  0  0  0
 21 23  1  0  0  0  0
 22 24  1  0  0  0  0
 26 27  1  6  0  0  0
 26 29  1  0  0  0  0
 28  2  1  6  0  0  0
 28 31  1  0  0  0  0
 29 30  1  0  0  0  0
 29 33  1  1  0  0  0
 31 32  1  1  0  0  0
 31 35  1  0  0  0  0
 33 34  1  0  0  0  0
 35 36  1  6  0  0  0
M  END
>  <CHROM.1>
60.05273156,56.61341340,104.84942304,52.04806169,-78.45002038,-88.41701774
79.98178967,80.82006387,76.54919334,-60.98277396,-168.46521927,-119.98849060
129.70920451,65.57708585,20.90333793,26.69535960,11.07062641,-1.46837392
0.65933230,-2.64294863

>  <Name>
2f4u_lig

>  <RI>
0

>  <Rbt.Current_Directory>
/home/itssahil/PROJECTS/Mol_Feturizer/New_Systems/rnas/2f4u

>  <Rbt.Executable>
rbdock ($Id: //depot/dev/client3/rdock/2013.1/src/exe/rbdock.cxx#4 $)

>  <Rbt.Library>
libRbt.so (2013.1, Build901 2013/11/27)

>  <Rbt.Parameter_File>
/export/apps/rDock/src/rDock_2013.1_src/data/scripts/dock_solv.prm

>  <Rbt.Receptor>
prm/blind_docking_60.prm

>  <SCORE>
15.9469

>  <SCORE.INTER>
2.76899

>  <SCORE.INTER.CONST>
1

>  <SCORE.INTER.POLAR>
-1.03923

>  <SCORE.INTER.ROT>
14

>  <SCORE.INTER.SOLV>
18.5967

>  <SCORE.INTER.VDW>
-13.8221

>  <SCORE.INTER.norm>
0.0769164

>  <SCORE.INTRA>
7.86742

>  <SCORE.INTRA.DIHEDRAL>
-5.04353

>  <SCORE.INTRA.DIHEDRAL.0>
26.3805

>  <SCORE.INTRA.POLAR>
0

>  <SCORE.INTRA.POLAR.0>
0

>  <SCORE.INTRA.REPUL>
0.113257

>  <SCORE.INTRA.REPUL.0>
0

>  <SCORE.INTRA.SOLV>
15.9903

>  <SCORE.INTRA.SOLV.lig_0>
-98.5587

>  <SCORE.INTRA.VDW>
1.82774

>  <SCORE.INTRA.VDW.0>
-2.91167

>  <SCORE.INTRA.norm>
0.21854

>  <SCORE.RESTR>
5.31046

>  <SCORE.RESTR.CAVITY>
5.31046

>  <SCORE.RESTR.norm>
0.147513

>  <SCORE.SYSTEM>
0

>  <SCORE.SYSTEM.CONST>
0

>  <SCORE.SYSTEM.DIHEDRAL>
0

>  <SCORE.SYSTEM.SOLV>
0

>  <SCORE.SYSTEM.norm>
0

>  <SCORE.heavy>
36

>  <SCORE.norm>
0.442969

>  <RMSD>
28.704

$$$$
2f4u_lig
 OpenBabel11021811433D
libRbt.so/2013.1/901 2013/11/27
 36 37  0  0  0  0  0  0  0  0999 V2000
   22.9629   26.1548    9.2122 C   0  0  2  0  0  0  0  0  0  0  0  0
   22.7667   27.6117    9.3414 O   0  0  0  0  0  0  0  0  0  0  0  0
   23.1275   28.3631   13.6076 C   0  0  2  0  0  0  0  0  0  0  0  0
   23.0239   29.0678   14.9143 N   0  0  0  0  0  0  0  0  0  0  0  0
   23.5975   25.9109    7.8079 C   0  0  2  0  0  0  0  0  0  0  0  0
   24.8777   26.6211    7.6319 N   0  0  0  0  0  0  0  0  0  0  0  0
   23.9776   29.1806   12.5721 C   0  0  0  0  0  0  0  0  0  0  0  0
   21.8201   30.3843   14.8427 C   0  0  0  0  0  0  0  0  0  0  0  0
   22.3064   30.7115   16.2197 C   0  0  1  0  0  0  0  0  0  0  0  0
   21.6602   32.0412   16.6244 C   0  0  0  0  0  0  0  0  0  0  0  0
   22.1969   32.6820   17.9177 C   0  0  0  0  0  0  0  0  0  0  0  0
   21.4150   33.8874   18.1996 N   0  0  0  0  0  0  0  0  0  0  0  0
   21.8782   29.7366   17.1310 O   0  0  0  0  0  0  0  0  0  0  0  0
   20.6292   26.3855   14.9329 C   0  0  0  0  0  0  0  0  0  0  0  0
   20.3881   25.1131   14.1345 C   0  0  0  0  0  0  0  0  0  0  0  0
   22.5786   26.3604    6.7086 C   0  0  1  0  0  0  0  0  0  0  0  0
   21.6076   24.5365   13.5334 N   0  0  0  0  0  0  0  0  0  0  0  0
   23.1166   26.1676    5.4029 O   0  0  0  0  0  0  0  0  0  0  0  0
   24.0325   28.4686   11.2052 C   0  0  2  0  0  0  0  0  0  0  0  0
   24.7838   29.2500   10.2309 N   0  0  0  0  0  0  0  0  0  0  0  0
   22.6363   23.5935   11.4712 C   0  0  0  0  0  0  0  0  0  0  0  0
   22.3554   22.8268   10.1440 C   0  0  0  0  0  0  0  0  0  0  0  0
   21.4864   23.4710   12.5049 C   0  0  0  0  0  0  0  0  0  0  0  0
   21.9488   21.4113   10.3939 N   0  0  0  0  0  0  0  0  0  0  0  0
   21.1330   30.7706   14.1078 O   0  0  0  0  0  0  0  0  0  0  0  0
   21.2754   25.5600    6.9043 C   0  0  2  0  0  0  0  0  0  0  0  0
   20.2742   25.9058    5.9506 O   0  0  0  0  0  0  0  0  0  0  0  0
   22.6327   28.2540   10.6648 C   0  0  2  0  0  0  0  0  0  0  0  0
   20.7140   25.7643    8.3230 C   0  0  2  0  0  0  0  0  0  0  0  0
   21.6965   25.4438    9.3139 O   0  0  0  0  0  0  0  0  0  0  0  0
   21.7893   27.3893   11.6872 C   0  0  2  0  0  0  0  0  0  0  0  0
   20.4408   27.2139   11.1497 O   0  0  0  0  0  0  0  0  0  0  0  0
   19.4861   24.9278    8.5654 C   0  0  0  0  0  0  0  0  0  0  0  0
   18.9092   25.2568    9.7713 O   0  0  0  0  0  0  0  0  0  0  0  0
   21.7315   28.1430   13.0590 C   0  0  1  0  0  0  0  0  0  0  0  0
   20.9945   27.4369   14.0143 O   0  0  0  0  0  0  0  0  0  0  0  0
  1  2  1  6  0  0  0
  1  5  1  0  0  0  0
  1 30  1  0  0  0  0
  3  4  1  1  0  0  0
  3  7  1  0  0  0  0
  3 35  1  0  0  0  0
  5  6  1  1  0  0  0
  5 16  1  0  0  0  0
  7 19  1  0  0  0  0
  8  4  1  0  0  0  0
  8 25  2  0  0  0  0
  9  8  1  6  0  0  0
  9 10  1  0  0  0  0
  9 13  1  0  0  0  0
 10 11  1  0  0  0  0
 11 12  1  0  0  0  0
 14 15  1  0  0  0  0
 14 36  1  0  0  0  0
 15 17  1  0  0  0  0
 16 18  1  6  0  0  0
 16 26  1  0  0  0  0
 17 23  1  0  0  0  0
 19 20  1  6  0  0  0
 19 28  1  0  0  0  0
 21 22  1  0  0  0  0
 21 23  1  0  0  0  0
 22 24  1  0  0  0  0
 26 27  1  6  0  0  0
 26 29  1  0  0  0  0
 28  2  1  6  0  0  0
 28 31  1  0  0  0  0
 29 30  1  0  0  0  0
 29 33  1  1  0  0  0
 31 32  1  6  0  0  0
 31 35  1  0  0  0  0
 33 34  1  0  0  0  0
 35 36  1  1  0  0  0
M  END
>  <CHROM.1>
-158.61429207,78.07591433,171.84215559,-170.56183133,-176.29540403,68.82092235
-63.61391679,-167.25790138,146.74444637,-51.08824720,-162.16840665,82.51049744
-172.28292197,-56.70307194,21.97172289,27.26368349,11.65075429,-1.57537970
1.17513670,0.96124226

>  <Name>
2f4u_lig

>  <RI>
0

>  <Rbt.Current_Directory>
/home/itssahil/PROJECTS/Mol_Feturizer/New_Systems/rnas/2f4u

>  <Rbt.Executable>
rbdock ($Id: //depot/dev/client3/rdock/2013.1/src/exe/rbdock.cxx#4 $)

>  <Rbt.Library>
libRbt.so (2013.1, Build901 2013/11/27)

>  <Rbt.Parameter_File>
/export/apps/rDock/src/rDock_2013.1_src/data/scripts/dock_solv.prm

>  <Rbt.Receptor>
prm/blind_docking_80.prm

>  <SCORE>
-9.78145

>  <SCORE.INTER>
-1.45736

>  <SCORE.INTER.CONST>
1

>  <SCORE.INTER.POLAR>
-0.743644

>  <SCORE.INTER.ROT>
14

>  <SCORE.INTER.SOLV>
23.3374

>  <SCORE.INTER.VDW>
-19.2052

>  <SCORE.INTER.norm>
-0.0404823

>  <SCORE.INTRA>
-9.70917

>  <SCORE.INTRA.DIHEDRAL>
-17.7936

>  <SCORE.INTRA.DIHEDRAL.0>
26.3805

>  <SCORE.INTRA.POLAR>
0

>  <SCORE.INTRA.POLAR.0>
0

>  <SCORE.INTRA.REPUL>
0

>  <SCORE.INTRA.REPUL.0>
0

>  <SCORE.INTRA.SOLV>
4.36837

>  <SCORE.INTRA.SOLV.lig_0>
-98.5587

>  <SCORE.INTRA.VDW>
-2.99655

>  <SCORE.INTRA.VDW.0>
-2.91167

>  <SCORE.INTRA.norm>
-0.269699

>  <SCORE.RESTR>
1.38508

>  <SCORE.RESTR.CAVITY>
1.38508

>  <SCORE.RESTR.norm>
0.0384743

>  <SCORE.SYSTEM>
0

>  <SCORE.SYSTEM.CONST>
0

>  <SCORE.SYSTEM.DIHEDRAL>
0

>  <SCORE.SYSTEM.SOLV>
0

>  <SCORE.SYSTEM.norm>
0

>  <SCORE.heavy>
36

>  <SCORE.norm>
-0.271707

>  <RMSD>
28.788

$$$$
2f4u_lig
 OpenBabel11021811433D
libRbt.so/2013.1/901 2013/11/27
 36 37  0  0  0  0  0  0  0  0999 V2000
   23.0714   26.2301    9.1770 C   0  0  2  0  0  0  0  0  0  0  0  0
   23.8508   27.4810    9.2536 O   0  0  0  0  0  0  0  0  0  0  0  0
   22.9386   29.0708   13.1952 C   0  0  2  0  0  0  0  0  0  0  0  0
   22.8296   30.0422   14.3173 N   0  0  0  0  0  0  0  0  0  0  0  0
   23.7831   25.3224    8.1264 C   0  0  2  0  0  0  0  0  0  0  0  0
   25.1854   25.0353    8.4806 N   0  0  0  0  0  0  0  0  0  0  0  0
   24.4250   28.8904   12.7248 C   0  0  0  0  0  0  0  0  0  0  0  0
   21.9825   29.3211   15.7137 C   0  0  0  0  0  0  0  0  0  0  0  0
   22.0649   30.6983   16.2935 C   0  0  1  0  0  0  0  0  0  0  0  0
   21.6205   30.6010   17.7572 C   0  0  0  0  0  0  0  0  0  0  0  0
   22.6974   30.9268   18.8086 C   0  0  0  0  0  0  0  0  0  0  0  0
   23.8035   29.9805   18.6511 N   0  0  0  0  0  0  0  0  0  0  0  0
   23.3909   31.1522   16.2816 O   0  0  0  0  0  0  0  0  0  0  0  0
   19.3525   29.9057   12.4605 C   0  0  0  0  0  0  0  0  0  0  0  0
   18.7308   28.6043   11.9763 C   0  0  0  0  0  0  0  0  0  0  0  0
   23.7149   26.0204    6.7275 C   0  0  1  0  0  0  0  0  0  0  0  0
   19.1781   28.1838   10.6330 N   0  0  0  0  0  0  0  0  0  0  0  0
   24.3630   25.2338    5.7312 O   0  0  0  0  0  0  0  0  0  0  0  0
   24.5206   27.9246   11.5262 C   0  0  2  0  0  0  0  0  0  0  0  0
   25.8955   27.7927   11.0609 N   0  0  0  0  0  0  0  0  0  0  0  0
   19.4161   25.7055   10.6639 C   0  0  0  0  0  0  0  0  0  0  0  0
   19.3685   24.4330    9.7657 C   0  0  0  0  0  0  0  0  0  0  0  0
   18.6652   26.9165   10.0513 C   0  0  0  0  0  0  0  0  0  0  0  0
   17.9666   23.9896    9.5019 N   0  0  0  0  0  0  0  0  0  0  0  0
   21.5644   28.3580   15.9569 O   0  0  0  0  0  0  0  0  0  0  0  0
   22.2316   26.2582    6.3803 C   0  0  2  0  0  0  0  0  0  0  0  0
   22.0627   26.9020    5.1199 O   0  0  0  0  0  0  0  0  0  0  0  0
   23.6749   28.4279   10.3735 C   0  0  2  0  0  0  0  0  0  0  0  0
   21.5400   27.0949    7.4718 C   0  0  2  0  0  0  0  0  0  0  0  0
   21.7012   26.4904    8.7597 O   0  0  0  0  0  0  0  0  0  0  0  0
   22.1669   28.5648   10.8339 C   0  0  2  0  0  0  0  0  0  0  0  0
   21.3790   29.0685    9.7097 O   0  0  0  0  0  0  0  0  0  0  0  0
   20.0706   27.2706    7.1961 C   0  0  0  0  0  0  0  0  0  0  0  0
   19.4405   26.0478    7.1436 O   0  0  0  0  0  0  0  0  0  0  0  0
   22.0948   29.5653   12.0369 C   0  0  1  0  0  0  0  0  0  0  0  0
   20.7858   29.7403   12.4953 O   0  0  0  0  0  0  0  0  0  0  0  0
  1  2  1  6  0  0  0
  1  5  1  0  0  0  0
  1 30  1  0  0  0  0
  3  4  1  1  0  0  0
  3  7  1  0  0  0  0
  3 35  1  0  0  0  0
  5  6  1  1  0  0  0
  5 16  1  0  0  0  0
  7 19  1  0  0  0  0
  8  4  1  0  0  0  0
  8 25  2  0  0  0  0
  9  8  1  1  0  0  0
  9 10  1  0  0  0  0
  9 13  1  0  0  0  0
 10 11  1  0  0  0  0
 11 12  1  0  0  0  0
 14 15  1  0  0  0  0
 14 36  1  0  0  0  0
 15 17  1  0  0  0  0
 16 18  1  6  0  0  0
 16 26  1  0  0  0  0
 17 23  1  0  0  0  0
 19 20  1  6  0  0  0
 19 28  1  0  0  0  0
 21 22  1  0  0  0  0
 21 23  1  0  0  0  0
 22 24  1  0  0  0  0
 26 27  1  6  0  0  0
 26 29  1  0  0  0  0
 28  2  1  6  0  0  0
 28 31  1  0  0  0  0
 29 30  1  0  0  0  0
 29 33  1  6  0  0  0
 31 32  1  6  0  0  0
 31 35  1  0  0  0  0
 33 34  1  0  0  0  0
 35 36  1  1  0  0  0
M  END
>  <CHROM.1>
-164.51015756,-125.55318012,-170.55620870,115.40934574,-60.55961660,-59.41366873
68.10547714,178.91682748,-78.65472579,-58.94944193,-157.48261526,82.83102016
60.01605173,-161.83757846,21.96964632,27.86380921,11.14051499,-1.62900503
0.09014588,1.14442220

>  <Name>
2f4u_lig

>  <RI>
0

>  <Rbt.Current_Directory>
/home/itssahil/PROJECTS/Mol_Feturizer/New_Systems/rnas/2f4u

>  <Rbt.Executable>
rbdock ($Id: //depot/dev/client3/rdock/2013.1/src/exe/rbdock.cxx#4 $)

>  <Rbt.Library>
libRbt.so (2013.1, Build901 2013/11/27)

>  <Rbt.Parameter_File>
/export/apps/rDock/src/rDock_2013.1_src/data/scripts/dock_solv.prm

>  <Rbt.Receptor>
prm/blind_docking_100.prm

>  <SCORE>
-6.23644

>  <SCORE.INTER>
-8.79079

>  <SCORE.INTER.CONST>
1

>  <SCORE.INTER.POLAR>
-2.13171

>  <SCORE.INTER.ROT>
14

>  <SCORE.INTER.SOLV>
21.4945

>  <SCORE.INTER.VDW>
-18.853

>  <SCORE.INTER.norm>
-0.244189

>  <SCORE.INTRA>
-1.23317

>  <SCORE.INTRA.DIHEDRAL>
-11.9764

>  <SCORE.INTRA.DIHEDRAL.0>
26.3805

>  <SCORE.INTRA.POLAR>
0

>  <SCORE.INTRA.POLAR.0>
0

>  <SCORE.INTRA.REPUL>
0

>  <SCORE.INTRA.REPUL.0>
0

>  <SCORE.INTRA.SOLV>
9.07181

>  <SCORE.INTRA.SOLV.lig_0>
-98.5587

>  <SCORE.INTRA.VDW>
0.219147

>  <SCORE.INTRA.VDW.0>
-2.91167

>  <SCORE.INTRA.norm>
-0.0342547

>  <SCORE.RESTR>
3.78751

>  <SCORE.RESTR.CAVITY>
3.78751

>  <SCORE.RESTR.norm>
0.105209

>  <SCORE.SYSTEM>
0

>  <SCORE.SYSTEM.CONST>
0

>  <SCORE.SYSTEM.DIHEDRAL>
0

>  <SCORE.SYSTEM.SOLV>
0

>  <SCORE.SYSTEM.norm>
0

>  <SCORE.heavy>
36

>  <SCORE.norm>
-0.173235

>  <RMSD>
29.101

$$$$
2f4u_lig
 OpenBabel11021811433D
libRbt.so/2013.1/901 2013/11/27
 36 37  0  0  0  0  0  0  0  0999 V2000
   21.1921   29.2266   15.2904 C   0  0  2  0  0  0  0  0  0  0  0  0
   22.5814   28.8111   15.0160 O   0  0  0  0  0  0  0  0  0  0  0  0
   22.5653   27.5315   10.8618 C   0  0  2  0  0  0  0  0  0  0  0  0
   22.9920   26.8493    9.6099 N   0  0  0  0  0  0  0  0  0  0  0  0
   21.1023   30.7455   14.9454 C   0  0  2  0  0  0  0  0  0  0  0  0
   21.4588   31.0319   13.5436 N   0  0  0  0  0  0  0  0  0  0  0  0
   23.6720   28.5060   11.3991 C   0  0  0  0  0  0  0  0  0  0  0  0
   21.8393   27.1592    8.2823 C   0  0  0  0  0  0  0  0  0  0  0  0
   22.6724   26.1767    7.5204 C   0  0  1  0  0  0  0  0  0  0  0  0
   21.7884   25.5979    6.4100 C   0  0  0  0  0  0  0  0  0  0  0  0
   20.7451   24.5572    6.8569 C   0  0  0  0  0  0  0  0  0  0  0  0
   19.6650   25.2524    7.5598 N   0  0  0  0  0  0  0  0  0  0  0  0
   23.7523   26.8270    6.9078 O   0  0  0  0  0  0  0  0  0  0  0  0
   20.6498   24.6937   10.4862 C   0  0  0  0  0  0  0  0  0  0  0  0
   21.6905   23.6966    9.9990 C   0  0  0  0  0  0  0  0  0  0  0  0
   22.0434   31.5391   15.9115 C   0  0  1  0  0  0  0  0  0  0  0  0
   21.7073   22.4250   10.7499 N   0  0  0  0  0  0  0  0  0  0  0  0
   22.0058   32.9357   15.6296 O   0  0  0  0  0  0  0  0  0  0  0  0
   23.2426   29.1656   12.7254 C   0  0  2  0  0  0  0  0  0  0  0  0
   24.2891   30.0356   13.2472 N   0  0  0  0  0  0  0  0  0  0  0  0
   21.7773   23.1880   13.1191 C   0  0  0  0  0  0  0  0  0  0  0  0
   20.3013   22.7675   13.3892 C   0  0  0  0  0  0  0  0  0  0  0  0
   22.4671   22.3339   12.0234 C   0  0  0  0  0  0  0  0  0  0  0  0
   19.5519   23.8180   14.1417 N   0  0  0  0  0  0  0  0  0  0  0  0
   20.9393   27.7377    8.1531 O   0  0  0  0  0  0  0  0  0  0  0  0
   21.6043   31.2451   17.3600 C   0  0  2  0  0  0  0  0  0  0  0  0
   22.4113   31.9193   18.3222 O   0  0  0  0  0  0  0  0  0  0  0  0
   22.9402   28.1077   13.7678 C   0  0  2  0  0  0  0  0  0  0  0  0
   21.6341   29.7329   17.6460 C   0  0  2  0  0  0  0  0  0  0  0  0
   20.8476   29.0149   16.6889 O   0  0  0  0  0  0  0  0  0  0  0  0
   21.7909   27.1530   13.2460 C   0  0  2  0  0  0  0  0  0  0  0  0
   21.5330   26.1335   14.2619 O   0  0  0  0  0  0  0  0  0  0  0  0
   21.1304   29.4142   19.0284 C   0  0  0  0  0  0  0  0  0  0  0  0
   21.9705   29.9443   19.9815 O   0  0  0  0  0  0  0  0  0  0  0  0
   22.2594   26.4809   11.9111 C   0  0  1  0  0  0  0  0  0  0  0  0
   21.2918   25.6158   11.3920 O   0  0  0  0  0  0  0  0  0  0  0  0
  1  2  1  1  0  0  0
  1  5  1  0  0  0  0
  1 30  1  0  0  0  0
  3  4  1  6  0  0  0
  3  7  1  0  0  0  0
  3 35  1  0  0  0  0
  5  6  1  6  0  0  0
  5 16  1  0  0  0  0
  7 19  1  0  0  0  0
  8  4  1  0  0  0  0
  8 25  2  0  0  0  0
  9  8  1  6  0  0  0
  9 10  1  0  0  0  0
  9 13  1  0  0  0  0
 10 11  1  0  0  0  0
 11 12  1  0  0  0  0
 14 15  1  0  0  0  0
 14 36  1  0  0  0  0
 15 17  1  0  0  0  0
 16 18  1  6  0  0  0
 16 26  1  0  0  0  0
 17 23  1  0  0  0  0
 19 20  1  1  0  0  0
 19 28  1  0  0  0  0
 21 22  1  0  0  0  0
 21 23  1  0  0  0  0
 22 24  1  0  0  0  0
 26 27  1  1  0  0  0
 26 29  1  0  0  0  0
 28  2  1  1  0  0  0
 28 31  1  0  0  0  0
 29 30  1  0  0  0  0
 29 33  1  1  0  0  0
 31 32  1  1  0  0  0
 31 35  1  0  0  0  0
 33 34  1  0  0  0  0
 35 36  1  6  0  0  0
M  END
>  <CHROM.1>
-99.95865140,-122.73105935,156.71399656,-75.86037002,73.64506633,96.42072658
42.82228285,-83.71325523,69.16893722,-163.88171664,58.13537273,87.51598935
-64.95182350,54.52162918,21.83379155,27.44456939,12.74679372,1.48829568,1.32594615
1.06417662

>  <Name>
2f4u_lig

>  <RI>
0

>  <Rbt.Current_Directory>
/home/itssahil/PROJECTS/Mol_Feturizer/New_Systems/rnas/2f4u

>  <Rbt.Executable>
rbdock ($Id: //depot/dev/client3/rdock/2013.1/src/exe/rbdock.cxx#4 $)

>  <Rbt.Library>
libRbt.so (2013.1, Build901 2013/11/27)

>  <Rbt.Parameter_File>
/export/apps/rDock/src/rDock_2013.1_src/data/scripts/dock_solv.prm

>  <Rbt.Receptor>
prm/blind_docking_80.prm

>  <SCORE>
-9.53239

>  <SCORE.INTER>
-11.3829

>  <SCORE.INTER.CONST>
1

>  <SCORE.INTER.POLAR>
-1.65386

>  <SCORE.INTER.ROT>
14

>  <SCORE.INTER.SOLV>
23.9482

>  <SCORE.INTER.VDW>
-22.9918

>  <SCORE.INTER.norm>
-0.316191

>  <SCORE.INTRA>
0.797825

>  <SCORE.INTRA.DIHEDRAL>
-7.20435

>  <SCORE.INTRA.DIHEDRAL.0>
26.3805

>  <SCORE.INTRA.POLAR>
0

>  <SCORE.INTRA.POLAR.0>
0

>  <SCORE.INTRA.REPUL>
0

>  <SCORE.INTRA.REPUL.0>
0

>  <SCORE.INTRA.SOLV>
13.0948

>  <SCORE.INTRA.SOLV.lig_0>
-98.5587

>  <SCORE.INTRA.VDW>
-2.14738

>  <SCORE.INTRA.VDW.0>
-2.91167

>  <SCORE.INTRA.norm>
0.0221618

>  <SCORE.RESTR>
1.05267

>  <SCORE.RESTR.CAVITY>
1.05267

>  <SCORE.RESTR.norm>
0.0292409

>  <SCORE.SYSTEM>
0

>  <SCORE.SYSTEM.CONST>
0

>  <SCORE.SYSTEM.DIHEDRAL>
0

>  <SCORE.SYSTEM.SOLV>
0

>  <SCORE.SYSTEM.norm>
0

>  <SCORE.heavy>
36

>  <SCORE.norm>
-0.264789

>  <RMSD>
29.212

$$$$
2f4u_lig
 OpenBabel11021811433D
libRbt.so/2013.1/901 2013/11/27
 36 37  0  0  0  0  0  0  0  0999 V2000
   22.9607   29.3214   13.4121 C   0  0  2  0  0  0  0  0  0  0  0  0
   21.7495   29.7687   12.6974 O   0  0  0  0  0  0  0  0  0  0  0  0
   20.7621   26.9302    9.5568 C   0  0  2  0  0  0  0  0  0  0  0  0
   20.3390   26.4101    8.2282 N   0  0  0  0  0  0  0  0  0  0  0  0
   22.6800   27.8674   13.9032 C   0  0  2  0  0  0  0  0  0  0  0  0
   22.3641   26.9451   12.7969 N   0  0  0  0  0  0  0  0  0  0  0  0
   19.6506   27.8237   10.2121 C   0  0  0  0  0  0  0  0  0  0  0  0
   18.7259   25.6503    8.3177 C   0  0  0  0  0  0  0  0  0  0  0  0
   18.9888   25.2581    6.8976 C   0  0  1  0  0  0  0  0  0  0  0  0
   18.0736   24.0706    6.5786 C   0  0  0  0  0  0  0  0  0  0  0  0
   18.2783   22.8139    7.4447 C   0  0  0  0  0  0  0  0  0  0  0  0
   17.3550   22.8748    8.5795 N   0  0  0  0  0  0  0  0  0  0  0  0
   18.6433   26.3050    6.0322 O   0  0  0  0  0  0  0  0  0  0  0  0
   23.9437   25.8576    8.6057 C   0  0  0  0  0  0  0  0  0  0  0  0
   25.1870   26.1925    9.4161 C   0  0  0  0  0  0  0  0  0  0  0  0
   21.4986   27.9002   14.9287 C   0  0  1  0  0  0  0  0  0  0  0  0
   26.2081   26.9546    8.6694 N   0  0  0  0  0  0  0  0  0  0  0  0
   21.1945   26.5903   15.4009 O   0  0  0  0  0  0  0  0  0  0  0  0
   20.1201   28.4024   11.5624 C   0  0  2  0  0  0  0  0  0  0  0  0
   19.1051   29.2684   12.1489 N   0  0  0  0  0  0  0  0  0  0  0  0
   25.9356   27.3766    6.2306 C   0  0  0  0  0  0  0  0  0  0  0  0
   26.3764   27.0147    4.7805 C   0  0  0  0  0  0  0  0  0  0  0  0
   26.6178   26.5021    7.3149 C   0  0  0  0  0  0  0  0  0  0  0  0
   27.8632   27.0055    4.6363 N   0  0  0  0  0  0  0  0  0  0  0  0
   17.9757   25.5054    9.0777 O   0  0  0  0  0  0  0  0  0  0  0  0
   21.8927   28.8388   16.0867 C   0  0  2  0  0  0  0  0  0  0  0  0
   20.8715   28.9438   17.0756 O   0  0  0  0  0  0  0  0  0  0  0  0
   21.3875   29.2129   11.3776 C   0  0  2  0  0  0  0  0  0  0  0  0
   22.2337   30.2449   15.5614 C   0  0  2  0  0  0  0  0  0  0  0  0
   23.2461   30.1825   14.5507 O   0  0  0  0  0  0  0  0  0  0  0  0
   22.5234   28.2999   10.7606 C   0  0  2  0  0  0  0  0  0  0  0  0
   23.7262   29.1107   10.5767 O   0  0  0  0  0  0  0  0  0  0  0  0
   22.7012   31.1568   16.6641 C   0  0  0  0  0  0  0  0  0  0  0  0
   21.7593   31.2239   17.6658 O   0  0  0  0  0  0  0  0  0  0  0  0
   22.0305   27.7421    9.3825 C   0  0  1  0  0  0  0  0  0  0  0  0
   22.9891   26.9269    8.7738 O   0  0  0  0  0  0  0  0  0  0  0  0
  1  2  1  1  0  0  0
  1  5  1  0  0  0  0
  1 30  1  0  0  0  0
  3  4  1  6  0  0  0
  3  7  1  0  0  0  0
  3 35  1  0  0  0  0
  5  6  1  6  0  0  0
  5 16  1  0  0  0  0
  7 19  1  0  0  0  0
  8  4  1  0  0  0  0
  8 25  2  0  0  0  0
  9  8  1  1  0  0  0
  9 10  1  0  0  0  0
  9 13  1  0  0  0  0
 10 11  1  0  0  0  0
 11 12  1  0  0  0  0
 14 15  1  0  0  0  0
 14 36  1  0  0  0  0
 15 17  1  0  0  0  0
 16 18  1  1  0  0  0
 16 26  1  0  0  0  0
 17 23  1  0  0  0  0
 19 20  1  6  0  0  0
 19 28  1  0  0  0  0
 21 22  1  0  0  0  0
 21 23  1  0  0  0  0
 22 24  1  0  0  0  0
 26 27  1  1  0  0  0
 26 29  1  0  0  0  0
 28  2  1  1  0  0  0
 28 31  1  0  0  0  0
 29 30  1  0  0  0  0
 29 33  1  1  0  0  0
 31 32  1  6  0  0  0
 31 35  1  0  0  0  0
 33 34  1  0  0  0  0
 35 36  1  1  0  0  0
M  END
>  <CHROM.1>
-71.25974356,-50.39509967,158.82223760,-60.35668680,92.98357183,-90.31247344
-73.38720708,-48.09875962,102.02939859,-52.31176178,176.82509554,112.38657427
-56.03861381,-68.59647995,21.88873370,27.47850940,10.75829863,-1.59358073
-0.31366925,-1.99367295

>  <Name>
2f4u_lig

>  <RI>
0

>  <Rbt.Current_Directory>
/home/itssahil/PROJECTS/Mol_Feturizer/New_Systems/rnas/2f4u

>  <Rbt.Executable>
rbdock ($Id: //depot/dev/client3/rdock/2013.1/src/exe/rbdock.cxx#4 $)

>  <Rbt.Library>
libRbt.so (2013.1, Build901 2013/11/27)

>  <Rbt.Parameter_File>
/export/apps/rDock/src/rDock_2013.1_src/data/scripts/dock_solv.prm

>  <Rbt.Receptor>
prm/blind_docking_100.prm

>  <SCORE>
6.78442

>  <SCORE.INTER>
-6.25476

>  <SCORE.INTER.CONST>
1

>  <SCORE.INTER.POLAR>
-1.13285

>  <SCORE.INTER.ROT>
14

>  <SCORE.INTER.SOLV>
10.8294

>  <SCORE.INTER.VDW>
-16.9368

>  <SCORE.INTER.norm>
-0.173743

>  <SCORE.INTRA>
4.18928

>  <SCORE.INTRA.DIHEDRAL>
-9.00916

>  <SCORE.INTRA.DIHEDRAL.0>
26.3805

>  <SCORE.INTRA.POLAR>
0

>  <SCORE.INTRA.POLAR.0>
0

>  <SCORE.INTRA.REPUL>
0

>  <SCORE.INTRA.REPUL.0>
0

>  <SCORE.INTRA.SOLV>
9.25314

>  <SCORE.INTRA.SOLV.lig_0>
-98.5587

>  <SCORE.INTRA.VDW>
4.06729

>  <SCORE.INTRA.VDW.0>
-2.91167

>  <SCORE.INTRA.norm>
0.116369

>  <SCORE.RESTR>
8.84989

>  <SCORE.RESTR.CAVITY>
8.84989

>  <SCORE.RESTR.norm>
0.24583

>  <SCORE.SYSTEM>
0

>  <SCORE.SYSTEM.CONST>
0

>  <SCORE.SYSTEM.DIHEDRAL>
0

>  <SCORE.SYSTEM.SOLV>
0

>  <SCORE.SYSTEM.norm>
0

>  <SCORE.heavy>
36

>  <SCORE.norm>
0.188456

>  <RMSD>
29.261

$$$$
2f4u_lig
 OpenBabel11021811433D
libRbt.so/2013.1/901 2013/11/27
 36 37  0  0  0  0  0  0  0  0999 V2000
   21.3870   29.5630   15.6222 C   0  0  2  0  0  0  0  0  0  0  0  0
   22.2810   28.4014   15.4510 O   0  0  0  0  0  0  0  0  0  0  0  0
   22.1069   27.6239   11.1778 C   0  0  2  0  0  0  0  0  0  0  0  0
   22.3131   26.9345    9.8751 N   0  0  0  0  0  0  0  0  0  0  0  0
   22.2882   30.7632   16.0482 C   0  0  2  0  0  0  0  0  0  0  0  0
   23.3397   31.0633   15.0590 N   0  0  0  0  0  0  0  0  0  0  0  0
   23.4698   27.9612   11.8791 C   0  0  0  0  0  0  0  0  0  0  0  0
   23.9467   27.2534    9.2290 C   0  0  0  0  0  0  0  0  0  0  0  0
   23.4568   26.5194    8.0203 C   0  0  1  0  0  0  0  0  0  0  0  0
   24.4302   26.8284    6.8772 C   0  0  0  0  0  0  0  0  0  0  0  0
   25.8248   26.1854    6.9911 C   0  0  0  0  0  0  0  0  0  0  0  0
   26.6304   26.6144    5.8462 N   0  0  0  0  0  0  0  0  0  0  0  0
   23.4905   25.1364    8.2445 O   0  0  0  0  0  0  0  0  0  0  0  0
   18.7666   25.8899   11.1843 C   0  0  0  0  0  0  0  0  0  0  0  0
   18.8904   24.3897   10.9636 C   0  0  0  0  0  0  0  0  0  0  0  0
   22.9335   30.4418   17.4370 C   0  0  1  0  0  0  0  0  0  0  0  0
   20.1260   23.9814   10.2653 N   0  0  0  0  0  0  0  0  0  0  0  0
   23.7780   31.5062   17.8673 O   0  0  0  0  0  0  0  0  0  0  0  0
   23.2443   28.6251   13.2528 C   0  0  2  0  0  0  0  0  0  0  0  0
   24.5094   28.8968   13.9236 N   0  0  0  0  0  0  0  0  0  0  0  0
   19.3919   23.9173    7.8869 C   0  0  0  0  0  0  0  0  0  0  0  0
   19.6034   24.4397    6.4341 C   0  0  0  0  0  0  0  0  0  0  0  0
   20.4066   24.5036    8.9029 C   0  0  0  0  0  0  0  0  0  0  0  0
   19.5468   25.9308    6.3647 N   0  0  0  0  0  0  0  0  0  0  0  0
   24.8229   27.7871    9.5590 O   0  0  0  0  0  0  0  0  0  0  0  0
   21.7977   30.1809   18.4465 C   0  0  2  0  0  0  0  0  0  0  0  0
   22.2862   29.8681   19.7485 O   0  0  0  0  0  0  0  0  0  0  0  0
   22.4168   27.7226   14.1461 C   0  0  2  0  0  0  0  0  0  0  0  0
   20.8845   29.0403   17.9620 C   0  0  2  0  0  0  0  0  0  0  0  0
   20.3850   29.3074   16.6470 O   0  0  0  0  0  0  0  0  0  0  0  0
   21.0228   27.4205   13.4605 C   0  0  2  0  0  0  0  0  0  0  0  0
   20.2544   26.5350   14.3342 O   0  0  0  0  0  0  0  0  0  0  0  0
   19.7200   28.8221   18.8908 C   0  0  0  0  0  0  0  0  0  0  0  0
   20.1641   28.5649   20.1682 O   0  0  0  0  0  0  0  0  0  0  0  0
   21.2788   26.7289   12.0787 C   0  0  1  0  0  0  0  0  0  0  0  0
   20.0863   26.4266   11.4149 O   0  0  0  0  0  0  0  0  0  0  0  0
  1  2  1  1  0  0  0
  1  5  1  0  0  0  0
  1 30  1  0  0  0  0
  3  4  1  6  0  0  0
  3  7  1  0  0  0  0
  3 35  1  0  0  0  0
  5  6  1  6  0  0  0
  5 16  1  0  0  0  0
  7 19  1  0  0  0  0
  8  4  1  0  0  0  0
  8 25  2  0  0  0  0
  9  8  1  1  0  0  0
  9 10  1  0  0  0  0
  9 13  1  0  0  0  0
 10 11  1  0  0  0  0
 11 12  1  0  0  0  0
 14 15  1  0  0  0  0
 14 36  1  0  0  0  0
 15 17  1  0  0  0  0
 16 18  1  1  0  0  0
 16 26  1  0  0  0  0
 17 23  1  0  0  0  0
 19 20  1  1  0  0  0
 19 28  1  0  0  0  0
 21 22  1  0  0  0  0
 21 23  1  0  0  0  0
 22 24  1  0  0  0  0
 26 27  1  1  0  0  0
 26 29  1  0  0  0  0
 28  2  1  1  0  0  0
 28 31  1  0  0  0  0
 29 30  1  0  0  0  0
 29 33  1  1  0  0  0
 31 32  1  1  0  0  0
 31 35  1  0  0  0  0
 33 34  1  0  0  0  0
 35 36  1  6  0  0  0
M  END
>  <CHROM.1>
-118.64824858,-21.70590096,164.16012169,70.98009122,-178.34142443,-34.23023425
-75.63830240,-59.66991861,-68.18132982,-56.57920827,178.90363190,74.05495718
-56.86168881,-175.29842172,21.96897248,27.54926032,12.60037152,-1.63490503
-0.48433973,-1.98344998

>  <Name>
2f4u_lig

>  <RI>
0

>  <Rbt.Current_Directory>
/home/itssahil/PROJECTS/Mol_Feturizer/New_Systems/rnas/2f4u

>  <Rbt.Executable>
rbdock ($Id: //depot/dev/client3/rdock/2013.1/src/exe/rbdock.cxx#4 $)

>  <Rbt.Library>
libRbt.so (2013.1, Build901 2013/11/27)

>  <Rbt.Parameter_File>
/export/apps/rDock/src/rDock_2013.1_src/data/scripts/dock_solv.prm

>  <Rbt.Receptor>
prm/blind_docking_100.prm

>  <SCORE>
9.68174

>  <SCORE.INTER>
2.35546

>  <SCORE.INTER.CONST>
1

>  <SCORE.INTER.POLAR>
-1.40336

>  <SCORE.INTER.ROT>
14

>  <SCORE.INTER.SOLV>
23.3352

>  <SCORE.INTER.VDW>
-14.4636

>  <SCORE.INTER.norm>
0.0654293

>  <SCORE.INTRA>
-0.442841

>  <SCORE.INTRA.DIHEDRAL>
-12.4247

>  <SCORE.INTRA.DIHEDRAL.0>
26.3805

>  <SCORE.INTRA.POLAR>
0

>  <SCORE.INTRA.POLAR.0>
0

>  <SCORE.INTRA.REPUL>
0.0307691

>  <SCORE.INTRA.REPUL.0>
0

>  <SCORE.INTRA.SOLV>
6.47012

>  <SCORE.INTRA.SOLV.lig_0>
-98.5587

>  <SCORE.INTRA.VDW>
2.38058

>  <SCORE.INTRA.VDW.0>
-2.91167

>  <SCORE.INTRA.norm>
-0.0123011

>  <SCORE.RESTR>
7.76913

>  <SCORE.RESTR.CAVITY>
7.76913

>  <SCORE.RESTR.norm>
0.215809

>  <SCORE.SYSTEM>
0

>  <SCORE.SYSTEM.CONST>
0

>  <SCORE.SYSTEM.DIHEDRAL>
0

>  <SCORE.SYSTEM.SOLV>
0

>  <SCORE.SYSTEM.norm>
0

>  <SCORE.heavy>
36

>  <SCORE.norm>
0.268937

>  <RMSD>
29.325

$$$$
2f4u_lig
 OpenBabel11021811433D
libRbt.so/2013.1/901 2013/11/27
 36 37  0  0  0  0  0  0  0  0999 V2000
   21.2145   29.3514   16.4400 C   0  0  2  0  0  0  0  0  0  0  0  0
   22.3949   28.9470   15.6520 O   0  0  0  0  0  0  0  0  0  0  0  0
   22.9933   25.6960   12.8292 C   0  0  2  0  0  0  0  0  0  0  0  0
   22.7915   24.8270   11.6380 N   0  0  0  0  0  0  0  0  0  0  0  0
   20.9002   30.8290   16.0503 C   0  0  2  0  0  0  0  0  0  0  0  0
   20.6383   30.9929   14.6085 N   0  0  0  0  0  0  0  0  0  0  0  0
   21.7109   25.7514   13.7323 C   0  0  0  0  0  0  0  0  0  0  0  0
   21.6539   25.5729   10.4817 C   0  0  0  0  0  0  0  0  0  0  0  0
   21.7713   24.2741    9.7474 C   0  0  1  0  0  0  0  0  0  0  0  0
   20.6382   24.2325    8.7161 C   0  0  0  0  0  0  0  0  0  0  0  0
   19.2090   24.2233    9.2895 C   0  0  0  0  0  0  0  0  0  0  0  0
   18.2841   23.8192    8.2287 N   0  0  0  0  0  0  0  0  0  0  0  0
   22.9845   24.2192    9.0478 O   0  0  0  0  0  0  0  0  0  0  0  0
   25.5147   27.4103   10.6247 C   0  0  0  0  0  0  0  0  0  0  0  0
   24.8829   27.6789    9.2669 C   0  0  0  0  0  0  0  0  0  0  0  0
   22.1025   31.7320   16.4836 C   0  0  1  0  0  0  0  0  0  0  0  0
   23.9953   26.5995    8.7892 N   0  0  0  0  0  0  0  0  0  0  0  0
   21.8689   33.0950   16.1387 O   0  0  0  0  0  0  0  0  0  0  0  0
   21.9115   26.6975   14.9336 C   0  0  2  0  0  0  0  0  0  0  0  0
   20.7051   26.7838   15.7469 N   0  0  0  0  0  0  0  0  0  0  0  0
   23.5538   26.1751    6.3757 C   0  0  0  0  0  0  0  0  0  0  0  0
   25.0280   26.5320    6.0189 C   0  0  0  0  0  0  0  0  0  0  0  0
   23.0526   26.8643    7.6717 C   0  0  0  0  0  0  0  0  0  0  0  0
   25.3960   26.0717    4.6463 N   0  0  0  0  0  0  0  0  0  0  0  0
   21.1086   26.5001   10.4156 O   0  0  0  0  0  0  0  0  0  0  0  0
   22.3085   31.5627   18.0022 C   0  0  2  0  0  0  0  0  0  0  0  0
   23.3942   32.3432   18.4958 O   0  0  0  0  0  0  0  0  0  0  0  0
   22.2628   28.0920   14.4548 C   0  0  2  0  0  0  0  0  0  0  0  0
   22.5437   30.0848   18.3625 C   0  0  2  0  0  0  0  0  0  0  0  0
   21.4814   29.2617   17.8684 O   0  0  0  0  0  0  0  0  0  0  0  0
   23.5827   28.0437   13.5831 C   0  0  2  0  0  0  0  0  0  0  0  0
   23.8870   29.3970   13.1204 O   0  0  0  0  0  0  0  0  0  0  0  0
   22.6655   29.8832   19.8494 C   0  0  0  0  0  0  0  0  0  0  0  0
   21.4354   30.0077   20.4549 O   0  0  0  0  0  0  0  0  0  0  0  0
   23.3462   27.0938   12.3603 C   0  0  1  0  0  0  0  0  0  0  0  0
   24.4740   27.0059   11.5390 O   0  0  0  0  0  0  0  0  0  0  0  0
  1  2  1  6  0  0  0
  1  5  1  0  0  0  0
  1 30  1  0  0  0  0
  3  4  1  6  0  0  0
  3  7  1  0  0  0  0
  3 35  1  0  0  0  0
  5  6  1  6  0  0  0
  5 16  1  0  0  0  0
  7 19  1  0  0  0  0
  8  4  1  0  0  0  0
  8 25  2  0  0  0  0
  9  8  1  6  0  0  0
  9 10  1  0  0  0  0
  9 13  1  0  0  0  0
 10 11  1  0  0  0  0
 11 12  1  0  0  0  0
 14 15  1  0  0  0  0
 14 36  1  0  0  0  0
 15 17  1  0  0  0  0
 16 18  1  1  0  0  0
 16 26  1  0  0  0  0
 17 23  1  0  0  0  0
 19 20  1  6  0  0  0
 19 28  1  0  0  0  0
 21 22  1  0  0  0  0
 21 23  1  0  0  0  0
 22 24  1  0  0  0  0
 26 27  1  6  0  0  0
 26 29  1  0  0  0  0
 28  2  1  1  0  0  0
 28 31  1  0  0  0  0
 29 30  1  0  0  0  0
 29 33  1  1  0  0  0
 31 32  1  6  0  0  0
 31 35  1  0  0  0  0
 33 34  1  0  0  0  0
 35 36  1  1  0  0  0
M  END
>  <CHROM.1>
-102.59381504,69.99855941,166.19444518,-63.83623577,-164.75594401,-49.49360328
-69.40242751,164.37239401,106.41864025,-169.09197639,-52.64296496,-71.66934072
73.24130464,172.36639944,22.44688253,27.74825191,12.85695794,1.67199161,0.73325366
1.02285056

>  <Name>
2f4u_lig

>  <RI>
0

>  <Rbt.Current_Directory>
/home/itssahil/PROJECTS/Mol_Feturizer/New_Systems/rnas/2f4u

>  <Rbt.Executable>
rbdock ($Id: //depot/dev/client3/rdock/2013.1/src/exe/rbdock.cxx#4 $)

>  <Rbt.Library>
libRbt.so (2013.1, Build901 2013/11/27)

>  <Rbt.Parameter_File>
/export/apps/rDock/src/rDock_2013.1_src/data/scripts/dock_solv.prm

>  <Rbt.Receptor>
prm/blind_docking_80.prm

>  <SCORE>
-6.3251

>  <SCORE.INTER>
-4.22851

>  <SCORE.INTER.CONST>
1

>  <SCORE.INTER.POLAR>
0

>  <SCORE.INTER.ROT>
14

>  <SCORE.INTER.SOLV>
15.8436

>  <SCORE.INTER.VDW>
-21.0335

>  <SCORE.INTER.norm>
-0.117459

>  <SCORE.INTRA>
-5.7279

>  <SCORE.INTRA.DIHEDRAL>
-14.3709

>  <SCORE.INTRA.DIHEDRAL.0>
26.3805

>  <SCORE.INTRA.POLAR>
0

>  <SCORE.INTRA.POLAR.0>
0

>  <SCORE.INTRA.REPUL>
0

>  <SCORE.INTRA.REPUL.0>
0

>  <SCORE.INTRA.SOLV>
6.20983

>  <SCORE.INTRA.SOLV.lig_0>
-98.5587

>  <SCORE.INTRA.VDW>
-1.64737

>  <SCORE.INTRA.VDW.0>
-2.91167

>  <SCORE.INTRA.norm>
-0.159108

>  <SCORE.RESTR>
3.6313

>  <SCORE.RESTR.CAVITY>
3.6313

>  <SCORE.RESTR.norm>
0.10087

>  <SCORE.SYSTEM>
0

>  <SCORE.SYSTEM.CONST>
0

>  <SCORE.SYSTEM.DIHEDRAL>
0

>  <SCORE.SYSTEM.SOLV>
0

>  <SCORE.SYSTEM.norm>
0

>  <SCORE.heavy>
36

>  <SCORE.norm>
-0.175697

>  <RMSD>
29.408

$$$$
2f4u_lig
 OpenBabel11021811433D
libRbt.so/2013.1/901 2013/11/27
 36 37  0  0  0  0  0  0  0  0999 V2000
   21.2244   29.3212   15.9904 C   0  0  2  0  0  0  0  0  0  0  0  0
   22.4259   29.0074   15.1930 O   0  0  0  0  0  0  0  0  0  0  0  0
   22.0996   26.9449   11.3805 C   0  0  2  0  0  0  0  0  0  0  0  0
   22.1567   25.8455   10.3790 N   0  0  0  0  0  0  0  0  0  0  0  0
   20.8367   30.7949   15.6557 C   0  0  2  0  0  0  0  0  0  0  0  0
   20.5707   31.0003   14.2200 N   0  0  0  0  0  0  0  0  0  0  0  0
   23.5014   27.2082   12.0353 C   0  0  0  0  0  0  0  0  0  0  0  0
   23.0625   26.3458    8.9242 C   0  0  0  0  0  0  0  0  0  0  0  0
   22.6245   25.0257    8.3716 C   0  0  1  0  0  0  0  0  0  0  0  0
   21.3444   25.2740    7.5659 C   0  0  0  0  0  0  0  0  0  0  0  0
   21.4496   26.3259    6.4462 C   0  0  0  0  0  0  0  0  0  0  0  0
   22.6062   26.0012    5.6091 N   0  0  0  0  0  0  0  0  0  0  0  0
   23.5908   24.5232    7.4895 O   0  0  0  0  0  0  0  0  0  0  0  0
   18.5209   25.8392   11.6576 C   0  0  0  0  0  0  0  0  0  0  0  0
   18.5838   24.3616   11.3007 C   0  0  0  0  0  0  0  0  0  0  0  0
   21.9906   31.7402   16.1285 C   0  0  1  0  0  0  0  0  0  0  0  0
   18.7486   24.0949    9.8575 N   0  0  0  0  0  0  0  0  0  0  0  0
   21.6892   33.1019   15.8347 O   0  0  0  0  0  0  0  0  0  0  0  0
   23.4199   28.3108   13.1105 C   0  0  2  0  0  0  0  0  0  0  0  0
   24.7123   28.5233   13.7500 N   0  0  0  0  0  0  0  0  0  0  0  0
   16.7716   22.9258    8.8958 C   0  0  0  0  0  0  0  0  0  0  0  0
   17.2570   21.9439    7.7874 C   0  0  0  0  0  0  0  0  0  0  0  0
   17.5856   24.2452    8.9452 C   0  0  0  0  0  0  0  0  0  0  0  0
   18.5878   21.3493    8.1141 N   0  0  0  0  0  0  0  0  0  0  0  0
   23.6010   27.2238    8.6071 O   0  0  0  0  0  0  0  0  0  0  0  0
   22.2008   31.5237   17.6405 C   0  0  2  0  0  0  0  0  0  0  0  0
   23.2444   32.3385   18.1685 O   0  0  0  0  0  0  0  0  0  0  0  0
   22.4164   27.9313   14.1811 C   0  0  2  0  0  0  0  0  0  0  0  0
   22.5096   30.0468   17.9455 C   0  0  2  0  0  0  0  0  0  0  0  0
   21.4917   29.1906   17.4155 O   0  0  0  0  0  0  0  0  0  0  0  0
   20.9917   27.7119   13.5280 C   0  0  2  0  0  0  0  0  0  0  0  0
   20.0496   27.3299   14.5789 O   0  0  0  0  0  0  0  0  0  0  0  0
   22.6375   29.7949   19.4241 C   0  0  0  0  0  0  0  0  0  0  0  0
   21.4204   29.9548   20.0472 O   0  0  0  0  0  0  0  0  0  0  0  0
   21.0971   26.5749   12.4559 C   0  0  1  0  0  0  0  0  0  0  0  0
   19.8690   26.3217   11.8378 O   0  0  0  0  0  0  0  0  0  0  0  0
  1  2  1  6  0  0  0
  1  5  1  0  0  0  0
  1 30  1  0  0  0  0
  3  4  1  6  0  0  0
  3  7  1  0  0  0  0
  3 35  1  0  0  0  0
  5  6  1  6  0  0  0
  5 16  1  0  0  0  0
  7 19  1  0  0  0  0
  8  4  1  0  0  0  0
  8 25  2  0  0  0  0
  9  8  1  6  0  0  0
  9 10  1  0  0  0  0
  9 13  1  0  0  0  0
 10 11  1  0  0  0  0
 11 12  1  0  0  0  0
 14 15  1  0  0  0  0
 14 36  1  0  0  0  0
 15 17  1  0  0  0  0
 16 18  1  1  0  0  0
 16 26  1  0  0  0  0
 17 23  1  0  0  0  0
 19 20  1  1  0  0  0
 19 28  1  0  0  0  0
 21 22  1  0  0  0  0
 21 23  1  0  0  0  0
 22 24  1  0  0  0  0
 26 27  1  6  0  0  0
 26 29  1  0  0  0  0
 28  2  1  1  0  0  0
 28 31  1  0  0  0  0
 29 30  1  0  0  0  0
 29 33  1  1  0  0  0
 31 32  1  1  0  0  0
 31 35  1  0  0  0  0
 33 34  1  0  0  0  0
 35 36  1  6  0  0  0
M  END
>  <CHROM.1>
-118.48460356,-70.17007363,94.70897881,55.82747851,51.28416831,-86.62627151
-81.01251534,-76.22052522,-86.90865296,70.59414147,-89.54256701,150.93841110
67.73638107,163.07150316,21.30345081,27.41263229,12.55487126,1.36436322,0.56699037
1.07056907

>  <Name>
2f4u_lig

>  <RI>
0

>  <Rbt.Current_Directory>
/home/itssahil/PROJECTS/Mol_Feturizer/New_Systems/rnas/2f4u

>  <Rbt.Executable>
rbdock ($Id: //depot/dev/client3/rdock/2013.1/src/exe/rbdock.cxx#4 $)

>  <Rbt.Library>
libRbt.so (2013.1, Build901 2013/11/27)

>  <Rbt.Parameter_File>
/export/apps/rDock/src/rDock_2013.1_src/data/scripts/dock_solv.prm

>  <Rbt.Receptor>
prm/blind_docking_80.prm

>  <SCORE>
5.48679

>  <SCORE.INTER>
0.276663

>  <SCORE.INTER.CONST>
1

>  <SCORE.INTER.POLAR>
-1.03923

>  <SCORE.INTER.ROT>
14

>  <SCORE.INTER.SOLV>
25.4822

>  <SCORE.INTER.VDW>
-17.7789

>  <SCORE.INTER.norm>
0.00768508

>  <SCORE.INTRA>
2.14809

>  <SCORE.INTRA.DIHEDRAL>
-3.77874

>  <SCORE.INTRA.DIHEDRAL.0>
26.3805

>  <SCORE.INTRA.POLAR>
0

>  <SCORE.INTRA.POLAR.0>
0

>  <SCORE.INTRA.REPUL>
0.120981

>  <SCORE.INTRA.REPUL.0>
0

>  <SCORE.INTRA.SOLV>
7.20441

>  <SCORE.INTRA.SOLV.lig_0>
-98.5587

>  <SCORE.INTRA.VDW>
-0.169644

>  <SCORE.INTRA.VDW.0>
-2.91167

>  <SCORE.INTRA.norm>
0.0596693

>  <SCORE.RESTR>
3.06203

>  <SCORE.RESTR.CAVITY>
3.06203

>  <SCORE.RESTR.norm>
0.0850565

>  <SCORE.SYSTEM>
0

>  <SCORE.SYSTEM.CONST>
0

>  <SCORE.SYSTEM.DIHEDRAL>
0

>  <SCORE.SYSTEM.SOLV>
0

>  <SCORE.SYSTEM.norm>
0

>  <SCORE.heavy>
36

>  <SCORE.norm>
0.152411

>  <RMSD>
29.584

$$$$
2f4u_lig
 OpenBabel11021811433D
libRbt.so/2013.1/901 2013/11/27
 36 37  0  0  0  0  0  0  0  0999 V2000
   21.7419   28.9864   15.4360 C   0  0  2  0  0  0  0  0  0  0  0  0
   22.9141   29.2536   14.5802 O   0  0  0  0  0  0  0  0  0  0  0  0
   21.8801   27.2816   10.8469 C   0  0  2  0  0  0  0  0  0  0  0  0
   22.0200   26.7497    9.4641 N   0  0  0  0  0  0  0  0  0  0  0  0
   20.7427   30.1626   15.2073 C   0  0  2  0  0  0  0  0  0  0  0  0
   20.3323   30.2935   13.7971 N   0  0  0  0  0  0  0  0  0  0  0  0
   22.1135   28.8327   10.8995 C   0  0  0  0  0  0  0  0  0  0  0  0
   20.4932   26.9136    8.5533 C   0  0  0  0  0  0  0  0  0  0  0  0
   21.2078   26.1352    7.4934 C   0  0  1  0  0  0  0  0  0  0  0  0
   20.9379   24.6505    7.7621 C   0  0  0  0  0  0  0  0  0  0  0  0
   19.4626   24.2140    7.6967 C   0  0  0  0  0  0  0  0  0  0  0  0
   19.0022   24.3343    6.3120 N   0  0  0  0  0  0  0  0  0  0  0  0
   20.6839   26.4402    6.2298 O   0  0  0  0  0  0  0  0  0  0  0  0
   21.9758   23.9418   11.7076 C   0  0  0  0  0  0  0  0  0  0  0  0
   21.5669   23.6810   13.1496 C   0  0  0  0  0  0  0  0  0  0  0  0
   21.4065   31.4916   15.6989 C   0  0  1  0  0  0  0  0  0  0  0  0
   20.1973   23.1501   13.3030 N   0  0  0  0  0  0  0  0  0  0  0  0
   20.5353   32.6022   15.5011 O   0  0  0  0  0  0  0  0  0  0  0  0
   22.0211   29.3650   12.3441 C   0  0  2  0  0  0  0  0  0  0  0  0
   22.2828   30.7978   12.3982 N   0  0  0  0  0  0  0  0  0  0  0  0
   18.6270   24.5415   11.9621 C   0  0  0  0  0  0  0  0  0  0  0  0
   17.2264   24.0065   11.5373 C   0  0  0  0  0  0  0  0  0  0  0  0
   19.0498   24.0903   13.3846 C   0  0  0  0  0  0  0  0  0  0  0  0
   16.8492   24.4613   10.1654 N   0  0  0  0  0  0  0  0  0  0  0  0
   19.5160   27.3272    8.7415 O   0  0  0  0  0  0  0  0  0  0  0  0
   21.7757   31.3235   17.1864 C   0  0  2  0  0  0  0  0  0  0  0  0
   22.3989   32.4852   17.7284 O   0  0  0  0  0  0  0  0  0  0  0  0
   23.0303   28.6635   13.2310 C   0  0  2  0  0  0  0  0  0  0  0  0
   22.7034   30.1118   17.3878 C   0  0  2  0  0  0  0  0  0  0  0  0
   22.1208   28.9240   16.8403 O   0  0  0  0  0  0  0  0  0  0  0  0
   22.7656   27.1034   13.2157 C   0  0  2  0  0  0  0  0  0  0  0  0
   23.7630   26.4518   14.0635 O   0  0  0  0  0  0  0  0  0  0  0  0
   23.0114   29.8778   18.8426 C   0  0  0  0  0  0  0  0  0  0  0  0
   23.5368   31.0153   19.4130 O   0  0  0  0  0  0  0  0  0  0  0  0
   22.8855   26.5850   11.7426 C   0  0  1  0  0  0  0  0  0  0  0  0
   22.6677   25.2071   11.6524 O   0  0  0  0  0  0  0  0  0  0  0  0
  1  2  1  6  0  0  0
  1  5  1  0  0  0  0
  1 30  1  0  0  0  0
  3  4  1  6  0  0  0
  3  7  1  0  0  0  0
  3 35  1  0  0  0  0
  5  6  1  6  0  0  0
  5 16  1  0  0  0  0
  7 19  1  0  0  0  0
  8  4  1  0  0  0  0
  8 25  2  0  0  0  0
  9  8  1  1  0  0  0
  9 10  1  0  0  0  0
  9 13  1  0  0  0  0
 10 11  1  0  0  0  0
 11 12  1  0  0  0  0
 14 15  1  0  0  0  0
 14 36  1  0  0  0  0
 15 17  1  0  0  0  0
 16 18  1  1  0  0  0
 16 26  1  0  0  0  0
 17 23  1  0  0  0  0
 19 20  1  6  0  0  0
 19 28  1  0  0  0  0
 21 22  1  0  0  0  0
 21 23  1  0  0  0  0
 22 24  1  0  0  0  0
 26 27  1  6  0  0  0
 26 29  1  0  0  0  0
 28  2  1  1  0  0  0
 28 31  1  0  0  0  0
 29 30  1  0  0  0  0
 29 33  1  1  0  0  0
 31 32  1  1  0  0  0
 31 35  1  0  0  0  0
 33 34  1  0  0  0  0
 35 36  1  1  0  0  0
M  END
>  <CHROM.1>
-94.79303627,-84.69774205,90.01671343,61.61373903,67.34713288,137.14385365
-64.06041993,-86.29805981,81.74273437,179.87880504,112.19889934,71.39304082
-55.18088525,-56.47390174,21.27555254,27.56067506,12.68985597,0.55797512
1.29149662,1.94430326

>  <Name>
2f4u_lig

>  <RI>
0

>  <Rbt.Current_Directory>
/home/itssahil/PROJECTS/Mol_Feturizer/New_Systems/rnas/2f4u

>  <Rbt.Executable>
rbdock ($Id: //depot/dev/client3/rdock/2013.1/src/exe/rbdock.cxx#4 $)

>  <Rbt.Library>
libRbt.so (2013.1, Build901 2013/11/27)

>  <Rbt.Parameter_File>
/export/apps/rDock/src/rDock_2013.1_src/data/scripts/dock_solv.prm

>  <Rbt.Receptor>
prm/blind_docking_80.prm

>  <SCORE>
-0.058231

>  <SCORE.INTER>
-5.36763

>  <SCORE.INTER.CONST>
1

>  <SCORE.INTER.POLAR>
-1.16894

>  <SCORE.INTER.ROT>
14

>  <SCORE.INTER.SOLV>
17.1855

>  <SCORE.INTER.VDW>
-18.3438

>  <SCORE.INTER.norm>
-0.149101

>  <SCORE.INTRA>
4.02843

>  <SCORE.INTRA.DIHEDRAL>
-8.01069

>  <SCORE.INTRA.DIHEDRAL.0>
26.3805

>  <SCORE.INTRA.POLAR>
0

>  <SCORE.INTRA.POLAR.0>
0

>  <SCORE.INTRA.REPUL>
0

>  <SCORE.INTRA.REPUL.0>
0

>  <SCORE.INTRA.SOLV>
9.58434

>  <SCORE.INTRA.SOLV.lig_0>
-98.5587

>  <SCORE.INTRA.VDW>
3.2416

>  <SCORE.INTRA.VDW.0>
-2.91167

>  <SCORE.INTRA.norm>
0.111901

>  <SCORE.RESTR>
1.28097

>  <SCORE.RESTR.CAVITY>
1.28097

>  <SCORE.RESTR.norm>
0.0355824

>  <SCORE.SYSTEM>
0

>  <SCORE.SYSTEM.CONST>
0

>  <SCORE.SYSTEM.DIHEDRAL>
0

>  <SCORE.SYSTEM.SOLV>
0

>  <SCORE.SYSTEM.norm>
0

>  <SCORE.heavy>
36

>  <SCORE.norm>
-0.00161753

>  <RMSD>
29.628

$$$$
2f4u_lig
 OpenBabel11021811433D
libRbt.so/2013.1/901 2013/11/27
 36 37  0  0  0  0  0  0  0  0999 V2000
   21.1466   26.6976    9.2480 C   0  0  2  0  0  0  0  0  0  0  0  0
   21.2409   28.1579    9.4391 O   0  0  0  0  0  0  0  0  0  0  0  0
   21.5936   29.8249   13.4381 C   0  0  2  0  0  0  0  0  0  0  0  0
   21.2146   30.5155   14.7007 N   0  0  0  0  0  0  0  0  0  0  0  0
   21.7417   26.3907    7.8388 C   0  0  2  0  0  0  0  0  0  0  0  0
   23.1397   26.8393    7.7024 N   0  0  0  0  0  0  0  0  0  0  0  0
   21.4196   30.7596   12.1894 C   0  0  0  0  0  0  0  0  0  0  0  0
   22.2806   30.0272   16.0471 C   0  0  0  0  0  0  0  0  0  0  0  0
   21.3490   30.8394   16.8910 C   0  0  1  0  0  0  0  0  0  0  0  0
   21.8510   30.7481   18.3364 C   0  0  0  0  0  0  0  0  0  0  0  0
   21.2313   29.6281   19.1925 C   0  0  0  0  0  0  0  0  0  0  0  0
   21.4943   29.9202   20.6030 N   0  0  0  0  0  0  0  0  0  0  0  0
   21.3971   32.1871   16.5092 O   0  0  0  0  0  0  0  0  0  0  0  0
   20.6765   26.7123   15.3443 C   0  0  0  0  0  0  0  0  0  0  0  0
   20.8497   25.3984   14.5971 C   0  0  0  0  0  0  0  0  0  0  0  0
   20.8489   27.0784    6.7532 C   0  0  1  0  0  0  0  0  0  0  0  0
   21.5416   25.5281   13.2988 N   0  0  0  0  0  0  0  0  0  0  0  0
   21.3579   26.8366    5.4441 O   0  0  0  0  0  0  0  0  0  0  0  0
   21.7618   30.0175   10.8814 C   0  0  2  0  0  0  0  0  0  0  0  0
   21.5566   30.8720    9.7186 N   0  0  0  0  0  0  0  0  0  0  0  0
   23.3820   23.9590   12.7063 C   0  0  0  0  0  0  0  0  0  0  0  0
   22.6272   23.5773   11.3975 C   0  0  0  0  0  0  0  0  0  0  0  0
   23.0177   25.3712   13.2343 C   0  0  0  0  0  0  0  0  0  0  0  0
   21.1909   23.2587   11.6558 N   0  0  0  0  0  0  0  0  0  0  0  0
   23.1414   29.3898   16.1655 O   0  0  0  0  0  0  0  0  0  0  0  0
   19.4102   26.5452    6.9052 C   0  0  2  0  0  0  0  0  0  0  0  0
   18.5119   27.1219    5.9607 O   0  0  0  0  0  0  0  0  0  0  0  0
   20.8890   28.7880   10.7279 C   0  0  2  0  0  0  0  0  0  0  0  0
   18.8788   26.7983    8.3276 C   0  0  2  0  0  0  0  0  0  0  0  0
   19.7632   26.2485    9.3102 O   0  0  0  0  0  0  0  0  0  0  0  0
   21.0995   27.8224   11.9639 C   0  0  2  0  0  0  0  0  0  0  0  0
   20.2335   26.6559   11.7985 O   0  0  0  0  0  0  0  0  0  0  0  0
   17.5060   26.2129    8.5252 C   0  0  0  0  0  0  0  0  0  0  0  0
   17.5214   24.8571    8.2869 O   0  0  0  0  0  0  0  0  0  0  0  0
   20.7261   28.5923   13.2758 C   0  0  1  0  0  0  0  0  0  0  0  0
   20.8837   27.7959   14.4139 O   0  0  0  0  0  0  0  0  0  0  0  0
  1  2  1  6  0  0  0
  1  5  1  0  0  0  0
  1 30  1  0  0  0  0
  3  4  1  1  0  0  0
  3  7  1  0  0  0  0
  3 35  1  0  0  0  0
  5  6  1  1  0  0  0
  5 16  1  0  0  0  0
  7 19  1  0  0  0  0
  8  4  1  0  0  0  0
  8 25  2  0  0  0  0
  9  8  1  6  0  0  0
  9 10  1  0  0  0  0
  9 13  1  0  0  0  0
 10 11  1  0  0  0  0
 11 12  1  0  0  0  0
 14 15  1  0  0  0  0
 14 36  1  0  0  0  0
 15 17  1  0  0  0  0
 16 18  1  6  0  0  0
 16 26  1  0  0  0  0
 17 23  1  0  0  0  0
 19 20  1  6  0  0  0
 19 28  1  0  0  0  0
 21 22  1  0  0  0  0
 21 23  1  0  0  0  0
 22 24  1  0  0  0  0
 26 27  1  6  0  0  0
 26 29  1  0  0  0  0
 28  2  1  6  0  0  0
 28 31  1  0  0  0  0
 29 30  1  0  0  0  0
 29 33  1  6  0  0  0
 31 32  1  6  0  0  0
 31 35  1  0  0  0  0
 33 34  1  0  0  0  0
 35 36  1  1  0  0  0
M  END
>  <CHROM.1>
-173.84837618,-143.39173988,179.48651969,-92.69249769,-163.15304897,16.76684579
55.13527134,91.67843117,101.24816013,-73.79582337,49.95403179,148.86007683
58.36797025,174.42948257,21.04683413,27.70257656,11.99640341,-2.50899982
-1.38262463,0.29023521

>  <Name>
2f4u_lig

>  <RI>
0

>  <Rbt.Current_Directory>
/home/itssahil/PROJECTS/Mol_Feturizer/New_Systems/rnas/2f4u

>  <Rbt.Executable>
rbdock ($Id: //depot/dev/client3/rdock/2013.1/src/exe/rbdock.cxx#4 $)

>  <Rbt.Library>
libRbt.so (2013.1, Build901 2013/11/27)

>  <Rbt.Parameter_File>
/export/apps/rDock/src/rDock_2013.1_src/data/scripts/dock_solv.prm

>  <Rbt.Receptor>
prm/blind_docking_80.prm

>  <SCORE>
10.6614

>  <SCORE.INTER>
7.70159

>  <SCORE.INTER.CONST>
1

>  <SCORE.INTER.POLAR>
-0.0046832

>  <SCORE.INTER.ROT>
14

>  <SCORE.INTER.SOLV>
25.0527

>  <SCORE.INTER.VDW>
-16.1342

>  <SCORE.INTER.norm>
0.213933

>  <SCORE.INTRA>
0.684181

>  <SCORE.INTRA.DIHEDRAL>
-9.36833

>  <SCORE.INTRA.DIHEDRAL.0>
26.3805

>  <SCORE.INTRA.POLAR>
0

>  <SCORE.INTRA.POLAR.0>
0

>  <SCORE.INTRA.REPUL>
0.00582722

>  <SCORE.INTRA.REPUL.0>
0

>  <SCORE.INTRA.SOLV>
6.43038

>  <SCORE.INTRA.SOLV.lig_0>
-98.5587

>  <SCORE.INTRA.VDW>
2.12402

>  <SCORE.INTRA.VDW.0>
-2.91167

>  <SCORE.INTRA.norm>
0.019005

>  <SCORE.RESTR>
2.27568

>  <SCORE.RESTR.CAVITY>
2.27568

>  <SCORE.RESTR.norm>
0.0632132

>  <SCORE.SYSTEM>
0

>  <SCORE.SYSTEM.CONST>
0

>  <SCORE.SYSTEM.DIHEDRAL>
0

>  <SCORE.SYSTEM.SOLV>
0

>  <SCORE.SYSTEM.norm>
0

>  <SCORE.heavy>
36

>  <SCORE.norm>
0.296151

>  <RMSD>
29.658

$$$$
2f4u_lig
 OpenBabel11021811433D
libRbt.so/2013.1/901 2013/11/27
 36 37  0  0  0  0  0  0  0  0999 V2000
   21.1452   29.0335   15.9972 C   0  0  2  0  0  0  0  0  0  0  0  0
   22.4144   28.6055   15.3776 O   0  0  0  0  0  0  0  0  0  0  0  0
   21.4324   27.7724   11.2259 C   0  0  2  0  0  0  0  0  0  0  0  0
   21.5328   27.2005    9.8557 N   0  0  0  0  0  0  0  0  0  0  0  0
   20.8738   30.4884   15.5035 C   0  0  2  0  0  0  0  0  0  0  0  0
   20.7882   30.5833   14.0345 N   0  0  0  0  0  0  0  0  0  0  0  0
   22.7027   28.6154   11.5985 C   0  0  0  0  0  0  0  0  0  0  0  0
   22.7748   25.9202    9.7813 C   0  0  0  0  0  0  0  0  0  0  0  0
   22.4956   25.9325    8.3111 C   0  0  1  0  0  0  0  0  0  0  0  0
   23.7104   26.5666    7.6244 C   0  0  0  0  0  0  0  0  0  0  0  0
   25.0099   25.7415    7.6635 C   0  0  0  0  0  0  0  0  0  0  0  0
   26.0508   26.4774    6.9431 N   0  0  0  0  0  0  0  0  0  0  0  0
   22.3711   24.6223    7.8290 O   0  0  0  0  0  0  0  0  0  0  0  0
   18.7662   25.5820   11.5447 C   0  0  0  0  0  0  0  0  0  0  0  0
   18.3468   26.3837   10.3215 C   0  0  0  0  0  0  0  0  0  0  0  0
   22.0104   31.4226   16.0364 C   0  0  1  0  0  0  0  0  0  0  0  0
   18.7762   25.7954    9.0368 N   0  0  0  0  0  0  0  0  0  0  0  0
   21.8142   32.7659   15.6024 O   0  0  0  0  0  0  0  0  0  0  0  0
   22.6133   29.1572   13.0397 C   0  0  2  0  0  0  0  0  0  0  0  0
   23.8131   29.9017   13.4009 N   0  0  0  0  0  0  0  0  0  0  0  0
   18.9826   26.0240    6.5660 C   0  0  0  0  0  0  0  0  0  0  0  0
   19.5849   24.5922    6.4412 C   0  0  0  0  0  0  0  0  0  0  0  0
   19.2502   26.6835    7.9441 C   0  0  0  0  0  0  0  0  0  0  0  0
   18.8529   23.6043    7.2894 N   0  0  0  0  0  0  0  0  0  0  0  0
   23.4394   25.4400   10.4807 O   0  0  0  0  0  0  0  0  0  0  0  0
   22.0313   31.3254   17.5750 C   0  0  2  0  0  0  0  0  0  0  0  0
   23.0455   32.1388   18.1594 O   0  0  0  0  0  0  0  0  0  0  0  0
   22.4476   28.0163   14.0236 C   0  0  2  0  0  0  0  0  0  0  0  0
   22.2278   29.8680   18.0300 C   0  0  2  0  0  0  0  0  0  0  0  0
   21.2371   29.0123   17.4499 O   0  0  0  0  0  0  0  0  0  0  0  0
   21.1406   27.1941   13.6769 C   0  0  2  0  0  0  0  0  0  0  0  0
   21.0160   26.0913   14.6290 O   0  0  0  0  0  0  0  0  0  0  0  0
   22.1690   29.7362   19.5284 C   0  0  0  0  0  0  0  0  0  0  0  0
   20.9997   30.2763   20.0142 O   0  0  0  0  0  0  0  0  0  0  0  0
   21.2654   26.6383   12.2179 C   0  0  1  0  0  0  0  0  0  0  0  0
   20.1434   25.8935   11.8429 O   0  0  0  0  0  0  0  0  0  0  0  0
  1  2  1  6  0  0  0
  1  5  1  0  0  0  0
  1 30  1  0  0  0  0
  3  4  1  6  0  0  0
  3  7  1  0  0  0  0
  3 35  1  0  0  0  0
  5  6  1  6  0  0  0
  5 16  1  0  0  0  0
  7 19  1  0  0  0  0
  8  4  1  0  0  0  0
  8 25  2  0  0  0  0
  9  8  1  1  0  0  0
  9 10  1  0  0  0  0
  9 13  1  0  0  0  0
 10 11  1  0  0  0  0
 11 12  1  0  0  0  0
 14 15  1  0  0  0  0
 14 36  1  0  0  0  0
 15 17  1  0  0  0  0
 16 18  1  1  0  0  0
 16 26  1  0  0  0  0
 17 23  1  0  0  0  0
 19 20  1  1  0  0  0
 19 28  1  0  0  0  0
 21 22  1  0  0  0  0
 21 23  1  0  0  0  0
 22 24  1  0  0  0  0
 26 27  1  6  0  0  0
 26 29  1  0  0  0  0
 28  2  1  1  0  0  0
 28 31  1  0  0  0  0
 29 30  1  0  0  0  0
 29 33  1  1  0  0  0
 31 32  1  1  0  0  0
 31 35  1  0  0  0  0
 33 34  1  0  0  0  0
 35 36  1  6  0  0  0
M  END
>  <CHROM.1>
-85.55011277,69.62024480,108.47203847,68.46331930,178.82988361,80.63898198
65.29061156,-140.95827017,-152.20575495,70.38742052,-54.31620468,89.55924578
54.41892062,-61.28290128,21.59034880,27.81202105,12.45486728,1.51187342,0.33490335
1.10451381

>  <Name>
2f4u_lig

>  <RI>
0

>  <Rbt.Current_Directory>
/home/itssahil/PROJECTS/Mol_Feturizer/New_Systems/rnas/2f4u

>  <Rbt.Executable>
rbdock ($Id: //depot/dev/client3/rdock/2013.1/src/exe/rbdock.cxx#4 $)

>  <Rbt.Library>
libRbt.so (2013.1, Build901 2013/11/27)

>  <Rbt.Parameter_File>
/export/apps/rDock/src/rDock_2013.1_src/data/scripts/dock_solv.prm

>  <Rbt.Receptor>
prm/blind_docking_80.prm

>  <SCORE>
-5.77288

>  <SCORE.INTER>
-5.04713

>  <SCORE.INTER.CONST>
1

>  <SCORE.INTER.POLAR>
-1.13591

>  <SCORE.INTER.ROT>
14

>  <SCORE.INTER.SOLV>
15.8259

>  <SCORE.INTER.VDW>
-17.787

>  <SCORE.INTER.norm>
-0.140198

>  <SCORE.INTRA>
-1.93553

>  <SCORE.INTRA.DIHEDRAL>
-13.7338

>  <SCORE.INTRA.DIHEDRAL.0>
26.3805

>  <SCORE.INTRA.POLAR>
0

>  <SCORE.INTRA.POLAR.0>
0

>  <SCORE.INTRA.REPUL>
0

>  <SCORE.INTRA.REPUL.0>
0

>  <SCORE.INTRA.SOLV>
11.7592

>  <SCORE.INTRA.SOLV.lig_0>
-98.5587

>  <SCORE.INTRA.VDW>
-0.948247

>  <SCORE.INTRA.VDW.0>
-2.91167

>  <SCORE.INTRA.norm>
-0.0537646

>  <SCORE.RESTR>
1.20978

>  <SCORE.RESTR.CAVITY>
1.20978

>  <SCORE.RESTR.norm>
0.0336049

>  <SCORE.SYSTEM>
0

>  <SCORE.SYSTEM.CONST>
0

>  <SCORE.SYSTEM.DIHEDRAL>
0

>  <SCORE.SYSTEM.SOLV>
0

>  <SCORE.SYSTEM.norm>
0

>  <SCORE.heavy>
36

>  <SCORE.norm>
-0.160358

>  <RMSD>
29.659

$$$$
2f4u_lig
 OpenBabel11021811433D
libRbt.so/2013.1/901 2013/11/27
 36 37  0  0  0  0  0  0  0  0999 V2000
   21.3860   29.4667   15.8018 C   0  0  2  0  0  0  0  0  0  0  0  0
   22.6473   29.2773   15.0594 O   0  0  0  0  0  0  0  0  0  0  0  0
   22.7688   28.2143   10.8462 C   0  0  2  0  0  0  0  0  0  0  0  0
   22.8779   27.3772    9.6206 N   0  0  0  0  0  0  0  0  0  0  0  0
   20.9329   30.9377   15.5474 C   0  0  2  0  0  0  0  0  0  0  0  0
   20.7377   31.2326   14.1159 N   0  0  0  0  0  0  0  0  0  0  0  0
   24.0539   28.1057   11.7406 C   0  0  0  0  0  0  0  0  0  0  0  0
   24.5351   27.4185    8.9577 C   0  0  0  0  0  0  0  0  0  0  0  0
   23.9487   26.6357    7.8250 C   0  0  1  0  0  0  0  0  0  0  0  0
   25.0530   26.4587    6.7769 C   0  0  0  0  0  0  0  0  0  0  0  0
   24.6070   25.8722    5.4246 C   0  0  0  0  0  0  0  0  0  0  0  0
   24.3455   24.4424    5.6005 N   0  0  0  0  0  0  0  0  0  0  0  0
   23.5689   25.3592    8.2615 O   0  0  0  0  0  0  0  0  0  0  0  0
   19.4267   27.4494    9.8572 C   0  0  0  0  0  0  0  0  0  0  0  0
   20.1180   26.8166    8.6587 C   0  0  0  0  0  0  0  0  0  0  0  0
   22.0008   31.9071   16.1544 C   0  0  1  0  0  0  0  0  0  0  0  0
   20.1309   27.6657    7.4505 N   0  0  0  0  0  0  0  0  0  0  0  0
   21.6378   33.2683   15.9381 O   0  0  0  0  0  0  0  0  0  0  0  0
   23.9083   28.9327   13.0342 C   0  0  2  0  0  0  0  0  0  0  0  0
   25.0833   28.7954   13.8856 N   0  0  0  0  0  0  0  0  0  0  0  0
   20.0315   27.4870    4.9689 C   0  0  0  0  0  0  0  0  0  0  0  0
   21.2821   26.5631    4.8664 C   0  0  0  0  0  0  0  0  0  0  0  0
   19.2546   27.3213    6.3011 C   0  0  0  0  0  0  0  0  0  0  0  0
   20.9214   25.1201    5.0049 N   0  0  0  0  0  0  0  0  0  0  0  0
   25.4742   27.8663    9.2388 O   0  0  0  0  0  0  0  0  0  0  0  0
   22.1367   31.5926   17.6577 C   0  0  2  0  0  0  0  0  0  0  0  0
   23.0991   32.4221   18.3038 O   0  0  0  0  0  0  0  0  0  0  0  0
   22.6958   28.4751   13.8201 C   0  0  2  0  0  0  0  0  0  0  0  0
   22.5131   30.1163   17.8775 C   0  0  2  0  0  0  0  0  0  0  0  0
   21.5787   29.2472   17.2281 O   0  0  0  0  0  0  0  0  0  0  0  0
   21.3930   28.6289   12.9349 C   0  0  2  0  0  0  0  0  0  0  0  0
   20.2437   28.1639   13.7101 O   0  0  0  0  0  0  0  0  0  0  0  0
   22.5708   29.7647   19.3401 C   0  0  0  0  0  0  0  0  0  0  0  0
   23.8776   29.6902   19.7666 O   0  0  0  0  0  0  0  0  0  0  0  0
   21.5575   27.7645   11.6391 C   0  0  1  0  0  0  0  0  0  0  0  0
   20.4371   27.8481   10.8074 O   0  0  0  0  0  0  0  0  0  0  0  0
  1  2  1  6  0  0  0
  1  5  1  0  0  0  0
  1 30  1  0  0  0  0
  3  4  1  6  0  0  0
  3  7  1  0  0  0  0
  3 35  1  0  0  0  0
  5  6  1  6  0  0  0
  5 16  1  0  0  0  0
  7 19  1  0  0  0  0
  8  4  1  0  0  0  0
  8 25  2  0  0  0  0
  9  8  1  1  0  0  0
  9 10  1  0  0  0  0
  9 13  1  0  0  0  0
 10 11  1  0  0  0  0
 11 12  1  0  0  0  0
 14 15  1  0  0  0  0
 14 36  1  0  0  0  0
 15 17  1  0  0  0  0
 16 18  1  1  0  0  0
 16 26  1  0  0  0  0
 17 23  1  0  0  0  0
 19 20  1  1  0  0  0
 19 28  1  0  0  0  0
 21 22  1  0  0  0  0
 21 23  1  0  0  0  0
 22 24  1  0  0  0  0
 26 27  1  6  0  0  0
 26 29  1  0  0  0  0
 28  2  1  1  0  0  0
 28 31  1  0  0  0  0
 29 30  1  0  0  0  0
 29 33  1  1  0  0  0
 31 32  1  1  0  0  0
 31 35  1  0  0  0  0
 33 34  1  0  0  0  0
 35 36  1  6  0  0  0
M  END
>  <CHROM.1>
-106.72314227,-38.23073454,175.45814412,-170.68147331,-73.89542545,-106.41058728
-49.62130494,-107.26769715,-137.14817016,58.04515801,60.77806954,157.08524220
-103.16526728,90.91262690,22.29945413,28.44891867,11.82988887,1.56562673
-0.24957353,1.18709053

>  <Name>
2f4u_lig

>  <RI>
0

>  <Rbt.Current_Directory>
/home/itssahil/PROJECTS/Mol_Feturizer/New_Systems/rnas/2f4u

>  <Rbt.Executable>
rbdock ($Id: //depot/dev/client3/rdock/2013.1/src/exe/rbdock.cxx#4 $)

>  <Rbt.Library>
libRbt.so (2013.1, Build901 2013/11/27)

>  <Rbt.Parameter_File>
/export/apps/rDock/src/rDock_2013.1_src/data/scripts/dock_solv.prm

>  <Rbt.Receptor>
prm/blind_docking_100.prm

>  <SCORE>
4.27843

>  <SCORE.INTER>
-7.35639

>  <SCORE.INTER.CONST>
1

>  <SCORE.INTER.POLAR>
-1.38213

>  <SCORE.INTER.ROT>
14

>  <SCORE.INTER.SOLV>
25.3674

>  <SCORE.INTER.VDW>
-21.6863

>  <SCORE.INTER.norm>
-0.204344

>  <SCORE.INTRA>
4.17942

>  <SCORE.INTRA.DIHEDRAL>
-0.0951314

>  <SCORE.INTRA.DIHEDRAL.0>
26.3805

>  <SCORE.INTRA.POLAR>
0

>  <SCORE.INTRA.POLAR.0>
0

>  <SCORE.INTRA.REPUL>
0

>  <SCORE.INTRA.REPUL.0>
0

>  <SCORE.INTRA.SOLV>
8.96592

>  <SCORE.INTRA.SOLV.lig_0>
-98.5587

>  <SCORE.INTRA.VDW>
-0.255973

>  <SCORE.INTRA.VDW.0>
-2.91167

>  <SCORE.INTRA.norm>
0.116095

>  <SCORE.RESTR>
7.45539

>  <SCORE.RESTR.CAVITY>
7.45539

>  <SCORE.RESTR.norm>
0.207094

>  <SCORE.SYSTEM>
0

>  <SCORE.SYSTEM.CONST>
0

>  <SCORE.SYSTEM.DIHEDRAL>
0

>  <SCORE.SYSTEM.SOLV>
0

>  <SCORE.SYSTEM.norm>
0

>  <SCORE.heavy>
36

>  <SCORE.norm>
0.118845

>  <RMSD>
29.687

$$$$
2f4u_lig
 OpenBabel11021811433D
libRbt.so/2013.1/901 2013/11/27
 36 37  0  0  0  0  0  0  0  0999 V2000
   20.9827   30.5428   17.0114 C   0  0  2  0  0  0  0  0  0  0  0  0
   22.0458   30.1587   16.0627 O   0  0  0  0  0  0  0  0  0  0  0  0
   22.3862   26.8015   13.3225 C   0  0  2  0  0  0  0  0  0  0  0  0
   22.0509   25.8613   12.2186 N   0  0  0  0  0  0  0  0  0  0  0  0
   20.9555   32.1023   17.0466 C   0  0  2  0  0  0  0  0  0  0  0  0
   20.7026   32.6963   15.7209 N   0  0  0  0  0  0  0  0  0  0  0  0
   21.2641   26.8340   14.4194 C   0  0  0  0  0  0  0  0  0  0  0  0
   21.2390   24.3987   12.8424 C   0  0  0  0  0  0  0  0  0  0  0  0
   21.3490   23.9095   11.4323 C   0  0  1  0  0  0  0  0  0  0  0  0
   21.7854   22.4415   11.4947 C   0  0  0  0  0  0  0  0  0  0  0  0
   22.1958   21.8058   10.1535 C   0  0  0  0  0  0  0  0  0  0  0  0
   23.4484   22.4209    9.7103 N   0  0  0  0  0  0  0  0  0  0  0  0
   20.0973   23.9540   10.8033 O   0  0  0  0  0  0  0  0  0  0  0  0
   24.1554   27.9345   10.4535 C   0  0  0  0  0  0  0  0  0  0  0  0
   23.8360   26.5260    9.9751 C   0  0  0  0  0  0  0  0  0  0  0  0
   22.3192   32.6182   17.6148 C   0  0  1  0  0  0  0  0  0  0  0  0
   23.6566   26.4101    8.5138 N   0  0  0  0  0  0  0  0  0  0  0  0
   22.3497   34.0425   17.6574 O   0  0  0  0  0  0  0  0  0  0  0  0
   21.5950   27.8515   15.5301 C   0  0  2  0  0  0  0  0  0  0  0  0
   20.5314   27.9142   16.5247 N   0  0  0  0  0  0  0  0  0  0  0  0
   22.7170   25.2937    6.4962 C   0  0  0  0  0  0  0  0  0  0  0  0
   21.2461   25.8081    6.5003 C   0  0  0  0  0  0  0  0  0  0  0  0
   23.3010   25.0956    7.9194 C   0  0  0  0  0  0  0  0  0  0  0  0
   21.1408   27.1896    7.0584 N   0  0  0  0  0  0  0  0  0  0  0  0
   20.9047   24.0452   13.8039 O   0  0  0  0  0  0  0  0  0  0  0  0
   22.5177   32.0086   19.0170 C   0  0  2  0  0  0  0  0  0  0  0  0
   23.7444   32.4136   19.6193 O   0  0  0  0  0  0  0  0  0  0  0  0
   21.7772   29.2360   14.9409 C   0  0  2  0  0  0  0  0  0  0  0  0
   22.4667   30.4712   18.9590 C   0  0  2  0  0  0  0  0  0  0  0  0
   21.2547   30.0217   18.3433 O   0  0  0  0  0  0  0  0  0  0  0  0
   22.9409   29.2142   13.8686 C   0  0  2  0  0  0  0  0  0  0  0  0
   23.0821   30.5559   13.3048 O   0  0  0  0  0  0  0  0  0  0  0  0
   22.5757   29.8550   20.3282 C   0  0  0  0  0  0  0  0  0  0  0  0
   23.8938   29.6172   20.6461 O   0  0  0  0  0  0  0  0  0  0  0  0
   22.5714   28.1899   12.7427 C   0  0  1  0  0  0  0  0  0  0  0  0
   23.5564   28.1207   11.7531 O   0  0  0  0  0  0  0  0  0  0  0  0
  1  2  1  6  0  0  0
  1  5  1  0  0  0  0
  1 30  1  0  0  0  0
  3  4  1  6  0  0  0
  3  7  1  0  0  0  0
  3 35  1  0  0  0  0
  5  6  1  6  0  0  0
  5 16  1  0  0  0  0
  7 19  1  0  0  0  0
  8  4  1  0  0  0  0
  8 25  2  0  0  0  0
  9  8  1  1  0  0  0
  9 10  1  0  0  0  0
  9 13  1  0  0  0  0
 10 11  1  0  0  0  0
 11 12  1  0  0  0  0
 14 15  1  0  0  0  0
 14 36  1  0  0  0  0
 15 17  1  0  0  0  0
 16 18  1  1  0  0  0
 16 26  1  0  0  0  0
 17 23  1  0  0  0  0
 19 20  1  1  0  0  0
 19 28  1  0  0  0  0
 21 22  1  0  0  0  0
 21 23  1  0  0  0  0
 22 24  1  0  0  0  0
 26 27  1  6  0  0  0
 26 29  1  0  0  0  0
 28  2  1  1  0  0  0
 28 31  1  0  0  0  0
 29 30  1  0  0  0  0
 29 33  1  1  0  0  0
 31 32  1  6  0  0  0
 31 35  1  0  0  0  0
 33 34  1  0  0  0  0
 35 36  1  6  0  0  0
M  END
>  <CHROM.1>
-126.70476736,-37.64454489,137.16695200,-169.83313290,68.71304375,146.46499578
-58.32220187,-178.19912486,161.38877526,66.08488005,-76.37028542,-71.90782548
-90.12372154,87.47267722,22.19736141,27.92701851,13.75191755,1.55524057,1.40562673
0.95316852

>  <Name>
2f4u_lig

>  <RI>
0

>  <Rbt.Current_Directory>
/home/itssahil/PROJECTS/Mol_Feturizer/New_Systems/rnas/2f4u

>  <Rbt.Executable>
rbdock ($Id: //depot/dev/client3/rdock/2013.1/src/exe/rbdock.cxx#4 $)

>  <Rbt.Library>
libRbt.so (2013.1, Build901 2013/11/27)

>  <Rbt.Parameter_File>
/export/apps/rDock/src/rDock_2013.1_src/data/scripts/dock_solv.prm

>  <Rbt.Receptor>
prm/blind_docking_80.prm

>  <SCORE>
0.242992

>  <SCORE.INTER>
-3.53888

>  <SCORE.INTER.CONST>
1

>  <SCORE.INTER.POLAR>
-0.910263

>  <SCORE.INTER.ROT>
14

>  <SCORE.INTER.SOLV>
22.7665

>  <SCORE.INTER.VDW>
-19.8472

>  <SCORE.INTER.norm>
-0.0983023

>  <SCORE.INTRA>
0.267371

>  <SCORE.INTRA.DIHEDRAL>
-5.26806

>  <SCORE.INTRA.DIHEDRAL.0>
26.3805

>  <SCORE.INTRA.POLAR>
0

>  <SCORE.INTRA.POLAR.0>
0

>  <SCORE.INTRA.REPUL>
0

>  <SCORE.INTRA.REPUL.0>
0

>  <SCORE.INTRA.SOLV>
7.26868

>  <SCORE.INTRA.SOLV.lig_0>
-98.5587

>  <SCORE.INTRA.VDW>
-0.732938

>  <SCORE.INTRA.VDW.0>
-2.91167

>  <SCORE.INTRA.norm>
0.00742698

>  <SCORE.RESTR>
3.51451

>  <SCORE.RESTR.CAVITY>
3.51451

>  <SCORE.RESTR.norm>
0.0976251

>  <SCORE.SYSTEM>
0

>  <SCORE.SYSTEM.CONST>
0

>  <SCORE.SYSTEM.DIHEDRAL>
0

>  <SCORE.SYSTEM.SOLV>
0

>  <SCORE.SYSTEM.norm>
0

>  <SCORE.heavy>
36

>  <SCORE.norm>
0.00674978

>  <RMSD>
29.799

$$$$
2f4u_lig
 OpenBabel11021811433D
libRbt.so/2013.1/901 2013/11/27
 36 37  0  0  0  0  0  0  0  0999 V2000
   21.0608   30.0520   15.7284 C   0  0  2  0  0  0  0  0  0  0  0  0
   22.3443   29.3621   15.4953 O   0  0  0  0  0  0  0  0  0  0  0  0
   21.8060   27.1286   11.8052 C   0  0  2  0  0  0  0  0  0  0  0  0
   22.0085   26.0862   10.7625 N   0  0  0  0  0  0  0  0  0  0  0  0
   21.4045   31.5360   16.0656 C   0  0  2  0  0  0  0  0  0  0  0  0
   22.1602   32.2029   14.9893 N   0  0  0  0  0  0  0  0  0  0  0  0
   23.1141   27.9575   12.0602 C   0  0  0  0  0  0  0  0  0  0  0  0
   23.0904   26.6711    9.4683 C   0  0  0  0  0  0  0  0  0  0  0  0
   22.7462   25.3807    8.7931 C   0  0  1  0  0  0  0  0  0  0  0  0
   21.5363   25.6497    7.8913 C   0  0  0  0  0  0  0  0  0  0  0  0
   21.7774   26.6134    6.7146 C   0  0  0  0  0  0  0  0  0  0  0  0
   22.7594   26.0096    5.8118 N   0  0  0  0  0  0  0  0  0  0  0  0
   23.8033   24.9644    7.9723 O   0  0  0  0  0  0  0  0  0  0  0  0
   19.3775   24.6832   12.2551 C   0  0  0  0  0  0  0  0  0  0  0  0
   19.5202   24.7310   10.7412 C   0  0  0  0  0  0  0  0  0  0  0  0
   22.2224   31.5743   17.3991 C   0  0  1  0  0  0  0  0  0  0  0  0
   18.4792   23.9790   10.0119 N   0  0  0  0  0  0  0  0  0  0  0  0
   22.5719   32.9116   17.7467 O   0  0  0  0  0  0  0  0  0  0  0  0
   22.9095   28.9974   13.1807 C   0  0  2  0  0  0  0  0  0  0  0  0
   24.1372   29.7358   13.4483 N   0  0  0  0  0  0  0  0  0  0  0  0
   17.3991   24.4354    7.8153 C   0  0  0  0  0  0  0  0  0  0  0  0
   17.4484   25.9929    7.8104 C   0  0  0  0  0  0  0  0  0  0  0  0
   18.6046   23.7863    8.5440 C   0  0  0  0  0  0  0  0  0  0  0  0
   18.4959   26.5140    6.8816 N   0  0  0  0  0  0  0  0  0  0  0  0
   23.6540   27.5685    9.2724 O   0  0  0  0  0  0  0  0  0  0  0  0
   21.3755   30.9088   18.5023 C   0  0  2  0  0  0  0  0  0  0  0  0
   22.0415   30.8858   19.7622 O   0  0  0  0  0  0  0  0  0  0  0  0
   22.4764   28.3143   14.4625 C   0  0  2  0  0  0  0  0  0  0  0  0
   20.9917   29.4714   18.1072 C   0  0  2  0  0  0  0  0  0  0  0  0
   20.3339   29.4479   16.8357 O   0  0  0  0  0  0  0  0  0  0  0  0
   21.1316   27.5168   14.2180 C   0  0  2  0  0  0  0  0  0  0  0  0
   20.7479   26.8545   15.4638 O   0  0  0  0  0  0  0  0  0  0  0  0
   20.0952   28.8292   19.1319 C   0  0  0  0  0  0  0  0  0  0  0  0
   19.1266   29.7147   19.5474 O   0  0  0  0  0  0  0  0  0  0  0  0
   21.3715   26.4549   13.0919 C   0  0  1  0  0  0  0  0  0  0  0  0
   20.2220   25.7056   12.8245 O   0  0  0  0  0  0  0  0  0  0  0  0
  1  2  1  1  0  0  0
  1  5  1  0  0  0  0
  1 30  1  0  0  0  0
  3  4  1  6  0  0  0
  3  7  1  0  0  0  0
  3 35  1  0  0  0  0
  5  6  1  6  0  0  0
  5 16  1  0  0  0  0
  7 19  1  0  0  0  0
  8  4  1  0  0  0  0
  8 25  2  0  0  0  0
  9  8  1  6  0  0  0
  9 10  1  0  0  0  0
  9 13  1  0  0  0  0
 10 11  1  0  0  0  0
 11 12  1  0  0  0  0
 14 15  1  0  0  0  0
 14 36  1  0  0  0  0
 15 17  1  0  0  0  0
 16 18  1  1  0  0  0
 16 26  1  0  0  0  0
 17 23  1  0  0  0  0
 19 20  1  1  0  0  0
 19 28  1  0  0  0  0
 21 22  1  0  0  0  0
 21 23  1  0  0  0  0
 22 24  1  0  0  0  0
 26 27  1  1  0  0  0
 26 29  1  0  0  0  0
 28  2  1  1  0  0  0
 28 31  1  0  0  0  0
 29 30  1  0  0  0  0
 29 33  1  1  0  0  0
 31 32  1  1  0  0  0
 31 35  1  0  0  0  0
 33 34  1  0  0  0  0
 35 36  1  6  0  0  0
M  END
>  <CHROM.1>
-143.38528475,-36.76768801,92.02841238,65.27444526,63.73034964,-165.68598840
-53.31943808,-171.60587987,-119.07140640,72.64718027,72.46090229,91.18742949
43.27560142,64.42508598,21.22722541,27.74986120,12.84429881,-1.48391006,-0.57219506
-2.01506191

>  <Name>
2f4u_lig

>  <RI>
0

>  <Rbt.Current_Directory>
/home/itssahil/PROJECTS/Mol_Feturizer/New_Systems/rnas/2f4u

>  <Rbt.Executable>
rbdock ($Id: //depot/dev/client3/rdock/2013.1/src/exe/rbdock.cxx#4 $)

>  <Rbt.Library>
libRbt.so (2013.1, Build901 2013/11/27)

>  <Rbt.Parameter_File>
/export/apps/rDock/src/rDock_2013.1_src/data/scripts/dock_solv.prm

>  <Rbt.Receptor>
prm/blind_docking_80.prm

>  <SCORE>
3.05206

>  <SCORE.INTER>
0.645159

>  <SCORE.INTER.CONST>
1

>  <SCORE.INTER.POLAR>
-1.6401

>  <SCORE.INTER.ROT>
14

>  <SCORE.INTER.SOLV>
19.4632

>  <SCORE.INTER.VDW>
-13.524

>  <SCORE.INTER.norm>
0.0179211

>  <SCORE.INTRA>
-1.51256

>  <SCORE.INTRA.DIHEDRAL>
-10.9545

>  <SCORE.INTRA.DIHEDRAL.0>
26.3805

>  <SCORE.INTRA.POLAR>
0

>  <SCORE.INTRA.POLAR.0>
0

>  <SCORE.INTRA.REPUL>
0

>  <SCORE.INTRA.REPUL.0>
0

>  <SCORE.INTRA.SOLV>
8.18279

>  <SCORE.INTRA.SOLV.lig_0>
-98.5587

>  <SCORE.INTRA.VDW>
-0.126704

>  <SCORE.INTRA.VDW.0>
-2.91167

>  <SCORE.INTRA.norm>
-0.0420155

>  <SCORE.RESTR>
3.91946

>  <SCORE.RESTR.CAVITY>
3.91946

>  <SCORE.RESTR.norm>
0.108874

>  <SCORE.SYSTEM>
0

>  <SCORE.SYSTEM.CONST>
0

>  <SCORE.SYSTEM.DIHEDRAL>
0

>  <SCORE.SYSTEM.SOLV>
0

>  <SCORE.SYSTEM.norm>
0

>  <SCORE.heavy>
36

>  <SCORE.norm>
0.0847795

>  <RMSD>
29.959

$$$$
2f4u_lig
 OpenBabel11021811433D
libRbt.so/2013.1/901 2013/11/27
 36 37  0  0  0  0  0  0  0  0999 V2000
   21.1625   29.1873   16.0563 C   0  0  2  0  0  0  0  0  0  0  0  0
   22.4214   28.8224   15.3781 O   0  0  0  0  0  0  0  0  0  0  0  0
   22.0343   28.0632   11.1156 C   0  0  2  0  0  0  0  0  0  0  0  0
   22.0988   27.3433    9.8147 N   0  0  0  0  0  0  0  0  0  0  0  0
   20.8491   30.6623   15.6561 C   0  0  2  0  0  0  0  0  0  0  0  0
   20.7197   30.8403   14.1981 N   0  0  0  0  0  0  0  0  0  0  0  0
   23.4482   28.1782   11.7870 C   0  0  0  0  0  0  0  0  0  0  0  0
   22.8540   25.7367   10.0041 C   0  0  0  0  0  0  0  0  0  0  0  0
   22.7648   25.6764    8.5114 C   0  0  1  0  0  0  0  0  0  0  0  0
   24.1994   25.6648    7.9718 C   0  0  0  0  0  0  0  0  0  0  0  0
   24.9380   27.0158    8.0003 C   0  0  0  0  0  0  0  0  0  0  0  0
   24.9922   27.4879    9.3852 N   0  0  0  0  0  0  0  0  0  0  0  0
   22.1501   24.4829    8.1090 O   0  0  0  0  0  0  0  0  0  0  0  0
   18.6877   27.5895   10.6381 C   0  0  0  0  0  0  0  0  0  0  0  0
   17.6751   26.4564   10.7124 C   0  0  0  0  0  0  0  0  0  0  0  0
   21.9824   31.5876   16.2113 C   0  0  1  0  0  0  0  0  0  0  0  0
   16.9163   26.2409    9.4639 N   0  0  0  0  0  0  0  0  0  0  0  0
   21.7480   32.9494   15.8621 O   0  0  0  0  0  0  0  0  0  0  0  0
   23.3621   28.8764   13.1595 C   0  0  2  0  0  0  0  0  0  0  0  0
   24.6682   28.9425   13.8028 N   0  0  0  0  0  0  0  0  0  0  0  0
   17.3337   26.2716    7.0093 C   0  0  0  0  0  0  0  0  0  0  0  0
   18.1581   25.6892    5.8222 C   0  0  0  0  0  0  0  0  0  0  0  0
   17.5469   25.5025    8.3392 C   0  0  0  0  0  0  0  0  0  0  0  0
   17.9935   26.5006    4.5788 N   0  0  0  0  0  0  0  0  0  0  0  0
   23.2403   25.1506   10.8218 O   0  0  0  0  0  0  0  0  0  0  0  0
   22.0491   31.4019   17.7404 C   0  0  2  0  0  0  0  0  0  0  0  0
   23.0638   32.2010   18.3433 O   0  0  0  0  0  0  0  0  0  0  0  0
   22.4180   28.1244   14.0763 C   0  0  2  0  0  0  0  0  0  0  0  0
   22.2865   29.9251   18.1039 C   0  0  2  0  0  0  0  0  0  0  0  0
   21.2963   29.0839   17.5022 O   0  0  0  0  0  0  0  0  0  0  0  0
   20.9796   28.0492   13.4210 C   0  0  2  0  0  0  0  0  0  0  0  0
   20.0962   27.3043   14.3169 O   0  0  0  0  0  0  0  0  0  0  0  0
   22.2732   29.7055   19.5931 C   0  0  0  0  0  0  0  0  0  0  0  0
   21.0753   30.1193   20.1305 O   0  0  0  0  0  0  0  0  0  0  0  0
   21.0911   27.3187   12.0400 C   0  0  1  0  0  0  0  0  0  0  0  0
   19.8517   27.2107   11.4025 O   0  0  0  0  0  0  0  0  0  0  0  0
  1  2  1  6  0  0  0
  1  5  1  0  0  0  0
  1 30  1  0  0  0  0
  3  4  1  6  0  0  0
  3  7  1  0  0  0  0
  3 35  1  0  0  0  0
  5  6  1  6  0  0  0
  5 16  1  0  0  0  0
  7 19  1  0  0  0  0
  8  4  1  0  0  0  0
  8 25  2  0  0  0  0
  9  8  1  1  0  0  0
  9 10  1  0  0  0  0
  9 13  1  0  0  0  0
 10 11  1  0  0  0  0
 11 12  1  0  0  0  0
 14 15  1  0  0  0  0
 14 36  1  0  0  0  0
 15 17  1  0  0  0  0
 16 18  1  1  0  0  0
 16 26  1  0  0  0  0
 17 23  1  0  0  0  0
 19 20  1  1  0  0  0
 19 28  1  0  0  0  0
 21 22  1  0  0  0  0
 21 23  1  0  0  0  0
 22 24  1  0  0  0  0
 26 27  1  6  0  0  0
 26 29  1  0  0  0  0
 28  2  1  1  0  0  0
 28 31  1  0  0  0  0
 29 30  1  0  0  0  0
 29 33  1  1  0  0  0
 31 32  1  1  0  0  0
 31 35  1  0  0  0  0
 33 34  1  0  0  0  0
 35 36  1  6  0  0  0
M  END
>  <CHROM.1>
-94.97482061,55.21927292,114.43406241,-75.77819187,59.00638116,-143.36588601
-172.14628879,78.97578509,-132.65429137,-176.58740968,170.59726111,130.72102479
58.00105626,-43.55730188,21.39301451,28.10066599,12.52328946,1.40534590,-0.01025724
1.12827559

>  <Name>
2f4u_lig

>  <RI>
0

>  <Rbt.Current_Directory>
/home/itssahil/PROJECTS/Mol_Feturizer/New_Systems/rnas/2f4u

>  <Rbt.Executable>
rbdock ($Id: //depot/dev/client3/rdock/2013.1/src/exe/rbdock.cxx#4 $)

>  <Rbt.Library>
libRbt.so (2013.1, Build901 2013/11/27)

>  <Rbt.Parameter_File>
/export/apps/rDock/src/rDock_2013.1_src/data/scripts/dock_solv.prm

>  <Rbt.Receptor>
prm/blind_docking_80.prm

>  <SCORE>
-0.114753

>  <SCORE.INTER>
-3.18438

>  <SCORE.INTER.CONST>
1

>  <SCORE.INTER.POLAR>
-1.03923

>  <SCORE.INTER.ROT>
14

>  <SCORE.INTER.SOLV>
17.7095

>  <SCORE.INTER.VDW>
-17.4953

>  <SCORE.INTER.norm>
-0.0884551

>  <SCORE.INTRA>
0.708922

>  <SCORE.INTRA.DIHEDRAL>
-4.89563

>  <SCORE.INTRA.DIHEDRAL.0>
26.3805

>  <SCORE.INTRA.POLAR>
0

>  <SCORE.INTRA.POLAR.0>
0

>  <SCORE.INTRA.REPUL>
0

>  <SCORE.INTRA.REPUL.0>
0

>  <SCORE.INTRA.SOLV>
8.00979

>  <SCORE.INTRA.SOLV.lig_0>
-98.5587

>  <SCORE.INTRA.VDW>
-0.84816

>  <SCORE.INTRA.VDW.0>
-2.91167

>  <SCORE.INTRA.norm>
0.0196923

>  <SCORE.RESTR>
2.36071

>  <SCORE.RESTR.CAVITY>
2.36071

>  <SCORE.RESTR.norm>
0.0655752

>  <SCORE.SYSTEM>
0

>  <SCORE.SYSTEM.CONST>
0

>  <SCORE.SYSTEM.DIHEDRAL>
0

>  <SCORE.SYSTEM.SOLV>
0

>  <SCORE.SYSTEM.norm>
0

>  <SCORE.heavy>
36

>  <SCORE.norm>
-0.00318758

>  <RMSD>
30.017

$$$$
2f4u_lig
 OpenBabel11021811433D
libRbt.so/2013.1/901 2013/11/27
 36 37  0  0  0  0  0  0  0  0999 V2000
   22.3442   29.2914   16.5167 C   0  0  2  0  0  0  0  0  0  0  0  0
   22.6516   29.9140   15.2145 O   0  0  0  0  0  0  0  0  0  0  0  0
   20.0973   28.2562   12.1125 C   0  0  2  0  0  0  0  0  0  0  0  0
   19.6839   27.6896   10.7999 N   0  0  0  0  0  0  0  0  0  0  0  0
   20.8211   29.5140   16.7714 C   0  0  2  0  0  0  0  0  0  0  0  0
   19.9769   28.9340   15.7106 N   0  0  0  0  0  0  0  0  0  0  0  0
   20.7291   29.6843   11.9562 C   0  0  0  0  0  0  0  0  0  0  0  0
   21.0819   27.0078    9.9235 C   0  0  0  0  0  0  0  0  0  0  0  0
   20.1068   26.8187    8.8041 C   0  0  1  0  0  0  0  0  0  0  0  0
   20.7948   25.9491    7.7458 C   0  0  0  0  0  0  0  0  0  0  0  0
   19.9129   25.5078    6.5632 C   0  0  0  0  0  0  0  0  0  0  0  0
   20.6260   24.4736    5.8108 N   0  0  0  0  0  0  0  0  0  0  0  0
   18.9769   26.1234    9.2559 O   0  0  0  0  0  0  0  0  0  0  0  0
   19.7354   24.8973   12.4993 C   0  0  0  0  0  0  0  0  0  0  0  0
   19.9448   23.8314   13.5645 C   0  0  0  0  0  0  0  0  0  0  0  0
   20.5490   31.0501   16.8943 C   0  0  1  0  0  0  0  0  0  0  0  0
   21.2352   23.1203   13.4627 N   0  0  0  0  0  0  0  0  0  0  0  0
   19.1652   31.3083   17.1174 O   0  0  0  0  0  0  0  0  0  0  0  0
   21.2044   30.2390   13.3145 C   0  0  2  0  0  0  0  0  0  0  0  0
   21.8320   31.5456   13.1626 N   0  0  0  0  0  0  0  0  0  0  0  0
   22.9803   22.0771   12.0253 C   0  0  0  0  0  0  0  0  0  0  0  0
   23.6394   23.4615   11.7476 C   0  0  0  0  0  0  0  0  0  0  0  0
   21.4649   22.1722   12.3420 C   0  0  0  0  0  0  0  0  0  0  0  0
   23.6597   24.3234   12.9675 N   0  0  0  0  0  0  0  0  0  0  0  0
   22.1333   26.8752   10.1196 O   0  0  0  0  0  0  0  0  0  0  0  0
   21.4171   31.6020   18.0428 C   0  0  2  0  0  0  0  0  0  0  0  0
   21.2465   33.0047   18.2301 O   0  0  0  0  0  0  0  0  0  0  0  0
   22.2112   29.2984   13.9461 C   0  0  2  0  0  0  0  0  0  0  0  0
   22.9069   31.3025   17.7973 C   0  0  2  0  0  0  0  0  0  0  0  0
   23.1199   29.9023   17.5865 O   0  0  0  0  0  0  0  0  0  0  0  0
   21.5592   27.8706   14.1476 C   0  0  2  0  0  0  0  0  0  0  0  0
   22.5567   26.9808   14.7403 O   0  0  0  0  0  0  0  0  0  0  0  0
   23.7668   31.7591   18.9454 C   0  0  0  0  0  0  0  0  0  0  0  0
   23.5733   33.1001   19.1888 O   0  0  0  0  0  0  0  0  0  0  0  0
   21.1045   27.3215   12.7530 C   0  0  1  0  0  0  0  0  0  0  0  0
   20.5209   26.0551   12.8531 O   0  0  0  0  0  0  0  0  0  0  0  0
  1  2  1  6  0  0  0
  1  5  1  0  0  0  0
  1 30  1  0  0  0  0
  3  4  1  6  0  0  0
  3  7  1  0  0  0  0
  3 35  1  0  0  0  0
  5  6  1  6  0  0  0
  5 16  1  0  0  0  0
  7 19  1  0  0  0  0
  8  4  1  0  0  0  0
  8 25  2  0  0  0  0
  9  8  1  1  0  0  0
  9 10  1  0  0  0  0
  9 13  1  0  0  0  0
 10 11  1  0  0  0  0
 11 12  1  0  0  0  0
 14 15  1  0  0  0  0
 14 36  1  0  0  0  0
 15 17  1  0  0  0  0
 16 18  1  1  0  0  0
 16 26  1  0  0  0  0
 17 23  1  0  0  0  0
 19 20  1  6  0  0  0
 19 28  1  0  0  0  0
 21 22  1  0  0  0  0
 21 23  1  0  0  0  0
 22 24  1  0  0  0  0
 26 27  1  6  0  0  0
 26 29  1  0  0  0  0
 28  2  1  1  0  0  0
 28 31  1  0  0  0  0
 29 30  1  0  0  0  0
 29 33  1  1  0  0  0
 31 32  1  6  0  0  0
 31 35  1  0  0  0  0
 33 34  1  0  0  0  0
 35 36  1  1  0  0  0
M  END
>  <CHROM.1>
-72.89199874,80.01113598,-169.50331118,173.93948518,-168.24148425,-76.54579662
175.39020658,-70.70053342,152.98350975,66.76737280,-54.31004433,114.36877536
-56.16910826,38.16753098,21.37919723,27.86107891,13.50154885,-1.27704468
1.18387438,-2.53914051

>  <Name>
2f4u_lig

>  <RI>
0

>  <Rbt.Current_Directory>
/home/itssahil/PROJECTS/Mol_Feturizer/New_Systems/rnas/2f4u

>  <Rbt.Executable>
rbdock ($Id: //depot/dev/client3/rdock/2013.1/src/exe/rbdock.cxx#4 $)

>  <Rbt.Library>
libRbt.so (2013.1, Build901 2013/11/27)

>  <Rbt.Parameter_File>
/export/apps/rDock/src/rDock_2013.1_src/data/scripts/dock_solv.prm

>  <Rbt.Receptor>
prm/blind_docking_80.prm

>  <SCORE>
2.73361

>  <SCORE.INTER>
-6.20006

>  <SCORE.INTER.CONST>
1

>  <SCORE.INTER.POLAR>
-1.63251

>  <SCORE.INTER.ROT>
14

>  <SCORE.INTER.SOLV>
18.9379

>  <SCORE.INTER.VDW>
-17.9376

>  <SCORE.INTER.norm>
-0.172224

>  <SCORE.INTRA>
4.13426

>  <SCORE.INTRA.DIHEDRAL>
-12.4814

>  <SCORE.INTRA.DIHEDRAL.0>
26.3805

>  <SCORE.INTRA.POLAR>
0

>  <SCORE.INTRA.POLAR.0>
0

>  <SCORE.INTRA.REPUL>
0

>  <SCORE.INTRA.REPUL.0>
0

>  <SCORE.INTRA.SOLV>
11.9106

>  <SCORE.INTRA.SOLV.lig_0>
-98.5587

>  <SCORE.INTRA.VDW>
4.4197

>  <SCORE.INTRA.VDW.0>
-2.91167

>  <SCORE.INTRA.norm>
0.114841

>  <SCORE.RESTR>
4.7994

>  <SCORE.RESTR.CAVITY>
4.7994

>  <SCORE.RESTR.norm>
0.133317

>  <SCORE.SYSTEM>
0

>  <SCORE.SYSTEM.CONST>
0

>  <SCORE.SYSTEM.DIHEDRAL>
0

>  <SCORE.SYSTEM.SOLV>
0

>  <SCORE.SYSTEM.norm>
0

>  <SCORE.heavy>
36

>  <SCORE.norm>
0.0759335

>  <RMSD>
30.027

$$$$
2f4u_lig
 OpenBabel11021811433D
libRbt.so/2013.1/901 2013/11/27
 36 37  0  0  0  0  0  0  0  0999 V2000
   20.9767   30.5250   16.3231 C   0  0  2  0  0  0  0  0  0  0  0  0
   22.1196   29.8349   15.6942 O   0  0  0  0  0  0  0  0  0  0  0  0
   20.3100   27.9268   12.2330 C   0  0  2  0  0  0  0  0  0  0  0  0
   20.1977   27.2397   10.9177 N   0  0  0  0  0  0  0  0  0  0  0  0
   21.4498   31.9773   16.6407 C   0  0  2  0  0  0  0  0  0  0  0  0
   21.8937   32.7061   15.4382 N   0  0  0  0  0  0  0  0  0  0  0  0
   21.0239   29.3184   12.1028 C   0  0  0  0  0  0  0  0  0  0  0  0
   21.7871   27.1257   10.1126 C   0  0  0  0  0  0  0  0  0  0  0  0
   21.0046   26.5795    8.9597 C   0  0  1  0  0  0  0  0  0  0  0  0
   20.8925   27.6981    7.9178 C   0  0  0  0  0  0  0  0  0  0  0  0
   19.9024   27.4452    6.7657 C   0  0  0  0  0  0  0  0  0  0  0  0
   20.4001   26.3282    5.9605 N   0  0  0  0  0  0  0  0  0  0  0  0
   21.6940   25.5135    8.3658 O   0  0  0  0  0  0  0  0  0  0  0  0
   20.2447   24.3961   13.5053 C   0  0  0  0  0  0  0  0  0  0  0  0
   20.9225   23.6092   12.3935 C   0  0  0  0  0  0  0  0  0  0  0  0
   22.6105   31.9124   17.6881 C   0  0  1  0  0  0  0  0  0  0  0  0
   21.2239   22.2064   12.7430 N   0  0  0  0  0  0  0  0  0  0  0  0
   23.0872   33.2177   18.0050 O   0  0  0  0  0  0  0  0  0  0  0  0
   21.1847   29.9970   13.4784 C   0  0  2  0  0  0  0  0  0  0  0  0
   21.8881   31.2683   13.3627 N   0  0  0  0  0  0  0  0  0  0  0  0
   23.0711   22.0844   11.0779 C   0  0  0  0  0  0  0  0  0  0  0  0
   22.6098   23.1129   10.0020 C   0  0  0  0  0  0  0  0  0  0  0  0
   21.8939   21.3292   11.7484 C   0  0  0  0  0  0  0  0  0  0  0  0
   21.3532   22.6799    9.3202 N   0  0  0  0  0  0  0  0  0  0  0  0
   22.8019   27.3972   10.3532 O   0  0  0  0  0  0  0  0  0  0  0  0
   22.0866   31.1845   18.9423 C   0  0  2  0  0  0  0  0  0  0  0  0
   23.0790   31.0656   19.9586 O   0  0  0  0  0  0  0  0  0  0  0  0
   21.9684   29.1040   14.4195 C   0  0  2  0  0  0  0  0  0  0  0  0
   21.5604   29.7831   18.5836 C   0  0  2  0  0  0  0  0  0  0  0  0
   20.5711   29.8563   17.5510 O   0  0  0  0  0  0  0  0  0  0  0  0
   21.2241   27.7177   14.5884 C   0  0  2  0  0  0  0  0  0  0  0  0
   22.0101   26.8714   15.4851 O   0  0  0  0  0  0  0  0  0  0  0  0
   20.9677   29.0845   19.7780 C   0  0  0  0  0  0  0  0  0  0  0  0
   20.0955   29.9186   20.4404 O   0  0  0  0  0  0  0  0  0  0  0  0
   21.0921   27.0405   13.1823 C   0  0  1  0  0  0  0  0  0  0  0  0
   20.4456   25.8031   13.2549 O   0  0  0  0  0  0  0  0  0  0  0  0
  1  2  1  1  0  0  0
  1  5  1  0  0  0  0
  1 30  1  0  0  0  0
  3  4  1  6  0  0  0
  3  7  1  0  0  0  0
  3 35  1  0  0  0  0
  5  6  1  6  0  0  0
  5 16  1  0  0  0  0
  7 19  1  0  0  0  0
  8  4  1  0  0  0  0
  8 25  2  0  0  0  0
  9  8  1  1  0  0  0
  9 10  1  0  0  0  0
  9 13  1  0  0  0  0
 10 11  1  0  0  0  0
 11 12  1  0  0  0  0
 14 15  1  0  0  0  0
 14 36  1  0  0  0  0
 15 17  1  0  0  0  0
 16 18  1  1  0  0  0
 16 26  1  0  0  0  0
 17 23  1  0  0  0  0
 19 20  1  6  0  0  0
 19 28  1  0  0  0  0
 21 22  1  0  0  0  0
 21 23  1  0  0  0  0
 22 24  1  0  0  0  0
 26 27  1  1  0  0  0
 26 29  1  0  0  0  0
 28  2  1  1  0  0  0
 28 31  1  0  0  0  0
 29 30  1  0  0  0  0
 29 33  1  1  0  0  0
 31 32  1  1  0  0  0
 31 35  1  0  0  0  0
 33 34  1  0  0  0  0
 35 36  1  1  0  0  0
M  END
>  <CHROM.1>
-129.27673731,53.16303421,103.54863540,-168.84092567,-66.04562606,159.24674403
-75.82369792,-179.61399965,44.69598820,-31.13221882,-76.79322520,46.07483091
48.38523568,160.85645919,21.44544180,27.80486915,13.58500828,0.61909341,-1.51690900
-0.00483055

>  <Name>
2f4u_lig

>  <RI>
0

>  <Rbt.Current_Directory>
/home/itssahil/PROJECTS/Mol_Feturizer/New_Systems/rnas/2f4u

>  <Rbt.Executable>
rbdock ($Id: //depot/dev/client3/rdock/2013.1/src/exe/rbdock.cxx#4 $)

>  <Rbt.Library>
libRbt.so (2013.1, Build901 2013/11/27)

>  <Rbt.Parameter_File>
/export/apps/rDock/src/rDock_2013.1_src/data/scripts/dock_solv.prm

>  <Rbt.Receptor>
prm/blind_docking_80.prm

>  <SCORE>
2.36826

>  <SCORE.INTER>
-2.95664

>  <SCORE.INTER.CONST>
1

>  <SCORE.INTER.POLAR>
-1.19519

>  <SCORE.INTER.ROT>
14

>  <SCORE.INTER.SOLV>
25.049

>  <SCORE.INTER.VDW>
-19.2701

>  <SCORE.INTER.norm>
-0.082129

>  <SCORE.INTRA>
3.02765

>  <SCORE.INTRA.DIHEDRAL>
-7.26828

>  <SCORE.INTRA.DIHEDRAL.0>
26.3805

>  <SCORE.INTRA.POLAR>
0

>  <SCORE.INTRA.POLAR.0>
0

>  <SCORE.INTRA.REPUL>
0

>  <SCORE.INTRA.REPUL.0>
0

>  <SCORE.INTRA.SOLV>
10.2005

>  <SCORE.INTRA.SOLV.lig_0>
-98.5587

>  <SCORE.INTRA.VDW>
1.56155

>  <SCORE.INTRA.VDW.0>
-2.91167

>  <SCORE.INTRA.norm>
0.0841015

>  <SCORE.RESTR>
2.29725

>  <SCORE.RESTR.CAVITY>
2.29725

>  <SCORE.RESTR.norm>
0.0638126

>  <SCORE.SYSTEM>
0

>  <SCORE.SYSTEM.CONST>
0

>  <SCORE.SYSTEM.DIHEDRAL>
0

>  <SCORE.SYSTEM.SOLV>
0

>  <SCORE.SYSTEM.norm>
0

>  <SCORE.heavy>
36

>  <SCORE.norm>
0.0657851

>  <RMSD>
30.107

$$$$
2f4u_lig
 OpenBabel11021811433D
libRbt.so/2013.1/901 2013/11/27
 36 37  0  0  0  0  0  0  0  0999 V2000
   20.6818   30.5570   16.6746 C   0  0  2  0  0  0  0  0  0  0  0  0
   21.2110   29.4492   15.8557 O   0  0  0  0  0  0  0  0  0  0  0  0
   20.9435   28.4112   11.6431 C   0  0  2  0  0  0  0  0  0  0  0  0
   20.9699   28.5657   10.1631 N   0  0  0  0  0  0  0  0  0  0  0  0
   21.8424   31.5865   16.8395 C   0  0  2  0  0  0  0  0  0  0  0  0
   22.3406   32.0929   15.5474 N   0  0  0  0  0  0  0  0  0  0  0  0
   19.8817   29.3570   12.3075 C   0  0  0  0  0  0  0  0  0  0  0  0
   20.6899   27.0027    9.3471 C   0  0  0  0  0  0  0  0  0  0  0  0
   20.9883   27.7653    8.0944 C   0  0  1  0  0  0  0  0  0  0  0  0
   21.8446   26.8575    7.2044 C   0  0  0  0  0  0  0  0  0  0  0  0
   21.2100   25.5103    6.8123 C   0  0  0  0  0  0  0  0  0  0  0  0
   20.0390   25.7735    5.9735 N   0  0  0  0  0  0  0  0  0  0  0  0
   19.8028   28.0441    7.4008 O   0  0  0  0  0  0  0  0  0  0  0  0
   24.4545   27.1332   11.3427 C   0  0  0  0  0  0  0  0  0  0  0  0
   24.4606   25.9475   12.2960 C   0  0  0  0  0  0  0  0  0  0  0  0
   23.0073   30.9106   17.6364 C   0  0  1  0  0  0  0  0  0  0  0  0
   23.6839   24.7851   11.8198 N   0  0  0  0  0  0  0  0  0  0  0  0
   24.1006   31.8093   17.8051 O   0  0  0  0  0  0  0  0  0  0  0  0
   19.9010   29.2294   13.8443 C   0  0  2  0  0  0  0  0  0  0  0  0
   18.9467   30.1408   14.4632 N   0  0  0  0  0  0  0  0  0  0  0  0
   23.1323   22.3595   11.9276 C   0  0  0  0  0  0  0  0  0  0  0  0
   22.0509   22.5602   10.8237 C   0  0  0  0  0  0  0  0  0  0  0  0
   23.4252   23.6477   12.7401 C   0  0  0  0  0  0  0  0  0  0  0  0
   22.5966   23.2796    9.6338 N   0  0  0  0  0  0  0  0  0  0  0  0
   20.4756   25.9923    9.6546 O   0  0  0  0  0  0  0  0  0  0  0  0
   22.4509   30.4395   18.9949 C   0  0  2  0  0  0  0  0  0  0  0  0
   23.4396   29.7982   19.7967 O   0  0  0  0  0  0  0  0  0  0  0  0
   21.2812   29.5481   14.3835 C   0  0  2  0  0  0  0  0  0  0  0  0
   21.2612   29.4827   18.7985 C   0  0  2  0  0  0  0  0  0  0  0  0
   20.2501   30.0834   17.9818 O   0  0  0  0  0  0  0  0  0  0  0  0
   22.3457   28.5634   13.7497 C   0  0  2  0  0  0  0  0  0  0  0  0
   23.6677   28.9050   14.2727 O   0  0  0  0  0  0  0  0  0  0  0  0
   20.6483   29.0739   20.1113 C   0  0  0  0  0  0  0  0  0  0  0  0
   20.3495   30.1831   20.8698 O   0  0  0  0  0  0  0  0  0  0  0  0
   22.3207   28.7271   12.1922 C   0  0  1  0  0  0  0  0  0  0  0  0
   23.2439   27.8875   11.5620 O   0  0  0  0  0  0  0  0  0  0  0  0
  1  2  1  6  0  0  0
  1  5  1  0  0  0  0
  1 30  1  0  0  0  0
  3  4  1  6  0  0  0
  3  7  1  0  0  0  0
  3 35  1  0  0  0  0
  5  6  1  6  0  0  0
  5 16  1  0  0  0  0
  7 19  1  0  0  0  0
  8  4  1  0  0  0  0
  8 25  2  0  0  0  0
  9  8  1  1  0  0  0
  9 10  1  0  0  0  0
  9 13  1  0  0  0  0
 10 11  1  0  0  0  0
 11 12  1  0  0  0  0
 14 15  1  0  0  0  0
 14 36  1  0  0  0  0
 15 17  1  0  0  0  0
 16 18  1  1  0  0  0
 16 26  1  0  0  0  0
 17 23  1  0  0  0  0
 19 20  1  1  0  0  0
 19 28  1  0  0  0  0
 21 22  1  0  0  0  0
 21 23  1  0  0  0  0
 22 24  1  0  0  0  0
 26 27  1  6  0  0  0
 26 29  1  0  0  0  0
 28  2  1  1  0  0  0
 28 31  1  0  0  0  0
 29 30  1  0  0  0  0
 29 33  1  1  0  0  0
 31 32  1  1  0  0  0
 31 35  1  0  0  0  0
 33 34  1  0  0  0  0
 35 36  1  6  0  0  0
M  END
>  <CHROM.1>
-81.32241326,-123.75471035,139.61142774,58.93537749,65.10269591,82.70600333
71.24366914,-170.25996363,-157.09762523,76.49414383,-50.15527213,-81.12606624
52.13036553,-156.77792355,21.78759664,28.10458269,13.39195122,1.54336726
-1.03176553,1.08812765

>  <Name>
2f4u_lig

>  <RI>
0

>  <Rbt.Current_Directory>
/home/itssahil/PROJECTS/Mol_Feturizer/New_Systems/rnas/2f4u

>  <Rbt.Executable>
rbdock ($Id: //depot/dev/client3/rdock/2013.1/src/exe/rbdock.cxx#4 $)

>  <Rbt.Library>
libRbt.so (2013.1, Build901 2013/11/27)

>  <Rbt.Parameter_File>
/export/apps/rDock/src/rDock_2013.1_src/data/scripts/dock_solv.prm

>  <Rbt.Receptor>
prm/blind_docking_80.prm

>  <SCORE>
-4.30025

>  <SCORE.INTER>
-6.71101

>  <SCORE.INTER.CONST>
1

>  <SCORE.INTER.POLAR>
-1.73694

>  <SCORE.INTER.ROT>
14

>  <SCORE.INTER.SOLV>
18.3147

>  <SCORE.INTER.VDW>
-17.7225

>  <SCORE.INTER.norm>
-0.186417

>  <SCORE.INTRA>
-2.28277

>  <SCORE.INTRA.DIHEDRAL>
-12.4194

>  <SCORE.INTRA.DIHEDRAL.0>
26.3805

>  <SCORE.INTRA.POLAR>
0

>  <SCORE.INTRA.POLAR.0>
0

>  <SCORE.INTRA.REPUL>
0

>  <SCORE.INTRA.REPUL.0>
0

>  <SCORE.INTRA.SOLV>
10.5314

>  <SCORE.INTRA.SOLV.lig_0>
-98.5587

>  <SCORE.INTRA.VDW>
-1.33876

>  <SCORE.INTRA.VDW.0>
-2.91167

>  <SCORE.INTRA.norm>
-0.0634103

>  <SCORE.RESTR>
4.69353

>  <SCORE.RESTR.CAVITY>
4.69353

>  <SCORE.RESTR.norm>
0.130376

>  <SCORE.SYSTEM>
0

>  <SCORE.SYSTEM.CONST>
0

>  <SCORE.SYSTEM.DIHEDRAL>
0

>  <SCORE.SYSTEM.SOLV>
0

>  <SCORE.SYSTEM.norm>
0

>  <SCORE.heavy>
36

>  <SCORE.norm>
-0.119451

>  <RMSD>
30.121

$$$$
2f4u_lig
 OpenBabel11021811433D
libRbt.so/2013.1/901 2013/11/27
 36 37  0  0  0  0  0  0  0  0999 V2000
   21.0097   29.8820   15.8861 C   0  0  2  0  0  0  0  0  0  0  0  0
   22.3073   29.2234   15.6400 O   0  0  0  0  0  0  0  0  0  0  0  0
   21.6480   26.8590   12.0525 C   0  0  2  0  0  0  0  0  0  0  0  0
   21.8620   25.8257   11.0031 N   0  0  0  0  0  0  0  0  0  0  0  0
   21.3069   31.4023   16.0716 C   0  0  2  0  0  0  0  0  0  0  0  0
   21.9733   31.9982   14.8990 N   0  0  0  0  0  0  0  0  0  0  0  0
   22.8645   27.8456   12.1534 C   0  0  0  0  0  0  0  0  0  0  0  0
   22.0159   26.5701    9.3877 C   0  0  0  0  0  0  0  0  0  0  0  0
   22.0237   25.1573    8.8941 C   0  0  1  0  0  0  0  0  0  0  0  0
   22.2398   25.2084    7.3775 C   0  0  0  0  0  0  0  0  0  0  0  0
   21.0475   25.7176    6.5465 C   0  0  0  0  0  0  0  0  0  0  0  0
   20.0853   24.6245    6.3940 N   0  0  0  0  0  0  0  0  0  0  0  0
   23.0990   24.4531    9.4528 O   0  0  0  0  0  0  0  0  0  0  0  0
   19.5685   24.1966   12.7356 C   0  0  0  0  0  0  0  0  0  0  0  0
   19.0613   24.5932   11.3571 C   0  0  0  0  0  0  0  0  0  0  0  0
   22.1940   31.5913   17.3468 C   0  0  1  0  0  0  0  0  0  0  0  0
   17.9853   25.6045   11.3768 N   0  0  0  0  0  0  0  0  0  0  0  0
   22.5038   32.9668   17.5552 O   0  0  0  0  0  0  0  0  0  0  0  0
   22.6572   28.8779   13.2803 C   0  0  2  0  0  0  0  0  0  0  0  0
   23.8069   29.7652   13.4035 N   0  0  0  0  0  0  0  0  0  0  0  0
   17.9358   26.1534    8.9486 C   0  0  0  0  0  0  0  0  0  0  0  0
   17.1303   26.0781    7.6168 C   0  0  0  0  0  0  0  0  0  0  0  0
   17.0997   25.7581   10.1937 C   0  0  0  0  0  0  0  0  0  0  0  0
   17.9152   26.6062    6.4607 N   0  0  0  0  0  0  0  0  0  0  0  0
   22.0259   27.5721    8.9910 O   0  0  0  0  0  0  0  0  0  0  0  0
   21.4379   30.9957   18.5513 C   0  0  2  0  0  0  0  0  0  0  0  0
   22.1721   31.1113   19.7676 O   0  0  0  0  0  0  0  0  0  0  0  0
   22.4536   28.1764   14.6083 C   0  0  2  0  0  0  0  0  0  0  0  0
   21.0957   29.5150   18.3066 C   0  0  2  0  0  0  0  0  0  0  0  0
   20.3711   29.3524   17.0823 O   0  0  0  0  0  0  0  0  0  0  0  0
   21.1981   27.2168   14.5216 C   0  0  2  0  0  0  0  0  0  0  0  0
   21.0367   26.5410   15.8082 O   0  0  0  0  0  0  0  0  0  0  0  0
   20.2849   28.9336   19.4339 C   0  0  0  0  0  0  0  0  0  0  0  0
   19.0251   29.4882   19.4574 O   0  0  0  0  0  0  0  0  0  0  0  0
   21.4423   26.1668   13.3854 C   0  0  1  0  0  0  0  0  0  0  0  0
   20.3712   25.2781   13.2538 O   0  0  0  0  0  0  0  0  0  0  0  0
  1  2  1  1  0  0  0
  1  5  1  0  0  0  0
  1 30  1  0  0  0  0
  3  4  1  6  0  0  0
  3  7  1  0  0  0  0
  3 35  1  0  0  0  0
  5  6  1  6  0  0  0
  5 16  1  0  0  0  0
  7 19  1  0  0  0  0
  8  4  1  0  0  0  0
  8 25  2  0  0  0  0
  9  8  1  1  0  0  0
  9 10  1  0  0  0  0
  9 13  1  0  0  0  0
 10 11  1  0  0  0  0
 11 12  1  0  0  0  0
 14 15  1  0  0  0  0
 14 36  1  0  0  0  0
 15 17  1  0  0  0  0
 16 18  1  1  0  0  0
 16 26  1  0  0  0  0
 17 23  1  0  0  0  0
 19 20  1  1  0  0  0
 19 28  1  0  0  0  0
 21 22  1  0  0  0  0
 21 23  1  0  0  0  0
 22 24  1  0  0  0  0
 26 27  1  1  0  0  0
 26 29  1  0  0  0  0
 28  2  1  1  0  0  0
 28 31  1  0  0  0  0
 29 30  1  0  0  0  0
 29 33  1  1  0  0  0
 31 32  1  1  0  0  0
 31 35  1  0  0  0  0
 33 34  1  0  0  0  0
 35 36  1  6  0  0  0
M  END
>  <CHROM.1>
-137.73691518,-62.17277257,-176.60177844,-71.90503663,-79.66221522,-73.78400430
-68.80493605,-159.88908472,-60.71681416,173.73942600,169.35468208,83.18404729
68.61902247,55.32389911,20.94842429,27.71131895,13.08601461,-1.42086098,-0.55655228
-1.97774531

>  <Name>
2f4u_lig

>  <RI>
0

>  <Rbt.Current_Directory>
/home/itssahil/PROJECTS/Mol_Feturizer/New_Systems/rnas/2f4u

>  <Rbt.Executable>
rbdock ($Id: //depot/dev/client3/rdock/2013.1/src/exe/rbdock.cxx#4 $)

>  <Rbt.Library>
libRbt.so (2013.1, Build901 2013/11/27)

>  <Rbt.Parameter_File>
/export/apps/rDock/src/rDock_2013.1_src/data/scripts/dock_solv.prm

>  <Rbt.Receptor>
prm/blind_docking_80.prm

>  <SCORE>
-0.889445

>  <SCORE.INTER>
-1.14359

>  <SCORE.INTER.CONST>
1

>  <SCORE.INTER.POLAR>
-1.87079

>  <SCORE.INTER.ROT>
14

>  <SCORE.INTER.SOLV>
17.7255

>  <SCORE.INTER.VDW>
-13.3682

>  <SCORE.INTER.norm>
-0.0317664

>  <SCORE.INTRA>
-3.53917

>  <SCORE.INTRA.DIHEDRAL>
-13.2802

>  <SCORE.INTRA.DIHEDRAL.0>
26.3805

>  <SCORE.INTRA.POLAR>
0

>  <SCORE.INTRA.POLAR.0>
0

>  <SCORE.INTRA.REPUL>
0

>  <SCORE.INTRA.REPUL.0>
0

>  <SCORE.INTRA.SOLV>
8.45909

>  <SCORE.INTRA.SOLV.lig_0>
-98.5587

>  <SCORE.INTRA.VDW>
-1.12859

>  <SCORE.INTRA.VDW.0>
-2.91167

>  <SCORE.INTRA.norm>
-0.0983102

>  <SCORE.RESTR>
3.79331

>  <SCORE.RESTR.CAVITY>
3.79331

>  <SCORE.RESTR.norm>
0.10537

>  <SCORE.SYSTEM>
0

>  <SCORE.SYSTEM.CONST>
0

>  <SCORE.SYSTEM.DIHEDRAL>
0

>  <SCORE.SYSTEM.SOLV>
0

>  <SCORE.SYSTEM.norm>
0

>  <SCORE.heavy>
36

>  <SCORE.norm>
-0.0247068

>  <RMSD>
30.154

$$$$
2f4u_lig
 OpenBabel11021811433D
libRbt.so/2013.1/901 2013/11/27
 36 37  0  0  0  0  0  0  0  0999 V2000
   22.4827   29.5418   16.7407 C   0  0  2  0  0  0  0  0  0  0  0  0
   21.9749   30.1913   15.5168 O   0  0  0  0  0  0  0  0  0  0  0  0
   20.7251   28.2447   11.8365 C   0  0  2  0  0  0  0  0  0  0  0  0
   20.8140   27.6131   10.4919 N   0  0  0  0  0  0  0  0  0  0  0  0
   21.2339   29.1250   17.5779 C   0  0  2  0  0  0  0  0  0  0  0  0
   20.3368   28.2130   16.8446 N   0  0  0  0  0  0  0  0  0  0  0  0
   21.2662   29.7179   11.8237 C   0  0  0  0  0  0  0  0  0  0  0  0
   22.4940   27.1450   10.1098 C   0  0  0  0  0  0  0  0  0  0  0  0
   21.9413   26.8027    8.7618 C   0  0  1  0  0  0  0  0  0  0  0  0
   23.1274   26.7125    7.7953 C   0  0  0  0  0  0  0  0  0  0  0  0
   24.1635   25.6161    8.1048 C   0  0  0  0  0  0  0  0  0  0  0  0
   25.0907   25.5192    6.9757 N   0  0  0  0  0  0  0  0  0  0  0  0
   21.3237   25.5449    8.7947 O   0  0  0  0  0  0  0  0  0  0  0  0
   20.8148   24.7380   13.1853 C   0  0  0  0  0  0  0  0  0  0  0  0
   20.0799   24.0254   12.0598 C   0  0  0  0  0  0  0  0  0  0  0  0
   20.4573   30.4154   18.0027 C   0  0  1  0  0  0  0  0  0  0  0  0
   18.6583   24.4041   11.9311 N   0  0  0  0  0  0  0  0  0  0  0  0
   19.2975   30.0873   18.7633 O   0  0  0  0  0  0  0  0  0  0  0  0
   21.2211   30.3441   13.2324 C   0  0  2  0  0  0  0  0  0  0  0  0
   21.7657   31.6960   13.2285 N   0  0  0  0  0  0  0  0  0  0  0  0
   18.5738   25.8150    9.8812 C   0  0  0  0  0  0  0  0  0  0  0  0
   18.3289   25.8198    8.3423 C   0  0  0  0  0  0  0  0  0  0  0  0
   18.0517   24.5330   10.5810 C   0  0  0  0  0  0  0  0  0  0  0  0
   16.9071   25.5116    8.0037 N   0  0  0  0  0  0  0  0  0  0  0  0
   23.4441   27.1747   10.6175 O   0  0  0  0  0  0  0  0  0  0  0  0
   21.4201   31.3146   18.8036 C   0  0  2  0  0  0  0  0  0  0  0  0
   20.8055   32.5277   19.2308 O   0  0  0  0  0  0  0  0  0  0  0  0
   22.0274   29.5096   14.2074 C   0  0  2  0  0  0  0  0  0  0  0  0
   22.6750   31.6480   17.9767 C   0  0  2  0  0  0  0  0  0  0  0  0
   23.3145   30.4541   17.5123 O   0  0  0  0  0  0  0  0  0  0  0  0
   21.4523   28.0360   14.2562 C   0  0  2  0  0  0  0  0  0  0  0  0
   22.2588   27.2503   15.1890 O   0  0  0  0  0  0  0  0  0  0  0  0
   23.6682   32.4571   18.7673 C   0  0  0  0  0  0  0  0  0  0  0  0
   23.6574   32.0749   20.0898 O   0  0  0  0  0  0  0  0  0  0  0  0
   21.5282   27.4162   12.8198 C   0  0  1  0  0  0  0  0  0  0  0  0
   21.0394   26.1069   12.7873 O   0  0  0  0  0  0  0  0  0  0  0  0
  1  2  1  6  0  0  0
  1  5  1  0  0  0  0
  1 30  1  0  0  0  0
  3  4  1  6  0  0  0
  3  7  1  0  0  0  0
  3 35  1  0  0  0  0
  5  6  1  6  0  0  0
  5 16  1  0  0  0  0
  7 19  1  0  0  0  0
  8  4  1  0  0  0  0
  8 25  2  0  0  0  0
  9  8  1  1  0  0  0
  9 10  1  0  0  0  0
  9 13  1  0  0  0  0
 10 11  1  0  0  0  0
 11 12  1  0  0  0  0
 14 15  1  0  0  0  0
 14 36  1  0  0  0  0
 15 17  1  0  0  0  0
 16 18  1  1  0  0  0
 16 26  1  0  0  0  0
 17 23  1  0  0  0  0
 19 20  1  6  0  0  0
 19 28  1  0  0  0  0
 21 22  1  0  0  0  0
 21 23  1  0  0  0  0
 22 24  1  0  0  0  0
 26 27  1  6  0  0  0
 26 29  1  0  0  0  0
 28  2  1  1  0  0  0
 28 31  1  0  0  0  0
 29 30  1  0  0  0  0
 29 33  1  1  0  0  0
 31 32  1  1  0  0  0
 31 35  1  0  0  0  0
 33 34  1  0  0  0  0
 35 36  1  1  0  0  0
M  END
>  <CHROM.1>
-106.43287888,75.71958919,162.42444807,62.61279651,170.49029242,-73.45763123
-171.53442314,142.17617239,-72.67696638,51.03708244,163.23845615,170.48290300
34.92880603,-165.66008384,21.35538431,28.15874119,13.40672868,-1.46060483
-0.47645182,-2.05401999

>  <Name>
2f4u_lig

>  <RI>
0

>  <Rbt.Current_Directory>
/home/itssahil/PROJECTS/Mol_Feturizer/New_Systems/rnas/2f4u

>  <Rbt.Executable>
rbdock ($Id: //depot/dev/client3/rdock/2013.1/src/exe/rbdock.cxx#4 $)

>  <Rbt.Library>
libRbt.so (2013.1, Build901 2013/11/27)

>  <Rbt.Parameter_File>
/export/apps/rDock/src/rDock_2013.1_src/data/scripts/dock_solv.prm

>  <Rbt.Receptor>
prm/blind_docking_80.prm

>  <SCORE>
-2.12571

>  <SCORE.INTER>
-1.71389

>  <SCORE.INTER.CONST>
1

>  <SCORE.INTER.POLAR>
-1.60023

>  <SCORE.INTER.ROT>
14

>  <SCORE.INTER.SOLV>
16.2752

>  <SCORE.INTER.VDW>
-14.1669

>  <SCORE.INTER.norm>
-0.0476082

>  <SCORE.INTRA>
-3.42787

>  <SCORE.INTRA.DIHEDRAL>
-11.83

>  <SCORE.INTRA.DIHEDRAL.0>
26.3805

>  <SCORE.INTRA.POLAR>
0

>  <SCORE.INTRA.POLAR.0>
0

>  <SCORE.INTRA.REPUL>
0

>  <SCORE.INTRA.REPUL.0>
0

>  <SCORE.INTRA.SOLV>
5.19158

>  <SCORE.INTRA.SOLV.lig_0>
-98.5587

>  <SCORE.INTRA.VDW>
-0.108665

>  <SCORE.INTRA.VDW.0>
-2.91167

>  <SCORE.INTRA.norm>
-0.0952186

>  <SCORE.RESTR>
3.01605

>  <SCORE.RESTR.CAVITY>
3.01605

>  <SCORE.RESTR.norm>
0.0837791

>  <SCORE.SYSTEM>
0

>  <SCORE.SYSTEM.CONST>
0

>  <SCORE.SYSTEM.DIHEDRAL>
0

>  <SCORE.SYSTEM.SOLV>
0

>  <SCORE.SYSTEM.norm>
0

>  <SCORE.heavy>
36

>  <SCORE.norm>
-0.0590476

>  <RMSD>
30.191

$$$$
2f4u_lig
 OpenBabel11021811433D
libRbt.so/2013.1/901 2013/11/27
 36 37  0  0  0  0  0  0  0  0999 V2000
   20.5931   30.0010   16.5981 C   0  0  2  0  0  0  0  0  0  0  0  0
   21.0380   28.6725   16.1343 O   0  0  0  0  0  0  0  0  0  0  0  0
   20.8397   27.3197   12.0081 C   0  0  2  0  0  0  0  0  0  0  0  0
   21.2075   27.1485   10.5762 N   0  0  0  0  0  0  0  0  0  0  0  0
   21.8557   30.9175   16.6099 C   0  0  2  0  0  0  0  0  0  0  0  0
   22.4948   31.0213   15.2852 N   0  0  0  0  0  0  0  0  0  0  0  0
   20.6066   28.8284   12.3721 C   0  0  0  0  0  0  0  0  0  0  0  0
   19.7661   27.2341    9.5263 C   0  0  0  0  0  0  0  0  0  0  0  0
   20.7161   26.8583    8.4327 C   0  0  1  0  0  0  0  0  0  0  0  0
   19.8733   26.3870    7.2423 C   0  0  0  0  0  0  0  0  0  0  0  0
   19.1731   25.0262    7.4127 C   0  0  0  0  0  0  0  0  0  0  0  0
   20.1864   24.0170    7.7270 N   0  0  0  0  0  0  0  0  0  0  0  0
   21.4476   27.9794    8.0177 O   0  0  0  0  0  0  0  0  0  0  0  0
   22.7881   24.1298   12.3927 C   0  0  0  0  0  0  0  0  0  0  0  0
   21.7746   23.1406   11.8368 C   0  0  0  0  0  0  0  0  0  0  0  0
   22.8760   30.3576   17.6559 C   0  0  1  0  0  0  0  0  0  0  0  0
   20.7319   22.7369   12.8017 N   0  0  0  0  0  0  0  0  0  0  0  0
   24.0559   31.1561   17.6976 O   0  0  0  0  0  0  0  0  0  0  0  0
   20.2805   29.0001   13.8697 C   0  0  2  0  0  0  0  0  0  0  0  0
   20.1088   30.4053   14.2165 N   0  0  0  0  0  0  0  0  0  0  0  0
   18.5532   23.9265   12.9960 C   0  0  0  0  0  0  0  0  0  0  0  0
   18.5136   24.5484   11.5678 C   0  0  0  0  0  0  0  0  0  0  0  0
   19.9903   23.7774   13.5600 C   0  0  0  0  0  0  0  0  0  0  0  0
   17.1186   24.8623   11.1355 N   0  0  0  0  0  0  0  0  0  0  0  0
   18.7120   27.4101    9.6654 O   0  0  0  0  0  0  0  0  0  0  0  0
   22.1791   30.3107   19.0304 C   0  0  2  0  0  0  0  0  0  0  0  0
   23.0288   29.8029   20.0560 O   0  0  0  0  0  0  0  0  0  0  0  0
   21.3983   28.4332   14.7220 C   0  0  2  0  0  0  0  0  0  0  0  0
   20.8985   29.4588   18.9674 C   0  0  2  0  0  0  0  0  0  0  0  0
   20.0227   29.9260   17.9354 O   0  0  0  0  0  0  0  0  0  0  0  0
   21.6021   26.8995   14.3892 C   0  0  2  0  0  0  0  0  0  0  0  0
   22.6963   26.3844   15.2111 O   0  0  0  0  0  0  0  0  0  0  0  0
   20.1562   29.4655   20.2769 C   0  0  0  0  0  0  0  0  0  0  0  0
   20.1377   30.7329   20.8140 O   0  0  0  0  0  0  0  0  0  0  0  0
   21.9519   26.7545   12.8694 C   0  0  1  0  0  0  0  0  0  0  0  0
   22.1517   25.4204   12.5024 O   0  0  0  0  0  0  0  0  0  0  0  0
  1  2  1  1  0  0  0
  1  5  1  0  0  0  0
  1 30  1  0  0  0  0
  3  4  1  6  0  0  0
  3  7  1  0  0  0  0
  3 35  1  0  0  0  0
  5  6  1  6  0  0  0
  5 16  1  0  0  0  0
  7 19  1  0  0  0  0
  8  4  1  0  0  0  0
  8 25  2  0  0  0  0
  9  8  1  1  0  0  0
  9 10  1  0  0  0  0
  9 13  1  0  0  0  0
 10 11  1  0  0  0  0
 11 12  1  0  0  0  0
 14 15  1  0  0  0  0
 14 36  1  0  0  0  0
 15 17  1  0  0  0  0
 16 18  1  1  0  0  0
 16 26  1  0  0  0  0
 17 23  1  0  0  0  0
 19 20  1  6  0  0  0
 19 28  1  0  0  0  0
 21 22  1  0  0  0  0
 21 23  1  0  0  0  0
 22 24  1  0  0  0  0
 26 27  1  1  0  0  0
 26 29  1  0  0  0  0
 28  2  1  1  0  0  0
 28 31  1  0  0  0  0
 29 30  1  0  0  0  0
 29 33  1  1  0  0  0
 31 32  1  1  0  0  0
 31 35  1  0  0  0  0
 33 34  1  0  0  0  0
 35 36  1  6  0  0  0
M  END
>  <CHROM.1>
-72.63306373,-79.13598275,163.95707384,-71.24442674,-56.25752295,-73.51876451
168.01905577,49.82758817,105.64434566,-171.67428118,-68.81336689,-48.83926814
42.14480983,164.94773805,20.89016878,27.52499159,13.77049622,-0.54342760
-1.38807163,-1.04288027

>  <Name>
2f4u_lig

>  <RI>
0

>  <Rbt.Current_Directory>
/home/itssahil/PROJECTS/Mol_Feturizer/New_Systems/rnas/2f4u

>  <Rbt.Executable>
rbdock ($Id: //depot/dev/client3/rdock/2013.1/src/exe/rbdock.cxx#4 $)

>  <Rbt.Library>
libRbt.so (2013.1, Build901 2013/11/27)

>  <Rbt.Parameter_File>
/export/apps/rDock/src/rDock_2013.1_src/data/scripts/dock_solv.prm

>  <Rbt.Receptor>
prm/blind_docking_80.prm

>  <SCORE>
-2.17634

>  <SCORE.INTER>
-2.57145

>  <SCORE.INTER.CONST>
1

>  <SCORE.INTER.POLAR>
-0.691731

>  <SCORE.INTER.ROT>
14

>  <SCORE.INTER.SOLV>
19.8987

>  <SCORE.INTER.VDW>
-18.9748

>  <SCORE.INTER.norm>
-0.0714291

>  <SCORE.INTRA>
-2.54812

>  <SCORE.INTRA.DIHEDRAL>
-18.1105

>  <SCORE.INTRA.DIHEDRAL.0>
26.3805

>  <SCORE.INTRA.POLAR>
0

>  <SCORE.INTRA.POLAR.0>
0

>  <SCORE.INTRA.REPUL>
0

>  <SCORE.INTRA.REPUL.0>
0

>  <SCORE.INTRA.SOLV>
9.73417

>  <SCORE.INTRA.SOLV.lig_0>
-98.5587

>  <SCORE.INTRA.VDW>
1.64004

>  <SCORE.INTRA.VDW.0>
-2.91167

>  <SCORE.INTRA.norm>
-0.0707812

>  <SCORE.RESTR>
2.94324

>  <SCORE.RESTR.CAVITY>
2.94324

>  <SCORE.RESTR.norm>
0.0817566

>  <SCORE.SYSTEM>
0

>  <SCORE.SYSTEM.CONST>
0

>  <SCORE.SYSTEM.DIHEDRAL>
0

>  <SCORE.SYSTEM.SOLV>
0

>  <SCORE.SYSTEM.norm>
0

>  <SCORE.heavy>
36

>  <SCORE.norm>
-0.0604538

>  <RMSD>
30.229

$$$$
2f4u_lig
 OpenBabel11021811433D
libRbt.so/2013.1/901 2013/11/27
 36 37  0  0  0  0  0  0  0  0999 V2000
   20.9075   29.8176   16.8114 C   0  0  2  0  0  0  0  0  0  0  0  0
   21.9734   29.3627   15.8978 O   0  0  0  0  0  0  0  0  0  0  0  0
   21.3858   27.0700   12.2517 C   0  0  2  0  0  0  0  0  0  0  0  0
   21.0316   26.7598   10.8400 N   0  0  0  0  0  0  0  0  0  0  0  0
   20.7780   31.3600   16.6161 C   0  0  2  0  0  0  0  0  0  0  0  0
   20.4585   31.7319   15.2255 N   0  0  0  0  0  0  0  0  0  0  0  0
   20.1609   27.6478   13.0449 C   0  0  0  0  0  0  0  0  0  0  0  0
   20.6022   28.2423    9.9427 C   0  0  0  0  0  0  0  0  0  0  0  0
   20.2424   27.2989    8.8382 C   0  0  1  0  0  0  0  0  0  0  0  0
   18.8391   26.7614    9.1405 C   0  0  0  0  0  0  0  0  0  0  0  0
   18.3686   25.5844    8.2661 C   0  0  0  0  0  0  0  0  0  0  0  0
   18.3986   26.0047    6.8638 N   0  0  0  0  0  0  0  0  0  0  0  0
   20.1813   27.9820    7.6159 O   0  0  0  0  0  0  0  0  0  0  0  0
   24.8351   27.4814   10.8135 C   0  0  0  0  0  0  0  0  0  0  0  0
   24.8544   26.2042    9.9871 C   0  0  0  0  0  0  0  0  0  0  0  0
   22.1162   32.0391   17.0594 C   0  0  1  0  0  0  0  0  0  0  0  0
   23.6045   25.9462    9.2439 N   0  0  0  0  0  0  0  0  0  0  0  0
   22.0533   33.4528   16.8897 O   0  0  0  0  0  0  0  0  0  0  0  0
   20.5526   28.0176   14.4900 C   0  0  2  0  0  0  0  0  0  0  0  0
   19.4265   28.5961   15.2122 N   0  0  0  0  0  0  0  0  0  0  0  0
   22.5364   24.2556   10.7275 C   0  0  0  0  0  0  0  0  0  0  0  0
   22.1341   22.7616   10.9129 C   0  0  0  0  0  0  0  0  0  0  0  0
   22.9921   24.5931    9.2838 C   0  0  0  0  0  0  0  0  0  0  0  0
   21.6746   22.4774   12.3055 N   0  0  0  0  0  0  0  0  0  0  0  0
   20.5681   29.2981   10.1563 O   0  0  0  0  0  0  0  0  0  0  0  0
   22.3842   31.6599   18.5297 C   0  0  2  0  0  0  0  0  0  0  0  0
   23.5938   32.2262   19.0274 O   0  0  0  0  0  0  0  0  0  0  0  0
   21.6849   29.0250   14.4890 C   0  0  2  0  0  0  0  0  0  0  0  0
   22.4337   30.1310   18.7016 C   0  0  2  0  0  0  0  0  0  0  0  0
   21.2414   29.5198   18.1968 O   0  0  0  0  0  0  0  0  0  0  0  0
   22.9372   28.4244   13.7303 C   0  0  2  0  0  0  0  0  0  0  0  0
   24.0057   29.4226   13.7290 O   0  0  0  0  0  0  0  0  0  0  0  0
   22.6121   29.7349   20.1429 C   0  0  0  0  0  0  0  0  0  0  0  0
   23.9440   29.7645   20.4896 O   0  0  0  0  0  0  0  0  0  0  0  0
   22.5190   28.0770   12.2614 C   0  0  1  0  0  0  0  0  0  0  0  0
   23.5816   27.5437   11.5261 O   0  0  0  0  0  0  0  0  0  0  0  0
  1  2  1  6  0  0  0
  1  5  1  0  0  0  0
  1 30  1  0  0  0  0
  3  4  1  6  0  0  0
  3  7  1  0  0  0  0
  3 35  1  0  0  0  0
  5  6  1  6  0  0  0
  5 16  1  0  0  0  0
  7 19  1  0  0  0  0
  8  4  1  0  0  0  0
  8 25  2  0  0  0  0
  9  8  1  1  0  0  0
  9 10  1  0  0  0  0
  9 13  1  0  0  0  0
 10 11  1  0  0  0  0
 11 12  1  0  0  0  0
 14 15  1  0  0  0  0
 14 36  1  0  0  0  0
 15 17  1  0  0  0  0
 16 18  1  1  0  0  0
 16 26  1  0  0  0  0
 17 23  1  0  0  0  0
 19 20  1  6  0  0  0
 19 28  1  0  0  0  0
 21 22  1  0  0  0  0
 21 23  1  0  0  0  0
 22 24  1  0  0  0  0
 26 27  1  6  0  0  0
 26 29  1  0  0  0  0
 28  2  1  1  0  0  0
 28 31  1  0  0  0  0
 29 30  1  0  0  0  0
 29 33  1  1  0  0  0
 31 32  1  6  0  0  0
 31 35  1  0  0  0  0
 33 34  1  0  0  0  0
 35 36  1  6  0  0  0
M  END
>  <CHROM.1>
-85.87198015,64.49159107,81.40456396,-169.56236877,-58.41266945,45.38432438
-164.04276177,-133.14523023,64.44615773,-178.84073947,-169.03005178,-53.10608501
-83.90128608,167.61383991,21.74006256,28.26178021,13.34532130,1.40543049
-0.78838611,0.93880567

>  <Name>
2f4u_lig

>  <RI>
0

>  <Rbt.Current_Directory>
/home/itssahil/PROJECTS/Mol_Feturizer/New_Systems/rnas/2f4u

>  <Rbt.Executable>
rbdock ($Id: //depot/dev/client3/rdock/2013.1/src/exe/rbdock.cxx#4 $)

>  <Rbt.Library>
libRbt.so (2013.1, Build901 2013/11/27)

>  <Rbt.Parameter_File>
/export/apps/rDock/src/rDock_2013.1_src/data/scripts/dock_solv.prm

>  <Rbt.Receptor>
prm/blind_docking_80.prm

>  <SCORE>
-2.33693

>  <SCORE.INTER>
-3.85803

>  <SCORE.INTER.CONST>
1

>  <SCORE.INTER.POLAR>
-0.600563

>  <SCORE.INTER.ROT>
14

>  <SCORE.INTER.SOLV>
18.2206

>  <SCORE.INTER.VDW>
-19.577

>  <SCORE.INTER.norm>
-0.107167

>  <SCORE.INTRA>
-3.52127

>  <SCORE.INTRA.DIHEDRAL>
-15.5365

>  <SCORE.INTRA.DIHEDRAL.0>
26.3805

>  <SCORE.INTRA.POLAR>
0

>  <SCORE.INTRA.POLAR.0>
0

>  <SCORE.INTRA.REPUL>
0

>  <SCORE.INTRA.REPUL.0>
0

>  <SCORE.INTRA.SOLV>
7.76036

>  <SCORE.INTRA.SOLV.lig_0>
-98.5587

>  <SCORE.INTRA.VDW>
0.366788

>  <SCORE.INTRA.VDW.0>
-2.91167

>  <SCORE.INTRA.norm>
-0.0978132

>  <SCORE.RESTR>
5.04237

>  <SCORE.RESTR.CAVITY>
5.04237

>  <SCORE.RESTR.norm>
0.140066

>  <SCORE.SYSTEM>
0

>  <SCORE.SYSTEM.CONST>
0

>  <SCORE.SYSTEM.DIHEDRAL>
0

>  <SCORE.SYSTEM.SOLV>
0

>  <SCORE.SYSTEM.norm>
0

>  <SCORE.heavy>
36

>  <SCORE.norm>
-0.0649148

>  <RMSD>
30.269

$$$$
2f4u_lig
 OpenBabel11021811433D
libRbt.so/2013.1/901 2013/11/27
 36 37  0  0  0  0  0  0  0  0999 V2000
   22.5539   30.0824   16.1332 C   0  0  2  0  0  0  0  0  0  0  0  0
   21.6298   30.8238   15.2533 O   0  0  0  0  0  0  0  0  0  0  0  0
   21.2270   29.0373   11.3110 C   0  0  2  0  0  0  0  0  0  0  0  0
   21.2144   28.9175    9.8277 N   0  0  0  0  0  0  0  0  0  0  0  0
   21.6794   29.1103   16.9842 C   0  0  2  0  0  0  0  0  0  0  0  0
   20.8968   28.1760   16.1544 N   0  0  0  0  0  0  0  0  0  0  0  0
   20.2001   30.1113   11.8162 C   0  0  0  0  0  0  0  0  0  0  0  0
   20.0774   27.6490    9.2934 C   0  0  0  0  0  0  0  0  0  0  0  0
   20.6371   27.9202    7.9322 C   0  0  1  0  0  0  0  0  0  0  0  0
   21.5575   26.7467    7.5787 C   0  0  0  0  0  0  0  0  0  0  0  0
   22.7767   26.5494    8.4985 C   0  0  0  0  0  0  0  0  0  0  0  0
   23.5939   25.4596    7.9614 N   0  0  0  0  0  0  0  0  0  0  0  0
   19.6080   27.9541    6.9814 O   0  0  0  0  0  0  0  0  0  0  0  0
   24.6935   27.6301   11.1821 C   0  0  0  0  0  0  0  0  0  0  0  0
   24.4927   26.4131   12.0728 C   0  0  0  0  0  0  0  0  0  0  0  0
   20.7226   29.9542   17.8903 C   0  0  1  0  0  0  0  0  0  0  0  0
   23.5033   25.4446   11.5589 N   0  0  0  0  0  0  0  0  0  0  0  0
   19.8915   29.1099   18.6827 O   0  0  0  0  0  0  0  0  0  0  0  0
   20.2604   30.2672   13.3494 C   0  0  2  0  0  0  0  0  0  0  0  0
   19.3390   31.2967   13.8135 N   0  0  0  0  0  0  0  0  0  0  0  0
   22.0292   23.8113   12.7249 C   0  0  0  0  0  0  0  0  0  0  0  0
   20.5397   23.4041   12.9343 C   0  0  0  0  0  0  0  0  0  0  0  0
   22.2034   25.2806   12.2597 C   0  0  0  0  0  0  0  0  0  0  0  0
   19.8088   24.3865   13.7899 N   0  0  0  0  0  0  0  0  0  0  0  0
   19.3807   26.9786    9.7695 O   0  0  0  0  0  0  0  0  0  0  0  0
   21.5858   30.8805   18.7700 C   0  0  2  0  0  0  0  0  0  0  0  0
   20.8013   31.7025   19.6307 O   0  0  0  0  0  0  0  0  0  0  0  0
   21.6602   30.6497   13.7868 C   0  0  2  0  0  0  0  0  0  0  0  0
   22.4896   31.7752   17.9027 C   0  0  2  0  0  0  0  0  0  0  0  0
   23.2840   30.9876   17.0090 O   0  0  0  0  0  0  0  0  0  0  0  0
   22.6901   29.5431   13.3186 C   0  0  2  0  0  0  0  0  0  0  0  0
   24.0318   29.9464   13.7373 O   0  0  0  0  0  0  0  0  0  0  0  0
   23.4017   32.6305   18.7409 C   0  0  0  0  0  0  0  0  0  0  0  0
   22.6774   33.5801   19.4256 O   0  0  0  0  0  0  0  0  0  0  0  0
   22.6242   29.4191   11.7587 C   0  0  1  0  0  0  0  0  0  0  0  0
   23.5153   28.4587   11.2710 O   0  0  0  0  0  0  0  0  0  0  0  0
  1  2  1  6  0  0  0
  1  5  1  0  0  0  0
  1 30  1  0  0  0  0
  3  4  1  6  0  0  0
  3  7  1  0  0  0  0
  3 35  1  0  0  0  0
  5  6  1  6  0  0  0
  5 16  1  0  0  0  0
  7 19  1  0  0  0  0
  8  4  1  0  0  0  0
  8 25  2  0  0  0  0
  9  8  1  1  0  0  0
  9 10  1  0  0  0  0
  9 13  1  0  0  0  0
 10 11  1  0  0  0  0
 11 12  1  0  0  0  0
 14 15  1  0  0  0  0
 14 36  1  0  0  0  0
 15 17  1  0  0  0  0
 16 18  1  1  0  0  0
 16 26  1  0  0  0  0
 17 23  1  0  0  0  0
 19 20  1  6  0  0  0
 19 28  1  0  0  0  0
 21 22  1  0  0  0  0
 21 23  1  0  0  0  0
 22 24  1  0  0  0  0
 26 27  1  6  0  0  0
 26 29  1  0  0  0  0
 28  2  1  1  0  0  0
 28 31  1  0  0  0  0
 29 30  1  0  0  0  0
 29 33  1  1  0  0  0
 31 32  1  6  0  0  0
 31 35  1  0  0  0  0
 33 34  1  0  0  0  0
 35 36  1  1  0  0  0
M  END
>  <CHROM.1>
-113.81329128,-92.12765609,105.77696423,-62.33669669,-175.76957397,71.26410571
84.10554895,-110.48218205,-121.12742978,-50.37949533,-156.74809680,125.11146605
-68.51050084,-153.30313547,21.76297552,28.69181196,13.40087412,-0.90176621
1.53952848,-2.73478467

>  <Name>
2f4u_lig

>  <RI>
0

>  <Rbt.Current_Directory>
/home/itssahil/PROJECTS/Mol_Feturizer/New_Systems/rnas/2f4u

>  <Rbt.Executable>
rbdock ($Id: //depot/dev/client3/rdock/2013.1/src/exe/rbdock.cxx#4 $)

>  <Rbt.Library>
libRbt.so (2013.1, Build901 2013/11/27)

>  <Rbt.Parameter_File>
/export/apps/rDock/src/rDock_2013.1_src/data/scripts/dock_solv.prm

>  <Rbt.Receptor>
prm/blind_docking_80.prm

>  <SCORE>
-4.33539

>  <SCORE.INTER>
-7.85226

>  <SCORE.INTER.CONST>
1

>  <SCORE.INTER.POLAR>
-0.683403

>  <SCORE.INTER.ROT>
14

>  <SCORE.INTER.SOLV>
16.8622

>  <SCORE.INTER.VDW>
-21.5109

>  <SCORE.INTER.norm>
-0.218118

>  <SCORE.INTRA>
0.942327

>  <SCORE.INTRA.DIHEDRAL>
1.45553

>  <SCORE.INTRA.DIHEDRAL.0>
26.3805

>  <SCORE.INTRA.POLAR>
0

>  <SCORE.INTRA.POLAR.0>
0

>  <SCORE.INTRA.REPUL>
0

>  <SCORE.INTRA.REPUL.0>
0

>  <SCORE.INTRA.SOLV>
4.61985

>  <SCORE.INTRA.SOLV.lig_0>
-98.5587

>  <SCORE.INTRA.VDW>
-2.09536

>  <SCORE.INTRA.VDW.0>
-2.91167

>  <SCORE.INTRA.norm>
0.0261757

>  <SCORE.RESTR>
2.57454

>  <SCORE.RESTR.CAVITY>
2.57454

>  <SCORE.RESTR.norm>
0.071515

>  <SCORE.SYSTEM>
0

>  <SCORE.SYSTEM.CONST>
0

>  <SCORE.SYSTEM.DIHEDRAL>
0

>  <SCORE.SYSTEM.SOLV>
0

>  <SCORE.SYSTEM.norm>
0

>  <SCORE.heavy>
36

>  <SCORE.norm>
-0.120427

>  <RMSD>
30.348

$$$$
2f4u_lig
 OpenBabel11021811433D
libRbt.so/2013.1/901 2013/11/27
 36 37  0  0  0  0  0  0  0  0999 V2000
   20.6566   31.0215   16.3506 C   0  0  2  0  0  0  0  0  0  0  0  0
   21.6445   30.9099   15.2600 O   0  0  0  0  0  0  0  0  0  0  0  0
   22.2917   28.2041   11.9200 C   0  0  2  0  0  0  0  0  0  0  0  0
   22.4814   26.9325   11.1705 N   0  0  0  0  0  0  0  0  0  0  0  0
   20.6005   32.5281   16.7520 C   0  0  2  0  0  0  0  0  0  0  0  0
   20.2257   33.4026   15.6255 N   0  0  0  0  0  0  0  0  0  0  0  0
   23.3917   28.3988   13.0224 C   0  0  0  0  0  0  0  0  0  0  0  0
   22.0837   25.5199   12.1873 C   0  0  0  0  0  0  0  0  0  0  0  0
   22.5979   24.7217   11.0304 C   0  0  1  0  0  0  0  0  0  0  0  0
   23.0584   23.3681   11.5828 C   0  0  0  0  0  0  0  0  0  0  0  0
   21.9468   22.3323   11.8335 C   0  0  0  0  0  0  0  0  0  0  0  0
   21.0301   22.8677   12.8420 N   0  0  0  0  0  0  0  0  0  0  0  0
   21.5676   24.4774   10.1122 O   0  0  0  0  0  0  0  0  0  0  0  0
   19.4177   27.7561   10.2494 C   0  0  0  0  0  0  0  0  0  0  0  0
   20.4112   28.2646    9.2154 C   0  0  0  0  0  0  0  0  0  0  0  0
   21.9960   32.9517   17.3192 C   0  0  1  0  0  0  0  0  0  0  0  0
   20.6939   27.3074    8.1269 N   0  0  0  0  0  0  0  0  0  0  0  0
   22.0006   34.3274   17.6916 O   0  0  0  0  0  0  0  0  0  0  0  0
   23.1541   29.6913   13.8296 C   0  0  2  0  0  0  0  0  0  0  0  0
   24.1495   29.8484   14.8826 N   0  0  0  0  0  0  0  0  0  0  0  0
   20.3201   26.2110    5.9228 C   0  0  0  0  0  0  0  0  0  0  0  0
   20.3310   24.7547    6.4770 C   0  0  0  0  0  0  0  0  0  0  0  0
   19.7946   27.2521    6.9454 C   0  0  0  0  0  0  0  0  0  0  0  0
   18.9530   24.1871    6.5785 N   0  0  0  0  0  0  0  0  0  0  0  0
   21.7127   25.3607   13.1865 O   0  0  0  0  0  0  0  0  0  0  0  0
   22.3233   32.0421   18.5203 C   0  0  2  0  0  0  0  0  0  0  0  0
   23.5875   32.3447   19.1052 O   0  0  0  0  0  0  0  0  0  0  0  0
   21.7817   29.6678   14.4723 C   0  0  2  0  0  0  0  0  0  0  0  0
   22.2993   30.5592   18.1081 C   0  0  2  0  0  0  0  0  0  0  0  0
   21.0495   30.2172   17.4987 O   0  0  0  0  0  0  0  0  0  0  0  0
   20.6690   29.5192   13.3569 C   0  0  2  0  0  0  0  0  0  0  0  0
   19.3591   29.4811   14.0056 O   0  0  0  0  0  0  0  0  0  0  0  0
   22.5348   29.6474   19.2825 C   0  0  0  0  0  0  0  0  0  0  0  0
   23.8281   29.7719   19.7375 O   0  0  0  0  0  0  0  0  0  0  0  0
   20.9204   28.1907   12.5663 C   0  0  1  0  0  0  0  0  0  0  0  0
   19.9681   27.9895   11.5629 O   0  0  0  0  0  0  0  0  0  0  0  0
  1  2  1  6  0  0  0
  1  5  1  0  0  0  0
  1 30  1  0  0  0  0
  3  4  1  1  0  0  0
  3  7  1  0  0  0  0
  3 35  1  0  0  0  0
  5  6  1  6  0  0  0
  5 16  1  0  0  0  0
  7 19  1  0  0  0  0
  8  4  1  0  0  0  0
  8 25  2  0  0  0  0
  9  8  1  1  0  0  0
  9 10  1  0  0  0  0
  9 13  1  0  0  0  0
 10 11  1  0  0  0  0
 11 12  1  0  0  0  0
 14 15  1  0  0  0  0
 14 36  1  0  0  0  0
 15 17  1  0  0  0  0
 16 18  1  1  0  0  0
 16 26  1  0  0  0  0
 17 23  1  0  0  0  0
 19 20  1  1  0  0  0
 19 28  1  0  0  0  0
 21 22  1  0  0  0  0
 21 23  1  0  0  0  0
 22 24  1  0  0  0  0
 26 27  1  6  0  0  0
 26 29  1  0  0  0  0
 28  2  1  6  0  0  0
 28 31  1  0  0  0  0
 29 30  1  0  0  0  0
 29 33  1  1  0  0  0
 31 32  1  1  0  0  0
 31 35  1  0  0  0  0
 33 34  1  0  0  0  0
 35 36  1  6  0  0  0
M  END
>  <CHROM.1>
-168.98737926,71.18213690,155.45646459,80.36183001,-61.94036409,131.48878070
-25.54448360,84.96316807,178.10223654,72.97708338,63.23902701,-159.47041698
-68.36165848,2.26966689,21.51983322,28.40428063,13.32791056,1.27122925,-1.12704811
0.67042212

>  <Name>
2f4u_lig

>  <RI>
0

>  <Rbt.Current_Directory>
/home/itssahil/PROJECTS/Mol_Feturizer/New_Systems/rnas/2f4u

>  <Rbt.Executable>
rbdock ($Id: //depot/dev/client3/rdock/2013.1/src/exe/rbdock.cxx#4 $)

>  <Rbt.Library>
libRbt.so (2013.1, Build901 2013/11/27)

>  <Rbt.Parameter_File>
/export/apps/rDock/src/rDock_2013.1_src/data/scripts/dock_solv.prm

>  <Rbt.Receptor>
prm/blind_docking_100.prm

>  <SCORE>
34.6417

>  <SCORE.INTER>
27.0511

>  <SCORE.INTER.CONST>
1

>  <SCORE.INTER.POLAR>
-0.489398

>  <SCORE.INTER.ROT>
14

>  <SCORE.INTER.SOLV>
24.585

>  <SCORE.INTER.VDW>
-1.46295

>  <SCORE.INTER.norm>
0.751419

>  <SCORE.INTRA>
0.798703

>  <SCORE.INTRA.DIHEDRAL>
-3.21292

>  <SCORE.INTRA.DIHEDRAL.0>
26.3805

>  <SCORE.INTRA.POLAR>
0

>  <SCORE.INTRA.POLAR.0>
0

>  <SCORE.INTRA.REPUL>
0.014295

>  <SCORE.INTRA.REPUL.0>
0

>  <SCORE.INTRA.SOLV>
6.77184

>  <SCORE.INTRA.SOLV.lig_0>
-98.5587

>  <SCORE.INTRA.VDW>
-1.05223

>  <SCORE.INTRA.VDW.0>
-2.91167

>  <SCORE.INTRA.norm>
0.0221862

>  <SCORE.RESTR>
6.7919

>  <SCORE.RESTR.CAVITY>
6.7919

>  <SCORE.RESTR.norm>
0.188664

>  <SCORE.SYSTEM>
0

>  <SCORE.SYSTEM.CONST>
0

>  <SCORE.SYSTEM.DIHEDRAL>
0

>  <SCORE.SYSTEM.SOLV>
0

>  <SCORE.SYSTEM.norm>
0

>  <SCORE.heavy>
36

>  <SCORE.norm>
0.962269

>  <RMSD>
30.370

$$$$
2f4u_lig
 OpenBabel11021811433D
libRbt.so/2013.1/901 2013/11/27
 36 37  0  0  0  0  0  0  0  0999 V2000
   22.6217   30.8261   16.3638 C   0  0  2  0  0  0  0  0  0  0  0  0
   21.4825   31.0900   15.4635 O   0  0  0  0  0  0  0  0  0  0  0  0
   20.9564   29.0818   11.6444 C   0  0  2  0  0  0  0  0  0  0  0  0
   21.0023   28.8399   10.1767 N   0  0  0  0  0  0  0  0  0  0  0  0
   22.2537   29.5560   17.1918 C   0  0  2  0  0  0  0  0  0  0  0  0
   21.9857   28.3815   16.3415 N   0  0  0  0  0  0  0  0  0  0  0  0
   20.1326   30.3706   11.9957 C   0  0  0  0  0  0  0  0  0  0  0  0
   19.7944   27.6200    9.6867 C   0  0  0  0  0  0  0  0  0  0  0  0
   20.4355   27.7340    8.3392 C   0  0  1  0  0  0  0  0  0  0  0  0
   21.4153   26.5632    8.2031 C   0  0  0  0  0  0  0  0  0  0  0  0
   20.7785   25.1726    8.0238 C   0  0  0  0  0  0  0  0  0  0  0  0
   20.3431   25.0355    6.6326 N   0  0  0  0  0  0  0  0  0  0  0  0
   19.4723   27.6013    7.3298 O   0  0  0  0  0  0  0  0  0  0  0  0
   24.1458   27.0976   11.7869 C   0  0  0  0  0  0  0  0  0  0  0  0
   24.0260   26.2896   10.5034 C   0  0  0  0  0  0  0  0  0  0  0  0
   21.0029   29.8750   18.0764 C   0  0  1  0  0  0  0  0  0  0  0  0
   22.8183   25.4426   10.4328 N   0  0  0  0  0  0  0  0  0  0  0  0
   20.6182   28.7394   18.8469 O   0  0  0  0  0  0  0  0  0  0  0  0
   20.1377   30.6429   13.5138 C   0  0  2  0  0  0  0  0  0  0  0  0
   19.4109   31.8648   13.8349 N   0  0  0  0  0  0  0  0  0  0  0  0
   21.5558   24.0810   12.0918 C   0  0  0  0  0  0  0  0  0  0  0  0
   21.4361   22.7319   12.8625 C   0  0  0  0  0  0  0  0  0  0  0  0
   22.7890   24.1434   11.1532 C   0  0  0  0  0  0  0  0  0  0  0  0
   21.6673   21.5576   11.9687 N   0  0  0  0  0  0  0  0  0  0  0  0
   19.0260   27.0456   10.1777 O   0  0  0  0  0  0  0  0  0  0  0  0
   21.3457   31.0776   18.9783 C   0  0  2  0  0  0  0  0  0  0  0  0
   20.2599   31.4541   19.8216 O   0  0  0  0  0  0  0  0  0  0  0  0
   21.5591   30.7883   14.0196 C   0  0  2  0  0  0  0  0  0  0  0  0
   21.7746   32.2915   18.1346 C   0  0  2  0  0  0  0  0  0  0  0  0
   22.8547   31.9506   17.2586 O   0  0  0  0  0  0  0  0  0  0  0  0
   22.3773   29.4702   13.7078 C   0  0  2  0  0  0  0  0  0  0  0  0
   23.7468   29.6453   14.1893 O   0  0  0  0  0  0  0  0  0  0  0  0
   22.1936   33.4527   18.9962 C   0  0  0  0  0  0  0  0  0  0  0  0
   22.3663   34.5835   18.2302 O   0  0  0  0  0  0  0  0  0  0  0  0
   22.3744   29.2278   12.1603 C   0  0  1  0  0  0  0  0  0  0  0  0
   23.0864   28.0773   11.8086 O   0  0  0  0  0  0  0  0  0  0  0  0
  1  2  1  6  0  0  0
  1  5  1  0  0  0  0
  1 30  1  0  0  0  0
  3  4  1  6  0  0  0
  3  7  1  0  0  0  0
  3 35  1  0  0  0  0
  5  6  1  6  0  0  0
  5 16  1  0  0  0  0
  7 19  1  0  0  0  0
  8  4  1  0  0  0  0
  8 25  2  0  0  0  0
  9  8  1  1  0  0  0
  9 10  1  0  0  0  0
  9 13  1  0  0  0  0
 10 11  1  0  0  0  0
 11 12  1  0  0  0  0
 14 15  1  0  0  0  0
 14 36  1  0  0  0  0
 15 17  1  0  0  0  0
 16 18  1  1  0  0  0
 16 26  1  0  0  0  0
 17 23  1  0  0  0  0
 19 20  1  6  0  0  0
 19 28  1  0  0  0  0
 21 22  1  0  0  0  0
 21 23  1  0  0  0  0
 22 24  1  0  0  0  0
 26 27  1  6  0  0  0
 26 29  1  0  0  0  0
 28  2  1  1  0  0  0
 28 31  1  0  0  0  0
 29 30  1  0  0  0  0
 29 33  1  1  0  0  0
 31 32  1  6  0  0  0
 31 35  1  0  0  0  0
 33 34  1  0  0  0  0
 35 36  1  1  0  0  0
M  END
>  <CHROM.1>
-105.26507222,-98.88639668,98.57937031,71.70015062,78.31406635,-66.92603967
-160.45328430,-79.42862640,125.52313599,-45.18148228,178.72905007,157.91487969
-170.46090971,-166.58784039,21.53820452,28.61678597,13.36694758,-1.41044174
1.29745920,-2.34481849

>  <Name>
2f4u_lig

>  <RI>
0

>  <Rbt.Current_Directory>
/home/itssahil/PROJECTS/Mol_Feturizer/New_Systems/rnas/2f4u

>  <Rbt.Executable>
rbdock ($Id: //depot/dev/client3/rdock/2013.1/src/exe/rbdock.cxx#4 $)

>  <Rbt.Library>
libRbt.so (2013.1, Build901 2013/11/27)

>  <Rbt.Parameter_File>
/export/apps/rDock/src/rDock_2013.1_src/data/scripts/dock_solv.prm

>  <Rbt.Receptor>
prm/blind_docking_100.prm

>  <SCORE>
6.30564

>  <SCORE.INTER>
1.42962

>  <SCORE.INTER.CONST>
1

>  <SCORE.INTER.POLAR>
-1.03923

>  <SCORE.INTER.ROT>
14

>  <SCORE.INTER.SOLV>
23.5785

>  <SCORE.INTER.VDW>
-16.3757

>  <SCORE.INTER.norm>
0.0397117

>  <SCORE.INTRA>
-1.91359

>  <SCORE.INTRA.DIHEDRAL>
-8.08883

>  <SCORE.INTRA.DIHEDRAL.0>
26.3805

>  <SCORE.INTRA.POLAR>
0

>  <SCORE.INTRA.POLAR.0>
0

>  <SCORE.INTRA.REPUL>
0

>  <SCORE.INTRA.REPUL.0>
0

>  <SCORE.INTRA.SOLV>
6.56482

>  <SCORE.INTRA.SOLV.lig_0>
-98.5587

>  <SCORE.INTRA.VDW>
-1.15159

>  <SCORE.INTRA.VDW.0>
-2.91167

>  <SCORE.INTRA.norm>
-0.0531554

>  <SCORE.RESTR>
6.78961

>  <SCORE.RESTR.CAVITY>
6.78961

>  <SCORE.RESTR.norm>
0.1886

>  <SCORE.SYSTEM>
0

>  <SCORE.SYSTEM.CONST>
0

>  <SCORE.SYSTEM.DIHEDRAL>
0

>  <SCORE.SYSTEM.SOLV>
0

>  <SCORE.SYSTEM.norm>
0

>  <SCORE.heavy>
36

>  <SCORE.norm>
0.175157

>  <RMSD>
30.512

$$$$
2f4u_lig
 OpenBabel11021811433D
libRbt.so/2013.1/901 2013/11/27
 36 37  0  0  0  0  0  0  0  0999 V2000
   22.5620   31.2034   16.6188 C   0  0  2  0  0  0  0  0  0  0  0  0
   21.3589   30.9992   15.7890 O   0  0  0  0  0  0  0  0  0  0  0  0
   20.7959   29.0247   11.9576 C   0  0  2  0  0  0  0  0  0  0  0  0
   20.8764   28.7701   10.4935 N   0  0  0  0  0  0  0  0  0  0  0  0
   22.2527   30.5834   18.0167 C   0  0  2  0  0  0  0  0  0  0  0  0
   21.9162   29.1498   17.9405 N   0  0  0  0  0  0  0  0  0  0  0  0
   20.0844   30.3877   12.2723 C   0  0  0  0  0  0  0  0  0  0  0  0
   20.4180   27.0887   10.1059 C   0  0  0  0  0  0  0  0  0  0  0  0
   20.8407   27.4447    8.7151 C   0  0  1  0  0  0  0  0  0  0  0  0
   21.1795   26.1347    7.9951 C   0  0  0  0  0  0  0  0  0  0  0  0
   22.0551   26.2683    6.7354 C   0  0  0  0  0  0  0  0  0  0  0  0
   23.4493   26.4306    7.1522 N   0  0  0  0  0  0  0  0  0  0  0  0
   19.7806   28.0472    8.0240 O   0  0  0  0  0  0  0  0  0  0  0  0
   23.8157   26.7876   12.1650 C   0  0  0  0  0  0  0  0  0  0  0  0
   23.5639   25.8279   13.3183 C   0  0  0  0  0  0  0  0  0  0  0  0
   21.0740   31.3775   18.6715 C   0  0  1  0  0  0  0  0  0  0  0  0
   22.1763   25.3286   13.3973 N   0  0  0  0  0  0  0  0  0  0  0  0
   20.7443   30.8416   19.9503 O   0  0  0  0  0  0  0  0  0  0  0  0
   20.0555   30.6682   13.7886 C   0  0  2  0  0  0  0  0  0  0  0  0
   19.4353   31.9552   14.0772 N   0  0  0  0  0  0  0  0  0  0  0  0
   22.3971   22.9344   12.7501 C   0  0  0  0  0  0  0  0  0  0  0  0
   22.0681   21.8257   11.7057 C   0  0  0  0  0  0  0  0  0  0  0  0
   21.7132   24.2914   12.4396 C   0  0  0  0  0  0  0  0  0  0  0  0
   22.4998   22.2120   10.3288 N   0  0  0  0  0  0  0  0  0  0  0  0
   20.0692   26.2310   10.6573 O   0  0  0  0  0  0  0  0  0  0  0  0
   21.4891   32.8590   18.7718 C   0  0  2  0  0  0  0  0  0  0  0  0
   20.4721   33.6726   19.3508 O   0  0  0  0  0  0  0  0  0  0  0  0
   21.4632   30.6823   14.3500 C   0  0  2  0  0  0  0  0  0  0  0  0
   21.8577   33.4204   17.3867 C   0  0  2  0  0  0  0  0  0  0  0  0
   22.8668   32.6198   16.7614 O   0  0  0  0  0  0  0  0  0  0  0  0
   22.1650   29.2909   14.0746 C   0  0  2  0  0  0  0  0  0  0  0  0
   23.5249   29.3393   14.6098 O   0  0  0  0  0  0  0  0  0  0  0  0
   22.3456   34.8421   17.4702 C   0  0  0  0  0  0  0  0  0  0  0  0
   21.3922   35.6453   18.0541 O   0  0  0  0  0  0  0  0  0  0  0  0
   22.2000   29.0398   12.5290 C   0  0  1  0  0  0  0  0  0  0  0  0
   22.8134   27.8251   12.2090 O   0  0  0  0  0  0  0  0  0  0  0  0
  1  2  1  6  0  0  0
  1  5  1  0  0  0  0
  1 30  1  0  0  0  0
  3  4  1  6  0  0  0
  3  7  1  0  0  0  0
  3 35  1  0  0  0  0
  5  6  1  6  0  0  0
  5 16  1  0  0  0  0
  7 19  1  0  0  0  0
  8  4  1  0  0  0  0
  8 25  2  0  0  0  0
  9  8  1  1  0  0  0
  9 10  1  0  0  0  0
  9 13  1  0  0  0  0
 10 11  1  0  0  0  0
 11 12  1  0  0  0  0
 14 15  1  0  0  0  0
 14 36  1  0  0  0  0
 15 17  1  0  0  0  0
 16 18  1  1  0  0  0
 16 26  1  0  0  0  0
 17 23  1  0  0  0  0
 19 20  1  6  0  0  0
 19 28  1  0  0  0  0
 21 22  1  0  0  0  0
 21 23  1  0  0  0  0
 22 24  1  0  0  0  0
 26 27  1  6  0  0  0
 26 29  1  0  0  0  0
 28  2  1  1  0  0  0
 28 31  1  0  0  0  0
 29 30  1  0  0  0  0
 29 33  1  1  0  0  0
 31 32  1  6  0  0  0
 31 35  1  0  0  0  0
 33 34  1  0  0  0  0
 35 36  1  1  0  0  0
M  END
>  <CHROM.1>
-142.85562568,-134.89164033,157.43346171,-160.92664484,79.42326641,51.39457125
91.14389409,75.46381118,70.08098231,59.65309538,-174.49583068,-174.80955418
-57.66591390,-176.43767042,21.66078457,28.94898809,13.66272040,-1.67377455
1.30561329,-2.20633767

>  <Name>
2f4u_lig

>  <RI>
0

>  <Rbt.Current_Directory>
/home/itssahil/PROJECTS/Mol_Feturizer/New_Systems/rnas/2f4u

>  <Rbt.Executable>
rbdock ($Id: //depot/dev/client3/rdock/2013.1/src/exe/rbdock.cxx#4 $)

>  <Rbt.Library>
libRbt.so (2013.1, Build901 2013/11/27)

>  <Rbt.Parameter_File>
/export/apps/rDock/src/rDock_2013.1_src/data/scripts/dock_solv.prm

>  <Rbt.Receptor>
prm/blind_docking_80.prm

>  <SCORE>
9.23391

>  <SCORE.INTER>
11.8098

>  <SCORE.INTER.CONST>
1

>  <SCORE.INTER.POLAR>
-0.984913

>  <SCORE.INTER.ROT>
14

>  <SCORE.INTER.SOLV>
22.2269

>  <SCORE.INTER.VDW>
-9.18602

>  <SCORE.INTER.norm>
0.328051

>  <SCORE.INTRA>
-5.72649

>  <SCORE.INTRA.DIHEDRAL>
-12.029

>  <SCORE.INTRA.DIHEDRAL.0>
26.3805

>  <SCORE.INTRA.POLAR>
0

>  <SCORE.INTRA.POLAR.0>
0

>  <SCORE.INTRA.REPUL>
0

>  <SCORE.INTRA.REPUL.0>
0

>  <SCORE.INTRA.SOLV>
3.17919

>  <SCORE.INTRA.SOLV.lig_0>
-98.5587

>  <SCORE.INTRA.VDW>
-1.30161

>  <SCORE.INTRA.VDW.0>
-2.91167

>  <SCORE.INTRA.norm>
-0.159069

>  <SCORE.RESTR>
3.15056

>  <SCORE.RESTR.CAVITY>
3.15056

>  <SCORE.RESTR.norm>
0.0875156

>  <SCORE.SYSTEM>
0

>  <SCORE.SYSTEM.CONST>
0

>  <SCORE.SYSTEM.DIHEDRAL>
0

>  <SCORE.SYSTEM.SOLV>
0

>  <SCORE.SYSTEM.norm>
0

>  <SCORE.heavy>
36

>  <SCORE.norm>
0.256498

>  <RMSD>
30.679

$$$$
2f4u_lig
 OpenBabel11021811433D
libRbt.so/2013.1/901 2013/11/27
 36 37  0  0  0  0  0  0  0  0999 V2000
   22.5416   31.0190   17.9703 C   0  0  2  0  0  0  0  0  0  0  0  0
   21.2084   30.5971   17.4988 O   0  0  0  0  0  0  0  0  0  0  0  0
   21.7241   27.5347   14.4572 C   0  0  2  0  0  0  0  0  0  0  0  0
   21.4907   26.7464   13.2167 N   0  0  0  0  0  0  0  0  0  0  0  0
   22.5341   30.8738   19.5237 C   0  0  2  0  0  0  0  0  0  0  0  0
   22.2433   29.4970   19.9643 N   0  0  0  0  0  0  0  0  0  0  0  0
   20.4622   27.5371   15.3904 C   0  0  0  0  0  0  0  0  0  0  0  0
   20.6741   25.2008   13.5796 C   0  0  0  0  0  0  0  0  0  0  0  0
   20.8949   24.9073   12.1288 C   0  0  1  0  0  0  0  0  0  0  0  0
   21.6911   23.6001   12.0470 C   0  0  0  0  0  0  0  0  0  0  0  0
   21.9645   23.0685   10.6279 C   0  0  0  0  0  0  0  0  0  0  0  0
   22.5636   21.7369   10.7366 N   0  0  0  0  0  0  0  0  0  0  0  0
   19.6687   24.6987   11.4829 O   0  0  0  0  0  0  0  0  0  0  0  0
   24.2915   29.3854   12.4231 C   0  0  0  0  0  0  0  0  0  0  0  0
   24.6679   28.2887   11.4379 C   0  0  0  0  0  0  0  0  0  0  0  0
   21.4766   31.8624   20.1179 C   0  0  1  0  0  0  0  0  0  0  0  0
   23.6651   28.0576   10.3787 N   0  0  0  0  0  0  0  0  0  0  0  0
   21.4227   31.7606   21.5385 O   0  0  0  0  0  0  0  0  0  0  0  0
   20.6951   28.4017   16.6461 C   0  0  2  0  0  0  0  0  0  0  0  0
   19.5074   28.4405   17.4900 N   0  0  0  0  0  0  0  0  0  0  0  0
   22.4468   26.7186    8.6690 C   0  0  0  0  0  0  0  0  0  0  0  0
   22.3932   25.3930    7.8516 C   0  0  0  0  0  0  0  0  0  0  0  0
   23.5056   26.6975    9.8022 C   0  0  0  0  0  0  0  0  0  0  0  0
   23.6826   25.1196    7.1488 N   0  0  0  0  0  0  0  0  0  0  0  0
   20.2821   24.7161   14.4587 O   0  0  0  0  0  0  0  0  0  0  0  0
   21.8474   33.2901   19.6694 C   0  0  2  0  0  0  0  0  0  0  0  0
   20.9328   34.2695   20.1554 O   0  0  0  0  0  0  0  0  0  0  0  0
   21.0446   29.8228   16.2516 C   0  0  2  0  0  0  0  0  0  0  0  0
   21.9177   33.3821   18.1345 C   0  0  2  0  0  0  0  0  0  0  0  0
   22.8150   32.4009   17.6031 O   0  0  0  0  0  0  0  0  0  0  0  0
   22.3447   29.8251   15.3493 C   0  0  2  0  0  0  0  0  0  0  0  0
   22.6473   31.2043   14.9692 O   0  0  0  0  0  0  0  0  0  0  0  0
   22.3588   34.7460   17.6746 C   0  0  0  0  0  0  0  0  0  0  0  0
   21.3926   35.6853   17.9562 O   0  0  0  0  0  0  0  0  0  0  0  0
   22.0754   28.9584   14.0728 C   0  0  1  0  0  0  0  0  0  0  0  0
   23.1843   28.9188   13.2225 O   0  0  0  0  0  0  0  0  0  0  0  0
  1  2  1  1  0  0  0
  1  5  1  0  0  0  0
  1 30  1  0  0  0  0
  3  4  1  6  0  0  0
  3  7  1  0  0  0  0
  3 35  1  0  0  0  0
  5  6  1  6  0  0  0
  5 16  1  0  0  0  0
  7 19  1  0  0  0  0
  8  4  1  0  0  0  0
  8 25  2  0  0  0  0
  9  8  1  1  0  0  0
  9 10  1  0  0  0  0
  9 13  1  0  0  0  0
 10 11  1  0  0  0  0
 11 12  1  0  0  0  0
 14 15  1  0  0  0  0
 14 36  1  0  0  0  0
 15 17  1  0  0  0  0
 16 18  1  1  0  0  0
 16 26  1  0  0  0  0
 17 23  1  0  0  0  0
 19 20  1  1  0  0  0
 19 28  1  0  0  0  0
 21 22  1  0  0  0  0
 21 23  1  0  0  0  0
 22 24  1  0  0  0  0
 26 27  1  6  0  0  0
 26 29  1  0  0  0  0
 28  2  1  1  0  0  0
 28 31  1  0  0  0  0
 29 30  1  0  0  0  0
 29 33  1  1  0  0  0
 31 32  1  6  0  0  0
 31 35  1  0  0  0  0
 33 34  1  0  0  0  0
 35 36  1  6  0  0  0
M  END
>  <CHROM.1>
-141.68982016,-44.21004900,122.99325473,176.77919729,-172.26944308,69.49331185
-161.08251844,-149.32653112,-177.35321103,-62.37008415,170.20250567,107.01008777
-68.00833833,-171.91828254,21.94577958,28.78006481,14.79159196,1.67396705
1.08958737,0.75920353

>  <Name>
2f4u_lig

>  <RI>
0

>  <Rbt.Current_Directory>
/home/itssahil/PROJECTS/Mol_Feturizer/New_Systems/rnas/2f4u

>  <Rbt.Executable>
rbdock ($Id: //depot/dev/client3/rdock/2013.1/src/exe/rbdock.cxx#4 $)

>  <Rbt.Library>
libRbt.so (2013.1, Build901 2013/11/27)

>  <Rbt.Parameter_File>
/export/apps/rDock/src/rDock_2013.1_src/data/scripts/dock_solv.prm

>  <Rbt.Receptor>
prm/blind_docking_100.prm

>  <SCORE>
-0.932135

>  <SCORE.INTER>
-4.11327

>  <SCORE.INTER.CONST>
1

>  <SCORE.INTER.POLAR>
-0.70406

>  <SCORE.INTER.ROT>
14

>  <SCORE.INTER.SOLV>
21.6414

>  <SCORE.INTER.VDW>
-20.5424

>  <SCORE.INTER.norm>
-0.114257

>  <SCORE.INTRA>
-4.27871

>  <SCORE.INTRA.DIHEDRAL>
-8.45653

>  <SCORE.INTRA.DIHEDRAL.0>
26.3805

>  <SCORE.INTRA.POLAR>
0

>  <SCORE.INTRA.POLAR.0>
0

>  <SCORE.INTRA.REPUL>
0.016223

>  <SCORE.INTRA.REPUL.0>
0

>  <SCORE.INTRA.SOLV>
2.06304

>  <SCORE.INTRA.SOLV.lig_0>
-98.5587

>  <SCORE.INTRA.VDW>
-1.16308

>  <SCORE.INTRA.VDW.0>
-2.91167

>  <SCORE.INTRA.norm>
-0.118853

>  <SCORE.RESTR>
7.45985

>  <SCORE.RESTR.CAVITY>
7.45985

>  <SCORE.RESTR.norm>
0.207218

>  <SCORE.SYSTEM>
0

>  <SCORE.SYSTEM.CONST>
0

>  <SCORE.SYSTEM.DIHEDRAL>
0

>  <SCORE.SYSTEM.SOLV>
0

>  <SCORE.SYSTEM.norm>
0

>  <SCORE.heavy>
36

>  <SCORE.norm>
-0.0258926

>  <RMSD>
30.777

$$$$
2f4u_lig
 OpenBabel11021811433D
libRbt.so/2013.1/901 2013/11/27
 36 37  0  0  0  0  0  0  0  0999 V2000
   20.2658   31.8020   16.1992 C   0  0  2  0  0  0  0  0  0  0  0  0
   21.0144   31.6835   14.9329 O   0  0  0  0  0  0  0  0  0  0  0  0
   22.6723   28.5327   12.4390 C   0  0  2  0  0  0  0  0  0  0  0  0
   22.8653   27.1857   11.8365 N   0  0  0  0  0  0  0  0  0  0  0  0
   19.7314   33.2661   16.2684 C   0  0  2  0  0  0  0  0  0  0  0  0
   18.8671   33.6102   15.1244 N   0  0  0  0  0  0  0  0  0  0  0  0
   22.8526   28.5036   13.9978 C   0  0  0  0  0  0  0  0  0  0  0  0
   21.5902   26.0541   12.3665 C   0  0  0  0  0  0  0  0  0  0  0  0
   22.3974   25.0266   11.6368 C   0  0  1  0  0  0  0  0  0  0  0  0
   21.9037   23.6509   12.0986 C   0  0  0  0  0  0  0  0  0  0  0  0
   22.4568   22.4432   11.3195 C   0  0  0  0  0  0  0  0  0  0  0  0
   21.8413   21.2252   11.8500 N   0  0  0  0  0  0  0  0  0  0  0  0
   22.1687   25.1187   10.2571 O   0  0  0  0  0  0  0  0  0  0  0  0
   21.0512   28.4989    9.3611 C   0  0  0  0  0  0  0  0  0  0  0  0
   19.8736   27.5379    9.2960 C   0  0  0  0  0  0  0  0  0  0  0  0
   20.9499   34.2456   16.3344 C   0  0  1  0  0  0  0  0  0  0  0  0
   19.8352   26.7110    8.0730 N   0  0  0  0  0  0  0  0  0  0  0  0
   20.5140   35.6015   16.3882 O   0  0  0  0  0  0  0  0  0  0  0  0
   22.5962   29.8922   14.6180 C   0  0  2  0  0  0  0  0  0  0  0  0
   22.7193   29.8545   16.0698 N   0  0  0  0  0  0  0  0  0  0  0  0
   20.5465   26.4314    5.7032 C   0  0  0  0  0  0  0  0  0  0  0  0
   22.0239   26.0829    6.0552 C   0  0  0  0  0  0  0  0  0  0  0  0
   19.8736   27.3676    6.7407 C   0  0  0  0  0  0  0  0  0  0  0  0
   22.6675   25.2502    4.9952 N   0  0  0  0  0  0  0  0  0  0  0  0
   20.7063   26.1108   12.9804 O   0  0  0  0  0  0  0  0  0  0  0  0
   21.7971   33.8772   17.5688 C   0  0  2  0  0  0  0  0  0  0  0  0
   22.9435   34.7120   17.7127 O   0  0  0  0  0  0  0  0  0  0  0  0
   21.2023   30.3762   14.2715 C   0  0  2  0  0  0  0  0  0  0  0  0
   22.2476   32.4066   17.5058 C   0  0  2  0  0  0  0  0  0  0  0  0
   21.1246   31.5333   17.3436 O   0  0  0  0  0  0  0  0  0  0  0  0
   21.0354   30.4511   12.6995 C   0  0  2  0  0  0  0  0  0  0  0  0
   19.6785   30.9025   12.3946 O   0  0  0  0  0  0  0  0  0  0  0  0
   23.0071   32.0000   18.7404 C   0  0  0  0  0  0  0  0  0  0  0  0
   23.8644   30.9606   18.4582 O   0  0  0  0  0  0  0  0  0  0  0  0
   21.2803   29.0262   12.0970 C   0  0  1  0  0  0  0  0  0  0  0  0
   21.1439   29.0149   10.7057 O   0  0  0  0  0  0  0  0  0  0  0  0
  1  2  1  6  0  0  0
  1  5  1  0  0  0  0
  1 30  1  0  0  0  0
  3  4  1  1  0  0  0
  3  7  1  0  0  0  0
  3 35  1  0  0  0  0
  5  6  1  6  0  0  0
  5 16  1  0  0  0  0
  7 19  1  0  0  0  0
  8  4  1  0  0  0  0
  8 25  2  0  0  0  0
  9  8  1  1  0  0  0
  9 10  1  0  0  0  0
  9 13  1  0  0  0  0
 10 11  1  0  0  0  0
 11 12  1  0  0  0  0
 14 15  1  0  0  0  0
 14 36  1  0  0  0  0
 15 17  1  0  0  0  0
 16 18  1  1  0  0  0
 16 26  1  0  0  0  0
 17 23  1  0  0  0  0
 19 20  1  1  0  0  0
 19 28  1  0  0  0  0
 21 22  1  0  0  0  0
 21 23  1  0  0  0  0
 22 24  1  0  0  0  0
 26 27  1  6  0  0  0
 26 29  1  0  0  0  0
 28  2  1  1  0  0  0
 28 31  1  0  0  0  0
 29 30  1  0  0  0  0
 29 33  1  1  0  0  0
 31 32  1  1  0  0  0
 31 35  1  0  0  0  0
 33 34  1  0  0  0  0
 35 36  1  6  0  0  0
M  END
>  <CHROM.1>
-155.52037254,65.57640965,164.48739424,171.33572341,-177.56036991,-167.20244710
58.89388874,-54.27381520,150.52308471,-176.48565446,-61.39426803,-99.98704992
-154.04147810,65.38533132,21.47994208,29.11050550,12.97795533,1.55169600
-1.18938980,0.80245983

>  <Name>
2f4u_lig

>  <RI>
0

>  <Rbt.Current_Directory>
/home/itssahil/PROJECTS/Mol_Feturizer/New_Systems/rnas/2f4u

>  <Rbt.Executable>
rbdock ($Id: //depot/dev/client3/rdock/2013.1/src/exe/rbdock.cxx#4 $)

>  <Rbt.Library>
libRbt.so (2013.1, Build901 2013/11/27)

>  <Rbt.Parameter_File>
/export/apps/rDock/src/rDock_2013.1_src/data/scripts/dock_solv.prm

>  <Rbt.Receptor>
prm/blind_docking_100.prm

>  <SCORE>
-1.05605

>  <SCORE.INTER>
-2.98857

>  <SCORE.INTER.CONST>
1

>  <SCORE.INTER.POLAR>
-1.02335

>  <SCORE.INTER.ROT>
14

>  <SCORE.INTER.SOLV>
23.892

>  <SCORE.INTER.VDW>
-19.4785

>  <SCORE.INTER.norm>
-0.0830158

>  <SCORE.INTRA>
-6.0376

>  <SCORE.INTRA.DIHEDRAL>
-13.5971

>  <SCORE.INTRA.DIHEDRAL.0>
26.3805

>  <SCORE.INTRA.POLAR>
0

>  <SCORE.INTRA.POLAR.0>
0

>  <SCORE.INTRA.REPUL>
0

>  <SCORE.INTRA.REPUL.0>
0

>  <SCORE.INTRA.SOLV>
4.45344

>  <SCORE.INTRA.SOLV.lig_0>
-98.5587

>  <SCORE.INTRA.VDW>
-1.46576

>  <SCORE.INTRA.VDW.0>
-2.91167

>  <SCORE.INTRA.norm>
-0.167711

>  <SCORE.RESTR>
7.97012

>  <SCORE.RESTR.CAVITY>
7.97012

>  <SCORE.RESTR.norm>
0.221392

>  <SCORE.SYSTEM>
0

>  <SCORE.SYSTEM.CONST>
0

>  <SCORE.SYSTEM.DIHEDRAL>
0

>  <SCORE.SYSTEM.SOLV>
0

>  <SCORE.SYSTEM.norm>
0

>  <SCORE.heavy>
36

>  <SCORE.norm>
-0.0293346

>  <RMSD>
30.801

$$$$
2f4u_lig
 OpenBabel11021811433D
libRbt.so/2013.1/901 2013/11/27
 36 37  0  0  0  0  0  0  0  0999 V2000
   22.2606   31.6558   16.3982 C   0  0  2  0  0  0  0  0  0  0  0  0
   21.1123   30.9667   15.7782 O   0  0  0  0  0  0  0  0  0  0  0  0
   20.7786   27.9738   12.6434 C   0  0  2  0  0  0  0  0  0  0  0  0
   20.8701   27.3471   11.2968 N   0  0  0  0  0  0  0  0  0  0  0  0
   22.2731   31.2414   17.9023 C   0  0  2  0  0  0  0  0  0  0  0  0
   22.3848   29.7831   18.0890 N   0  0  0  0  0  0  0  0  0  0  0  0
   19.8803   29.2607   12.6259 C   0  0  0  0  0  0  0  0  0  0  0  0
   22.1848   28.0771   10.3344 C   0  0  0  0  0  0  0  0  0  0  0  0
   21.6531   27.2250    9.2249 C   0  0  1  0  0  0  0  0  0  0  0  0
   20.5889   28.0486    8.4911 C   0  0  0  0  0  0  0  0  0  0  0  0
   19.7563   27.2877    7.4427 C   0  0  0  0  0  0  0  0  0  0  0  0
   20.6277   26.9406    6.3184 N   0  0  0  0  0  0  0  0  0  0  0  0
   22.6707   26.9316    8.3068 O   0  0  0  0  0  0  0  0  0  0  0  0
   23.3418   25.8021   13.3136 C   0  0  0  0  0  0  0  0  0  0  0  0
   22.4631   24.9083   12.4512 C   0  0  0  0  0  0  0  0  0  0  0  0
   20.9673   31.7713   18.5826 C   0  0  1  0  0  0  0  0  0  0  0  0
   22.5324   23.4749   12.7998 N   0  0  0  0  0  0  0  0  0  0  0  0
   20.9247   31.4084   19.9602 O   0  0  0  0  0  0  0  0  0  0  0  0
   19.8370   29.9332   14.0131 C   0  0  2  0  0  0  0  0  0  0  0  0
   19.0397   31.1530   13.9855 N   0  0  0  0  0  0  0  0  0  0  0  0
   20.2562   22.7406   13.4925 C   0  0  0  0  0  0  0  0  0  0  0  0
   19.5222   24.1115   13.3922 C   0  0  0  0  0  0  0  0  0  0  0  0
   21.3980   22.5793   12.4552 C   0  0  0  0  0  0  0  0  0  0  0  0
   18.8117   24.2686   12.0877 N   0  0  0  0  0  0  0  0  0  0  0  0
   22.9420   28.8269   10.4950 O   0  0  0  0  0  0  0  0  0  0  0  0
   20.9175   33.3017   18.4017 C   0  0  2  0  0  0  0  0  0  0  0  0
   19.7527   33.8822   18.9832 O   0  0  0  0  0  0  0  0  0  0  0  0
   21.2370   30.2906   14.4708 C   0  0  2  0  0  0  0  0  0  0  0  0
   20.9803   33.6802   16.9110 C   0  0  2  0  0  0  0  0  0  0  0  0
   22.1296   33.1011   16.2834 O   0  0  0  0  0  0  0  0  0  0  0  0
   22.1305   28.9860   14.5343 C   0  0  2  0  0  0  0  0  0  0  0  0
   23.4776   29.3625   14.9602 O   0  0  0  0  0  0  0  0  0  0  0  0
   21.0163   35.1721   16.7129 C   0  0  0  0  0  0  0  0  0  0  0  0
   19.7866   35.7250   16.9908 O   0  0  0  0  0  0  0  0  0  0  0  0
   22.1750   28.3344   13.1107 C   0  0  1  0  0  0  0  0  0  0  0  0
   22.9544   27.1741   13.0894 O   0  0  0  0  0  0  0  0  0  0  0  0
  1  2  1  6  0  0  0
  1  5  1  0  0  0  0
  1 30  1  0  0  0  0
  3  4  1  6  0  0  0
  3  7  1  0  0  0  0
  3 35  1  0  0  0  0
  5  6  1  6  0  0  0
  5 16  1  0  0  0  0
  7 19  1  0  0  0  0
  8  4  1  0  0  0  0
  8 25  2  0  0  0  0
  9  8  1  1  0  0  0
  9 10  1  0  0  0  0
  9 13  1  0  0  0  0
 10 11  1  0  0  0  0
 11 12  1  0  0  0  0
 14 15  1  0  0  0  0
 14 36  1  0  0  0  0
 15 17  1  0  0  0  0
 16 18  1  1  0  0  0
 16 26  1  0  0  0  0
 17 23  1  0  0  0  0
 19 20  1  6  0  0  0
 19 28  1  0  0  0  0
 21 22  1  0  0  0  0
 21 23  1  0  0  0  0
 22 24  1  0  0  0  0
 26 27  1  6  0  0  0
 26 29  1  0  0  0  0
 28  2  1  1  0  0  0
 28 31  1  0  0  0  0
 29 30  1  0  0  0  0
 29 33  1  1  0  0  0
 31 32  1  6  0  0  0
 31 35  1  0  0  0  0
 33 34  1  0  0  0  0
 35 36  1  1  0  0  0
M  END
>  <CHROM.1>
-135.31200020,86.46045351,89.67080318,-171.03579889,-68.58293835,-166.79172601
68.66405398,155.93889851,-79.56400072,64.25153508,70.22854196,-169.20310068
-72.36049381,-48.11982608,21.27845190,29.00200529,13.81382566,-1.82616500
1.46875941,-2.10467044

>  <Name>
2f4u_lig

>  <RI>
0

>  <Rbt.Current_Directory>
/home/itssahil/PROJECTS/Mol_Feturizer/New_Systems/rnas/2f4u

>  <Rbt.Executable>
rbdock ($Id: //depot/dev/client3/rdock/2013.1/src/exe/rbdock.cxx#4 $)

>  <Rbt.Library>
libRbt.so (2013.1, Build901 2013/11/27)

>  <Rbt.Parameter_File>
/export/apps/rDock/src/rDock_2013.1_src/data/scripts/dock_solv.prm

>  <Rbt.Receptor>
prm/blind_docking_100.prm

>  <SCORE>
6.12412

>  <SCORE.INTER>
2.37401

>  <SCORE.INTER.CONST>
1

>  <SCORE.INTER.POLAR>
-0.742723

>  <SCORE.INTER.ROT>
14

>  <SCORE.INTER.SOLV>
17.311

>  <SCORE.INTER.VDW>
-14.6452

>  <SCORE.INTER.norm>
0.0659447

>  <SCORE.INTRA>
-4.7918

>  <SCORE.INTRA.DIHEDRAL>
-13.5763

>  <SCORE.INTRA.DIHEDRAL.0>
26.3805

>  <SCORE.INTRA.POLAR>
0

>  <SCORE.INTRA.POLAR.0>
0

>  <SCORE.INTRA.REPUL>
0

>  <SCORE.INTRA.REPUL.0>
0

>  <SCORE.INTRA.SOLV>
5.86407

>  <SCORE.INTRA.SOLV.lig_0>
-98.5587

>  <SCORE.INTRA.VDW>
-0.935679

>  <SCORE.INTRA.VDW.0>
-2.91167

>  <SCORE.INTRA.norm>
-0.133106

>  <SCORE.RESTR>
8.54191

>  <SCORE.RESTR.CAVITY>
8.54191

>  <SCORE.RESTR.norm>
0.237275

>  <SCORE.SYSTEM>
0

>  <SCORE.SYSTEM.CONST>
0

>  <SCORE.SYSTEM.DIHEDRAL>
0

>  <SCORE.SYSTEM.SOLV>
0

>  <SCORE.SYSTEM.norm>
0

>  <SCORE.heavy>
36

>  <SCORE.norm>
0.170114

>  <RMSD>
30.898

$$$$
2f4u_lig
 OpenBabel11021811433D
libRbt.so/2013.1/901 2013/11/27
 36 37  0  0  0  0  0  0  0  0999 V2000
   22.4151   31.7651   17.2323 C   0  0  2  0  0  0  0  0  0  0  0  0
   21.1037   31.3036   16.7371 O   0  0  0  0  0  0  0  0  0  0  0  0
   21.7115   27.2784   15.2130 C   0  0  2  0  0  0  0  0  0  0  0  0
   21.5192   26.0542   14.3889 N   0  0  0  0  0  0  0  0  0  0  0  0
   22.7545   30.8935   18.4811 C   0  0  2  0  0  0  0  0  0  0  0  0
   22.7977   29.4521   18.1733 N   0  0  0  0  0  0  0  0  0  0  0  0
   20.4158   27.6464   16.0184 C   0  0  0  0  0  0  0  0  0  0  0  0
   20.9121   26.4627   12.7604 C   0  0  0  0  0  0  0  0  0  0  0  0
   20.7988   24.9806   12.5863 C   0  0  1  0  0  0  0  0  0  0  0  0
   19.8067   24.7329   11.4446 C   0  0  0  0  0  0  0  0  0  0  0  0
   20.3581   24.9338   10.0209 C   0  0  0  0  0  0  0  0  0  0  0  0
   21.1472   23.7555    9.6564 N   0  0  0  0  0  0  0  0  0  0  0  0
   22.0334   24.4407   12.2007 O   0  0  0  0  0  0  0  0  0  0  0  0
   24.2893   28.1229   12.6052 C   0  0  0  0  0  0  0  0  0  0  0  0
   23.7615   28.8285   11.3648 C   0  0  0  0  0  0  0  0  0  0  0  0
   21.6919   31.1728   19.5954 C   0  0  1  0  0  0  0  0  0  0  0  0
   24.6273   28.6902   10.1764 N   0  0  0  0  0  0  0  0  0  0  0  0
   21.9517   30.3900   20.7577 O   0  0  0  0  0  0  0  0  0  0  0  0
   20.6076   28.9465   16.8255 C   0  0  2  0  0  0  0  0  0  0  0  0
   19.3895   29.3124   17.5374 N   0  0  0  0  0  0  0  0  0  0  0  0
   23.8128   26.6350    9.0306 C   0  0  0  0  0  0  0  0  0  0  0  0
   23.8429   26.7215    7.4751 C   0  0  0  0  0  0  0  0  0  0  0  0
   25.0197   27.3362    9.7069 C   0  0  0  0  0  0  0  0  0  0  0  0
   24.9960   25.9679    6.8975 N   0  0  0  0  0  0  0  0  0  0  0  0
   20.6843   27.3665   12.2195 O   0  0  0  0  0  0  0  0  0  0  0  0
   21.7155   32.6809   19.9154 C   0  0  2  0  0  0  0  0  0  0  0  0
   20.7697   33.0404   20.9195 O   0  0  0  0  0  0  0  0  0  0  0  0
   20.9813   30.0902   15.9038 C   0  0  2  0  0  0  0  0  0  0  0  0
   21.4495   33.5146   18.6491 C   0  0  2  0  0  0  0  0  0  0  0  0
   22.3694   33.1711   17.6070 O   0  0  0  0  0  0  0  0  0  0  0  0
   22.3142   29.7393   15.1262 C   0  0  2  0  0  0  0  0  0  0  0  0
   22.6403   30.8501   14.2329 O   0  0  0  0  0  0  0  0  0  0  0  0
   21.5491   34.9921   18.9199 C   0  0  0  0  0  0  0  0  0  0  0  0
   21.3962   35.7072   17.7535 O   0  0  0  0  0  0  0  0  0  0  0  0
   22.0868   28.4286   14.2995 C   0  0  1  0  0  0  0  0  0  0  0  0
   23.2264   28.0587   13.5792 O   0  0  0  0  0  0  0  0  0  0  0  0
  1  2  1  1  0  0  0
  1  5  1  0  0  0  0
  1 30  1  0  0  0  0
  3  4  1  6  0  0  0
  3  7  1  0  0  0  0
  3 35  1  0  0  0  0
  5  6  1  6  0  0  0
  5 16  1  0  0  0  0
  7 19  1  0  0  0  0
  8  4  1  0  0  0  0
  8 25  2  0  0  0  0
  9  8  1  6  0  0  0
  9 10  1  0  0  0  0
  9 13  1  0  0  0  0
 10 11  1  0  0  0  0
 11 12  1  0  0  0  0
 14 15  1  0  0  0  0
 14 36  1  0  0  0  0
 15 17  1  0  0  0  0
 16 18  1  1  0  0  0
 16 26  1  0  0  0  0
 17 23  1  0  0  0  0
 19 20  1  6  0  0  0
 19 28  1  0  0  0  0
 21 22  1  0  0  0  0
 21 23  1  0  0  0  0
 22 24  1  0  0  0  0
 26 27  1  1  0  0  0
 26 29  1  0  0  0  0
 28  2  1  1  0  0  0
 28 31  1  0  0  0  0
 29 30  1  0  0  0  0
 29 33  1  1  0  0  0
 31 32  1  6  0  0  0
 31 35  1  0  0  0  0
 33 34  1  0  0  0  0
 35 36  1  1  0  0  0
M  END
>  <CHROM.1>
-80.24505779,90.00232286,159.47494744,78.07806689,78.37134904,-166.42665812
-32.54261072,54.64130643,73.39968287,65.65760418,98.92837796,96.78884664
175.94777542,173.08731845,22.03007135,29.02653514,14.62963885,-1.74973387
-0.94247202,-2.34982553

>  <Name>
2f4u_lig

>  <RI>
0

>  <Rbt.Current_Directory>
/home/itssahil/PROJECTS/Mol_Feturizer/New_Systems/rnas/2f4u

>  <Rbt.Executable>
rbdock ($Id: //depot/dev/client3/rdock/2013.1/src/exe/rbdock.cxx#4 $)

>  <Rbt.Library>
libRbt.so (2013.1, Build901 2013/11/27)

>  <Rbt.Parameter_File>
/export/apps/rDock/src/rDock_2013.1_src/data/scripts/dock_solv.prm

>  <Rbt.Receptor>
prm/blind_docking_80.prm

>  <SCORE>
3.03854

>  <SCORE.INTER>
-2.61042

>  <SCORE.INTER.CONST>
1

>  <SCORE.INTER.POLAR>
-0.798279

>  <SCORE.INTER.ROT>
14

>  <SCORE.INTER.SOLV>
15.57

>  <SCORE.INTER.VDW>
-17.2027

>  <SCORE.INTER.norm>
-0.0725117

>  <SCORE.INTRA>
2.3476

>  <SCORE.INTRA.DIHEDRAL>
-7.31775

>  <SCORE.INTRA.DIHEDRAL.0>
26.3805

>  <SCORE.INTRA.POLAR>
0

>  <SCORE.INTRA.POLAR.0>
0

>  <SCORE.INTRA.REPUL>
0

>  <SCORE.INTRA.REPUL.0>
0

>  <SCORE.INTRA.SOLV>
9.44361

>  <SCORE.INTRA.SOLV.lig_0>
-98.5587

>  <SCORE.INTRA.VDW>
1.28467

>  <SCORE.INTRA.VDW.0>
-2.91167

>  <SCORE.INTRA.norm>
0.065211

>  <SCORE.RESTR>
3.30137

>  <SCORE.RESTR.CAVITY>
3.30137

>  <SCORE.RESTR.norm>
0.0917047

>  <SCORE.SYSTEM>
0

>  <SCORE.SYSTEM.CONST>
0

>  <SCORE.SYSTEM.DIHEDRAL>
0

>  <SCORE.SYSTEM.SOLV>
0

>  <SCORE.SYSTEM.norm>
0

>  <SCORE.heavy>
36

>  <SCORE.norm>
0.084404

>  <RMSD>
30.920

$$$$
2f4u_lig
 OpenBabel11021811433D
libRbt.so/2013.1/901 2013/11/27
 36 37  0  0  0  0  0  0  0  0999 V2000
   20.5585   31.7528   16.9725 C   0  0  2  0  0  0  0  0  0  0  0  0
   21.5177   31.4025   15.9070 O   0  0  0  0  0  0  0  0  0  0  0  0
   22.2482   28.2423   13.0131 C   0  0  2  0  0  0  0  0  0  0  0  0
   22.0339   27.0065   12.2121 N   0  0  0  0  0  0  0  0  0  0  0  0
   20.9946   33.1438   17.5284 C   0  0  2  0  0  0  0  0  0  0  0  0
   21.0157   34.1898   16.4894 N   0  0  0  0  0  0  0  0  0  0  0  0
   22.2625   27.9416   14.5534 C   0  0  0  0  0  0  0  0  0  0  0  0
   20.5467   26.1594   12.7201 C   0  0  0  0  0  0  0  0  0  0  0  0
   20.9982   25.0955   11.7693 C   0  0  1  0  0  0  0  0  0  0  0  0
   21.5566   23.9427   12.6111 C   0  0  0  0  0  0  0  0  0  0  0  0
   20.5104   23.0228   13.2672 C   0  0  0  0  0  0  0  0  0  0  0  0
   19.6409   23.8383   14.1174 N   0  0  0  0  0  0  0  0  0  0  0  0
   19.9082   24.6001   11.0408 O   0  0  0  0  0  0  0  0  0  0  0  0
   20.8048   29.2925    9.9227 C   0  0  0  0  0  0  0  0  0  0  0  0
   21.1062   27.8568    9.5194 C   0  0  0  0  0  0  0  0  0  0  0  0
   22.4107   33.0056   18.1798 C   0  0  1  0  0  0  0  0  0  0  0  0
   21.0476   27.6127    8.0641 N   0  0  0  0  0  0  0  0  0  0  0  0
   22.8609   34.2558   18.6952 O   0  0  0  0  0  0  0  0  0  0  0  0
   22.4297   29.2355   15.3758 C   0  0  2  0  0  0  0  0  0  0  0  0
   22.3973   28.9611   16.8069 N   0  0  0  0  0  0  0  0  0  0  0  0
   21.9886   25.3416    7.6684 C   0  0  0  0  0  0  0  0  0  0  0  0
   21.9612   24.4014    8.9107 C   0  0  0  0  0  0  0  0  0  0  0  0
   20.7364   26.2503    7.5596 C   0  0  0  0  0  0  0  0  0  0  0  0
   23.3044   23.8117    9.1926 N   0  0  0  0  0  0  0  0  0  0  0  0
   19.7561   26.3348   13.4312 O   0  0  0  0  0  0  0  0  0  0  0  0
   22.3283   31.9367   19.2879 C   0  0  2  0  0  0  0  0  0  0  0  0
   23.5786   31.7294   19.9401 O   0  0  0  0  0  0  0  0  0  0  0  0
   21.3173   30.2133   15.0540 C   0  0  2  0  0  0  0  0  0  0  0  0
   21.8258   30.5966   18.7211 C   0  0  2  0  0  0  0  0  0  0  0  0
   20.5770   30.7641   18.0409 O   0  0  0  0  0  0  0  0  0  0  0  0
   21.3323   30.5538   13.5086 C   0  0  2  0  0  0  0  0  0  0  0  0
   20.2397   31.4829   13.2241 O   0  0  0  0  0  0  0  0  0  0  0  0
   21.6583   29.5597   19.7996 C   0  0  0  0  0  0  0  0  0  0  0  0
   20.6233   29.9019   20.6404 O   0  0  0  0  0  0  0  0  0  0  0  0
   21.1404   29.2278   12.6973 C   0  0  1  0  0  0  0  0  0  0  0  0
   21.1382   29.4530   11.3176 O   0  0  0  0  0  0  0  0  0  0  0  0
  1  2  1  6  0  0  0
  1  5  1  0  0  0  0
  1 30  1  0  0  0  0
  3  4  1  6  0  0  0
  3  7  1  0  0  0  0
  3 35  1  0  0  0  0
  5  6  1  6  0  0  0
  5 16  1  0  0  0  0
  7 19  1  0  0  0  0
  8  4  1  0  0  0  0
  8 25  2  0  0  0  0
  9  8  1  1  0  0  0
  9 10  1  0  0  0  0
  9 13  1  0  0  0  0
 10 11  1  0  0  0  0
 11 12  1  0  0  0  0
 14 15  1  0  0  0  0
 14 36  1  0  0  0  0
 15 17  1  0  0  0  0
 16 18  1  1  0  0  0
 16 26  1  0  0  0  0
 17 23  1  0  0  0  0
 19 20  1  1  0  0  0
 19 28  1  0  0  0  0
 21 22  1  0  0  0  0
 21 23  1  0  0  0  0
 22 24  1  0  0  0  0
 26 27  1  6  0  0  0
 26 29  1  0  0  0  0
 28  2  1  1  0  0  0
 28 31  1  0  0  0  0
 29 30  1  0  0  0  0
 29 33  1  1  0  0  0
 31 32  1  1  0  0  0
 31 35  1  0  0  0  0
 33 34  1  0  0  0  0
 35 36  1  6  0  0  0
M  END
>  <CHROM.1>
-172.99003538,55.05119147,104.47115125,77.92801752,-57.77750997,-169.36821945
-56.01834839,-153.77825102,-77.65191536,-164.95587551,100.03374699,-113.27765127
67.97234559,91.05608591,21.38848645,28.69128226,14.13590239,-0.58677499,-1.50534143
-1.23888962

>  <Name>
2f4u_lig

>  <RI>
0

>  <Rbt.Current_Directory>
/home/itssahil/PROJECTS/Mol_Feturizer/New_Systems/rnas/2f4u

>  <Rbt.Executable>
rbdock ($Id: //depot/dev/client3/rdock/2013.1/src/exe/rbdock.cxx#4 $)

>  <Rbt.Library>
libRbt.so (2013.1, Build901 2013/11/27)

>  <Rbt.Parameter_File>
/export/apps/rDock/src/rDock_2013.1_src/data/scripts/dock_solv.prm

>  <Rbt.Receptor>
prm/blind_docking_80.prm

>  <SCORE>
9.40616

>  <SCORE.INTER>
4.20845

>  <SCORE.INTER.CONST>
1

>  <SCORE.INTER.POLAR>
0

>  <SCORE.INTER.ROT>
14

>  <SCORE.INTER.SOLV>
20.6215

>  <SCORE.INTER.VDW>
-17.0015

>  <SCORE.INTER.norm>
0.116902

>  <SCORE.INTRA>
1.46074

>  <SCORE.INTRA.DIHEDRAL>
-5.59203

>  <SCORE.INTRA.DIHEDRAL.0>
26.3805

>  <SCORE.INTRA.POLAR>
0

>  <SCORE.INTRA.POLAR.0>
0

>  <SCORE.INTRA.REPUL>
0

>  <SCORE.INTRA.REPUL.0>
0

>  <SCORE.INTRA.SOLV>
9.77835

>  <SCORE.INTRA.SOLV.lig_0>
-98.5587

>  <SCORE.INTRA.VDW>
-0.632421

>  <SCORE.INTRA.VDW.0>
-2.91167

>  <SCORE.INTRA.norm>
0.0405761

>  <SCORE.RESTR>
3.73697

>  <SCORE.RESTR.CAVITY>
3.73697

>  <SCORE.RESTR.norm>
0.103805

>  <SCORE.SYSTEM>
0

>  <SCORE.SYSTEM.CONST>
0

>  <SCORE.SYSTEM.DIHEDRAL>
0

>  <SCORE.SYSTEM.SOLV>
0

>  <SCORE.SYSTEM.norm>
0

>  <SCORE.heavy>
36

>  <SCORE.norm>
0.261282

>  <RMSD>
30.926

$$$$
2f4u_lig
 OpenBabel11021811433D
libRbt.so/2013.1/901 2013/11/27
 36 37  0  0  0  0  0  0  0  0999 V2000
   22.8034   31.3618   17.7460 C   0  0  2  0  0  0  0  0  0  0  0  0
   21.6206   30.4979   17.5658 O   0  0  0  0  0  0  0  0  0  0  0  0
   21.7665   27.8233   14.1422 C   0  0  2  0  0  0  0  0  0  0  0  0
   21.3908   27.1897   12.8491 N   0  0  0  0  0  0  0  0  0  0  0  0
   23.2608   31.1918   19.2279 C   0  0  2  0  0  0  0  0  0  0  0  0
   23.5872   29.7939   19.5650 N   0  0  0  0  0  0  0  0  0  0  0  0
   20.6127   27.7132   15.2004 C   0  0  0  0  0  0  0  0  0  0  0  0
   20.5607   25.6312   13.1125 C   0  0  0  0  0  0  0  0  0  0  0  0
   20.6337   25.5031   11.6232 C   0  0  1  0  0  0  0  0  0  0  0  0
   21.1255   24.0847   11.3139 C   0  0  0  0  0  0  0  0  0  0  0  0
   21.4702   23.8004    9.8402 C   0  0  0  0  0  0  0  0  0  0  0  0
   21.8917   22.4032    9.7216 N   0  0  0  0  0  0  0  0  0  0  0  0
   19.3578   25.6424   11.0602 O   0  0  0  0  0  0  0  0  0  0  0  0
   24.4111   29.2234   12.3343 C   0  0  0  0  0  0  0  0  0  0  0  0
   24.5060   27.8621   11.6615 C   0  0  0  0  0  0  0  0  0  0  0  0
   22.1285   31.7208   20.1695 C   0  0  1  0  0  0  0  0  0  0  0  0
   23.7447   27.7568   10.4004 N   0  0  0  0  0  0  0  0  0  0  0  0
   22.4938   31.5773   21.5397 O   0  0  0  0  0  0  0  0  0  0  0  0
   20.9905   28.4208   16.5177 C   0  0  2  0  0  0  0  0  0  0  0  0
   19.9012   28.3575   17.4840 N   0  0  0  0  0  0  0  0  0  0  0  0
   22.9272   26.6016    8.3517 C   0  0  0  0  0  0  0  0  0  0  0  0
   21.4736   27.1580    8.4273 C   0  0  0  0  0  0  0  0  0  0  0  0
   23.5922   26.4332    9.7428 C   0  0  0  0  0  0  0  0  0  0  0  0
   20.7883   27.1077    7.1009 N   0  0  0  0  0  0  0  0  0  0  0  0
   20.2375   25.0566   13.9650 O   0  0  0  0  0  0  0  0  0  0  0  0
   21.8546   33.1952   19.8113 C   0  0  2  0  0  0  0  0  0  0  0  0
   20.8253   33.7693   20.6130 O   0  0  0  0  0  0  0  0  0  0  0  0
   21.3135   29.8790   16.2602 C   0  0  2  0  0  0  0  0  0  0  0  0
   21.4769   33.3378   18.3259 C   0  0  2  0  0  0  0  0  0  0  0  0
   22.4791   32.7567   17.4844 O   0  0  0  0  0  0  0  0  0  0  0  0
   22.5088   29.9902   15.2290 C   0  0  2  0  0  0  0  0  0  0  0  0
   22.7862   31.4051   14.9858 O   0  0  0  0  0  0  0  0  0  0  0  0
   21.2851   34.7782   17.9324 C   0  0  0  0  0  0  0  0  0  0  0  0
   20.6986   34.8643   16.6899 O   0  0  0  0  0  0  0  0  0  0  0  0
   22.0925   29.2830   13.8949 C   0  0  1  0  0  0  0  0  0  0  0  0
   23.1027   29.3463   12.9307 O   0  0  0  0  0  0  0  0  0  0  0  0
  1  2  1  1  0  0  0
  1  5  1  0  0  0  0
  1 30  1  0  0  0  0
  3  4  1  6  0  0  0
  3  7  1  0  0  0  0
  3 35  1  0  0  0  0
  5  6  1  1  0  0  0
  5 16  1  0  0  0  0
  7 19  1  0  0  0  0
  8  4  1  0  0  0  0
  8 25  2  0  0  0  0
  9  8  1  1  0  0  0
  9 10  1  0  0  0  0
  9 13  1  0  0  0  0
 10 11  1  0  0  0  0
 11 12  1  0  0  0  0
 14 15  1  0  0  0  0
 14 36  1  0  0  0  0
 15 17  1  0  0  0  0
 16 18  1  1  0  0  0
 16 26  1  0  0  0  0
 17 23  1  0  0  0  0
 19 20  1  1  0  0  0
 19 28  1  0  0  0  0
 21 22  1  0  0  0  0
 21 23  1  0  0  0  0
 22 24  1  0  0  0  0
 26 27  1  1  0  0  0
 26 29  1  0  0  0  0
 28  2  1  1  0  0  0
 28 31  1  0  0  0  0
 29 30  1  0  0  0  0
 29 33  1  6  0  0  0
 31 32  1  6  0  0  0
 31 35  1  0  0  0  0
 33 34  1  0  0  0  0
 35 36  1  6  0  0  0
M  END
>  <CHROM.1>
-149.56766636,-42.74766028,133.69002883,-171.42211613,-178.81392763,74.07913811
92.44497225,-171.33096042,-172.39748971,-171.07863560,-63.86685422,133.23782060
-168.17667096,-70.51588664,21.87260300,29.00171466,14.60038994,-1.53193508
-1.21451583,-2.18720158

>  <Name>
2f4u_lig

>  <RI>
0

>  <Rbt.Current_Directory>
/home/itssahil/PROJECTS/Mol_Feturizer/New_Systems/rnas/2f4u

>  <Rbt.Executable>
rbdock ($Id: //depot/dev/client3/rdock/2013.1/src/exe/rbdock.cxx#4 $)

>  <Rbt.Library>
libRbt.so (2013.1, Build901 2013/11/27)

>  <Rbt.Parameter_File>
/export/apps/rDock/src/rDock_2013.1_src/data/scripts/dock_solv.prm

>  <Rbt.Receptor>
prm/blind_docking_100.prm

>  <SCORE>
1.75699

>  <SCORE.INTER>
0.15773

>  <SCORE.INTER.CONST>
1

>  <SCORE.INTER.POLAR>
-0.718394

>  <SCORE.INTER.ROT>
14

>  <SCORE.INTER.SOLV>
25.9431

>  <SCORE.INTER.VDW>
-19.0812

>  <SCORE.INTER.norm>
0.00438138

>  <SCORE.INTRA>
-4.55218

>  <SCORE.INTRA.DIHEDRAL>
-7.37777

>  <SCORE.INTRA.DIHEDRAL.0>
26.3805

>  <SCORE.INTRA.POLAR>
0

>  <SCORE.INTRA.POLAR.0>
0

>  <SCORE.INTRA.REPUL>
0

>  <SCORE.INTRA.REPUL.0>
0

>  <SCORE.INTRA.SOLV>
1.21682

>  <SCORE.INTRA.SOLV.lig_0>
-98.5587

>  <SCORE.INTRA.VDW>
-1.47171

>  <SCORE.INTRA.VDW.0>
-2.91167

>  <SCORE.INTRA.norm>
-0.126449

>  <SCORE.RESTR>
6.15145

>  <SCORE.RESTR.CAVITY>
6.15145

>  <SCORE.RESTR.norm>
0.170874

>  <SCORE.SYSTEM>
0

>  <SCORE.SYSTEM.CONST>
0

>  <SCORE.SYSTEM.DIHEDRAL>
0

>  <SCORE.SYSTEM.SOLV>
0

>  <SCORE.SYSTEM.norm>
0

>  <SCORE.heavy>
36

>  <SCORE.norm>
0.0488054

>  <RMSD>
30.943

$$$$
2f4u_lig
 OpenBabel11021811433D
libRbt.so/2013.1/901 2013/11/27
 36 37  0  0  0  0  0  0  0  0999 V2000
   20.7903   31.3720   17.6512 C   0  0  2  0  0  0  0  0  0  0  0  0
   21.8447   30.7396   16.8350 O   0  0  0  0  0  0  0  0  0  0  0  0
   21.6967   27.1435   14.3975 C   0  0  2  0  0  0  0  0  0  0  0  0
   21.2930   26.2087   13.3121 N   0  0  0  0  0  0  0  0  0  0  0  0
   21.0768   32.9056   17.6431 C   0  0  2  0  0  0  0  0  0  0  0  0
   21.0867   33.4747   16.2829 N   0  0  0  0  0  0  0  0  0  0  0  0
   20.4745   27.5621   15.2886 C   0  0  0  0  0  0  0  0  0  0  0  0
   20.2833   24.8807   13.9480 C   0  0  0  0  0  0  0  0  0  0  0  0
   20.3889   24.3273   12.5615 C   0  0  1  0  0  0  0  0  0  0  0  0
   21.3165   23.1090   12.6293 C   0  0  0  0  0  0  0  0  0  0  0  0
   22.8259   23.4137   12.6238 C   0  0  0  0  0  0  0  0  0  0  0  0
   23.5546   22.1547   12.4565 N   0  0  0  0  0  0  0  0  0  0  0  0
   19.1356   23.8827   12.1189 O   0  0  0  0  0  0  0  0  0  0  0  0
   24.1403   27.1798   12.0245 C   0  0  0  0  0  0  0  0  0  0  0  0
   23.2280   26.8166   10.8624 C   0  0  0  0  0  0  0  0  0  0  0  0
   22.4513   33.1660   18.3441 C   0  0  1  0  0  0  0  0  0  0  0  0
   22.5469   27.9723   10.2446 N   0  0  0  0  0  0  0  0  0  0  0  0
   22.7657   34.5562   18.3532 O   0  0  0  0  0  0  0  0  0  0  0  0
   20.8931   28.5733   16.3753 C   0  0  2  0  0  0  0  0  0  0  0  0
   19.7494   28.9963   17.1736 N   0  0  0  0  0  0  0  0  0  0  0  0
   21.2421   30.0045   10.8511 C   0  0  0  0  0  0  0  0  0  0  0  0
   20.1188   30.5831   11.7630 C   0  0  0  0  0  0  0  0  0  0  0  0
   21.2597   28.4541   10.8090 C   0  0  0  0  0  0  0  0  0  0  0  0
   20.3290   30.2282   13.1987 N   0  0  0  0  0  0  0  0  0  0  0  0
   19.8698   24.6081   14.9051 O   0  0  0  0  0  0  0  0  0  0  0  0
   22.3775   32.5961   19.7748 C   0  0  2  0  0  0  0  0  0  0  0  0
   23.5926   32.7769   20.4975 O   0  0  0  0  0  0  0  0  0  0  0  0
   21.5119   29.8034   15.7420 C   0  0  2  0  0  0  0  0  0  0  0  0
   22.0217   31.0987   19.7511 C   0  0  2  0  0  0  0  0  0  0  0  0
   20.8132   30.8708   19.0178 O   0  0  0  0  0  0  0  0  0  0  0  0
   22.7731   29.3873   14.8814 C   0  0  2  0  0  0  0  0  0  0  0  0
   23.3379   30.5888   14.2688 O   0  0  0  0  0  0  0  0  0  0  0  0
   21.8627   30.5385   21.1393 C   0  0  0  0  0  0  0  0  0  0  0  0
   23.0542   30.6056   21.8254 O   0  0  0  0  0  0  0  0  0  0  0  0
   22.3181   28.3776   13.7737 C   0  0  1  0  0  0  0  0  0  0  0  0
   23.3843   27.9683   12.9676 O   0  0  0  0  0  0  0  0  0  0  0  0
  1  2  1  6  0  0  0
  1  5  1  0  0  0  0
  1 30  1  0  0  0  0
  3  4  1  6  0  0  0
  3  7  1  0  0  0  0
  3 35  1  0  0  0  0
  5  6  1  6  0  0  0
  5 16  1  0  0  0  0
  7 19  1  0  0  0  0
  8  4  1  0  0  0  0
  8 25  2  0  0  0  0
  9  8  1  1  0  0  0
  9 10  1  0  0  0  0
  9 13  1  0  0  0  0
 10 11  1  0  0  0  0
 11 12  1  0  0  0  0
 14 15  1  0  0  0  0
 14 36  1  0  0  0  0
 15 17  1  0  0  0  0
 16 18  1  1  0  0  0
 16 26  1  0  0  0  0
 17 23  1  0  0  0  0
 19 20  1  6  0  0  0
 19 28  1  0  0  0  0
 21 22  1  0  0  0  0
 21 23  1  0  0  0  0
 22 24  1  0  0  0  0
 26 27  1  6  0  0  0
 26 29  1  0  0  0  0
 28  2  1  1  0  0  0
 28 31  1  0  0  0  0
 29 30  1  0  0  0  0
 29 33  1  1  0  0  0
 31 32  1  6  0  0  0
 31 35  1  0  0  0  0
 33 34  1  0  0  0  0
 35 36  1  1  0  0  0
M  END
>  <CHROM.1>
-128.67100491,-48.15664999,107.92935512,-81.33398541,-170.23096157,52.68392130
43.30571879,-86.35936949,137.93494996,64.99414554,-164.52288122,-66.17174236
-63.68653842,40.69793142,21.72187618,28.82409549,15.20737165,-1.03236983
-1.47291878,-1.81337505

>  <Name>
2f4u_lig

>  <RI>
0

>  <Rbt.Current_Directory>
/home/itssahil/PROJECTS/Mol_Feturizer/New_Systems/rnas/2f4u

>  <Rbt.Executable>
rbdock ($Id: //depot/dev/client3/rdock/2013.1/src/exe/rbdock.cxx#4 $)

>  <Rbt.Library>
libRbt.so (2013.1, Build901 2013/11/27)

>  <Rbt.Parameter_File>
/export/apps/rDock/src/rDock_2013.1_src/data/scripts/dock_solv.prm

>  <Rbt.Receptor>
prm/blind_docking_80.prm

>  <SCORE>
2.88222

>  <SCORE.INTER>
-1.16408

>  <SCORE.INTER.CONST>
1

>  <SCORE.INTER.POLAR>
-0.449075

>  <SCORE.INTER.ROT>
14

>  <SCORE.INTER.SOLV>
20.8664

>  <SCORE.INTER.VDW>
-19.1679

>  <SCORE.INTER.norm>
-0.0323356

>  <SCORE.INTRA>
-1.20592

>  <SCORE.INTRA.DIHEDRAL>
-9.44595

>  <SCORE.INTRA.DIHEDRAL.0>
26.3805

>  <SCORE.INTRA.POLAR>
0

>  <SCORE.INTRA.POLAR.0>
0

>  <SCORE.INTRA.REPUL>
0

>  <SCORE.INTRA.REPUL.0>
0

>  <SCORE.INTRA.SOLV>
10.5004

>  <SCORE.INTRA.SOLV.lig_0>
-98.5587

>  <SCORE.INTRA.VDW>
-1.73316

>  <SCORE.INTRA.VDW.0>
-2.91167

>  <SCORE.INTRA.norm>
-0.0334978

>  <SCORE.RESTR>
5.25223

>  <SCORE.RESTR.CAVITY>
5.25223

>  <SCORE.RESTR.norm>
0.145895

>  <SCORE.SYSTEM>
0

>  <SCORE.SYSTEM.CONST>
0

>  <SCORE.SYSTEM.DIHEDRAL>
0

>  <SCORE.SYSTEM.SOLV>
0

>  <SCORE.SYSTEM.norm>
0

>  <SCORE.heavy>
36

>  <SCORE.norm>
0.0800618

>  <RMSD>
30.970

$$$$
2f4u_lig
 OpenBabel11021811433D
libRbt.so/2013.1/901 2013/11/27
 36 37  0  0  0  0  0  0  0  0999 V2000
   22.7909   31.2957   17.5954 C   0  0  2  0  0  0  0  0  0  0  0  0
   21.7847   30.4504   16.9238 O   0  0  0  0  0  0  0  0  0  0  0  0
   20.7173   29.4739   12.8247 C   0  0  2  0  0  0  0  0  0  0  0  0
   20.8720   29.1891   11.3722 N   0  0  0  0  0  0  0  0  0  0  0  0
   22.8224   30.8524   19.0909 C   0  0  2  0  0  0  0  0  0  0  0  0
   23.1565   29.4254   19.2535 N   0  0  0  0  0  0  0  0  0  0  0  0
   21.2548   30.9004   13.1979 C   0  0  0  0  0  0  0  0  0  0  0  0
   19.5335   28.1733   10.7688 C   0  0  0  0  0  0  0  0  0  0  0  0
   20.3191   28.1442    9.4953 C   0  0  1  0  0  0  0  0  0  0  0  0
   21.4189   27.0902    9.6653 C   0  0  0  0  0  0  0  0  0  0  0  0
   22.4141   26.9642    8.4970 C   0  0  0  0  0  0  0  0  0  0  0  0
   23.3959   25.9305    8.8308 N   0  0  0  0  0  0  0  0  0  0  0  0
   19.5034   27.7387    8.4301 O   0  0  0  0  0  0  0  0  0  0  0  0
   20.7834   25.7377   13.2544 C   0  0  0  0  0  0  0  0  0  0  0  0
   20.0472   25.3446   11.9823 C   0  0  0  0  0  0  0  0  0  0  0  0
   21.4294   31.1546   19.7364 C   0  0  1  0  0  0  0  0  0  0  0  0
   20.3574   23.9835   11.5004 N   0  0  0  0  0  0  0  0  0  0  0  0
   21.4024   30.7564   21.1047 O   0  0  0  0  0  0  0  0  0  0  0  0
   21.1408   31.1638   14.7133 C   0  0  2  0  0  0  0  0  0  0  0  0
   21.6817   32.4706   15.0657 N   0  0  0  0  0  0  0  0  0  0  0  0
   21.8566   22.3520   10.3643 C   0  0  0  0  0  0  0  0  0  0  0  0
   22.4669   21.9175   11.7307 C   0  0  0  0  0  0  0  0  0  0  0  0
   21.3069   23.8024   10.3721 C   0  0  0  0  0  0  0  0  0  0  0  0
   23.5639   22.8327   12.1668 N   0  0  0  0  0  0  0  0  0  0  0  0
   18.6337   27.7472   11.1812 O   0  0  0  0  0  0  0  0  0  0  0  0
   21.1449   32.6622   19.5831 C   0  0  2  0  0  0  0  0  0  0  0  0
   19.8862   33.0389   20.1356 O   0  0  0  0  0  0  0  0  0  0  0  0
   21.9015   30.1088   15.4915 C   0  0  2  0  0  0  0  0  0  0  0  0
   21.1929   33.0817   18.1028 C   0  0  2  0  0  0  0  0  0  0  0  0
   22.4376   32.7051   17.5037 O   0  0  0  0  0  0  0  0  0  0  0  0
   21.3283   28.6735   15.1514 C   0  0  2  0  0  0  0  0  0  0  0  0
   22.0911   27.6761   15.9006 O   0  0  0  0  0  0  0  0  0  0  0  0
   20.9998   34.5651   17.9343 C   0  0  0  0  0  0  0  0  0  0  0  0
   22.1073   35.2491   18.3821 O   0  0  0  0  0  0  0  0  0  0  0  0
   21.4744   28.4228   13.6122 C   0  0  1  0  0  0  0  0  0  0  0  0
   20.9908   27.1658   13.2376 O   0  0  0  0  0  0  0  0  0  0  0  0
  1  2  1  6  0  0  0
  1  5  1  0  0  0  0
  1 30  1  0  0  0  0
  3  4  1  6  0  0  0
  3  7  1  0  0  0  0
  3 35  1  0  0  0  0
  5  6  1  6  0  0  0
  5 16  1  0  0  0  0
  7 19  1  0  0  0  0
  8  4  1  0  0  0  0
  8 25  2  0  0  0  0
  9  8  1  1  0  0  0
  9 10  1  0  0  0  0
  9 13  1  0  0  0  0
 10 11  1  0  0  0  0
 11 12  1  0  0  0  0
 14 15  1  0  0  0  0
 14 36  1  0  0  0  0
 15 17  1  0  0  0  0
 16 18  1  1  0  0  0
 16 26  1  0  0  0  0
 17 23  1  0  0  0  0
 19 20  1  6  0  0  0
 19 28  1  0  0  0  0
 21 22  1  0  0  0  0
 21 23  1  0  0  0  0
 22 24  1  0  0  0  0
 26 27  1  6  0  0  0
 26 29  1  0  0  0  0
 28  2  1  1  0  0  0
 28 31  1  0  0  0  0
 29 30  1  0  0  0  0
 29 33  1  1  0  0  0
 31 32  1  1  0  0  0
 31 35  1  0  0  0  0
 33 34  1  0  0  0  0
 35 36  1  1  0  0  0
M  END
>  <CHROM.1>
-150.59807041,-146.28888708,80.54824537,-175.89159219,179.40323442,149.87964530
-170.35393846,-101.26367997,160.16092104,-57.22567843,-53.11395781,-91.58814234
71.03206807,-170.25725438,21.38566005,28.85802332,14.31525474,-1.46448303
1.29476746,-2.38558561

>  <Name>
2f4u_lig

>  <RI>
0

>  <Rbt.Current_Directory>
/home/itssahil/PROJECTS/Mol_Feturizer/New_Systems/rnas/2f4u

>  <Rbt.Executable>
rbdock ($Id: //depot/dev/client3/rdock/2013.1/src/exe/rbdock.cxx#4 $)

>  <Rbt.Library>
libRbt.so (2013.1, Build901 2013/11/27)

>  <Rbt.Parameter_File>
/export/apps/rDock/src/rDock_2013.1_src/data/scripts/dock_solv.prm

>  <Rbt.Receptor>
prm/blind_docking_80.prm

>  <SCORE>
4.49928

>  <SCORE.INTER>
5.56098

>  <SCORE.INTER.CONST>
1

>  <SCORE.INTER.POLAR>
-0.139805

>  <SCORE.INTER.ROT>
14

>  <SCORE.INTER.SOLV>
23.777

>  <SCORE.INTER.VDW>
-16.6857

>  <SCORE.INTER.norm>
0.154472

>  <SCORE.INTRA>
-3.68882

>  <SCORE.INTRA.DIHEDRAL>
-11.3051

>  <SCORE.INTRA.DIHEDRAL.0>
26.3805

>  <SCORE.INTRA.POLAR>
0

>  <SCORE.INTRA.POLAR.0>
0

>  <SCORE.INTRA.REPUL>
0

>  <SCORE.INTRA.REPUL.0>
0

>  <SCORE.INTRA.SOLV>
7.51352

>  <SCORE.INTRA.SOLV.lig_0>
-98.5587

>  <SCORE.INTRA.VDW>
-1.79303

>  <SCORE.INTRA.VDW.0>
-2.91167

>  <SCORE.INTRA.norm>
-0.102467

>  <SCORE.RESTR>
2.62712

>  <SCORE.RESTR.CAVITY>
2.62712

>  <SCORE.RESTR.norm>
0.0729756

>  <SCORE.SYSTEM>
0

>  <SCORE.SYSTEM.CONST>
0

>  <SCORE.SYSTEM.DIHEDRAL>
0

>  <SCORE.SYSTEM.SOLV>
0

>  <SCORE.SYSTEM.norm>
0

>  <SCORE.heavy>
36

>  <SCORE.norm>
0.12498

>  <RMSD>
31.015

$$$$
2f4u_lig
 OpenBabel11021811433D
libRbt.so/2013.1/901 2013/11/27
 36 37  0  0  0  0  0  0  0  0999 V2000
   20.0232   27.8582   10.2043 C   0  0  2  0  0  0  0  0  0  0  0  0
   21.4811   28.0217   10.3652 O   0  0  0  0  0  0  0  0  0  0  0  0
   22.1817   29.2189   14.4847 C   0  0  2  0  0  0  0  0  0  0  0  0
   22.8201   29.8749   15.6582 N   0  0  0  0  0  0  0  0  0  0  0  0
   19.6138   26.6208   11.0619 C   0  0  2  0  0  0  0  0  0  0  0  0
   19.9610   26.7768   12.4864 N   0  0  0  0  0  0  0  0  0  0  0  0
   23.1743   28.2517   13.7483 C   0  0  0  0  0  0  0  0  0  0  0  0
   21.9081   29.5431   17.1568 C   0  0  0  0  0  0  0  0  0  0  0  0
   22.8655   30.5074   17.7839 C   0  0  1  0  0  0  0  0  0  0  0  0
   22.1506   31.1409   18.9826 C   0  0  0  0  0  0  0  0  0  0  0  0
   21.9297   30.2191   20.1962 C   0  0  0  0  0  0  0  0  0  0  0  0
   23.2159   30.0131   20.8648 N   0  0  0  0  0  0  0  0  0  0  0  0
   23.9905   29.8280   18.2710 O   0  0  0  0  0  0  0  0  0  0  0  0
   20.4163   32.2478   15.0453 C   0  0  0  0  0  0  0  0  0  0  0  0
   21.3834   32.3780   16.2125 C   0  0  0  0  0  0  0  0  0  0  0  0
   20.3100   25.3478   10.4758 C   0  0  1  0  0  0  0  0  0  0  0  0
   21.5454   33.7583   16.7121 N   0  0  0  0  0  0  0  0  0  0  0  0
   19.9758   24.1876   11.2331 O   0  0  0  0  0  0  0  0  0  0  0  0
   22.5208   27.6199   12.5023 C   0  0  2  0  0  0  0  0  0  0  0  0
   23.4573   26.7571   11.7933 N   0  0  0  0  0  0  0  0  0  0  0  0
   21.5090   35.1562   18.7724 C   0  0  0  0  0  0  0  0  0  0  0  0
   22.5142   34.3713   19.6679 C   0  0  0  0  0  0  0  0  0  0  0  0
   20.6886   34.2419   17.8254 C   0  0  0  0  0  0  0  0  0  0  0  0
   23.2674   35.2777   20.5858 N   0  0  0  0  0  0  0  0  0  0  0  0
   21.0392   28.9655   17.4265 O   0  0  0  0  0  0  0  0  0  0  0  0
   19.8820   25.2008    9.0020 C   0  0  2  0  0  0  0  0  0  0  0  0
   20.4744   24.0676    8.3722 O   0  0  0  0  0  0  0  0  0  0  0  0
   22.0520   28.6992   11.5471 C   0  0  2  0  0  0  0  0  0  0  0  0
   20.2341   26.4664    8.1996 C   0  0  2  0  0  0  0  0  0  0  0  0
   19.6712   27.6330    8.8098 O   0  0  0  0  0  0  0  0  0  0  0  0
   21.0147   29.6470   12.2752 C   0  0  2  0  0  0  0  0  0  0  0  0
   20.5941   30.6873   11.3377 O   0  0  0  0  0  0  0  0  0  0  0  0
   19.7516   26.3796    6.7762 C   0  0  0  0  0  0  0  0  0  0  0  0
   20.1109   27.5091    6.0760 O   0  0  0  0  0  0  0  0  0  0  0  0
   21.7083   30.2910   13.5231 C   0  0  1  0  0  0  0  0  0  0  0  0
   20.8490   31.1488   14.2160 O   0  0  0  0  0  0  0  0  0  0  0  0
  1  2  1  6  0  0  0
  1  5  1  0  0  0  0
  1 30  1  0  0  0  0
  3  4  1  1  0  0  0
  3  7  1  0  0  0  0
  3 35  1  0  0  0  0
  5  6  1  1  0  0  0
  5 16  1  0  0  0  0
  7 19  1  0  0  0  0
  8  4  1  0  0  0  0
  8 25  2  0  0  0  0
  9  8  1  1  0  0  0
  9 10  1  0  0  0  0
  9 13  1  0  0  0  0
 10 11  1  0  0  0  0
 11 12  1  0  0  0  0
 14 15  1  0  0  0  0
 14 36  1  0  0  0  0
 15 17  1  0  0  0  0
 16 18  1  1  0  0  0
 16 26  1  0  0  0  0
 17 23  1  0  0  0  0
 19 20  1  6  0  0  0
 19 28  1  0  0  0  0
 21 22  1  0  0  0  0
 21 23  1  0  0  0  0
 22 24  1  0  0  0  0
 26 27  1  6  0  0  0
 26 29  1  0  0  0  0
 28  2  1  6  0  0  0
 28 31  1  0  0  0  0
 29 30  1  0  0  0  0
 29 33  1  6  0  0  0
 31 32  1  6  0  0  0
 31 35  1  0  0  0  0
 33 34  1  0  0  0  0
 35 36  1  1  0  0  0
M  END
>  <CHROM.1>
-81.29091060,-122.76100544,152.80793119,71.27650090,73.00193376,149.25257234
-40.48139864,92.44132635,142.25111339,-178.85566665,-73.74997824,99.94191148
-178.44937101,85.87083904,21.38342970,29.31363249,13.83559152,2.12638498
1.25512282,-2.66851765

>  <Name>
2f4u_lig

>  <RI>
0

>  <Rbt.Current_Directory>
/home/itssahil/PROJECTS/Mol_Feturizer/New_Systems/rnas/2f4u

>  <Rbt.Executable>
rbdock ($Id: //depot/dev/client3/rdock/2013.1/src/exe/rbdock.cxx#4 $)

>  <Rbt.Library>
libRbt.so (2013.1, Build901 2013/11/27)

>  <Rbt.Parameter_File>
/export/apps/rDock/src/rDock_2013.1_src/data/scripts/dock_solv.prm

>  <Rbt.Receptor>
prm/blind_docking_80.prm

>  <SCORE>
1.13551

>  <SCORE.INTER>
-3.94048

>  <SCORE.INTER.CONST>
1

>  <SCORE.INTER.POLAR>
-0.403044

>  <SCORE.INTER.ROT>
14

>  <SCORE.INTER.SOLV>
24.4989

>  <SCORE.INTER.VDW>
-22.3831

>  <SCORE.INTER.norm>
-0.109458

>  <SCORE.INTRA>
2.38017

>  <SCORE.INTRA.DIHEDRAL>
-5.6956

>  <SCORE.INTRA.DIHEDRAL.0>
26.3805

>  <SCORE.INTRA.POLAR>
0

>  <SCORE.INTRA.POLAR.0>
0

>  <SCORE.INTRA.REPUL>
0

>  <SCORE.INTRA.REPUL.0>
0

>  <SCORE.INTRA.SOLV>
8.76499

>  <SCORE.INTRA.SOLV.lig_0>
-98.5587

>  <SCORE.INTRA.VDW>
0.845471

>  <SCORE.INTRA.VDW.0>
-2.91167

>  <SCORE.INTRA.norm>
0.0661158

>  <SCORE.RESTR>
2.69582

>  <SCORE.RESTR.CAVITY>
2.69582

>  <SCORE.RESTR.norm>
0.074884

>  <SCORE.SYSTEM>
0

>  <SCORE.SYSTEM.CONST>
0

>  <SCORE.SYSTEM.DIHEDRAL>
0

>  <SCORE.SYSTEM.SOLV>
0

>  <SCORE.SYSTEM.norm>
0

>  <SCORE.heavy>
36

>  <SCORE.norm>
0.031542

>  <RMSD>
31.102

$$$$
2f4u_lig
 OpenBabel11021811433D
libRbt.so/2013.1/901 2013/11/27
 36 37  0  0  0  0  0  0  0  0999 V2000
   22.3889   31.6949   16.6479 C   0  0  2  0  0  0  0  0  0  0  0  0
   21.3534   30.7335   16.2217 O   0  0  0  0  0  0  0  0  0  0  0  0
   20.4487   28.5488   12.5743 C   0  0  2  0  0  0  0  0  0  0  0  0
   20.6630   27.7718   11.3232 N   0  0  0  0  0  0  0  0  0  0  0  0
   22.9929   31.1433   17.9764 C   0  0  2  0  0  0  0  0  0  0  0  0
   23.5726   29.7964   17.8208 N   0  0  0  0  0  0  0  0  0  0  0  0
   21.1593   29.9471   12.5191 C   0  0  0  0  0  0  0  0  0  0  0  0
   19.1285   27.5332   10.4423 C   0  0  0  0  0  0  0  0  0  0  0  0
   19.9466   26.6629    9.5406 C   0  0  1  0  0  0  0  0  0  0  0  0
   18.9684   25.8250    8.7097 C   0  0  0  0  0  0  0  0  0  0  0  0
   19.5397   24.5283    8.1068 C   0  0  0  0  0  0  0  0  0  0  0  0
   18.5415   23.9565    7.2009 N   0  0  0  0  0  0  0  0  0  0  0  0
   20.6930   27.4491    8.6522 O   0  0  0  0  0  0  0  0  0  0  0  0
   19.9544   25.1895   13.3057 C   0  0  0  0  0  0  0  0  0  0  0  0
   21.1949   24.3129   13.2197 C   0  0  0  0  0  0  0  0  0  0  0  0
   21.8735   31.1229   19.0697 C   0  0  1  0  0  0  0  0  0  0  0  0
   22.0454   24.5827   12.0429 N   0  0  0  0  0  0  0  0  0  0  0  0
   22.3732   30.6150   20.3040 O   0  0  0  0  0  0  0  0  0  0  0  0
   20.9777   30.7209   13.8408 C   0  0  2  0  0  0  0  0  0  0  0  0
   21.6758   31.9998   13.8058 N   0  0  0  0  0  0  0  0  0  0  0  0
   23.2960   26.2973   10.7407 C   0  0  0  0  0  0  0  0  0  0  0  0
   24.4780   27.3123   10.7099 C   0  0  0  0  0  0  0  0  0  0  0  0
   23.1032   25.6229   12.1240 C   0  0  0  0  0  0  0  0  0  0  0  0
   24.3023   28.4024   11.7159 N   0  0  0  0  0  0  0  0  0  0  0  0
   18.1025   27.8364   10.5714 O   0  0  0  0  0  0  0  0  0  0  0  0
   21.3310   32.5573   19.2294 C   0  0  2  0  0  0  0  0  0  0  0  0
   20.2935   32.6429   20.2030 O   0  0  0  0  0  0  0  0  0  0  0  0
   21.5206   29.9146   15.0038 C   0  0  2  0  0  0  0  0  0  0  0  0
   20.8095   33.0993   17.8864 C   0  0  2  0  0  0  0  0  0  0  0  0
   21.8181   33.0150   16.8736 O   0  0  0  0  0  0  0  0  0  0  0  0
   20.7711   28.5234   15.0888 C   0  0  2  0  0  0  0  0  0  0  0  0
   21.3266   27.7609   16.2060 O   0  0  0  0  0  0  0  0  0  0  0  0
   20.3502   34.5284   17.9993 C   0  0  0  0  0  0  0  0  0  0  0  0
   21.4003   35.3456   18.3523 O   0  0  0  0  0  0  0  0  0  0  0  0
   20.9880   27.7497   13.7443 C   0  0  1  0  0  0  0  0  0  0  0  0
   20.3552   26.5032   13.7489 O   0  0  0  0  0  0  0  0  0  0  0  0
  1  2  1  1  0  0  0
  1  5  1  0  0  0  0
  1 30  1  0  0  0  0
  3  4  1  6  0  0  0
  3  7  1  0  0  0  0
  3 35  1  0  0  0  0
  5  6  1  6  0  0  0
  5 16  1  0  0  0  0
  7 19  1  0  0  0  0
  8  4  1  0  0  0  0
  8 25  2  0  0  0  0
  9  8  1  1  0  0  0
  9 10  1  0  0  0  0
  9 13  1  0  0  0  0
 10 11  1  0  0  0  0
 11 12  1  0  0  0  0
 14 15  1  0  0  0  0
 14 36  1  0  0  0  0
 15 17  1  0  0  0  0
 16 18  1  1  0  0  0
 16 26  1  0  0  0  0
 17 23  1  0  0  0  0
 19 20  1  6  0  0  0
 19 28  1  0  0  0  0
 21 22  1  0  0  0  0
 21 23  1  0  0  0  0
 22 24  1  0  0  0  0
 26 27  1  1  0  0  0
 26 29  1  0  0  0  0
 28  2  1  1  0  0  0
 28 31  1  0  0  0  0
 29 30  1  0  0  0  0
 29 33  1  1  0  0  0
 31 32  1  1  0  0  0
 31 35  1  0  0  0  0
 33 34  1  0  0  0  0
 35 36  1  1  0  0  0
M  END
>  <CHROM.1>
-112.48788065,-114.35321360,164.64792487,-158.41679136,-172.14105222,-75.91751361
63.08217177,87.94915633,-147.92846641,-58.50598845,-174.81067374,-88.02269767
62.35346235,63.72066576,21.20923573,28.94729809,14.02707457,1.37207637,-1.00660647
0.73723548

>  <Name>
2f4u_lig

>  <RI>
0

>  <Rbt.Current_Directory>
/home/itssahil/PROJECTS/Mol_Feturizer/New_Systems/rnas/2f4u

>  <Rbt.Executable>
rbdock ($Id: //depot/dev/client3/rdock/2013.1/src/exe/rbdock.cxx#4 $)

>  <Rbt.Library>
libRbt.so (2013.1, Build901 2013/11/27)

>  <Rbt.Parameter_File>
/export/apps/rDock/src/rDock_2013.1_src/data/scripts/dock_solv.prm

>  <Rbt.Receptor>
prm/blind_docking_80.prm

>  <SCORE>
5.1438

>  <SCORE.INTER>
6.24971

>  <SCORE.INTER.CONST>
1

>  <SCORE.INTER.POLAR>
-1.46314

>  <SCORE.INTER.ROT>
14

>  <SCORE.INTER.SOLV>
20.7417

>  <SCORE.INTER.VDW>
-10.8036

>  <SCORE.INTER.norm>
0.173603

>  <SCORE.INTRA>
-5.46573

>  <SCORE.INTRA.DIHEDRAL>
-10.0079

>  <SCORE.INTRA.DIHEDRAL.0>
26.3805

>  <SCORE.INTRA.POLAR>
0

>  <SCORE.INTRA.POLAR.0>
0

>  <SCORE.INTRA.REPUL>
0

>  <SCORE.INTRA.REPUL.0>
0

>  <SCORE.INTRA.SOLV>
6.41758

>  <SCORE.INTRA.SOLV.lig_0>
-98.5587

>  <SCORE.INTRA.VDW>
-3.67055

>  <SCORE.INTRA.VDW.0>
-2.91167

>  <SCORE.INTRA.norm>
-0.151826

>  <SCORE.RESTR>
4.35983

>  <SCORE.RESTR.CAVITY>
4.35983

>  <SCORE.RESTR.norm>
0.121106

>  <SCORE.SYSTEM>
0

>  <SCORE.SYSTEM.CONST>
0

>  <SCORE.SYSTEM.DIHEDRAL>
0

>  <SCORE.SYSTEM.SOLV>
0

>  <SCORE.SYSTEM.norm>
0

>  <SCORE.heavy>
36

>  <SCORE.norm>
0.142883

>  <RMSD>
31.131

$$$$
2f4u_lig
 OpenBabel11021811433D
libRbt.so/2013.1/901 2013/11/27
 36 37  0  0  0  0  0  0  0  0999 V2000
   20.7825   27.9717   10.2409 C   0  0  2  0  0  0  0  0  0  0  0  0
   20.7573   27.3207   11.5651 O   0  0  0  0  0  0  0  0  0  0  0  0
   21.6635   29.0049   15.4686 C   0  0  2  0  0  0  0  0  0  0  0  0
   22.4597   29.5051   16.6222 N   0  0  0  0  0  0  0  0  0  0  0  0
   19.7350   27.2277    9.3558 C   0  0  2  0  0  0  0  0  0  0  0  0
   18.3759   27.2713    9.9260 N   0  0  0  0  0  0  0  0  0  0  0  0
   21.9887   27.5040   15.1449 C   0  0  0  0  0  0  0  0  0  0  0  0
   21.4687   29.5788   18.1054 C   0  0  0  0  0  0  0  0  0  0  0  0
   22.6726   30.2337   18.7065 C   0  0  1  0  0  0  0  0  0  0  0  0
   22.2173   31.5806   19.2793 C   0  0  0  0  0  0  0  0  0  0  0  0
   23.1317   32.1961   20.3545 C   0  0  0  0  0  0  0  0  0  0  0  0
   22.8726   31.5217   21.6281 N   0  0  0  0  0  0  0  0  0  0  0  0
   23.1644   29.4645   19.7699 O   0  0  0  0  0  0  0  0  0  0  0  0
   20.9815   32.3397   15.1033 C   0  0  0  0  0  0  0  0  0  0  0  0
   21.2064   32.4056   16.6065 C   0  0  0  0  0  0  0  0  0  0  0  0
   20.1928   25.7426    9.1726 C   0  0  1  0  0  0  0  0  0  0  0  0
   21.8812   33.6372   17.0633 N   0  0  0  0  0  0  0  0  0  0  0  0
   19.2607   25.0143    8.3776 O   0  0  0  0  0  0  0  0  0  0  0  0
   21.1999   27.0121   13.9143 C   0  0  2  0  0  0  0  0  0  0  0  0
   21.5362   25.6323   13.5867 N   0  0  0  0  0  0  0  0  0  0  0  0
   22.1920   35.6472   18.4998 C   0  0  0  0  0  0  0  0  0  0  0  0
   22.3814   36.6526   17.3244 C   0  0  0  0  0  0  0  0  0  0  0  0
   21.2680   34.4537   18.1426 C   0  0  0  0  0  0  0  0  0  0  0  0
   21.1045   37.3423   16.9703 N   0  0  0  0  0  0  0  0  0  0  0  0
   20.4582   29.3229   18.3789 O   0  0  0  0  0  0  0  0  0  0  0  0
   21.5957   25.7471    8.5331 C   0  0  2  0  0  0  0  0  0  0  0  0
   22.1080   24.4322    8.3322 O   0  0  0  0  0  0  0  0  0  0  0  0
   21.5098   27.8762   12.7083 C   0  0  2  0  0  0  0  0  0  0  0  0
   22.5882   26.5500    9.3932 C   0  0  2  0  0  0  0  0  0  0  0  0
   22.1021   27.8751    9.6338 O   0  0  0  0  0  0  0  0  0  0  0  0
   21.1376   29.3830   13.0176 C   0  0  2  0  0  0  0  0  0  0  0  0
   21.4634   30.1948   11.8458 O   0  0  0  0  0  0  0  0  0  0  0  0
   23.9453   26.6382    8.7476 C   0  0  0  0  0  0  0  0  0  0  0  0
   24.7890   27.4198    9.5042 O   0  0  0  0  0  0  0  0  0  0  0  0
   21.9661   29.8640   14.2567 C   0  0  1  0  0  0  0  0  0  0  0  0
   21.6915   31.1944   14.5865 O   0  0  0  0  0  0  0  0  0  0  0  0
  1  2  1  1  0  0  0
  1  5  1  0  0  0  0
  1 30  1  0  0  0  0
  3  4  1  1  0  0  0
  3  7  1  0  0  0  0
  3 35  1  0  0  0  0
  5  6  1  1  0  0  0
  5 16  1  0  0  0  0
  7 19  1  0  0  0  0
  8  4  1  0  0  0  0
  8 25  2  0  0  0  0
  9  8  1  1  0  0  0
  9 10  1  0  0  0  0
  9 13  1  0  0  0  0
 10 11  1  0  0  0  0
 11 12  1  0  0  0  0
 14 15  1  0  0  0  0
 14 36  1  0  0  0  0
 15 17  1  0  0  0  0
 16 18  1  6  0  0  0
 16 26  1  0  0  0  0
 17 23  1  0  0  0  0
 19 20  1  6  0  0  0
 19 28  1  0  0  0  0
 21 22  1  0  0  0  0
 21 23  1  0  0  0  0
 22 24  1  0  0  0  0
 26 27  1  1  0  0  0
 26 29  1  0  0  0  0
 28  2  1  6  0  0  0
 28 31  1  0  0  0  0
 29 30  1  0  0  0  0
 29 33  1  6  0  0  0
 31 32  1  6  0  0  0
 31 35  1  0  0  0  0
 33 34  1  0  0  0  0
 35 36  1  1  0  0  0
M  END
>  <CHROM.1>
-172.44354022,-102.82061546,124.57336431,159.29396775,-78.79685925,118.92122502
81.34995992,127.07983504,176.97373165,65.32667581,63.88867587,176.88110467
176.82596808,-47.24607087,21.67296358,29.50428563,14.12861833,2.04561350
1.43177811,-2.67709311

>  <Name>
2f4u_lig

>  <RI>
0

>  <Rbt.Current_Directory>
/home/itssahil/PROJECTS/Mol_Feturizer/New_Systems/rnas/2f4u

>  <Rbt.Executable>
rbdock ($Id: //depot/dev/client3/rdock/2013.1/src/exe/rbdock.cxx#4 $)

>  <Rbt.Library>
libRbt.so (2013.1, Build901 2013/11/27)

>  <Rbt.Parameter_File>
/export/apps/rDock/src/rDock_2013.1_src/data/scripts/dock_solv.prm

>  <Rbt.Receptor>
prm/blind_docking_80.prm

>  <SCORE>
-8.00414

>  <SCORE.INTER>
-5.72992

>  <SCORE.INTER.CONST>
1

>  <SCORE.INTER.POLAR>
-1

>  <SCORE.INTER.ROT>
14

>  <SCORE.INTER.SOLV>
20.4419

>  <SCORE.INTER.VDW>
-20.2339

>  <SCORE.INTER.norm>
-0.159164

>  <SCORE.INTRA>
-3.87991

>  <SCORE.INTRA.DIHEDRAL>
-10.3656

>  <SCORE.INTRA.DIHEDRAL.0>
26.3805

>  <SCORE.INTRA.POLAR>
0

>  <SCORE.INTRA.POLAR.0>
0

>  <SCORE.INTRA.REPUL>
0

>  <SCORE.INTRA.REPUL.0>
0

>  <SCORE.INTRA.SOLV>
3.53562

>  <SCORE.INTRA.SOLV.lig_0>
-98.5587

>  <SCORE.INTRA.VDW>
-0.464911

>  <SCORE.INTRA.VDW.0>
-2.91167

>  <SCORE.INTRA.norm>
-0.107775

>  <SCORE.RESTR>
1.60569

>  <SCORE.RESTR.CAVITY>
1.60569

>  <SCORE.RESTR.norm>
0.0446026

>  <SCORE.SYSTEM>
0

>  <SCORE.SYSTEM.CONST>
0

>  <SCORE.SYSTEM.DIHEDRAL>
0

>  <SCORE.SYSTEM.SOLV>
0

>  <SCORE.SYSTEM.norm>
0

>  <SCORE.heavy>
36

>  <SCORE.norm>
-0.222337

>  <RMSD>
31.227

$$$$
2f4u_lig
 OpenBabel11021811433D
libRbt.so/2013.1/901 2013/11/27
 36 37  0  0  0  0  0  0  0  0999 V2000
   20.7934   31.9305   17.9869 C   0  0  2  0  0  0  0  0  0  0  0  0
   21.6172   31.5247   16.8317 O   0  0  0  0  0  0  0  0  0  0  0  0
   21.7495   27.9628   14.3436 C   0  0  2  0  0  0  0  0  0  0  0  0
   21.2786   26.8381   13.4903 N   0  0  0  0  0  0  0  0  0  0  0  0
   20.9504   33.4763   18.1284 C   0  0  2  0  0  0  0  0  0  0  0  0
   20.5316   34.2033   16.9159 N   0  0  0  0  0  0  0  0  0  0  0  0
   21.0954   27.9240   15.7697 C   0  0  0  0  0  0  0  0  0  0  0  0
   22.5749   25.6376   13.2338 C   0  0  0  0  0  0  0  0  0  0  0  0
   21.6010   24.9976   12.2948 C   0  0  1  0  0  0  0  0  0  0  0  0
   22.3539   23.8932   11.5445 C   0  0  0  0  0  0  0  0  0  0  0  0
   21.6256   23.2917   10.3283 C   0  0  0  0  0  0  0  0  0  0  0  0
   21.6248   24.2815    9.2494 N   0  0  0  0  0  0  0  0  0  0  0  0
   20.5612   24.3907   13.0122 O   0  0  0  0  0  0  0  0  0  0  0  0
   22.2288   29.6334   11.0143 C   0  0  0  0  0  0  0  0  0  0  0  0
   21.0223   29.2286   10.1804 C   0  0  0  0  0  0  0  0  0  0  0  0
   22.4439   33.8035   18.4616 C   0  0  1  0  0  0  0  0  0  0  0  0
   20.7690   27.7739   10.1503 N   0  0  0  0  0  0  0  0  0  0  0  0
   22.6432   35.2089   18.5906 O   0  0  0  0  0  0  0  0  0  0  0  0
   21.5471   29.1241   16.6266 C   0  0  2  0  0  0  0  0  0  0  0  0
   20.9044   29.1124   17.9347 N   0  0  0  0  0  0  0  0  0  0  0  0
   20.0314   27.1489    7.8556 C   0  0  0  0  0  0  0  0  0  0  0  0
   18.8755   26.6412    6.9422 C   0  0  0  0  0  0  0  0  0  0  0  0
   19.6342   27.2423    9.3521 C   0  0  0  0  0  0  0  0  0  0  0  0
   19.2863   26.5780    5.5075 N   0  0  0  0  0  0  0  0  0  0  0  0
   23.5919   25.5083   13.5661 O   0  0  0  0  0  0  0  0  0  0  0  0
   22.8217   33.0599   19.7583 C   0  0  2  0  0  0  0  0  0  0  0  0
   24.1749   33.2879   20.1437 O   0  0  0  0  0  0  0  0  0  0  0  0
   21.1971   30.4274   15.9366 C   0  0  2  0  0  0  0  0  0  0  0  0
   22.5867   31.5458   19.6108 C   0  0  2  0  0  0  0  0  0  0  0  0
   21.2403   31.2733   19.2067 O   0  0  0  0  0  0  0  0  0  0  0  0
   21.8951   30.4879   14.5176 C   0  0  2  0  0  0  0  0  0  0  0  0
   21.5260   31.7450   13.8684 O   0  0  0  0  0  0  0  0  0  0  0  0
   22.8702   30.8073   20.8916 C   0  0  0  0  0  0  0  0  0  0  0  0
   23.2779   29.5197   20.6254 O   0  0  0  0  0  0  0  0  0  0  0  0
   21.4046   29.2718   13.6610 C   0  0  1  0  0  0  0  0  0  0  0  0
   21.9788   29.2628   12.3864 O   0  0  0  0  0  0  0  0  0  0  0  0
  1  2  1  6  0  0  0
  1  5  1  0  0  0  0
  1 30  1  0  0  0  0
  3  4  1  6  0  0  0
  3  7  1  0  0  0  0
  3 35  1  0  0  0  0
  5  6  1  6  0  0  0
  5 16  1  0  0  0  0
  7 19  1  0  0  0  0
  8  4  1  0  0  0  0
  8 25  2  0  0  0  0
  9  8  1  1  0  0  0
  9 10  1  0  0  0  0
  9 13  1  0  0  0  0
 10 11  1  0  0  0  0
 11 12  1  0  0  0  0
 14 15  1  0  0  0  0
 14 36  1  0  0  0  0
 15 17  1  0  0  0  0
 16 18  1  1  0  0  0
 16 26  1  0  0  0  0
 17 23  1  0  0  0  0
 19 20  1  1  0  0  0
 19 28  1  0  0  0  0
 21 22  1  0  0  0  0
 21 23  1  0  0  0  0
 22 24  1  0  0  0  0
 26 27  1  6  0  0  0
 26 29  1  0  0  0  0
 28  2  1  1  0  0  0
 28 31  1  0  0  0  0
 29 30  1  0  0  0  0
 29 33  1  1  0  0  0
 31 32  1  6  0  0  0
 31 35  1  0  0  0  0
 33 34  1  0  0  0  0
 35 36  1  6  0  0  0
M  END
>  <CHROM.1>
-145.00517718,-109.06174263,171.06969876,-168.14861046,71.88830367,-63.05451609
-68.94297124,-178.93341970,80.46826177,179.34902741,-178.14925098,-79.71802636
-151.36410866,162.87774350,21.58210867,29.13256367,14.47370517,1.12092994
-1.26929704,0.54219680

>  <Name>
2f4u_lig

>  <RI>
0

>  <Rbt.Current_Directory>
/home/itssahil/PROJECTS/Mol_Feturizer/New_Systems/rnas/2f4u

>  <Rbt.Executable>
rbdock ($Id: //depot/dev/client3/rdock/2013.1/src/exe/rbdock.cxx#4 $)

>  <Rbt.Library>
libRbt.so (2013.1, Build901 2013/11/27)

>  <Rbt.Parameter_File>
/export/apps/rDock/src/rDock_2013.1_src/data/scripts/dock_solv.prm

>  <Rbt.Receptor>
prm/blind_docking_80.prm

>  <SCORE>
-3.91235

>  <SCORE.INTER>
-2.35599

>  <SCORE.INTER.CONST>
1

>  <SCORE.INTER.POLAR>
0

>  <SCORE.INTER.ROT>
14

>  <SCORE.INTER.SOLV>
16.5178

>  <SCORE.INTER.VDW>
-20.0099

>  <SCORE.INTER.norm>
-0.0654442

>  <SCORE.INTRA>
-4.42313

>  <SCORE.INTRA.DIHEDRAL>
-12.584

>  <SCORE.INTRA.DIHEDRAL.0>
26.3805

>  <SCORE.INTRA.POLAR>
0

>  <SCORE.INTRA.POLAR.0>
0

>  <SCORE.INTRA.REPUL>
0

>  <SCORE.INTRA.REPUL.0>
0

>  <SCORE.INTRA.SOLV>
6.96178

>  <SCORE.INTRA.SOLV.lig_0>
-98.5587

>  <SCORE.INTRA.VDW>
-1.61201

>  <SCORE.INTRA.VDW.0>
-2.91167

>  <SCORE.INTRA.norm>
-0.122865

>  <SCORE.RESTR>
2.86676

>  <SCORE.RESTR.CAVITY>
2.86676

>  <SCORE.RESTR.norm>
0.0796322

>  <SCORE.SYSTEM>
0

>  <SCORE.SYSTEM.CONST>
0

>  <SCORE.SYSTEM.DIHEDRAL>
0

>  <SCORE.SYSTEM.SOLV>
0

>  <SCORE.SYSTEM.norm>
0

>  <SCORE.heavy>
36

>  <SCORE.norm>
-0.108677

>  <RMSD>
31.233

$$$$
2f4u_lig
 OpenBabel11021811433D
libRbt.so/2013.1/901 2013/11/27
 36 37  0  0  0  0  0  0  0  0999 V2000
   21.5905   26.9284   10.2813 C   0  0  2  0  0  0  0  0  0  0  0  0
   20.8978   27.3192   11.5244 O   0  0  0  0  0  0  0  0  0  0  0  0
   21.7744   28.9472   15.4585 C   0  0  2  0  0  0  0  0  0  0  0  0
   22.5619   29.4348   16.6233 N   0  0  0  0  0  0  0  0  0  0  0  0
   20.5708   27.1296    9.1179 C   0  0  2  0  0  0  0  0  0  0  0  0
   20.0844   28.5183    9.0223 N   0  0  0  0  0  0  0  0  0  0  0  0
   22.1129   27.4543   15.1120 C   0  0  0  0  0  0  0  0  0  0  0  0
   21.5237   29.6438   18.0607 C   0  0  0  0  0  0  0  0  0  0  0  0
   22.7500   30.2323   18.6847 C   0  0  1  0  0  0  0  0  0  0  0  0
   22.3373   31.5595   19.3310 C   0  0  0  0  0  0  0  0  0  0  0  0
   21.5255   31.4472   20.6347 C   0  0  0  0  0  0  0  0  0  0  0  0
   22.4446   31.1316   21.7300 N   0  0  0  0  0  0  0  0  0  0  0  0
   23.2274   29.3949   19.7021 O   0  0  0  0  0  0  0  0  0  0  0  0
   21.0647   32.2829   15.1381 C   0  0  0  0  0  0  0  0  0  0  0  0
   21.2278   32.2959   16.6507 C   0  0  0  0  0  0  0  0  0  0  0  0
   19.3667   26.1523    9.3273 C   0  0  1  0  0  0  0  0  0  0  0  0
   21.9322   33.4845   17.1724 N   0  0  0  0  0  0  0  0  0  0  0  0
   18.3981   26.3048    8.2930 O   0  0  0  0  0  0  0  0  0  0  0  0
   21.3331   26.9762   13.8703 C   0  0  2  0  0  0  0  0  0  0  0  0
   21.6817   25.6045   13.5219 N   0  0  0  0  0  0  0  0  0  0  0  0
   22.3632   35.9221   17.4409 C   0  0  0  0  0  0  0  0  0  0  0  0
   22.1290   37.3599   16.8874 C   0  0  0  0  0  0  0  0  0  0  0  0
   21.5465   34.8366   16.6923 C   0  0  0  0  0  0  0  0  0  0  0  0
   22.9832   38.3698   17.5815 N   0  0  0  0  0  0  0  0  0  0  0  0
   20.4871   29.4751   18.3024 O   0  0  0  0  0  0  0  0  0  0  0  0
   19.9179   24.7131    9.3748 C   0  0  2  0  0  0  0  0  0  0  0  0
   18.8929   23.7426    9.5729 O   0  0  0  0  0  0  0  0  0  0  0  0
   21.6412   27.8621   12.6797 C   0  0  2  0  0  0  0  0  0  0  0  0
   20.9739   24.5664   10.4851 C   0  0  2  0  0  0  0  0  0  0  0  0
   22.0156   25.5370   10.3327 O   0  0  0  0  0  0  0  0  0  0  0  0
   21.2558   29.3606   13.0116 C   0  0  2  0  0  0  0  0  0  0  0  0
   21.5799   30.1938   11.8545 O   0  0  0  0  0  0  0  0  0  0  0  0
   21.5867   23.1915   10.4973 C   0  0  0  0  0  0  0  0  0  0  0  0
   22.3050   22.9737    9.3433 O   0  0  0  0  0  0  0  0  0  0  0  0
   22.0752   29.8280   14.2619 C   0  0  1  0  0  0  0  0  0  0  0  0
   21.7887   31.1508   14.6119 O   0  0  0  0  0  0  0  0  0  0  0  0
  1  2  1  1  0  0  0
  1  5  1  0  0  0  0
  1 30  1  0  0  0  0
  3  4  1  1  0  0  0
  3  7  1  0  0  0  0
  3 35  1  0  0  0  0
  5  6  1  1  0  0  0
  5 16  1  0  0  0  0
  7 19  1  0  0  0  0
  8  4  1  0  0  0  0
  8 25  2  0  0  0  0
  9  8  1  1  0  0  0
  9 10  1  0  0  0  0
  9 13  1  0  0  0  0
 10 11  1  0  0  0  0
 11 12  1  0  0  0  0
 14 15  1  0  0  0  0
 14 36  1  0  0  0  0
 15 17  1  0  0  0  0
 16 18  1  6  0  0  0
 16 26  1  0  0  0  0
 17 23  1  0  0  0  0
 19 20  1  6  0  0  0
 19 28  1  0  0  0  0
 21 22  1  0  0  0  0
 21 23  1  0  0  0  0
 22 24  1  0  0  0  0
 26 27  1  1  0  0  0
 26 29  1  0  0  0  0
 28  2  1  6  0  0  0
 28 31  1  0  0  0  0
 29 30  1  0  0  0  0
 29 33  1  6  0  0  0
 31 32  1  6  0  0  0
 31 35  1  0  0  0  0
 33 34  1  0  0  0  0
 35 36  1  1  0  0  0
M  END
>  <CHROM.1>
-150.97439794,-108.91433948,131.12029734,74.03728768,77.89603429,116.89969818
79.57570724,46.73253828,176.64547260,-176.99179666,173.78514018,-123.30072829
65.40595268,-48.00158140,21.43458583,29.17315971,14.19511408,2.33267918,1.37680581
-3.08968343

>  <Name>
2f4u_lig

>  <RI>
0

>  <Rbt.Current_Directory>
/home/itssahil/PROJECTS/Mol_Feturizer/New_Systems/rnas/2f4u

>  <Rbt.Executable>
rbdock ($Id: //depot/dev/client3/rdock/2013.1/src/exe/rbdock.cxx#4 $)

>  <Rbt.Library>
libRbt.so (2013.1, Build901 2013/11/27)

>  <Rbt.Parameter_File>
/export/apps/rDock/src/rDock_2013.1_src/data/scripts/dock_solv.prm

>  <Rbt.Receptor>
prm/blind_docking_80.prm

>  <SCORE>
-1.45857

>  <SCORE.INTER>
-4.42836

>  <SCORE.INTER.CONST>
1

>  <SCORE.INTER.POLAR>
-1

>  <SCORE.INTER.ROT>
14

>  <SCORE.INTER.SOLV>
23.5033

>  <SCORE.INTER.VDW>
-20.3867

>  <SCORE.INTER.norm>
-0.12301

>  <SCORE.INTRA>
1.75062

>  <SCORE.INTRA.DIHEDRAL>
-2.31648

>  <SCORE.INTRA.DIHEDRAL.0>
26.3805

>  <SCORE.INTRA.POLAR>
0

>  <SCORE.INTRA.POLAR.0>
0

>  <SCORE.INTRA.REPUL>
0

>  <SCORE.INTRA.REPUL.0>
0

>  <SCORE.INTRA.SOLV>
5.75722

>  <SCORE.INTRA.SOLV.lig_0>
-98.5587

>  <SCORE.INTRA.VDW>
0.0302479

>  <SCORE.INTRA.VDW.0>
-2.91167

>  <SCORE.INTRA.norm>
0.0486282

>  <SCORE.RESTR>
1.21917

>  <SCORE.RESTR.CAVITY>
1.21917

>  <SCORE.RESTR.norm>
0.0338658

>  <SCORE.SYSTEM>
0

>  <SCORE.SYSTEM.CONST>
0

>  <SCORE.SYSTEM.DIHEDRAL>
0

>  <SCORE.SYSTEM.SOLV>
0

>  <SCORE.SYSTEM.norm>
0

>  <SCORE.heavy>
36

>  <SCORE.norm>
-0.0405159

>  <RMSD>
31.254

$$$$
2f4u_lig
 OpenBabel11021811433D
libRbt.so/2013.1/901 2013/11/27
 36 37  0  0  0  0  0  0  0  0999 V2000
   22.3920   31.5435   17.9943 C   0  0  2  0  0  0  0  0  0  0  0  0
   21.0932   31.2332   17.3659 O   0  0  0  0  0  0  0  0  0  0  0  0
   21.8561   27.6284   15.0597 C   0  0  2  0  0  0  0  0  0  0  0  0
   21.6645   26.5483   14.0540 N   0  0  0  0  0  0  0  0  0  0  0  0
   22.2488   31.2037   19.5103 C   0  0  2  0  0  0  0  0  0  0  0  0
   21.8864   29.7938   19.7448 N   0  0  0  0  0  0  0  0  0  0  0  0
   20.6612   27.6960   16.0750 C   0  0  0  0  0  0  0  0  0  0  0  0
   23.2299   25.8569   13.5451 C   0  0  0  0  0  0  0  0  0  0  0  0
   22.4080   25.0894   12.5575 C   0  0  1  0  0  0  0  0  0  0  0  0
   22.5721   25.7790   11.1984 C   0  0  0  0  0  0  0  0  0  0  0  0
   24.0178   25.9182   10.6867 C   0  0  0  0  0  0  0  0  0  0  0  0
   23.9890   26.5910    9.3866 N   0  0  0  0  0  0  0  0  0  0  0  0
   22.8954   23.7814   12.4316 O   0  0  0  0  0  0  0  0  0  0  0  0
   23.9327   29.2041   12.3467 C   0  0  0  0  0  0  0  0  0  0  0  0
   23.1607   29.1361   11.0375 C   0  0  0  0  0  0  0  0  0  0  0  0
   21.1703   32.1470   20.1394 C   0  0  1  0  0  0  0  0  0  0  0  0
   21.9093   29.9203   11.0323 N   0  0  0  0  0  0  0  0  0  0  0  0
   20.9933   31.8686   21.5259 O   0  0  0  0  0  0  0  0  0  0  0  0
   20.8426   28.8532   17.0782 C   0  0  2  0  0  0  0  0  0  0  0  0
   19.7108   28.9439   17.9922 N   0  0  0  0  0  0  0  0  0  0  0  0
   20.5646   28.2391    9.7811 C   0  0  0  0  0  0  0  0  0  0  0  0
   19.2207   27.4593    9.6621 C   0  0  0  0  0  0  0  0  0  0  0  0
   20.6016   29.2166   10.9848 C   0  0  0  0  0  0  0  0  0  0  0  0
   18.9101   26.6919   10.9055 N   0  0  0  0  0  0  0  0  0  0  0  0
   24.2655   26.0016   13.8059 O   0  0  0  0  0  0  0  0  0  0  0  0
   21.6143   33.6056   19.9101 C   0  0  2  0  0  0  0  0  0  0  0  0
   20.6871   34.5482   20.4426 O   0  0  0  0  0  0  0  0  0  0  0  0
   20.9681   30.1735   16.3445 C   0  0  2  0  0  0  0  0  0  0  0  0
   21.8171   33.8881   18.4106 C   0  0  2  0  0  0  0  0  0  0  0  0
   22.7308   32.9500   17.8316 O   0  0  0  0  0  0  0  0  0  0  0  0
   22.2020   30.1225   15.3549 C   0  0  2  0  0  0  0  0  0  0  0  0
   22.2879   31.4000   14.6488 O   0  0  0  0  0  0  0  0  0  0  0  0
   22.3304   35.2822   18.1675 C   0  0  0  0  0  0  0  0  0  0  0  0
   22.5881   35.4743   16.8290 O   0  0  0  0  0  0  0  0  0  0  0  0
   21.9837   28.9539   14.3351 C   0  0  1  0  0  0  0  0  0  0  0  0
   23.0373   28.8513   13.4220 O   0  0  0  0  0  0  0  0  0  0  0  0
  1  2  1  6  0  0  0
  1  5  1  0  0  0  0
  1 30  1  0  0  0  0
  3  4  1  6  0  0  0
  3  7  1  0  0  0  0
  3 35  1  0  0  0  0
  5  6  1  6  0  0  0
  5 16  1  0  0  0  0
  7 19  1  0  0  0  0
  8  4  1  0  0  0  0
  8 25  2  0  0  0  0
  9  8  1  1  0  0  0
  9 10  1  0  0  0  0
  9 13  1  0  0  0  0
 10 11  1  0  0  0  0
 11 12  1  0  0  0  0
 14 15  1  0  0  0  0
 14 36  1  0  0  0  0
 15 17  1  0  0  0  0
 16 18  1  1  0  0  0
 16 26  1  0  0  0  0
 17 23  1  0  0  0  0
 19 20  1  1  0  0  0
 19 28  1  0  0  0  0
 21 22  1  0  0  0  0
 21 23  1  0  0  0  0
 22 24  1  0  0  0  0
 26 27  1  6  0  0  0
 26 29  1  0  0  0  0
 28  2  1  1  0  0  0
 28 31  1  0  0  0  0
 29 30  1  0  0  0  0
 29 33  1  1  0  0  0
 31 32  1  6  0  0  0
 31 35  1  0  0  0  0
 33 34  1  0  0  0  0
 35 36  1  6  0  0  0
M  END
>  <CHROM.1>
-115.98796144,-148.04067428,102.16625936,56.74736899,179.88809291,52.88798234
-70.26165100,-111.67768514,-53.80187490,-56.97605472,179.98285828,82.63301529
175.90078066,172.26179293,21.91230154,29.52742672,15.05862573,2.56772648
1.49763446,-0.09737061

>  <Name>
2f4u_lig

>  <RI>
0

>  <Rbt.Current_Directory>
/home/itssahil/PROJECTS/Mol_Feturizer/New_Systems/rnas/2f4u

>  <Rbt.Executable>
rbdock ($Id: //depot/dev/client3/rdock/2013.1/src/exe/rbdock.cxx#4 $)

>  <Rbt.Library>
libRbt.so (2013.1, Build901 2013/11/27)

>  <Rbt.Parameter_File>
/export/apps/rDock/src/rDock_2013.1_src/data/scripts/dock_solv.prm

>  <Rbt.Receptor>
prm/blind_docking_100.prm

>  <SCORE>
-1.07324

>  <SCORE.INTER>
-5.52095

>  <SCORE.INTER.CONST>
1

>  <SCORE.INTER.POLAR>
-0.969833

>  <SCORE.INTER.ROT>
14

>  <SCORE.INTER.SOLV>
16.4688

>  <SCORE.INTER.VDW>
-18.8708

>  <SCORE.INTER.norm>
-0.15336

>  <SCORE.INTRA>
-3.87916

>  <SCORE.INTRA.DIHEDRAL>
-11.8221

>  <SCORE.INTRA.DIHEDRAL.0>
26.3805

>  <SCORE.INTRA.POLAR>
0

>  <SCORE.INTRA.POLAR.0>
0

>  <SCORE.INTRA.REPUL>
0.00459148

>  <SCORE.INTRA.REPUL.0>
0

>  <SCORE.INTRA.SOLV>
9.41933

>  <SCORE.INTRA.SOLV.lig_0>
-98.5587

>  <SCORE.INTRA.VDW>
-2.70071

>  <SCORE.INTRA.VDW.0>
-2.91167

>  <SCORE.INTRA.norm>
-0.107754

>  <SCORE.RESTR>
8.32686

>  <SCORE.RESTR.CAVITY>
8.32686

>  <SCORE.RESTR.norm>
0.231302

>  <SCORE.SYSTEM>
0

>  <SCORE.SYSTEM.CONST>
0

>  <SCORE.SYSTEM.DIHEDRAL>
0

>  <SCORE.SYSTEM.SOLV>
0

>  <SCORE.SYSTEM.norm>
0

>  <SCORE.heavy>
36

>  <SCORE.norm>
-0.0298123

>  <RMSD>
31.256

$$$$
2f4u_lig
 OpenBabel11021811433D
libRbt.so/2013.1/901 2013/11/27
 36 37  0  0  0  0  0  0  0  0999 V2000
   20.8297   28.0243   10.0926 C   0  0  2  0  0  0  0  0  0  0  0  0
   20.7861   27.3354   11.3970 O   0  0  0  0  0  0  0  0  0  0  0  0
   21.6655   28.8631   15.3704 C   0  0  2  0  0  0  0  0  0  0  0  0
   22.4537   29.3251   16.5451 N   0  0  0  0  0  0  0  0  0  0  0  0
   19.6499   27.4547    9.2453 C   0  0  2  0  0  0  0  0  0  0  0  0
   18.3390   27.6544    9.8902 N   0  0  0  0  0  0  0  0  0  0  0  0
   22.0139   27.3828   14.9824 C   0  0  0  0  0  0  0  0  0  0  0  0
   21.4261   29.4559   17.9992 C   0  0  0  0  0  0  0  0  0  0  0  0
   22.6451   30.0492   18.6331 C   0  0  1  0  0  0  0  0  0  0  0  0
   22.4295   31.5653   18.6986 C   0  0  0  0  0  0  0  0  0  0  0  0
   23.4695   32.3565   19.5133 C   0  0  0  0  0  0  0  0  0  0  0  0
   23.1517   32.2160   20.9357 N   0  0  0  0  0  0  0  0  0  0  0  0
   22.7853   29.5831   19.9474 O   0  0  0  0  0  0  0  0  0  0  0  0
   20.9103   32.2096   15.0983 C   0  0  0  0  0  0  0  0  0  0  0  0
   21.7251   32.8653   16.2032 C   0  0  0  0  0  0  0  0  0  0  0  0
   19.8983   25.9302    8.9948 C   0  0  1  0  0  0  0  0  0  0  0  0
   21.0449   33.9960   16.8662 N   0  0  0  0  0  0  0  0  0  0  0  0
   18.8393   25.3580    8.2316 O   0  0  0  0  0  0  0  0  0  0  0  0
   21.2330   26.9324   13.7310 C   0  0  2  0  0  0  0  0  0  0  0  0
   21.5907   25.5734   13.3444 N   0  0  0  0  0  0  0  0  0  0  0  0
   22.3617   35.9954   17.5506 C   0  0  0  0  0  0  0  0  0  0  0  0
   22.7989   37.4543   17.2207 C   0  0  0  0  0  0  0  0  0  0  0  0
   21.4024   35.3891   16.4933 C   0  0  0  0  0  0  0  0  0  0  0  0
   23.7028   38.0154   18.2693 N   0  0  0  0  0  0  0  0  0  0  0  0
   20.3962   29.2542   18.2444 O   0  0  0  0  0  0  0  0  0  0  0  0
   21.2553   25.7750    8.2796 C   0  0  2  0  0  0  0  0  0  0  0  0
   21.5790   24.4126    8.0133 O   0  0  0  0  0  0  0  0  0  0  0  0
   21.5298   27.8525   12.5637 C   0  0  2  0  0  0  0  0  0  0  0  0
   22.3872   26.4109    9.1066 C   0  0  2  0  0  0  0  0  0  0  0  0
   22.0927   27.7786    9.4115 O   0  0  0  0  0  0  0  0  0  0  0  0
   21.1343   29.3386   12.9375 C   0  0  2  0  0  0  0  0  0  0  0  0
   21.4476   30.2052   11.8022 O   0  0  0  0  0  0  0  0  0  0  0  0
   23.7096   26.3449    8.3904 C   0  0  0  0  0  0  0  0  0  0  0  0
   23.6469   27.0312    7.1987 O   0  0  0  0  0  0  0  0  0  0  0  0
   21.9550   29.7783   14.1970 C   0  0  1  0  0  0  0  0  0  0  0  0
   21.6598   31.0888   14.5837 O   0  0  0  0  0  0  0  0  0  0  0  0
  1  2  1  1  0  0  0
  1  5  1  0  0  0  0
  1 30  1  0  0  0  0
  3  4  1  1  0  0  0
  3  7  1  0  0  0  0
  3 35  1  0  0  0  0
  5  6  1  1  0  0  0
  5 16  1  0  0  0  0
  7 19  1  0  0  0  0
  8  4  1  0  0  0  0
  8 25  2  0  0  0  0
  9  8  1  1  0  0  0
  9 10  1  0  0  0  0
  9 13  1  0  0  0  0
 10 11  1  0  0  0  0
 11 12  1  0  0  0  0
 14 15  1  0  0  0  0
 14 36  1  0  0  0  0
 15 17  1  0  0  0  0
 16 18  1  6  0  0  0
 16 26  1  0  0  0  0
 17 23  1  0  0  0  0
 19 20  1  6  0  0  0
 19 28  1  0  0  0  0
 21 22  1  0  0  0  0
 21 23  1  0  0  0  0
 22 24  1  0  0  0  0
 26 27  1  1  0  0  0
 26 29  1  0  0  0  0
 28  2  1  6  0  0  0
 28 31  1  0  0  0  0
 29 30  1  0  0  0  0
 29 33  1  6  0  0  0
 31 32  1  6  0  0  0
 31 35  1  0  0  0  0
 33 34  1  0  0  0  0
 35 36  1  1  0  0  0
M  END
>  <CHROM.1>
-164.41356254,-107.78208472,103.14313796,170.91452109,-79.08969165,-177.27070711
126.14148457,-100.77919752,-100.60756639,179.04141187,179.28006169,178.48957721
60.90013570,-53.58625568,21.66747786,29.60065601,13.84785317,-2.99249825
1.46211948,2.32657604

>  <Name>
2f4u_lig

>  <RI>
0

>  <Rbt.Current_Directory>
/home/itssahil/PROJECTS/Mol_Feturizer/New_Systems/rnas/2f4u

>  <Rbt.Executable>
rbdock ($Id: //depot/dev/client3/rdock/2013.1/src/exe/rbdock.cxx#4 $)

>  <Rbt.Library>
libRbt.so (2013.1, Build901 2013/11/27)

>  <Rbt.Parameter_File>
/export/apps/rDock/src/rDock_2013.1_src/data/scripts/dock_solv.prm

>  <Rbt.Receptor>
prm/blind_docking_80.prm

>  <SCORE>
-9.36211

>  <SCORE.INTER>
-6.19975

>  <SCORE.INTER.CONST>
1

>  <SCORE.INTER.POLAR>
-0.838205

>  <SCORE.INTER.ROT>
14

>  <SCORE.INTER.SOLV>
26.4002

>  <SCORE.INTER.VDW>
-23.0726

>  <SCORE.INTER.norm>
-0.172215

>  <SCORE.INTRA>
-5.28697

>  <SCORE.INTRA.DIHEDRAL>
-11.2359

>  <SCORE.INTRA.DIHEDRAL.0>
26.3805

>  <SCORE.INTRA.POLAR>
0

>  <SCORE.INTRA.POLAR.0>
0

>  <SCORE.INTRA.REPUL>
0

>  <SCORE.INTRA.REPUL.0>
0

>  <SCORE.INTRA.SOLV>
1.41514

>  <SCORE.INTRA.SOLV.lig_0>
-98.5587

>  <SCORE.INTRA.VDW>
-0.376597

>  <SCORE.INTRA.VDW.0>
-2.91167

>  <SCORE.INTRA.norm>
-0.14686

>  <SCORE.RESTR>
2.12461

>  <SCORE.RESTR.CAVITY>
2.12461

>  <SCORE.RESTR.norm>
0.059017

>  <SCORE.SYSTEM>
0

>  <SCORE.SYSTEM.CONST>
0

>  <SCORE.SYSTEM.DIHEDRAL>
0

>  <SCORE.SYSTEM.SOLV>
0

>  <SCORE.SYSTEM.norm>
0

>  <SCORE.heavy>
36

>  <SCORE.norm>
-0.260059

>  <RMSD>
31.271

$$$$
2f4u_lig
 OpenBabel11021811433D
libRbt.so/2013.1/901 2013/11/27
 36 37  0  0  0  0  0  0  0  0999 V2000
   22.9267   32.1093   17.8994 C   0  0  2  0  0  0  0  0  0  0  0  0
   21.5010   31.7662   17.7333 O   0  0  0  0  0  0  0  0  0  0  0  0
   21.4084   28.1549   15.3156 C   0  0  2  0  0  0  0  0  0  0  0  0
   20.9087   27.1228   14.3670 N   0  0  0  0  0  0  0  0  0  0  0  0
   23.5622   30.9770   18.7643 C   0  0  2  0  0  0  0  0  0  0  0  0
   23.4210   29.6446   18.1486 N   0  0  0  0  0  0  0  0  0  0  0  0
   20.4529   28.3216   16.5495 C   0  0  0  0  0  0  0  0  0  0  0  0
   22.2001   25.9699   13.9304 C   0  0  0  0  0  0  0  0  0  0  0  0
   21.1914   25.4238   12.9691 C   0  0  1  0  0  0  0  0  0  0  0  0
   21.6774   24.0338   12.5434 C   0  0  0  0  0  0  0  0  0  0  0  0
   23.1254   23.9588   12.0250 C   0  0  0  0  0  0  0  0  0  0  0  0
   23.4709   22.5523   11.8096 N   0  0  0  0  0  0  0  0  0  0  0  0
   19.9519   25.2645   13.6034 O   0  0  0  0  0  0  0  0  0  0  0  0
   22.8267   28.7913   12.2034 C   0  0  0  0  0  0  0  0  0  0  0  0
   21.8787   29.2857   11.1211 C   0  0  0  0  0  0  0  0  0  0  0  0
   22.8948   30.9879   20.1796 C   0  0  1  0  0  0  0  0  0  0  0  0
   20.6937   28.4281   10.9176 N   0  0  0  0  0  0  0  0  0  0  0  0
   23.4348   29.9612   21.0077 O   0  0  0  0  0  0  0  0  0  0  0  0
   20.9502   29.4314   17.4979 C   0  0  2  0  0  0  0  0  0  0  0  0
   20.0385   29.6169   18.6199 N   0  0  0  0  0  0  0  0  0  0  0  0
   19.7146   26.6937    9.4232 C   0  0  0  0  0  0  0  0  0  0  0  0
   18.3551   26.4444   10.1428 C   0  0  0  0  0  0  0  0  0  0  0  0
   20.2098   28.1590    9.5388 C   0  0  0  0  0  0  0  0  0  0  0  0
   17.8282   25.0720    9.8778 N   0  0  0  0  0  0  0  0  0  0  0  0
   23.2308   25.8163   14.2050 O   0  0  0  0  0  0  0  0  0  0  0  0
   23.1076   32.3827   20.8011 C   0  0  2  0  0  0  0  0  0  0  0  0
   22.5242   32.4976   22.0965 O   0  0  0  0  0  0  0  0  0  0  0  0
   21.0651   30.7480   16.7559 C   0  0  2  0  0  0  0  0  0  0  0  0
   22.5344   33.4827   19.8895 C   0  0  2  0  0  0  0  0  0  0  0  0
   23.0829   33.3920   18.5701 O   0  0  0  0  0  0  0  0  0  0  0  0
   22.0654   30.5932   15.5395 C   0  0  2  0  0  0  0  0  0  0  0  0
   22.1426   31.8708   14.8324 O   0  0  0  0  0  0  0  0  0  0  0  0
   22.8032   34.8595   20.4357 C   0  0  0  0  0  0  0  0  0  0  0  0
   22.1111   35.8071   19.7159 O   0  0  0  0  0  0  0  0  0  0  0  0
   21.5277   29.4762   14.5822 C   0  0  1  0  0  0  0  0  0  0  0  0
   22.3621   29.2869   13.4767 O   0  0  0  0  0  0  0  0  0  0  0  0
  1  2  1  1  0  0  0
  1  5  1  0  0  0  0
  1 30  1  0  0  0  0
  3  4  1  6  0  0  0
  3  7  1  0  0  0  0
  3 35  1  0  0  0  0
  5  6  1  6  0  0  0
  5 16  1  0  0  0  0
  7 19  1  0  0  0  0
  8  4  1  0  0  0  0
  8 25  2  0  0  0  0
  9  8  1  1  0  0  0
  9 10  1  0  0  0  0
  9 13  1  0  0  0  0
 10 11  1  0  0  0  0
 11 12  1  0  0  0  0
 14 15  1  0  0  0  0
 14 36  1  0  0  0  0
 15 17  1  0  0  0  0
 16 18  1  1  0  0  0
 16 26  1  0  0  0  0
 17 23  1  0  0  0  0
 19 20  1  1  0  0  0
 19 28  1  0  0  0  0
 21 22  1  0  0  0  0
 21 23  1  0  0  0  0
 22 24  1  0  0  0  0
 26 27  1  1  0  0  0
 26 29  1  0  0  0  0
 28  2  1  1  0  0  0
 28 31  1  0  0  0  0
 29 30  1  0  0  0  0
 29 33  1  1  0  0  0
 31 32  1  6  0  0  0
 31 35  1  0  0  0  0
 33 34  1  0  0  0  0
 35 36  1  6  0  0  0
M  END
>  <CHROM.1>
-78.53928884,-130.93207811,-163.29236493,-52.06584491,173.67209309,-85.60357463
63.46177727,-139.37134122,142.19926543,173.25962856,73.05120115,94.60983763
-170.89249377,65.41018284,21.76324861,29.16070537,15.50347975,1.12139290
-1.19612543,0.46402312

>  <Name>
2f4u_lig

>  <RI>
0

>  <Rbt.Current_Directory>
/home/itssahil/PROJECTS/Mol_Feturizer/New_Systems/rnas/2f4u

>  <Rbt.Executable>
rbdock ($Id: //depot/dev/client3/rdock/2013.1/src/exe/rbdock.cxx#4 $)

>  <Rbt.Library>
libRbt.so (2013.1, Build901 2013/11/27)

>  <Rbt.Parameter_File>
/export/apps/rDock/src/rDock_2013.1_src/data/scripts/dock_solv.prm

>  <Rbt.Receptor>
prm/blind_docking_80.prm

>  <SCORE>
-1.09979

>  <SCORE.INTER>
-4.15822

>  <SCORE.INTER.CONST>
1

>  <SCORE.INTER.POLAR>
-0.964815

>  <SCORE.INTER.ROT>
14

>  <SCORE.INTER.SOLV>
21.9838

>  <SCORE.INTER.VDW>
-19.8173

>  <SCORE.INTER.norm>
-0.115506

>  <SCORE.INTRA>
0.417872

>  <SCORE.INTRA.DIHEDRAL>
-12.4966

>  <SCORE.INTRA.DIHEDRAL.0>
26.3805

>  <SCORE.INTRA.POLAR>
0

>  <SCORE.INTRA.POLAR.0>
0

>  <SCORE.INTRA.REPUL>
0

>  <SCORE.INTRA.REPUL.0>
0

>  <SCORE.INTRA.SOLV>
7.55609

>  <SCORE.INTRA.SOLV.lig_0>
-98.5587

>  <SCORE.INTRA.VDW>
2.88814

>  <SCORE.INTRA.VDW.0>
-2.91167

>  <SCORE.INTRA.norm>
0.0116076

>  <SCORE.RESTR>
2.64056

>  <SCORE.RESTR.CAVITY>
2.64056

>  <SCORE.RESTR.norm>
0.0733489

>  <SCORE.SYSTEM>
0

>  <SCORE.SYSTEM.CONST>
0

>  <SCORE.SYSTEM.DIHEDRAL>
0

>  <SCORE.SYSTEM.SOLV>
0

>  <SCORE.SYSTEM.norm>
0

>  <SCORE.heavy>
36

>  <SCORE.norm>
-0.0305497

>  <RMSD>
31.310

$$$$
2f4u_lig
 OpenBabel11021811433D
libRbt.so/2013.1/901 2013/11/27
 36 37  0  0  0  0  0  0  0  0999 V2000
   22.6845   32.0636   17.8110 C   0  0  2  0  0  0  0  0  0  0  0  0
   21.4090   31.3223   17.8503 O   0  0  0  0  0  0  0  0  0  0  0  0
   21.4349   27.9094   15.1584 C   0  0  2  0  0  0  0  0  0  0  0  0
   20.9885   26.9633   14.0998 N   0  0  0  0  0  0  0  0  0  0  0  0
   23.2713   32.0226   19.2560 C   0  0  2  0  0  0  0  0  0  0  0  0
   23.4889   30.6477   19.7422 N   0  0  0  0  0  0  0  0  0  0  0  0
   20.3970   28.0002   16.3321 C   0  0  0  0  0  0  0  0  0  0  0  0
   22.3615   26.0189   13.4592 C   0  0  0  0  0  0  0  0  0  0  0  0
   21.3609   25.5002   12.4746 C   0  0  1  0  0  0  0  0  0  0  0  0
   22.1237   24.6313   11.4684 C   0  0  0  0  0  0  0  0  0  0  0  0
   21.2763   24.0019   10.3472 C   0  0  0  0  0  0  0  0  0  0  0  0
   22.1598   23.2247    9.4758 N   0  0  0  0  0  0  0  0  0  0  0  0
   20.4243   24.6807   13.1192 O   0  0  0  0  0  0  0  0  0  0  0  0
   23.0900   29.2911   12.1590 C   0  0  0  0  0  0  0  0  0  0  0  0
   22.1088   28.6898   11.1639 C   0  0  0  0  0  0  0  0  0  0  0  0
   22.2995   32.7844   20.2172 C   0  0  1  0  0  0  0  0  0  0  0  0
   22.7466   28.0749    9.9823 N   0  0  0  0  0  0  0  0  0  0  0  0
   22.7864   32.7665   21.5566 O   0  0  0  0  0  0  0  0  0  0  0  0
   20.8421   29.0239   17.3963 C   0  0  2  0  0  0  0  0  0  0  0  0
   19.8561   29.1412   18.4632 N   0  0  0  0  0  0  0  0  0  0  0  0
   20.8657   27.8827    8.3621 C   0  0  0  0  0  0  0  0  0  0  0  0
   20.0474   26.9638    7.4059 C   0  0  0  0  0  0  0  0  0  0  0  0
   21.9733   27.1258    9.1405 C   0  0  0  0  0  0  0  0  0  0  0  0
   20.9240   26.2689    6.4160 N   0  0  0  0  0  0  0  0  0  0  0  0
   23.4157   25.9396   13.6684 O   0  0  0  0  0  0  0  0  0  0  0  0
   22.1393   34.2265   19.6956 C   0  0  2  0  0  0  0  0  0  0  0  0
   21.2597   35.0044   20.5036 O   0  0  0  0  0  0  0  0  0  0  0  0
   21.0285   30.3909   16.7688 C   0  0  2  0  0  0  0  0  0  0  0  0
   21.6283   34.2311   18.2436 C   0  0  2  0  0  0  0  0  0  0  0  0
   22.4763   33.4444   17.3996 O   0  0  0  0  0  0  0  0  0  0  0  0
   22.1101   30.3097   15.6164 C   0  0  2  0  0  0  0  0  0  0  0  0
   22.2559   31.6359   15.0180 O   0  0  0  0  0  0  0  0  0  0  0  0
   21.5424   35.6260   17.6843 C   0  0  0  0  0  0  0  0  0  0  0  0
   22.7835   36.2217   17.6824 O   0  0  0  0  0  0  0  0  0  0  0  0
   21.6251   29.2804   14.5400 C   0  0  1  0  0  0  0  0  0  0  0  0
   22.5329   29.1595   13.4838 O   0  0  0  0  0  0  0  0  0  0  0  0
  1  2  1  1  0  0  0
  1  5  1  0  0  0  0
  1 30  1  0  0  0  0
  3  4  1  6  0  0  0
  3  7  1  0  0  0  0
  3 35  1  0  0  0  0
  5  6  1  1  0  0  0
  5 16  1  0  0  0  0
  7 19  1  0  0  0  0
  8  4  1  0  0  0  0
  8 25  2  0  0  0  0
  9  8  1  1  0  0  0
  9 10  1  0  0  0  0
  9 13  1  0  0  0  0
 10 11  1  0  0  0  0
 11 12  1  0  0  0  0
 14 15  1  0  0  0  0
 14 36  1  0  0  0  0
 15 17  1  0  0  0  0
 16 18  1  1  0  0  0
 16 26  1  0  0  0  0
 17 23  1  0  0  0  0
 19 20  1  1  0  0  0
 19 28  1  0  0  0  0
 21 22  1  0  0  0  0
 21 23  1  0  0  0  0
 22 24  1  0  0  0  0
 26 27  1  1  0  0  0
 26 29  1  0  0  0  0
 28  2  1  1  0  0  0
 28 31  1  0  0  0  0
 29 30  1  0  0  0  0
 29 33  1  6  0  0  0
 31 32  1  6  0  0  0
 31 35  1  0  0  0  0
 33 34  1  0  0  0  0
 35 36  1  6  0  0  0
M  END
>  <CHROM.1>
-138.11619590,-141.07025668,174.23114263,-179.44753824,179.34093283,-147.98318573
-56.09207823,162.50393643,69.91188444,-57.27348253,177.49463228,120.65222720
60.58961767,129.82677952,21.83401912,29.50277564,14.83359758,-0.76997267
-1.50015416,-1.45799380

>  <Name>
2f4u_lig

>  <RI>
0

>  <Rbt.Current_Directory>
/home/itssahil/PROJECTS/Mol_Feturizer/New_Systems/rnas/2f4u

>  <Rbt.Executable>
rbdock ($Id: //depot/dev/client3/rdock/2013.1/src/exe/rbdock.cxx#4 $)

>  <Rbt.Library>
libRbt.so (2013.1, Build901 2013/11/27)

>  <Rbt.Parameter_File>
/export/apps/rDock/src/rDock_2013.1_src/data/scripts/dock_solv.prm

>  <Rbt.Receptor>
prm/blind_docking_100.prm

>  <SCORE>
6.21627

>  <SCORE.INTER>
-0.886942

>  <SCORE.INTER.CONST>
1

>  <SCORE.INTER.POLAR>
-0.790205

>  <SCORE.INTER.ROT>
14

>  <SCORE.INTER.SOLV>
20.5684

>  <SCORE.INTER.VDW>
-17.7468

>  <SCORE.INTER.norm>
-0.0246373

>  <SCORE.INTRA>
-0.541721

>  <SCORE.INTRA.DIHEDRAL>
-1.58548

>  <SCORE.INTRA.DIHEDRAL.0>
26.3805

>  <SCORE.INTRA.POLAR>
0

>  <SCORE.INTRA.POLAR.0>
0

>  <SCORE.INTRA.REPUL>
0

>  <SCORE.INTRA.REPUL.0>
0

>  <SCORE.INTRA.SOLV>
2.98345

>  <SCORE.INTRA.SOLV.lig_0>
-98.5587

>  <SCORE.INTRA.VDW>
-1.24071

>  <SCORE.INTRA.VDW.0>
-2.91167

>  <SCORE.INTRA.norm>
-0.0150478

>  <SCORE.RESTR>
7.64493

>  <SCORE.RESTR.CAVITY>
7.64493

>  <SCORE.RESTR.norm>
0.212359

>  <SCORE.SYSTEM>
0

>  <SCORE.SYSTEM.CONST>
0

>  <SCORE.SYSTEM.DIHEDRAL>
0

>  <SCORE.SYSTEM.SOLV>
0

>  <SCORE.SYSTEM.norm>
0

>  <SCORE.heavy>
36

>  <SCORE.norm>
0.172674

>  <RMSD>
31.390

$$$$
2f4u_lig
 OpenBabel11021811433D
libRbt.so/2013.1/901 2013/11/27
 36 37  0  0  0  0  0  0  0  0999 V2000
   21.0120   32.8757   17.7580 C   0  0  2  0  0  0  0  0  0  0  0  0
   21.9101   32.0346   16.9432 O   0  0  0  0  0  0  0  0  0  0  0  0
   21.7319   28.6566   14.2133 C   0  0  2  0  0  0  0  0  0  0  0  0
   21.1977   27.4630   13.5027 N   0  0  0  0  0  0  0  0  0  0  0  0
   21.9178   33.8958   18.5150 C   0  0  2  0  0  0  0  0  0  0  0  0
   22.7189   34.7314   17.6016 N   0  0  0  0  0  0  0  0  0  0  0  0
   21.7829   28.4341   15.7661 C   0  0  0  0  0  0  0  0  0  0  0  0
   22.4467   26.1977   13.3399 C   0  0  0  0  0  0  0  0  0  0  0  0
   21.4223   25.4939   12.5063 C   0  0  1  0  0  0  0  0  0  0  0  0
   22.1367   24.3463   11.7838 C   0  0  0  0  0  0  0  0  0  0  0  0
   22.4720   23.1156   12.6464 C   0  0  0  0  0  0  0  0  0  0  0  0
   21.2299   22.3950   12.9328 N   0  0  0  0  0  0  0  0  0  0  0  0
   20.4335   24.9305   13.3244 O   0  0  0  0  0  0  0  0  0  0  0  0
   20.6240   29.6657   11.1182 C   0  0  0  0  0  0  0  0  0  0  0  0
   21.4989   28.4629   10.7981 C   0  0  0  0  0  0  0  0  0  0  0  0
   22.8585   33.1103   19.4880 C   0  0  1  0  0  0  0  0  0  0  0  0
   21.5015   28.0798    9.3719 N   0  0  0  0  0  0  0  0  0  0  0  0
   23.7171   33.9991   20.1982 O   0  0  0  0  0  0  0  0  0  0  0  0
   22.2854   29.6958   16.4971 C   0  0  2  0  0  0  0  0  0  0  0  0
   22.2895   29.5042   17.9419 N   0  0  0  0  0  0  0  0  0  0  0  0
   20.4954   26.5296    7.7031 C   0  0  0  0  0  0  0  0  0  0  0  0
   20.7956   25.1594    8.3819 C   0  0  0  0  0  0  0  0  0  0  0  0
   20.2309   27.6718    8.7185 C   0  0  0  0  0  0  0  0  0  0  0  0
   19.6083   24.6307    9.1181 N   0  0  0  0  0  0  0  0  0  0  0  0
   23.4698   26.0701   13.6536 O   0  0  0  0  0  0  0  0  0  0  0  0
   21.9774   32.2894   20.4508 C   0  0  2  0  0  0  0  0  0  0  0  0
   22.7461   31.5264   21.3775 O   0  0  0  0  0  0  0  0  0  0  0  0
   21.3963   30.8809   16.1771 C   0  0  2  0  0  0  0  0  0  0  0  0
   21.0443   31.3457   19.6708 C   0  0  2  0  0  0  0  0  0  0  0  0
   20.2646   32.0719   18.7143 O   0  0  0  0  0  0  0  0  0  0  0  0
   21.3821   31.1351   14.6152 C   0  0  2  0  0  0  0  0  0  0  0  0
   20.5040   32.2702   14.3345 O   0  0  0  0  0  0  0  0  0  0  0  0
   20.1160   30.5931   20.5862 C   0  0  0  0  0  0  0  0  0  0  0  0
   20.6200   29.3419   20.8611 O   0  0  0  0  0  0  0  0  0  0  0  0
   20.8492   29.8483   13.8987 C   0  0  1  0  0  0  0  0  0  0  0  0
   20.8041   30.0022   12.5100 O   0  0  0  0  0  0  0  0  0  0  0  0
  1  2  1  1  0  0  0
  1  5  1  0  0  0  0
  1 30  1  0  0  0  0
  3  4  1  6  0  0  0
  3  7  1  0  0  0  0
  3 35  1  0  0  0  0
  5  6  1  6  0  0  0
  5 16  1  0  0  0  0
  7 19  1  0  0  0  0
  8  4  1  0  0  0  0
  8 25  2  0  0  0  0
  9  8  1  1  0  0  0
  9 10  1  0  0  0  0
  9 13  1  0  0  0  0
 10 11  1  0  0  0  0
 11 12  1  0  0  0  0
 14 15  1  0  0  0  0
 14 36  1  0  0  0  0
 15 17  1  0  0  0  0
 16 18  1  1  0  0  0
 16 26  1  0  0  0  0
 17 23  1  0  0  0  0
 19 20  1  1  0  0  0
 19 28  1  0  0  0  0
 21 22  1  0  0  0  0
 21 23  1  0  0  0  0
 22 24  1  0  0  0  0
 26 27  1  1  0  0  0
 26 29  1  0  0  0  0
 28  2  1  1  0  0  0
 28 31  1  0  0  0  0
 29 30  1  0  0  0  0
 29 33  1  1  0  0  0
 31 32  1  1  0  0  0
 31 35  1  0  0  0  0
 33 34  1  0  0  0  0
 35 36  1  6  0  0  0
M  END
>  <CHROM.1>
174.83467294,-78.91001263,167.28469899,75.58651906,72.41541587,-175.00737013
-54.80247824,-60.99522418,-143.19368052,66.13825736,73.08612161,-130.67033687
-96.85283484,52.68987317,21.48329609,29.13754636,14.95318636,0.96624723,-1.44649707
0.32489789

>  <Name>
2f4u_lig

>  <RI>
0

>  <Rbt.Current_Directory>
/home/itssahil/PROJECTS/Mol_Feturizer/New_Systems/rnas/2f4u

>  <Rbt.Executable>
rbdock ($Id: //depot/dev/client3/rdock/2013.1/src/exe/rbdock.cxx#4 $)

>  <Rbt.Library>
libRbt.so (2013.1, Build901 2013/11/27)

>  <Rbt.Parameter_File>
/export/apps/rDock/src/rDock_2013.1_src/data/scripts/dock_solv.prm

>  <Rbt.Receptor>
prm/blind_docking_80.prm

>  <SCORE>
2.73077

>  <SCORE.INTER>
2.81375

>  <SCORE.INTER.CONST>
1

>  <SCORE.INTER.POLAR>
0

>  <SCORE.INTER.ROT>
14

>  <SCORE.INTER.SOLV>
24.2933

>  <SCORE.INTER.VDW>
-19.1553

>  <SCORE.INTER.norm>
0.0781598

>  <SCORE.INTRA>
-2.95506

>  <SCORE.INTRA.DIHEDRAL>
-11.4487

>  <SCORE.INTRA.DIHEDRAL.0>
26.3805

>  <SCORE.INTRA.POLAR>
0

>  <SCORE.INTRA.POLAR.0>
0

>  <SCORE.INTRA.REPUL>
0

>  <SCORE.INTRA.REPUL.0>
0

>  <SCORE.INTRA.SOLV>
8.25054

>  <SCORE.INTRA.SOLV.lig_0>
-98.5587

>  <SCORE.INTRA.VDW>
-1.356

>  <SCORE.INTRA.VDW.0>
-2.91167

>  <SCORE.INTRA.norm>
-0.082085

>  <SCORE.RESTR>
2.87208

>  <SCORE.RESTR.CAVITY>
2.87208

>  <SCORE.RESTR.norm>
0.0797799

>  <SCORE.SYSTEM>
0

>  <SCORE.SYSTEM.CONST>
0

>  <SCORE.SYSTEM.DIHEDRAL>
0

>  <SCORE.SYSTEM.SOLV>
0

>  <SCORE.SYSTEM.norm>
0

>  <SCORE.heavy>
36

>  <SCORE.norm>
0.0758547

>  <RMSD>
31.393

$$$$
2f4u_lig
 OpenBabel11021811433D
libRbt.so/2013.1/901 2013/11/27
 36 37  0  0  0  0  0  0  0  0999 V2000
   22.8833   30.9433   18.1992 C   0  0  2  0  0  0  0  0  0  0  0  0
   21.5909   30.3738   17.7711 O   0  0  0  0  0  0  0  0  0  0  0  0
   20.8504   28.9547   13.7297 C   0  0  2  0  0  0  0  0  0  0  0  0
   20.3883   28.9494   12.3150 N   0  0  0  0  0  0  0  0  0  0  0  0
   22.9343   30.8202   19.7537 C   0  0  2  0  0  0  0  0  0  0  0  0
   22.8061   29.4266   20.2178 N   0  0  0  0  0  0  0  0  0  0  0  0
   19.6634   29.1950   14.7280 C   0  0  0  0  0  0  0  0  0  0  0  0
   20.0628   27.2875   11.7498 C   0  0  0  0  0  0  0  0  0  0  0  0
   19.8523   27.9345   10.4168 C   0  0  1  0  0  0  0  0  0  0  0  0
   20.8234   27.2719    9.4332 C   0  0  0  0  0  0  0  0  0  0  0  0
   20.5784   27.5728    7.9430 C   0  0  0  0  0  0  0  0  0  0  0  0
   21.5866   26.8635    7.1527 N   0  0  0  0  0  0  0  0  0  0  0  0
   18.5507   27.6904    9.9580 O   0  0  0  0  0  0  0  0  0  0  0  0
   23.8561   29.0977   12.1565 C   0  0  0  0  0  0  0  0  0  0  0  0
   24.5093   28.0169   13.0050 C   0  0  0  0  0  0  0  0  0  0  0  0
   21.7930   31.6976   20.3672 C   0  0  1  0  0  0  0  0  0  0  0  0
   24.3816   26.6539   12.4511 N   0  0  0  0  0  0  0  0  0  0  0  0
   21.7896   31.6107   21.7898 O   0  0  0  0  0  0  0  0  0  0  0  0
   20.1607   29.2539   16.1867 C   0  0  2  0  0  0  0  0  0  0  0  0
   19.0648   29.5223   17.1093 N   0  0  0  0  0  0  0  0  0  0  0  0
   23.4991   24.3263   12.5107 C   0  0  0  0  0  0  0  0  0  0  0  0
   22.2163   23.5042   12.1841 C   0  0  0  0  0  0  0  0  0  0  0  0
   23.2091   25.8185   12.8185 C   0  0  0  0  0  0  0  0  0  0  0  0
   21.2825   23.4432   13.3485 N   0  0  0  0  0  0  0  0  0  0  0  0
   20.0848   26.3007   12.1824 O   0  0  0  0  0  0  0  0  0  0  0  0
   21.9950   33.1505   19.8923 C   0  0  2  0  0  0  0  0  0  0  0  0
   20.9937   34.0324   20.3936 O   0  0  0  0  0  0  0  0  0  0  0  0
   21.1967   30.3484   16.3478 C   0  0  2  0  0  0  0  0  0  0  0  0
   22.0126   33.2277   18.3551 C   0  0  2  0  0  0  0  0  0  0  0  0
   22.9956   32.3413   17.8089 O   0  0  0  0  0  0  0  0  0  0  0  0
   22.4161   30.0808   15.3752 C   0  0  2  0  0  0  0  0  0  0  0  0
   23.3895   31.1597   15.5384 O   0  0  0  0  0  0  0  0  0  0  0  0
   22.2910   34.6244   17.8674 C   0  0  0  0  0  0  0  0  0  0  0  0
   21.3206   35.4930   18.3138 O   0  0  0  0  0  0  0  0  0  0  0  0
   21.8882   30.0463   13.9009 C   0  0  1  0  0  0  0  0  0  0  0  0
   22.9161   29.8180   12.9813 O   0  0  0  0  0  0  0  0  0  0  0  0
  1  2  1  1  0  0  0
  1  5  1  0  0  0  0
  1 30  1  0  0  0  0
  3  4  1  6  0  0  0
  3  7  1  0  0  0  0
  3 35  1  0  0  0  0
  5  6  1  6  0  0  0
  5 16  1  0  0  0  0
  7 19  1  0  0  0  0
  8  4  1  0  0  0  0
  8 25  2  0  0  0  0
  9  8  1  1  0  0  0
  9 10  1  0  0  0  0
  9 13  1  0  0  0  0
 10 11  1  0  0  0  0
 11 12  1  0  0  0  0
 14 15  1  0  0  0  0
 14 36  1  0  0  0  0
 15 17  1  0  0  0  0
 16 18  1  1  0  0  0
 16 26  1  0  0  0  0
 17 23  1  0  0  0  0
 19 20  1  1  0  0  0
 19 28  1  0  0  0  0
 21 22  1  0  0  0  0
 21 23  1  0  0  0  0
 22 24  1  0  0  0  0
 26 27  1  6  0  0  0
 26 29  1  0  0  0  0
 28  2  1  1  0  0  0
 28 31  1  0  0  0  0
 29 30  1  0  0  0  0
 29 33  1  1  0  0  0
 31 32  1  6  0  0  0
 31 35  1  0  0  0  0
 33 34  1  0  0  0  0
 35 36  1  6  0  0  0
M  END
>  <CHROM.1>
178.93799921,-94.79251480,123.00837292,167.66539216,-179.88185619,124.43540493
-46.20160798,-89.71881761,-161.96958856,-63.55511206,-151.56739001,157.50637489
-60.32014183,-36.03436560,21.71889274,29.39542992,14.92075477,-1.43021295
1.19036225,-2.31038379

>  <Name>
2f4u_lig

>  <RI>
0

>  <Rbt.Current_Directory>
/home/itssahil/PROJECTS/Mol_Feturizer/New_Systems/rnas/2f4u

>  <Rbt.Executable>
rbdock ($Id: //depot/dev/client3/rdock/2013.1/src/exe/rbdock.cxx#4 $)

>  <Rbt.Library>
libRbt.so (2013.1, Build901 2013/11/27)

>  <Rbt.Parameter_File>
/export/apps/rDock/src/rDock_2013.1_src/data/scripts/dock_solv.prm

>  <Rbt.Receptor>
prm/blind_docking_80.prm

>  <SCORE>
0.107586

>  <SCORE.INTER>
0.954666

>  <SCORE.INTER.CONST>
1

>  <SCORE.INTER.POLAR>
-0.0586824

>  <SCORE.INTER.ROT>
14

>  <SCORE.INTER.SOLV>
23.7217

>  <SCORE.INTER.VDW>
-20.0085

>  <SCORE.INTER.norm>
0.0265185

>  <SCORE.INTRA>
-4.74836

>  <SCORE.INTRA.DIHEDRAL>
-8.18872

>  <SCORE.INTRA.DIHEDRAL.0>
26.3805

>  <SCORE.INTRA.POLAR>
0

>  <SCORE.INTRA.POLAR.0>
0

>  <SCORE.INTRA.REPUL>
0

>  <SCORE.INTRA.REPUL.0>
0

>  <SCORE.INTRA.SOLV>
1.17858

>  <SCORE.INTRA.SOLV.lig_0>
-98.5587

>  <SCORE.INTRA.VDW>
-1.24328

>  <SCORE.INTRA.VDW.0>
-2.91167

>  <SCORE.INTRA.norm>
-0.131899

>  <SCORE.RESTR>
3.90127

>  <SCORE.RESTR.CAVITY>
3.90127

>  <SCORE.RESTR.norm>
0.108369

>  <SCORE.SYSTEM>
0

>  <SCORE.SYSTEM.CONST>
0

>  <SCORE.SYSTEM.DIHEDRAL>
0

>  <SCORE.SYSTEM.SOLV>
0

>  <SCORE.SYSTEM.norm>
0

>  <SCORE.heavy>
36

>  <SCORE.norm>
0.00298849

>  <RMSD>
31.394

$$$$
2f4u_lig
 OpenBabel11021811433D
libRbt.so/2013.1/901 2013/11/27
 36 37  0  0  0  0  0  0  0  0999 V2000
   22.3849   32.0187   17.7341 C   0  0  2  0  0  0  0  0  0  0  0  0
   21.2748   31.7216   16.8083 O   0  0  0  0  0  0  0  0  0  0  0  0
   20.9088   29.3238   13.2011 C   0  0  2  0  0  0  0  0  0  0  0  0
   21.1524   28.8436   11.8137 N   0  0  0  0  0  0  0  0  0  0  0  0
   21.9315   31.5364   19.1469 C   0  0  2  0  0  0  0  0  0  0  0  0
   21.6044   30.0989   19.1786 N   0  0  0  0  0  0  0  0  0  0  0  0
   20.4361   30.8202   13.2237 C   0  0  0  0  0  0  0  0  0  0  0  0
   19.7151   28.0118   11.1582 C   0  0  0  0  0  0  0  0  0  0  0  0
   20.6051   27.6928    9.9980 C   0  0  1  0  0  0  0  0  0  0  0  0
   19.8927   26.6247    9.1607 C   0  0  0  0  0  0  0  0  0  0  0  0
   20.6243   26.1759    7.8822 C   0  0  0  0  0  0  0  0  0  0  0  0
   19.8008   25.1749    7.2012 N   0  0  0  0  0  0  0  0  0  0  0  0
   20.7731   28.8246    9.1886 O   0  0  0  0  0  0  0  0  0  0  0  0
   22.6032   26.4235   14.1752 C   0  0  0  0  0  0  0  0  0  0  0  0
   21.2138   25.8808   13.8761 C   0  0  0  0  0  0  0  0  0  0  0  0
   20.6911   32.3792   19.5939 C   0  0  1  0  0  0  0  0  0  0  0  0
   21.0813   25.2609   12.5422 N   0  0  0  0  0  0  0  0  0  0  0  0
   20.2297   31.9687   20.8784 O   0  0  0  0  0  0  0  0  0  0  0  0
   20.2399   31.3245   14.6679 C   0  0  2  0  0  0  0  0  0  0  0  0
   19.8448   32.7273   14.6898 N   0  0  0  0  0  0  0  0  0  0  0  0
   21.3023   22.7924   12.7818 C   0  0  0  0  0  0  0  0  0  0  0  0
   22.2535   22.3640   11.6242 C   0  0  0  0  0  0  0  0  0  0  0  0
   20.3641   23.9673   12.4012 C   0  0  0  0  0  0  0  0  0  0  0  0
   23.0987   23.5002   11.1487 N   0  0  0  0  0  0  0  0  0  0  0  0
   18.7148   27.8021   11.4998 O   0  0  0  0  0  0  0  0  0  0  0  0
   21.0938   33.8675   19.5895 C   0  0  2  0  0  0  0  0  0  0  0  0
   20.0221   34.7239   19.9765 O   0  0  0  0  0  0  0  0  0  0  0  0
   21.5259   31.1804   15.4570 C   0  0  2  0  0  0  0  0  0  0  0  0
   21.6050   34.2934   18.2014 C   0  0  2  0  0  0  0  0  0  0  0  0
   22.6736   33.4453   17.7666 O   0  0  0  0  0  0  0  0  0  0  0  0
   21.9778   29.6639   15.4746 C   0  0  2  0  0  0  0  0  0  0  0  0
   23.2279   29.5575   16.2256 O   0  0  0  0  0  0  0  0  0  0  0  0
   22.0818   35.7212   18.1938 C   0  0  0  0  0  0  0  0  0  0  0  0
   22.9130   35.9574   19.2655 O   0  0  0  0  0  0  0  0  0  0  0  0
   22.1900   29.1828   13.9992 C   0  0  1  0  0  0  0  0  0  0  0  0
   22.5970   27.8469   13.9368 O   0  0  0  0  0  0  0  0  0  0  0  0
  1  2  1  6  0  0  0
  1  5  1  0  0  0  0
  1 30  1  0  0  0  0
  3  4  1  6  0  0  0
  3  7  1  0  0  0  0
  3 35  1  0  0  0  0
  5  6  1  6  0  0  0
  5 16  1  0  0  0  0
  7 19  1  0  0  0  0
  8  4  1  0  0  0  0
  8 25  2  0  0  0  0
  9  8  1  1  0  0  0
  9 10  1  0  0  0  0
  9 13  1  0  0  0  0
 10 11  1  0  0  0  0
 11 12  1  0  0  0  0
 14 15  1  0  0  0  0
 14 36  1  0  0  0  0
 15 17  1  0  0  0  0
 16 18  1  1  0  0  0
 16 26  1  0  0  0  0
 17 23  1  0  0  0  0
 19 20  1  6  0  0  0
 19 28  1  0  0  0  0
 21 22  1  0  0  0  0
 21 23  1  0  0  0  0
 22 24  1  0  0  0  0
 26 27  1  6  0  0  0
 26 29  1  0  0  0  0
 28  2  1  1  0  0  0
 28 31  1  0  0  0  0
 29 30  1  0  0  0  0
 29 33  1  1  0  0  0
 31 32  1  1  0  0  0
 31 35  1  0  0  0  0
 33 34  1  0  0  0  0
 35 36  1  1  0  0  0
M  END
>  <CHROM.1>
-138.74675507,-94.85679817,167.21196000,178.31267848,-179.21910155,98.98876205
50.55968748,135.71236403,-80.96566336,57.39274076,-81.94114270,-165.94399843
47.77272118,-70.86591239,21.24823052,29.44322336,14.58288328,-1.39494655
1.27716876,-2.51043619

>  <Name>
2f4u_lig

>  <RI>
0

>  <Rbt.Current_Directory>
/home/itssahil/PROJECTS/Mol_Feturizer/New_Systems/rnas/2f4u

>  <Rbt.Executable>
rbdock ($Id: //depot/dev/client3/rdock/2013.1/src/exe/rbdock.cxx#4 $)

>  <Rbt.Library>
libRbt.so (2013.1, Build901 2013/11/27)

>  <Rbt.Parameter_File>
/export/apps/rDock/src/rDock_2013.1_src/data/scripts/dock_solv.prm

>  <Rbt.Receptor>
prm/blind_docking_100.prm

>  <SCORE>
2.71407

>  <SCORE.INTER>
-0.11368

>  <SCORE.INTER.CONST>
1

>  <SCORE.INTER.POLAR>
0

>  <SCORE.INTER.ROT>
14

>  <SCORE.INTER.SOLV>
12.8926

>  <SCORE.INTER.VDW>
-17.3066

>  <SCORE.INTER.norm>
-0.00315778

>  <SCORE.INTRA>
-4.21461

>  <SCORE.INTRA.DIHEDRAL>
-9.63749

>  <SCORE.INTRA.DIHEDRAL.0>
26.3805

>  <SCORE.INTRA.POLAR>
0

>  <SCORE.INTRA.POLAR.0>
0

>  <SCORE.INTRA.REPUL>
0

>  <SCORE.INTRA.REPUL.0>
0

>  <SCORE.INTRA.SOLV>
5.44465

>  <SCORE.INTRA.SOLV.lig_0>
-98.5587

>  <SCORE.INTRA.VDW>
-2.1182

>  <SCORE.INTRA.VDW.0>
-2.91167

>  <SCORE.INTRA.norm>
-0.117073

>  <SCORE.RESTR>
7.04237

>  <SCORE.RESTR.CAVITY>
7.04237

>  <SCORE.RESTR.norm>
0.195621

>  <SCORE.SYSTEM>
0

>  <SCORE.SYSTEM.CONST>
0

>  <SCORE.SYSTEM.DIHEDRAL>
0

>  <SCORE.SYSTEM.SOLV>
0

>  <SCORE.SYSTEM.norm>
0

>  <SCORE.heavy>
36

>  <SCORE.norm>
0.075391

>  <RMSD>
31.557

$$$$
2f4u_lig
 OpenBabel11021811433D
libRbt.so/2013.1/901 2013/11/27
 36 37  0  0  0  0  0  0  0  0999 V2000
   21.2858   26.3981   11.1217 C   0  0  2  0  0  0  0  0  0  0  0  0
   20.8889   27.6767   11.7426 O   0  0  0  0  0  0  0  0  0  0  0  0
   21.7162   29.2966   15.6906 C   0  0  2  0  0  0  0  0  0  0  0  0
   22.4888   29.7895   16.8631 N   0  0  0  0  0  0  0  0  0  0  0  0
   21.2261   26.6123    9.5774 C   0  0  2  0  0  0  0  0  0  0  0  0
   22.1072   27.7027    9.1205 N   0  0  0  0  0  0  0  0  0  0  0  0
   22.0783   27.8106   15.3388 C   0  0  0  0  0  0  0  0  0  0  0  0
   21.5552   29.6048   18.3736 C   0  0  0  0  0  0  0  0  0  0  0  0
   22.6913   30.3514   18.9995 C   0  0  1  0  0  0  0  0  0  0  0  0
   22.3113   30.6125   20.4613 C   0  0  0  0  0  0  0  0  0  0  0  0
   22.6963   31.9958   21.0179 C   0  0  0  0  0  0  0  0  0  0  0  0
   22.4478   32.0029   22.4608 N   0  0  0  0  0  0  0  0  0  0  0  0
   23.8508   29.5641   18.9962 O   0  0  0  0  0  0  0  0  0  0  0  0
   21.0037   32.6133   15.4576 C   0  0  0  0  0  0  0  0  0  0  0  0
   21.1636   32.5188   16.9676 C   0  0  0  0  0  0  0  0  0  0  0  0
   19.7459   26.9099    9.1660 C   0  0  1  0  0  0  0  0  0  0  0  0
   22.2390   33.3696   17.5160 N   0  0  0  0  0  0  0  0  0  0  0  0
   19.6387   27.1248    7.7611 O   0  0  0  0  0  0  0  0  0  0  0  0
   21.3137   27.3278   14.0895 C   0  0  2  0  0  0  0  0  0  0  0  0
   21.6843   25.9631   13.7364 N   0  0  0  0  0  0  0  0  0  0  0  0
   22.2402   35.1080   19.2986 C   0  0  0  0  0  0  0  0  0  0  0  0
   21.8427   36.5566   19.7130 C   0  0  0  0  0  0  0  0  0  0  0  0
   21.9684   34.8021   17.8025 C   0  0  0  0  0  0  0  0  0  0  0  0
   22.5432   37.5845   18.8859 N   0  0  0  0  0  0  0  0  0  0  0  0
   20.5957   29.1993   18.6501 O   0  0  0  0  0  0  0  0  0  0  0  0
   18.8720   25.7246    9.6226 C   0  0  2  0  0  0  0  0  0  0  0  0
   17.4955   25.9054    9.2998 O   0  0  0  0  0  0  0  0  0  0  0  0
   21.6168   28.2242   12.9055 C   0  0  2  0  0  0  0  0  0  0  0  0
   19.0094   25.4936   11.1383 C   0  0  2  0  0  0  0  0  0  0  0  0
   20.3822   25.3242   11.5083 O   0  0  0  0  0  0  0  0  0  0  0  0
   21.2077   29.7153   13.2424 C   0  0  2  0  0  0  0  0  0  0  0  0
   21.5275   30.5590   12.0918 O   0  0  0  0  0  0  0  0  0  0  0  0
   18.2293   24.2896   11.5945 C   0  0  0  0  0  0  0  0  0  0  0  0
   18.4999   24.0123   12.9155 O   0  0  0  0  0  0  0  0  0  0  0  0
   22.0122   30.1879   14.5005 C   0  0  1  0  0  0  0  0  0  0  0  0
   21.7044   31.5046   14.8554 O   0  0  0  0  0  0  0  0  0  0  0  0
  1  2  1  1  0  0  0
  1  5  1  0  0  0  0
  1 30  1  0  0  0  0
  3  4  1  1  0  0  0
  3  7  1  0  0  0  0
  3 35  1  0  0  0  0
  5  6  1  1  0  0  0
  5 16  1  0  0  0  0
  7 19  1  0  0  0  0
  8  4  1  0  0  0  0
  8 25  2  0  0  0  0
  9  8  1  1  0  0  0
  9 10  1  0  0  0  0
  9 13  1  0  0  0  0
 10 11  1  0  0  0  0
 11 12  1  0  0  0  0
 14 15  1  0  0  0  0
 14 36  1  0  0  0  0
 15 17  1  0  0  0  0
 16 18  1  6  0  0  0
 16 26  1  0  0  0  0
 17 23  1  0  0  0  0
 19 20  1  6  0  0  0
 19 28  1  0  0  0  0
 21 22  1  0  0  0  0
 21 23  1  0  0  0  0
 22 24  1  0  0  0  0
 26 27  1  1  0  0  0
 26 29  1  0  0  0  0
 28  2  1  6  0  0  0
 28 31  1  0  0  0  0
 29 30  1  0  0  0  0
 29 33  1  6  0  0  0
 31 32  1  6  0  0  0
 31 35  1  0  0  0  0
 33 34  1  0  0  0  0
 35 36  1  1  0  0  0
M  END
>  <CHROM.1>
-136.94729673,-95.21336816,174.68245727,-140.15780434,-171.58283292,97.62488528
67.94560230,83.48663250,121.72679268,-57.05596340,-174.19400112,-69.59102541
172.66660217,-38.12786969,21.19795402,29.40810917,14.76219472,3.12863915
-1.35544866,-0.69133110

>  <Name>
2f4u_lig

>  <RI>
0

>  <Rbt.Current_Directory>
/home/itssahil/PROJECTS/Mol_Feturizer/New_Systems/rnas/2f4u

>  <Rbt.Executable>
rbdock ($Id: //depot/dev/client3/rdock/2013.1/src/exe/rbdock.cxx#4 $)

>  <Rbt.Library>
libRbt.so (2013.1, Build901 2013/11/27)

>  <Rbt.Parameter_File>
/export/apps/rDock/src/rDock_2013.1_src/data/scripts/dock_solv.prm

>  <Rbt.Receptor>
prm/blind_docking_100.prm

>  <SCORE>
0.973196

>  <SCORE.INTER>
-3.36278

>  <SCORE.INTER.CONST>
1

>  <SCORE.INTER.POLAR>
-1.56207

>  <SCORE.INTER.ROT>
14

>  <SCORE.INTER.SOLV>
25.0137

>  <SCORE.INTER.VDW>
-18.3062

>  <SCORE.INTER.norm>
-0.0934106

>  <SCORE.INTRA>
-1.84732

>  <SCORE.INTRA.DIHEDRAL>
-6.20254

>  <SCORE.INTRA.DIHEDRAL.0>
26.3805

>  <SCORE.INTRA.POLAR>
0

>  <SCORE.INTRA.POLAR.0>
0

>  <SCORE.INTRA.REPUL>
0

>  <SCORE.INTRA.REPUL.0>
0

>  <SCORE.INTRA.SOLV>
4.37573

>  <SCORE.INTRA.SOLV.lig_0>
-98.5587

>  <SCORE.INTRA.VDW>
-0.933916

>  <SCORE.INTRA.VDW.0>
-2.91167

>  <SCORE.INTRA.norm>
-0.0513146

>  <SCORE.RESTR>
6.1833

>  <SCORE.RESTR.CAVITY>
6.1833

>  <SCORE.RESTR.norm>
0.171758

>  <SCORE.SYSTEM>
0

>  <SCORE.SYSTEM.CONST>
0

>  <SCORE.SYSTEM.DIHEDRAL>
0

>  <SCORE.SYSTEM.SOLV>
0

>  <SCORE.SYSTEM.norm>
0

>  <SCORE.heavy>
36

>  <SCORE.norm>
0.0270332

>  <RMSD>
31.623

$$$$
2f4u_lig
 OpenBabel11021811433D
libRbt.so/2013.1/901 2013/11/27
 36 37  0  0  0  0  0  0  0  0999 V2000
   20.4572   28.5330   10.4511 C   0  0  2  0  0  0  0  0  0  0  0  0
   20.3103   28.0983   11.8537 O   0  0  0  0  0  0  0  0  0  0  0  0
   21.7422   29.4566   15.7266 C   0  0  2  0  0  0  0  0  0  0  0  0
   22.6827   29.9191   16.7832 N   0  0  0  0  0  0  0  0  0  0  0  0
   19.5214   27.6208    9.5988 C   0  0  2  0  0  0  0  0  0  0  0  0
   18.1105   27.7037   10.0192 N   0  0  0  0  0  0  0  0  0  0  0  0
   22.1398   28.0431   15.1726 C   0  0  0  0  0  0  0  0  0  0  0  0
   21.9576   29.7582   18.4066 C   0  0  0  0  0  0  0  0  0  0  0  0
   23.1920   30.4649   18.8720 C   0  0  1  0  0  0  0  0  0  0  0  0
   22.7608   31.4712   19.9448 C   0  0  0  0  0  0  0  0  0  0  0  0
   22.1486   30.8686   21.2228 C   0  0  0  0  0  0  0  0  0  0  0  0
   21.5688   31.9531   22.0177 N   0  0  0  0  0  0  0  0  0  0  0  0
   24.0750   29.5568   19.4720 O   0  0  0  0  0  0  0  0  0  0  0  0
   21.5076   32.9116   15.9279 C   0  0  0  0  0  0  0  0  0  0  0  0
   20.1322   33.5588   15.9901 C   0  0  0  0  0  0  0  0  0  0  0  0
   20.0264   26.1433    9.7019 C   0  0  1  0  0  0  0  0  0  0  0  0
   20.1449   34.9628   16.4481 N   0  0  0  0  0  0  0  0  0  0  0  0
   19.1957   25.2650    8.9468 O   0  0  0  0  0  0  0  0  0  0  0  0
   21.1919   27.5976   14.0405 C   0  0  2  0  0  0  0  0  0  0  0  0
   21.5888   26.3054   13.4954 N   0  0  0  0  0  0  0  0  0  0  0  0
   20.9743   35.0427   18.7945 C   0  0  0  0  0  0  0  0  0  0  0  0
   22.1185   35.4577   19.7675 C   0  0  0  0  0  0  0  0  0  0  0  0
   21.2483   35.4409   17.3207 C   0  0  0  0  0  0  0  0  0  0  0  0
   22.1798   36.9382   19.9558 N   0  0  0  0  0  0  0  0  0  0  0  0
   21.0319   29.3828   18.8111 O   0  0  0  0  0  0  0  0  0  0  0  0
   21.4869   26.0986    9.2099 C   0  0  2  0  0  0  0  0  0  0  0  0
   22.0442   24.7882    9.2736 O   0  0  0  0  0  0  0  0  0  0  0  0
   21.2012   28.6118   12.9141 C   0  0  2  0  0  0  0  0  0  0  0  0
   22.3693   27.0630   10.0228 C   0  0  2  0  0  0  0  0  0  0  0  0
   21.8337   28.3907    9.9991 O   0  0  0  0  0  0  0  0  0  0  0  0
   20.7544   30.0274   13.4626 C   0  0  2  0  0  0  0  0  0  0  0  0
   20.7900   30.9880   12.3608 O   0  0  0  0  0  0  0  0  0  0  0  0
   23.7831   27.0983    9.5071 C   0  0  0  0  0  0  0  0  0  0  0  0
   24.4376   25.9268    9.8142 O   0  0  0  0  0  0  0  0  0  0  0  0
   21.7436   30.4656   14.5952 C   0  0  1  0  0  0  0  0  0  0  0  0
   21.4121   31.7156   15.1260 O   0  0  0  0  0  0  0  0  0  0  0  0
  1  2  1  1  0  0  0
  1  5  1  0  0  0  0
  1 30  1  0  0  0  0
  3  4  1  1  0  0  0
  3  7  1  0  0  0  0
  3 35  1  0  0  0  0
  5  6  1  1  0  0  0
  5 16  1  0  0  0  0
  7 19  1  0  0  0  0
  8  4  1  0  0  0  0
  8 25  2  0  0  0  0
  9  8  1  1  0  0  0
  9 10  1  0  0  0  0
  9 13  1  0  0  0  0
 10 11  1  0  0  0  0
 11 12  1  0  0  0  0
 14 15  1  0  0  0  0
 14 36  1  0  0  0  0
 15 17  1  0  0  0  0
 16 18  1  6  0  0  0
 16 26  1  0  0  0  0
 17 23  1  0  0  0  0
 19 20  1  6  0  0  0
 19 28  1  0  0  0  0
 21 22  1  0  0  0  0
 21 23  1  0  0  0  0
 22 24  1  0  0  0  0
 26 27  1  1  0  0  0
 26 29  1  0  0  0  0
 28  2  1  6  0  0  0
 28 31  1  0  0  0  0
 29 30  1  0  0  0  0
 29 33  1  6  0  0  0
 31 32  1  6  0  0  0
 31 35  1  0  0  0  0
 33 34  1  0  0  0  0
 35 36  1  1  0  0  0
M  END
>  <CHROM.1>
170.85136002,-103.97035669,139.16691703,63.51485892,-169.47296042,-163.84645091
-160.99899524,-25.99292444,-81.46020667,70.16679590,177.59723642,-156.76548657
-71.69482686,62.34724367,21.50641427,29.79916215,14.55129713,1.71329015,1.14202526
-2.31384442

>  <Name>
2f4u_lig

>  <RI>
0

>  <Rbt.Current_Directory>
/home/itssahil/PROJECTS/Mol_Feturizer/New_Systems/rnas/2f4u

>  <Rbt.Executable>
rbdock ($Id: //depot/dev/client3/rdock/2013.1/src/exe/rbdock.cxx#4 $)

>  <Rbt.Library>
libRbt.so (2013.1, Build901 2013/11/27)

>  <Rbt.Parameter_File>
/export/apps/rDock/src/rDock_2013.1_src/data/scripts/dock_solv.prm

>  <Rbt.Receptor>
prm/blind_docking_100.prm

>  <SCORE>
-2.70888

>  <SCORE.INTER>
-1.46366

>  <SCORE.INTER.CONST>
1

>  <SCORE.INTER.POLAR>
-0.671844

>  <SCORE.INTER.ROT>
14

>  <SCORE.INTER.SOLV>
23.3047

>  <SCORE.INTER.VDW>
-19.4379

>  <SCORE.INTER.norm>
-0.0406571

>  <SCORE.INTRA>
-6.9815

>  <SCORE.INTRA.DIHEDRAL>
-15.6329

>  <SCORE.INTRA.DIHEDRAL.0>
26.3805

>  <SCORE.INTRA.POLAR>
0

>  <SCORE.INTRA.POLAR.0>
0

>  <SCORE.INTRA.REPUL>
0

>  <SCORE.INTRA.REPUL.0>
0

>  <SCORE.INTRA.SOLV>
1.36694

>  <SCORE.INTRA.SOLV.lig_0>
-98.5587

>  <SCORE.INTRA.VDW>
0.1515

>  <SCORE.INTRA.VDW.0>
-2.91167

>  <SCORE.INTRA.norm>
-0.19393

>  <SCORE.RESTR>
5.73627

>  <SCORE.RESTR.CAVITY>
5.73627

>  <SCORE.RESTR.norm>
0.159341

>  <SCORE.SYSTEM>
0

>  <SCORE.SYSTEM.CONST>
0

>  <SCORE.SYSTEM.DIHEDRAL>
0

>  <SCORE.SYSTEM.SOLV>
0

>  <SCORE.SYSTEM.norm>
0

>  <SCORE.heavy>
36

>  <SCORE.norm>
-0.0752468

>  <RMSD>
31.635

$$$$
2f4u_lig
 OpenBabel11021811433D
libRbt.so/2013.1/901 2013/11/27
 36 37  0  0  0  0  0  0  0  0999 V2000
   20.7681   32.7410   18.0412 C   0  0  2  0  0  0  0  0  0  0  0  0
   21.6838   32.1075   17.0726 O   0  0  0  0  0  0  0  0  0  0  0  0
   21.8080   28.7632   14.2986 C   0  0  2  0  0  0  0  0  0  0  0  0
   21.3886   27.5285   13.5813 N   0  0  0  0  0  0  0  0  0  0  0  0
   21.0916   34.2672   18.0316 C   0  0  2  0  0  0  0  0  0  0  0  0
   20.9305   34.8737   16.6973 N   0  0  0  0  0  0  0  0  0  0  0  0
   21.9138   28.5285   15.8468 C   0  0  0  0  0  0  0  0  0  0  0  0
   22.6386   26.2592   13.6987 C   0  0  0  0  0  0  0  0  0  0  0  0
   21.7590   25.5049   12.7516 C   0  0  1  0  0  0  0  0  0  0  0  0
   22.4946   24.2119   12.3821 C   0  0  0  0  0  0  0  0  0  0  0  0
   21.7080   23.2191   11.5065 C   0  0  0  0  0  0  0  0  0  0  0  0
   21.7687   23.6746   10.1162 N   0  0  0  0  0  0  0  0  0  0  0  0
   20.5602   25.1459   13.3828 O   0  0  0  0  0  0  0  0  0  0  0  0
   21.1272   30.1617   11.2583 C   0  0  0  0  0  0  0  0  0  0  0  0
   21.3721   28.7721   10.6893 C   0  0  0  0  0  0  0  0  0  0  0  0
   22.5556   34.4762   18.5432 C   0  0  1  0  0  0  0  0  0  0  0  0
   21.0447   28.6398    9.2553 N   0  0  0  0  0  0  0  0  0  0  0  0
   22.9051   35.8579   18.5431 O   0  0  0  0  0  0  0  0  0  0  0  0
   22.2950   29.8272   16.5861 C   0  0  2  0  0  0  0  0  0  0  0  0
   22.3487   29.6196   18.0277 N   0  0  0  0  0  0  0  0  0  0  0  0
   20.4807   26.2184    9.1180 C   0  0  0  0  0  0  0  0  0  0  0  0
   18.9499   26.4707    8.9724 C   0  0  0  0  0  0  0  0  0  0  0  0
   21.3487   27.3699    8.5466 C   0  0  0  0  0  0  0  0  0  0  0  0
   18.4652   27.5172    9.9216 N   0  0  0  0  0  0  0  0  0  0  0  0
   23.5960   26.1530   14.1820 O   0  0  0  0  0  0  0  0  0  0  0  0
   22.6629   33.8683   19.9560 C   0  0  2  0  0  0  0  0  0  0  0  0
   23.9699   34.0007   20.5091 O   0  0  0  0  0  0  0  0  0  0  0  0
   21.2793   30.9153   16.3000 C   0  0  2  0  0  0  0  0  0  0  0  0
   22.2675   32.3807   19.9446 C   0  0  2  0  0  0  0  0  0  0  0  0
   20.9644   32.2013   19.3790 O   0  0  0  0  0  0  0  0  0  0  0  0
   21.2065   31.1857   14.7425 C   0  0  2  0  0  0  0  0  0  0  0  0
   20.2079   32.2247   14.4947 O   0  0  0  0  0  0  0  0  0  0  0  0
   22.2849   31.7857   21.3273 C   0  0  0  0  0  0  0  0  0  0  0  0
   21.8950   30.4660   21.2891 O   0  0  0  0  0  0  0  0  0  0  0  0
   20.7982   29.8585   14.0178 C   0  0  1  0  0  0  0  0  0  0  0  0
   20.7088   30.0237   12.6326 O   0  0  0  0  0  0  0  0  0  0  0  0
  1  2  1  6  0  0  0
  1  5  1  0  0  0  0
  1 30  1  0  0  0  0
  3  4  1  6  0  0  0
  3  7  1  0  0  0  0
  3 35  1  0  0  0  0
  5  6  1  6  0  0  0
  5 16  1  0  0  0  0
  7 19  1  0  0  0  0
  8  4  1  0  0  0  0
  8 25  2  0  0  0  0
  9  8  1  1  0  0  0
  9 10  1  0  0  0  0
  9 13  1  0  0  0  0
 10 11  1  0  0  0  0
 11 12  1  0  0  0  0
 14 15  1  0  0  0  0
 14 36  1  0  0  0  0
 15 17  1  0  0  0  0
 16 18  1  1  0  0  0
 16 26  1  0  0  0  0
 17 23  1  0  0  0  0
 19 20  1  1  0  0  0
 19 28  1  0  0  0  0
 21 22  1  0  0  0  0
 21 23  1  0  0  0  0
 22 24  1  0  0  0  0
 26 27  1  6  0  0  0
 26 29  1  0  0  0  0
 28  2  1  1  0  0  0
 28 31  1  0  0  0  0
 29 30  1  0  0  0  0
 29 33  1  1  0  0  0
 31 32  1  1  0  0  0
 31 35  1  0  0  0  0
 33 34  1  0  0  0  0
 35 36  1  6  0  0  0
M  END
>  <CHROM.1>
-147.98346786,-66.02188980,175.38534052,174.77613837,79.71903270,146.58147421
82.58309899,174.67517361,65.58230073,-72.82551453,60.03096369,-123.10722310
178.48320404,-44.14322337,21.53760368,29.65665054,14.91350685,1.25250262
-1.24947492,0.56969430

>  <Name>
2f4u_lig

>  <RI>
0

>  <Rbt.Current_Directory>
/home/itssahil/PROJECTS/Mol_Feturizer/New_Systems/rnas/2f4u

>  <Rbt.Executable>
rbdock ($Id: //depot/dev/client3/rdock/2013.1/src/exe/rbdock.cxx#4 $)

>  <Rbt.Library>
libRbt.so (2013.1, Build901 2013/11/27)

>  <Rbt.Parameter_File>
/export/apps/rDock/src/rDock_2013.1_src/data/scripts/dock_solv.prm

>  <Rbt.Receptor>
prm/blind_docking_80.prm

>  <SCORE>
-0.466861

>  <SCORE.INTER>
-3.49161

>  <SCORE.INTER.CONST>
1

>  <SCORE.INTER.POLAR>
0

>  <SCORE.INTER.ROT>
14

>  <SCORE.INTER.SOLV>
21.1867

>  <SCORE.INTER.VDW>
-22.3233

>  <SCORE.INTER.norm>
-0.0969893

>  <SCORE.INTRA>
0.0212316

>  <SCORE.INTRA.DIHEDRAL>
-5.64455

>  <SCORE.INTRA.DIHEDRAL.0>
26.3805

>  <SCORE.INTRA.POLAR>
0

>  <SCORE.INTRA.POLAR.0>
0

>  <SCORE.INTRA.REPUL>
0.00011577

>  <SCORE.INTRA.REPUL.0>
0

>  <SCORE.INTRA.SOLV>
9.11336

>  <SCORE.INTRA.SOLV.lig_0>
-98.5587

>  <SCORE.INTRA.VDW>
-1.71375

>  <SCORE.INTRA.VDW.0>
-2.91167

>  <SCORE.INTRA.norm>
0.000589766

>  <SCORE.RESTR>
3.00352

>  <SCORE.RESTR.CAVITY>
3.00352

>  <SCORE.RESTR.norm>
0.0834312

>  <SCORE.SYSTEM>
0

>  <SCORE.SYSTEM.CONST>
0

>  <SCORE.SYSTEM.DIHEDRAL>
0

>  <SCORE.SYSTEM.SOLV>
0

>  <SCORE.SYSTEM.norm>
0

>  <SCORE.heavy>
36

>  <SCORE.norm>
-0.0129684

>  <RMSD>
31.670

$$$$
2f4u_lig
 OpenBabel11021811433D
libRbt.so/2013.1/901 2013/11/27
 36 37  0  0  0  0  0  0  0  0999 V2000
   20.3783   28.3959   10.4170 C   0  0  2  0  0  0  0  0  0  0  0  0
   20.3375   27.8967   11.8051 O   0  0  0  0  0  0  0  0  0  0  0  0
   21.7722   29.3407   15.6459 C   0  0  2  0  0  0  0  0  0  0  0  0
   22.7091   29.8491   16.6844 N   0  0  0  0  0  0  0  0  0  0  0  0
   19.2452   27.6554    9.6410 C   0  0  2  0  0  0  0  0  0  0  0  0
   17.9125   27.8797   10.2306 N   0  0  0  0  0  0  0  0  0  0  0  0
   22.2193   27.9408   15.0948 C   0  0  0  0  0  0  0  0  0  0  0  0
   21.9824   29.7499   18.3120 C   0  0  0  0  0  0  0  0  0  0  0  0
   23.2130   30.4800   18.7504 C   0  0  1  0  0  0  0  0  0  0  0  0
   22.7545   31.6758   19.5927 C   0  0  0  0  0  0  0  0  0  0  0  0
   23.7061   32.8863   19.6134 C   0  0  0  0  0  0  0  0  0  0  0  0
   23.1130   33.9308   20.4507 N   0  0  0  0  0  0  0  0  0  0  0  0
   23.9989   29.6593   19.5708 O   0  0  0  0  0  0  0  0  0  0  0  0
   21.3874   32.7746   15.8438 C   0  0  0  0  0  0  0  0  0  0  0  0
   20.0250   33.4491   15.7840 C   0  0  0  0  0  0  0  0  0  0  0  0
   19.5694   26.1248    9.6134 C   0  0  1  0  0  0  0  0  0  0  0  0
   19.9411   34.7107   16.5472 N   0  0  0  0  0  0  0  0  0  0  0  0
   18.5553   25.3994    8.9229 O   0  0  0  0  0  0  0  0  0  0  0  0
   21.2731   27.4485   13.9808 C   0  0  2  0  0  0  0  0  0  0  0  0
   21.7145   26.1699   13.4380 N   0  0  0  0  0  0  0  0  0  0  0  0
   21.9262   35.9117   17.4510 C   0  0  0  0  0  0  0  0  0  0  0  0
   22.9447   37.0780   17.2761 C   0  0  0  0  0  0  0  0  0  0  0  0
   20.9172   35.7981   16.2785 C   0  0  0  0  0  0  0  0  0  0  0  0
   22.2963   38.4134   17.4429 N   0  0  0  0  0  0  0  0  0  0  0  0
   21.0577   29.3868   18.7300 O   0  0  0  0  0  0  0  0  0  0  0  0
   20.9478   25.9368    8.9487 C   0  0  2  0  0  0  0  0  0  0  0  0
   21.3400   24.5680    8.8836 O   0  0  0  0  0  0  0  0  0  0  0  0
   21.2228   28.4540   12.8479 C   0  0  2  0  0  0  0  0  0  0  0  0
   22.0303   26.7377    9.6944 C   0  0  2  0  0  0  0  0  0  0  0  0
   21.6661   28.1187    9.7973 O   0  0  0  0  0  0  0  0  0  0  0  0
   20.7264   29.8539   13.3942 C   0  0  2  0  0  0  0  0  0  0  0  0
   20.7051   30.8072   12.2857 O   0  0  0  0  0  0  0  0  0  0  0  0
   23.3700   26.6361    9.0154 C   0  0  0  0  0  0  0  0  0  0  0  0
   23.2537   26.9252    7.6745 O   0  0  0  0  0  0  0  0  0  0  0  0
   21.7142   30.3406   14.5080 C   0  0  1  0  0  0  0  0  0  0  0  0
   21.3397   31.5797   15.0359 O   0  0  0  0  0  0  0  0  0  0  0  0
  1  2  1  1  0  0  0
  1  5  1  0  0  0  0
  1 30  1  0  0  0  0
  3  4  1  1  0  0  0
  3  7  1  0  0  0  0
  3 35  1  0  0  0  0
  5  6  1  1  0  0  0
  5 16  1  0  0  0  0
  7 19  1  0  0  0  0
  8  4  1  0  0  0  0
  8 25  2  0  0  0  0
  9  8  1  1  0  0  0
  9 10  1  0  0  0  0
  9 13  1  0  0  0  0
 10 11  1  0  0  0  0
 11 12  1  0  0  0  0
 14 15  1  0  0  0  0
 14 36  1  0  0  0  0
 15 17  1  0  0  0  0
 16 18  1  6  0  0  0
 16 26  1  0  0  0  0
 17 23  1  0  0  0  0
 19 20  1  6  0  0  0
 19 28  1  0  0  0  0
 21 22  1  0  0  0  0
 21 23  1  0  0  0  0
 22 24  1  0  0  0  0
 26 27  1  1  0  0  0
 26 29  1  0  0  0  0
 28  2  1  6  0  0  0
 28 31  1  0  0  0  0
 29 30  1  0  0  0  0
 29 33  1  6  0  0  0
 31 32  1  6  0  0  0
 31 35  1  0  0  0  0
 33 34  1  0  0  0  0
 35 36  1  1  0  0  0
M  END
>  <CHROM.1>
-175.88590345,-106.97207238,129.69315746,-153.10130730,179.61801487,-178.65027168
-165.66576304,54.63264438,-107.54896349,70.83579003,-177.24766382,-161.19564387
50.56389686,59.95723781,21.48183032,29.97695923,14.10703858,1.97851974,1.24071334
-2.66562550

>  <Name>
2f4u_lig

>  <RI>
0

>  <Rbt.Current_Directory>
/home/itssahil/PROJECTS/Mol_Feturizer/New_Systems/rnas/2f4u

>  <Rbt.Executable>
rbdock ($Id: //depot/dev/client3/rdock/2013.1/src/exe/rbdock.cxx#4 $)

>  <Rbt.Library>
libRbt.so (2013.1, Build901 2013/11/27)

>  <Rbt.Parameter_File>
/export/apps/rDock/src/rDock_2013.1_src/data/scripts/dock_solv.prm

>  <Rbt.Receptor>
prm/blind_docking_100.prm

>  <SCORE>
-7.03243

>  <SCORE.INTER>
-3.10383

>  <SCORE.INTER.CONST>
1

>  <SCORE.INTER.POLAR>
-0.594878

>  <SCORE.INTER.ROT>
14

>  <SCORE.INTER.SOLV>
21.5479

>  <SCORE.INTER.VDW>
-20.2023

>  <SCORE.INTER.norm>
-0.0862176

>  <SCORE.INTRA>
-9.54562

>  <SCORE.INTRA.DIHEDRAL>
-16.3152

>  <SCORE.INTRA.DIHEDRAL.0>
26.3805

>  <SCORE.INTRA.POLAR>
0

>  <SCORE.INTRA.POLAR.0>
0

>  <SCORE.INTRA.REPUL>
0

>  <SCORE.INTRA.REPUL.0>
0

>  <SCORE.INTRA.SOLV>
0.616333

>  <SCORE.INTRA.SOLV.lig_0>
-98.5587

>  <SCORE.INTRA.VDW>
-1.69618

>  <SCORE.INTRA.VDW.0>
-2.91167

>  <SCORE.INTRA.norm>
-0.265156

>  <SCORE.RESTR>
5.61702

>  <SCORE.RESTR.CAVITY>
5.61702

>  <SCORE.RESTR.norm>
0.156028

>  <SCORE.SYSTEM>
0

>  <SCORE.SYSTEM.CONST>
0

>  <SCORE.SYSTEM.DIHEDRAL>
0

>  <SCORE.SYSTEM.SOLV>
0

>  <SCORE.SYSTEM.norm>
0

>  <SCORE.heavy>
36

>  <SCORE.norm>
-0.195345

>  <RMSD>
31.699

$$$$
2f4u_lig
 OpenBabel11021811433D
libRbt.so/2013.1/901 2013/11/27
 36 37  0  0  0  0  0  0  0  0999 V2000
   20.9132   32.6931   18.4200 C   0  0  2  0  0  0  0  0  0  0  0  0
   21.8406   32.1619   17.4023 O   0  0  0  0  0  0  0  0  0  0  0  0
   21.9588   29.2016   14.2214 C   0  0  2  0  0  0  0  0  0  0  0  0
   21.5330   28.0762   13.3457 N   0  0  0  0  0  0  0  0  0  0  0  0
   21.0864   34.2436   18.4183 C   0  0  2  0  0  0  0  0  0  0  0  0
   20.8064   34.8452   17.1015 N   0  0  0  0  0  0  0  0  0  0  0  0
   22.0399   28.7677   15.7275 C   0  0  0  0  0  0  0  0  0  0  0  0
   22.3977   26.5714   13.7643 C   0  0  0  0  0  0  0  0  0  0  0  0
   21.7130   26.0106   12.5575 C   0  0  1  0  0  0  0  0  0  0  0  0
   22.0654   24.5205   12.4881 C   0  0  0  0  0  0  0  0  0  0  0  0
   22.9969   24.1042   11.3346 C   0  0  0  0  0  0  0  0  0  0  0  0
   23.0453   22.6418   11.2796 N   0  0  0  0  0  0  0  0  0  0  0  0
   20.3221   26.1119   12.6966 O   0  0  0  0  0  0  0  0  0  0  0  0
   20.6728   30.5480   11.3001 C   0  0  0  0  0  0  0  0  0  0  0  0
   21.5920   29.4585   10.7684 C   0  0  0  0  0  0  0  0  0  0  0  0
   22.5451   34.5891   18.8671 C   0  0  1  0  0  0  0  0  0  0  0  0
   20.9414   28.1419   10.6117 N   0  0  0  0  0  0  0  0  0  0  0  0
   22.7588   35.9982   18.8717 O   0  0  0  0  0  0  0  0  0  0  0  0
   22.4280   29.9544   16.6329 C   0  0  2  0  0  0  0  0  0  0  0  0
   22.4588   29.5618   18.0362 N   0  0  0  0  0  0  0  0  0  0  0  0
   20.6993   27.7973    8.1576 C   0  0  0  0  0  0  0  0  0  0  0  0
   20.9262   26.8494    6.9417 C   0  0  0  0  0  0  0  0  0  0  0  0
   21.3224   27.2650    9.4744 C   0  0  0  0  0  0  0  0  0  0  0  0
   20.2640   25.5248    7.1373 N   0  0  0  0  0  0  0  0  0  0  0  0
   23.1185   26.2695   14.5063 O   0  0  0  0  0  0  0  0  0  0  0  0
   22.7755   33.9801   20.2647 C   0  0  2  0  0  0  0  0  0  0  0  0
   24.0874   34.2337   20.7608 O   0  0  0  0  0  0  0  0  0  0  0  0
   21.4311   31.0855   16.4774 C   0  0  2  0  0  0  0  0  0  0  0  0
   22.5261   32.4612   20.2491 C   0  0  2  0  0  0  0  0  0  0  0  0
   21.2219   32.1614   19.7396 O   0  0  0  0  0  0  0  0  0  0  0  0
   21.3837   31.5555   14.9670 C   0  0  2  0  0  0  0  0  0  0  0  0
   20.4026   32.6327   14.8434 O   0  0  0  0  0  0  0  0  0  0  0  0
   22.6644   31.8567   21.6208 C   0  0  0  0  0  0  0  0  0  0  0  0
   22.4495   30.4978   21.5725 O   0  0  0  0  0  0  0  0  0  0  0  0
   20.9677   30.3391   14.0722 C   0  0  1  0  0  0  0  0  0  0  0  0
   20.8999   30.6828   12.7189 O   0  0  0  0  0  0  0  0  0  0  0  0
  1  2  1  6  0  0  0
  1  5  1  0  0  0  0
  1 30  1  0  0  0  0
  3  4  1  6  0  0  0
  3  7  1  0  0  0  0
  3 35  1  0  0  0  0
  5  6  1  6  0  0  0
  5 16  1  0  0  0  0
  7 19  1  0  0  0  0
  8  4  1  0  0  0  0
  8 25  2  0  0  0  0
  9  8  1  1  0  0  0
  9 10  1  0  0  0  0
  9 13  1  0  0  0  0
 10 11  1  0  0  0  0
 11 12  1  0  0  0  0
 14 15  1  0  0  0  0
 14 36  1  0  0  0  0
 15 17  1  0  0  0  0
 16 18  1  1  0  0  0
 16 26  1  0  0  0  0
 17 23  1  0  0  0  0
 19 20  1  1  0  0  0
 19 28  1  0  0  0  0
 21 22  1  0  0  0  0
 21 23  1  0  0  0  0
 22 24  1  0  0  0  0
 26 27  1  6  0  0  0
 26 29  1  0  0  0  0
 28  2  1  1  0  0  0
 28 31  1  0  0  0  0
 29 30  1  0  0  0  0
 29 33  1  1  0  0  0
 31 32  1  1  0  0  0
 31 35  1  0  0  0  0
 33 34  1  0  0  0  0
 35 36  1  6  0  0  0
M  END
>  <CHROM.1>
-137.67939416,-44.60952790,-175.58213556,-110.40474426,-170.50433030,98.49254031
-60.81346620,144.13982234,-75.15237675,63.16605118,-173.87812006,-124.04988555
-179.38510064,60.91015913,21.75882657,29.84188489,14.96267175,1.34244302
-1.26080270,0.70475547

>  <Name>
2f4u_lig

>  <RI>
0

>  <Rbt.Current_Directory>
/home/itssahil/PROJECTS/Mol_Feturizer/New_Systems/rnas/2f4u

>  <Rbt.Executable>
rbdock ($Id: //depot/dev/client3/rdock/2013.1/src/exe/rbdock.cxx#4 $)

>  <Rbt.Library>
libRbt.so (2013.1, Build901 2013/11/27)

>  <Rbt.Parameter_File>
/export/apps/rDock/src/rDock_2013.1_src/data/scripts/dock_solv.prm

>  <Rbt.Receptor>
prm/blind_docking_100.prm

>  <SCORE>
3.08755

>  <SCORE.INTER>
-3.44889

>  <SCORE.INTER.CONST>
1

>  <SCORE.INTER.POLAR>
0

>  <SCORE.INTER.ROT>
14

>  <SCORE.INTER.SOLV>
18.6648

>  <SCORE.INTER.VDW>
-21.4542

>  <SCORE.INTER.norm>
-0.0958025

>  <SCORE.INTRA>
1.14182

>  <SCORE.INTRA.DIHEDRAL>
-2.19921

>  <SCORE.INTRA.DIHEDRAL.0>
26.3805

>  <SCORE.INTRA.POLAR>
0

>  <SCORE.INTRA.POLAR.0>
0

>  <SCORE.INTRA.REPUL>
0.00707691

>  <SCORE.INTRA.REPUL.0>
0

>  <SCORE.INTRA.SOLV>
5.61365

>  <SCORE.INTRA.SOLV.lig_0>
-98.5587

>  <SCORE.INTRA.VDW>
-0.600785

>  <SCORE.INTRA.VDW.0>
-2.91167

>  <SCORE.INTRA.norm>
0.0317172

>  <SCORE.RESTR>
5.39462

>  <SCORE.RESTR.CAVITY>
5.39462

>  <SCORE.RESTR.norm>
0.149851

>  <SCORE.SYSTEM>
0

>  <SCORE.SYSTEM.CONST>
0

>  <SCORE.SYSTEM.DIHEDRAL>
0

>  <SCORE.SYSTEM.SOLV>
0

>  <SCORE.SYSTEM.norm>
0

>  <SCORE.heavy>
36

>  <SCORE.norm>
0.0857653

>  <RMSD>
31.747

$$$$
2f4u_lig
 OpenBabel11021811433D
libRbt.so/2013.1/901 2013/11/27
 36 37  0  0  0  0  0  0  0  0999 V2000
   20.9182   32.6722   18.8114 C   0  0  2  0  0  0  0  0  0  0  0  0
   21.7905   32.0180   17.8170 O   0  0  0  0  0  0  0  0  0  0  0  0
   21.5020   28.2715   15.6315 C   0  0  2  0  0  0  0  0  0  0  0  0
   20.9304   27.1923   14.7810 N   0  0  0  0  0  0  0  0  0  0  0  0
   21.2037   34.2033   18.7194 C   0  0  2  0  0  0  0  0  0  0  0  0
   20.9502   34.7487   17.3731 N   0  0  0  0  0  0  0  0  0  0  0  0
   20.6315   28.5245   16.9127 C   0  0  0  0  0  0  0  0  0  0  0  0
   22.2198   26.2472   13.9864 C   0  0  0  0  0  0  0  0  0  0  0  0
   21.0900   25.5746   13.2717 C   0  0  1  0  0  0  0  0  0  0  0  0
   21.7013   24.7457   12.1365 C   0  0  0  0  0  0  0  0  0  0  0  0
   22.1476   23.3204   12.5114 C   0  0  0  0  0  0  0  0  0  0  0  0
   22.7532   22.6969   11.3331 N   0  0  0  0  0  0  0  0  0  0  0  0
   20.4272   24.6903   14.1337 O   0  0  0  0  0  0  0  0  0  0  0  0
   22.9735   29.4851   12.3876 C   0  0  0  0  0  0  0  0  0  0  0  0
   21.9021   29.8922   11.3871 C   0  0  0  0  0  0  0  0  0  0  0  0
   22.6896   34.4655   19.1338 C   0  0  1  0  0  0  0  0  0  0  0  0
   21.0646   28.7735   10.9095 N   0  0  0  0  0  0  0  0  0  0  0  0
   23.0052   35.8532   19.0558 O   0  0  0  0  0  0  0  0  0  0  0  0
   21.2015   29.6814   17.7585 C   0  0  2  0  0  0  0  0  0  0  0  0
   20.3675   29.9459   18.9242 N   0  0  0  0  0  0  0  0  0  0  0  0
   20.1079   27.8375    8.8098 C   0  0  0  0  0  0  0  0  0  0  0  0
   20.3839   27.2282    7.4024 C   0  0  0  0  0  0  0  0  0  0  0  0
   21.3992   28.1005    9.6278 C   0  0  0  0  0  0  0  0  0  0  0  0
   21.0813   25.9104    7.4931 N   0  0  0  0  0  0  0  0  0  0  0  0
   23.2975   26.2415   13.9948 O   0  0  0  0  0  0  0  0  0  0  0  0
   22.8942   33.9210   20.5617 C   0  0  2  0  0  0  0  0  0  0  0  0
   24.2277   34.1052   21.0301 O   0  0  0  0  0  0  0  0  0  0  0  0
   21.2808   30.9500   16.9330 C   0  0  2  0  0  0  0  0  0  0  0  0
   22.5347   32.4260   20.6354 C   0  0  2  0  0  0  0  0  0  0  0  0
   21.2054   32.1946   20.1563 O   0  0  0  0  0  0  0  0  0  0  0  0
   22.1973   30.7093   15.6655 C   0  0  2  0  0  0  0  0  0  0  0  0
   22.2410   31.9415   14.8795 O   0  0  0  0  0  0  0  0  0  0  0  0
   22.6475   31.8912   22.0380 C   0  0  0  0  0  0  0  0  0  0  0  0
   22.3921   30.5386   22.0600 O   0  0  0  0  0  0  0  0  0  0  0  0
   21.5863   29.5453   14.8139 C   0  0  1  0  0  0  0  0  0  0  0  0
   22.3442   29.2790   13.6698 O   0  0  0  0  0  0  0  0  0  0  0  0
  1  2  1  6  0  0  0
  1  5  1  0  0  0  0
  1 30  1  0  0  0  0
  3  4  1  6  0  0  0
  3  7  1  0  0  0  0
  3 35  1  0  0  0  0
  5  6  1  6  0  0  0
  5 16  1  0  0  0  0
  7 19  1  0  0  0  0
  8  4  1  0  0  0  0
  8 25  2  0  0  0  0
  9  8  1  1  0  0  0
  9 10  1  0  0  0  0
  9 13  1  0  0  0  0
 10 11  1  0  0  0  0
 11 12  1  0  0  0  0
 14 15  1  0  0  0  0
 14 36  1  0  0  0  0
 15 17  1  0  0  0  0
 16 18  1  1  0  0  0
 16 26  1  0  0  0  0
 17 23  1  0  0  0  0
 19 20  1  1  0  0  0
 19 28  1  0  0  0  0
 21 22  1  0  0  0  0
 21 23  1  0  0  0  0
 22 24  1  0  0  0  0
 26 27  1  6  0  0  0
 26 29  1  0  0  0  0
 28  2  1  1  0  0  0
 28 31  1  0  0  0  0
 29 30  1  0  0  0  0
 29 33  1  1  0  0  0
 31 32  1  6  0  0  0
 31 35  1  0  0  0  0
 33 34  1  0  0  0  0
 35 36  1  6  0  0  0
M  END
>  <CHROM.1>
-135.94365225,-145.69624778,168.52012836,86.80716945,-177.69600991,-76.83491423
-55.22358341,-96.16025688,-137.41730609,60.59490029,175.72528580,-77.15173120
-176.69847693,174.09890232,21.77663105,29.62695100,15.49653406,0.54981243
-1.48742967,-0.10683869

>  <Name>
2f4u_lig

>  <RI>
0

>  <Rbt.Current_Directory>
/home/itssahil/PROJECTS/Mol_Feturizer/New_Systems/rnas/2f4u

>  <Rbt.Executable>
rbdock ($Id: //depot/dev/client3/rdock/2013.1/src/exe/rbdock.cxx#4 $)

>  <Rbt.Library>
libRbt.so (2013.1, Build901 2013/11/27)

>  <Rbt.Parameter_File>
/export/apps/rDock/src/rDock_2013.1_src/data/scripts/dock_solv.prm

>  <Rbt.Receptor>
prm/blind_docking_80.prm

>  <SCORE>
-10.6941

>  <SCORE.INTER>
-8.52704

>  <SCORE.INTER.CONST>
1

>  <SCORE.INTER.POLAR>
-0.724225

>  <SCORE.INTER.ROT>
14

>  <SCORE.INTER.SOLV>
16.7166

>  <SCORE.INTER.VDW>
-21.7762

>  <SCORE.INTER.norm>
-0.236862

>  <SCORE.INTRA>
-5.04656

>  <SCORE.INTRA.DIHEDRAL>
-12.0554

>  <SCORE.INTRA.DIHEDRAL.0>
26.3805

>  <SCORE.INTRA.POLAR>
0

>  <SCORE.INTRA.POLAR.0>
0

>  <SCORE.INTRA.REPUL>
0

>  <SCORE.INTRA.REPUL.0>
0

>  <SCORE.INTRA.SOLV>
3.99469

>  <SCORE.INTRA.SOLV.lig_0>
-98.5587

>  <SCORE.INTRA.VDW>
-1.01619

>  <SCORE.INTRA.VDW.0>
-2.91167

>  <SCORE.INTRA.norm>
-0.140182

>  <SCORE.RESTR>
2.87953

>  <SCORE.RESTR.CAVITY>
2.87953

>  <SCORE.RESTR.norm>
0.0799868

>  <SCORE.SYSTEM>
0

>  <SCORE.SYSTEM.CONST>
0

>  <SCORE.SYSTEM.DIHEDRAL>
0

>  <SCORE.SYSTEM.SOLV>
0

>  <SCORE.SYSTEM.norm>
0

>  <SCORE.heavy>
36

>  <SCORE.norm>
-0.297058

>  <RMSD>
31.754

$$$$
2f4u_lig
 OpenBabel11021811433D
libRbt.so/2013.1/901 2013/11/27
 36 37  0  0  0  0  0  0  0  0999 V2000
   22.7363   31.9720   17.8795 C   0  0  2  0  0  0  0  0  0  0  0  0
   21.4503   31.2506   17.9387 O   0  0  0  0  0  0  0  0  0  0  0  0
   21.3083   28.4314   14.6331 C   0  0  2  0  0  0  0  0  0  0  0  0
   20.7576   27.6183   13.5149 N   0  0  0  0  0  0  0  0  0  0  0  0
   23.3250   31.9579   19.3242 C   0  0  2  0  0  0  0  0  0  0  0  0
   23.5234   30.5922   19.8436 N   0  0  0  0  0  0  0  0  0  0  0  0
   20.5880   28.1155   15.9912 C   0  0  0  0  0  0  0  0  0  0  0  0
   20.9150   25.8718   13.8499 C   0  0  0  0  0  0  0  0  0  0  0  0
   20.4086   25.7029   12.4518 C   0  0  1  0  0  0  0  0  0  0  0  0
   20.7428   24.2711   12.0187 C   0  0  0  0  0  0  0  0  0  0  0  0
   22.2346   23.9731   11.7802 C   0  0  0  0  0  0  0  0  0  0  0  0
   22.7167   24.8405   10.7036 N   0  0  0  0  0  0  0  0  0  0  0  0
   19.0143   25.8418   12.4197 O   0  0  0  0  0  0  0  0  0  0  0  0
   22.1087   30.0016   11.6772 C   0  0  0  0  0  0  0  0  0  0  0  0
   20.8503   29.6161   10.9139 C   0  0  0  0  0  0  0  0  0  0  0  0
   22.3661   32.7571   20.2679 C   0  0  1  0  0  0  0  0  0  0  0  0
   21.1075   28.9272    9.6332 N   0  0  0  0  0  0  0  0  0  0  0  0
   22.8551   32.7648   21.6066 O   0  0  0  0  0  0  0  0  0  0  0  0
   21.1277   29.0023   17.1318 C   0  0  2  0  0  0  0  0  0  0  0  0
   20.4272   28.7405   18.3828 N   0  0  0  0  0  0  0  0  0  0  0  0
   20.3824   27.6874    7.5992 C   0  0  0  0  0  0  0  0  0  0  0  0
   19.3683   26.6902    6.9624 C   0  0  0  0  0  0  0  0  0  0  0  0
   20.1028   27.9723    9.0980 C   0  0  0  0  0  0  0  0  0  0  0  0
   19.5028   26.6325    5.4758 N   0  0  0  0  0  0  0  0  0  0  0  0
   21.2748   25.2657   14.6652 O   0  0  0  0  0  0  0  0  0  0  0  0
   22.2260   34.1881   19.7113 C   0  0  2  0  0  0  0  0  0  0  0  0
   21.3593   34.9983   20.5012 O   0  0  0  0  0  0  0  0  0  0  0  0
   20.9549   30.4683   16.7879 C   0  0  2  0  0  0  0  0  0  0  0  0
   21.7126   34.1646   18.2603 C   0  0  2  0  0  0  0  0  0  0  0  0
   22.5476   33.3453   17.4347 O   0  0  0  0  0  0  0  0  0  0  0  0
   21.7208   30.7981   15.4429 C   0  0  2  0  0  0  0  0  0  0  0  0
   21.5221   32.2118   15.1265 O   0  0  0  0  0  0  0  0  0  0  0  0
   21.6460   35.5466   17.6672 C   0  0  0  0  0  0  0  0  0  0  0  0
   22.8828   35.9308   17.2005 O   0  0  0  0  0  0  0  0  0  0  0  0
   21.1408   29.9004   14.2979 C   0  0  1  0  0  0  0  0  0  0  0  0
   21.7694   30.1420   13.0729 O   0  0  0  0  0  0  0  0  0  0  0  0
  1  2  1  1  0  0  0
  1  5  1  0  0  0  0
  1 30  1  0  0  0  0
  3  4  1  6  0  0  0
  3  7  1  0  0  0  0
  3 35  1  0  0  0  0
  5  6  1  1  0  0  0
  5 16  1  0  0  0  0
  7 19  1  0  0  0  0
  8  4  1  0  0  0  0
  8 25  2  0  0  0  0
  9  8  1  1  0  0  0
  9 10  1  0  0  0  0
  9 13  1  0  0  0  0
 10 11  1  0  0  0  0
 11 12  1  0  0  0  0
 14 15  1  0  0  0  0
 14 36  1  0  0  0  0
 15 17  1  0  0  0  0
 16 18  1  1  0  0  0
 16 26  1  0  0  0  0
 17 23  1  0  0  0  0
 19 20  1  1  0  0  0
 19 28  1  0  0  0  0
 21 22  1  0  0  0  0
 21 23  1  0  0  0  0
 22 24  1  0  0  0  0
 26 27  1  1  0  0  0
 26 29  1  0  0  0  0
 28  2  1  1  0  0  0
 28 31  1  0  0  0  0
 29 30  1  0  0  0  0
 29 33  1  6  0  0  0
 31 32  1  6  0  0  0
 31 35  1  0  0  0  0
 33 34  1  0  0  0  0
 35 36  1  6  0  0  0
M  END
>  <CHROM.1>
-148.00246110,-58.50938612,162.71284820,-70.27676713,-61.09260582,-156.81232300
35.41959762,152.03589718,164.10373943,169.33687209,179.96422112,106.23401364
82.42273735,53.56516332,21.41041638,29.71874987,14.78063681,-0.23587213,1.42115669
2.74450454

>  <Name>
2f4u_lig

>  <RI>
0

>  <Rbt.Current_Directory>
/home/itssahil/PROJECTS/Mol_Feturizer/New_Systems/rnas/2f4u

>  <Rbt.Executable>
rbdock ($Id: //depot/dev/client3/rdock/2013.1/src/exe/rbdock.cxx#4 $)

>  <Rbt.Library>
libRbt.so (2013.1, Build901 2013/11/27)

>  <Rbt.Parameter_File>
/export/apps/rDock/src/rDock_2013.1_src/data/scripts/dock_solv.prm

>  <Rbt.Receptor>
prm/blind_docking_80.prm

>  <SCORE>
2.51793

>  <SCORE.INTER>
3.51454

>  <SCORE.INTER.CONST>
1

>  <SCORE.INTER.POLAR>
-0.0329624

>  <SCORE.INTER.ROT>
14

>  <SCORE.INTER.SOLV>
20.9744

>  <SCORE.INTER.VDW>
-17.4719

>  <SCORE.INTER.norm>
0.0976262

>  <SCORE.INTRA>
-3.53723

>  <SCORE.INTRA.DIHEDRAL>
-7.30625

>  <SCORE.INTRA.DIHEDRAL.0>
26.3805

>  <SCORE.INTRA.POLAR>
0

>  <SCORE.INTRA.POLAR.0>
0

>  <SCORE.INTRA.REPUL>
0

>  <SCORE.INTRA.REPUL.0>
0

>  <SCORE.INTRA.SOLV>
2.14906

>  <SCORE.INTRA.SOLV.lig_0>
-98.5587

>  <SCORE.INTRA.VDW>
-0.958637

>  <SCORE.INTRA.VDW.0>
-2.91167

>  <SCORE.INTRA.norm>
-0.0982565

>  <SCORE.RESTR>
2.54061

>  <SCORE.RESTR.CAVITY>
2.54061

>  <SCORE.RESTR.norm>
0.0705726

>  <SCORE.SYSTEM>
0

>  <SCORE.SYSTEM.CONST>
0

>  <SCORE.SYSTEM.DIHEDRAL>
0

>  <SCORE.SYSTEM.SOLV>
0

>  <SCORE.SYSTEM.norm>
0

>  <SCORE.heavy>
36

>  <SCORE.norm>
0.0699424

>  <RMSD>
31.807

$$$$
2f4u_lig
 OpenBabel11021811433D
libRbt.so/2013.1/901 2013/11/27
 36 37  0  0  0  0  0  0  0  0999 V2000
   20.7177   28.9694   10.7249 C   0  0  2  0  0  0  0  0  0  0  0  0
   20.4236   28.5184   12.0989 O   0  0  0  0  0  0  0  0  0  0  0  0
   21.4623   29.6308   16.1707 C   0  0  2  0  0  0  0  0  0  0  0  0
   22.2717   30.1148   17.3220 N   0  0  0  0  0  0  0  0  0  0  0  0
   20.3821   27.7744    9.7796 C   0  0  2  0  0  0  0  0  0  0  0  0
   18.9775   27.3397    9.8900 N   0  0  0  0  0  0  0  0  0  0  0  0
   22.1140   28.3767   15.4883 C   0  0  0  0  0  0  0  0  0  0  0  0
   21.5561   29.5996   18.8744 C   0  0  0  0  0  0  0  0  0  0  0  0
   22.6192   30.4572   19.4859 C   0  0  1  0  0  0  0  0  0  0  0  0
   22.0953   30.9261   20.8480 C   0  0  0  0  0  0  0  0  0  0  0  0
   22.7499   32.1985   21.4169 C   0  0  0  0  0  0  0  0  0  0  0  0
   22.7022   32.1330   22.8789 N   0  0  0  0  0  0  0  0  0  0  0  0
   23.7796   29.7050   19.7133 O   0  0  0  0  0  0  0  0  0  0  0  0
   20.5755   32.8834   16.8002 C   0  0  0  0  0  0  0  0  0  0  0  0
   21.9003   33.5956   17.0294 C   0  0  0  0  0  0  0  0  0  0  0  0
   21.3405   26.5831   10.1124 C   0  0  1  0  0  0  0  0  0  0  0  0
   22.2004   33.8716   18.4488 N   0  0  0  0  0  0  0  0  0  0  0  0
   21.0666   25.4585    9.2807 O   0  0  0  0  0  0  0  0  0  0  0  0
   21.2973   27.9171   14.2634 C   0  0  2  0  0  0  0  0  0  0  0  0
   21.9273   26.7806   13.6032 N   0  0  0  0  0  0  0  0  0  0  0  0
   22.3843   36.2892   19.0158 C   0  0  0  0  0  0  0  0  0  0  0  0
   22.3815   36.9000   17.5822 C   0  0  0  0  0  0  0  0  0  0  0  0
   21.5257   35.0031   19.1358 C   0  0  0  0  0  0  0  0  0  0  0  0
   23.1814   38.1595   17.5119 N   0  0  0  0  0  0  0  0  0  0  0  0
   20.7123   29.0040   19.1820 O   0  0  0  0  0  0  0  0  0  0  0  0
   22.7928   27.0710    9.9392 C   0  0  2  0  0  0  0  0  0  0  0  0
   23.7484   26.0542   10.2300 O   0  0  0  0  0  0  0  0  0  0  0  0
   21.1752   29.0437   13.2569 C   0  0  2  0  0  0  0  0  0  0  0  0
   23.0702   28.2950   10.8306 C   0  0  2  0  0  0  0  0  0  0  0  0
   22.1193   29.3360   10.5817 O   0  0  0  0  0  0  0  0  0  0  0  0
   20.4750   30.2924   13.9313 C   0  0  2  0  0  0  0  0  0  0  0  0
   20.3871   31.3682   12.9448 O   0  0  0  0  0  0  0  0  0  0  0  0
   24.4571   28.8403   10.6176 C   0  0  0  0  0  0  0  0  0  0  0  0
   25.4006   27.9548   11.0876 O   0  0  0  0  0  0  0  0  0  0  0  0
   21.3336   30.7517   15.1581 C   0  0  1  0  0  0  0  0  0  0  0  0
   20.7757   31.8593   15.8032 O   0  0  0  0  0  0  0  0  0  0  0  0
  1  2  1  1  0  0  0
  1  5  1  0  0  0  0
  1 30  1  0  0  0  0
  3  4  1  1  0  0  0
  3  7  1  0  0  0  0
  3 35  1  0  0  0  0
  5  6  1  1  0  0  0
  5 16  1  0  0  0  0
  7 19  1  0  0  0  0
  8  4  1  0  0  0  0
  8 25  2  0  0  0  0
  9  8  1  1  0  0  0
  9 10  1  0  0  0  0
  9 13  1  0  0  0  0
 10 11  1  0  0  0  0
 11 12  1  0  0  0  0
 14 15  1  0  0  0  0
 14 36  1  0  0  0  0
 15 17  1  0  0  0  0
 16 18  1  6  0  0  0
 16 26  1  0  0  0  0
 17 23  1  0  0  0  0
 19 20  1  6  0  0  0
 19 28  1  0  0  0  0
 21 22  1  0  0  0  0
 21 23  1  0  0  0  0
 22 24  1  0  0  0  0
 26 27  1  1  0  0  0
 26 29  1  0  0  0  0
 28  2  1  6  0  0  0
 28 31  1  0  0  0  0
 29 30  1  0  0  0  0
 29 33  1  6  0  0  0
 31 32  1  6  0  0  0
 31 35  1  0  0  0  0
 33 34  1  0  0  0  0
 35 36  1  1  0  0  0
M  END
>  <CHROM.1>
149.84056600,-102.00860198,153.27472436,-158.08021529,-150.96769950,-137.59051980
52.55735979,-77.49796988,-91.60965713,178.18161402,72.31037361,-145.83070254
-68.37364956,49.49464970,21.90599428,30.23511869,15.00059613,2.18260014,1.51164935
-2.77664126

>  <Name>
2f4u_lig

>  <RI>
0

>  <Rbt.Current_Directory>
/home/itssahil/PROJECTS/Mol_Feturizer/New_Systems/rnas/2f4u

>  <Rbt.Executable>
rbdock ($Id: //depot/dev/client3/rdock/2013.1/src/exe/rbdock.cxx#4 $)

>  <Rbt.Library>
libRbt.so (2013.1, Build901 2013/11/27)

>  <Rbt.Parameter_File>
/export/apps/rDock/src/rDock_2013.1_src/data/scripts/dock_solv.prm

>  <Rbt.Receptor>
prm/blind_docking_80.prm

>  <SCORE>
-2.13625

>  <SCORE.INTER>
-0.843399

>  <SCORE.INTER.CONST>
1

>  <SCORE.INTER.POLAR>
-0.500975

>  <SCORE.INTER.ROT>
14

>  <SCORE.INTER.SOLV>
24.8863

>  <SCORE.INTER.VDW>
-20.1211

>  <SCORE.INTER.norm>
-0.0234278

>  <SCORE.INTRA>
-3.41722

>  <SCORE.INTRA.DIHEDRAL>
-4.97078

>  <SCORE.INTRA.DIHEDRAL.0>
26.3805

>  <SCORE.INTRA.POLAR>
0

>  <SCORE.INTRA.POLAR.0>
0

>  <SCORE.INTRA.REPUL>
0

>  <SCORE.INTRA.REPUL.0>
0

>  <SCORE.INTRA.SOLV>
3.19432

>  <SCORE.INTRA.SOLV.lig_0>
-98.5587

>  <SCORE.INTRA.VDW>
-2.52898

>  <SCORE.INTRA.VDW.0>
-2.91167

>  <SCORE.INTRA.norm>
-0.0949226

>  <SCORE.RESTR>
2.12436

>  <SCORE.RESTR.CAVITY>
2.12436

>  <SCORE.RESTR.norm>
0.0590101

>  <SCORE.SYSTEM>
0

>  <SCORE.SYSTEM.CONST>
0

>  <SCORE.SYSTEM.DIHEDRAL>
0

>  <SCORE.SYSTEM.SOLV>
0

>  <SCORE.SYSTEM.norm>
0

>  <SCORE.heavy>
36

>  <SCORE.norm>
-0.0593403

>  <RMSD>
31.842

$$$$
2f4u_lig
 OpenBabel11021811433D
libRbt.so/2013.1/901 2013/11/27
 36 37  0  0  0  0  0  0  0  0999 V2000
   21.4279   29.1166   10.7848 C   0  0  2  0  0  0  0  0  0  0  0  0
   20.9423   28.5716   12.0675 O   0  0  0  0  0  0  0  0  0  0  0  0
   21.3049   29.8804   16.1967 C   0  0  2  0  0  0  0  0  0  0  0  0
   21.9342   30.2456   17.4949 N   0  0  0  0  0  0  0  0  0  0  0  0
   20.8435   28.2057    9.6610 C   0  0  2  0  0  0  0  0  0  0  0  0
   19.3698   28.1590    9.6764 N   0  0  0  0  0  0  0  0  0  0  0  0
   21.6264   28.3986   15.7913 C   0  0  0  0  0  0  0  0  0  0  0  0
   21.1012   29.4524   18.8604 C   0  0  0  0  0  0  0  0  0  0  0  0
   22.0073   30.2856   19.7116 C   0  0  1  0  0  0  0  0  0  0  0  0
   21.1725   30.8065   20.8869 C   0  0  0  0  0  0  0  0  0  0  0  0
   21.9215   31.6884   21.9031 C   0  0  0  0  0  0  0  0  0  0  0  0
   22.9403   30.8723   22.5664 N   0  0  0  0  0  0  0  0  0  0  0  0
   23.0388   29.4974   20.2398 O   0  0  0  0  0  0  0  0  0  0  0  0
   21.6460   33.3749   16.2539 C   0  0  0  0  0  0  0  0  0  0  0  0
   21.4844   33.0796   17.7376 C   0  0  0  0  0  0  0  0  0  0  0  0
   21.4282   26.7636    9.8251 C   0  0  1  0  0  0  0  0  0  0  0  0
   21.8947   34.1883   18.6227 N   0  0  0  0  0  0  0  0  0  0  0  0
   20.9151   25.8867    8.8255 O   0  0  0  0  0  0  0  0  0  0  0  0
   21.0162   28.0477   14.4191 C   0  0  2  0  0  0  0  0  0  0  0  0
   21.3531   26.6864   14.0223 N   0  0  0  0  0  0  0  0  0  0  0  0
   22.6142   36.5709   18.6977 C   0  0  0  0  0  0  0  0  0  0  0  0
   22.4751   37.9684   18.0225 C   0  0  0  0  0  0  0  0  0  0  0  0
   21.4922   35.5798   18.2920 C   0  0  0  0  0  0  0  0  0  0  0  0
   23.6372   38.8545   18.3321 N   0  0  0  0  0  0  0  0  0  0  0  0
   20.2865   28.7566   18.9759 O   0  0  0  0  0  0  0  0  0  0  0  0
   22.9656   26.8570    9.7568 C   0  0  2  0  0  0  0  0  0  0  0  0
   23.5966   25.5877    9.9062 O   0  0  0  0  0  0  0  0  0  0  0  0
   21.5319   28.9948   13.3540 C   0  0  2  0  0  0  0  0  0  0  0  0
   23.5051   27.8189   10.8307 C   0  0  2  0  0  0  0  0  0  0  0  0
   22.8825   29.1041   10.7265 O   0  0  0  0  0  0  0  0  0  0  0  0
   21.1664   30.4857   13.7388 C   0  0  2  0  0  0  0  0  0  0  0  0
   21.6908   31.3771   12.7051 O   0  0  0  0  0  0  0  0  0  0  0  0
   24.9973   27.9904   10.7305 C   0  0  0  0  0  0  0  0  0  0  0  0
   25.3304   28.6397    9.5632 O   0  0  0  0  0  0  0  0  0  0  0  0
   21.8141   30.8232   15.1243 C   0  0  1  0  0  0  0  0  0  0  0  0
   21.5362   32.1324   15.5279 O   0  0  0  0  0  0  0  0  0  0  0  0
  1  2  1  1  0  0  0
  1  5  1  0  0  0  0
  1 30  1  0  0  0  0
  3  4  1  1  0  0  0
  3  7  1  0  0  0  0
  3 35  1  0  0  0  0
  5  6  1  1  0  0  0
  5 16  1  0  0  0  0
  7 19  1  0  0  0  0
  8  4  1  0  0  0  0
  8 25  2  0  0  0  0
  9  8  1  6  0  0  0
  9 10  1  0  0  0  0
  9 13  1  0  0  0  0
 10 11  1  0  0  0  0
 11 12  1  0  0  0  0
 14 15  1  0  0  0  0
 14 36  1  0  0  0  0
 15 17  1  0  0  0  0
 16 18  1  6  0  0  0
 16 26  1  0  0  0  0
 17 23  1  0  0  0  0
 19 20  1  6  0  0  0
 19 28  1  0  0  0  0
 21 22  1  0  0  0  0
 21 23  1  0  0  0  0
 22 24  1  0  0  0  0
 26 27  1  1  0  0  0
 26 29  1  0  0  0  0
 28  2  1  6  0  0  0
 28 31  1  0  0  0  0
 29 30  1  0  0  0  0
 29 33  1  6  0  0  0
 31 32  1  6  0  0  0
 31 35  1  0  0  0  0
 33 34  1  0  0  0  0
 35 36  1  1  0  0  0
M  END
>  <CHROM.1>
166.26021948,-72.53819414,138.98572527,179.58503607,-65.06864833,165.92786616
-58.40772415,43.80052247,-144.84552013,-174.64760105,162.93343136,-168.37855643
66.81150329,74.95747493,21.98754755,30.28242886,14.95863943,-1.49725754,1.42248575
0.91104251

>  <Name>
2f4u_lig

>  <RI>
0

>  <Rbt.Current_Directory>
/home/itssahil/PROJECTS/Mol_Feturizer/New_Systems/rnas/2f4u

>  <Rbt.Executable>
rbdock ($Id: //depot/dev/client3/rdock/2013.1/src/exe/rbdock.cxx#4 $)

>  <Rbt.Library>
libRbt.so (2013.1, Build901 2013/11/27)

>  <Rbt.Parameter_File>
/export/apps/rDock/src/rDock_2013.1_src/data/scripts/dock_solv.prm

>  <Rbt.Receptor>
prm/blind_docking_80.prm

>  <SCORE>
-7.88007

>  <SCORE.INTER>
-0.931505

>  <SCORE.INTER.CONST>
1

>  <SCORE.INTER.POLAR>
0

>  <SCORE.INTER.ROT>
14

>  <SCORE.INTER.SOLV>
28.3849

>  <SCORE.INTER.VDW>
-23.016

>  <SCORE.INTER.norm>
-0.0258751

>  <SCORE.INTRA>
-8.97514

>  <SCORE.INTRA.DIHEDRAL>
-18.555

>  <SCORE.INTRA.DIHEDRAL.0>
26.3805

>  <SCORE.INTRA.POLAR>
0

>  <SCORE.INTRA.POLAR.0>
0

>  <SCORE.INTRA.REPUL>
0

>  <SCORE.INTRA.REPUL.0>
0

>  <SCORE.INTRA.SOLV>
2.00498

>  <SCORE.INTRA.SOLV.lig_0>
-98.5587

>  <SCORE.INTRA.VDW>
-0.700113

>  <SCORE.INTRA.VDW.0>
-2.91167

>  <SCORE.INTRA.norm>
-0.24931

>  <SCORE.RESTR>
2.02658

>  <SCORE.RESTR.CAVITY>
2.02658

>  <SCORE.RESTR.norm>
0.0562939

>  <SCORE.SYSTEM>
0

>  <SCORE.SYSTEM.CONST>
0

>  <SCORE.SYSTEM.DIHEDRAL>
0

>  <SCORE.SYSTEM.SOLV>
0

>  <SCORE.SYSTEM.norm>
0

>  <SCORE.heavy>
36

>  <SCORE.norm>
-0.218891

>  <RMSD>
31.870

$$$$
2f4u_lig
 OpenBabel11021811433D
libRbt.so/2013.1/901 2013/11/27
 36 37  0  0  0  0  0  0  0  0999 V2000
   21.4369   29.4571   11.0775 C   0  0  2  0  0  0  0  0  0  0  0  0
   21.0033   28.9119   12.3785 O   0  0  0  0  0  0  0  0  0  0  0  0
   21.6784   29.9590   16.5430 C   0  0  2  0  0  0  0  0  0  0  0  0
   22.4054   30.2769   17.8020 N   0  0  0  0  0  0  0  0  0  0  0  0
   21.0209   28.4148    9.9937 C   0  0  2  0  0  0  0  0  0  0  0  0
   19.5699   28.1526    9.9849 N   0  0  0  0  0  0  0  0  0  0  0  0
   22.0492   28.5332   16.0017 C   0  0  0  0  0  0  0  0  0  0  0  0
   21.4821   29.7396   19.2324 C   0  0  0  0  0  0  0  0  0  0  0  0
   22.5544   30.4369   20.0094 C   0  0  1  0  0  0  0  0  0  0  0  0
   22.0321   30.6197   21.4389 C   0  0  0  0  0  0  0  0  0  0  0  0
   21.0934   31.8198   21.6620 C   0  0  0  0  0  0  0  0  0  0  0  0
   19.9103   31.6494   20.8163 N   0  0  0  0  0  0  0  0  0  0  0  0
   23.7039   29.6379   20.0763 O   0  0  0  0  0  0  0  0  0  0  0  0
   21.7407   33.4093   16.8985 C   0  0  0  0  0  0  0  0  0  0  0  0
   21.4244   32.9448   18.3123 C   0  0  0  0  0  0  0  0  0  0  0  0
   21.8054   27.0844   10.2454 C   0  0  1  0  0  0  0  0  0  0  0  0
   21.3856   34.0319   19.3112 N   0  0  0  0  0  0  0  0  0  0  0  0
   21.4516   26.0924    9.2851 O   0  0  0  0  0  0  0  0  0  0  0  0
   21.3332   28.2359   14.6685 C   0  0  2  0  0  0  0  0  0  0  0  0
   21.7130   26.9304   14.1432 N   0  0  0  0  0  0  0  0  0  0  0  0
   22.3953   36.0930   20.2769 C   0  0  0  0  0  0  0  0  0  0  0  0
   21.8783   37.0486   19.1598 C   0  0  0  0  0  0  0  0  0  0  0  0
   22.6552   34.6483   19.7758 C   0  0  0  0  0  0  0  0  0  0  0  0
   22.9211   37.3077   18.1221 N   0  0  0  0  0  0  0  0  0  0  0  0
   20.5555   29.2184   19.4091 O   0  0  0  0  0  0  0  0  0  0  0  0
   23.3139   27.3995   10.1999 C   0  0  2  0  0  0  0  0  0  0  0  0
   24.1194   26.2459   10.4285 O   0  0  0  0  0  0  0  0  0  0  0  0
   21.6862   29.2857   13.6338 C   0  0  2  0  0  0  0  0  0  0  0  0
   23.6794   28.4831   11.2303 C   0  0  2  0  0  0  0  0  0  0  0  0
   22.8788   29.6558   11.0462 O   0  0  0  0  0  0  0  0  0  0  0  0
   21.2690   30.7189   14.1593 C   0  0  2  0  0  0  0  0  0  0  0  0
   21.6371   31.7118   13.1509 O   0  0  0  0  0  0  0  0  0  0  0  0
   25.1326   28.8670   11.1481 C   0  0  0  0  0  0  0  0  0  0  0  0
   25.4146   29.4269    9.9225 O   0  0  0  0  0  0  0  0  0  0  0  0
   22.0244   31.0046   15.5013 C   0  0  1  0  0  0  0  0  0  0  0  0
   21.7071   32.2617   16.0241 O   0  0  0  0  0  0  0  0  0  0  0  0
  1  2  1  1  0  0  0
  1  5  1  0  0  0  0
  1 30  1  0  0  0  0
  3  4  1  1  0  0  0
  3  7  1  0  0  0  0
  3 35  1  0  0  0  0
  5  6  1  1  0  0  0
  5 16  1  0  0  0  0
  7 19  1  0  0  0  0
  8  4  1  0  0  0  0
  8 25  2  0  0  0  0
  9  8  1  6  0  0  0
  9 10  1  0  0  0  0
  9 13  1  0  0  0  0
 10 11  1  0  0  0  0
 11 12  1  0  0  0  0
 14 15  1  0  0  0  0
 14 36  1  0  0  0  0
 15 17  1  0  0  0  0
 16 18  1  6  0  0  0
 16 26  1  0  0  0  0
 17 23  1  0  0  0  0
 19 20  1  6  0  0  0
 19 28  1  0  0  0  0
 21 22  1  0  0  0  0
 21 23  1  0  0  0  0
 22 24  1  0  0  0  0
 26 27  1  1  0  0  0
 26 29  1  0  0  0  0
 28  2  1  6  0  0  0
 28 31  1  0  0  0  0
 29 30  1  0  0  0  0
 29 33  1  6  0  0  0
 31 32  1  6  0  0  0
 31 35  1  0  0  0  0
 33 34  1  0  0  0  0
 35 36  1  1  0  0  0
M  END
>  <CHROM.1>
153.67133027,-89.43940529,164.30307710,-81.48582374,60.83361681,-178.28442888
-58.26312815,-74.18859533,154.78326082,-67.42817723,-63.17224968,-161.08914181
63.25157472,62.46340484,22.07668387,30.42569715,15.32632810,-1.22811271,1.38895121
0.70907674

>  <Name>
2f4u_lig

>  <RI>
0

>  <Rbt.Current_Directory>
/home/itssahil/PROJECTS/Mol_Feturizer/New_Systems/rnas/2f4u

>  <Rbt.Executable>
rbdock ($Id: //depot/dev/client3/rdock/2013.1/src/exe/rbdock.cxx#4 $)

>  <Rbt.Library>
libRbt.so (2013.1, Build901 2013/11/27)

>  <Rbt.Parameter_File>
/export/apps/rDock/src/rDock_2013.1_src/data/scripts/dock_solv.prm

>  <Rbt.Receptor>
prm/blind_docking_100.prm

>  <SCORE>
-8.88371

>  <SCORE.INTER>
-7.21405

>  <SCORE.INTER.CONST>
1

>  <SCORE.INTER.POLAR>
-0.352086

>  <SCORE.INTER.ROT>
14

>  <SCORE.INTER.SOLV>
20.5256

>  <SCORE.INTER.VDW>
-23.411

>  <SCORE.INTER.norm>
-0.20039

>  <SCORE.INTRA>
-6.8721

>  <SCORE.INTRA.DIHEDRAL>
-17.8281

>  <SCORE.INTRA.DIHEDRAL.0>
26.3805

>  <SCORE.INTRA.POLAR>
0

>  <SCORE.INTRA.POLAR.0>
0

>  <SCORE.INTRA.REPUL>
0

>  <SCORE.INTRA.REPUL.0>
0

>  <SCORE.INTRA.SOLV>
8.88655

>  <SCORE.INTRA.SOLV.lig_0>
-98.5587

>  <SCORE.INTRA.VDW>
-2.40134

>  <SCORE.INTRA.VDW.0>
-2.91167

>  <SCORE.INTRA.norm>
-0.190892

>  <SCORE.RESTR>
5.20244

>  <SCORE.RESTR.CAVITY>
5.20244

>  <SCORE.RESTR.norm>
0.144512

>  <SCORE.SYSTEM>
0

>  <SCORE.SYSTEM.CONST>
0

>  <SCORE.SYSTEM.DIHEDRAL>
0

>  <SCORE.SYSTEM.SOLV>
0

>  <SCORE.SYSTEM.norm>
0

>  <SCORE.heavy>
36

>  <SCORE.norm>
-0.24677

>  <RMSD>
31.967

$$$$
2f4u_lig
 OpenBabel11021811433D
libRbt.so/2013.1/901 2013/11/27
 36 37  0  0  0  0  0  0  0  0999 V2000
   22.5657   32.0672   18.4516 C   0  0  2  0  0  0  0  0  0  0  0  0
   21.4686   31.7538   17.5157 O   0  0  0  0  0  0  0  0  0  0  0  0
   21.1155   29.7611   13.6686 C   0  0  2  0  0  0  0  0  0  0  0  0
   21.3847   29.4139   12.2467 N   0  0  0  0  0  0  0  0  0  0  0  0
   22.0341   31.7569   19.8852 C   0  0  2  0  0  0  0  0  0  0  0  0
   21.6076   30.3541   20.0419 N   0  0  0  0  0  0  0  0  0  0  0  0
   20.7150   31.2697   13.8329 C   0  0  0  0  0  0  0  0  0  0  0  0
   19.9099   28.8127   11.4401 C   0  0  0  0  0  0  0  0  0  0  0  0
   20.8250   28.5329   10.2894 C   0  0  1  0  0  0  0  0  0  0  0  0
   19.9762   27.9069    9.1772 C   0  0  0  0  0  0  0  0  0  0  0  0
   19.2568   26.5946    9.5400 C   0  0  0  0  0  0  0  0  0  0  0  0
   18.3908   26.2138    8.4224 N   0  0  0  0  0  0  0  0  0  0  0  0
   21.3609   29.7288    9.7926 O   0  0  0  0  0  0  0  0  0  0  0  0
   22.5649   26.6959   14.2388 C   0  0  0  0  0  0  0  0  0  0  0  0
   21.7066   26.3452   13.0326 C   0  0  0  0  0  0  0  0  0  0  0  0
   20.8409   32.7191   20.2003 C   0  0  1  0  0  0  0  0  0  0  0  0
   22.0880   25.0839   12.3656 N   0  0  0  0  0  0  0  0  0  0  0  0
   20.3105   32.4681   21.4992 O   0  0  0  0  0  0  0  0  0  0  0  0
   20.4923   31.6325   15.3152 C   0  0  2  0  0  0  0  0  0  0  0  0
   20.1648   33.0442   15.4714 N   0  0  0  0  0  0  0  0  0  0  0  0
   21.8748   23.9421   10.1632 C   0  0  0  0  0  0  0  0  0  0  0  0
   22.5497   25.0986    9.3662 C   0  0  0  0  0  0  0  0  0  0  0  0
   21.1331   24.4264   11.4364 C   0  0  0  0  0  0  0  0  0  0  0  0
   23.1618   24.6140    8.0927 N   0  0  0  0  0  0  0  0  0  0  0  0
   18.8769   28.6713   11.7129 O   0  0  0  0  0  0  0  0  0  0  0  0
   21.3454   34.1701   20.0689 C   0  0  2  0  0  0  0  0  0  0  0  0
   20.3233   35.1288   20.3295 O   0  0  0  0  0  0  0  0  0  0  0  0
   21.7410   31.3420   16.1235 C   0  0  2  0  0  0  0  0  0  0  0  0
   21.9299   34.4230   18.6675 C   0  0  2  0  0  0  0  0  0  0  0  0
   22.9510   33.4680   18.3584 O   0  0  0  0  0  0  0  0  0  0  0  0
   22.1184   29.8103   15.9965 C   0  0  2  0  0  0  0  0  0  0  0  0
   23.3346   29.5630   16.7698 O   0  0  0  0  0  0  0  0  0  0  0  0
   22.5042   35.8088   18.5417 C   0  0  0  0  0  0  0  0  0  0  0  0
   21.5097   36.7543   18.6513 O   0  0  0  0  0  0  0  0  0  0  0  0
   22.3593   29.4729   14.4861 C   0  0  1  0  0  0  0  0  0  0  0  0
   22.7034   28.1313   14.2971 O   0  0  0  0  0  0  0  0  0  0  0  0
  1  2  1  6  0  0  0
  1  5  1  0  0  0  0
  1 30  1  0  0  0  0
  3  4  1  6  0  0  0
  3  7  1  0  0  0  0
  3 35  1  0  0  0  0
  5  6  1  6  0  0  0
  5 16  1  0  0  0  0
  7 19  1  0  0  0  0
  8  4  1  0  0  0  0
  8 25  2  0  0  0  0
  9  8  1  1  0  0  0
  9 10  1  0  0  0  0
  9 13  1  0  0  0  0
 10 11  1  0  0  0  0
 11 12  1  0  0  0  0
 14 15  1  0  0  0  0
 14 36  1  0  0  0  0
 15 17  1  0  0  0  0
 16 18  1  1  0  0  0
 16 26  1  0  0  0  0
 17 23  1  0  0  0  0
 19 20  1  6  0  0  0
 19 28  1  0  0  0  0
 21 22  1  0  0  0  0
 21 23  1  0  0  0  0
 22 24  1  0  0  0  0
 26 27  1  6  0  0  0
 26 29  1  0  0  0  0
 28  2  1  1  0  0  0
 28 31  1  0  0  0  0
 29 30  1  0  0  0  0
 29 33  1  1  0  0  0
 31 32  1  1  0  0  0
 31 35  1  0  0  0  0
 33 34  1  0  0  0  0
 35 36  1  1  0  0  0
M  END
>  <CHROM.1>
-152.24132859,-91.75595776,179.15028994,-59.50231604,174.21740982,145.51973626
71.48665833,162.91045457,136.37080492,-175.50599504,-60.62796146,-157.86467095
-65.23442491,-52.48633670,21.36983005,29.95164086,14.74325181,-1.48321144
1.13763451,-2.33480653

>  <Name>
2f4u_lig

>  <RI>
0

>  <Rbt.Current_Directory>
/home/itssahil/PROJECTS/Mol_Feturizer/New_Systems/rnas/2f4u

>  <Rbt.Executable>
rbdock ($Id: //depot/dev/client3/rdock/2013.1/src/exe/rbdock.cxx#4 $)

>  <Rbt.Library>
libRbt.so (2013.1, Build901 2013/11/27)

>  <Rbt.Parameter_File>
/export/apps/rDock/src/rDock_2013.1_src/data/scripts/dock_solv.prm

>  <Rbt.Receptor>
prm/blind_docking_100.prm

>  <SCORE>
2.66992

>  <SCORE.INTER>
3.15761

>  <SCORE.INTER.CONST>
1

>  <SCORE.INTER.POLAR>
-0.10893

>  <SCORE.INTER.ROT>
14

>  <SCORE.INTER.SOLV>
15.3612

>  <SCORE.INTER.VDW>
-15.5856

>  <SCORE.INTER.norm>
0.0877115

>  <SCORE.INTRA>
-7.49807

>  <SCORE.INTRA.DIHEDRAL>
-13.7402

>  <SCORE.INTRA.DIHEDRAL.0>
26.3805

>  <SCORE.INTRA.POLAR>
0

>  <SCORE.INTRA.POLAR.0>
0

>  <SCORE.INTRA.REPUL>
0

>  <SCORE.INTRA.REPUL.0>
0

>  <SCORE.INTRA.SOLV>
2.07647

>  <SCORE.INTRA.SOLV.lig_0>
-98.5587

>  <SCORE.INTRA.VDW>
-1.66622

>  <SCORE.INTRA.VDW.0>
-2.91167

>  <SCORE.INTRA.norm>
-0.20828

>  <SCORE.RESTR>
7.01037

>  <SCORE.RESTR.CAVITY>
7.01037

>  <SCORE.RESTR.norm>
0.194732

>  <SCORE.SYSTEM>
0

>  <SCORE.SYSTEM.CONST>
0

>  <SCORE.SYSTEM.DIHEDRAL>
0

>  <SCORE.SYSTEM.SOLV>
0

>  <SCORE.SYSTEM.norm>
0

>  <SCORE.heavy>
36

>  <SCORE.norm>
0.0741643

>  <RMSD>
31.991

$$$$
2f4u_lig
 OpenBabel11021811433D
libRbt.so/2013.1/901 2013/11/27
 36 37  0  0  0  0  0  0  0  0999 V2000
   21.0228   29.3538   11.0666 C   0  0  2  0  0  0  0  0  0  0  0  0
   20.7629   28.7235   12.3754 O   0  0  0  0  0  0  0  0  0  0  0  0
   21.6980   29.9543   16.4382 C   0  0  2  0  0  0  0  0  0  0  0  0
   22.5013   30.2815   17.6474 N   0  0  0  0  0  0  0  0  0  0  0  0
   20.5561   28.3371    9.9791 C   0  0  2  0  0  0  0  0  0  0  0  0
   19.1305   27.9830   10.1068 N   0  0  0  0  0  0  0  0  0  0  0  0
   21.9222   28.4715   15.9751 C   0  0  0  0  0  0  0  0  0  0  0  0
   21.6862   29.7210   19.1336 C   0  0  0  0  0  0  0  0  0  0  0  0
   22.7944   30.4360   19.8408 C   0  0  1  0  0  0  0  0  0  0  0  0
   22.3493   30.6375   21.2936 C   0  0  0  0  0  0  0  0  0  0  0  0
   21.2439   31.6860   21.5175 C   0  0  0  0  0  0  0  0  0  0  0  0
   21.5984   32.9011   20.7814 N   0  0  0  0  0  0  0  0  0  0  0  0
   23.9511   29.6448   19.8569 O   0  0  0  0  0  0  0  0  0  0  0  0
   21.2477   33.3621   16.3457 C   0  0  0  0  0  0  0  0  0  0  0  0
   21.7446   33.5375   17.7729 C   0  0  0  0  0  0  0  0  0  0  0  0
   21.4401   27.0497   10.0792 C   0  0  1  0  0  0  0  0  0  0  0  0
   21.5260   34.8888   18.3273 N   0  0  0  0  0  0  0  0  0  0  0  0
   21.0454   26.0816    9.1105 O   0  0  0  0  0  0  0  0  0  0  0  0
   21.1285   28.1593   14.6902 C   0  0  2  0  0  0  0  0  0  0  0  0
   21.3725   26.7963   14.2351 N   0  0  0  0  0  0  0  0  0  0  0  0
   22.6952   37.0227   18.8560 C   0  0  0  0  0  0  0  0  0  0  0  0
   23.2003   38.3932   18.3129 C   0  0  0  0  0  0  0  0  0  0  0  0
   22.2412   36.0496   17.7368 C   0  0  0  0  0  0  0  0  0  0  0  0
   24.4091   38.2386   17.4491 N   0  0  0  0  0  0  0  0  0  0  0  0
   20.7837   29.1811   19.3691 O   0  0  0  0  0  0  0  0  0  0  0  0
   22.9140   27.4626    9.8944 C   0  0  2  0  0  0  0  0  0  0  0  0
   23.8059   26.3539    9.9785 O   0  0  0  0  0  0  0  0  0  0  0  0
   21.5270   29.1100   13.5790 C   0  0  2  0  0  0  0  0  0  0  0  0
   23.3224   28.5196   10.9362 C   0  0  2  0  0  0  0  0  0  0  0  0
   22.4389   29.6457   10.8968 O   0  0  0  0  0  0  0  0  0  0  0  0
   21.2567   30.6034   14.0276 C   0  0  2  0  0  0  0  0  0  0  0  0
   21.6665   31.4977   12.9457 O   0  0  0  0  0  0  0  0  0  0  0  0
   24.7334   28.9993   10.7242 C   0  0  0  0  0  0  0  0  0  0  0  0
   25.6308   27.9906   10.9933 O   0  0  0  0  0  0  0  0  0  0  0  0
   22.0889   30.9010   15.3206 C   0  0  1  0  0  0  0  0  0  0  0  0
   21.9028   32.2103   15.7740 O   0  0  0  0  0  0  0  0  0  0  0  0
  1  2  1  1  0  0  0
  1  5  1  0  0  0  0
  1 30  1  0  0  0  0
  3  4  1  1  0  0  0
  3  7  1  0  0  0  0
  3 35  1  0  0  0  0
  5  6  1  1  0  0  0
  5 16  1  0  0  0  0
  7 19  1  0  0  0  0
  8  4  1  0  0  0  0
  8 25  2  0  0  0  0
  9  8  1  6  0  0  0
  9 10  1  0  0  0  0
  9 13  1  0  0  0  0
 10 11  1  0  0  0  0
 11 12  1  0  0  0  0
 14 15  1  0  0  0  0
 14 36  1  0  0  0  0
 15 17  1  0  0  0  0
 16 18  1  6  0  0  0
 16 26  1  0  0  0  0
 17 23  1  0  0  0  0
 19 20  1  6  0  0  0
 19 28  1  0  0  0  0
 21 22  1  0  0  0  0
 21 23  1  0  0  0  0
 22 24  1  0  0  0  0
 26 27  1  1  0  0  0
 26 29  1  0  0  0  0
 28  2  1  6  0  0  0
 28 31  1  0  0  0  0
 29 30  1  0  0  0  0
 29 33  1  6  0  0  0
 31 32  1  6  0  0  0
 31 35  1  0  0  0  0
 33 34  1  0  0  0  0
 35 36  1  1  0  0  0
M  END
>  <CHROM.1>
155.38362058,-82.07543406,162.77744160,-71.95386246,-47.50544624,160.67930326
102.72977757,-65.58001780,-140.68127473,-62.57159648,-168.64713704,-173.16416872
-67.82328584,-52.65100755,22.11311559,30.54282085,15.06085013,-1.72136038
1.41396299,1.08933657

>  <Name>
2f4u_lig

>  <RI>
0

>  <Rbt.Current_Directory>
/home/itssahil/PROJECTS/Mol_Feturizer/New_Systems/rnas/2f4u

>  <Rbt.Executable>
rbdock ($Id: //depot/dev/client3/rdock/2013.1/src/exe/rbdock.cxx#4 $)

>  <Rbt.Library>
libRbt.so (2013.1, Build901 2013/11/27)

>  <Rbt.Parameter_File>
/export/apps/rDock/src/rDock_2013.1_src/data/scripts/dock_solv.prm

>  <Rbt.Receptor>
prm/blind_docking_80.prm

>  <SCORE>
-13.4081

>  <SCORE.INTER>
-10.1939

>  <SCORE.INTER.CONST>
1

>  <SCORE.INTER.POLAR>
-0.48556

>  <SCORE.INTER.ROT>
14

>  <SCORE.INTER.SOLV>
25.5529

>  <SCORE.INTER.VDW>
-26.6284

>  <SCORE.INTER.norm>
-0.283164

>  <SCORE.INTRA>
-4.79155

>  <SCORE.INTRA.DIHEDRAL>
-12.076

>  <SCORE.INTRA.DIHEDRAL.0>
26.3805

>  <SCORE.INTRA.POLAR>
0

>  <SCORE.INTRA.POLAR.0>
0

>  <SCORE.INTRA.REPUL>
0.00487468

>  <SCORE.INTRA.REPUL.0>
0

>  <SCORE.INTRA.SOLV>
4.79747

>  <SCORE.INTRA.SOLV.lig_0>
-98.5587

>  <SCORE.INTRA.VDW>
-1.17668

>  <SCORE.INTRA.VDW.0>
-2.91167

>  <SCORE.INTRA.norm>
-0.133099

>  <SCORE.RESTR>
1.57737

>  <SCORE.RESTR.CAVITY>
1.57737

>  <SCORE.RESTR.norm>
0.0438159

>  <SCORE.SYSTEM>
0

>  <SCORE.SYSTEM.CONST>
0

>  <SCORE.SYSTEM.DIHEDRAL>
0

>  <SCORE.SYSTEM.SOLV>
0

>  <SCORE.SYSTEM.norm>
0

>  <SCORE.heavy>
36

>  <SCORE.norm>
-0.372446

>  <RMSD>
32.015

$$$$
2f4u_lig
 OpenBabel11021811433D
libRbt.so/2013.1/901 2013/11/27
 36 37  0  0  0  0  0  0  0  0999 V2000
   22.6257   32.1851   18.7133 C   0  0  2  0  0  0  0  0  0  0  0  0
   21.5646   31.7837   17.7694 O   0  0  0  0  0  0  0  0  0  0  0  0
   21.2819   29.9821   13.8236 C   0  0  2  0  0  0  0  0  0  0  0  0
   21.5958   29.6838   12.3997 N   0  0  0  0  0  0  0  0  0  0  0  0
   22.0586   31.9565   20.1486 C   0  0  2  0  0  0  0  0  0  0  0  0
   21.6600   30.5568   20.3858 N   0  0  0  0  0  0  0  0  0  0  0  0
   20.9507   31.5008   14.0400 C   0  0  0  0  0  0  0  0  0  0  0  0
   20.1255   29.2197   11.4995 C   0  0  0  0  0  0  0  0  0  0  0  0
   21.0747   28.9332   10.3784 C   0  0  1  0  0  0  0  0  0  0  0  0
   20.2553   28.3231    9.2357 C   0  0  0  0  0  0  0  0  0  0  0  0
   19.4763   27.0399    9.5793 C   0  0  0  0  0  0  0  0  0  0  0  0
   18.8350   26.5438    8.3601 N   0  0  0  0  0  0  0  0  0  0  0  0
   21.6419   30.1243    9.9053 O   0  0  0  0  0  0  0  0  0  0  0  0
   22.5476   26.8245   14.3052 C   0  0  0  0  0  0  0  0  0  0  0  0
   21.7704   26.5756   13.0212 C   0  0  0  0  0  0  0  0  0  0  0  0
   20.8348   32.9073   20.3651 C   0  0  1  0  0  0  0  0  0  0  0  0
   21.5865   25.1474   12.6932 N   0  0  0  0  0  0  0  0  0  0  0  0
   20.2716   32.7289   21.6622 O   0  0  0  0  0  0  0  0  0  0  0  0
   20.6813   31.8097   15.5268 C   0  0  2  0  0  0  0  0  0  0  0  0
   20.4185   33.2283   15.7337 N   0  0  0  0  0  0  0  0  0  0  0  0
   21.5902   23.4623   10.8601 C   0  0  0  0  0  0  0  0  0  0  0  0
   21.4584   23.3120    9.3147 C   0  0  0  0  0  0  0  0  0  0  0  0
   20.9502   24.7653   11.4060 C   0  0  0  0  0  0  0  0  0  0  0  0
   20.0350   23.3848    8.8675 N   0  0  0  0  0  0  0  0  0  0  0  0
   19.0738   29.1348   11.7188 O   0  0  0  0  0  0  0  0  0  0  0  0
   21.3095   34.3586   20.1521 C   0  0  2  0  0  0  0  0  0  0  0  0
   20.2583   35.3066   20.3194 O   0  0  0  0  0  0  0  0  0  0  0  0
   21.8771   31.4194   16.3724 C   0  0  2  0  0  0  0  0  0  0  0  0
   21.9297   34.5334   18.7542 C   0  0  2  0  0  0  0  0  0  0  0  0
   22.9813   33.5859   18.5382 O   0  0  0  0  0  0  0  0  0  0  0  0
   22.1825   29.8773   16.1911 C   0  0  2  0  0  0  0  0  0  0  0  0
   23.3494   29.5334   17.0024 O   0  0  0  0  0  0  0  0  0  0  0  0
   22.4755   35.9218   18.5530 C   0  0  0  0  0  0  0  0  0  0  0  0
   23.2501   36.2955   19.6280 O   0  0  0  0  0  0  0  0  0  0  0  0
   22.4725   29.5941   14.6782 C   0  0  1  0  0  0  0  0  0  0  0  0
   22.7569   28.2458   14.4423 O   0  0  0  0  0  0  0  0  0  0  0  0
  1  2  1  6  0  0  0
  1  5  1  0  0  0  0
  1 30  1  0  0  0  0
  3  4  1  6  0  0  0
  3  7  1  0  0  0  0
  3 35  1  0  0  0  0
  5  6  1  6  0  0  0
  5 16  1  0  0  0  0
  7 19  1  0  0  0  0
  8  4  1  0  0  0  0
  8 25  2  0  0  0  0
  9  8  1  1  0  0  0
  9 10  1  0  0  0  0
  9 13  1  0  0  0  0
 10 11  1  0  0  0  0
 11 12  1  0  0  0  0
 14 15  1  0  0  0  0
 14 36  1  0  0  0  0
 15 17  1  0  0  0  0
 16 18  1  1  0  0  0
 16 26  1  0  0  0  0
 17 23  1  0  0  0  0
 19 20  1  6  0  0  0
 19 28  1  0  0  0  0
 21 22  1  0  0  0  0
 21 23  1  0  0  0  0
 22 24  1  0  0  0  0
 26 27  1  6  0  0  0
 26 29  1  0  0  0  0
 28  2  1  1  0  0  0
 28 31  1  0  0  0  0
 29 30  1  0  0  0  0
 29 33  1  1  0  0  0
 31 32  1  1  0  0  0
 31 35  1  0  0  0  0
 33 34  1  0  0  0  0
 35 36  1  1  0  0  0
M  END
>  <CHROM.1>
-158.54020897,-90.90207237,175.18054492,-57.87442529,-175.93623042,174.94228633
72.68677477,-174.62877607,145.06661850,-56.04414183,-155.39263002,-149.05675692
47.98925498,-51.62321724,21.37644276,30.02771625,14.93580074,-1.25273717
1.29337135,-2.57761860

>  <Name>
2f4u_lig

>  <RI>
0

>  <Rbt.Current_Directory>
/home/itssahil/PROJECTS/Mol_Feturizer/New_Systems/rnas/2f4u

>  <Rbt.Executable>
rbdock ($Id: //depot/dev/client3/rdock/2013.1/src/exe/rbdock.cxx#4 $)

>  <Rbt.Library>
libRbt.so (2013.1, Build901 2013/11/27)

>  <Rbt.Parameter_File>
/export/apps/rDock/src/rDock_2013.1_src/data/scripts/dock_solv.prm

>  <Rbt.Receptor>
prm/blind_docking_80.prm

>  <SCORE>
2.62366

>  <SCORE.INTER>
4.51559

>  <SCORE.INTER.CONST>
1

>  <SCORE.INTER.POLAR>
-0.13865

>  <SCORE.INTER.ROT>
14

>  <SCORE.INTER.SOLV>
19.803

>  <SCORE.INTER.VDW>
-16.0618

>  <SCORE.INTER.norm>
0.125433

>  <SCORE.INTRA>
-6.45789

>  <SCORE.INTRA.DIHEDRAL>
-14.5087

>  <SCORE.INTRA.DIHEDRAL.0>
26.3805

>  <SCORE.INTRA.POLAR>
0

>  <SCORE.INTRA.POLAR.0>
0

>  <SCORE.INTRA.REPUL>
0

>  <SCORE.INTRA.REPUL.0>
0

>  <SCORE.INTRA.SOLV>
4.77542

>  <SCORE.INTRA.SOLV.lig_0>
-98.5587

>  <SCORE.INTRA.VDW>
-1.59125

>  <SCORE.INTRA.VDW.0>
-2.91167

>  <SCORE.INTRA.norm>
-0.179386

>  <SCORE.RESTR>
4.56596

>  <SCORE.RESTR.CAVITY>
4.56596

>  <SCORE.RESTR.norm>
0.126832

>  <SCORE.SYSTEM>
0

>  <SCORE.SYSTEM.CONST>
0

>  <SCORE.SYSTEM.DIHEDRAL>
0

>  <SCORE.SYSTEM.SOLV>
0

>  <SCORE.SYSTEM.norm>
0

>  <SCORE.heavy>
36

>  <SCORE.norm>
0.0728793

>  <RMSD>
32.084

$$$$
2f4u_lig
 OpenBabel11021811433D
libRbt.so/2013.1/901 2013/11/27
 36 37  0  0  0  0  0  0  0  0999 V2000
   20.8216   26.9490   12.0515 C   0  0  2  0  0  0  0  0  0  0  0  0
   20.6811   28.3644   12.4452 O   0  0  0  0  0  0  0  0  0  0  0  0
   21.6316   29.9887   16.3635 C   0  0  2  0  0  0  0  0  0  0  0  0
   22.4399   30.4959   17.5055 N   0  0  0  0  0  0  0  0  0  0  0  0
   22.2341   26.8017   11.4056 C   0  0  2  0  0  0  0  0  0  0  0  0
   23.3214   27.1923   12.3219 N   0  0  0  0  0  0  0  0  0  0  0  0
   22.0151   28.5135   15.9897 C   0  0  0  0  0  0  0  0  0  0  0  0
   21.8263   29.8658   19.0592 C   0  0  0  0  0  0  0  0  0  0  0  0
   22.8369   30.7862   19.6686 C   0  0  1  0  0  0  0  0  0  0  0  0
   22.0656   31.9450   20.3102 C   0  0  0  0  0  0  0  0  0  0  0  0
   21.0980   31.5605   21.4447 C   0  0  0  0  0  0  0  0  0  0  0  0
   20.0504   32.5800   21.5290 N   0  0  0  0  0  0  0  0  0  0  0  0
   23.5410   30.1293   20.6870 O   0  0  0  0  0  0  0  0  0  0  0  0
   20.7373   33.3205   15.9820 C   0  0  0  0  0  0  0  0  0  0  0  0
   21.6743   34.3815   16.5397 C   0  0  0  0  0  0  0  0  0  0  0  0
   22.2883   27.6720   10.1063 C   0  0  1  0  0  0  0  0  0  0  0  0
   22.0686   34.1610   17.9458 N   0  0  0  0  0  0  0  0  0  0  0  0
   23.5664   27.5803    9.4821 O   0  0  0  0  0  0  0  0  0  0  0  0
   21.2113   28.0168   14.7707 C   0  0  2  0  0  0  0  0  0  0  0  0
   21.6002   26.6631   14.3959 N   0  0  0  0  0  0  0  0  0  0  0  0
   21.3632   36.4537   18.6135 C   0  0  0  0  0  0  0  0  0  0  0  0
   21.4827   37.5896   19.6735 C   0  0  0  0  0  0  0  0  0  0  0  0
   22.4095   35.3247   18.8043 C   0  0  0  0  0  0  0  0  0  0  0  0
   21.3956   37.0614   21.0680 N   0  0  0  0  0  0  0  0  0  0  0  0
   21.0462   29.1907   19.3709 O   0  0  0  0  0  0  0  0  0  0  0  0
   21.1653   27.1977    9.1623 C   0  0  2  0  0  0  0  0  0  0  0  0
   21.1252   27.9398    7.9460 O   0  0  0  0  0  0  0  0  0  0  0  0
   21.4430   28.9251   13.5797 C   0  0  2  0  0  0  0  0  0  0  0  0
   19.7931   27.2868    9.8540 C   0  0  2  0  0  0  0  0  0  0  0  0
   19.7956   26.5671   11.0918 O   0  0  0  0  0  0  0  0  0  0  0  0
   21.0118   30.4044   13.9407 C   0  0  2  0  0  0  0  0  0  0  0  0
   21.2628   31.2602   12.7820 O   0  0  0  0  0  0  0  0  0  0  0  0
   18.6898   26.7514    8.9810 C   0  0  0  0  0  0  0  0  0  0  0  0
   18.9161   25.4284    8.6754 O   0  0  0  0  0  0  0  0  0  0  0  0
   21.8560   30.8917   15.1667 C   0  0  1  0  0  0  0  0  0  0  0  0
   21.5310   32.1989   15.5405 O   0  0  0  0  0  0  0  0  0  0  0  0
  1  2  1  6  0  0  0
  1  5  1  0  0  0  0
  1 30  1  0  0  0  0
  3  4  1  1  0  0  0
  3  7  1  0  0  0  0
  3 35  1  0  0  0  0
  5  6  1  1  0  0  0
  5 16  1  0  0  0  0
  7 19  1  0  0  0  0
  8  4  1  0  0  0  0
  8 25  2  0  0  0  0
  9  8  1  1  0  0  0
  9 10  1  0  0  0  0
  9 13  1  0  0  0  0
 10 11  1  0  0  0  0
 11 12  1  0  0  0  0
 14 15  1  0  0  0  0
 14 36  1  0  0  0  0
 15 17  1  0  0  0  0
 16 18  1  6  0  0  0
 16 26  1  0  0  0  0
 17 23  1  0  0  0  0
 19 20  1  6  0  0  0
 19 28  1  0  0  0  0
 21 22  1  0  0  0  0
 21 23  1  0  0  0  0
 22 24  1  0  0  0  0
 26 27  1  6  0  0  0
 26 29  1  0  0  0  0
 28  2  1  6  0  0  0
 28 31  1  0  0  0  0
 29 30  1  0  0  0  0
 29 33  1  6  0  0  0
 31 32  1  6  0  0  0
 31 35  1  0  0  0  0
 33 34  1  0  0  0  0
 35 36  1  1  0  0  0
M  END
>  <CHROM.1>
-71.28834476,-78.40405069,108.28547058,61.76865559,-154.77013941,-83.32085248
159.33363033,-151.50120770,45.09400850,-55.70980322,168.64516387,-51.74629974
60.18895137,-62.94430167,21.43599751,30.19093027,15.07218507,-2.16417474
-1.44450735,0.36953033

>  <Name>
2f4u_lig

>  <RI>
0

>  <Rbt.Current_Directory>
/home/itssahil/PROJECTS/Mol_Feturizer/New_Systems/rnas/2f4u

>  <Rbt.Executable>
rbdock ($Id: //depot/dev/client3/rdock/2013.1/src/exe/rbdock.cxx#4 $)

>  <Rbt.Library>
libRbt.so (2013.1, Build901 2013/11/27)

>  <Rbt.Parameter_File>
/export/apps/rDock/src/rDock_2013.1_src/data/scripts/dock_solv.prm

>  <Rbt.Receptor>
prm/blind_docking_100.prm

>  <SCORE>
7.68517

>  <SCORE.INTER>
4.12662

>  <SCORE.INTER.CONST>
1

>  <SCORE.INTER.POLAR>
0

>  <SCORE.INTER.ROT>
14

>  <SCORE.INTER.SOLV>
20.6961

>  <SCORE.INTER.VDW>
-17.0809

>  <SCORE.INTER.norm>
0.114628

>  <SCORE.INTRA>
-1.45011

>  <SCORE.INTRA.DIHEDRAL>
-15.6547

>  <SCORE.INTRA.DIHEDRAL.0>
26.3805

>  <SCORE.INTRA.POLAR>
0

>  <SCORE.INTRA.POLAR.0>
0

>  <SCORE.INTRA.REPUL>
0

>  <SCORE.INTRA.REPUL.0>
0

>  <SCORE.INTRA.SOLV>
7.35475

>  <SCORE.INTRA.SOLV.lig_0>
-98.5587

>  <SCORE.INTRA.VDW>
2.69988

>  <SCORE.INTRA.VDW.0>
-2.91167

>  <SCORE.INTRA.norm>
-0.0402809

>  <SCORE.RESTR>
5.00866

>  <SCORE.RESTR.CAVITY>
5.00866

>  <SCORE.RESTR.norm>
0.13913

>  <SCORE.SYSTEM>
0

>  <SCORE.SYSTEM.CONST>
0

>  <SCORE.SYSTEM.DIHEDRAL>
0

>  <SCORE.SYSTEM.SOLV>
0

>  <SCORE.SYSTEM.norm>
0

>  <SCORE.heavy>
36

>  <SCORE.norm>
0.213477

>  <RMSD>
32.159

$$$$
2f4u_lig
 OpenBabel11021811433D
libRbt.so/2013.1/901 2013/11/27
 36 37  0  0  0  0  0  0  0  0999 V2000
   21.7253   27.2713   11.7222 C   0  0  2  0  0  0  0  0  0  0  0  0
   20.8951   28.2300   12.4768 O   0  0  0  0  0  0  0  0  0  0  0  0
   21.5462   30.5044   16.1235 C   0  0  2  0  0  0  0  0  0  0  0  0
   22.2085   31.4002   17.1102 N   0  0  0  0  0  0  0  0  0  0  0  0
   21.0982   27.1595   10.2980 C   0  0  2  0  0  0  0  0  0  0  0  0
   21.0430   28.4562    9.5981 N   0  0  0  0  0  0  0  0  0  0  0  0
   22.4335   29.2547   15.7856 C   0  0  0  0  0  0  0  0  0  0  0  0
   22.5210   30.5469   18.6469 C   0  0  0  0  0  0  0  0  0  0  0  0
   22.9589   31.8906   19.1393 C   0  0  1  0  0  0  0  0  0  0  0  0
   23.0453   31.8073   20.6673 C   0  0  0  0  0  0  0  0  0  0  0  0
   21.6998   31.7302   21.4124 C   0  0  0  0  0  0  0  0  0  0  0  0
   21.0219   30.4921   21.0229 N   0  0  0  0  0  0  0  0  0  0  0  0
   24.2401   32.1911   18.6572 O   0  0  0  0  0  0  0  0  0  0  0  0
   19.3807   33.1846   15.6659 C   0  0  0  0  0  0  0  0  0  0  0  0
   19.8407   34.6210   15.8652 C   0  0  0  0  0  0  0  0  0  0  0  0
   19.6598   26.5567   10.4257 C   0  0  1  0  0  0  0  0  0  0  0  0
   20.7256   34.8160   17.0314 N   0  0  0  0  0  0  0  0  0  0  0  0
   19.0372   26.4437    9.1486 O   0  0  0  0  0  0  0  0  0  0  0  0
   21.7630   28.3620   14.7216 C   0  0  2  0  0  0  0  0  0  0  0  0
   22.6077   27.2260   14.3750 N   0  0  0  0  0  0  0  0  0  0  0  0
   22.5126   36.5449   17.1638 C   0  0  0  0  0  0  0  0  0  0  0  0
   21.7744   37.5742   16.2561 C   0  0  0  0  0  0  0  0  0  0  0  0
   22.1740   35.0709   16.8200 C   0  0  0  0  0  0  0  0  0  0  0  0
   20.3153   37.6459   16.5680 N   0  0  0  0  0  0  0  0  0  0  0  0
   22.3818   29.5467   19.0233 O   0  0  0  0  0  0  0  0  0  0  0  0
   19.7731   25.1848   11.1201 C   0  0  2  0  0  0  0  0  0  0  0  0
   18.5064   24.5542   11.2923 O   0  0  0  0  0  0  0  0  0  0  0  0
   21.4933   29.1565   13.4594 C   0  0  2  0  0  0  0  0  0  0  0  0
   20.4612   25.3187   12.4905 C   0  0  2  0  0  0  0  0  0  0  0  0
   21.7328   25.9647   12.3642 O   0  0  0  0  0  0  0  0  0  0  0  0
   20.5594   30.3904   13.7910 C   0  0  2  0  0  0  0  0  0  0  0  0
   20.3312   31.1476   12.5611 O   0  0  0  0  0  0  0  0  0  0  0  0
   20.6576   23.9808   13.1520 C   0  0  0  0  0  0  0  0  0  0  0  0
   19.4427   23.4216   13.4782 O   0  0  0  0  0  0  0  0  0  0  0  0
   21.2712   31.2907   14.8569 C   0  0  1  0  0  0  0  0  0  0  0  0
   20.5030   32.4082   15.1963 O   0  0  0  0  0  0  0  0  0  0  0  0
  1  2  1  1  0  0  0
  1  5  1  0  0  0  0
  1 30  1  0  0  0  0
  3  4  1  1  0  0  0
  3  7  1  0  0  0  0
  3 35  1  0  0  0  0
  5  6  1  1  0  0  0
  5 16  1  0  0  0  0
  7 19  1  0  0  0  0
  8  4  1  0  0  0  0
  8 25  2  0  0  0  0
  9  8  1  6  0  0  0
  9 10  1  0  0  0  0
  9 13  1  0  0  0  0
 10 11  1  0  0  0  0
 11 12  1  0  0  0  0
 14 15  1  0  0  0  0
 14 36  1  0  0  0  0
 15 17  1  0  0  0  0
 16 18  1  6  0  0  0
 16 26  1  0  0  0  0
 17 23  1  0  0  0  0
 19 20  1  6  0  0  0
 19 28  1  0  0  0  0
 21 22  1  0  0  0  0
 21 23  1  0  0  0  0
 22 24  1  0  0  0  0
 26 27  1  1  0  0  0
 26 29  1  0  0  0  0
 28  2  1  6  0  0  0
 28 31  1  0  0  0  0
 29 30  1  0  0  0  0
 29 33  1  6  0  0  0
 31 32  1  6  0  0  0
 31 35  1  0  0  0  0
 33 34  1  0  0  0  0
 35 36  1  1  0  0  0
M  END
>  <CHROM.1>
-144.43853472,-60.40282706,165.81355376,-71.68005125,63.25867087,-72.03318865
167.43567652,107.28563391,108.66194075,71.63082673,-62.24057932,-78.01935676
-66.32071514,-64.52514093,21.18595845,30.00562421,14.96273876,2.13589441
1.28737572,-3.00971634

>  <Name>
2f4u_lig

>  <RI>
0

>  <Rbt.Current_Directory>
/home/itssahil/PROJECTS/Mol_Feturizer/New_Systems/rnas/2f4u

>  <Rbt.Executable>
rbdock ($Id: //depot/dev/client3/rdock/2013.1/src/exe/rbdock.cxx#4 $)

>  <Rbt.Library>
libRbt.so (2013.1, Build901 2013/11/27)

>  <Rbt.Parameter_File>
/export/apps/rDock/src/rDock_2013.1_src/data/scripts/dock_solv.prm

>  <Rbt.Receptor>
prm/blind_docking_100.prm

>  <SCORE>
1.4789

>  <SCORE.INTER>
-2.19101

>  <SCORE.INTER.CONST>
1

>  <SCORE.INTER.POLAR>
0

>  <SCORE.INTER.ROT>
14

>  <SCORE.INTER.SOLV>
20.1211

>  <SCORE.INTER.VDW>
-21.101

>  <SCORE.INTER.norm>
-0.0608615

>  <SCORE.INTRA>
-2.91287

>  <SCORE.INTRA.DIHEDRAL>
-14.5731

>  <SCORE.INTRA.DIHEDRAL.0>
26.3805

>  <SCORE.INTRA.POLAR>
0

>  <SCORE.INTRA.POLAR.0>
0

>  <SCORE.INTRA.REPUL>
0

>  <SCORE.INTRA.REPUL.0>
0

>  <SCORE.INTRA.SOLV>
9.82392

>  <SCORE.INTRA.SOLV.lig_0>
-98.5587

>  <SCORE.INTRA.VDW>
-0.538279

>  <SCORE.INTRA.VDW.0>
-2.91167

>  <SCORE.INTRA.norm>
-0.080913

>  <SCORE.RESTR>
6.58278

>  <SCORE.RESTR.CAVITY>
6.58278

>  <SCORE.RESTR.norm>
0.182855

>  <SCORE.SYSTEM>
0

>  <SCORE.SYSTEM.CONST>
0

>  <SCORE.SYSTEM.DIHEDRAL>
0

>  <SCORE.SYSTEM.SOLV>
0

>  <SCORE.SYSTEM.norm>
0

>  <SCORE.heavy>
36

>  <SCORE.norm>
0.0410804

>  <RMSD>
32.184

$$$$
2f4u_lig
 OpenBabel11021811433D
libRbt.so/2013.1/901 2013/11/27
 36 37  0  0  0  0  0  0  0  0999 V2000
   20.8610   29.3374   11.2387 C   0  0  2  0  0  0  0  0  0  0  0  0
   20.6351   28.7448   12.5713 O   0  0  0  0  0  0  0  0  0  0  0  0
   21.6438   30.0406   16.5960 C   0  0  2  0  0  0  0  0  0  0  0  0
   22.4702   30.4155   17.7756 N   0  0  0  0  0  0  0  0  0  0  0  0
   20.2667   28.3388   10.1977 C   0  0  2  0  0  0  0  0  0  0  0  0
   18.8303   28.0830   10.4115 N   0  0  0  0  0  0  0  0  0  0  0  0
   21.9310   28.5701   16.1288 C   0  0  0  0  0  0  0  0  0  0  0  0
   21.7966   29.7271   19.2790 C   0  0  0  0  0  0  0  0  0  0  0  0
   22.8590   30.5348   19.9563 C   0  0  1  0  0  0  0  0  0  0  0  0
   22.1499   31.6089   20.7888 C   0  0  0  0  0  0  0  0  0  0  0  0
   23.0313   32.7775   21.2673 C   0  0  0  0  0  0  0  0  0  0  0  0
   23.5555   33.4769   20.0927 N   0  0  0  0  0  0  0  0  0  0  0  0
   23.5934   29.7302   20.8380 O   0  0  0  0  0  0  0  0  0  0  0  0
   20.9818   33.4453   16.4229 C   0  0  0  0  0  0  0  0  0  0  0  0
   21.9905   34.4615   16.9375 C   0  0  0  0  0  0  0  0  0  0  0  0
   21.0678   26.9966   10.2714 C   0  0  1  0  0  0  0  0  0  0  0  0
   21.3881   35.7227   17.4145 N   0  0  0  0  0  0  0  0  0  0  0  0
   20.5552   26.0434    9.3440 O   0  0  0  0  0  0  0  0  0  0  0  0
   21.1109   28.2105   14.8731 C   0  0  2  0  0  0  0  0  0  0  0  0
   21.4117   26.8607   14.4129 N   0  0  0  0  0  0  0  0  0  0  0  0
   22.6449   37.7975   16.8525 C   0  0  0  0  0  0  0  0  0  0  0  0
   22.6220   38.4047   18.2875 C   0  0  0  0  0  0  0  0  0  0  0  0
   21.4039   36.9220   16.5376 C   0  0  0  0  0  0  0  0  0  0  0  0
   22.5338   37.3468   19.3384 N   0  0  0  0  0  0  0  0  0  0  0  0
   20.9692   29.0874   19.5388 O   0  0  0  0  0  0  0  0  0  0  0  0
   22.5529   27.3070    9.9968 C   0  0  2  0  0  0  0  0  0  0  0  0
   23.3727   26.1423   10.0508 O   0  0  0  0  0  0  0  0  0  0  0  0
   21.4189   29.1766   13.7465 C   0  0  2  0  0  0  0  0  0  0  0  0
   23.0891   28.3491   10.9948 C   0  0  2  0  0  0  0  0  0  0  0  0
   22.2813   29.5313   10.9846 O   0  0  0  0  0  0  0  0  0  0  0  0
   21.0846   30.6552   14.2009 C   0  0  2  0  0  0  0  0  0  0  0  0
   21.4079   31.5657   13.1033 O   0  0  0  0  0  0  0  0  0  0  0  0
   24.5144   28.7300   10.6954 C   0  0  0  0  0  0  0  0  0  0  0  0
   25.0430   29.4693   11.7294 O   0  0  0  0  0  0  0  0  0  0  0  0
   21.9443   31.0023   15.4633 C   0  0  1  0  0  0  0  0  0  0  0  0
   21.7041   32.3016   15.9199 O   0  0  0  0  0  0  0  0  0  0  0  0
  1  2  1  1  0  0  0
  1  5  1  0  0  0  0
  1 30  1  0  0  0  0
  3  4  1  1  0  0  0
  3  7  1  0  0  0  0
  3 35  1  0  0  0  0
  5  6  1  1  0  0  0
  5 16  1  0  0  0  0
  7 19  1  0  0  0  0
  8  4  1  0  0  0  0
  8 25  2  0  0  0  0
  9  8  1  1  0  0  0
  9 10  1  0  0  0  0
  9 13  1  0  0  0  0
 10 11  1  0  0  0  0
 11 12  1  0  0  0  0
 14 15  1  0  0  0  0
 14 36  1  0  0  0  0
 15 17  1  0  0  0  0
 16 18  1  6  0  0  0
 16 26  1  0  0  0  0
 17 23  1  0  0  0  0
 19 20  1  6  0  0  0
 19 28  1  0  0  0  0
 21 22  1  0  0  0  0
 21 23  1  0  0  0  0
 22 24  1  0  0  0  0
 26 27  1  1  0  0  0
 26 29  1  0  0  0  0
 28  2  1  6  0  0  0
 28 31  1  0  0  0  0
 29 30  1  0  0  0  0
 29 33  1  6  0  0  0
 31 32  1  6  0  0  0
 31 35  1  0  0  0  0
 33 34  1  0  0  0  0
 35 36  1  1  0  0  0
M  END
>  <CHROM.1>
160.38854363,-78.33578479,114.19468675,-164.27231203,61.63986613,176.69826239
165.17650898,-100.47445192,-93.59149295,58.01780059,-64.94806227,-170.16636542
-169.19475668,-63.55638661,21.97970744,30.73288991,15.09221142,2.52210516
1.49647864,3.08059294

>  <Name>
2f4u_lig

>  <RI>
0

>  <Rbt.Current_Directory>
/home/itssahil/PROJECTS/Mol_Feturizer/New_Systems/rnas/2f4u

>  <Rbt.Executable>
rbdock ($Id: //depot/dev/client3/rdock/2013.1/src/exe/rbdock.cxx#4 $)

>  <Rbt.Library>
libRbt.so (2013.1, Build901 2013/11/27)

>  <Rbt.Parameter_File>
/export/apps/rDock/src/rDock_2013.1_src/data/scripts/dock_solv.prm

>  <Rbt.Receptor>
prm/blind_docking_80.prm

>  <SCORE>
-11.3637

>  <SCORE.INTER>
-4.87842

>  <SCORE.INTER.CONST>
1

>  <SCORE.INTER.POLAR>
0

>  <SCORE.INTER.ROT>
14

>  <SCORE.INTER.SOLV>
24.821

>  <SCORE.INTER.VDW>
-24.4593

>  <SCORE.INTER.norm>
-0.135512

>  <SCORE.INTRA>
-8.08831

>  <SCORE.INTRA.DIHEDRAL>
-17.3283

>  <SCORE.INTRA.DIHEDRAL.0>
26.3805

>  <SCORE.INTRA.POLAR>
0

>  <SCORE.INTRA.POLAR.0>
0

>  <SCORE.INTRA.REPUL>
0.010302

>  <SCORE.INTRA.REPUL.0>
0

>  <SCORE.INTRA.SOLV>
5.1901

>  <SCORE.INTRA.SOLV.lig_0>
-98.5587

>  <SCORE.INTRA.VDW>
-2.07072

>  <SCORE.INTRA.VDW.0>
-2.91167

>  <SCORE.INTRA.norm>
-0.224675

>  <SCORE.RESTR>
1.60301

>  <SCORE.RESTR.CAVITY>
1.60301

>  <SCORE.RESTR.norm>
0.0445279

>  <SCORE.SYSTEM>
0

>  <SCORE.SYSTEM.CONST>
0

>  <SCORE.SYSTEM.DIHEDRAL>
0

>  <SCORE.SYSTEM.SOLV>
0

>  <SCORE.SYSTEM.norm>
0

>  <SCORE.heavy>
36

>  <SCORE.norm>
-0.315659

>  <RMSD>
32.217

$$$$
2f4u_lig
 OpenBabel11021811433D
libRbt.so/2013.1/901 2013/11/27
 36 37  0  0  0  0  0  0  0  0999 V2000
   21.1856   29.4396   11.2615 C   0  0  2  0  0  0  0  0  0  0  0  0
   20.7938   28.9229   12.5872 O   0  0  0  0  0  0  0  0  0  0  0  0
   21.5935   30.1604   16.6767 C   0  0  2  0  0  0  0  0  0  0  0  0
   22.3572   30.5019   17.9075 N   0  0  0  0  0  0  0  0  0  0  0  0
   20.7726   28.3556   10.2181 C   0  0  2  0  0  0  0  0  0  0  0  0
   19.3288   28.0578   10.2493 N   0  0  0  0  0  0  0  0  0  0  0  0
   21.8643   28.6849   16.2152 C   0  0  0  0  0  0  0  0  0  0  0  0
   21.6312   29.7383   19.3488 C   0  0  0  0  0  0  0  0  0  0  0  0
   22.6441   30.5378   20.1069 C   0  0  1  0  0  0  0  0  0  0  0  0
   22.0944   30.7391   21.5235 C   0  0  0  0  0  0  0  0  0  0  0  0
   21.1403   31.9334   21.7097 C   0  0  0  0  0  0  0  0  0  0  0  0
   19.8904   31.6455   21.0034 N   0  0  0  0  0  0  0  0  0  0  0  0
   23.8452   29.8237   20.2149 O   0  0  0  0  0  0  0  0  0  0  0  0
   21.0535   33.5713   16.5352 C   0  0  0  0  0  0  0  0  0  0  0  0
   22.0658   34.6671   16.8338 C   0  0  0  0  0  0  0  0  0  0  0  0
   21.5955   27.0529   10.4911 C   0  0  1  0  0  0  0  0  0  0  0  0
   21.4883   35.8644   17.4773 N   0  0  0  0  0  0  0  0  0  0  0  0
   21.2462   26.0245    9.5682 O   0  0  0  0  0  0  0  0  0  0  0  0
   21.1119   28.3590   14.9090 C   0  0  2  0  0  0  0  0  0  0  0  0
   21.3994   27.0037   14.4564 N   0  0  0  0  0  0  0  0  0  0  0  0
   23.4432   37.3944   17.6713 C   0  0  0  0  0  0  0  0  0  0  0  0
   22.9437   38.6416   16.8817 C   0  0  0  0  0  0  0  0  0  0  0  0
   22.3102   36.6550   18.4297 C   0  0  0  0  0  0  0  0  0  0  0  0
   22.3895   39.6902   17.7897 N   0  0  0  0  0  0  0  0  0  0  0  0
   20.8069   29.0721   19.5439 O   0  0  0  0  0  0  0  0  0  0  0  0
   23.0944   27.4033   10.4029 C   0  0  2  0  0  0  0  0  0  0  0  0
   23.9332   26.2771   10.6471 O   0  0  0  0  0  0  0  0  0  0  0  0
   21.5170   29.3227   13.8115 C   0  0  2  0  0  0  0  0  0  0  0  0
   23.4545   28.5257   11.3928 C   0  0  2  0  0  0  0  0  0  0  0  0
   22.6210   29.6725   11.1924 O   0  0  0  0  0  0  0  0  0  0  0  0
   21.2003   30.8077   14.2573 C   0  0  2  0  0  0  0  0  0  0  0  0
   21.6172   31.7152   13.1892 O   0  0  0  0  0  0  0  0  0  0  0  0
   24.8956   28.9425   11.2672 C   0  0  0  0  0  0  0  0  0  0  0  0
   25.1471   29.4330   10.0057 O   0  0  0  0  0  0  0  0  0  0  0  0
   21.9913   31.1200   15.5726 C   0  0  1  0  0  0  0  0  0  0  0  0
   21.7630   32.4229   16.0248 O   0  0  0  0  0  0  0  0  0  0  0  0
  1  2  1  1  0  0  0
  1  5  1  0  0  0  0
  1 30  1  0  0  0  0
  3  4  1  1  0  0  0
  3  7  1  0  0  0  0
  3 35  1  0  0  0  0
  5  6  1  1  0  0  0
  5 16  1  0  0  0  0
  7 19  1  0  0  0  0
  8  4  1  0  0  0  0
  8 25  2  0  0  0  0
  9  8  1  6  0  0  0
  9 10  1  0  0  0  0
  9 13  1  0  0  0  0
 10 11  1  0  0  0  0
 11 12  1  0  0  0  0
 14 15  1  0  0  0  0
 14 36  1  0  0  0  0
 15 17  1  0  0  0  0
 16 18  1  6  0  0  0
 16 26  1  0  0  0  0
 17 23  1  0  0  0  0
 19 20  1  6  0  0  0
 19 28  1  0  0  0  0
 21 22  1  0  0  0  0
 21 23  1  0  0  0  0
 22 24  1  0  0  0  0
 26 27  1  1  0  0  0
 26 29  1  0  0  0  0
 28  2  1  6  0  0  0
 28 31  1  0  0  0  0
 29 30  1  0  0  0  0
 29 33  1  6  0  0  0
 31 32  1  6  0  0  0
 31 35  1  0  0  0  0
 33 34  1  0  0  0  0
 35 36  1  1  0  0  0
M  END
>  <CHROM.1>
152.02312340,-74.72643450,155.26872863,-85.15558082,69.11370279,-174.86404813
173.18921922,148.29857363,69.75325889,63.45752682,75.75116285,-165.45277812
61.33735180,-58.44708835,22.02625438,30.76828055,15.17033016,-1.44603751
1.42485380,0.76602048

>  <Name>
2f4u_lig

>  <RI>
0

>  <Rbt.Current_Directory>
/home/itssahil/PROJECTS/Mol_Feturizer/New_Systems/rnas/2f4u

>  <Rbt.Executable>
rbdock ($Id: //depot/dev/client3/rdock/2013.1/src/exe/rbdock.cxx#4 $)

>  <Rbt.Library>
libRbt.so (2013.1, Build901 2013/11/27)

>  <Rbt.Parameter_File>
/export/apps/rDock/src/rDock_2013.1_src/data/scripts/dock_solv.prm

>  <Rbt.Receptor>
prm/blind_docking_80.prm

>  <SCORE>
-16.6154

>  <SCORE.INTER>
-10.6301

>  <SCORE.INTER.CONST>
1

>  <SCORE.INTER.POLAR>
-0.270162

>  <SCORE.INTER.ROT>
14

>  <SCORE.INTER.SOLV>
19.0933

>  <SCORE.INTER.VDW>
-25.484

>  <SCORE.INTER.norm>
-0.295281

>  <SCORE.INTRA>
-7.6533

>  <SCORE.INTRA.DIHEDRAL>
-16.4256

>  <SCORE.INTRA.DIHEDRAL.0>
26.3805

>  <SCORE.INTRA.POLAR>
0

>  <SCORE.INTRA.POLAR.0>
0

>  <SCORE.INTRA.REPUL>
0

>  <SCORE.INTRA.REPUL.0>
0

>  <SCORE.INTRA.SOLV>
3.75713

>  <SCORE.INTRA.SOLV.lig_0>
-98.5587

>  <SCORE.INTRA.VDW>
-1.31907

>  <SCORE.INTRA.VDW.0>
-2.91167

>  <SCORE.INTRA.norm>
-0.212592

>  <SCORE.RESTR>
1.668

>  <SCORE.RESTR.CAVITY>
1.668

>  <SCORE.RESTR.norm>
0.0463333

>  <SCORE.SYSTEM>
0

>  <SCORE.SYSTEM.CONST>
0

>  <SCORE.SYSTEM.DIHEDRAL>
0

>  <SCORE.SYSTEM.SOLV>
0

>  <SCORE.SYSTEM.norm>
0

>  <SCORE.heavy>
36

>  <SCORE.norm>
-0.461539

>  <RMSD>
32.294

$$$$
2f4u_lig
 OpenBabel11021811433D
libRbt.so/2013.1/901 2013/11/27
 36 37  0  0  0  0  0  0  0  0999 V2000
   21.3092   29.0220   11.1509 C   0  0  2  0  0  0  0  0  0  0  0  0
   21.1909   28.4967   12.5249 O   0  0  0  0  0  0  0  0  0  0  0  0
   21.6082   30.3162   16.4506 C   0  0  2  0  0  0  0  0  0  0  0  0
   22.2392   31.0002   17.6119 N   0  0  0  0  0  0  0  0  0  0  0  0
   20.7295   27.9281   10.2015 C   0  0  2  0  0  0  0  0  0  0  0  0
   19.3258   27.5961   10.5074 N   0  0  0  0  0  0  0  0  0  0  0  0
   22.3297   28.9648   16.1095 C   0  0  0  0  0  0  0  0  0  0  0  0
   21.7003   30.2803   19.1542 C   0  0  0  0  0  0  0  0  0  0  0  0
   22.4669   31.4022   19.7815 C   0  0  1  0  0  0  0  0  0  0  0  0
   21.4967   32.5773   19.9467 C   0  0  0  0  0  0  0  0  0  0  0  0
   22.1173   33.9817   19.8292 C   0  0  0  0  0  0  0  0  0  0  0  0
   23.2698   34.0584   20.7291 N   0  0  0  0  0  0  0  0  0  0  0  0
   22.9093   31.0339   21.0594 O   0  0  0  0  0  0  0  0  0  0  0  0
   20.6573   33.5893   16.3822 C   0  0  0  0  0  0  0  0  0  0  0  0
   21.8775   34.4828   16.5479 C   0  0  0  0  0  0  0  0  0  0  0  0
   21.6197   26.6454   10.3064 C   0  0  1  0  0  0  0  0  0  0  0  0
   21.6541   35.6560   17.4167 N   0  0  0  0  0  0  0  0  0  0  0  0
   21.1242   25.6085    9.4633 O   0  0  0  0  0  0  0  0  0  0  0  0
   21.7035   28.2917   14.8712 C   0  0  2  0  0  0  0  0  0  0  0  0
   22.4027   27.0599   14.5277 N   0  0  0  0  0  0  0  0  0  0  0  0
   22.5914   37.8375   16.6667 C   0  0  0  0  0  0  0  0  0  0  0  0
   23.2311   38.2176   18.0359 C   0  0  0  0  0  0  0  0  0  0  0  0
   21.3149   36.9677   16.8070 C   0  0  0  0  0  0  0  0  0  0  0  0
   22.2918   39.0047   18.8900 N   0  0  0  0  0  0  0  0  0  0  0  0
   21.0651   29.4616   19.4503 O   0  0  0  0  0  0  0  0  0  0  0  0
   23.0653   27.0312    9.9342 C   0  0  2  0  0  0  0  0  0  0  0  0
   23.9615   25.9254   10.0085 O   0  0  0  0  0  0  0  0  0  0  0  0
   21.7649   29.2222   13.6764 C   0  0  2  0  0  0  0  0  0  0  0  0
   23.5821   28.1623   10.8414 C   0  0  2  0  0  0  0  0  0  0  0  0
   22.6990   29.2889   10.8091 O   0  0  0  0  0  0  0  0  0  0  0  0
   20.9965   30.5666   14.0030 C   0  0  2  0  0  0  0  0  0  0  0  0
   21.0874   31.4508   12.8420 O   0  0  0  0  0  0  0  0  0  0  0  0
   24.9622   28.6131   10.4437 C   0  0  0  0  0  0  0  0  0  0  0  0
   25.3902   29.6340   11.2621 O   0  0  0  0  0  0  0  0  0  0  0  0
   21.6639   31.2399   15.2498 C   0  0  1  0  0  0  0  0  0  0  0  0
   21.0374   32.4410   15.5950 O   0  0  0  0  0  0  0  0  0  0  0  0
  1  2  1  1  0  0  0
  1  5  1  0  0  0  0
  1 30  1  0  0  0  0
  3  4  1  1  0  0  0
  3  7  1  0  0  0  0
  3 35  1  0  0  0  0
  5  6  1  1  0  0  0
  5 16  1  0  0  0  0
  7 19  1  0  0  0  0
  8  4  1  0  0  0  0
  8 25  2  0  0  0  0
  9  8  1  1  0  0  0
  9 10  1  0  0  0  0
  9 13  1  0  0  0  0
 10 11  1  0  0  0  0
 11 12  1  0  0  0  0
 14 15  1  0  0  0  0
 14 36  1  0  0  0  0
 15 17  1  0  0  0  0
 16 18  1  6  0  0  0
 16 26  1  0  0  0  0
 17 23  1  0  0  0  0
 19 20  1  6  0  0  0
 19 28  1  0  0  0  0
 21 22  1  0  0  0  0
 21 23  1  0  0  0  0
 22 24  1  0  0  0  0
 26 27  1  1  0  0  0
 26 29  1  0  0  0  0
 28  2  1  6  0  0  0
 28 31  1  0  0  0  0
 29 30  1  0  0  0  0
 29 33  1  6  0  0  0
 31 32  1  6  0  0  0
 31 35  1  0  0  0  0
 33 34  1  0  0  0  0
 35 36  1  1  0  0  0
M  END
>  <CHROM.1>
174.06296294,-79.74079224,90.18856219,-148.01525315,-51.56442542,-175.97217010
68.27651359,-96.39439788,-96.86693917,-60.39584143,-64.22552905,-169.20694093
179.30206453,41.83427650,22.08078811,30.90272314,14.94830493,-1.38773465
1.50226514,0.63776049

>  <Name>
2f4u_lig

>  <RI>
0

>  <Rbt.Current_Directory>
/home/itssahil/PROJECTS/Mol_Feturizer/New_Systems/rnas/2f4u

>  <Rbt.Executable>
rbdock ($Id: //depot/dev/client3/rdock/2013.1/src/exe/rbdock.cxx#4 $)

>  <Rbt.Library>
libRbt.so (2013.1, Build901 2013/11/27)

>  <Rbt.Parameter_File>
/export/apps/rDock/src/rDock_2013.1_src/data/scripts/dock_solv.prm

>  <Rbt.Receptor>
prm/blind_docking_100.prm

>  <SCORE>
-3.80388

>  <SCORE.INTER>
0.191906

>  <SCORE.INTER.CONST>
1

>  <SCORE.INTER.POLAR>
0

>  <SCORE.INTER.ROT>
14

>  <SCORE.INTER.SOLV>
21.7193

>  <SCORE.INTER.VDW>
-20.0451

>  <SCORE.INTER.norm>
0.00533073

>  <SCORE.INTRA>
-8.69912

>  <SCORE.INTRA.DIHEDRAL>
-16.9181

>  <SCORE.INTRA.DIHEDRAL.0>
26.3805

>  <SCORE.INTRA.POLAR>
0

>  <SCORE.INTRA.POLAR.0>
0

>  <SCORE.INTRA.REPUL>
0

>  <SCORE.INTRA.REPUL.0>
0

>  <SCORE.INTRA.SOLV>
3.65922

>  <SCORE.INTRA.SOLV.lig_0>
-98.5587

>  <SCORE.INTRA.VDW>
-2.06968

>  <SCORE.INTRA.VDW.0>
-2.91167

>  <SCORE.INTRA.norm>
-0.241642

>  <SCORE.RESTR>
4.70333

>  <SCORE.RESTR.CAVITY>
4.70333

>  <SCORE.RESTR.norm>
0.130648

>  <SCORE.SYSTEM>
0

>  <SCORE.SYSTEM.CONST>
0

>  <SCORE.SYSTEM.DIHEDRAL>
0

>  <SCORE.SYSTEM.SOLV>
0

>  <SCORE.SYSTEM.norm>
0

>  <SCORE.heavy>
36

>  <SCORE.norm>
-0.105663

>  <RMSD>
32.322

$$$$
2f4u_lig
 OpenBabel11021811433D
libRbt.so/2013.1/901 2013/11/27
 36 37  0  0  0  0  0  0  0  0999 V2000
   21.7837   29.3440   11.7162 C   0  0  2  0  0  0  0  0  0  0  0  0
   21.4962   28.7431   13.0332 O   0  0  0  0  0  0  0  0  0  0  0  0
   21.0665   30.7435   16.8684 C   0  0  2  0  0  0  0  0  0  0  0  0
   21.4425   31.3996   18.1502 N   0  0  0  0  0  0  0  0  0  0  0  0
   21.1367   28.4102   10.6469 C   0  0  2  0  0  0  0  0  0  0  0  0
   19.6828   28.2523   10.8352 N   0  0  0  0  0  0  0  0  0  0  0  0
   21.6153   29.2756   16.7838 C   0  0  0  0  0  0  0  0  0  0  0  0
   23.1991   31.2776   18.4454 C   0  0  0  0  0  0  0  0  0  0  0  0
   22.8742   31.8878   19.7728 C   0  0  1  0  0  0  0  0  0  0  0  0
   22.7661   30.7412   20.7842 C   0  0  0  0  0  0  0  0  0  0  0  0
   21.9200   31.0299   22.0380 C   0  0  0  0  0  0  0  0  0  0  0  0
   20.6725   31.6727   21.6203 N   0  0  0  0  0  0  0  0  0  0  0  0
   23.9168   32.7259   20.1908 O   0  0  0  0  0  0  0  0  0  0  0  0
   20.7759   34.1239   16.4494 C   0  0  0  0  0  0  0  0  0  0  0  0
   21.9718   34.6340   17.2396 C   0  0  0  0  0  0  0  0  0  0  0  0
   21.8402   27.0136   10.7044 C   0  0  1  0  0  0  0  0  0  0  0  0
   21.6852   35.8201   18.0714 N   0  0  0  0  0  0  0  0  0  0  0  0
   21.2763   26.1170    9.7507 O   0  0  0  0  0  0  0  0  0  0  0  0
   21.2678   28.6242   15.4298 C   0  0  2  0  0  0  0  0  0  0  0  0
   21.8166   27.2773   15.3338 N   0  0  0  0  0  0  0  0  0  0  0  0
   22.5737   37.8931   17.0162 C   0  0  0  0  0  0  0  0  0  0  0  0
   23.5884   39.0732   17.0934 C   0  0  0  0  0  0  0  0  0  0  0  0
   22.7045   36.8941   18.1954 C   0  0  0  0  0  0  0  0  0  0  0  0
   23.2998   40.1236   16.0714 N   0  0  0  0  0  0  0  0  0  0  0  0
   24.0507   30.8814   17.9171 O   0  0  0  0  0  0  0  0  0  0  0  0
   23.3475   27.2236   10.4570 C   0  0  2  0  0  0  0  0  0  0  0  0
   24.0825   26.0031   10.4988 O   0  0  0  0  0  0  0  0  0  0  0  0
   21.8283   29.4483   14.2879 C   0  0  2  0  0  0  0  0  0  0  0  0
   23.9403   28.2057   11.4835 C   0  0  2  0  0  0  0  0  0  0  0  0
   23.2178   29.4419   11.4860 O   0  0  0  0  0  0  0  0  0  0  0  0
   21.2383   30.9157   14.3449 C   0  0  2  0  0  0  0  0  0  0  0  0
   21.8090   31.6919   13.2449 O   0  0  0  0  0  0  0  0  0  0  0  0
   25.3933   28.4907   11.2119 C   0  0  0  0  0  0  0  0  0  0  0  0
   25.5284   29.2808   10.0928 O   0  0  0  0  0  0  0  0  0  0  0  0
   21.6221   31.5615   15.7193 C   0  0  1  0  0  0  0  0  0  0  0  0
   21.1363   32.8668   15.8391 O   0  0  0  0  0  0  0  0  0  0  0  0
  1  2  1  1  0  0  0
  1  5  1  0  0  0  0
  1 30  1  0  0  0  0
  3  4  1  1  0  0  0
  3  7  1  0  0  0  0
  3 35  1  0  0  0  0
  5  6  1  1  0  0  0
  5 16  1  0  0  0  0
  7 19  1  0  0  0  0
  8  4  1  0  0  0  0
  8 25  2  0  0  0  0
  9  8  1  6  0  0  0
  9 10  1  0  0  0  0
  9 13  1  0  0  0  0
 10 11  1  0  0  0  0
 11 12  1  0  0  0  0
 14 15  1  0  0  0  0
 14 36  1  0  0  0  0
 15 17  1  0  0  0  0
 16 18  1  6  0  0  0
 16 26  1  0  0  0  0
 17 23  1  0  0  0  0
 19 20  1  1  0  0  0
 19 28  1  0  0  0  0
 21 22  1  0  0  0  0
 21 23  1  0  0  0  0
 22 24  1  0  0  0  0
 26 27  1  1  0  0  0
 26 29  1  0  0  0  0
 28  2  1  6  0  0  0
 28 31  1  0  0  0  0
 29 30  1  0  0  0  0
 29 33  1  6  0  0  0
 31 32  1  6  0  0  0
 31 35  1  0  0  0  0
 33 34  1  0  0  0  0
 35 36  1  6  0  0  0
M  END
>  <CHROM.1>
-172.84172773,52.05884415,97.17678950,-156.59057027,45.76847815,-171.90306712
50.69051257,-141.71557473,85.44624669,-171.09128934,178.55754376,174.00158189
72.02035225,45.50330152,22.34691895,31.07546374,15.20561007,-1.44889914,1.42653999
0.69198600

>  <Name>
2f4u_lig

>  <RI>
0

>  <Rbt.Current_Directory>
/home/itssahil/PROJECTS/Mol_Feturizer/New_Systems/rnas/2f4u

>  <Rbt.Executable>
rbdock ($Id: //depot/dev/client3/rdock/2013.1/src/exe/rbdock.cxx#4 $)

>  <Rbt.Library>
libRbt.so (2013.1, Build901 2013/11/27)

>  <Rbt.Parameter_File>
/export/apps/rDock/src/rDock_2013.1_src/data/scripts/dock_solv.prm

>  <Rbt.Receptor>
prm/blind_docking_80.prm

>  <SCORE>
-24.7878

>  <SCORE.INTER>
-17.4991

>  <SCORE.INTER.CONST>
1

>  <SCORE.INTER.POLAR>
-1.78645

>  <SCORE.INTER.ROT>
14

>  <SCORE.INTER.SOLV>
26.2871

>  <SCORE.INTER.VDW>
-27.4069

>  <SCORE.INTER.norm>
-0.486086

>  <SCORE.INTRA>
-9.54473

>  <SCORE.INTRA.DIHEDRAL>
-17.6431

>  <SCORE.INTRA.DIHEDRAL.0>
26.3805

>  <SCORE.INTRA.POLAR>
0

>  <SCORE.INTRA.POLAR.0>
0

>  <SCORE.INTRA.REPUL>
0

>  <SCORE.INTRA.REPUL.0>
0

>  <SCORE.INTRA.SOLV>
1.43101

>  <SCORE.INTRA.SOLV.lig_0>
-98.5587

>  <SCORE.INTRA.VDW>
-1.43868

>  <SCORE.INTRA.VDW.0>
-2.91167

>  <SCORE.INTRA.norm>
-0.265131

>  <SCORE.RESTR>
2.25607

>  <SCORE.RESTR.CAVITY>
2.25607

>  <SCORE.RESTR.norm>
0.0626685

>  <SCORE.SYSTEM>
0

>  <SCORE.SYSTEM.CONST>
0

>  <SCORE.SYSTEM.DIHEDRAL>
0

>  <SCORE.SYSTEM.SOLV>
0

>  <SCORE.SYSTEM.norm>
0

>  <SCORE.heavy>
36

>  <SCORE.norm>
-0.688549

>  <RMSD>
32.382

$$$$
2f4u_lig
 OpenBabel11021811433D
libRbt.so/2013.1/901 2013/11/27
 36 37  0  0  0  0  0  0  0  0999 V2000
   22.3104   29.3838   11.7715 C   0  0  2  0  0  0  0  0  0  0  0  0
   21.2829   29.3836   12.8307 O   0  0  0  0  0  0  0  0  0  0  0  0
   20.9074   30.1505   17.0929 C   0  0  2  0  0  0  0  0  0  0  0  0
   21.2982   30.3478   18.5152 N   0  0  0  0  0  0  0  0  0  0  0  0
   21.5567   29.5543   10.4161 C   0  0  2  0  0  0  0  0  0  0  0  0
   20.7594   30.7935   10.3613 N   0  0  0  0  0  0  0  0  0  0  0  0
   21.3315   28.7347   16.5646 C   0  0  0  0  0  0  0  0  0  0  0  0
   23.0679   30.2294   18.7194 C   0  0  0  0  0  0  0  0  0  0  0  0
   22.7628   30.3294   20.1812 C   0  0  1  0  0  0  0  0  0  0  0  0
   22.2730   31.7576   20.4451 C   0  0  0  0  0  0  0  0  0  0  0  0
   21.3572   31.9374   21.6700 C   0  0  0  0  0  0  0  0  0  0  0  0
   19.9660   31.7941   21.2366 N   0  0  0  0  0  0  0  0  0  0  0  0
   21.7227   29.4540   20.5217 O   0  0  0  0  0  0  0  0  0  0  0  0
   21.1663   33.9005   16.9596 C   0  0  0  0  0  0  0  0  0  0  0  0
   22.3822   34.2911   17.7866 C   0  0  0  0  0  0  0  0  0  0  0  0
   20.6329   28.3113   10.1924 C   0  0  1  0  0  0  0  0  0  0  0  0
   22.8568   35.6695   17.5498 N   0  0  0  0  0  0  0  0  0  0  0  0
   19.9113   28.4238    8.9685 O   0  0  0  0  0  0  0  0  0  0  0  0
   20.9716   28.5612   15.0750 C   0  0  2  0  0  0  0  0  0  0  0  0
   21.4063   27.2638   14.5729 N   0  0  0  0  0  0  0  0  0  0  0  0
   22.8705   38.0111   18.3962 C   0  0  0  0  0  0  0  0  0  0  0  0
   23.6511   38.6937   17.2331 C   0  0  0  0  0  0  0  0  0  0  0  0
   21.9951   36.8186   17.9301 C   0  0  0  0  0  0  0  0  0  0  0  0
   22.7588   39.5396   16.3847 N   0  0  0  0  0  0  0  0  0  0  0  0
   23.9175   30.0855   18.0722 O   0  0  0  0  0  0  0  0  0  0  0  0
   21.5148   27.0467   10.2119 C   0  0  2  0  0  0  0  0  0  0  0  0
   20.7600   25.8522   10.0243 O   0  0  0  0  0  0  0  0  0  0  0  0
   21.6350   29.6398   14.2422 C   0  0  2  0  0  0  0  0  0  0  0  0
   22.3002   26.9460   11.5320 C   0  0  2  0  0  0  0  0  0  0  0  0
   23.0605   28.1361   11.7678 O   0  0  0  0  0  0  0  0  0  0  0  0
   21.1708   31.0671   14.7440 C   0  0  2  0  0  0  0  0  0  0  0  0
   21.8390   32.0866   13.9363 O   0  0  0  0  0  0  0  0  0  0  0  0
   23.2310   25.7629   11.5411 C   0  0  0  0  0  0  0  0  0  0  0  0
   24.1367   25.8544   10.5084 O   0  0  0  0  0  0  0  0  0  0  0  0
   21.5657   31.2258   16.2513 C   0  0  1  0  0  0  0  0  0  0  0  0
   21.1894   32.4709   16.7635 O   0  0  0  0  0  0  0  0  0  0  0  0
  1  2  1  1  0  0  0
  1  5  1  0  0  0  0
  1 30  1  0  0  0  0
  3  4  1  1  0  0  0
  3  7  1  0  0  0  0
  3 35  1  0  0  0  0
  5  6  1  1  0  0  0
  5 16  1  0  0  0  0
  7 19  1  0  0  0  0
  8  4  1  0  0  0  0
  8 25  2  0  0  0  0
  9  8  1  6  0  0  0
  9 10  1  0  0  0  0
  9 13  1  0  0  0  0
 10 11  1  0  0  0  0
 11 12  1  0  0  0  0
 14 15  1  0  0  0  0
 14 36  1  0  0  0  0
 15 17  1  0  0  0  0
 16 18  1  6  0  0  0
 16 26  1  0  0  0  0
 17 23  1  0  0  0  0
 19 20  1  6  0  0  0
 19 28  1  0  0  0  0
 21 22  1  0  0  0  0
 21 23  1  0  0  0  0
 22 24  1  0  0  0  0
 26 27  1  1  0  0  0
 26 29  1  0  0  0  0
 28  2  1  6  0  0  0
 28 31  1  0  0  0  0
 29 30  1  0  0  0  0
 29 33  1  6  0  0  0
 31 32  1  6  0  0  0
 31 35  1  0  0  0  0
 33 34  1  0  0  0  0
 35 36  1  1  0  0  0
M  END
>  <CHROM.1>
-161.73012638,60.78293564,-69.63690136,154.66530686,-91.53831564,152.56968693
-75.62440520,65.56017768,146.50084342,75.06098221,71.13973575,-131.90575987
59.42415650,170.17597790,21.88108455,30.79431905,15.26830615,-2.43971052
1.51219889,1.70138455

>  <Name>
2f4u_lig

>  <RI>
0

>  <Rbt.Current_Directory>
/home/itssahil/PROJECTS/Mol_Feturizer/New_Systems/rnas/2f4u

>  <Rbt.Executable>
rbdock ($Id: //depot/dev/client3/rdock/2013.1/src/exe/rbdock.cxx#4 $)

>  <Rbt.Library>
libRbt.so (2013.1, Build901 2013/11/27)

>  <Rbt.Parameter_File>
/export/apps/rDock/src/rDock_2013.1_src/data/scripts/dock_solv.prm

>  <Rbt.Receptor>
prm/blind_docking_80.prm

>  <SCORE>
-7.67005

>  <SCORE.INTER>
-12.7001

>  <SCORE.INTER.CONST>
1

>  <SCORE.INTER.POLAR>
-2.34852

>  <SCORE.INTER.ROT>
14

>  <SCORE.INTER.SOLV>
27.9498

>  <SCORE.INTER.VDW>
-22.8883

>  <SCORE.INTER.norm>
-0.352782

>  <SCORE.INTRA>
3.06063

>  <SCORE.INTRA.DIHEDRAL>
-6.52458

>  <SCORE.INTRA.DIHEDRAL.0>
26.3805

>  <SCORE.INTRA.POLAR>
0

>  <SCORE.INTRA.POLAR.0>
0

>  <SCORE.INTRA.REPUL>
0

>  <SCORE.INTRA.REPUL.0>
0

>  <SCORE.INTRA.SOLV>
5.83475

>  <SCORE.INTRA.SOLV.lig_0>
-98.5587

>  <SCORE.INTRA.VDW>
3.40554

>  <SCORE.INTRA.VDW.0>
-2.91167

>  <SCORE.INTRA.norm>
0.0850174

>  <SCORE.RESTR>
1.96947

>  <SCORE.RESTR.CAVITY>
1.96947

>  <SCORE.RESTR.norm>
0.0547075

>  <SCORE.SYSTEM>
0

>  <SCORE.SYSTEM.CONST>
0

>  <SCORE.SYSTEM.DIHEDRAL>
0

>  <SCORE.SYSTEM.SOLV>
0

>  <SCORE.SYSTEM.norm>
0

>  <SCORE.heavy>
36

>  <SCORE.norm>
-0.213057

>  <RMSD>
32.446

$$$$
2f4u_lig
 OpenBabel11021811433D
libRbt.so/2013.1/901 2013/11/27
 36 37  0  0  0  0  0  0  0  0999 V2000
   21.1750   27.4377   12.9076 C   0  0  2  0  0  0  0  0  0  0  0  0
   20.9208   28.8476   13.2621 O   0  0  0  0  0  0  0  0  0  0  0  0
   21.5264   30.6009   17.1933 C   0  0  2  0  0  0  0  0  0  0  0  0
   22.2301   31.1794   18.3701 N   0  0  0  0  0  0  0  0  0  0  0  0
   22.5670   27.3965   12.2042 C   0  0  2  0  0  0  0  0  0  0  0  0
   23.6507   27.9169   13.0581 N   0  0  0  0  0  0  0  0  0  0  0  0
   22.0234   29.1465   16.8759 C   0  0  0  0  0  0  0  0  0  0  0  0
   21.8509   30.2697   19.8587 C   0  0  0  0  0  0  0  0  0  0  0  0
   22.6284   31.3482   20.5457 C   0  0  1  0  0  0  0  0  0  0  0  0
   21.7272   32.5864   20.6091 C   0  0  0  0  0  0  0  0  0  0  0  0
   20.4031   32.4141   21.3762 C   0  0  0  0  0  0  0  0  0  0  0  0
   19.5680   31.4524   20.6540 N   0  0  0  0  0  0  0  0  0  0  0  0
   22.9244   30.9706   21.8626 O   0  0  0  0  0  0  0  0  0  0  0  0
   21.3721   34.2180   16.4821 C   0  0  0  0  0  0  0  0  0  0  0  0
   22.2649   34.5434   17.6702 C   0  0  0  0  0  0  0  0  0  0  0  0
   22.4864   28.2212   10.8768 C   0  0  1  0  0  0  0  0  0  0  0  0
   22.3250   35.9804   18.0056 N   0  0  0  0  0  0  0  0  0  0  0  0
   23.7403   28.2238   10.1993 O   0  0  0  0  0  0  0  0  0  0  0  0
   21.3283   28.5774   15.6223 C   0  0  2  0  0  0  0  0  0  0  0  0
   21.8231   27.2445   15.3017 N   0  0  0  0  0  0  0  0  0  0  0  0
   23.7422   38.0057   17.7063 C   0  0  0  0  0  0  0  0  0  0  0  0
   22.9260   39.1503   18.3785 C   0  0  0  0  0  0  0  0  0  0  0  0
   22.8509   36.9465   17.0068 C   0  0  0  0  0  0  0  0  0  0  0  0
   21.9183   38.6216   19.3462 N   0  0  0  0  0  0  0  0  0  0  0  0
   21.2726   29.3957   20.1099 O   0  0  0  0  0  0  0  0  0  0  0  0
   21.3737   27.6132    9.9996 C   0  0  2  0  0  0  0  0  0  0  0  0
   21.2146   28.3046    8.7633 O   0  0  0  0  0  0  0  0  0  0  0  0
   21.5753   29.4764   14.4274 C   0  0  2  0  0  0  0  0  0  0  0  0
   20.0291   27.6018   10.7488 C   0  0  2  0  0  0  0  0  0  0  0  0
   20.1497   26.9300   12.0074 O   0  0  0  0  0  0  0  0  0  0  0  0
   21.0314   30.9316   14.7290 C   0  0  2  0  0  0  0  0  0  0  0  0
   21.2989   31.7803   13.5686 O   0  0  0  0  0  0  0  0  0  0  0  0
   18.9446   26.9374    9.9434 C   0  0  0  0  0  0  0  0  0  0  0  0
   19.1263   25.5729    9.9237 O   0  0  0  0  0  0  0  0  0  0  0  0
   21.7669   31.4942   15.9922 C   0  0  1  0  0  0  0  0  0  0  0  0
   21.3387   32.7848   16.3167 O   0  0  0  0  0  0  0  0  0  0  0  0
  1  2  1  6  0  0  0
  1  5  1  0  0  0  0
  1 30  1  0  0  0  0
  3  4  1  1  0  0  0
  3  7  1  0  0  0  0
  3 35  1  0  0  0  0
  5  6  1  1  0  0  0
  5 16  1  0  0  0  0
  7 19  1  0  0  0  0
  8  4  1  0  0  0  0
  8 25  2  0  0  0  0
  9  8  1  1  0  0  0
  9 10  1  0  0  0  0
  9 13  1  0  0  0  0
 10 11  1  0  0  0  0
 11 12  1  0  0  0  0
 14 15  1  0  0  0  0
 14 36  1  0  0  0  0
 15 17  1  0  0  0  0
 16 18  1  6  0  0  0
 16 26  1  0  0  0  0
 17 23  1  0  0  0  0
 19 20  1  6  0  0  0
 19 28  1  0  0  0  0
 21 22  1  0  0  0  0
 21 23  1  0  0  0  0
 22 24  1  0  0  0  0
 26 27  1  6  0  0  0
 26 29  1  0  0  0  0
 28  2  1  6  0  0  0
 28 31  1  0  0  0  0
 29 30  1  0  0  0  0
 29 33  1  6  0  0  0
 31 32  1  6  0  0  0
 31 35  1  0  0  0  0
 33 34  1  0  0  0  0
 35 36  1  1  0  0  0
M  END
>  <CHROM.1>
-77.45517907,-64.71378534,76.36130116,60.18682101,-65.46693710,-176.50240305
-73.17166465,-61.32175022,-139.44930679,55.35845332,-81.07185362,-51.85569015
73.62145721,128.23407648,21.63094598,30.81829890,15.56771151,2.18198058,-1.40342820
-1.69331169

>  <Name>
2f4u_lig

>  <RI>
0

>  <Rbt.Current_Directory>
/home/itssahil/PROJECTS/Mol_Feturizer/New_Systems/rnas/2f4u

>  <Rbt.Executable>
rbdock ($Id: //depot/dev/client3/rdock/2013.1/src/exe/rbdock.cxx#4 $)

>  <Rbt.Library>
libRbt.so (2013.1, Build901 2013/11/27)

>  <Rbt.Parameter_File>
/export/apps/rDock/src/rDock_2013.1_src/data/scripts/dock_solv.prm

>  <Rbt.Receptor>
prm/blind_docking_80.prm

>  <SCORE>
2.05873

>  <SCORE.INTER>
-2.77897

>  <SCORE.INTER.CONST>
1

>  <SCORE.INTER.POLAR>
0

>  <SCORE.INTER.ROT>
14

>  <SCORE.INTER.SOLV>
18.8149

>  <SCORE.INTER.VDW>
-21.0576

>  <SCORE.INTER.norm>
-0.0771937

>  <SCORE.INTRA>
2.65438

>  <SCORE.INTRA.DIHEDRAL>
-12.45

>  <SCORE.INTRA.DIHEDRAL.0>
26.3805

>  <SCORE.INTRA.POLAR>
0

>  <SCORE.INTRA.POLAR.0>
0

>  <SCORE.INTRA.REPUL>
0

>  <SCORE.INTRA.REPUL.0>
0

>  <SCORE.INTRA.SOLV>
11.3845

>  <SCORE.INTRA.SOLV.lig_0>
-98.5587

>  <SCORE.INTRA.VDW>
3.18713

>  <SCORE.INTRA.VDW.0>
-2.91167

>  <SCORE.INTRA.norm>
0.0737328

>  <SCORE.RESTR>
2.18333

>  <SCORE.RESTR.CAVITY>
2.18333

>  <SCORE.RESTR.norm>
0.0606479

>  <SCORE.SYSTEM>
0

>  <SCORE.SYSTEM.CONST>
0

>  <SCORE.SYSTEM.DIHEDRAL>
0

>  <SCORE.SYSTEM.SOLV>
0

>  <SCORE.SYSTEM.norm>
0

>  <SCORE.heavy>
36

>  <SCORE.norm>
0.057187

>  <RMSD>
32.725

$$$$
